=
 OpenBabel11042411573D

 37 39  0  0  1  0  0  0  0  0999 V2000
  186.0780  178.7540  138.2250 N   0  0  0  0  0  2  0  0  0  0  0  0
  187.4380  178.3590  138.3940 C   0  0  0  0  0  0  0  0  0  0  0  0
  188.2620  178.0130  137.1810 C   0  0  0  0  0  2  0  0  0  0  0  0
  189.3640  177.9200  139.7910 C   0  0  2  0  0  3  0  0  0  0  0  0
  187.9580  178.2840  139.5870 N   0  0  0  0  0  0  0  0  0  0  0  0
  189.3070  176.9800  137.5220 C   0  0  0  0  0  0  0  0  0  0  0  0
  189.8090  176.9130  138.7640 C   0  0  0  0  0  3  0  0  0  0  0  0
  189.5970  177.4090  141.1750 C   0  0  0  0  0  0  0  0  0  0  0  0
  190.5490  176.6010  143.3170 C   0  0  0  0  0  0  0  0  0  0  0  0
  189.1780  176.3970  143.2280 C   0  0  0  0  0  3  0  0  0  0  0  0
  191.1060  177.3190  141.9070 S   0  0  0  0  0  0  0  0  0  0  0  0
  188.6400  176.8500  142.0160 C   0  0  0  0  0  3  0  0  0  0  0  0
  191.4200  176.1620  144.4470 C   0  0  0  0  0  2  0  0  0  0  0  0
  191.5210  177.2460  145.5150 C   0  0  0  0  0  2  0  0  0  0  0  0
  191.6610  176.2260  147.6340 O   0  0  0  0  0  0  0  0  0  0  0  0
  190.9470  176.7870  146.8200 C   0  0  0  0  0  0  0  0  0  0  0  0
  189.4380  178.2040  148.4730 O   0  0  0  0  0  1  0  0  0  0  0  0
  188.8330  178.2310  145.9840 O   0  0  0  0  0  1  0  0  0  0  0  0
  189.1670  177.0480  147.2080 P   0  0  0  0  0  0  0  0  0  0  0  0
  189.7330  175.9980  136.4800 C   0  0  0  0  0  2  0  0  0  0  0  0
  188.5260  175.3580  135.8200 C   0  0  0  0  0  2  0  0  0  0  0  0
  187.8030  174.4960  136.8330 C   0  0  0  0  0  2  0  0  0  0  0  0
  186.2870  175.3470  135.4760 C   0  0  0  0  0  1  0  0  0  0  0  0
  186.4520  174.4150  136.5030 O   0  0  0  0  0  0  0  0  0  0  0  0
  185.2690  178.9820  139.2880 O   0  0  0  0  0  0  0  0  0  0  0  0
  184.0950  178.2810  139.0060 C   0  0  0  0  0  2  0  0  0  0  0  0
  183.5140  177.7240  140.2890 C   0  0  0  0  0  2  0  0  0  0  0  0
  183.3440  178.7750  141.2340 O   0  0  0  0  0  0  0  0  0  0  0  0
  183.5110  178.9310  144.9270 C   0  0  0  0  0  3  0  0  0  0  0  0
  184.8440  178.5760  145.1590 C   0  0  0  0  0  0  0  0  0  0  0  0
  185.6880  178.3000  144.0820 C   0  0  0  0  0  3  0  0  0  0  0  0
  183.0110  179.0080  143.6160 C   0  0  0  0  0  0  0  0  0  0  0  0
  185.3650  178.5150  146.5490 C   0  0  0  0  0  1  0  0  0  0  0  0
  183.8580  178.7190  142.5340 C   0  0  0  0  0  0  0  0  0  0  0  0
  185.1980  178.3700  142.7740 C   0  0  0  0  0  3  0  0  0  0  0  0
  181.6800  179.3660  143.3660 O   0  0  0  0  0  0  0  0  0  0  0  0
  180.5760  178.6120  143.8520 C   0  0  0  0  0  1  0  0  0  0  0  0
  1  2  1  0  0  0  0
  1 25  1  0  0  0  0
  2  5  2  0  0  0  0
  3  6  1  0  0  0  0
  3  2  1  0  0  0  0
  4  8  1  1  0  0  0
  5  4  1  0  0  0  0
  6  7  2  0  0  0  0
  7  4  1  0  0  0  0
  8 11  1  0  0  0  0
  8 12  2  0  0  0  0
  9 13  1  0  0  0  0
 10  9  2  0  0  0  0
 11  9  1  0  0  0  0
 12 10  1  0  0  0  0
 13 14  1  0  0  0  0
 14 16  1  0  0  0  0
 16 19  1  0  0  0  0
 16 15  2  0  0  0  0
 18 19  1  0  0  0  0
 19 17  1  0  0  0  0
 20  6  1  0  0  0  0
 21 20  1  0  0  0  0
 21 22  1  0  0  0  0
 23 24  1  0  0  0  0
 24 22  1  0  0  0  0
 26 25  1  0  0  0  0
 26 27  1  0  0  0  0
 27 28  1  0  0  0  0
 28 34  1  0  0  0  0
 29 30  1  0  0  0  0
 30 33  1  0  0  0  0
 31 30  2  0  0  0  0
 32 29  2  0  0  0  0
 34 35  2  0  0  0  0
 34 32  1  0  0  0  0
 35 31  1  0  0  0  0
 36 32  1  0  0  0  0
 36 37  1  0  0  0  0
M  END
>  <MODEL>
1

>  <REMARK>
 VINA RESULT:      -7.8      0.000      0.000
  Name = 
  15 active torsions:
  status: ('A' for Active; 'I' for Inactive)
    1  A    between atoms: N_1  and  O_21
    2  A    between atoms: C_3  and  C_23
    3  A    between atoms: C_3  and  O_37
    4  A    between atoms: C_6  and  C_19
    5  A    between atoms: O_7  and  C_22
    6  A    between atoms: O_7  and  C_31
    7  A    between atoms: C_10  and  C_24
    8  A    between atoms: C_13  and  C_23
    9  A    between atoms: C_13  and  C_32
   10  A    between atoms: C_17  and  O_20
   11  A    between atoms: P_18  and  C_33
   12  A    between atoms: O_21  and  C_35
   13  A    between atoms: C_22  and  C_35
   14  A    between atoms: C_24  and  C_30
   15  A    between atoms: C_30  and  C_33
                            x       y       z     vdW  Elec       q    Type
                         _______ _______ _______ _____ _____    ______ ____

>  <TORSDO>
F 15

$$$$
=
 OpenBabel11042411573D

 37 39  0  0  1  0  0  0  0  0999 V2000
  189.6750  176.6990  141.8210 N   0  0  0  0  0  2  0  0  0  0  0  0
  189.9810  176.9820  140.4560 C   0  0  0  0  0  0  0  0  0  0  0  0
  189.2700  178.1130  139.7580 C   0  0  0  0  0  2  0  0  0  0  0  0
  191.2230  176.5490  138.4250 C   0  0  2  0  0  3  0  0  0  0  0  0
  190.8560  176.2590  139.8150 N   0  0  0  0  0  0  0  0  0  0  0  0
  189.1290  177.8260  138.2850 C   0  0  0  0  0  0  0  0  0  0  0  0
  190.0350  177.0620  137.6560 C   0  0  0  0  0  3  0  0  0  0  0  0
  191.8130  175.3490  137.7580 C   0  0  0  0  0  0  0  0  0  0  0  0
  193.2950  173.6500  136.7280 C   0  0  0  0  0  0  0  0  0  0  0  0
  191.9500  173.4010  136.4920 C   0  0  0  0  0  3  0  0  0  0  0  0
  193.4610  175.0570  137.6280 S   0  0  0  0  0  0  0  0  0  0  0  0
  191.1110  174.3640  137.0720 C   0  0  0  0  0  3  0  0  0  0  0  0
  194.4330  172.8530  136.1830 C   0  0  0  0  0  2  0  0  0  0  0  0
  195.2230  173.6570  135.1540 C   0  0  0  0  0  2  0  0  0  0  0  0
  197.2820  172.7540  135.8580 O   0  0  0  0  0  0  0  0  0  0  0  0
  196.6700  173.7560  135.5290 C   0  0  0  0  0  0  0  0  0  0  0  0
  196.0970  176.3410  135.6110 O   0  0  0  0  0  1  0  0  0  0  0  0
  197.9010  175.4670  137.2050 O   0  0  0  0  0  1  0  0  0  0  0  0
  197.5370  175.3790  135.5110 P   0  0  0  0  0  0  0  0  0  0  0  0
  187.9420  178.3540  137.5470 C   0  0  0  0  0  2  0  0  0  0  0  0
  186.7330  177.4650  137.7700 C   0  0  0  0  0  2  0  0  0  0  0  0
  185.5690  178.3140  138.2330 C   0  0  0  0  0  2  0  0  0  0  0  0
  184.6050  179.0720  140.0660 C   0  0  0  0  0  1  0  0  0  0  0  0
  185.8550  178.8640  139.4800 O   0  0  0  0  0  0  0  0  0  0  0  0
  190.2140  175.6350  142.4620 O   0  0  0  0  0  0  0  0  0  0  0  0
  190.8160  176.1680  143.6040 C   0  0  0  0  0  2  0  0  0  0  0  0
  189.9760  177.3110  144.1350 C   0  0  0  0  0  2  0  0  0  0  0  0
  188.8940  176.7950  144.9020 O   0  0  0  0  0  0  0  0  0  0  0  0
  185.7090  178.2380  146.1120 C   0  0  0  0  0  3  0  0  0  0  0  0
  185.0680  178.5430  144.9070 C   0  0  0  0  0  0  0  0  0  0  0  0
  185.6930  178.2520  143.6930 C   0  0  0  0  0  3  0  0  0  0  0  0
  186.9830  177.6450  146.1120 C   0  0  0  0  0  0  0  0  0  0  0  0
  183.7130  179.1540  144.9210 C   0  0  0  0  0  1  0  0  0  0  0  0
  187.6160  177.3630  144.8910 C   0  0  0  0  0  0  0  0  0  0  0  0
  186.9630  177.6650  143.6830 C   0  0  0  0  0  3  0  0  0  0  0  0
  187.6380  177.3300  147.3100 O   0  0  0  0  0  0  0  0  0  0  0  0
  188.0250  178.3170  148.2580 C   0  0  0  0  0  1  0  0  0  0  0  0
  1 25  1  0  0  0  0
  2  1  1  0  0  0  0
  3  2  1  0  0  0  0
  4  8  1  6  0  0  0
  4  5  1  0  0  0  0
  5  2  2  0  0  0  0
  6  3  1  0  0  0  0
  7  6  2  0  0  0  0
  7  4  1  0  0  0  0
  9 11  1  0  0  0  0
 10  9  2  0  0  0  0
 10 12  1  0  0  0  0
 11  8  1  0  0  0  0
 12  8  2  0  0  0  0
 13  9  1  0  0  0  0
 14 16  1  0  0  0  0
 14 13  1  0  0  0  0
 16 15  2  0  0  0  0
 19 16  1  0  0  0  0
 19 17  1  0  0  0  0
 19 18  1  0  0  0  0
 20 21  1  0  0  0  0
 20  6  1  0  0  0  0
 21 22  1  0  0  0  0
 22 24  1  0  0  0  0
 24 23  1  0  0  0  0
 25 26  1  0  0  0  0
 26 27  1  0  0  0  0
 27 28  1  0  0  0  0
 29 32  1  0  0  0  0
 30 33  1  0  0  0  0
 30 29  2  0  0  0  0
 31 30  1  0  0  0  0
 32 36  1  0  0  0  0
 34 28  1  0  0  0  0
 34 32  2  0  0  0  0
 35 31  2  0  0  0  0
 35 34  1  0  0  0  0
 36 37  1  0  0  0  0
M  END
>  <MODEL>
2

>  <REMARK>
 VINA RESULT:      -7.2      4.768      7.294
  Name = 
  15 active torsions:
  status: ('A' for Active; 'I' for Inactive)
    1  A    between atoms: N_1  and  O_21
    2  A    between atoms: C_3  and  C_23
    3  A    between atoms: C_3  and  O_37
    4  A    between atoms: C_6  and  C_19
    5  A    between atoms: O_7  and  C_22
    6  A    between atoms: O_7  and  C_31
    7  A    between atoms: C_10  and  C_24
    8  A    between atoms: C_13  and  C_23
    9  A    between atoms: C_13  and  C_32
   10  A    between atoms: C_17  and  O_20
   11  A    between atoms: P_18  and  C_33
   12  A    between atoms: O_21  and  C_35
   13  A    between atoms: C_22  and  C_35
   14  A    between atoms: C_24  and  C_30
   15  A    between atoms: C_30  and  C_33
                            x       y       z     vdW  Elec       q    Type
                         _______ _______ _______ _____ _____    ______ ____

>  <TORSDO>
F 15

$$$$
=
 OpenBabel11042411573D

 37 39  0  0  1  0  0  0  0  0999 V2000
  184.3400  179.0320  145.3670 N   0  0  0  0  0  2  0  0  0  0  0  0
  185.5340  178.2620  145.2330 C   0  0  0  0  0  0  0  0  0  0  0  0
  186.2290  177.7570  146.4700 C   0  0  0  0  0  2  0  0  0  0  0  0
  187.2280  177.1900  143.8790 C   0  0  2  0  0  3  0  0  0  0  0  0
  186.0260  178.0120  144.0520 N   0  0  0  0  0  0  0  0  0  0  0  0
  187.7160  177.6510  146.2420 C   0  0  0  0  0  0  0  0  0  0  0  0
  188.1940  177.4130  145.0120 C   0  0  0  0  0  3  0  0  0  0  0  0
  187.8810  177.4540  142.5610 C   0  0  0  0  0  0  0  0  0  0  0  0
  189.3970  177.5670  140.6030 C   0  0  0  0  0  0  0  0  0  0  0  0
  188.3390  178.4630  140.5150 C   0  0  0  0  0  3  0  0  0  0  0  0
  189.2970  176.7140  142.0440 S   0  0  0  0  0  0  0  0  0  0  0  0
  187.4830  178.4020  141.6240 C   0  0  0  0  0  3  0  0  0  0  0  0
  190.5140  177.4450  139.6200 C   0  0  0  0  0  2  0  0  0  0  0  0
  189.9810  177.2160  138.2100 C   0  0  0  0  0  2  0  0  0  0  0  0
  190.9110  175.0630  138.4390 O   0  0  0  0  0  0  0  0  0  0  0  0
  190.2910  175.8330  137.7250 C   0  0  0  0  0  0  0  0  0  0  0  0
  188.5990  176.5520  135.8180 O   0  0  0  0  0  1  0  0  0  0  0  0
  191.0170  176.0450  135.1400 O   0  0  0  0  0  1  0  0  0  0  0  0
  189.7550  175.2800  136.0530 P   0  0  0  0  0  0  0  0  0  0  0  0
  188.6490  177.8710  147.3870 C   0  0  0  0  0  2  0  0  0  0  0  0
  189.5560  176.6700  147.5790 C   0  0  0  0  0  2  0  0  0  0  0  0
  190.9990  177.1240  147.5410 C   0  0  0  0  0  2  0  0  0  0  0  0
  191.6890  176.5140  145.5380 C   0  0  0  0  0  1  0  0  0  0  0  0
  191.7760  176.1700  146.8880 O   0  0  0  0  0  0  0  0  0  0  0  0
  183.7330  179.5900  144.2920 O   0  0  0  0  0  0  0  0  0  0  0  0
  182.5730  178.8360  144.1000 C   0  0  0  0  0  2  0  0  0  0  0  0
  181.7850  179.4030  142.9370 C   0  0  0  0  0  2  0  0  0  0  0  0
  181.6500  178.4140  141.9220 O   0  0  0  0  0  0  0  0  0  0  0  0
  183.2260  177.1720  138.8130 C   0  0  0  0  0  3  0  0  0  0  0  0
  184.3600  177.9860  138.7320 C   0  0  0  0  0  0  0  0  0  0  0  0
  184.6050  178.9380  139.7250 C   0  0  0  0  0  3  0  0  0  0  0  0
  182.3250  177.3070  139.8830 C   0  0  0  0  0  0  0  0  0  0  0  0
  185.3140  177.8220  137.6050 C   0  0  0  0  0  1  0  0  0  0  0  0
  182.5660  178.2720  140.8740 C   0  0  0  0  0  0  0  0  0  0  0  0
  183.7120  179.0820  140.7920 C   0  0  0  0  0  3  0  0  0  0  0  0
  181.1860  176.4970  139.9800 O   0  0  0  0  0  0  0  0  0  0  0  0
  181.0120  175.3170  139.2050 C   0  0  0  0  0  1  0  0  0  0  0  0
  2  1  1  0  0  0  0
  2  3  1  0  0  0  0
  4  8  1  6  0  0  0
  4  5  1  0  0  0  0
  4  7  1  0  0  0  0
  5  2  2  0  0  0  0
  6  3  1  0  0  0  0
  6 20  1  0  0  0  0
  7  6  2  0  0  0  0
  9 11  1  0  0  0  0
 10  9  2  0  0  0  0
 10 12  1  0  0  0  0
 11  8  1  0  0  0  0
 12  8  2  0  0  0  0
 13  9  1  0  0  0  0
 14 13  1  0  0  0  0
 16 14  1  0  0  0  0
 16 15  2  0  0  0  0
 17 19  1  0  0  0  0
 18 19  1  0  0  0  0
 19 16  1  0  0  0  0
 20 21  1  0  0  0  0
 22 21  1  0  0  0  0
 23 24  1  0  0  0  0
 24 22  1  0  0  0  0
 25  1  1  0  0  0  0
 26 25  1  0  0  0  0
 27 26  1  0  0  0  0
 28 27  1  0  0  0  0
 29 32  1  0  0  0  0
 30 29  2  0  0  0  0
 30 31  1  0  0  0  0
 31 35  2  0  0  0  0
 32 36  1  0  0  0  0
 32 34  2  0  0  0  0
 33 30  1  0  0  0  0
 34 28  1  0  0  0  0
 35 34  1  0  0  0  0
 37 36  1  0  0  0  0
M  END
>  <MODEL>
3

>  <REMARK>
 VINA RESULT:      -7.2      3.070      7.482
  Name = 
  15 active torsions:
  status: ('A' for Active; 'I' for Inactive)
    1  A    between atoms: N_1  and  O_21
    2  A    between atoms: C_3  and  C_23
    3  A    between atoms: C_3  and  O_37
    4  A    between atoms: C_6  and  C_19
    5  A    between atoms: O_7  and  C_22
    6  A    between atoms: O_7  and  C_31
    7  A    between atoms: C_10  and  C_24
    8  A    between atoms: C_13  and  C_23
    9  A    between atoms: C_13  and  C_32
   10  A    between atoms: C_17  and  O_20
   11  A    between atoms: P_18  and  C_33
   12  A    between atoms: O_21  and  C_35
   13  A    between atoms: C_22  and  C_35
   14  A    between atoms: C_24  and  C_30
   15  A    between atoms: C_30  and  C_33
                            x       y       z     vdW  Elec       q    Type
                         _______ _______ _______ _____ _____    ______ ____

>  <TORSDO>
F 15

$$$$
=
 OpenBabel11042411573D

 37 39  0  0  1  0  0  0  0  0999 V2000
  186.4430  178.7460  137.7050 N   0  0  0  0  0  2  0  0  0  0  0  0
  187.7980  178.4230  138.0120 C   0  0  0  0  0  0  0  0  0  0  0  0
  188.7620  178.1380  136.8890 C   0  0  0  0  0  2  0  0  0  0  0  0
  189.5890  178.0670  139.6000 C   0  0  2  0  0  3  0  0  0  0  0  0
  188.1940  178.3580  139.2520 N   0  0  0  0  0  0  0  0  0  0  0  0
  189.8200  177.1580  137.3290 C   0  0  0  0  0  0  0  0  0  0  0  0
  190.1940  177.1000  138.6170 C   0  0  0  0  0  3  0  0  0  0  0  0
  189.7040  177.5490  140.9960 C   0  0  0  0  0  0  0  0  0  0  0  0
  190.4690  176.7010  143.1960 C   0  0  0  0  0  0  0  0  0  0  0  0
  189.0990  176.5660  143.0170 C   0  0  0  0  0  3  0  0  0  0  0  0
  191.1540  177.3850  141.8260 S   0  0  0  0  0  0  0  0  0  0  0  0
  188.6660  177.0420  141.7710 C   0  0  0  0  0  3  0  0  0  0  0  0
  191.2400  176.2210  144.3810 C   0  0  0  0  0  2  0  0  0  0  0  0
  191.3570  177.3150  145.4380 C   0  0  0  0  0  2  0  0  0  0  0  0
  191.2360  175.9420  147.3490 O   0  0  0  0  0  0  0  0  0  0  0  0
  190.7580  176.8840  146.7410 C   0  0  0  0  0  0  0  0  0  0  0  0
  188.4610  177.9200  145.9240 O   0  0  0  0  0  1  0  0  0  0  0  0
  188.4100  176.3540  147.9500 O   0  0  0  0  0  1  0  0  0  0  0  0
  189.2930  177.7560  147.4370 P   0  0  0  0  0  0  0  0  0  0  0  0
  190.4060  176.2160  136.3290 C   0  0  0  0  0  2  0  0  0  0  0  0
  191.8760  175.9740  136.6150 C   0  0  0  0  0  2  0  0  0  0  0  0
  192.3660  174.8200  135.7670 C   0  0  0  0  0  2  0  0  0  0  0  0
  194.0480  175.1470  137.1550 C   0  0  0  0  0  1  0  0  0  0  0  0
  193.3910  174.1510  136.4310 O   0  0  0  0  0  0  0  0  0  0  0  0
  185.5170  178.9150  138.6780 O   0  0  0  0  0  0  0  0  0  0  0  0
  184.6320  177.8450  138.5250 C   0  0  0  0  0  2  0  0  0  0  0  0
  183.6560  177.8230  139.6830 C   0  0  0  0  0  2  0  0  0  0  0  0
  183.8740  178.9570  140.5150 O   0  0  0  0  0  0  0  0  0  0  0  0
  183.2750  178.7580  144.1620 C   0  0  0  0  0  3  0  0  0  0  0  0
  184.5780  178.6130  144.6480 C   0  0  0  0  0  0  0  0  0  0  0  0
  185.6560  178.5960  143.7590 C   0  0  0  0  0  3  0  0  0  0  0  0
  183.0390  178.8830  142.7820 C   0  0  0  0  0  0  0  0  0  0  0  0
  184.8170  178.4990  146.1100 C   0  0  0  0  0  1  0  0  0  0  0  0
  184.1220  178.8560  141.8880 C   0  0  0  0  0  0  0  0  0  0  0  0
  185.4300  178.7170  142.3850 C   0  0  0  0  0  3  0  0  0  0  0  0
  181.7400  179.0330  142.2780 O   0  0  0  0  0  0  0  0  0  0  0  0
  180.6540  179.4880  143.0750 C   0  0  0  0  0  1  0  0  0  0  0  0
  1  2  1  0  0  0  0
  1 25  1  0  0  0  0
  2  5  2  0  0  0  0
  3  6  1  0  0  0  0
  3  2  1  0  0  0  0
  4  8  1  1  0  0  0
  5  4  1  0  0  0  0
  6  7  2  0  0  0  0
  7  4  1  0  0  0  0
  8 12  2  0  0  0  0
  8 11  1  0  0  0  0
  9 13  1  0  0  0  0
 10  9  2  0  0  0  0
 11  9  1  0  0  0  0
 12 10  1  0  0  0  0
 13 14  1  0  0  0  0
 14 16  1  0  0  0  0
 16 15  2  0  0  0  0
 16 19  1  0  0  0  0
 17 19  1  0  0  0  0
 19 18  1  0  0  0  0
 20 21  1  0  0  0  0
 20  6  1  0  0  0  0
 22 24  1  0  0  0  0
 22 21  1  0  0  0  0
 24 23  1  0  0  0  0
 26 25  1  0  0  0  0
 26 27  1  0  0  0  0
 27 28  1  0  0  0  0
 28 34  1  0  0  0  0
 29 30  1  0  0  0  0
 30 33  1  0  0  0  0
 31 30  2  0  0  0  0
 32 29  2  0  0  0  0
 34 35  2  0  0  0  0
 34 32  1  0  0  0  0
 35 31  1  0  0  0  0
 36 32  1  0  0  0  0
 36 37  1  0  0  0  0
M  END
>  <MODEL>
4

>  <REMARK>
 VINA RESULT:      -7.2      1.629      2.160
  Name = 
  15 active torsions:
  status: ('A' for Active; 'I' for Inactive)
    1  A    between atoms: N_1  and  O_21
    2  A    between atoms: C_3  and  C_23
    3  A    between atoms: C_3  and  O_37
    4  A    between atoms: C_6  and  C_19
    5  A    between atoms: O_7  and  C_22
    6  A    between atoms: O_7  and  C_31
    7  A    between atoms: C_10  and  C_24
    8  A    between atoms: C_13  and  C_23
    9  A    between atoms: C_13  and  C_32
   10  A    between atoms: C_17  and  O_20
   11  A    between atoms: P_18  and  C_33
   12  A    between atoms: O_21  and  C_35
   13  A    between atoms: C_22  and  C_35
   14  A    between atoms: C_24  and  C_30
   15  A    between atoms: C_30  and  C_33
                            x       y       z     vdW  Elec       q    Type
                         _______ _______ _______ _____ _____    ______ ____

>  <TORSDO>
F 15

$$$$
=
 OpenBabel11042411573D

 37 39  0  0  1  0  0  0  0  0999 V2000
  184.9290  179.3240  140.3840 N   0  0  0  0  0  2  0  0  0  0  0  0
  185.1920  178.7100  139.1230 C   0  0  0  0  0  0  0  0  0  0  0  0
  184.0400  178.2210  138.2850 C   0  0  0  0  0  2  0  0  0  0  0  0
  186.7210  177.9700  137.4000 C   0  0  2  0  0  3  0  0  0  0  0  0
  186.4190  178.5600  138.7080 N   0  0  0  0  0  0  0  0  0  0  0  0
  184.4510  177.0320  137.4530 C   0  0  0  0  0  0  0  0  0  0  0  0
  185.7250  176.8940  137.0570 C   0  0  0  0  0  3  0  0  0  0  0  0
  188.1170  177.4390  137.3540 C   0  0  0  0  0  0  0  0  0  0  0  0
  190.4530  176.7580  137.8280 C   0  0  0  0  0  0  0  0  0  0  0  0
  190.1290  176.6610  136.4810 C   0  0  0  0  0  3  0  0  0  0  0  0
  189.1320  177.3360  138.6870 S   0  0  0  0  0  0  0  0  0  0  0  0
  188.8090  177.0490  136.2120 C   0  0  0  0  0  3  0  0  0  0  0  0
  191.7980  176.4900  138.4180 C   0  0  0  0  0  2  0  0  0  0  0  0
  192.4410  175.2620  137.7820 C   0  0  0  0  0  2  0  0  0  0  0  0
  194.0760  176.6950  136.8750 O   0  0  0  0  0  0  0  0  0  0  0  0
  193.8110  175.5690  137.2590 C   0  0  0  0  0  0  0  0  0  0  0  0
  196.4310  175.3480  136.9410 O   0  0  0  0  0  1  0  0  0  0  0  0
  195.3530  174.0750  138.8860 O   0  0  0  0  0  1  0  0  0  0  0  0
  195.1020  174.2600  137.1790 P   0  0  0  0  0  0  0  0  0  0  0  0
  183.4390  175.9850  137.1240 C   0  0  0  0  0  2  0  0  0  0  0  0
  184.0650  174.8720  136.3050 C   0  0  0  0  0  2  0  0  0  0  0  0
  183.8770  173.5550  137.0270 C   0  0  0  0  0  2  0  0  0  0  0  0
  185.9740  172.9490  137.3340 C   0  0  0  0  0  1  0  0  0  0  0  0
  184.8490  173.4170  138.0150 O   0  0  0  0  0  0  0  0  0  0  0  0
  185.9330  179.6910  141.2160 O   0  0  0  0  0  0  0  0  0  0  0  0
  186.0640  178.6300  142.1150 C   0  0  0  0  0  2  0  0  0  0  0  0
  187.4830  178.1010  142.0730 C   0  0  0  0  0  2  0  0  0  0  0  0
  187.6310  177.0520  143.0230 O   0  0  0  0  0  0  0  0  0  0  0  0
  189.3870  177.7060  146.2150 C   0  0  0  0  0  3  0  0  0  0  0  0
  188.3140  177.8000  147.1070 C   0  0  0  0  0  0  0  0  0  0  0  0
  187.0070  177.6290  146.6440 C   0  0  0  0  0  3  0  0  0  0  0  0
  189.1610  177.4470  144.8520 C   0  0  0  0  0  0  0  0  0  0  0  0
  188.5670  178.0570  148.5480 C   0  0  0  0  0  1  0  0  0  0  0  0
  187.8470  177.2870  144.3850 C   0  0  0  0  0  0  0  0  0  0  0  0
  186.7730  177.3740  145.2890 C   0  0  0  0  0  3  0  0  0  0  0  0
  190.2250  177.3470  143.9460 O   0  0  0  0  0  0  0  0  0  0  0  0
  190.9430  176.1390  143.7320 C   0  0  0  0  0  1  0  0  0  0  0  0
  1 25  1  0  0  0  0
  2  1  1  0  0  0  0
  3  2  1  0  0  0  0
  4  8  1  1  0  0  0
  4  5  1  0  0  0  0
  5  2  2  0  0  0  0
  6  3  1  0  0  0  0
  7  4  1  0  0  0  0
  7  6  2  0  0  0  0
  8 11  1  0  0  0  0
  9 13  1  0  0  0  0
  9 11  1  0  0  0  0
 10  9  2  0  0  0  0
 12 10  1  0  0  0  0
 12  8  2  0  0  0  0
 14 13  1  0  0  0  0
 15 16  2  0  0  0  0
 16 14  1  0  0  0  0
 17 19  1  0  0  0  0
 19 16  1  0  0  0  0
 19 18  1  0  0  0  0
 20  6  1  0  0  0  0
 21 22  1  0  0  0  0
 21 20  1  0  0  0  0
 22 24  1  0  0  0  0
 23 24  1  0  0  0  0
 25 26  1  0  0  0  0
 27 26  1  0  0  0  0
 27 28  1  0  0  0  0
 28 34  1  0  0  0  0
 29 30  1  0  0  0  0
 30 33  1  0  0  0  0
 31 30  2  0  0  0  0
 32 29  2  0  0  0  0
 34 32  1  0  0  0  0
 34 35  2  0  0  0  0
 35 31  1  0  0  0  0
 36 32  1  0  0  0  0
 37 36  1  0  0  0  0
M  END
>  <MODEL>
5

>  <REMARK>
 VINA RESULT:      -7.1      3.907      6.356
  Name = 
  15 active torsions:
  status: ('A' for Active; 'I' for Inactive)
    1  A    between atoms: N_1  and  O_21
    2  A    between atoms: C_3  and  C_23
    3  A    between atoms: C_3  and  O_37
    4  A    between atoms: C_6  and  C_19
    5  A    between atoms: O_7  and  C_22
    6  A    between atoms: O_7  and  C_31
    7  A    between atoms: C_10  and  C_24
    8  A    between atoms: C_13  and  C_23
    9  A    between atoms: C_13  and  C_32
   10  A    between atoms: C_17  and  O_20
   11  A    between atoms: P_18  and  C_33
   12  A    between atoms: O_21  and  C_35
   13  A    between atoms: C_22  and  C_35
   14  A    between atoms: C_24  and  C_30
   15  A    between atoms: C_30  and  C_33
                            x       y       z     vdW  Elec       q    Type
                         _______ _______ _______ _____ _____    ______ ____

>  <TORSDO>
F 15

$$$$
=
 OpenBabel11042411573D

 37 39  0  0  1  0  0  0  0  0999 V2000
  184.5640  179.1970  145.0020 N   0  0  0  0  0  2  0  0  0  0  0  0
  185.7040  178.3430  144.9210 C   0  0  0  0  0  0  0  0  0  0  0  0
  186.2830  177.7630  146.1850 C   0  0  0  0  0  2  0  0  0  0  0  0
  187.3950  177.1740  143.6450 C   0  0  2  0  0  3  0  0  0  0  0  0
  186.2480  178.0800  143.7660 N   0  0  0  0  0  0  0  0  0  0  0  0
  187.7700  177.5520  146.0440 C   0  0  0  0  0  0  0  0  0  0  0  0
  188.3040  177.3020  144.8390 C   0  0  0  0  0  3  0  0  0  0  0  0
  188.1450  177.4150  142.3760 C   0  0  0  0  0  0  0  0  0  0  0  0
  188.8990  178.0990  140.1160 C   0  0  0  0  0  0  0  0  0  0  0  0
  189.7390  177.1600  140.6990 C   0  0  0  0  0  3  0  0  0  0  0  0
  187.6240  178.4400  141.1520 S   0  0  0  0  0  0  0  0  0  0  0  0
  189.3110  176.7690  141.9760 C   0  0  0  0  0  3  0  0  0  0  0  0
  189.0440  178.6530  138.7370 C   0  0  0  0  0  2  0  0  0  0  0  0
  188.6170  177.6310  137.6880 C   0  0  0  0  0  2  0  0  0  0  0  0
  187.2870  178.6990  136.0630 O   0  0  0  0  0  0  0  0  0  0  0  0
  187.3070  178.0010  137.0630 C   0  0  0  0  0  0  0  0  0  0  0  0
  185.2380  178.9740  138.3990 O   0  0  0  0  0  1  0  0  0  0  0  0
  184.7560  177.5120  136.3520 O   0  0  0  0  0  1  0  0  0  0  0  0
  185.7190  177.4220  137.7920 P   0  0  0  0  0  0  0  0  0  0  0  0
  188.6450  177.6790  147.2470 C   0  0  0  0  0  2  0  0  0  0  0  0
  189.7200  176.6090  147.2450 C   0  0  0  0  0  2  0  0  0  0  0  0
  191.0230  177.2110  147.7280 C   0  0  0  0  0  2  0  0  0  0  0  0
  191.7770  176.4540  145.7990 C   0  0  0  0  0  1  0  0  0  0  0  0
  192.0960  176.5320  147.1560 O   0  0  0  0  0  0  0  0  0  0  0  0
  184.0660  179.8190  143.9070 O   0  0  0  0  0  0  0  0  0  0  0  0
  183.0320  178.9940  143.4600 C   0  0  0  0  0  2  0  0  0  0  0  0
  183.2550  178.6430  142.0030 C   0  0  0  0  0  2  0  0  0  0  0  0
  182.0000  178.5010  141.3470 O   0  0  0  0  0  0  0  0  0  0  0  0
  181.4620  177.5050  137.8240 C   0  0  0  0  0  3  0  0  0  0  0  0
  181.5150  178.7430  137.1750 C   0  0  0  0  0  0  0  0  0  0  0  0
  181.7460  179.9060  137.9130 C   0  0  0  0  0  3  0  0  0  0  0  0
  181.6330  177.4210  139.2160 C   0  0  0  0  0  0  0  0  0  0  0  0
  181.3490  178.8160  135.7010 C   0  0  0  0  0  1  0  0  0  0  0  0
  181.8550  178.5920  139.9590 C   0  0  0  0  0  0  0  0  0  0  0  0
  181.9150  179.8330  139.3000 C   0  0  0  0  0  3  0  0  0  0  0  0
  181.5860  176.1890  139.8810 O   0  0  0  0  0  0  0  0  0  0  0  0
  180.6300  175.1840  139.5710 C   0  0  0  0  0  1  0  0  0  0  0  0
  2  1  1  0  0  0  0
  2  3  1  0  0  0  0
  4  8  1  6  0  0  0
  4  5  1  0  0  0  0
  4  7  1  0  0  0  0
  5  2  2  0  0  0  0
  6  3  1  0  0  0  0
  6 20  1  0  0  0  0
  7  6  2  0  0  0  0
  9 10  2  0  0  0  0
  9 11  1  0  0  0  0
 10 12  1  0  0  0  0
 11  8  1  0  0  0  0
 12  8  2  0  0  0  0
 13  9  1  0  0  0  0
 14 13  1  0  0  0  0
 15 16  2  0  0  0  0
 16 14  1  0  0  0  0
 16 19  1  0  0  0  0
 18 19  1  0  0  0  0
 19 17  1  0  0  0  0
 21 20  1  0  0  0  0
 21 22  1  0  0  0  0
 23 24  1  0  0  0  0
 24 22  1  0  0  0  0
 25  1  1  0  0  0  0
 26 25  1  0  0  0  0
 27 26  1  0  0  0  0
 28 27  1  0  0  0  0
 29 32  1  0  0  0  0
 30 29  2  0  0  0  0
 30 31  1  0  0  0  0
 31 35  2  0  0  0  0
 32 36  1  0  0  0  0
 32 34  2  0  0  0  0
 33 30  1  0  0  0  0
 34 28  1  0  0  0  0
 35 34  1  0  0  0  0
 37 36  1  0  0  0  0
M  END
>  <MODEL>
6

>  <REMARK>
 VINA RESULT:      -7.0      3.006      7.797
  Name = 
  15 active torsions:
  status: ('A' for Active; 'I' for Inactive)
    1  A    between atoms: N_1  and  O_21
    2  A    between atoms: C_3  and  C_23
    3  A    between atoms: C_3  and  O_37
    4  A    between atoms: C_6  and  C_19
    5  A    between atoms: O_7  and  C_22
    6  A    between atoms: O_7  and  C_31
    7  A    between atoms: C_10  and  C_24
    8  A    between atoms: C_13  and  C_23
    9  A    between atoms: C_13  and  C_32
   10  A    between atoms: C_17  and  O_20
   11  A    between atoms: P_18  and  C_33
   12  A    between atoms: O_21  and  C_35
   13  A    between atoms: C_22  and  C_35
   14  A    between atoms: C_24  and  C_30
   15  A    between atoms: C_30  and  C_33
                            x       y       z     vdW  Elec       q    Type
                         _______ _______ _______ _____ _____    ______ ____

>  <TORSDO>
F 15

$$$$
=
 OpenBabel11042411573D

 37 39  0  0  1  0  0  0  0  0999 V2000
  185.7250  178.6400  138.1990 N   0  0  0  0  0  2  0  0  0  0  0  0
  184.5490  178.5620  139.0030 C   0  0  0  0  0  0  0  0  0  0  0  0
  183.1980  178.7120  138.3520 C   0  0  0  0  0  2  0  0  0  0  0  0
  183.4530  178.2530  141.1380 C   0  0  2  0  0  3  0  0  0  0  0  0
  184.6430  178.3780  140.2900 N   0  0  0  0  0  0  0  0  0  0  0  0
  182.2090  179.3250  139.3110 C   0  0  0  0  0  0  0  0  0  0  0  0
  182.3430  179.1350  140.6320 C   0  0  0  0  0  3  0  0  0  0  0  0
  183.7690  178.5590  142.5660 C   0  0  0  0  0  0  0  0  0  0  0  0
  184.8200  178.8450  144.7930 C   0  0  0  0  0  0  0  0  0  0  0  0
  183.4450  179.0420  144.8190 C   0  0  0  0  0  3  0  0  0  0  0  0
  185.3050  178.4520  143.2360 S   0  0  0  0  0  0  0  0  0  0  0  0
  182.8500  178.8760  143.5600 C   0  0  0  0  0  3  0  0  0  0  0  0
  185.7230  178.8770  145.9810 C   0  0  0  0  0  2  0  0  0  0  0  0
  186.5880  177.6220  146.0450 C   0  0  0  0  0  2  0  0  0  0  0  0
  186.9790  177.9350  148.3470 O   0  0  0  0  0  0  0  0  0  0  0  0
  187.4500  177.6120  147.2700 C   0  0  0  0  0  0  0  0  0  0  0  0
  189.6440  178.2850  145.9460 O   0  0  0  0  0  1  0  0  0  0  0  0
  189.8020  178.0850  148.4950 O   0  0  0  0  0  1  0  0  0  0  0  0
  189.2230  177.1280  147.1680 P   0  0  0  0  0  0  0  0  0  0  0  0
  181.1140  180.1910  138.7790 C   0  0  0  0  0  2  0  0  0  0  0  0
  181.6590  181.5380  138.3430 C   0  0  0  0  0  2  0  0  0  0  0  0
  180.8350  182.0570  137.1830 C   0  0  0  0  0  2  0  0  0  0  0  0
  180.4890  183.7220  135.7810 C   0  0  0  0  0  1  0  0  0  0  0  0
  181.0650  183.4200  137.0160 O   0  0  0  0  0  0  0  0  0  0  0  0
  186.9620  178.6080  138.7480 O   0  0  0  0  0  0  0  0  0  0  0  0
  187.6860  177.7120  137.9590 C   0  0  0  0  0  2  0  0  0  0  0  0
  188.6940  176.9770  138.8180 C   0  0  0  0  0  2  0  0  0  0  0  0
  189.0790  177.7990  139.9150 O   0  0  0  0  0  0  0  0  0  0  0  0
  191.7430  176.8610  142.3060 C   0  0  0  0  0  3  0  0  0  0  0  0
  190.9940  176.3280  143.3600 C   0  0  0  0  0  0  0  0  0  0  0  0
  189.6020  176.2680  143.2640 C   0  0  0  0  0  3  0  0  0  0  0  0
  191.1050  177.3440  141.1500 C   0  0  0  0  0  0  0  0  0  0  0  0
  191.6810  175.8050  144.5690 C   0  0  0  0  0  1  0  0  0  0  0  0
  189.7050  177.2940  141.0590 C   0  0  0  0  0  0  0  0  0  0  0  0
  188.9590  176.7490  142.1190 C   0  0  0  0  0  3  0  0  0  0  0  0
  191.8410  177.8780  140.0840 O   0  0  0  0  0  0  0  0  0  0  0  0
  192.5830  177.0690  139.1800 C   0  0  0  0  0  1  0  0  0  0  0  0
  1 25  1  0  0  0  0
  1  2  1  0  0  0  0
  2  5  2  0  0  0  0
  3  2  1  0  0  0  0
  3  6  1  0  0  0  0
  4  8  1  1  0  0  0
  5  4  1  0  0  0  0
  6  7  2  0  0  0  0
  7  4  1  0  0  0  0
  8 11  1  0  0  0  0
  8 12  2  0  0  0  0
  9 10  2  0  0  0  0
  9 13  1  0  0  0  0
 11  9  1  0  0  0  0
 12 10  1  0  0  0  0
 13 14  1  0  0  0  0
 14 16  1  0  0  0  0
 16 15  2  0  0  0  0
 17 19  1  0  0  0  0
 19 16  1  0  0  0  0
 19 18  1  0  0  0  0
 20  6  1  0  0  0  0
 21 20  1  0  0  0  0
 22 21  1  0  0  0  0
 23 24  1  0  0  0  0
 24 22  1  0  0  0  0
 26 25  1  0  0  0  0
 26 27  1  0  0  0  0
 27 28  1  0  0  0  0
 28 34  1  0  0  0  0
 29 30  1  0  0  0  0
 30 33  1  0  0  0  0
 31 30  2  0  0  0  0
 32 29  2  0  0  0  0
 34 32  1  0  0  0  0
 34 35  2  0  0  0  0
 35 31  1  0  0  0  0
 36 32  1  0  0  0  0
 37 36  1  0  0  0  0
M  END
>  <MODEL>
7

>  <REMARK>
 VINA RESULT:      -6.9      2.860      6.830
  Name = 
  15 active torsions:
  status: ('A' for Active; 'I' for Inactive)
    1  A    between atoms: N_1  and  O_21
    2  A    between atoms: C_3  and  C_23
    3  A    between atoms: C_3  and  O_37
    4  A    between atoms: C_6  and  C_19
    5  A    between atoms: O_7  and  C_22
    6  A    between atoms: O_7  and  C_31
    7  A    between atoms: C_10  and  C_24
    8  A    between atoms: C_13  and  C_23
    9  A    between atoms: C_13  and  C_32
   10  A    between atoms: C_17  and  O_20
   11  A    between atoms: P_18  and  C_33
   12  A    between atoms: O_21  and  C_35
   13  A    between atoms: C_22  and  C_35
   14  A    between atoms: C_24  and  C_30
   15  A    between atoms: C_30  and  C_33
                            x       y       z     vdW  Elec       q    Type
                         _______ _______ _______ _____ _____    ______ ____

>  <TORSDO>
F 15

$$$$
=
 OpenBabel11042411573D

 37 39  0  0  1  0  0  0  0  0999 V2000
  184.5720  178.9970  139.1080 N   0  0  0  0  0  2  0  0  0  0  0  0
  185.4360  178.2710  138.2350 C   0  0  0  0  0  0  0  0  0  0  0  0
  184.8440  177.4970  137.0860 C   0  0  0  0  0  2  0  0  0  0  0  0
  187.6410  177.5620  137.5370 C   0  0  2  0  0  3  0  0  0  0  0  0
  186.7240  178.2650  138.4390 N   0  0  0  0  0  0  0  0  0  0  0  0
  185.6870  176.2890  136.7650 C   0  0  0  0  0  0  0  0  0  0  0  0
  187.0070  176.3050  137.0040 C   0  0  0  0  0  3  0  0  0  0  0  0
  188.9400  177.2600  138.2120 C   0  0  0  0  0  0  0  0  0  0  0  0
  190.8840  177.1200  139.7430 C   0  0  0  0  0  0  0  0  0  0  0  0
  191.1420  176.5650  138.4970 C   0  0  0  0  0  3  0  0  0  0  0  0
  189.3200  177.7270  139.7790 S   0  0  0  0  0  0  0  0  0  0  0  0
  190.0440  176.6470  137.6290 C   0  0  0  0  0  3  0  0  0  0  0  0
  191.8710  177.2530  140.8550 C   0  0  0  0  0  2  0  0  0  0  0  0
  191.2250  177.8700  142.0910 C   0  0  0  0  0  2  0  0  0  0  0  0
  191.7200  175.8700  143.2340 O   0  0  0  0  0  0  0  0  0  0  0  0
  191.5210  177.0700  143.3220 C   0  0  0  0  0  0  0  0  0  0  0  0
  190.1880  178.8820  144.7210 O   0  0  0  0  0  1  0  0  0  0  0  0
  190.7250  176.6510  145.8610 O   0  0  0  0  0  1  0  0  0  0  0  0
  191.5780  177.8750  144.9760 P   0  0  0  0  0  0  0  0  0  0  0  0
  185.0300  175.0580  136.2320 C   0  0  0  0  0  2  0  0  0  0  0  0
  185.1910  173.9010  137.1990 C   0  0  0  0  0  2  0  0  0  0  0  0
  185.6660  172.6800  136.4420 C   0  0  0  0  0  2  0  0  0  0  0  0
  187.7700  172.0300  136.3270 C   0  0  0  0  0  1  0  0  0  0  0  0
  186.8710  172.9620  135.8040 O   0  0  0  0  0  0  0  0  0  0  0  0
  185.0460  179.6280  140.2090 O   0  0  0  0  0  0  0  0  0  0  0  0
  184.5550  178.8910  141.2880 C   0  0  0  0  0  2  0  0  0  0  0  0
  185.1930  179.3810  142.5720 C   0  0  0  0  0  2  0  0  0  0  0  0
  184.7720  178.5640  143.6590 O   0  0  0  0  0  0  0  0  0  0  0  0
  187.3930  177.3140  145.9530 C   0  0  0  0  0  3  0  0  0  0  0  0
  187.1150  178.0430  147.1140 C   0  0  0  0  0  0  0  0  0  0  0  0
  186.0440  178.9400  147.1330 C   0  0  0  0  0  3  0  0  0  0  0  0
  186.6050  177.4790  144.8010 C   0  0  0  0  0  0  0  0  0  0  0  0
  187.9450  177.8470  148.3300 C   0  0  0  0  0  1  0  0  0  0  0  0
  185.5350  178.3890  144.8180 C   0  0  0  0  0  0  0  0  0  0  0  0
  185.2570  179.1130  145.9900 C   0  0  0  0  0  3  0  0  0  0  0  0
  186.8670  176.7540  143.6310 O   0  0  0  0  0  0  0  0  0  0  0  0
  188.1790  176.3710  143.2420 C   0  0  0  0  0  1  0  0  0  0  0  0
  1 25  1  0  0  0  0
  2  5  2  0  0  0  0
  2  1  1  0  0  0  0
  3  2  1  0  0  0  0
  4  8  1  1  0  0  0
  4  5  1  0  0  0  0
  6  7  2  0  0  0  0
  6  3  1  0  0  0  0
  7  4  1  0  0  0  0
  8 11  1  0  0  0  0
  9 11  1  0  0  0  0
  9 13  1  0  0  0  0
 10  9  2  0  0  0  0
 12  8  2  0  0  0  0
 12 10  1  0  0  0  0
 13 14  1  0  0  0  0
 14 16  1  0  0  0  0
 15 16  2  0  0  0  0
 16 19  1  0  0  0  0
 17 19  1  0  0  0  0
 19 18  1  0  0  0  0
 20  6  1  0  0  0  0
 20 21  1  0  0  0  0
 22 21  1  0  0  0  0
 24 23  1  0  0  0  0
 24 22  1  0  0  0  0
 25 26  1  0  0  0  0
 26 27  1  0  0  0  0
 27 28  1  0  0  0  0
 28 34  1  0  0  0  0
 29 30  1  0  0  0  0
 30 31  2  0  0  0  0
 30 33  1  0  0  0  0
 32 34  1  0  0  0  0
 32 29  2  0  0  0  0
 34 35  2  0  0  0  0
 35 31  1  0  0  0  0
 36 32  1  0  0  0  0
 37 36  1  0  0  0  0
M  END
>  <MODEL>
8

>  <REMARK>
 VINA RESULT:      -6.9      2.050      3.655
  Name = 
  15 active torsions:
  status: ('A' for Active; 'I' for Inactive)
    1  A    between atoms: N_1  and  O_21
    2  A    between atoms: C_3  and  C_23
    3  A    between atoms: C_3  and  O_37
    4  A    between atoms: C_6  and  C_19
    5  A    between atoms: O_7  and  C_22
    6  A    between atoms: O_7  and  C_31
    7  A    between atoms: C_10  and  C_24
    8  A    between atoms: C_13  and  C_23
    9  A    between atoms: C_13  and  C_32
   10  A    between atoms: C_17  and  O_20
   11  A    between atoms: P_18  and  C_33
   12  A    between atoms: O_21  and  C_35
   13  A    between atoms: C_22  and  C_35
   14  A    between atoms: C_24  and  C_30
   15  A    between atoms: C_30  and  C_33
                            x       y       z     vdW  Elec       q    Type
                         _______ _______ _______ _____ _____    ______ ____

>  <TORSDO>
F 15

$$$$
=
 OpenBabel11042411573D

 37 39  0  0  1  0  0  0  0  0999 V2000
  184.3230  179.1140  145.1930 N   0  0  0  0  0  2  0  0  0  0  0  0
  185.5160  178.3330  145.1350 C   0  0  0  0  0  0  0  0  0  0  0  0
  186.1530  177.8610  146.4160 C   0  0  0  0  0  2  0  0  0  0  0  0
  187.2610  177.2110  143.8890 C   0  0  2  0  0  3  0  0  0  0  0  0
  186.0580  178.0450  143.9850 N   0  0  0  0  0  0  0  0  0  0  0  0
  187.6480  177.7400  146.2560 C   0  0  0  0  0  0  0  0  0  0  0  0
  188.1780  177.4620  145.0560 C   0  0  0  0  0  3  0  0  0  0  0  0
  187.9730  177.4330  142.5940 C   0  0  0  0  0  0  0  0  0  0  0  0
  188.6740  178.1130  140.3160 C   0  0  0  0  0  0  0  0  0  0  0  0
  189.4840  177.1210  140.8520 C   0  0  0  0  0  3  0  0  0  0  0  0
  187.4600  178.5030  141.4060 S   0  0  0  0  0  0  0  0  0  0  0  0
  189.0860  176.7330  142.1400 C   0  0  0  0  0  3  0  0  0  0  0  0
  188.7940  178.6810  138.9400 C   0  0  0  0  0  2  0  0  0  0  0  0
  188.4490  177.6350  137.8840 C   0  0  0  0  0  2  0  0  0  0  0  0
  187.2230  179.3600  136.8480 O   0  0  0  0  0  0  0  0  0  0  0  0
  187.4620  178.1650  136.8900 C   0  0  0  0  0  0  0  0  0  0  0  0
  186.9640  175.5790  136.6070 O   0  0  0  0  0  1  0  0  0  0  0  0
  184.9960  177.2050  136.3880 O   0  0  0  0  0  1  0  0  0  0  0  0
  186.5920  177.0300  135.7310 P   0  0  0  0  0  0  0  0  0  0  0  0
  188.5320  177.9880  147.4340 C   0  0  0  0  0  2  0  0  0  0  0  0
  189.3990  176.7770  147.7200 C   0  0  0  0  0  2  0  0  0  0  0  0
  190.8550  177.1570  147.5600 C   0  0  0  0  0  2  0  0  0  0  0  0
  192.4340  175.6310  147.3650 C   0  0  0  0  0  1  0  0  0  0  0  0
  191.4630  176.3150  146.6330 O   0  0  0  0  0  0  0  0  0  0  0  0
  183.7670  179.6430  144.0770 O   0  0  0  0  0  0  0  0  0  0  0  0
  182.8420  178.6900  143.6470 C   0  0  0  0  0  2  0  0  0  0  0  0
  181.5540  179.3770  143.2440 C   0  0  0  0  0  2  0  0  0  0  0  0
  181.4760  179.4550  141.8250 O   0  0  0  0  0  0  0  0  0  0  0  0
  182.4290  176.8200  139.4070 C   0  0  0  0  0  3  0  0  0  0  0  0
  181.2710  176.0360  139.3810 C   0  0  0  0  0  0  0  0  0  0  0  0
  180.1690  176.3970  140.1600 C   0  0  0  0  0  3  0  0  0  0  0  0
  182.4960  177.9680  140.2150 C   0  0  0  0  0  0  0  0  0  0  0  0
  181.2070  174.8350  138.5100 C   0  0  0  0  0  1  0  0  0  0  0  0
  181.3910  178.3240  141.0060 C   0  0  0  0  0  0  0  0  0  0  0  0
  180.2270  177.5360  140.9690 C   0  0  0  0  0  3  0  0  0  0  0  0
  183.6470  178.7660  140.2500 O   0  0  0  0  0  0  0  0  0  0  0  0
  184.1920  179.3800  139.0890 C   0  0  0  0  0  1  0  0  0  0  0  0
  2  1  1  0  0  0  0
  2  3  1  0  0  0  0
  4  8  1  6  0  0  0
  4  5  1  0  0  0  0
  4  7  1  0  0  0  0
  5  2  2  0  0  0  0
  6  3  1  0  0  0  0
  6 20  1  0  0  0  0
  7  6  2  0  0  0  0
  9 10  2  0  0  0  0
  9 11  1  0  0  0  0
 10 12  1  0  0  0  0
 11  8  1  0  0  0  0
 12  8  2  0  0  0  0
 13  9  1  0  0  0  0
 14 13  1  0  0  0  0
 15 16  2  0  0  0  0
 16 14  1  0  0  0  0
 19 18  1  0  0  0  0
 19 17  1  0  0  0  0
 19 16  1  0  0  0  0
 20 21  1  0  0  0  0
 22 21  1  0  0  0  0
 24 23  1  0  0  0  0
 24 22  1  0  0  0  0
 25  1  1  0  0  0  0
 26 25  1  0  0  0  0
 27 26  1  0  0  0  0
 28 27  1  0  0  0  0
 29 32  1  0  0  0  0
 30 29  2  0  0  0  0
 30 31  1  0  0  0  0
 31 35  2  0  0  0  0
 32 36  1  0  0  0  0
 32 34  2  0  0  0  0
 33 30  1  0  0  0  0
 34 28  1  0  0  0  0
 35 34  1  0  0  0  0
 37 36  1  0  0  0  0
M  END
>  <MODEL>
9

>  <REMARK>
 VINA RESULT:      -6.9      3.078      7.855
  Name = 
  15 active torsions:
  status: ('A' for Active; 'I' for Inactive)
    1  A    between atoms: N_1  and  O_21
    2  A    between atoms: C_3  and  C_23
    3  A    between atoms: C_3  and  O_37
    4  A    between atoms: C_6  and  C_19
    5  A    between atoms: O_7  and  C_22
    6  A    between atoms: O_7  and  C_31
    7  A    between atoms: C_10  and  C_24
    8  A    between atoms: C_13  and  C_23
    9  A    between atoms: C_13  and  C_32
   10  A    between atoms: C_17  and  O_20
   11  A    between atoms: P_18  and  C_33
   12  A    between atoms: O_21  and  C_35
   13  A    between atoms: C_22  and  C_35
   14  A    between atoms: C_24  and  C_30
   15  A    between atoms: C_30  and  C_33
                            x       y       z     vdW  Elec       q    Type
                         _______ _______ _______ _____ _____    ______ ____

>  <TORSDO>
F 15

$$$$
