=
 OpenBabel11042412493D

 66 71  0  0  1  0  0  0  0  0999 V2000
  191.0740  176.1870  138.3150 C   0  0  0  0  0  0  0  0  0  0  0  0
  193.1270  174.7530  137.1320 C   0  0  2  0  0  3  0  0  0  0  0  0
  190.2340  176.9380  138.9850 C   0  0  0  0  0  0  0  0  0  0  0  0
  191.2040  173.3360  136.3720 C   0  0  0  0  0  1  0  0  0  0  0  0
  191.9760  174.6370  136.2630 C   0  0  1  0  0  0  0  0  0  0  0  0
  191.8190  175.4410  137.5530 C   0  0  0  0  0  0  0  0  0  0  0  0
  192.0890  177.2280  141.1710 S   0  0  0  0  0  0  0  0  0  0  0  0
  191.3920  177.5540  142.7790 N   0  0  0  0  0  0  0  0  0  0  0  0
  189.5110  177.4190  141.3010 C   0  0  0  0  0  3  0  0  0  0  0  0
  189.9950  177.6170  142.6140 N   0  0  0  0  0  2  0  0  0  0  0  0
  190.4690  177.2210  140.4230 C   0  0  0  0  0  0  0  0  0  0  0  0
  191.6560  176.4050  143.6360 C   0  0  0  0  0  2  0  0  0  0  0  0
  191.0670  176.6080  145.0270 C   0  0  1  0  0  3  0  0  0  0  0  0
  192.0040  176.0380  146.0830 C   0  0  0  0  0  1  0  0  0  0  0  0
  190.8880  178.0940  145.2700 C   0  0  0  0  0  2  0  0  0  0  0  0
  189.4910  178.3780  145.5750 N   0  0  0  0  0  2  0  0  0  0  0  0
  189.4620  178.0730  147.9250 C   0  0  0  0  0  2  0  0  0  0  0  0
  188.8530  177.9090  146.7600 C   0  0  0  0  0  0  0  0  0  0  0  0
  187.4570  177.3570  146.7190 C   0  0  0  0  0  2  0  0  0  0  0  0
  186.8810  176.8510  144.2330 C   0  0  0  0  0  1  0  0  0  0  0  0
  186.7510  177.7120  145.4430 C   0  0  0  0  0  0  0  0  0  0  0  0
  185.8720  178.7060  145.4350 C   0  0  0  0  0  2  0  0  0  0  0  0
  187.8070  177.3540  138.8550 C   0  0  0  0  0  3  0  0  0  0  0  0
  187.6830  178.5670  136.9760 C   0  0  0  0  0  3  0  0  0  0  0  0
  186.9500  178.0350  138.0310 C   0  0  0  0  0  0  0  0  0  0  0  0
  189.0410  177.3940  138.3200 N   0  0  0  0  0  0  0  0  0  0  0  0
  188.9830  178.1350  137.1860 C   0  0  0  0  0  3  0  0  0  0  0  0
  185.6120  178.3770  138.4280 N   0  0  0  0  0  0  0  0  0  0  0  0
  184.4530  177.9060  138.0420 C   0  0  0  0  0  0  0  0  0  0  0  0
  181.7560  179.1010  140.4550 N   0  0  0  0  0  0  0  0  0  0  0  0
  179.4660  180.1190  142.1670 C   0  0  0  0  0  0  0  0  0  0  0  0
  179.5760  178.7760  142.6580 N   0  0  0  0  0  0  0  0  0  0  0  0
  183.6320  177.6670  140.6340 F   0  0  0  0  0  0  0  0  0  0  0  0
  182.8780  178.4660  139.8300 C   0  0  0  0  0  0  0  0  0  0  0  0
  179.4340  178.5380  144.0870 C   0  0  0  0  0  1  0  0  0  0  0  0
  183.2460  178.6120  138.5410 C   0  0  0  0  0  0  0  0  0  0  0  0
  179.5210  181.4470  138.6560 C   0  0  0  0  0  3  0  0  0  0  0  0
  179.6780  180.4310  140.7800 N   0  0  0  0  0  0  0  0  0  0  0  0
  180.6680  180.4940  138.7530 C   0  0  0  0  0  0  0  0  0  0  0  0
  180.7310  179.9560  139.9530 C   0  0  1  0  0  3  0  0  0  0  0  0
  181.5850  180.3280  137.6360 C   0  0  0  0  0  3  0  0  0  0  0  0
  178.9420  181.4610  140.0700 C   0  0  0  0  0  3  0  0  0  0  0  0
  179.1160  181.0440  142.9540 O   0  0  0  0  0  0  0  0  0  0  0  0
  182.6510  179.5400  137.5570 C   0  0  0  0  0  3  0  0  0  0  0  0
  179.4560  177.6400  141.7510 C   0  0  0  0  0  2  0  0  0  0  0  0
  179.9670  176.3730  142.4110 C   0  0  0  0  0  1  0  0  0  0  0  0
  183.8820  175.6400  137.5860 O   0  0  0  0  0  1  0  0  0  0  0  0
  184.3030  176.7350  137.1350 C   0  0  0  0  0  0  0  0  0  0  0  0
  184.7010  176.8030  135.8040 O   0  0  0  0  0  0  0  0  0  0  0  0
  194.1700  175.8070  136.7650 C   0  0  0  0  0  2  0  0  0  0  0  0
  197.7350  174.4240  134.6910 O   0  0  0  0  0  0  0  0  0  0  0  0
  196.1360  174.2590  136.3980 N   0  0  0  0  0  2  0  0  0  0  0  0
  195.2440  175.2530  135.8800 C   0  0  0  0  0  0  0  0  0  0  0  0
  197.3490  173.8570  135.7510 C   0  0  0  0  0  0  0  0  0  0  0  0
  195.4190  175.7290  134.7220 O   0  0  0  0  0  0  0  0  0  0  0  0
  198.2120  172.7790  136.3290 C   0  0  0  0  0  2  0  0  0  0  0  0
  198.1060  171.4200  135.6230 C   0  0  0  0  0  2  0  0  0  0  0  0
  196.8850  171.2390  134.9580 O   0  0  0  0  0  0  0  0  0  0  0  0
  195.2170  170.3360  137.9650 S   0  0  0  0  0  0  0  0  0  0  0  0
  194.7850  170.1760  135.3160 C   0  0  0  0  0  2  0  0  0  0  0  0
  196.6500  169.8810  136.9450 C   0  0  0  0  0  2  0  0  0  0  0  0
  196.2960  170.0700  135.4680 C   0  0  2  0  0  3  0  0  0  0  0  0
  194.1340  169.7680  136.6230 C   0  0  0  0  0  2  0  0  0  0  0  0
  191.6320  175.4860  135.0180 C   0  0  0  0  0  2  0  0  0  0  0  0
  189.5580  175.9560  134.5940 O   0  0  0  0  0  1  0  0  0  0  0  0
  190.6240  176.4400  135.2060 O   0  0  0  0  0  0  0  0  0  0  0  0
  1  3  2  0  0  0  0
  2 50  1  6  0  0  0
  2  6  1  0  0  0  0
  3 11  1  0  0  0  0
  5  4  1  1  0  0  0
  5  2  1  0  0  0  0
  5  6  1  0  0  0  0
  6  1  2  0  0  0  0
  7  8  1  0  0  0  0
  8 12  1  0  0  0  0
  9 10  1  0  0  0  0
 10  8  1  0  0  0  0
 11  7  1  0  0  0  0
 11  9  2  0  0  0  0
 12 13  1  0  0  0  0
 13 15  1  0  0  0  0
 13 14  1  1  0  0  0
 15 16  1  0  0  0  0
 16 18  1  0  0  0  0
 18 17  2  0  0  0  0
 19 18  1  0  0  0  0
 20 21  1  0  0  0  0
 21 19  1  0  0  0  0
 22 21  2  0  0  0  0
 24 27  2  0  0  0  0
 24 25  1  0  0  0  0
 25 28  1  0  0  0  0
 25 23  2  0  0  0  0
 26 23  1  0  0  0  0
 26  3  1  0  0  0  0
 27 26  1  0  0  0  0
 29 28  2  0  0  0  0
 29 36  1  0  0  0  0
 31 32  1  0  0  0  0
 31 43  2  0  0  0  0
 32 35  1  0  0  0  0
 34 30  2  0  0  0  0
 34 33  1  0  0  0  0
 36 34  1  0  0  0  0
 37 39  1  0  0  0  0
 37 42  2  0  0  0  0
 38 31  1  0  0  0  0
 40 39  1  1  0  0  0
 40 30  1  0  0  0  0
 40 38  1  0  0  0  0
 41 39  2  0  0  0  0
 42 38  1  0  0  0  0
 44 41  1  0  0  0  0
 44 36  2  0  0  0  0
 45 46  1  0  0  0  0
 45 32  1  0  0  0  0
 48 47  1  0  0  0  0
 48 29  1  0  0  0  0
 49 48  2  0  0  0  0
 51 54  2  0  0  0  0
 53 52  1  0  0  0  0
 53 50  1  0  0  0  0
 54 56  1  0  0  0  0
 54 52  1  0  0  0  0
 55 53  2  0  0  0  0
 57 56  1  0  0  0  0
 58 57  1  0  0  0  0
 60 62  1  0  0  0  0
 60 63  1  0  0  0  0
 61 59  1  0  0  0  0
 62 58  1  1  0  0  0
 62 61  1  0  0  0  0
 63 59  1  0  0  0  0
 64 66  1  0  0  0  0
 64  5  1  0  0  0  0
 65 66  1  0  0  0  0
M  END
>  <MODEL>
1

>  <REMARK>
 VINA RESULT:      -6.5      0.000      0.000
  Name = 
  21 active torsions:
  status: ('A' for Active; 'I' for Inactive)
    1  A    between atoms: C_5  and  C_11
    2  A    between atoms: C_5  and  C_32
    3  A    between atoms: N_8  and  C_26
    4  A    between atoms: O_10  and  C_43
    5  A    between atoms: C_11  and  N_47
    6  A    between atoms: N_12  and  C_41
    7  A    between atoms: C_14  and  C_44
    8  A    between atoms: C_14  and  C_51
    9  A    between atoms: O_18  and  C_38
   10  A    between atoms: O_18  and  C_44
   11  A    between atoms: C_19  and  CA_54
   12  A    between atoms: C_20  and  C_62
   13  A    between atoms: C_20  and  C_65
   14  A    between atoms: C_31  and  C_36
   15  A    between atoms: C_31  and  C_37
   16  A    between atoms: N_34  and  C_62
   17  A    between atoms: N_40  and  C_49
   18  A    between atoms: C_43  and  C_57
   19  A    between atoms: C_45  and  CA_54
   20  A    between atoms: N_47  and  C_65
   21  A    between atoms: C_49  and  C_58
                            x       y       z     vdW  Elec       q    Type
                         _______ _______ _______ _____ _____    ______ ____

>  <TORSDO>
F 21

$$$$
=
 OpenBabel11042412493D

 66 71  0  0  1  0  0  0  0  0999 V2000
  186.5900  177.9320  140.7590 C   0  0  0  0  0  0  0  0  0  0  0  0
  186.3910  177.7440  143.5160 C   0  0  2  0  0  3  0  0  0  0  0  0
  186.5280  178.1190  139.4640 C   0  0  0  0  0  0  0  0  0  0  0  0
  187.9450  175.8170  143.1300 C   0  0  0  0  0  1  0  0  0  0  0  0
  187.7260  177.3170  143.1600 C   0  0  1  0  0  0  0  0  0  0  0  0
  186.7810  177.7250  142.0300 C   0  0  0  0  0  0  0  0  0  0  0  0
  183.9320  179.3530  139.2590 S   0  0  0  0  0  0  0  0  0  0  0  0
  182.8210  178.6900  138.0320 N   0  0  0  0  0  0  0  0  0  0  0  0
  184.8260  177.3940  137.8220 C   0  0  0  0  0  3  0  0  0  0  0  0
  183.5080  177.6500  137.3790 N   0  0  0  0  0  0  0  0  0  0  0  0
  185.2110  178.2030  138.7850 C   0  0  2  0  0  3  0  0  0  0  0  0
  181.6920  178.0740  138.7180 C   0  0  0  0  0  2  0  0  0  0  0  0
  180.4210  178.1690  137.8830 C   0  0  1  0  0  3  0  0  0  0  0  0
  179.2210  178.4370  138.7810 C   0  0  0  0  0  1  0  0  0  0  0  0
  180.5690  179.3110  136.8950 C   0  0  0  0  0  2  0  0  0  0  0  0
  179.8100  180.4650  137.3590 N   0  0  0  0  0  2  0  0  0  0  0  0
  181.3440  182.0220  138.2770 C   0  0  0  0  0  2  0  0  0  0  0  0
  180.3660  181.7770  137.4170 C   0  0  0  0  0  0  0  0  0  0  0  0
  179.9510  182.8350  136.4370 C   0  0  0  0  0  2  0  0  0  0  0  0
  179.1310  184.6540  138.1060 C   0  0  0  0  0  1  0  0  0  0  0  0
  180.0540  184.2130  137.0220 C   0  0  0  0  0  0  0  0  0  0  0  0
  181.0790  184.9910  136.6930 C   0  0  0  0  0  2  0  0  0  0  0  0
  188.6360  177.1260  138.6570 C   0  0  0  0  0  3  0  0  0  0  0  0
  189.2560  178.6330  137.1200 C   0  0  0  0  0  3  0  0  0  0  0  0
  189.5840  177.4190  137.7130 C   0  0  0  0  0  0  0  0  0  0  0  0
  187.7570  178.1440  138.7150 N   0  0  0  0  0  0  0  0  0  0  0  0
  188.1150  179.0600  137.7810 C   0  0  0  0  0  3  0  0  0  0  0  0
  190.5280  176.4430  137.2440 N   0  0  0  0  0  0  0  0  0  0  0  0
  190.3670  175.3760  136.5020 C   0  0  0  0  0  0  0  0  0  0  0  0
  193.8970  174.0130  136.9540 N   0  0  0  0  0  0  0  0  0  0  0  0
  196.6680  172.7830  137.0980 C   0  0  0  0  0  0  0  0  0  0  0  0
  197.0060  174.1770  137.0760 N   0  0  0  0  0  0  0  0  0  0  0  0
  192.7260  175.9020  137.7690 F   0  0  0  0  0  0  0  0  0  0  0  0
  192.6910  174.7860  136.9920 C   0  0  2  0  0  3  0  0  0  0  0  0
  198.0850  174.6520  137.9310 C   0  0  0  0  0  1  0  0  0  0  0  0
  191.5460  174.4870  136.3460 C   0  0  0  0  0  0  0  0  0  0  0  0
  194.1860  170.8400  135.0600 C   0  0  0  0  0  3  0  0  0  0  0  0
  195.5620  172.2680  136.3410 N   0  0  0  0  0  0  0  0  0  0  0  0
  193.4670  172.0650  135.5240 C   0  0  0  0  0  0  0  0  0  0  0  0
  194.2600  172.8310  136.2430 C   0  0  0  0  0  0  0  0  0  0  0  0
  192.0520  172.2430  135.2370 C   0  0  0  0  0  3  0  0  0  0  0  0
  195.5600  170.9570  135.7170 C   0  0  0  0  0  3  0  0  0  0  0  0
  197.3910  171.9770  137.7490 O   0  0  0  0  0  0  0  0  0  0  0  0
  191.2640  173.2550  135.5800 C   0  0  0  0  0  3  0  0  0  0  0  0
  196.5630  175.0320  135.9800 C   0  0  0  0  0  2  0  0  0  0  0  0
  197.7520  175.5450  135.1890 C   0  0  0  0  0  1  0  0  0  0  0  0
  188.3100  174.1830  136.3800 O   0  0  0  0  0  1  0  0  0  0  0  0
  189.0800  175.0210  135.8440 C   0  0  0  0  0  0  0  0  0  0  0  0
  188.7430  175.5380  134.5980 O   0  0  0  0  0  0  0  0  0  0  0  0
  186.2260  179.1880  143.9880 C   0  0  0  0  0  2  0  0  0  0  0  0
  185.8910  178.7760  148.3050 O   0  0  0  0  0  0  0  0  0  0  0  0
  187.0660  178.5570  146.2880 N   0  0  0  0  0  2  0  0  0  0  0  0
  186.1360  179.2860  145.4800 C   0  0  0  0  0  0  0  0  0  0  0  0
  186.9170  178.3580  147.6990 C   0  0  0  0  0  0  0  0  0  0  0  0
  185.1900  179.9310  146.0160 O   0  0  0  0  0  0  0  0  0  0  0  0
  187.9520  177.6190  148.4890 C   0  0  0  0  0  2  0  0  0  0  0  0
  189.3840  177.7490  147.9550 C   0  0  0  0  0  2  0  0  0  0  0  0
  189.9250  176.5290  147.5230 O   0  0  0  0  0  0  0  0  0  0  0  0
  192.2080  174.6750  145.5260 S   0  0  0  0  0  0  0  0  0  0  0  0
  190.7690  176.9390  145.3360 C   0  0  0  0  0  2  0  0  0  0  0  0
  192.1440  175.7120  147.0170 C   0  0  0  0  0  2  0  0  0  0  0  0
  191.1040  176.8160  146.8160 C   0  0  2  0  0  3  0  0  0  0  0  0
  191.7830  176.1390  144.5400 C   0  0  0  0  0  2  0  0  0  0  0  0
  189.0240  178.1570  143.1480 C   0  0  0  0  0  2  0  0  0  0  0  0
  190.9780  178.2130  142.2080 O   0  0  0  0  0  1  0  0  0  0  0  0
  189.6890  178.2090  141.9160 O   0  0  0  0  0  0  0  0  0  0  0  0
  1  6  2  0  0  0  0
  2 50  1  1  0  0  0
  3  1  2  0  0  0  0
  5  4  1  1  0  0  0
  5  2  1  0  0  0  0
  6  5  1  0  0  0  0
  6  2  1  0  0  0  0
  8 12  1  0  0  0  0
  8  7  1  0  0  0  0
  9 11  1  0  0  0  0
 10  9  2  0  0  0  0
 10  8  1  0  0  0  0
 11  7  1  0  0  0  0
 11  3  1  1  0  0  0
 13 12  1  0  0  0  0
 13 14  1  1  0  0  0
 15 16  1  0  0  0  0
 15 13  1  0  0  0  0
 16 18  1  0  0  0  0
 18 17  2  0  0  0  0
 19 21  1  0  0  0  0
 19 18  1  0  0  0  0
 21 20  1  0  0  0  0
 22 21  2  0  0  0  0
 23 26  1  0  0  0  0
 24 25  1  0  0  0  0
 24 27  2  0  0  0  0
 25 23  2  0  0  0  0
 26  3  1  0  0  0  0
 27 26  1  0  0  0  0
 28 25  1  0  0  0  0
 29 28  2  0  0  0  0
 30 34  1  0  0  0  0
 31 43  2  0  0  0  0
 32 31  1  0  0  0  0
 32 35  1  0  0  0  0
 34 33  1  1  0  0  0
 36 29  1  0  0  0  0
 36 34  1  0  0  0  0
 37 39  1  0  0  0  0
 37 42  2  0  0  0  0
 38 31  1  0  0  0  0
 39 40  1  0  0  0  0
 40 38  1  0  0  0  0
 40 30  2  0  0  0  0
 41 39  2  0  0  0  0
 41 44  1  0  0  0  0
 42 38  1  0  0  0  0
 44 36  2  0  0  0  0
 45 32  1  0  0  0  0
 46 45  1  0  0  0  0
 48 47  1  0  0  0  0
 48 29  1  0  0  0  0
 49 48  2  0  0  0  0
 50 53  1  0  0  0  0
 52 54  1  0  0  0  0
 53 55  2  0  0  0  0
 53 52  1  0  0  0  0
 54 51  2  0  0  0  0
 54 56  1  0  0  0  0
 57 56  1  0  0  0  0
 58 57  1  0  0  0  0
 59 61  1  0  0  0  0
 60 62  1  0  0  0  0
 62 61  1  0  0  0  0
 62 58  1  1  0  0  0
 63 60  1  0  0  0  0
 63 59  1  0  0  0  0
 64  5  1  0  0  0  0
 66 65  1  0  0  0  0
 66 64  1  0  0  0  0
M  END
>  <MODEL>
2

>  <REMARK>
 VINA RESULT:      -5.4      3.436     12.527
  Name = 
  21 active torsions:
  status: ('A' for Active; 'I' for Inactive)
    1  A    between atoms: C_5  and  C_11
    2  A    between atoms: C_5  and  C_32
    3  A    between atoms: N_8  and  C_26
    4  A    between atoms: O_10  and  C_43
    5  A    between atoms: C_11  and  N_47
    6  A    between atoms: N_12  and  C_41
    7  A    between atoms: C_14  and  C_44
    8  A    between atoms: C_14  and  C_51
    9  A    between atoms: O_18  and  C_38
   10  A    between atoms: O_18  and  C_44
   11  A    between atoms: C_19  and  CA_54
   12  A    between atoms: C_20  and  C_62
   13  A    between atoms: C_20  and  C_65
   14  A    between atoms: C_31  and  C_36
   15  A    between atoms: C_31  and  C_37
   16  A    between atoms: N_34  and  C_62
   17  A    between atoms: N_40  and  C_49
   18  A    between atoms: C_43  and  C_57
   19  A    between atoms: C_45  and  CA_54
   20  A    between atoms: N_47  and  C_65
   21  A    between atoms: C_49  and  C_58
                            x       y       z     vdW  Elec       q    Type
                         _______ _______ _______ _____ _____    ______ ____

>  <TORSDO>
F 21

$$$$
=
 OpenBabel11042412493D

 66 71  0  0  1  0  0  0  0  0999 V2000
  185.4080  178.0100  141.6630 C   0  0  0  0  0  0  0  0  0  0  0  0
  185.8140  177.7210  144.3880 C   0  0  2  0  0  3  0  0  0  0  0  0
  185.0650  178.2460  140.4200 C   0  0  0  0  0  0  0  0  0  0  0  0
  187.2230  175.8040  143.6020 C   0  0  0  0  0  1  0  0  0  0  0  0
  187.0340  177.3020  143.7330 C   0  0  1  0  0  0  0  0  0  0  0  0
  185.8700  177.7560  142.8530 C   0  0  0  0  0  0  0  0  0  0  0  0
  182.6070  176.9560  139.6460 S   0  0  0  0  0  0  0  0  0  0  0  0
  181.2190  178.0180  139.2940 N   0  0  0  0  0  0  0  0  0  0  0  0
  182.9970  179.5020  139.9070 C   0  0  0  0  0  3  0  0  0  0  0  0
  181.6540  179.3410  139.5000 N   0  0  0  0  0  0  0  0  0  0  0  0
  183.6320  178.3600  140.0490 C   0  0  2  0  0  3  0  0  0  0  0  0
  180.9000  177.9020  137.8760 C   0  0  0  0  0  2  0  0  0  0  0  0
  181.0150  176.4590  137.4010 C   0  0  1  0  0  3  0  0  0  0  0  0
  179.7140  175.7130  137.6650 C   0  0  0  0  0  1  0  0  0  0  0  0
  181.2980  176.4550  135.9110 C   0  0  0  0  0  2  0  0  0  0  0  0
  182.2880  175.4310  135.6000 N   0  0  0  0  0  2  0  0  0  0  0  0
  184.0740  176.9860  135.4960 C   0  0  0  0  0  2  0  0  0  0  0  0
  183.6760  175.7230  135.4560 C   0  0  0  0  0  0  0  0  0  0  0  0
  184.6940  174.6210  135.3920 C   0  0  0  0  0  2  0  0  0  0  0  0
  186.5530  174.1770  137.1560 C   0  0  0  0  0  1  0  0  0  0  0  0
  185.1170  174.1680  136.7590 C   0  0  0  0  0  0  0  0  0  0  0  0
  184.1950  173.9160  137.6810 C   0  0  0  0  0  2  0  0  0  0  0  0
  187.1890  177.5030  139.4120 C   0  0  0  0  0  3  0  0  0  0  0  0
  187.1300  178.5830  137.4500 C   0  0  0  0  0  3  0  0  0  0  0  0
  187.8550  177.6880  138.2290 C   0  0  0  0  0  0  0  0  0  0  0  0
  186.1010  178.2950  139.4210 N   0  0  0  0  0  0  0  0  0  0  0  0
  186.0470  178.9470  138.2340 C   0  0  0  0  0  3  0  0  0  0  0  0
  188.9240  176.8270  137.8070 N   0  0  0  0  0  0  0  0  0  0  0  0
  189.3300  176.4780  136.6110 C   0  0  0  0  0  0  0  0  0  0  0  0
  192.5040  174.5350  137.4300 N   0  0  0  0  0  0  0  0  0  0  0  0
  195.0050  172.8670  137.8490 C   0  0  0  0  0  0  0  0  0  0  0  0
  195.5450  174.1860  138.0090 N   0  0  0  0  0  0  0  0  0  0  0  0
  191.5140  176.5240  138.2460 F   0  0  0  0  0  0  0  0  0  0  0  0
  191.4350  175.4880  137.3690 C   0  0  2  0  0  3  0  0  0  0  0  0
  196.5360  174.4170  139.0510 C   0  0  0  0  0  1  0  0  0  0  0  0
  190.3730  175.4250  136.5400 C   0  0  0  0  0  0  0  0  0  0  0  0
  192.6100  171.5020  135.3010 C   0  0  0  0  0  3  0  0  0  0  0  0
  193.9660  172.5930  136.8950 N   0  0  0  0  0  0  0  0  0  0  0  0
  192.0180  172.7900  135.7730 C   0  0  0  0  0  0  0  0  0  0  0  0
  192.7940  173.3640  136.6680 C   0  0  0  0  0  0  0  0  0  0  0  0
  190.7070  173.2150  135.3050 C   0  0  0  0  0  3  0  0  0  0  0  0
  193.8670  171.3480  136.1560 C   0  0  0  0  0  3  0  0  0  0  0  0
  195.4900  171.9100  138.5160 O   0  0  0  0  0  0  0  0  0  0  0  0
  190.0340  174.3130  135.6280 C   0  0  0  0  0  3  0  0  0  0  0  0
  195.4110  175.1780  136.9480 C   0  0  0  0  0  2  0  0  0  0  0  0
  196.4240  174.9240  135.8480 C   0  0  0  0  0  1  0  0  0  0  0  0
  189.3850  178.0240  134.8020 O   0  0  0  0  0  0  0  0  0  0  0  0
  188.7860  177.0680  135.3570 C   0  0  0  0  0  0  0  0  0  0  0  0
  187.5760  176.6350  134.8250 O   0  0  0  0  0  1  0  0  0  0  0  0
  185.7740  179.1460  144.9360 C   0  0  0  0  0  2  0  0  0  0  0  0
  187.1320  178.6800  149.0420 O   0  0  0  0  0  0  0  0  0  0  0  0
  187.4070  178.4270  146.7270 N   0  0  0  0  0  2  0  0  0  0  0  0
  186.2810  179.2240  146.3430 C   0  0  0  0  0  0  0  0  0  0  0  0
  187.8100  178.2140  148.0850 C   0  0  0  0  0  0  0  0  0  0  0  0
  185.6620  179.9140  147.2020 O   0  0  0  0  0  0  0  0  0  0  0  0
  189.0250  177.4010  148.4110 C   0  0  0  0  0  2  0  0  0  0  0  0
  189.9690  177.1500  147.2280 C   0  0  0  0  0  2  0  0  0  0  0  0
  191.0350  176.2940  147.5440 O   0  0  0  0  0  0  0  0  0  0  0  0
  191.6990  174.7720  144.4010 S   0  0  0  0  0  0  0  0  0  0  0  0
  191.4110  177.2520  145.3980 C   0  0  0  0  0  2  0  0  0  0  0  0
  192.4660  175.0790  146.0190 C   0  0  0  0  0  2  0  0  0  0  0  0
  192.0070  176.4430  146.5410 C   0  0  2  0  0  3  0  0  0  0  0  0
  191.7390  176.5600  144.0890 C   0  0  0  0  0  2  0  0  0  0  0  0
  188.3070  178.1370  143.4670 C   0  0  0  0  0  2  0  0  0  0  0  0
  189.9620  178.7220  142.1930 O   0  0  0  0  0  1  0  0  0  0  0  0
  188.9450  177.8790  142.2470 O   0  0  0  0  0  0  0  0  0  0  0  0
  1  6  2  0  0  0  0
  2 50  1  1  0  0  0
  3  1  2  0  0  0  0
  5  4  1  1  0  0  0
  5  2  1  0  0  0  0
  6  5  1  0  0  0  0
  6  2  1  0  0  0  0
  7 11  1  0  0  0  0
  8 10  1  0  0  0  0
  8  7  1  0  0  0  0
  9 11  1  0  0  0  0
 10  9  2  0  0  0  0
 11  3  1  6  0  0  0
 12  8  1  0  0  0  0
 13 14  1  6  0  0  0
 13 12  1  0  0  0  0
 15 13  1  0  0  0  0
 16 15  1  0  0  0  0
 18 17  2  0  0  0  0
 18 16  1  0  0  0  0
 19 18  1  0  0  0  0
 19 21  1  0  0  0  0
 21 20  1  0  0  0  0
 21 22  2  0  0  0  0
 23 26  1  0  0  0  0
 24 25  1  0  0  0  0
 24 27  2  0  0  0  0
 25 23  2  0  0  0  0
 26  3  1  0  0  0  0
 27 26  1  0  0  0  0
 28 25  1  0  0  0  0
 29 28  2  0  0  0  0
 31 32  1  0  0  0  0
 31 43  2  0  0  0  0
 32 35  1  0  0  0  0
 34 30  1  0  0  0  0
 34 33  1  1  0  0  0
 36 29  1  0  0  0  0
 36 34  1  0  0  0  0
 37 39  1  0  0  0  0
 37 42  2  0  0  0  0
 38 31  1  0  0  0  0
 39 40  1  0  0  0  0
 40 38  1  0  0  0  0
 40 30  2  0  0  0  0
 41 44  1  0  0  0  0
 41 39  2  0  0  0  0
 42 38  1  0  0  0  0
 44 36  2  0  0  0  0
 45 32  1  0  0  0  0
 46 45  1  0  0  0  0
 47 48  2  0  0  0  0
 48 29  1  0  0  0  0
 49 48  1  0  0  0  0
 50 53  1  0  0  0  0
 52 54  1  0  0  0  0
 53 52  1  0  0  0  0
 53 55  2  0  0  0  0
 54 56  1  0  0  0  0
 54 51  2  0  0  0  0
 57 58  1  0  0  0  0
 57 56  1  0  0  0  0
 59 61  1  0  0  0  0
 60 62  1  0  0  0  0
 61 62  1  0  0  0  0
 62 58  1  1  0  0  0
 63 59  1  0  0  0  0
 63 60  1  0  0  0  0
 64  5  1  0  0  0  0
 65 66  1  0  0  0  0
 66 64  1  0  0  0  0
M  END
>  <MODEL>
3

>  <REMARK>
 VINA RESULT:      -5.4      3.639     11.897
  Name = 
  21 active torsions:
  status: ('A' for Active; 'I' for Inactive)
    1  A    between atoms: C_5  and  C_11
    2  A    between atoms: C_5  and  C_32
    3  A    between atoms: N_8  and  C_26
    4  A    between atoms: O_10  and  C_43
    5  A    between atoms: C_11  and  N_47
    6  A    between atoms: N_12  and  C_41
    7  A    between atoms: C_14  and  C_44
    8  A    between atoms: C_14  and  C_51
    9  A    between atoms: O_18  and  C_38
   10  A    between atoms: O_18  and  C_44
   11  A    between atoms: C_19  and  CA_54
   12  A    between atoms: C_20  and  C_62
   13  A    between atoms: C_20  and  C_65
   14  A    between atoms: C_31  and  C_36
   15  A    between atoms: C_31  and  C_37
   16  A    between atoms: N_34  and  C_62
   17  A    between atoms: N_40  and  C_49
   18  A    between atoms: C_43  and  C_57
   19  A    between atoms: C_45  and  CA_54
   20  A    between atoms: N_47  and  C_65
   21  A    between atoms: C_49  and  C_58
                            x       y       z     vdW  Elec       q    Type
                         _______ _______ _______ _____ _____    ______ ____

>  <TORSDO>
F 21

$$$$
=
 OpenBabel11042412493D

 66 71  0  0  1  0  0  0  0  0999 V2000
  188.2250  177.3520  141.4670 C   0  0  0  0  0  0  0  0  0  0  0  0
  188.5330  176.5500  144.1010 C   0  0  2  0  0  3  0  0  0  0  0  0
  187.9440  177.8430  140.2850 C   0  0  0  0  0  0  0  0  0  0  0  0
  189.6480  174.5990  142.9900 C   0  0  0  0  0  1  0  0  0  0  0  0
  189.6870  176.0650  143.3740 C   0  0  1  0  0  0  0  0  0  0  0  0
  188.6210  176.8330  142.5930 C   0  0  0  0  0  0  0  0  0  0  0  0
  185.2900  178.5200  141.1780 S   0  0  0  0  0  0  0  0  0  0  0  0
  184.0710  178.8280  139.9140 N   0  0  0  0  0  0  0  0  0  0  0  0
  186.0910  178.3370  138.7230 C   0  0  0  0  0  3  0  0  0  0  0  0
  184.7200  178.6760  138.6750 N   0  0  0  0  0  0  0  0  0  0  0  0
  186.5530  178.2350  139.9500 C   0  0  2  0  0  3  0  0  0  0  0  0
  183.0610  177.7780  139.9840 C   0  0  0  0  0  2  0  0  0  0  0  0
  181.8820  178.0850  139.0700 C   0  0  1  0  0  3  0  0  0  0  0  0
  180.6600  177.2870  139.5010 C   0  0  0  0  0  1  0  0  0  0  0  0
  181.5670  179.5660  139.1590 C   0  0  0  0  0  2  0  0  0  0  0  0
  180.1750  179.7970  138.7920 N   0  0  0  0  0  2  0  0  0  0  0  0
  180.0550  182.1270  138.3760 C   0  0  0  0  0  2  0  0  0  0  0  0
  179.7660  180.8960  137.9810 C   0  0  0  0  0  0  0  0  0  0  0  0
  179.1360  180.6710  136.6370 C   0  0  0  0  0  2  0  0  0  0  0  0
  180.3790  179.0860  134.9910 C   0  0  0  0  0  1  0  0  0  0  0  0
  180.1640  180.4430  135.5670 C   0  0  0  0  0  0  0  0  0  0  0  0
  180.7720  181.4840  135.0090 C   0  0  0  0  0  2  0  0  0  0  0  0
  189.8820  176.9140  139.0750 C   0  0  0  0  0  3  0  0  0  0  0  0
  190.1150  178.4140  137.4280 C   0  0  0  0  0  3  0  0  0  0  0  0
  190.6050  177.2250  137.9540 C   0  0  0  0  0  0  0  0  0  0  0  0
  188.9930  177.8990  139.3000 N   0  0  0  0  0  0  0  0  0  0  0  0
  189.1160  178.8100  138.3030 C   0  0  0  0  0  3  0  0  0  0  0  0
  191.4730  176.2760  137.3120 N   0  0  0  0  0  0  0  0  0  0  0  0
  191.2210  175.3270  136.4450 C   0  0  0  0  0  0  0  0  0  0  0  0
  194.7700  173.9580  136.2280 N   0  0  0  0  0  0  0  0  0  0  0  0
  197.5110  172.7060  135.8670 C   0  0  0  0  0  0  0  0  0  0  0  0
  197.8290  174.0870  135.6460 N   0  0  0  0  0  0  0  0  0  0  0  0
  193.7990  175.9300  137.1080 F   0  0  0  0  0  0  0  0  0  0  0  0
  193.5990  174.7500  136.4610 C   0  0  2  0  0  3  0  0  0  0  0  0
  199.0670  174.6200  136.1970 C   0  0  0  0  0  1  0  0  0  0  0  0
  192.3410  174.4110  136.1130 C   0  0  0  0  0  0  0  0  0  0  0  0
  194.6510  170.6260  134.6090 C   0  0  0  0  0  3  0  0  0  0  0  0
  196.2680  172.1410  135.4210 N   0  0  0  0  0  0  0  0  0  0  0  0
  194.0460  171.8980  135.1080 C   0  0  0  0  0  0  0  0  0  0  0  0
  194.9740  172.7130  135.5630 C   0  0  0  0  0  0  0  0  0  0  0  0
  192.6010  172.0700  135.1250 C   0  0  0  0  0  3  0  0  0  0  0  0
  196.1360  170.7810  134.9340 C   0  0  0  0  0  3  0  0  0  0  0  0
  198.3650  171.9500  136.4120 O   0  0  0  0  0  0  0  0  0  0  0  0
  191.9030  173.1200  135.5420 C   0  0  0  0  0  3  0  0  0  0  0  0
  197.1510  174.8480  134.6030 C   0  0  0  0  0  2  0  0  0  0  0  0
  196.8330  176.2510  135.0860 C   0  0  0  0  0  1  0  0  0  0  0  0
  189.6880  175.5170  134.6330 O   0  0  0  0  0  0  0  0  0  0  0  0
  189.8880  175.1280  135.8120 C   0  0  0  0  0  0  0  0  0  0  0  0
  188.8250  174.5900  136.5290 O   0  0  0  0  0  1  0  0  0  0  0  0
  188.7010  177.8510  144.8810 C   0  0  0  0  0  2  0  0  0  0  0  0
  185.1800  179.4770  146.8520 O   0  0  0  0  0  0  0  0  0  0  0  0
  186.2860  178.5940  144.9830 N   0  0  0  0  0  2  0  0  0  0  0  0
  187.4760  178.1970  145.6720 C   0  0  0  0  0  0  0  0  0  0  0  0
  185.1540  179.1980  145.6210 C   0  0  0  0  0  0  0  0  0  0  0  0
  187.5250  178.2280  146.9350 O   0  0  0  0  0  0  0  0  0  0  0  0
  183.9240  179.5500  144.8430 C   0  0  0  0  0  2  0  0  0  0  0  0
  183.1730  178.3500  144.2500 C   0  0  0  0  0  2  0  0  0  0  0  0
  182.3960  178.6850  143.1300 O   0  0  0  0  0  0  0  0  0  0  0  0
  179.0230  179.1200  142.0950 S   0  0  0  0  0  0  0  0  0  0  0  0
  180.3570  178.4870  144.3430 C   0  0  0  0  0  2  0  0  0  0  0  0
  180.5420  180.0640  142.4190 C   0  0  0  0  0  2  0  0  0  0  0  0
  181.2920  179.4220  143.5880 C   0  0  2  0  0  3  0  0  0  0  0  0
  178.9380  178.7290  143.8670 C   0  0  0  0  0  2  0  0  0  0  0  0
  191.0770  176.7280  143.2430 C   0  0  0  0  0  2  0  0  0  0  0  0
  192.6880  177.0940  141.8380 O   0  0  0  0  0  1  0  0  0  0  0  0
  191.3800  177.2300  141.9710 O   0  0  0  0  0  0  0  0  0  0  0  0
  1  6  2  0  0  0  0
  2 50  1  1  0  0  0
  3  1  2  0  0  0  0
  5  4  1  6  0  0  0
  5  2  1  0  0  0  0
  6  5  1  0  0  0  0
  6  2  1  0  0  0  0
  8 12  1  0  0  0  0
  8  7  1  0  0  0  0
  9 11  1  0  0  0  0
 10  9  2  0  0  0  0
 10  8  1  0  0  0  0
 11  3  1  1  0  0  0
 11  7  1  0  0  0  0
 13 15  1  0  0  0  0
 13 14  1  1  0  0  0
 13 12  1  0  0  0  0
 16 15  1  0  0  0  0
 18 17  2  0  0  0  0
 18 16  1  0  0  0  0
 19 18  1  0  0  0  0
 20 21  1  0  0  0  0
 21 19  1  0  0  0  0
 22 21  2  0  0  0  0
 23 26  1  0  0  0  0
 24 25  1  0  0  0  0
 24 27  2  0  0  0  0
 25 23  2  0  0  0  0
 26  3  1  0  0  0  0
 27 26  1  0  0  0  0
 28 25  1  0  0  0  0
 29 28  2  0  0  0  0
 30 34  1  0  0  0  0
 31 43  2  0  0  0  0
 32 31  1  0  0  0  0
 32 35  1  0  0  0  0
 34 33  1  1  0  0  0
 36 29  1  0  0  0  0
 36 34  1  0  0  0  0
 37 42  2  0  0  0  0
 37 39  1  0  0  0  0
 38 40  1  0  0  0  0
 38 31  1  0  0  0  0
 39 41  2  0  0  0  0
 39 40  1  0  0  0  0
 40 30  2  0  0  0  0
 41 44  1  0  0  0  0
 42 38  1  0  0  0  0
 44 36  2  0  0  0  0
 45 46  1  0  0  0  0
 45 32  1  0  0  0  0
 47 48  2  0  0  0  0
 48 29  1  0  0  0  0
 48 49  1  0  0  0  0
 50 53  1  0  0  0  0
 52 54  1  0  0  0  0
 52 53  1  0  0  0  0
 53 55  2  0  0  0  0
 54 51  2  0  0  0  0
 56 54  1  0  0  0  0
 57 56  1  0  0  0  0
 58 57  1  0  0  0  0
 59 61  1  0  0  0  0
 59 63  1  0  0  0  0
 61 62  1  0  0  0  0
 62 58  1  6  0  0  0
 62 60  1  0  0  0  0
 63 60  1  0  0  0  0
 64  5  1  0  0  0  0
 65 66  1  0  0  0  0
 66 64  1  0  0  0  0
M  END
>  <MODEL>
4

>  <REMARK>
 VINA RESULT:      -5.2      3.457     13.311
  Name = 
  21 active torsions:
  status: ('A' for Active; 'I' for Inactive)
    1  A    between atoms: C_5  and  C_11
    2  A    between atoms: C_5  and  C_32
    3  A    between atoms: N_8  and  C_26
    4  A    between atoms: O_10  and  C_43
    5  A    between atoms: C_11  and  N_47
    6  A    between atoms: N_12  and  C_41
    7  A    between atoms: C_14  and  C_44
    8  A    between atoms: C_14  and  C_51
    9  A    between atoms: O_18  and  C_38
   10  A    between atoms: O_18  and  C_44
   11  A    between atoms: C_19  and  CA_54
   12  A    between atoms: C_20  and  C_62
   13  A    between atoms: C_20  and  C_65
   14  A    between atoms: C_31  and  C_36
   15  A    between atoms: C_31  and  C_37
   16  A    between atoms: N_34  and  C_62
   17  A    between atoms: N_40  and  C_49
   18  A    between atoms: C_43  and  C_57
   19  A    between atoms: C_45  and  CA_54
   20  A    between atoms: N_47  and  C_65
   21  A    between atoms: C_49  and  C_58
                            x       y       z     vdW  Elec       q    Type
                         _______ _______ _______ _____ _____    ______ ____

>  <TORSDO>
F 21

$$$$
=
 OpenBabel11042412493D

 66 71  0  0  1  0  0  0  0  0999 V2000
  186.3440  177.9590  140.9260 C   0  0  0  0  0  0  0  0  0  0  0  0
  186.0860  177.6170  143.6630 C   0  0  2  0  0  3  0  0  0  0  0  0
  186.3080  178.2170  139.6420 C   0  0  0  0  0  0  0  0  0  0  0  0
  187.6700  175.7300  143.2060 C   0  0  0  0  0  1  0  0  0  0  0  0
  187.4330  177.2240  143.3140 C   0  0  1  0  0  0  0  0  0  0  0  0
  186.5090  177.6850  142.1880 C   0  0  0  0  0  0  0  0  0  0  0  0
  184.1200  179.8620  138.7400 S   0  0  0  0  0  0  0  0  0  0  0  0
  182.7720  179.0280  137.9230 N   0  0  0  0  0  0  0  0  0  0  0  0
  184.3390  177.2970  138.4610 C   0  0  0  0  0  3  0  0  0  0  0  0
  183.1020  177.6610  137.8820 N   0  0  0  0  0  0  0  0  0  0  0  0
  185.0060  178.3250  138.9390 C   0  0  2  0  0  3  0  0  0  0  0  0
  181.5850  179.1430  138.7620 C   0  0  0  0  0  2  0  0  0  0  0  0
  181.2520  180.6030  139.0470 C   0  0  1  0  0  3  0  0  0  0  0  0
  180.6170  181.2460  137.8220 C   0  0  0  0  0  1  0  0  0  0  0  0
  180.2740  180.6630  140.2050 C   0  0  0  0  0  2  0  0  0  0  0  0
  179.6520  179.3580  140.3930 N   0  0  0  0  0  2  0  0  0  0  0  0
  179.7810  177.2410  141.4510 C   0  0  0  0  0  2  0  0  0  0  0  0
  179.8800  178.5580  141.5510 C   0  0  0  0  0  0  0  0  0  0  0  0
  180.3540  179.1760  142.8350 C   0  0  0  0  0  2  0  0  0  0  0  0
  182.7400  178.5610  141.9990 C   0  0  0  0  0  1  0  0  0  0  0  0
  181.7940  178.8560  143.1130 C   0  0  0  0  0  0  0  0  0  0  0  0
  182.2730  178.9990  144.3430 C   0  0  0  0  0  2  0  0  0  0  0  0
  188.4720  177.3140  138.8800 C   0  0  0  0  0  3  0  0  0  0  0  0
  189.0710  178.8570  137.3700 C   0  0  0  0  0  3  0  0  0  0  0  0
  189.4310  177.6510  137.9610 C   0  0  0  0  0  0  0  0  0  0  0  0
  187.5540  178.2960  138.9230 N   0  0  0  0  0  0  0  0  0  0  0  0
  187.8980  179.2330  138.0060 C   0  0  0  0  0  3  0  0  0  0  0  0
  190.4230  176.7170  137.5090 N   0  0  0  0  0  0  0  0  0  0  0  0
  190.5230  176.0390  136.3920 C   0  0  0  0  0  0  0  0  0  0  0  0
  193.9770  174.4670  136.7440 N   0  0  0  0  0  0  0  0  0  0  0  0
  196.6470  173.0290  136.8570 C   0  0  0  0  0  0  0  0  0  0  0  0
  197.0760  174.3360  136.4500 N   0  0  0  0  0  0  0  0  0  0  0  0
  193.0680  176.6060  137.1970 F   0  0  0  0  0  0  0  0  0  0  0  0
  192.8460  175.3470  136.7320 C   0  0  2  0  0  3  0  0  0  0  0  0
  198.2950  174.8870  137.0250 C   0  0  0  0  0  1  0  0  0  0  0  0
  191.6030  175.0230  136.3220 C   0  0  0  0  0  0  0  0  0  0  0  0
  193.7730  170.9230  135.6770 C   0  0  0  0  0  3  0  0  0  0  0  0
  195.4120  172.4650  136.3890 N   0  0  0  0  0  0  0  0  0  0  0  0
  193.2140  172.2910  135.9040 C   0  0  0  0  0  0  0  0  0  0  0  0
  194.1530  173.1200  136.3110 C   0  0  0  0  0  0  0  0  0  0  0  0
  191.7890  172.5400  135.7530 C   0  0  0  0  0  3  0  0  0  0  0  0
  195.2300  171.0510  136.1160 C   0  0  0  0  0  3  0  0  0  0  0  0
  197.3960  172.3300  137.5970 O   0  0  0  0  0  0  0  0  0  0  0  0
  191.1300  173.6800  135.9260 C   0  0  0  0  0  3  0  0  0  0  0  0
  196.5440  174.9480  135.2360 C   0  0  0  0  0  2  0  0  0  0  0  0
  197.0520  176.3700  135.0890 C   0  0  0  0  0  1  0  0  0  0  0  0
  189.6230  177.3150  134.5950 O   0  0  0  0  0  0  0  0  0  0  0  0
  189.6100  176.2310  135.2320 C   0  0  0  0  0  0  0  0  0  0  0  0
  188.6760  175.2600  134.8850 O   0  0  0  0  0  1  0  0  0  0  0  0
  185.8940  179.0300  144.2100 C   0  0  0  0  0  2  0  0  0  0  0  0
  186.3030  178.4700  148.5040 O   0  0  0  0  0  0  0  0  0  0  0  0
  187.1950  178.6300  146.3420 N   0  0  0  0  0  2  0  0  0  0  0  0
  185.9920  179.0750  145.7040 C   0  0  0  0  0  0  0  0  0  0  0  0
  187.3090  178.3740  147.7460 C   0  0  0  0  0  0  0  0  0  0  0  0
  184.9890  179.4120  146.3950 O   0  0  0  0  0  0  0  0  0  0  0  0
  188.6120  177.9510  148.3520 C   0  0  0  0  0  2  0  0  0  0  0  0
  189.3960  176.9170  147.5340 C   0  0  0  0  0  2  0  0  0  0  0  0
  189.8850  177.4270  146.3220 O   0  0  0  0  0  0  0  0  0  0  0  0
  192.0450  174.9950  147.7550 S   0  0  0  0  0  0  0  0  0  0  0  0
  191.4990  175.9940  145.3190 C   0  0  0  0  0  2  0  0  0  0  0  0
  191.7940  176.7920  147.6640 C   0  0  0  0  0  2  0  0  0  0  0  0
  191.2620  177.1540  146.2750 C   0  0  2  0  0  3  0  0  0  0  0  0
  192.4340  175.0010  145.9810 C   0  0  0  0  0  2  0  0  0  0  0  0
  188.7220  178.0760  143.3780 C   0  0  0  0  0  2  0  0  0  0  0  0
  190.0680  177.8380  141.6950 O   0  0  0  0  0  1  0  0  0  0  0  0
  189.8850  177.4310  142.9390 O   0  0  0  0  0  0  0  0  0  0  0  0
  1  6  2  0  0  0  0
  2 50  1  1  0  0  0
  3  1  2  0  0  0  0
  5  4  1  1  0  0  0
  5 64  1  0  0  0  0
  5  2  1  0  0  0  0
  6  5  1  0  0  0  0
  6  2  1  0  0  0  0
  7 11  1  0  0  0  0
  8  7  1  0  0  0  0
  8 12  1  0  0  0  0
  9 11  1  0  0  0  0
 10  8  1  0  0  0  0
 10  9  2  0  0  0  0
 11  3  1  1  0  0  0
 12 13  1  0  0  0  0
 13 14  1  6  0  0  0
 13 15  1  0  0  0  0
 15 16  1  0  0  0  0
 16 18  1  0  0  0  0
 17 18  2  0  0  0  0
 18 19  1  0  0  0  0
 19 21  1  0  0  0  0
 20 21  1  0  0  0  0
 21 22  2  0  0  0  0
 23 26  1  0  0  0  0
 24 25  1  0  0  0  0
 24 27  2  0  0  0  0
 25 23  2  0  0  0  0
 26  3  1  0  0  0  0
 27 26  1  0  0  0  0
 28 25  1  0  0  0  0
 29 28  2  0  0  0  0
 31 43  2  0  0  0  0
 32 31  1  0  0  0  0
 32 35  1  0  0  0  0
 34 30  1  0  0  0  0
 34 33  1  1  0  0  0
 36 29  1  0  0  0  0
 36 34  1  0  0  0  0
 37 39  1  0  0  0  0
 37 42  2  0  0  0  0
 38 31  1  0  0  0  0
 39 40  1  0  0  0  0
 40 38  1  0  0  0  0
 40 30  2  0  0  0  0
 41 39  2  0  0  0  0
 41 44  1  0  0  0  0
 42 38  1  0  0  0  0
 44 36  2  0  0  0  0
 45 32  1  0  0  0  0
 46 45  1  0  0  0  0
 47 48  2  0  0  0  0
 48 29  1  0  0  0  0
 49 48  1  0  0  0  0
 50 53  1  0  0  0  0
 52 54  1  0  0  0  0
 53 52  1  0  0  0  0
 53 55  2  0  0  0  0
 54 56  1  0  0  0  0
 54 51  2  0  0  0  0
 57 56  1  0  0  0  0
 58 57  1  0  0  0  0
 60 63  1  0  0  0  0
 60 62  1  0  0  0  0
 61 59  1  0  0  0  0
 62 58  1  1  0  0  0
 62 61  1  0  0  0  0
 63 59  1  0  0  0  0
 65 66  1  0  0  0  0
 66 64  1  0  0  0  0
M  END
>  <MODEL>
5

>  <REMARK>
 VINA RESULT:      -5.2      3.361     12.097
  Name = 
  21 active torsions:
  status: ('A' for Active; 'I' for Inactive)
    1  A    between atoms: C_5  and  C_11
    2  A    between atoms: C_5  and  C_32
    3  A    between atoms: N_8  and  C_26
    4  A    between atoms: O_10  and  C_43
    5  A    between atoms: C_11  and  N_47
    6  A    between atoms: N_12  and  C_41
    7  A    between atoms: C_14  and  C_44
    8  A    between atoms: C_14  and  C_51
    9  A    between atoms: O_18  and  C_38
   10  A    between atoms: O_18  and  C_44
   11  A    between atoms: C_19  and  CA_54
   12  A    between atoms: C_20  and  C_62
   13  A    between atoms: C_20  and  C_65
   14  A    between atoms: C_31  and  C_36
   15  A    between atoms: C_31  and  C_37
   16  A    between atoms: N_34  and  C_62
   17  A    between atoms: N_40  and  C_49
   18  A    between atoms: C_43  and  C_57
   19  A    between atoms: C_45  and  CA_54
   20  A    between atoms: N_47  and  C_65
   21  A    between atoms: C_49  and  C_58
                            x       y       z     vdW  Elec       q    Type
                         _______ _______ _______ _____ _____    ______ ____

>  <TORSDO>
F 21

$$$$
=
 OpenBabel11042412493D

 66 71  0  0  1  0  0  0  0  0999 V2000
  186.8090  177.7020  141.6850 C   0  0  0  0  0  0  0  0  0  0  0  0
  186.9690  177.1290  144.3910 C   0  0  2  0  0  3  0  0  0  0  0  0
  186.5820  178.0710  140.4480 C   0  0  0  0  0  0  0  0  0  0  0  0
  188.4000  175.2580  143.5350 C   0  0  0  0  0  1  0  0  0  0  0  0
  188.2320  176.7410  143.8020 C   0  0  1  0  0  0  0  0  0  0  0  0
  187.1600  177.3160  142.8770 C   0  0  0  0  0  0  0  0  0  0  0  0
  184.3160  177.0670  138.9780 S   0  0  0  0  0  0  0  0  0  0  0  0
  182.8980  178.1410  138.8570 N   0  0  0  0  0  0  0  0  0  0  0  0
  184.4920  179.3630  140.1630 C   0  0  0  0  0  3  0  0  0  0  0  0
  183.2120  179.3160  139.5660 N   0  0  0  0  0  0  0  0  0  0  0  0
  185.1900  178.2650  139.9710 C   0  0  2  0  0  3  0  0  0  0  0  0
  182.7340  178.5300  137.4610 C   0  0  0  0  0  2  0  0  0  0  0  0
  181.2740  178.8240  137.1380 C   0  0  1  0  0  3  0  0  0  0  0  0
  181.1720  180.0320  136.2180 C   0  0  0  0  0  1  0  0  0  0  0  0
  180.6740  177.6160  136.4440 C   0  0  0  0  0  2  0  0  0  0  0  0
  181.6920  176.9590  135.6320 N   0  0  0  0  0  0  0  0  0  0  0  0
  181.6390  174.9630  136.9080 C   0  0  0  0  0  1  0  0  0  0  0  0
  182.0760  175.6010  135.8330 C   0  0  0  0  0  0  0  0  0  0  0  0
  182.8520  174.8550  134.7860 C   0  0  0  0  0  2  0  0  0  0  0  0
  184.7400  173.5430  136.0020 C   0  0  0  0  0  1  0  0  0  0  0  0
  184.2950  174.6940  135.1670 C   0  0  0  0  0  0  0  0  0  0  0  0
  185.2100  175.4860  134.6210 C   0  0  0  0  0  2  0  0  0  0  0  0
  188.6750  177.2670  139.4210 C   0  0  0  0  0  3  0  0  0  0  0  0
  188.9360  178.7540  137.7660 C   0  0  0  0  0  3  0  0  0  0  0  0
  189.4650  177.6110  138.3560 C   0  0  0  0  0  0  0  0  0  0  0  0
  187.7030  178.1880  139.5510 N   0  0  0  0  0  0  0  0  0  0  0  0
  187.8420  179.0900  138.5480 C   0  0  0  0  0  3  0  0  0  0  0  0
  190.4470  176.7180  137.8090 N   0  0  0  0  0  0  0  0  0  0  0  0
  190.4990  176.0950  136.6570 C   0  0  0  0  0  0  0  0  0  0  0  0
  193.9510  174.5010  136.9160 N   0  0  0  0  0  0  0  0  0  0  0  0
  196.6290  173.0720  136.9260 C   0  0  0  0  0  0  0  0  0  0  0  0
  197.0610  174.4260  136.7310 N   0  0  0  0  0  0  0  0  0  0  0  0
  193.0050  176.5470  137.6400 F   0  0  0  0  0  0  0  0  0  0  0  0
  192.8130  175.3690  136.9870 C   0  0  2  0  0  3  0  0  0  0  0  0
  198.2510  174.8910  137.4300 C   0  0  0  0  0  1  0  0  0  0  0  0
  191.5910  175.1040  136.4840 C   0  0  0  0  0  0  0  0  0  0  0  0
  193.8230  171.1510  135.3350 C   0  0  0  0  0  3  0  0  0  0  0  0
  195.4180  172.5780  136.3300 N   0  0  0  0  0  0  0  0  0  0  0  0
  193.2430  172.4680  135.7370 C   0  0  0  0  0  0  0  0  0  0  0  0
  194.1570  173.2320  136.2980 C   0  0  0  0  0  0  0  0  0  0  0  0
  191.8230  172.7320  135.5660 C   0  0  0  0  0  3  0  0  0  0  0  0
  195.2610  171.2180  135.8460 C   0  0  0  0  0  3  0  0  0  0  0  0
  197.3550  172.2750  137.5850 O   0  0  0  0  0  0  0  0  0  0  0  0
  191.1470  173.8320  135.8770 C   0  0  0  0  0  3  0  0  0  0  0  0
  196.5720  175.2070  135.6000 C   0  0  0  0  0  2  0  0  0  0  0  0
  197.7250  175.8760  134.8750 C   0  0  0  0  0  1  0  0  0  0  0  0
  189.6520  177.3190  134.8000 O   0  0  0  0  0  0  0  0  0  0  0  0
  189.5240  176.3230  135.5570 C   0  0  0  0  0  0  0  0  0  0  0  0
  188.4160  175.4980  135.3960 O   0  0  0  0  0  1  0  0  0  0  0  0
  186.9110  178.4920  145.0760 C   0  0  0  0  0  2  0  0  0  0  0  0
  182.9110  180.1430  144.6330 O   0  0  0  0  0  0  0  0  0  0  0  0
  184.4880  178.4290  144.3570 N   0  0  0  0  0  2  0  0  0  0  0  0
  185.5130  179.0220  145.1610 C   0  0  0  0  0  0  0  0  0  0  0  0
  183.1950  179.0100  144.1510 C   0  0  0  0  0  0  0  0  0  0  0  0
  185.2650  180.0430  145.8650 O   0  0  0  0  0  0  0  0  0  0  0  0
  182.1550  178.3120  143.3300 C   0  0  0  0  0  2  0  0  0  0  0  0
  180.7930  179.0160  143.2810 C   0  0  0  0  0  2  0  0  0  0  0  0
  180.7340  180.0350  142.3190 O   0  0  0  0  0  0  0  0  0  0  0  0
  179.1420  181.6640  139.5890 S   0  0  0  0  0  0  0  0  0  0  0  0
  179.6470  179.1490  140.3950 C   0  0  0  0  0  2  0  0  0  0  0  0
  178.9310  181.3330  141.3630 C   0  0  0  0  0  2  0  0  0  0  0  0
  179.4840  179.9430  141.6840 C   0  0  2  0  0  3  0  0  0  0  0  0
  178.9380  179.8870  139.2760 C   0  0  0  0  0  2  0  0  0  0  0  0
  189.5420  177.5590  143.7320 C   0  0  0  0  0  2  0  0  0  0  0  0
  191.7090  177.4910  143.7750 O   0  0  0  0  0  1  0  0  0  0  0  0
  190.6630  176.8520  143.2800 O   0  0  0  0  0  0  0  0  0  0  0  0
  1  6  2  0  0  0  0
  2 50  1  1  0  0  0
  3  1  2  0  0  0  0
  5  4  1  6  0  0  0
  5  2  1  0  0  0  0
  6  5  1  0  0  0  0
  6  2  1  0  0  0  0
  7 11  1  0  0  0  0
  8  7  1  0  0  0  0
  8 10  1  0  0  0  0
 10  9  2  0  0  0  0
 11  9  1  0  0  0  0
 11  3  1  6  0  0  0
 12  8  1  0  0  0  0
 13 14  1  6  0  0  0
 13 12  1  0  0  0  0
 15 13  1  0  0  0  0
 16 18  2  0  0  0  0
 16 15  1  0  0  0  0
 18 17  1  0  0  0  0
 19 21  1  0  0  0  0
 19 18  1  0  0  0  0
 21 20  1  0  0  0  0
 22 21  2  0  0  0  0
 23 26  1  0  0  0  0
 24 25  1  0  0  0  0
 24 27  2  0  0  0  0
 25 23  2  0  0  0  0
 26  3  1  0  0  0  0
 27 26  1  0  0  0  0
 28 25  1  0  0  0  0
 29 28  2  0  0  0  0
 30 34  1  0  0  0  0
 31 43  2  0  0  0  0
 32 31  1  0  0  0  0
 32 35  1  0  0  0  0
 34 33  1  1  0  0  0
 36 29  1  0  0  0  0
 36 34  1  0  0  0  0
 37 39  1  0  0  0  0
 37 42  2  0  0  0  0
 38 31  1  0  0  0  0
 39 40  1  0  0  0  0
 40 38  1  0  0  0  0
 40 30  2  0  0  0  0
 41 39  2  0  0  0  0
 41 44  1  0  0  0  0
 42 38  1  0  0  0  0
 44 36  2  0  0  0  0
 45 32  1  0  0  0  0
 46 45  1  0  0  0  0
 47 48  2  0  0  0  0
 48 29  1  0  0  0  0
 49 48  1  0  0  0  0
 50 53  1  0  0  0  0
 52 53  1  0  0  0  0
 53 55  2  0  0  0  0
 54 52  1  0  0  0  0
 54 51  2  0  0  0  0
 56 54  1  0  0  0  0
 57 56  1  0  0  0  0
 58 57  1  0  0  0  0
 59 61  1  0  0  0  0
 60 62  1  0  0  0  0
 61 62  1  0  0  0  0
 62 58  1  6  0  0  0
 63 59  1  0  0  0  0
 63 60  1  0  0  0  0
 64  5  1  0  0  0  0
 66 64  1  0  0  0  0
 66 65  1  0  0  0  0
M  END
>  <MODEL>
6

>  <REMARK>
 VINA RESULT:      -4.4      3.537     13.392
  Name = 
  21 active torsions:
  status: ('A' for Active; 'I' for Inactive)
    1  A    between atoms: C_5  and  C_11
    2  A    between atoms: C_5  and  C_32
    3  A    between atoms: N_8  and  C_26
    4  A    between atoms: O_10  and  C_43
    5  A    between atoms: C_11  and  N_47
    6  A    between atoms: N_12  and  C_41
    7  A    between atoms: C_14  and  C_44
    8  A    between atoms: C_14  and  C_51
    9  A    between atoms: O_18  and  C_38
   10  A    between atoms: O_18  and  C_44
   11  A    between atoms: C_19  and  CA_54
   12  A    between atoms: C_20  and  C_62
   13  A    between atoms: C_20  and  C_65
   14  A    between atoms: C_31  and  C_36
   15  A    between atoms: C_31  and  C_37
   16  A    between atoms: N_34  and  C_62
   17  A    between atoms: N_40  and  C_49
   18  A    between atoms: C_43  and  C_57
   19  A    between atoms: C_45  and  CA_54
   20  A    between atoms: N_47  and  C_65
   21  A    between atoms: C_49  and  C_58
                            x       y       z     vdW  Elec       q    Type
                         _______ _______ _______ _____ _____    ______ ____

>  <TORSDO>
F 21

$$$$
=
 OpenBabel11042412493D

 66 71  0  0  1  0  0  0  0  0999 V2000
  186.4380  177.6070  138.2930 C   0  0  0  0  0  0  0  0  0  0  0  0
  184.8180  177.1580  136.0900 C   0  0  2  0  0  3  0  0  0  0  0  0
  187.0560  177.7740  139.4360 C   0  0  0  0  0  0  0  0  0  0  0  0
  186.5670  178.5680  134.9780 C   0  0  0  0  0  1  0  0  0  0  0  0
  186.1780  177.2420  135.6040 C   0  0  1  0  0  0  0  0  0  0  0  0
  185.9430  177.4260  137.1030 C   0  0  0  0  0  0  0  0  0  0  0  0
  187.1020  178.8940  142.0910 S   0  0  0  0  0  0  0  0  0  0  0  0
  185.5270  179.1110  142.8980 N   0  0  0  0  0  0  0  0  0  0  0  0
  185.0020  178.1940  140.7480 C   0  0  0  0  0  3  0  0  0  0  0  0
  184.5410  178.6720  141.9950 N   0  0  0  0  0  2  0  0  0  0  0  0
  186.3090  178.2570  140.6250 C   0  0  0  0  0  0  0  0  0  0  0  0
  185.4700  178.2110  144.0440 C   0  0  0  0  0  2  0  0  0  0  0  0
  185.2500  178.9820  145.3400 C   0  0  1  0  0  3  0  0  0  0  0  0
  183.7630  179.0610  145.6580 C   0  0  0  0  0  1  0  0  0  0  0  0
  185.9630  178.2590  146.4670 C   0  0  0  0  0  2  0  0  0  0  0  0
  187.3880  178.5620  146.4230 N   0  0  0  0  0  2  0  0  0  0  0  0
  188.7750  176.7970  147.1820 C   0  0  0  0  0  2  0  0  0  0  0  0
  188.3780  177.5660  146.1790 C   0  0  0  0  0  0  0  0  0  0  0  0
  188.8730  177.2940  144.7880 C   0  0  0  0  0  2  0  0  0  0  0  0
  191.1930  176.1840  144.3960 C   0  0  0  0  0  1  0  0  0  0  0  0
  190.3680  177.3880  144.6970 C   0  0  0  0  0  0  0  0  0  0  0  0
  190.9530  178.5800  144.7180 C   0  0  0  0  0  2  0  0  0  0  0  0
  189.1110  176.4810  139.0020 C   0  0  0  0  0  3  0  0  0  0  0  0
  190.6820  177.9970  139.5040 C   0  0  0  0  0  3  0  0  0  0  0  0
  190.4610  176.7060  139.0390 C   0  0  0  0  0  0  0  0  0  0  0  0
  188.4810  177.5690  139.4820 N   0  0  0  0  0  0  0  0  0  0  0  0
  189.4200  178.5000  139.7800 C   0  0  0  0  0  3  0  0  0  0  0  0
  191.4020  175.8390  138.3850 N   0  0  0  0  0  0  0  0  0  0  0  0
  191.2330  174.9210  137.4660 C   0  0  0  0  0  0  0  0  0  0  0  0
  194.8370  173.6830  137.4290 N   0  0  0  0  0  0  0  0  0  0  0  0
  197.6460  172.5600  137.1840 C   0  0  0  0  0  0  0  0  0  0  0  0
  197.9300  173.9660  137.1770 N   0  0  0  0  0  0  0  0  0  0  0  0
  193.7110  175.4950  138.4550 F   0  0  0  0  0  0  0  0  0  0  0  0
  193.6190  174.4070  137.6440 C   0  0  2  0  0  3  0  0  0  0  0  0
  199.0890  174.4520  137.9120 C   0  0  0  0  0  1  0  0  0  0  0  0
  192.4140  174.0860  137.1310 C   0  0  0  0  0  0  0  0  0  0  0  0
  195.0000  170.5930  135.3870 C   0  0  0  0  0  3  0  0  0  0  0  0
  196.4730  172.0280  136.5470 N   0  0  0  0  0  0  0  0  0  0  0  0
  194.3020  171.7720  135.9850 C   0  0  0  0  0  0  0  0  0  0  0  0
  195.1510  172.5420  136.6320 C   0  0  0  0  0  0  0  0  0  0  0  0
  192.8570  171.9040  135.8800 C   0  0  0  0  0  3  0  0  0  0  0  0
  196.4400  170.7410  135.8770 C   0  0  0  0  0  3  0  0  0  0  0  0
  198.4720  171.7600  137.7090 O   0  0  0  0  0  0  0  0  0  0  0  0
  192.0820  172.8710  136.3570 C   0  0  0  0  0  3  0  0  0  0  0  0
  197.3260  174.8410  136.1780 C   0  0  0  0  0  2  0  0  0  0  0  0
  198.3610  175.2850  135.1610 C   0  0  0  0  0  1  0  0  0  0  0  0
  189.0200  174.0500  137.3660 O   0  0  0  0  0  1  0  0  0  0  0  0
  189.9360  174.6790  136.7770 C   0  0  0  0  0  0  0  0  0  0  0  0
  189.7410  175.0650  135.4550 O   0  0  0  0  0  0  0  0  0  0  0  0
  184.2460  175.7600  136.3130 C   0  0  0  0  0  2  0  0  0  0  0  0
  180.4010  176.0770  138.3220 O   0  0  0  0  0  0  0  0  0  0  0  0
  181.8650  175.0600  136.8000 N   0  0  0  0  0  2  0  0  0  0  0  0
  183.0370  175.7790  137.1980 C   0  0  0  0  0  0  0  0  0  0  0  0
  180.5810  175.2190  137.4140 C   0  0  0  0  0  0  0  0  0  0  0  0
  183.0240  176.5010  138.2360 O   0  0  0  0  0  0  0  0  0  0  0  0
  179.4070  174.4000  136.9730 C   0  0  0  0  0  2  0  0  0  0  0  0
  179.7320  173.3090  135.9450 C   0  0  0  0  0  2  0  0  0  0  0  0
  180.7060  172.4030  136.3920 O   0  0  0  0  0  0  0  0  0  0  0  0
  183.2950  170.0430  135.7890 S   0  0  0  0  0  0  0  0  0  0  0  0
  180.8370  170.5950  134.8480 C   0  0  0  0  0  2  0  0  0  0  0  0
  182.8990  171.8020  135.5670 C   0  0  0  0  0  2  0  0  0  0  0  0
  181.4060  171.9460  135.2630 C   0  0  2  0  0  3  0  0  0  0  0  0
  181.9870  169.6400  134.5950 C   0  0  0  0  0  2  0  0  0  0  0  0
  187.1620  176.0840  135.3200 C   0  0  0  0  0  2  0  0  0  0  0  0
  187.4250  174.0110  134.7400 O   0  0  0  0  0  1  0  0  0  0  0  0
  186.6160  174.7990  135.4280 O   0  0  0  0  0  0  0  0  0  0  0  0
  1  3  2  0  0  0  0
  2 50  1  1  0  0  0
  2  6  1  0  0  0  0
  3 26  1  0  0  0  0
  3 11  1  0  0  0  0
  5  4  1  6  0  0  0
  5  2  1  0  0  0  0
  5  6  1  0  0  0  0
  6  1  2  0  0  0  0
  7  8  1  0  0  0  0
  8 12  1  0  0  0  0
  9 10  1  0  0  0  0
 10  8  1  0  0  0  0
 11  9  2  0  0  0  0
 11  7  1  0  0  0  0
 12 13  1  0  0  0  0
 13 14  1  1  0  0  0
 13 15  1  0  0  0  0
 16 15  1  0  0  0  0
 18 16  1  0  0  0  0
 18 17  2  0  0  0  0
 19 18  1  0  0  0  0
 20 21  1  0  0  0  0
 21 22  2  0  0  0  0
 21 19  1  0  0  0  0
 23 25  2  0  0  0  0
 23 26  1  0  0  0  0
 24 27  2  0  0  0  0
 25 24  1  0  0  0  0
 26 27  1  0  0  0  0
 28 25  1  0  0  0  0
 29 28  2  0  0  0  0
 30 34  1  0  0  0  0
 31 43  2  0  0  0  0
 32 31  1  0  0  0  0
 32 35  1  0  0  0  0
 34 33  1  1  0  0  0
 36 29  1  0  0  0  0
 36 34  1  0  0  0  0
 37 42  2  0  0  0  0
 37 39  1  0  0  0  0
 38 40  1  0  0  0  0
 38 31  1  0  0  0  0
 39 40  1  0  0  0  0
 40 30  2  0  0  0  0
 41 39  2  0  0  0  0
 41 44  1  0  0  0  0
 42 38  1  0  0  0  0
 44 36  2  0  0  0  0
 45 32  1  0  0  0  0
 46 45  1  0  0  0  0
 48 47  1  0  0  0  0
 48 29  1  0  0  0  0
 49 48  2  0  0  0  0
 50 53  1  0  0  0  0
 52 53  1  0  0  0  0
 52 54  1  0  0  0  0
 53 55  2  0  0  0  0
 54 51  2  0  0  0  0
 56 54  1  0  0  0  0
 57 58  1  0  0  0  0
 57 56  1  0  0  0  0
 60 62  1  0  0  0  0
 61 59  1  0  0  0  0
 62 61  1  0  0  0  0
 62 58  1  1  0  0  0
 63 60  1  0  0  0  0
 63 59  1  0  0  0  0
 64 66  1  0  0  0  0
 64  5  1  0  0  0  0
 65 66  1  0  0  0  0
M  END
>  <MODEL>
7

>  <REMARK>
 VINA RESULT:      -4.3      3.664     11.752
  Name = 
  21 active torsions:
  status: ('A' for Active; 'I' for Inactive)
    1  A    between atoms: C_5  and  C_11
    2  A    between atoms: C_5  and  C_32
    3  A    between atoms: N_8  and  C_26
    4  A    between atoms: O_10  and  C_43
    5  A    between atoms: C_11  and  N_47
    6  A    between atoms: N_12  and  C_41
    7  A    between atoms: C_14  and  C_44
    8  A    between atoms: C_14  and  C_51
    9  A    between atoms: O_18  and  C_38
   10  A    between atoms: O_18  and  C_44
   11  A    between atoms: C_19  and  CA_54
   12  A    between atoms: C_20  and  C_62
   13  A    between atoms: C_20  and  C_65
   14  A    between atoms: C_31  and  C_36
   15  A    between atoms: C_31  and  C_37
   16  A    between atoms: N_34  and  C_62
   17  A    between atoms: N_40  and  C_49
   18  A    between atoms: C_43  and  C_57
   19  A    between atoms: C_45  and  CA_54
   20  A    between atoms: N_47  and  C_65
   21  A    between atoms: C_49  and  C_58
                            x       y       z     vdW  Elec       q    Type
                         _______ _______ _______ _____ _____    ______ ____

>  <TORSDO>
F 21

$$$$
=
 OpenBabel11042412493D

 66 71  0  0  1  0  0  0  0  0999 V2000
  187.5960  177.6530  141.1230 C   0  0  0  0  0  0  0  0  0  0  0  0
  188.2930  176.9990  143.7230 C   0  0  2  0  0  3  0  0  0  0  0  0
  187.1260  178.0590  139.9690 C   0  0  0  0  0  0  0  0  0  0  0  0
  189.5210  175.1620  142.5410 C   0  0  0  0  0  1  0  0  0  0  0  0
  189.4120  176.6350  142.8820 C   0  0  1  0  0  0  0  0  0  0  0  0
  188.1770  177.2330  142.2090 C   0  0  0  0  0  0  0  0  0  0  0  0
  184.7420  177.5690  138.4260 S   0  0  0  0  0  0  0  0  0  0  0  0
  183.2460  178.3630  138.9850 N   0  0  0  0  0  0  0  0  0  0  0  0
  184.9270  179.0260  140.5590 C   0  0  0  0  0  3  0  0  0  0  0  0
  183.5780  179.0910  140.1430 N   0  0  0  0  0  2  0  0  0  0  0  0
  185.6670  178.2610  139.7870 C   0  0  0  0  0  0  0  0  0  0  0  0
  182.8430  179.3410  137.9820 C   0  0  0  0  0  2  0  0  0  0  0  0
  181.4820  178.9950  137.3900 C   0  0  1  0  0  3  0  0  0  0  0  0
  180.6230  180.2470  137.2780 C   0  0  0  0  0  1  0  0  0  0  0  0
  181.6850  178.4040  136.0080 C   0  0  0  0  0  2  0  0  0  0  0  0
  182.2160  177.0520  136.1240 N   0  0  0  0  0  2  0  0  0  0  0  0
  180.2870  176.0520  135.1750 C   0  0  0  0  0  2  0  0  0  0  0  0
  181.4530  175.8960  135.7850 C   0  0  0  0  0  0  0  0  0  0  0  0
  182.0080  174.5160  135.9920 C   0  0  0  0  0  2  0  0  0  0  0  0
  184.4090  174.5350  136.9930 C   0  0  0  0  0  1  0  0  0  0  0  0
  183.4980  174.4800  135.8150 C   0  0  0  0  0  0  0  0  0  0  0  0
  184.0100  174.2280  134.6160 C   0  0  0  0  0  2  0  0  0  0  0  0
  189.2300  177.5790  138.7760 C   0  0  0  0  0  3  0  0  0  0  0  0
  188.8280  178.5480  136.7970 C   0  0  0  0  0  3  0  0  0  0  0  0
  189.7460  177.8030  137.5270 C   0  0  0  0  0  0  0  0  0  0  0  0
  188.0440  178.2080  138.8700 N   0  0  0  0  0  0  0  0  0  0  0  0
  187.7820  178.7900  137.6740 C   0  0  0  0  0  3  0  0  0  0  0  0
  190.8850  177.0830  137.0270 N   0  0  0  0  0  0  0  0  0  0  0  0
  190.9680  175.9730  136.3370 C   0  0  0  0  0  0  0  0  0  0  0  0
  193.8440  173.4730  136.3480 N   0  0  0  0  0  0  0  0  0  0  0  0
  196.2970  171.6860  136.3240 C   0  0  0  0  0  0  0  0  0  0  0  0
  195.7260  171.3210  137.5890 N   0  0  0  0  0  0  0  0  0  0  0  0
  191.5900  173.4200  137.0710 F   0  0  0  0  0  0  0  0  0  0  0  0
  192.5900  174.1490  136.5070 C   0  0  2  0  0  3  0  0  0  0  0  0
  195.7410  169.9220  137.9890 C   0  0  0  0  0  1  0  0  0  0  0  0
  192.3280  175.4160  136.1290 C   0  0  0  0  0  0  0  0  0  0  0  0
  196.7880  175.0570  134.7470 C   0  0  0  0  0  3  0  0  0  0  0  0
  196.2400  173.0360  135.8370 N   0  0  0  0  0  0  0  0  0  0  0  0
  195.3840  175.0430  135.2590 C   0  0  0  0  0  0  0  0  0  0  0  0
  195.1110  173.8990  135.8500 C   0  0  0  0  0  0  0  0  0  0  0  0
  194.4950  176.1660  135.0040 C   0  0  0  0  0  3  0  0  0  0  0  0
  197.2990  173.6510  135.0570 C   0  0  0  0  0  3  0  0  0  0  0  0
  196.9170  170.8180  135.6470 O   0  0  0  0  0  0  0  0  0  0  0  0
  193.2280  176.3130  135.3730 C   0  0  0  0  0  3  0  0  0  0  0  0
  195.4790  172.3320  138.6120 C   0  0  0  0  0  2  0  0  0  0  0  0
  196.5730  173.3830  138.5990 C   0  0  0  0  0  1  0  0  0  0  0  0
  189.0970  175.7930  134.8760 O   0  0  0  0  0  0  0  0  0  0  0  0
  189.7840  175.2610  135.7850 C   0  0  0  0  0  0  0  0  0  0  0  0
  189.3670  174.0430  136.3130 O   0  0  0  0  0  1  0  0  0  0  0  0
  188.3770  178.3410  144.4480 C   0  0  0  0  0  2  0  0  0  0  0  0
  185.1530  179.1910  147.2410 O   0  0  0  0  0  0  0  0  0  0  0  0
  185.9720  178.3110  145.2290 N   0  0  0  0  0  2  0  0  0  0  0  0
  187.3610  178.4550  145.5430 C   0  0  0  0  0  0  0  0  0  0  0  0
  184.9080  178.6610  146.1220 C   0  0  0  0  0  0  0  0  0  0  0  0
  187.7240  178.7690  146.7130 O   0  0  0  0  0  0  0  0  0  0  0  0
  183.4760  178.4440  145.7420 C   0  0  0  0  0  2  0  0  0  0  0  0
  183.1210  178.8560  144.3070 C   0  0  0  0  0  2  0  0  0  0  0  0
  181.7400  178.8610  144.0600 O   0  0  0  0  0  0  0  0  0  0  0  0
  179.5250  177.5620  141.6010 S   0  0  0  0  0  0  0  0  0  0  0  0
  180.3780  179.9660  142.4510 C   0  0  0  0  0  2  0  0  0  0  0  0
  181.2950  177.6930  141.9890 C   0  0  0  0  0  2  0  0  0  0  0  0
  181.5600  179.0340  142.6780 C   0  0  2  0  0  3  0  0  0  0  0  0
  179.4810  179.3650  141.3870 C   0  0  0  0  0  2  0  0  0  0  0  0
  190.6830  177.4610  142.5760 C   0  0  0  0  0  2  0  0  0  0  0  0
  192.0120  178.5020  143.9380 O   0  0  0  0  0  1  0  0  0  0  0  0
  191.7370  177.2920  143.4840 O   0  0  0  0  0  0  0  0  0  0  0  0
  1  6  2  0  0  0  0
  2 50  1  1  0  0  0
  3  1  2  0  0  0  0
  5  4  1  6  0  0  0
  5  2  1  0  0  0  0
  6  5  1  0  0  0  0
  6  2  1  0  0  0  0
  7  8  1  0  0  0  0
  7 11  1  0  0  0  0
  8 10  1  0  0  0  0
 10  9  1  0  0  0  0
 11  3  1  0  0  0  0
 11  9  2  0  0  0  0
 12  8  1  0  0  0  0
 13 14  1  6  0  0  0
 13 12  1  0  0  0  0
 15 16  1  0  0  0  0
 15 13  1  0  0  0  0
 17 18  2  0  0  0  0
 18 19  1  0  0  0  0
 18 16  1  0  0  0  0
 21 19  1  0  0  0  0
 21 20  1  0  0  0  0
 22 21  2  0  0  0  0
 23 26  1  0  0  0  0
 24 25  1  0  0  0  0
 24 27  2  0  0  0  0
 25 23  2  0  0  0  0
 26  3  1  0  0  0  0
 27 26  1  0  0  0  0
 28 25  1  0  0  0  0
 29 28  2  0  0  0  0
 30 34  1  0  0  0  0
 31 32  1  0  0  0  0
 32 35  1  0  0  0  0
 32 45  1  0  0  0  0
 34 33  1  6  0  0  0
 36 29  1  0  0  0  0
 36 34  1  0  0  0  0
 37 42  2  0  0  0  0
 37 39  1  0  0  0  0
 38 40  1  0  0  0  0
 38 31  1  0  0  0  0
 39 40  1  0  0  0  0
 40 30  2  0  0  0  0
 41 39  2  0  0  0  0
 41 44  1  0  0  0  0
 42 38  1  0  0  0  0
 43 31  2  0  0  0  0
 44 36  2  0  0  0  0
 46 45  1  0  0  0  0
 47 48  2  0  0  0  0
 48 49  1  0  0  0  0
 48 29  1  0  0  0  0
 50 53  1  0  0  0  0
 52 53  1  0  0  0  0
 52 54  1  0  0  0  0
 53 55  2  0  0  0  0
 54 51  2  0  0  0  0
 56 54  1  0  0  0  0
 57 56  1  0  0  0  0
 58 57  1  0  0  0  0
 59 61  1  0  0  0  0
 60 62  1  0  0  0  0
 61 62  1  0  0  0  0
 62 58  1  1  0  0  0
 63 59  1  0  0  0  0
 63 60  1  0  0  0  0
 64  5  1  0  0  0  0
 64 66  1  0  0  0  0
 66 65  1  0  0  0  0
M  END
>  <MODEL>
8

>  <REMARK>
 VINA RESULT:      -4.1      3.672     13.090
  Name = 
  21 active torsions:
  status: ('A' for Active; 'I' for Inactive)
    1  A    between atoms: C_5  and  C_11
    2  A    between atoms: C_5  and  C_32
    3  A    between atoms: N_8  and  C_26
    4  A    between atoms: O_10  and  C_43
    5  A    between atoms: C_11  and  N_47
    6  A    between atoms: N_12  and  C_41
    7  A    between atoms: C_14  and  C_44
    8  A    between atoms: C_14  and  C_51
    9  A    between atoms: O_18  and  C_38
   10  A    between atoms: O_18  and  C_44
   11  A    between atoms: C_19  and  CA_54
   12  A    between atoms: C_20  and  C_62
   13  A    between atoms: C_20  and  C_65
   14  A    between atoms: C_31  and  C_36
   15  A    between atoms: C_31  and  C_37
   16  A    between atoms: N_34  and  C_62
   17  A    between atoms: N_40  and  C_49
   18  A    between atoms: C_43  and  C_57
   19  A    between atoms: C_45  and  CA_54
   20  A    between atoms: N_47  and  C_65
   21  A    between atoms: C_49  and  C_58
                            x       y       z     vdW  Elec       q    Type
                         _______ _______ _______ _____ _____    ______ ____

>  <TORSDO>
F 21

$$$$
=
 OpenBabel11042412493D

 66 71  0  0  1  0  0  0  0  0999 V2000
  186.0830  177.9620  141.3180 C   0  0  0  0  0  0  0  0  0  0  0  0
  186.2040  177.6530  144.0680 C   0  0  2  0  0  3  0  0  0  0  0  0
  185.8700  178.2060  140.0480 C   0  0  0  0  0  0  0  0  0  0  0  0
  187.6930  175.7440  143.4190 C   0  0  0  0  0  1  0  0  0  0  0  0
  187.4870  177.2420  143.5400 C   0  0  1  0  0  0  0  0  0  0  0  0
  186.4190  177.7000  142.5470 C   0  0  0  0  0  0  0  0  0  0  0  0
  183.9660  177.6670  137.9530 S   0  0  0  0  0  0  0  0  0  0  0  0
  182.3200  178.3130  138.1780 N   0  0  0  0  0  0  0  0  0  0  0  0
  183.5220  178.9750  140.1430 C   0  0  0  0  0  3  0  0  0  0  0  0
  182.3080  178.9770  139.4190 N   0  0  0  0  0  0  0  0  0  0  0  0
  184.4840  178.3200  139.5310 C   0  0  2  0  0  3  0  0  0  0  0  0
  182.0830  179.3310  137.1610 C   0  0  0  0  0  2  0  0  0  0  0  0
  180.8140  179.0360  136.3710 C   0  0  1  0  0  3  0  0  0  0  0  0
  181.0870  179.1500  134.8770 C   0  0  0  0  0  1  0  0  0  0  0  0
  180.3580  177.6240  136.6870 C   0  0  0  0  0  2  0  0  0  0  0  0
  180.2630  176.8500  135.4560 N   0  0  0  0  0  2  0  0  0  0  0  0
  179.3430  174.7620  136.0980 C   0  0  0  0  0  2  0  0  0  0  0  0
  180.2840  175.4240  135.4420 C   0  0  0  0  0  0  0  0  0  0  0  0
  181.2710  174.6750  134.5940 C   0  0  0  0  0  2  0  0  0  0  0  0
  182.5440  173.8580  136.7100 C   0  0  0  0  0  1  0  0  0  0  0  0
  182.5540  174.4130  135.3270 C   0  0  0  0  0  0  0  0  0  0  0  0
  183.7110  174.5160  134.6830 C   0  0  0  0  0  2  0  0  0  0  0  0
  188.0190  177.3800  139.1630 C   0  0  0  0  0  3  0  0  0  0  0  0
  188.2520  178.6640  137.3420 C   0  0  0  0  0  3  0  0  0  0  0  0
  188.8160  177.6270  138.0770 C   0  0  0  0  0  0  0  0  0  0  0  0
  187.0050  178.2640  139.1620 N   0  0  0  0  0  0  0  0  0  0  0  0
  187.1270  179.0420  138.0580 C   0  0  0  0  0  3  0  0  0  0  0  0
  189.8490  176.7200  137.6600 N   0  0  0  0  0  0  0  0  0  0  0  0
  190.1990  176.3010  136.4700 C   0  0  0  0  0  0  0  0  0  0  0  0
  193.4720  174.4420  137.0660 N   0  0  0  0  0  0  0  0  0  0  0  0
  196.0110  172.8030  137.3420 C   0  0  0  0  0  0  0  0  0  0  0  0
  196.5690  174.1110  137.1560 N   0  0  0  0  0  0  0  0  0  0  0  0
  192.6400  176.5780  137.6580 F   0  0  0  0  0  0  0  0  0  0  0  0
  192.4080  175.4010  137.0170 C   0  0  2  0  0  3  0  0  0  0  0  0
  197.7290  174.4990  137.9460 C   0  0  0  0  0  1  0  0  0  0  0  0
  191.2150  175.2200  136.4140 C   0  0  0  0  0  0  0  0  0  0  0  0
  193.2030  171.0680  135.5540 C   0  0  0  0  0  3  0  0  0  0  0  0
  194.8200  172.3910  136.6540 N   0  0  0  0  0  0  0  0  0  0  0  0
  192.7020  172.4390  135.8750 C   0  0  0  0  0  0  0  0  0  0  0  0
  193.6240  173.1430  136.4970 C   0  0  0  0  0  0  0  0  0  0  0  0
  191.3280  172.8110  135.5740 C   0  0  0  0  0  3  0  0  0  0  0  0
  194.5930  171.0350  136.1890 C   0  0  0  0  0  3  0  0  0  0  0  0
  196.6100  171.9700  138.0800 O   0  0  0  0  0  0  0  0  0  0  0  0
  190.7210  173.9710  135.8000 C   0  0  0  0  0  3  0  0  0  0  0  0
  196.2460  174.8960  135.9690 C   0  0  0  0  0  2  0  0  0  0  0  0
  197.4690  175.0590  135.0880 C   0  0  0  0  0  1  0  0  0  0  0  0
  190.1380  177.8430  134.6570 O   0  0  0  0  0  0  0  0  0  0  0  0
  189.6200  176.8380  135.2080 C   0  0  0  0  0  0  0  0  0  0  0  0
  188.4580  176.2990  134.6640 O   0  0  0  0  0  1  0  0  0  0  0  0
  186.1030  179.0740  144.6190 C   0  0  0  0  0  2  0  0  0  0  0  0
  186.6280  178.5010  148.8990 O   0  0  0  0  0  0  0  0  0  0  0  0
  187.4660  178.7460  146.7230 N   0  0  0  0  0  2  0  0  0  0  0  0
  186.2240  179.1110  146.1110 C   0  0  0  0  0  0  0  0  0  0  0  0
  187.6230  178.4850  148.1230 C   0  0  0  0  0  0  0  0  0  0  0  0
  185.2120  179.3690  146.8230 O   0  0  0  0  0  0  0  0  0  0  0  0
  188.9630  178.1490  148.7010 C   0  0  0  0  0  2  0  0  0  0  0  0
  189.7450  177.0740  147.9330 C   0  0  0  0  0  2  0  0  0  0  0  0
  190.1970  177.5110  146.6790 O   0  0  0  0  0  0  0  0  0  0  0  0
  192.2040  174.8040  147.8140 S   0  0  0  0  0  0  0  0  0  0  0  0
  191.6830  176.0730  145.5000 C   0  0  0  0  0  2  0  0  0  0  0  0
  192.0810  176.6150  147.9020 C   0  0  0  0  0  2  0  0  0  0  0  0
  191.5500  177.1480  146.5700 C   0  0  2  0  0  3  0  0  0  0  0  0
  192.5570  174.9560  146.0390 C   0  0  0  0  0  2  0  0  0  0  0  0
  188.7790  178.0810  143.4140 C   0  0  0  0  0  2  0  0  0  0  0  0
  190.1520  178.2800  141.7480 O   0  0  0  0  0  1  0  0  0  0  0  0
  189.8300  177.4580  142.7310 O   0  0  0  0  0  0  0  0  0  0  0  0
  1  6  2  0  0  0  0
  2 50  1  1  0  0  0
  3  1  2  0  0  0  0
  5  4  1  1  0  0  0
  5  2  1  0  0  0  0
  6  5  1  0  0  0  0
  6  2  1  0  0  0  0
  7  8  1  0  0  0  0
  7 11  1  0  0  0  0
  8 10  1  0  0  0  0
 10  9  2  0  0  0  0
 11  3  1  6  0  0  0
 11  9  1  0  0  0  0
 12  8  1  0  0  0  0
 13 14  1  6  0  0  0
 13 15  1  0  0  0  0
 13 12  1  0  0  0  0
 16 15  1  0  0  0  0
 18 16  1  0  0  0  0
 18 17  2  0  0  0  0
 19 21  1  0  0  0  0
 19 18  1  0  0  0  0
 21 20  1  0  0  0  0
 22 21  2  0  0  0  0
 24 27  2  0  0  0  0
 24 25  1  0  0  0  0
 25 23  2  0  0  0  0
 26 23  1  0  0  0  0
 26  3  1  0  0  0  0
 27 26  1  0  0  0  0
 28 25  1  0  0  0  0
 29 28  2  0  0  0  0
 31 43  2  0  0  0  0
 32 31  1  0  0  0  0
 32 35  1  0  0  0  0
 34 30  1  0  0  0  0
 34 33  1  1  0  0  0
 36 29  1  0  0  0  0
 36 34  1  0  0  0  0
 37 39  1  0  0  0  0
 37 42  2  0  0  0  0
 38 31  1  0  0  0  0
 39 40  1  0  0  0  0
 40 38  1  0  0  0  0
 40 30  2  0  0  0  0
 41 44  1  0  0  0  0
 41 39  2  0  0  0  0
 42 38  1  0  0  0  0
 44 36  2  0  0  0  0
 45 32  1  0  0  0  0
 46 45  1  0  0  0  0
 47 48  2  0  0  0  0
 48 29  1  0  0  0  0
 49 48  1  0  0  0  0
 50 53  1  0  0  0  0
 52 54  1  0  0  0  0
 53 52  1  0  0  0  0
 53 55  2  0  0  0  0
 54 56  1  0  0  0  0
 54 51  2  0  0  0  0
 57 56  1  0  0  0  0
 58 57  1  0  0  0  0
 59 61  1  0  0  0  0
 60 63  1  0  0  0  0
 60 62  1  0  0  0  0
 62 58  1  1  0  0  0
 62 61  1  0  0  0  0
 63 59  1  0  0  0  0
 64  5  1  0  0  0  0
 65 66  1  0  0  0  0
 66 64  1  0  0  0  0
M  END
>  <MODEL>
9

>  <REMARK>
 VINA RESULT:      -3.6      3.681     12.479
  Name = 
  21 active torsions:
  status: ('A' for Active; 'I' for Inactive)
    1  A    between atoms: C_5  and  C_11
    2  A    between atoms: C_5  and  C_32
    3  A    between atoms: N_8  and  C_26
    4  A    between atoms: O_10  and  C_43
    5  A    between atoms: C_11  and  N_47
    6  A    between atoms: N_12  and  C_41
    7  A    between atoms: C_14  and  C_44
    8  A    between atoms: C_14  and  C_51
    9  A    between atoms: O_18  and  C_38
   10  A    between atoms: O_18  and  C_44
   11  A    between atoms: C_19  and  CA_54
   12  A    between atoms: C_20  and  C_62
   13  A    between atoms: C_20  and  C_65
   14  A    between atoms: C_31  and  C_36
   15  A    between atoms: C_31  and  C_37
   16  A    between atoms: N_34  and  C_62
   17  A    between atoms: N_40  and  C_49
   18  A    between atoms: C_43  and  C_57
   19  A    between atoms: C_45  and  CA_54
   20  A    between atoms: N_47  and  C_65
   21  A    between atoms: C_49  and  C_58
                            x       y       z     vdW  Elec       q    Type
                         _______ _______ _______ _____ _____    ______ ____

>  <TORSDO>
F 21

$$$$
