=
 OpenBabel11042412473D

 59 67  0  0  1  0  0  0  0  0999 V2000
  189.4920  177.7320  140.1000 C   0  0  0  0  0  2  0  0  0  0  0  0
  183.4280  179.3090  141.7770 C   0  0  0  0  0  0  0  0  0  0  0  0
  180.2990  175.8210  135.4740 C   0  0  0  0  0  0  0  0  0  0  0  0
  184.9060  178.1500  143.9250 N   0  0  0  0  0  0  0  0  0  0  0  0
  181.0190  174.5190  135.4540 C   0  0  0  0  0  0  0  0  0  0  0  0
  183.8190  175.3040  137.8440 C   0  0  0  0  0  2  0  0  0  0  0  0
  182.9010  176.9470  139.5510 C   0  0  0  0  0  2  0  0  0  0  0  0
  182.3940  172.0970  135.4270 C   0  0  0  0  0  0  0  0  0  0  0  0
  182.9180  173.1980  136.1160 C   0  0  0  0  0  3  0  0  0  0  0  0
  182.2390  174.4250  136.1400 C   0  0  0  0  0  0  0  0  0  0  0  0
  182.9240  179.4570  143.1600 C   0  0  0  0  0  0  0  0  0  0  0  0
  187.2950  177.9160  141.2500 C   0  0  1  0  0  3  0  0  0  0  0  0
  183.2090  178.7690  145.4450 N   0  0  0  0  0  2  0  0  0  0  0  0
  186.6040  177.5610  142.4460 O   0  0  0  0  0  0  0  0  0  0  0  0
  182.6800  179.9900  140.6720 C   0  0  0  0  0  1  0  0  0  0  0  0
  187.8640  176.2550  136.8830 C   0  0  1  0  0  3  0  0  0  0  0  0
  187.0140  177.3030  136.4450 O   0  0  0  0  0  0  0  0  0  0  0  0
  182.1140  176.8950  136.8270 C   0  0  1  0  0  3  0  0  0  0  0  0
  184.1260  178.2810  137.8530 C   0  0  0  0  0  0  0  0  0  0  0  0
  184.0090  177.8730  139.1420 C   0  0  0  0  0  0  0  0  0  0  0  0
  184.5490  178.5750  141.5510 C   0  0  0  0  0  0  0  0  0  0  0  0
  188.0010  176.4930  138.3980 C   0  0  1  0  0  3  0  0  0  0  0  0
  183.0880  178.0810  136.7640 C   0  0  0  0  0  2  0  0  0  0  0  0
  183.2820  175.4910  139.2650 C   0  0  0  0  0  2  0  0  0  0  0  0
  187.1940  174.9180  136.6320 C   0  0  0  0  0  1  0  0  0  0  0  0
  183.6540  178.7690  144.2320 C   0  0  0  0  0  0  0  0  0  0  0  0
  185.3450  178.0850  142.7020 C   0  0  0  0  0  0  0  0  0  0  0  0
  188.5990  177.1140  141.1540 C   0  0  2  0  0  3  0  0  0  0  0  0
  186.3670  177.8480  140.0250 C   0  0  2  0  0  3  0  0  0  0  0  0
  189.3520  177.1320  142.4720 C   0  0  0  0  0  1  0  0  0  0  0  0
  189.4330  176.9490  138.7960 C   0  0  1  0  0  3  0  0  0  0  0  0
  186.4700  177.9680  137.5250 C   0  0  0  0  0  0  0  0  0  0  0  0
  181.1800  172.2550  134.7470 C   0  0  0  0  0  3  0  0  0  0  0  0
  178.9840  175.8130  136.2170 C   0  0  0  0  0  2  0  0  0  0  0  0
  186.9420  177.5230  138.6760 C   0  0  0  0  0  0  0  0  0  0  0  0
  181.1310  177.0670  135.6640 C   0  0  0  0  0  2  0  0  0  0  0  0
  180.5230  173.4450  134.7790 N   0  0  0  0  0  0  0  0  0  0  0  0
  185.3700  178.9600  137.4050 C   0  0  0  0  0  2  0  0  0  0  0  0
  185.0420  178.1750  140.1880 C   0  0  1  0  0  3  0  0  0  0  0  0
  179.0100  175.9620  134.6960 C   0  0  0  0  0  2  0  0  0  0  0  0
  182.7860  175.5690  136.8410 N   0  0  0  0  0  0  0  0  0  0  0  0
  181.8910  180.1350  143.4090 O   0  0  0  0  0  0  0  0  0  0  0  0
  183.8280  170.5450  136.5570 O   0  0  0  0  0  1  0  0  0  0  0  0
  183.1230  170.7820  135.3750 C   0  0  1  0  0  3  0  0  0  0  0  0
  182.1570  169.6330  135.1260 C   0  0  0  0  0  1  0  0  0  0  0  0
  190.1870  177.7390  137.7290 C   0  0  0  0  0  2  0  0  0  0  0  0
  190.7280  176.8230  136.7250 N   0  0  0  0  0  2  0  0  0  0  0  0
  191.2710  174.8410  137.8720 O   0  0  0  0  0  1  0  0  0  0  0  0
  191.7990  175.9990  137.2860 C   0  0  2  0  0  0  0  0  0  0  0  0
  192.4850  176.8200  138.3640 C   0  0  0  0  0  1  0  0  0  0  0  0
  192.8110  175.6460  136.1860 C   0  0  0  0  0  2  0  0  0  0  0  0
  194.2550  176.0160  136.5190 C   0  0  0  0  0  2  0  0  0  0  0  0
  194.7590  177.0110  135.5820 N   0  0  0  0  0  2  0  0  0  0  0  0
  196.0090  176.5130  135.0170 C   0  0  0  0  0  2  0  0  0  0  0  0
  196.8410  175.9200  136.0600 N   0  0  0  0  0  2  0  0  0  0  0  0
  197.9480  175.2290  135.4100 C   0  0  0  0  0  2  0  0  0  0  0  0
  197.4530  173.9330  134.7850 C   0  0  0  0  0  2  0  0  0  0  0  0
  196.8450  173.0330  135.8430 C   0  0  0  0  0  2  0  0  0  0  0  0
  195.4250  172.6780  135.4490 C   0  0  0  0  0  1  0  0  0  0  0  0
  1 28  1  0  0  0  0
  2 11  1  0  0  0  0
  3 36  1  0  0  0  0
  3 34  1  0  0  0  0
  4 26  1  0  0  0  0
  5  3  1  0  0  0  0
  5 10  1  0  0  0  0
  6 24  1  0  0  0  0
  8  9  1  0  0  0  0
  9 10  2  0  0  0  0
 10 41  1  0  0  0  0
 11 42  2  0  0  0  0
 11 26  1  0  0  0  0
 12 14  1  1  0  0  0
 14 27  1  0  0  0  0
 15  2  1  0  0  0  0
 16 25  1  1  0  0  0
 16 22  1  0  0  0  0
 17 16  1  0  0  0  0
 17 32  1  0  0  0  0
 18 36  1  6  0  0  0
 18 41  1  0  0  0  0
 19 20  2  0  0  0  0
 20  7  1  0  0  0  0
 21  2  2  0  0  0  0
 21 27  1  0  0  0  0
 22 35  1  6  0  0  0
 22 31  1  0  0  0  0
 23 18  1  0  0  0  0
 23 19  1  0  0  0  0
 24  7  1  0  0  0  0
 26 13  2  0  0  0  0
 27  4  2  0  0  0  0
 28 12  1  0  0  0  0
 28 30  1  1  0  0  0
 29 35  1  6  0  0  0
 29 39  1  0  0  0  0
 29 12  1  0  0  0  0
 31 46  1  6  0  0  0
 31  1  1  0  0  0  0
 32 35  2  0  0  0  0
 33 37  1  0  0  0  0
 33  8  2  0  0  0  0
 37  5  2  0  0  0  0
 38 32  1  0  0  0  0
 38 19  1  0  0  0  0
 39 20  1  1  0  0  0
 39 21  1  0  0  0  0
 40  3  1  0  0  0  0
 40 34  1  0  0  0  0
 41  6  1  0  0  0  0
 44 45  1  1  0  0  0
 44  8  1  0  0  0  0
 44 43  1  0  0  0  0
 47 49  1  0  0  0  0
 47 46  1  0  0  0  0
 49 48  1  0  0  0  0
 49 50  1  1  0  0  0
 51 52  1  0  0  0  0
 51 49  1  0  0  0  0
 53 52  1  0  0  0  0
 54 53  1  0  0  0  0
 54 55  1  0  0  0  0
 56 55  1  0  0  0  0
 57 56  1  0  0  0  0
 57 58  1  0  0  0  0
 59 58  1  0  0  0  0
M  END
>  <MODEL>
1

>  <REMARK>
 VINA RESULT:      -3.6      0.000      0.000
  Name = 
  12 active torsions:
  status: ('A' for Active; 'I' for Inactive)
    1  A    between atoms: C_1  and  N_27
    2  A    between atoms: C_1  and  C_43
    3  A    between atoms: C_5  and  C_29
    4  A    between atoms: C_12  and  C_37
    5  A    between atoms: C_24  and  C_40
    6  A    between atoms: C_24  and  N_46
    7  A    between atoms: N_27  and  C_28
    8  A    between atoms: C_28  and  C_40
    9  A    between atoms: C_29  and  C_59
   10  A    between atoms: N_33  and  C_56
   11  A    between atoms: N_33  and  C_59
   12  A    between atoms: N_46  and  C_56
                            x       y       z     vdW  Elec       q    Type
                         _______ _______ _______ _____ _____    ______ ____

>  <TORSDO>
F 12

$$$$
=
 OpenBabel11042412473D

 59 67  0  0  1  0  0  0  0  0999 V2000
  189.2990  178.0880  139.6830 C   0  0  0  0  0  2  0  0  0  0  0  0
  183.1470  179.1620  141.4330 C   0  0  0  0  0  0  0  0  0  0  0  0
  180.2420  175.1290  135.3510 C   0  0  0  0  0  0  0  0  0  0  0  0
  184.7680  178.2400  143.5920 N   0  0  0  0  0  0  0  0  0  0  0  0
  181.0810  173.9000  135.3680 C   0  0  0  0  0  0  0  0  0  0  0  0
  183.8390  175.0450  137.6590 C   0  0  0  0  0  2  0  0  0  0  0  0
  182.8030  176.6670  139.3180 C   0  0  0  0  0  2  0  0  0  0  0  0
  182.6770  171.6180  135.4090 C   0  0  0  0  0  0  0  0  0  0  0  0
  183.1080  172.7920  136.0400 C   0  0  0  0  0  3  0  0  0  0  0  0
  182.3170  173.9500  136.0290 C   0  0  0  0  0  0  0  0  0  0  0  0
  182.6580  179.3220  142.8190 C   0  0  0  0  0  0  0  0  0  0  0  0
  187.1180  178.1140  140.8740 C   0  0  1  0  0  3  0  0  0  0  0  0
  183.0490  178.7620  145.1230 N   0  0  0  0  0  2  0  0  0  0  0  0
  186.4860  177.7480  142.0990 O   0  0  0  0  0  0  0  0  0  0  0  0
  182.3170  179.7220  140.3180 C   0  0  0  0  0  1  0  0  0  0  0  0
  187.7580  176.3280  136.5670 C   0  0  1  0  0  3  0  0  0  0  0  0
  186.8040  177.2720  136.1060 O   0  0  0  0  0  0  0  0  0  0  0  0
  181.9720  176.4240  136.6170 C   0  0  1  0  0  3  0  0  0  0  0  0
  183.8640  178.0350  137.5390 C   0  0  0  0  0  0  0  0  0  0  0  0
  183.8100  177.6740  138.8460 C   0  0  0  0  0  0  0  0  0  0  0  0
  184.3280  178.5260  141.2110 C   0  0  0  0  0  0  0  0  0  0  0  0
  187.9000  176.6420  138.0680 C   0  0  1  0  0  3  0  0  0  0  0  0
  182.8290  177.6920  136.4830 C   0  0  0  0  0  2  0  0  0  0  0  0
  183.3140  175.2420  139.0840 C   0  0  0  0  0  2  0  0  0  0  0  0
  187.2120  174.9250  136.3870 C   0  0  0  0  0  1  0  0  0  0  0  0
  183.4690  178.7520  143.9020 C   0  0  0  0  0  0  0  0  0  0  0  0
  185.1880  178.1630  142.3620 C   0  0  0  0  0  0  0  0  0  0  0  0
  188.4890  177.4350  140.7820 C   0  0  2  0  0  3  0  0  0  0  0  0
  186.1770  177.9080  139.6750 C   0  0  2  0  0  3  0  0  0  0  0  0
  189.2610  177.5800  142.0810 C   0  0  0  0  0  1  0  0  0  0  0  0
  189.2900  177.2470  138.4140 C   0  0  1  0  0  3  0  0  0  0  0  0
  186.2200  177.9290  137.1700 C   0  0  0  0  0  0  0  0  0  0  0  0
  181.4410  171.6320  134.7510 C   0  0  0  0  0  3  0  0  0  0  0  0
  178.9480  175.0290  136.1240 C   0  0  0  0  0  2  0  0  0  0  0  0
  186.7540  177.5800  138.3270 C   0  0  0  0  0  0  0  0  0  0  0  0
  180.9560  176.4540  135.4710 C   0  0  0  0  0  2  0  0  0  0  0  0
  180.6750  172.7570  134.7500 N   0  0  0  0  0  0  0  0  0  0  0  0
  185.0300  178.8070  137.0350 C   0  0  0  0  0  2  0  0  0  0  0  0
  184.8300  178.1160  139.8550 C   0  0  1  0  0  3  0  0  0  0  0  0
  178.9310  175.1150  134.5990 C   0  0  0  0  0  2  0  0  0  0  0  0
  182.7670  175.1690  136.6700 N   0  0  0  0  0  0  0  0  0  0  0  0
  181.5700  179.9100  143.0640 O   0  0  0  0  0  0  0  0  0  0  0  0
  184.8530  170.6710  135.0740 O   0  0  0  0  0  1  0  0  0  0  0  0
  183.5250  170.3760  135.3950 C   0  0  1  0  0  3  0  0  0  0  0  0
  183.4780  169.6680  136.7410 C   0  0  0  0  0  1  0  0  0  0  0  0
  189.9460  178.0580  137.2980 C   0  0  0  0  0  2  0  0  0  0  0  0
  190.2660  177.1810  136.1730 N   0  0  0  0  0  2  0  0  0  0  0  0
  192.2050  176.9010  137.4770 O   0  0  0  0  0  1  0  0  0  0  0  0
  191.4070  176.3180  136.4840 C   0  0  2  0  0  0  0  0  0  0  0  0
  192.2310  176.1830  135.2160 C   0  0  0  0  0  1  0  0  0  0  0  0
  190.9060  174.9340  136.9230 C   0  0  0  0  0  2  0  0  0  0  0  0
  192.0120  173.8980  137.1130 C   0  0  0  0  0  2  0  0  0  0  0  0
  192.0470  172.9730  135.9890 N   0  0  0  0  0  2  0  0  0  0  0  0
  193.3940  172.4180  135.8970 C   0  0  0  0  0  2  0  0  0  0  0  0
  194.2020  172.8460  137.0350 N   0  0  0  0  0  2  0  0  0  0  0  0
  195.4830  173.3150  136.5220 C   0  0  0  0  0  2  0  0  0  0  0  0
  196.6190  172.6800  137.3090 C   0  0  0  0  0  2  0  0  0  0  0  0
  196.3460  171.2060  137.5380 C   0  0  0  0  0  2  0  0  0  0  0  0
  196.9330  170.4000  136.3960 C   0  0  0  0  0  1  0  0  0  0  0  0
  1 28  1  0  0  0  0
  2 11  1  0  0  0  0
  3  5  1  0  0  0  0
  3 36  1  0  0  0  0
  3 34  1  0  0  0  0
  4 26  1  0  0  0  0
  5 10  1  0  0  0  0
  6 24  1  0  0  0  0
  8  9  1  0  0  0  0
 10  9  2  0  0  0  0
 10 41  1  0  0  0  0
 11 42  2  0  0  0  0
 11 26  1  0  0  0  0
 12 14  1  1  0  0  0
 14 27  1  0  0  0  0
 15  2  1  0  0  0  0
 16 25  1  1  0  0  0
 16 22  1  0  0  0  0
 17 16  1  0  0  0  0
 17 32  1  0  0  0  0
 18 36  1  6  0  0  0
 18 41  1  0  0  0  0
 19 20  2  0  0  0  0
 20  7  1  0  0  0  0
 21  2  2  0  0  0  0
 21 27  1  0  0  0  0
 22 35  1  6  0  0  0
 22 31  1  0  0  0  0
 23 18  1  0  0  0  0
 23 19  1  0  0  0  0
 24  7  1  0  0  0  0
 26 13  2  0  0  0  0
 27  4  2  0  0  0  0
 28 12  1  0  0  0  0
 28 30  1  1  0  0  0
 29 35  1  6  0  0  0
 29 39  1  0  0  0  0
 29 12  1  0  0  0  0
 31 46  1  6  0  0  0
 31  1  1  0  0  0  0
 32 35  2  0  0  0  0
 33  8  2  0  0  0  0
 37 33  1  0  0  0  0
 37  5  2  0  0  0  0
 38 32  1  0  0  0  0
 38 19  1  0  0  0  0
 39 20  1  1  0  0  0
 39 21  1  0  0  0  0
 40  3  1  0  0  0  0
 40 34  1  0  0  0  0
 41  6  1  0  0  0  0
 43 44  1  0  0  0  0
 44  8  1  0  0  0  0
 44 45  1  1  0  0  0
 47 49  1  0  0  0  0
 47 46  1  0  0  0  0
 49 50  1  6  0  0  0
 49 51  1  0  0  0  0
 49 48  1  0  0  0  0
 51 52  1  0  0  0  0
 53 52  1  0  0  0  0
 54 53  1  0  0  0  0
 54 55  1  0  0  0  0
 56 55  1  0  0  0  0
 56 57  1  0  0  0  0
 57 58  1  0  0  0  0
 59 58  1  0  0  0  0
M  END
>  <MODEL>
2

>  <REMARK>
 VINA RESULT:      -3.3      1.355      1.598
  Name = 
  12 active torsions:
  status: ('A' for Active; 'I' for Inactive)
    1  A    between atoms: C_1  and  N_27
    2  A    between atoms: C_1  and  C_43
    3  A    between atoms: C_5  and  C_29
    4  A    between atoms: C_12  and  C_37
    5  A    between atoms: C_24  and  C_40
    6  A    between atoms: C_24  and  N_46
    7  A    between atoms: N_27  and  C_28
    8  A    between atoms: C_28  and  C_40
    9  A    between atoms: C_29  and  C_59
   10  A    between atoms: N_33  and  C_56
   11  A    between atoms: N_33  and  C_59
   12  A    between atoms: N_46  and  C_56
                            x       y       z     vdW  Elec       q    Type
                         _______ _______ _______ _____ _____    ______ ____

>  <TORSDO>
F 12

$$$$
=
 OpenBabel11042412473D

 59 67  0  0  1  0  0  0  0  0999 V2000
  189.4660  177.7180  139.9030 C   0  0  0  0  0  2  0  0  0  0  0  0
  183.4120  179.3080  141.6040 C   0  0  0  0  0  0  0  0  0  0  0  0
  180.2430  175.7440  135.3640 C   0  0  0  0  0  0  0  0  0  0  0  0
  184.9070  178.1770  143.7550 N   0  0  0  0  0  0  0  0  0  0  0  0
  180.9640  174.4420  135.3550 C   0  0  0  0  0  0  0  0  0  0  0  0
  183.7800  175.2580  137.7160 C   0  0  0  0  0  2  0  0  0  0  0  0
  182.8720  176.9200  139.4090 C   0  0  0  0  0  2  0  0  0  0  0  0
  182.3410  172.0220  135.3460 C   0  0  0  0  0  0  0  0  0  0  0  0
  182.8690  173.1310  136.0190 C   0  0  0  0  0  3  0  0  0  0  0  0
  182.1880  174.3580  136.0330 C   0  0  0  0  0  0  0  0  0  0  0  0
  182.9180  179.4730  142.9890 C   0  0  0  0  0  0  0  0  0  0  0  0
  187.2770  177.9130  141.0650 C   0  0  1  0  0  3  0  0  0  0  0  0
  183.2190  178.8120  145.2790 N   0  0  0  0  0  2  0  0  0  0  0  0
  186.5950  177.5710  142.2710 O   0  0  0  0  0  0  0  0  0  0  0  0
  182.6550  179.9760  140.4960 C   0  0  0  0  0  1  0  0  0  0  0  0
  187.8170  176.2020  136.7140 C   0  0  1  0  0  3  0  0  0  0  0  0
  186.9630  177.2430  136.2700 O   0  0  0  0  0  0  0  0  0  0  0  0
  182.0660  176.8350  136.6920 C   0  0  1  0  0  3  0  0  0  0  0  0
  184.0830  178.2350  137.6870 C   0  0  0  0  0  0  0  0  0  0  0  0
  183.9760  177.8420  138.9810 C   0  0  0  0  0  0  0  0  0  0  0  0
  184.5320  178.5730  141.3790 C   0  0  0  0  0  0  0  0  0  0  0  0
  187.9640  176.4570  138.2260 C   0  0  1  0  0  3  0  0  0  0  0  0
  183.0380  178.0210  136.6080 C   0  0  0  0  0  2  0  0  0  0  0  0
  183.2520  175.4610  139.1380 C   0  0  0  0  0  2  0  0  0  0  0  0
  187.1460  174.8610  136.4840 C   0  0  0  0  0  1  0  0  0  0  0  0
  183.6560  178.7980  144.0640 C   0  0  0  0  0  0  0  0  0  0  0  0
  185.3370  178.0970  142.5290 C   0  0  0  0  0  0  0  0  0  0  0  0
  188.5810  177.1120  140.9710 C   0  0  2  0  0  3  0  0  0  0  0  0
  186.3410  177.8300  139.8490 C   0  0  2  0  0  3  0  0  0  0  0  0
  189.3430  177.1460  142.2830 C   0  0  0  0  0  1  0  0  0  0  0  0
  189.3990  176.9200  138.6080 C   0  0  1  0  0  3  0  0  0  0  0  0
  186.4250  177.9210  137.3460 C   0  0  0  0  0  0  0  0  0  0  0  0
  181.1220  172.1700  134.6730 C   0  0  0  0  0  3  0  0  0  0  0  0
  178.9330  175.7430  136.1170 C   0  0  0  0  0  2  0  0  0  0  0  0
  186.9060  177.4900  138.4990 C   0  0  0  0  0  0  0  0  0  0  0  0
  181.0750  176.9930  135.5340 C   0  0  0  0  0  2  0  0  0  0  0  0
  180.4640  173.3600  134.6960 N   0  0  0  0  0  0  0  0  0  0  0  0
  185.3240  178.9100  137.2230 C   0  0  0  0  0  2  0  0  0  0  0  0
  185.0160  178.1580  140.0170 C   0  0  1  0  0  3  0  0  0  0  0  0
  178.9480  175.8740  134.5940 C   0  0  0  0  0  2  0  0  0  0  0  0
  182.7390  175.5100  136.7170 N   0  0  0  0  0  0  0  0  0  0  0  0
  181.8850  180.1520  143.2360 O   0  0  0  0  0  0  0  0  0  0  0  0
  183.4020  170.2680  136.5890 O   0  0  0  0  0  1  0  0  0  0  0  0
  183.0710  170.7070  135.3050 C   0  0  1  0  0  3  0  0  0  0  0  0
  182.2360  169.6420  134.6090 C   0  0  0  0  0  1  0  0  0  0  0  0
  190.1440  177.6980  137.5270 C   0  0  0  0  0  2  0  0  0  0  0  0
  190.5400  176.7920  136.4500 N   0  0  0  0  0  2  0  0  0  0  0  0
  191.1150  174.8960  137.7210 O   0  0  0  0  0  1  0  0  0  0  0  0
  191.6170  175.8990  136.8800 C   0  0  2  0  0  0  0  0  0  0  0  0
  192.6130  176.7360  137.6640 C   0  0  0  0  0  1  0  0  0  0  0  0
  192.3090  175.2910  135.6510 C   0  0  0  0  0  2  0  0  0  0  0  0
  193.4600  174.3430  135.9840 C   0  0  0  0  0  2  0  0  0  0  0  0
  193.7750  173.4980  134.8400 N   0  0  0  0  0  2  0  0  0  0  0  0
  195.2120  173.5830  134.5950 C   0  0  0  0  0  2  0  0  0  0  0  0
  195.9470  172.7980  135.5820 N   0  0  0  0  0  2  0  0  0  0  0  0
  197.1830  173.5070  135.8870 C   0  0  0  0  0  2  0  0  0  0  0  0
  196.8930  174.6780  136.8120 C   0  0  0  0  0  2  0  0  0  0  0  0
  197.0140  174.2510  138.2620 C   0  0  0  0  0  2  0  0  0  0  0  0
  195.6780  174.4290  138.9540 C   0  0  0  0  0  1  0  0  0  0  0  0
  1 28  1  0  0  0  0
  2 11  1  0  0  0  0
  3 36  1  0  0  0  0
  3 34  1  0  0  0  0
  4 26  1  0  0  0  0
  5  3  1  0  0  0  0
  5 10  1  0  0  0  0
  6 24  1  0  0  0  0
  8  9  1  0  0  0  0
  9 10  2  0  0  0  0
 10 41  1  0  0  0  0
 11 42  2  0  0  0  0
 11 26  1  0  0  0  0
 12 14  1  1  0  0  0
 14 27  1  0  0  0  0
 15  2  1  0  0  0  0
 16 25  1  1  0  0  0
 16 22  1  0  0  0  0
 17 16  1  0  0  0  0
 17 32  1  0  0  0  0
 18 36  1  6  0  0  0
 18 41  1  0  0  0  0
 19 20  2  0  0  0  0
 20  7  1  0  0  0  0
 21  2  2  0  0  0  0
 21 27  1  0  0  0  0
 22 35  1  6  0  0  0
 22 31  1  0  0  0  0
 23 18  1  0  0  0  0
 23 19  1  0  0  0  0
 24  7  1  0  0  0  0
 26 13  2  0  0  0  0
 27  4  2  0  0  0  0
 28 12  1  0  0  0  0
 28 30  1  1  0  0  0
 29 35  1  6  0  0  0
 29 39  1  0  0  0  0
 29 12  1  0  0  0  0
 31 46  1  6  0  0  0
 31  1  1  0  0  0  0
 32 35  2  0  0  0  0
 33 37  1  0  0  0  0
 33  8  2  0  0  0  0
 37  5  2  0  0  0  0
 38 32  1  0  0  0  0
 38 19  1  0  0  0  0
 39 20  1  1  0  0  0
 39 21  1  0  0  0  0
 40  3  1  0  0  0  0
 40 34  1  0  0  0  0
 41  6  1  0  0  0  0
 44 45  1  1  0  0  0
 44  8  1  0  0  0  0
 44 43  1  0  0  0  0
 47 49  1  0  0  0  0
 47 46  1  0  0  0  0
 49 50  1  1  0  0  0
 49 48  1  0  0  0  0
 51 52  1  0  0  0  0
 51 49  1  0  0  0  0
 53 52  1  0  0  0  0
 54 53  1  0  0  0  0
 54 55  1  0  0  0  0
 55 56  1  0  0  0  0
 56 57  1  0  0  0  0
 57 58  1  0  0  0  0
 58 59  1  0  0  0  0
M  END
>  <MODEL>
3

>  <REMARK>
 VINA RESULT:      -3.3      0.950      1.109
  Name = 
  12 active torsions:
  status: ('A' for Active; 'I' for Inactive)
    1  A    between atoms: C_1  and  N_27
    2  A    between atoms: C_1  and  C_43
    3  A    between atoms: C_5  and  C_29
    4  A    between atoms: C_12  and  C_37
    5  A    between atoms: C_24  and  C_40
    6  A    between atoms: C_24  and  N_46
    7  A    between atoms: N_27  and  C_28
    8  A    between atoms: C_28  and  C_40
    9  A    between atoms: C_29  and  C_59
   10  A    between atoms: N_33  and  C_56
   11  A    between atoms: N_33  and  C_59
   12  A    between atoms: N_46  and  C_56
                            x       y       z     vdW  Elec       q    Type
                         _______ _______ _______ _____ _____    ______ ____

>  <TORSDO>
F 12

$$$$
=
 OpenBabel11042412473D

 59 67  0  0  1  0  0  0  0  0999 V2000
  190.1760  177.0790  140.6430 C   0  0  0  0  0  2  0  0  0  0  0  0
  185.0080  179.2040  143.9360 C   0  0  0  0  0  0  0  0  0  0  0  0
  180.2390  178.5980  137.7250 C   0  0  0  0  0  0  0  0  0  0  0  0
  186.4340  177.1530  145.3150 N   0  0  0  0  0  0  0  0  0  0  0  0
  180.5960  177.2550  137.1930 C   0  0  0  0  0  0  0  0  0  0  0  0
  183.8130  176.6680  139.0570 C   0  0  0  0  0  2  0  0  0  0  0  0
  183.5910  177.8280  141.3060 C   0  0  0  0  0  2  0  0  0  0  0  0
  181.2970  174.7470  136.2050 C   0  0  0  0  0  0  0  0  0  0  0  0
  182.1740  175.4440  137.0450 C   0  0  0  0  0  3  0  0  0  0  0  0
  181.8370  176.7080  137.5510 C   0  0  0  0  0  0  0  0  0  0  0  0
  184.7590  179.0000  145.3800 C   0  0  0  0  0  0  0  0  0  0  0  0
  188.2820  177.3170  142.2360 C   0  0  1  0  0  3  0  0  0  0  0  0
  185.1800  177.5770  147.2700 N   0  0  0  0  0  2  0  0  0  0  0  0
  187.7000  176.7430  143.4060 O   0  0  0  0  0  0  0  0  0  0  0  0
  184.3070  180.3350  143.2470 C   0  0  0  0  0  1  0  0  0  0  0  0
  187.7890  177.0570  137.5630 C   0  0  1  0  0  3  0  0  0  0  0  0
  187.1780  178.3360  137.6230 O   0  0  0  0  0  0  0  0  0  0  0  0
  182.4390  178.8030  138.9060 C   0  0  1  0  0  3  0  0  0  0  0  0
  184.8600  179.3640  139.8250 C   0  0  0  0  0  0  0  0  0  0  0  0
  184.8270  178.5980  140.9450 C   0  0  0  0  0  0  0  0  0  0  0  0
  185.8630  178.3740  143.2830 C   0  0  0  0  0  0  0  0  0  0  0  0
  188.1950  176.7670  139.0200 C   0  0  1  0  0  3  0  0  0  0  0  0
  183.6620  179.7310  138.9690 C   0  0  0  0  0  2  0  0  0  0  0  0
  183.5470  176.4940  140.5550 C   0  0  0  0  0  2  0  0  0  0  0  0
  186.7740  176.0300  137.1000 C   0  0  0  0  0  1  0  0  0  0  0  0
  185.4350  177.8760  146.0400 C   0  0  0  0  0  0  0  0  0  0  0  0
  186.6640  177.3960  144.0570 C   0  0  0  0  0  0  0  0  0  0  0  0
  189.3150  176.3460  141.6490 C   0  0  2  0  0  3  0  0  0  0  0  0
  187.2040  177.8270  141.2670 C   0  0  2  0  0  3  0  0  0  0  0  0
  190.2260  175.7940  142.7300 C   0  0  0  0  0  1  0  0  0  0  0  0
  189.7370  176.7810  139.2160 C   0  0  1  0  0  3  0  0  0  0  0  0
  186.9780  178.7160  138.9350 C   0  0  0  0  0  0  0  0  0  0  0  0
  180.0780  175.3500  135.8680 C   0  0  0  0  0  3  0  0  0  0  0  0
  179.0830  178.6130  138.6970 C   0  0  0  0  0  2  0  0  0  0  0  0
  187.4800  177.8430  139.7900 C   0  0  0  0  0  0  0  0  0  0  0  0
  181.3770  179.5280  138.0720 C   0  0  0  0  0  2  0  0  0  0  0  0
  179.7550  176.5730  136.3680 N   0  0  0  0  0  0  0  0  0  0  0  0
  186.1590  179.8900  139.3310 C   0  0  0  0  0  2  0  0  0  0  0  0
  186.0410  178.3410  141.7910 C   0  0  1  0  0  3  0  0  0  0  0  0
  178.9310  179.2310  137.3080 C   0  0  0  0  0  2  0  0  0  0  0  0
  182.7490  177.4370  138.4100 N   0  0  0  0  0  0  0  0  0  0  0  0
  183.9760  179.7530  146.0200 O   0  0  0  0  0  0  0  0  0  0  0  0
  182.6140  172.7560  136.4230 O   0  0  0  0  0  1  0  0  0  0  0  0
  181.6550  173.4010  135.6380 C   0  0  1  0  0  3  0  0  0  0  0  0
  180.4240  172.5140  135.5200 C   0  0  0  0  0  1  0  0  0  0  0  0
  190.5070  177.7040  138.2750 C   0  0  0  0  0  2  0  0  0  0  0  0
  191.0840  176.9250  137.1810 N   0  0  0  0  0  2  0  0  0  0  0  0
  191.8410  174.9540  138.2200 O   0  0  0  0  0  1  0  0  0  0  0  0
  192.2470  176.1600  137.6340 C   0  0  2  0  0  0  0  0  0  0  0  0
  192.9580  176.9950  138.6840 C   0  0  0  0  0  1  0  0  0  0  0  0
  193.1930  175.9050  136.4500 C   0  0  0  0  0  2  0  0  0  0  0  0
  194.0350  174.6380  136.5820 C   0  0  0  0  0  2  0  0  0  0  0  0
  194.5560  174.2310  135.2840 N   0  0  0  0  0  2  0  0  0  0  0  0
  193.5830  173.3350  134.6650 C   0  0  0  0  0  2  0  0  0  0  0  0
  192.8650  172.5760  135.6840 N   0  0  0  0  0  2  0  0  0  0  0  0
  191.5560  172.2300  135.1440 C   0  0  0  0  0  2  0  0  0  0  0  0
  190.5000  173.1700  135.7060 C   0  0  0  0  0  2  0  0  0  0  0  0
  189.5680  173.6380  134.6050 C   0  0  0  0  0  2  0  0  0  0  0  0
  188.1390  173.2940  134.9730 C   0  0  0  0  0  1  0  0  0  0  0  0
  1 28  1  0  0  0  0
  2 11  1  0  0  0  0
  3 36  1  0  0  0  0
  3 34  1  0  0  0  0
  4 26  1  0  0  0  0
  5 10  1  0  0  0  0
  5  3  1  0  0  0  0
  6 24  1  0  0  0  0
  8  9  1  0  0  0  0
  9 10  2  0  0  0  0
 10 41  1  0  0  0  0
 11 42  2  0  0  0  0
 11 26  1  0  0  0  0
 12 14  1  1  0  0  0
 14 27  1  0  0  0  0
 15  2  1  0  0  0  0
 16 25  1  1  0  0  0
 16 17  1  0  0  0  0
 16 22  1  0  0  0  0
 17 32  1  0  0  0  0
 18 36  1  6  0  0  0
 18 23  1  0  0  0  0
 19 20  2  0  0  0  0
 20  7  1  0  0  0  0
 21  2  2  0  0  0  0
 21 27  1  0  0  0  0
 22 31  1  0  0  0  0
 22 35  1  1  0  0  0
 23 19  1  0  0  0  0
 24  7  1  0  0  0  0
 26 13  2  0  0  0  0
 27  4  2  0  0  0  0
 28 12  1  0  0  0  0
 28 30  1  1  0  0  0
 29 35  1  1  0  0  0
 29 39  1  0  0  0  0
 29 12  1  0  0  0  0
 31 46  1  6  0  0  0
 31  1  1  0  0  0  0
 32 38  1  0  0  0  0
 32 35  2  0  0  0  0
 33  8  2  0  0  0  0
 33 37  1  0  0  0  0
 37  5  2  0  0  0  0
 38 19  1  0  0  0  0
 39 20  1  6  0  0  0
 39 21  1  0  0  0  0
 40  3  1  0  0  0  0
 40 34  1  0  0  0  0
 41 18  1  0  0  0  0
 41  6  1  0  0  0  0
 44 45  1  1  0  0  0
 44  8  1  0  0  0  0
 44 43  1  0  0  0  0
 47 49  1  0  0  0  0
 47 46  1  0  0  0  0
 49 48  1  0  0  0  0
 49 50  1  1  0  0  0
 51 52  1  0  0  0  0
 51 49  1  0  0  0  0
 53 52  1  0  0  0  0
 54 53  1  0  0  0  0
 54 55  1  0  0  0  0
 56 55  1  0  0  0  0
 56 57  1  0  0  0  0
 58 59  1  0  0  0  0
 58 57  1  0  0  0  0
M  END
>  <MODEL>
4

>  <REMARK>
 VINA RESULT:      -1.8      2.004      3.040
  Name = 
  12 active torsions:
  status: ('A' for Active; 'I' for Inactive)
    1  A    between atoms: C_1  and  N_27
    2  A    between atoms: C_1  and  C_43
    3  A    between atoms: C_5  and  C_29
    4  A    between atoms: C_12  and  C_37
    5  A    between atoms: C_24  and  C_40
    6  A    between atoms: C_24  and  N_46
    7  A    between atoms: N_27  and  C_28
    8  A    between atoms: C_28  and  C_40
    9  A    between atoms: C_29  and  C_59
   10  A    between atoms: N_33  and  C_56
   11  A    between atoms: N_33  and  C_59
   12  A    between atoms: N_46  and  C_56
                            x       y       z     vdW  Elec       q    Type
                         _______ _______ _______ _____ _____    ______ ____

>  <TORSDO>
F 12

$$$$
=
 OpenBabel11042412473D

 59 67  0  0  1  0  0  0  0  0999 V2000
  188.8490  178.4650  140.3830 C   0  0  0  0  0  2  0  0  0  0  0  0
  182.5430  179.3170  141.6360 C   0  0  0  0  0  0  0  0  0  0  0  0
  180.2750  175.0530  135.4430 C   0  0  0  0  0  0  0  0  0  0  0  0
  184.0290  178.5040  143.9320 N   0  0  0  0  0  0  0  0  0  0  0  0
  181.1580  173.8600  135.5510 C   0  0  0  0  0  0  0  0  0  0  0  0
  183.6850  175.1620  138.0190 C   0  0  0  0  0  2  0  0  0  0  0  0
  182.4610  176.7700  139.5570 C   0  0  0  0  0  2  0  0  0  0  0  0
  182.8360  171.6480  135.7630 C   0  0  0  0  0  0  0  0  0  0  0  0
  183.1710  172.8490  136.3990 C   0  0  0  0  0  3  0  0  0  0  0  0
  182.3370  173.9740  136.3030 C   0  0  0  0  0  0  0  0  0  0  0  0
  181.9430  179.4840  142.9780 C   0  0  0  0  0  0  0  0  0  0  0  0
  186.5830  178.4240  141.4040 C   0  0  1  0  0  3  0  0  0  0  0  0
  182.1780  178.9840  145.3170 N   0  0  0  0  0  2  0  0  0  0  0  0
  185.8740  178.0560  142.5860 O   0  0  0  0  0  0  0  0  0  0  0  0
  181.7790  179.8210  140.4490 C   0  0  0  0  0  1  0  0  0  0  0  0
  187.6220  176.5840  137.1990 C   0  0  1  0  0  3  0  0  0  0  0  0
  186.6700  177.4790  136.6460 O   0  0  0  0  0  0  0  0  0  0  0  0
  181.8510  176.4420  136.8080 C   0  0  1  0  0  3  0  0  0  0  0  0
  183.6000  178.1470  137.8340 C   0  0  0  0  0  0  0  0  0  0  0  0
  183.4610  177.8090  139.1410 C   0  0  0  0  0  0  0  0  0  0  0  0
  183.7610  178.7270  141.5190 C   0  0  0  0  0  0  0  0  0  0  0  0
  187.6360  176.9320  138.6990 C   0  0  1  0  0  3  0  0  0  0  0  0
  182.6640  177.7420  136.7110 C   0  0  0  0  0  2  0  0  0  0  0  0
  183.0450  175.3640  139.3950 C   0  0  0  0  0  2  0  0  0  0  0  0
  187.1480  175.1560  137.0090 C   0  0  0  0  0  1  0  0  0  0  0  0
  182.6900  178.9680  144.1320 C   0  0  0  0  0  0  0  0  0  0  0  0
  184.5450  178.4210  142.7400 C   0  0  0  0  0  0  0  0  0  0  0  0
  187.9840  177.8000  141.4320 C   0  0  2  0  0  3  0  0  0  0  0  0
  185.7460  178.1560  140.1420 C   0  0  2  0  0  3  0  0  0  0  0  0
  188.6470  178.0010  142.7810 C   0  0  0  0  0  1  0  0  0  0  0  0
  188.9700  177.6010  139.1360 C   0  0  1  0  0  3  0  0  0  0  0  0
  185.9810  178.1320  137.6480 C   0  0  0  0  0  0  0  0  0  0  0  0
  181.6540  171.5980  135.0130 C   0  0  0  0  0  3  0  0  0  0  0  0
  178.9310  174.9150  136.1180 C   0  0  0  0  0  2  0  0  0  0  0  0
  186.4370  177.8270  138.8490 C   0  0  0  0  0  0  0  0  0  0  0  0
  180.9250  176.4090  135.5880 C   0  0  0  0  0  2  0  0  0  0  0  0
  180.8470  172.6890  134.9290 N   0  0  0  0  0  0  0  0  0  0  0  0
  184.7700  178.9570  137.4040 C   0  0  0  0  0  2  0  0  0  0  0  0
  184.3820  178.3120  140.2150 C   0  0  1  0  0  3  0  0  0  0  0  0
  179.0270  174.9700  134.5930 C   0  0  0  0  0  2  0  0  0  0  0  0
  182.6880  175.2220  136.9490 N   0  0  0  0  0  0  0  0  0  0  0  0
  180.8170  180.0310  143.1260 O   0  0  0  0  0  0  0  0  0  0  0  0
  183.7740  169.7600  134.6220 O   0  0  0  0  0  1  0  0  0  0  0  0
  183.7320  170.4410  135.8410 C   0  0  1  0  0  3  0  0  0  0  0  0
  185.1440  170.8360  136.2460 C   0  0  0  0  0  1  0  0  0  0  0  0
  189.6770  178.4160  138.0550 C   0  0  0  0  0  2  0  0  0  0  0  0
  191.0970  178.5430  138.3810 N   0  0  0  0  0  2  0  0  0  0  0  0
  193.0940  177.3330  138.6770 O   0  0  0  0  0  1  0  0  0  0  0  0
  191.6960  177.2350  138.6480 C   0  0  2  0  0  0  0  0  0  0  0  0
  191.2980  176.3130  137.5090 C   0  0  0  0  0  1  0  0  0  0  0  0
  191.1570  176.6780  139.9740 C   0  0  0  0  0  2  0  0  0  0  0  0
  192.0690  176.9260  141.1750 C   0  0  0  0  0  2  0  0  0  0  0  0
  191.5320  176.2840  142.3670 N   0  0  0  0  0  2  0  0  0  0  0  0
  192.3360  176.7040  143.5110 C   0  0  0  0  0  2  0  0  0  0  0  0
  191.4930  177.3240  144.5280 N   0  0  0  0  0  2  0  0  0  0  0  0
  191.3960  176.4010  145.6520 C   0  0  0  0  0  2  0  0  0  0  0  0
  189.9740  176.3910  146.1910 C   0  0  0  0  0  2  0  0  0  0  0  0
  189.5360  177.7960  146.5580 C   0  0  0  0  0  2  0  0  0  0  0  0
  189.2690  177.8690  148.0480 C   0  0  0  0  0  1  0  0  0  0  0  0
  1 28  1  0  0  0  0
  2 11  1  0  0  0  0
  3  5  1  0  0  0  0
  3 36  1  0  0  0  0
  3 34  1  0  0  0  0
  4 26  1  0  0  0  0
  5 10  1  0  0  0  0
  6 24  1  0  0  0  0
  8 44  1  0  0  0  0
  8  9  1  0  0  0  0
 10  9  2  0  0  0  0
 10 41  1  0  0  0  0
 11 42  2  0  0  0  0
 11 26  1  0  0  0  0
 12 28  1  0  0  0  0
 12 14  1  1  0  0  0
 14 27  1  0  0  0  0
 15  2  1  0  0  0  0
 16 25  1  1  0  0  0
 16 22  1  0  0  0  0
 17 16  1  0  0  0  0
 17 32  1  0  0  0  0
 18 36  1  6  0  0  0
 18 41  1  0  0  0  0
 19 20  2  0  0  0  0
 20  7  1  0  0  0  0
 21  2  2  0  0  0  0
 21 27  1  0  0  0  0
 22 35  1  6  0  0  0
 22 31  1  0  0  0  0
 23 18  1  0  0  0  0
 23 19  1  0  0  0  0
 24  7  1  0  0  0  0
 26 13  2  0  0  0  0
 27  4  2  0  0  0  0
 28 30  1  1  0  0  0
 29 35  1  6  0  0  0
 29 39  1  0  0  0  0
 29 12  1  0  0  0  0
 31 46  1  6  0  0  0
 31  1  1  0  0  0  0
 32 35  2  0  0  0  0
 33  8  2  0  0  0  0
 37 33  1  0  0  0  0
 37  5  2  0  0  0  0
 38 32  1  0  0  0  0
 38 19  1  0  0  0  0
 39 20  1  1  0  0  0
 39 21  1  0  0  0  0
 40  3  1  0  0  0  0
 40 34  1  0  0  0  0
 41  6  1  0  0  0  0
 43 44  1  0  0  0  0
 44 45  1  6  0  0  0
 46 47  1  0  0  0  0
 47 49  1  0  0  0  0
 49 50  1  6  0  0  0
 49 48  1  0  0  0  0
 49 51  1  0  0  0  0
 51 52  1  0  0  0  0
 52 53  1  0  0  0  0
 53 54  1  0  0  0  0
 54 55  1  0  0  0  0
 55 56  1  0  0  0  0
 56 57  1  0  0  0  0
 57 58  1  0  0  0  0
 58 59  1  0  0  0  0
M  END
>  <MODEL>
5

>  <REMARK>
 VINA RESULT:      -1.7      2.407      4.337
  Name = 
  12 active torsions:
  status: ('A' for Active; 'I' for Inactive)
    1  A    between atoms: C_1  and  N_27
    2  A    between atoms: C_1  and  C_43
    3  A    between atoms: C_5  and  C_29
    4  A    between atoms: C_12  and  C_37
    5  A    between atoms: C_24  and  C_40
    6  A    between atoms: C_24  and  N_46
    7  A    between atoms: N_27  and  C_28
    8  A    between atoms: C_28  and  C_40
    9  A    between atoms: C_29  and  C_59
   10  A    between atoms: N_33  and  C_56
   11  A    between atoms: N_33  and  C_59
   12  A    between atoms: N_46  and  C_56
                            x       y       z     vdW  Elec       q    Type
                         _______ _______ _______ _____ _____    ______ ____

>  <TORSDO>
F 12

$$$$
