=
 OpenBabel11042413073D

 32 35  0  0  1  0  0  0  0  0999 V2000
  181.7390  177.5980  140.3650 C   0  0  1  0  0  3  0  0  0  0  0  0
  181.7510  175.6670  138.9490 O   0  0  0  0  0  0  0  0  0  0  0  0
  179.7070  177.6430  141.8710 C   0  0  0  0  0  0  0  0  0  0  0  0
  181.0600  177.9740  141.6640 C   0  0  0  0  0  0  0  0  0  0  0  0
  179.7690  176.0650  140.0470 O   0  0  0  0  0  0  0  0  0  0  0  0
  178.9310  176.9480  140.7920 C   0  0  0  0  0  2  0  0  0  0  0  0
  181.0760  179.0210  143.8500 C   0  0  0  0  0  3  0  0  0  0  0  0
  181.0930  176.3940  139.7390 C   0  0  0  0  0  0  0  0  0  0  0  0
  181.7510  178.6700  142.6740 C   0  0  0  0  0  0  0  0  0  0  0  0
  179.0810  178.0040  143.0220 N   0  0  0  0  0  0  0  0  0  0  0  0
  179.7330  178.6760  144.0070 C   0  0  0  0  0  3  0  0  0  0  0  0
  183.1890  179.0620  142.4890 C   0  0  2  0  0  3  0  0  0  0  0  0
  184.0600  177.8470  142.1480 C   0  0  0  0  0  2  0  0  0  0  0  0
  184.3610  179.1120  144.7300 C   0  0  0  0  0  0  0  0  0  0  0  0
  186.2380  178.4550  143.1920 C   0  0  0  0  0  3  0  0  0  0  0  0
  187.6700  177.7500  145.5200 N   0  0  0  0  0  0  0  0  0  0  0  0
  183.7740  178.9530  145.8340 O   0  0  0  0  0  0  0  0  0  0  0  0
  183.6900  179.9170  143.6600 C   0  0  0  0  0  2  0  0  0  0  0  0
  185.6690  178.5520  144.5120 N   0  0  0  0  0  0  0  0  0  0  0  0
  186.4700  178.2160  145.6510 C   0  0  0  0  0  3  0  0  0  0  0  0
  185.5220  178.1720  142.0990 C   0  0  0  0  0  3  0  0  0  0  0  0
  188.4750  177.4140  146.6830 C   0  0  0  0  0  2  0  0  0  0  0  0
  190.1510  176.9560  145.0500 O   0  0  0  0  0  0  0  0  0  0  0  0
  190.8520  176.7890  147.2580 N   0  0  0  0  0  1  0  0  0  0  0  0
  189.8560  177.0310  146.2710 C   0  0  0  0  0  0  0  0  0  0  0  0
  183.4730  180.5140  138.7640 C   0  0  0  0  0  3  0  0  0  0  0  0
  183.1740  179.2620  139.1090 C   0  0  0  0  0  3  0  0  0  0  0  0
  180.5980  180.2550  137.7830 C   0  0  0  0  0  3  0  0  0  0  0  0
  181.8180  178.7550  139.4100 C   0  0  0  0  0  0  0  0  0  0  0  0
  182.4620  181.6090  138.7160 C   0  0  0  0  0  2  0  0  0  0  0  0
  181.3940  181.3220  137.7150 C   0  0  0  0  0  3  0  0  0  0  0  0
  180.7040  179.1740  138.7820 C   0  0  0  0  0  3  0  0  0  0  0  0
  1 29  1  6  0  0  0
  1  4  1  0  0  0  0
  2  8  2  0  0  0  0
  3 10  1  0  0  0  0
  4  3  2  0  0  0  0
  4  9  1  0  0  0  0
  5  6  1  0  0  0  0
  6  3  1  0  0  0  0
  7 11  1  0  0  0  0
  8  5  1  0  0  0  0
  8  1  1  0  0  0  0
  9  7  2  0  0  0  0
 10 11  2  0  0  0  0
 12  9  1  1  0  0  0
 12 18  1  0  0  0  0
 13 12  1  0  0  0  0
 14 17  2  0  0  0  0
 15 19  1  0  0  0  0
 16 20  2  0  0  0  0
 16 22  1  0  0  0  0
 18 14  1  0  0  0  0
 19 14  1  0  0  0  0
 19 20  1  0  0  0  0
 21 13  1  0  0  0  0
 21 15  2  0  0  0  0
 23 25  2  0  0  0  0
 25 22  1  0  0  0  0
 25 24  1  0  0  0  0
 26 27  2  0  0  0  0
 27 29  1  0  0  0  0
 28 32  1  0  0  0  0
 30 26  1  0  0  0  0
 31 28  2  0  0  0  0
 31 30  1  0  0  0  0
 32 29  2  0  0  0  0
M  END
>  <MODEL>
1

>  <REMARK>
 VINA RESULT:      -7.3      0.000      0.000
  Name = 
  4 active torsions:
  status: ('A' for Active; 'I' for Inactive)
    1  A    between atoms: C_1  and  C_21
    2  A    between atoms: C_2  and  C_19
    3  A    between atoms: N_14  and  C_18
    4  A    between atoms: C_18  and  C_23
                            x       y       z     vdW  Elec       q    Type
                         _______ _______ _______ _____ _____    ______ ____

>  <TORSDO>
F 4

$$$$
=
 OpenBabel11042413073D

 32 35  0  0  1  0  0  0  0  0999 V2000
  180.9420  178.3140  140.8290 C   0  0  1  0  0  3  0  0  0  0  0  0
  178.9310  177.1130  141.3230 O   0  0  0  0  0  0  0  0  0  0  0  0
  182.2120  178.9190  142.9320 C   0  0  0  0  0  0  0  0  0  0  0  0
  182.2370  178.5900  141.5620 C   0  0  0  0  0  0  0  0  0  0  0  0
  179.9520  178.1010  143.1320 O   0  0  0  0  0  0  0  0  0  0  0  0
  180.9030  179.0290  143.6540 C   0  0  0  0  0  2  0  0  0  0  0  0
  184.6480  178.8300  141.6100 C   0  0  0  0  0  3  0  0  0  0  0  0
  179.8800  177.8120  141.7660 C   0  0  0  0  0  0  0  0  0  0  0  0
  183.4770  178.5420  140.8970 C   0  0  0  0  0  0  0  0  0  0  0  0
  183.3680  179.1990  143.5900 N   0  0  0  0  0  0  0  0  0  0  0  0
  184.5730  179.1570  142.9640 C   0  0  0  0  0  3  0  0  0  0  0  0
  183.5500  178.2150  139.4330 C   0  0  2  0  0  3  0  0  0  0  0  0
  183.5740  176.7000  139.2000 C   0  0  0  0  0  2  0  0  0  0  0  0
  185.9600  178.2420  138.6660 C   0  0  0  0  0  0  0  0  0  0  0  0
  184.9630  176.5090  137.1420 C   0  0  0  0  0  3  0  0  0  0  0  0
  187.6170  175.7830  136.5130 N   0  0  0  0  0  0  0  0  0  0  0  0
  186.9250  178.6040  139.3920 O   0  0  0  0  0  0  0  0  0  0  0  0
  184.6710  179.0000  138.7410 C   0  0  0  0  0  2  0  0  0  0  0  0
  186.1050  177.1350  137.7590 N   0  0  0  0  0  0  0  0  0  0  0  0
  187.4240  176.7430  137.3600 C   0  0  0  0  0  3  0  0  0  0  0  0
  183.7930  176.3330  137.7640 C   0  0  0  0  0  3  0  0  0  0  0  0
  188.9600  175.3960  136.1130 C   0  0  0  0  0  2  0  0  0  0  0  0
  189.3550  173.3610  137.2900 O   0  0  0  0  0  0  0  0  0  0  0  0
  190.5550  175.1950  138.0590 N   0  0  0  0  0  1  0  0  0  0  0  0
  189.6120  174.5880  137.1830 C   0  0  0  0  0  0  0  0  0  0  0  0
  180.7870  180.4220  137.7290 C   0  0  0  0  0  3  0  0  0  0  0  0
  180.6180  179.3970  138.5640 C   0  0  0  0  0  3  0  0  0  0  0  0
  179.2780  181.7240  140.0370 C   0  0  0  0  0  3  0  0  0  0  0  0
  180.4770  179.5000  140.0330 C   0  0  0  0  0  0  0  0  0  0  0  0
  180.9400  181.8320  138.1920 C   0  0  0  0  0  2  0  0  0  0  0  0
  179.7270  182.3010  138.9230 C   0  0  0  0  0  3  0  0  0  0  0  0
  179.8440  180.5110  140.6570 C   0  0  0  0  0  3  0  0  0  0  0  0
  1 29  1  1  0  0  0
  1  4  1  0  0  0  0
  1  8  1  0  0  0  0
  2  8  2  0  0  0  0
  3 10  1  0  0  0  0
  3  6  1  0  0  0  0
  4  3  2  0  0  0  0
  5  6  1  0  0  0  0
  7 11  1  0  0  0  0
  8  5  1  0  0  0  0
  9  4  1  0  0  0  0
  9  7  2  0  0  0  0
 11 10  2  0  0  0  0
 12  9  1  1  0  0  0
 13 12  1  0  0  0  0
 14 18  1  0  0  0  0
 14 17  2  0  0  0  0
 15 19  1  0  0  0  0
 15 21  2  0  0  0  0
 16 20  2  0  0  0  0
 18 12  1  0  0  0  0
 19 14  1  0  0  0  0
 20 19  1  0  0  0  0
 21 13  1  0  0  0  0
 22 16  1  0  0  0  0
 22 25  1  0  0  0  0
 25 23  2  0  0  0  0
 25 24  1  0  0  0  0
 26 30  1  0  0  0  0
 26 27  2  0  0  0  0
 27 29  1  0  0  0  0
 28 32  1  0  0  0  0
 29 32  2  0  0  0  0
 30 31  1  0  0  0  0
 31 28  2  0  0  0  0
M  END
>  <MODEL>
2

>  <REMARK>
 VINA RESULT:      -7.2      4.072      5.450
  Name = 
  4 active torsions:
  status: ('A' for Active; 'I' for Inactive)
    1  A    between atoms: C_1  and  C_21
    2  A    between atoms: C_2  and  C_19
    3  A    between atoms: N_14  and  C_18
    4  A    between atoms: C_18  and  C_23
                            x       y       z     vdW  Elec       q    Type
                         _______ _______ _______ _____ _____    ______ ____

>  <TORSDO>
F 4

$$$$
=
 OpenBabel11042413073D

 32 35  0  0  1  0  0  0  0  0999 V2000
  181.9610  177.8810  138.0780 C   0  0  1  0  0  3  0  0  0  0  0  0
  183.0930  176.8950  136.2130 O   0  0  0  0  0  0  0  0  0  0  0  0
  179.9550  176.5120  138.7870 C   0  0  0  0  0  0  0  0  0  0  0  0
  181.0040  177.3840  139.1400 C   0  0  0  0  0  0  0  0  0  0  0  0
  181.0230  176.0090  136.6830 O   0  0  0  0  0  0  0  0  0  0  0  0
  179.7680  176.1030  137.3570 C   0  0  0  0  0  2  0  0  0  0  0  0
  180.2020  177.3260  141.4270 C   0  0  0  0  0  3  0  0  0  0  0  0
  182.0620  176.9100  136.9360 C   0  0  0  0  0  0  0  0  0  0  0  0
  181.1270  177.7910  140.4820 C   0  0  0  0  0  0  0  0  0  0  0  0
  179.0720  176.0860  139.7290 N   0  0  0  0  0  0  0  0  0  0  0  0
  179.1770  176.4680  141.0290 C   0  0  0  0  0  3  0  0  0  0  0  0
  182.2180  178.7350  140.9010 C   0  0  2  0  0  3  0  0  0  0  0  0
  183.5710  178.0200  140.9900 C   0  0  0  0  0  2  0  0  0  0  0  0
  182.2840  178.9060  143.4230 C   0  0  0  0  0  0  0  0  0  0  0  0
  184.7000  179.2670  142.8270 C   0  0  0  0  0  3  0  0  0  0  0  0
  185.2610  178.8410  145.5600 N   0  0  0  0  0  0  0  0  0  0  0  0
  181.4380  178.3690  144.1870 O   0  0  0  0  0  0  0  0  0  0  0  0
  181.8160  179.5340  142.1470 C   0  0  0  0  0  2  0  0  0  0  0  0
  183.6760  178.9390  143.7860 N   0  0  0  0  0  0  0  0  0  0  0  0
  184.0300  178.7770  145.1660 C   0  0  0  0  0  3  0  0  0  0  0  0
  184.6560  178.8930  141.5450 C   0  0  0  0  0  3  0  0  0  0  0  0
  185.6070  178.6780  146.9620 C   0  0  0  0  0  2  0  0  0  0  0  0
  187.4820  177.4700  146.1180 O   0  0  0  0  0  0  0  0  0  0  0  0
  187.6660  178.1590  148.3280 N   0  0  0  0  0  1  0  0  0  0  0  0
  186.9560  178.0560  147.0990 C   0  0  0  0  0  0  0  0  0  0  0  0
  181.7930  181.6070  138.4770 C   0  0  0  0  0  3  0  0  0  0  0  0
  182.2860  180.3790  138.3260 C   0  0  0  0  0  3  0  0  0  0  0  0
  180.4710  180.7050  135.8820 C   0  0  0  0  0  3  0  0  0  0  0  0
  181.6210  179.2680  137.6120 C   0  0  0  0  0  0  0  0  0  0  0  0
  180.4360  182.0030  138.0010 C   0  0  0  0  0  2  0  0  0  0  0  0
  180.3140  181.8640  136.5210 C   0  0  0  0  0  3  0  0  0  0  0  0
  180.8630  179.4300  136.5120 C   0  0  0  0  0  3  0  0  0  0  0  0
  1 29  1  6  0  0  0
  1  4  1  0  0  0  0
  2  8  2  0  0  0  0
  3  4  2  0  0  0  0
  3 10  1  0  0  0  0
  4  9  1  0  0  0  0
  5  8  1  0  0  0  0
  5  6  1  0  0  0  0
  6  3  1  0  0  0  0
  8  1  1  0  0  0  0
  9  7  2  0  0  0  0
 10 11  2  0  0  0  0
 11  7  1  0  0  0  0
 12  9  1  1  0  0  0
 12 13  1  0  0  0  0
 12 18  1  0  0  0  0
 13 21  1  0  0  0  0
 14 19  1  0  0  0  0
 14 17  2  0  0  0  0
 15 19  1  0  0  0  0
 16 22  1  0  0  0  0
 18 14  1  0  0  0  0
 19 20  1  0  0  0  0
 20 16  2  0  0  0  0
 21 15  2  0  0  0  0
 22 25  1  0  0  0  0
 23 25  2  0  0  0  0
 25 24  1  0  0  0  0
 27 26  2  0  0  0  0
 28 32  1  0  0  0  0
 28 31  2  0  0  0  0
 29 27  1  0  0  0  0
 30 26  1  0  0  0  0
 31 30  1  0  0  0  0
 32 29  2  0  0  0  0
M  END
>  <MODEL>
3

>  <REMARK>
 VINA RESULT:      -6.7      1.963      2.683
  Name = 
  4 active torsions:
  status: ('A' for Active; 'I' for Inactive)
    1  A    between atoms: C_1  and  C_21
    2  A    between atoms: C_2  and  C_19
    3  A    between atoms: N_14  and  C_18
    4  A    between atoms: C_18  and  C_23
                            x       y       z     vdW  Elec       q    Type
                         _______ _______ _______ _____ _____    ______ ____

>  <TORSDO>
F 4

$$$$
=
 OpenBabel11042413073D

 32 35  0  0  1  0  0  0  0  0999 V2000
  184.2230  179.2460  138.8820 C   0  0  1  0  0  3  0  0  0  0  0  0
  183.0590  181.3340  139.0140 O   0  0  0  0  0  0  0  0  0  0  0  0
  182.9240  177.5320  137.5500 C   0  0  0  0  0  0  0  0  0  0  0  0
  184.1690  178.0420  137.9680 C   0  0  0  0  0  0  0  0  0  0  0  0
  181.8170  179.5690  138.2190 O   0  0  0  0  0  0  0  0  0  0  0  0
  181.6530  178.1620  138.0370 C   0  0  0  0  0  2  0  0  0  0  0  0
  185.2470  176.2720  136.7110 C   0  0  0  0  0  3  0  0  0  0  0  0
  183.0050  180.1120  138.7180 C   0  0  0  0  0  0  0  0  0  0  0  0
  185.3450  177.4000  137.5350 C   0  0  0  0  0  0  0  0  0  0  0  0
  182.8660  176.4320  136.7540 N   0  0  0  0  0  0  0  0  0  0  0  0
  183.9910  175.8010  136.3270 C   0  0  0  0  0  3  0  0  0  0  0  0
  186.6940  177.8960  137.9710 C   0  0  2  0  0  3  0  0  0  0  0  0
  187.4140  178.6300  136.8340 C   0  0  0  0  0  2  0  0  0  0  0  0
  188.4120  176.0590  137.7030 C   0  0  0  0  0  0  0  0  0  0  0  0
  189.8040  178.1170  137.3100 C   0  0  0  0  0  3  0  0  0  0  0  0
  191.7770  176.3780  136.2860 N   0  0  0  0  0  0  0  0  0  0  0  0
  188.1310  174.8760  137.3720 O   0  0  0  0  0  0  0  0  0  0  0  0
  187.5050  176.7840  138.6490 C   0  0  0  0  0  2  0  0  0  0  0  0
  189.6030  176.6940  137.2020 N   0  0  0  0  0  0  0  0  0  0  0  0
  190.6650  175.8680  136.7100 C   0  0  0  0  0  3  0  0  0  0  0  0
  188.8200  179.0120  137.1840 C   0  0  0  0  0  3  0  0  0  0  0  0
  192.8500  175.5290  135.7930 C   0  0  0  0  0  2  0  0  0  0  0  0
  194.8490  176.8220  135.9200 O   0  0  0  0  0  0  0  0  0  0  0  0
  194.5750  175.2580  137.6160 N   0  0  0  0  0  1  0  0  0  0  0  0
  194.1480  175.9070  136.4230 C   0  0  0  0  0  0  0  0  0  0  0  0
  183.0760  178.2530  142.3140 C   0  0  0  0  0  3  0  0  0  0  0  0
  183.3200  178.2030  141.0050 C   0  0  0  0  0  3  0  0  0  0  0  0
  186.1000  178.6280  142.2170 C   0  0  0  0  0  3  0  0  0  0  0  0
  184.4520  178.8610  140.3160 C   0  0  0  0  0  0  0  0  0  0  0  0
  183.8890  179.0680  143.2620 C   0  0  0  0  0  2  0  0  0  0  0  0
  185.3100  178.6160  143.2900 C   0  0  0  0  0  3  0  0  0  0  0  0
  185.6790  178.9970  140.8510 C   0  0  0  0  0  3  0  0  0  0  0  0
  1 29  1  1  0  0  0
  3  4  1  0  0  0  0
  3  6  1  0  0  0  0
  4  1  1  0  0  0  0
  5  8  1  0  0  0  0
  6  5  1  0  0  0  0
  7  9  1  0  0  0  0
  8  1  1  0  0  0  0
  8  2  2  0  0  0  0
  9  4  2  0  0  0  0
 10  3  2  0  0  0  0
 11  7  2  0  0  0  0
 11 10  1  0  0  0  0
 12  9  1  6  0  0  0
 12 18  1  0  0  0  0
 13 21  1  0  0  0  0
 13 12  1  0  0  0  0
 14 18  1  0  0  0  0
 16 20  2  0  0  0  0
 17 14  2  0  0  0  0
 19 15  1  0  0  0  0
 19 14  1  0  0  0  0
 20 19  1  0  0  0  0
 21 15  2  0  0  0  0
 22 16  1  0  0  0  0
 22 25  1  0  0  0  0
 23 25  2  0  0  0  0
 25 24  1  0  0  0  0
 26 30  1  0  0  0  0
 27 26  2  0  0  0  0
 28 31  2  0  0  0  0
 29 32  2  0  0  0  0
 29 27  1  0  0  0  0
 30 31  1  0  0  0  0
 32 28  1  0  0  0  0
M  END
>  <MODEL>
4

>  <REMARK>
 VINA RESULT:      -6.6      5.728      7.388
  Name = 
  4 active torsions:
  status: ('A' for Active; 'I' for Inactive)
    1  A    between atoms: C_1  and  C_21
    2  A    between atoms: C_2  and  C_19
    3  A    between atoms: N_14  and  C_18
    4  A    between atoms: C_18  and  C_23
                            x       y       z     vdW  Elec       q    Type
                         _______ _______ _______ _____ _____    ______ ____

>  <TORSDO>
F 4

$$$$
=
 OpenBabel11042413073D

 32 35  0  0  1  0  0  0  0  0999 V2000
  189.6060  175.0570  136.9630 C   0  0  1  0  0  3  0  0  0  0  0  0
  189.3800  172.6870  137.2170 O   0  0  0  0  0  0  0  0  0  0  0  0
  187.8790  175.9970  135.3720 C   0  0  0  0  0  0  0  0  0  0  0  0
  188.7030  176.1790  136.5000 C   0  0  0  0  0  0  0  0  0  0  0  0
  188.1770  173.6060  135.4860 O   0  0  0  0  0  0  0  0  0  0  0  0
  187.9210  174.7050  134.6120 C   0  0  0  0  0  2  0  0  0  0  0  0
  187.8470  178.4390  136.6850 C   0  0  0  0  0  3  0  0  0  0  0  0
  189.0590  173.7150  136.5660 C   0  0  0  0  0  0  0  0  0  0  0  0
  188.6790  177.4190  137.1650 C   0  0  0  0  0  0  0  0  0  0  0  0
  187.0880  177.0100  134.9300 N   0  0  0  0  0  0  0  0  0  0  0  0
  187.0520  178.2130  135.5610 C   0  0  0  0  0  3  0  0  0  0  0  0
  189.5550  177.6660  138.3600 C   0  0  2  0  0  3  0  0  0  0  0  0
  189.7870  176.3780  139.1570 C   0  0  0  0  0  2  0  0  0  0  0  0
  188.1500  178.4660  140.3050 C   0  0  0  0  0  0  0  0  0  0  0  0
  189.9960  177.2350  141.4860 C   0  0  0  0  0  3  0  0  0  0  0  0
  188.3680  177.3510  143.7890 N   0  0  0  0  0  0  0  0  0  0  0  0
  186.9200  178.7320  140.2220 O   0  0  0  0  0  0  0  0  0  0  0  0
  189.0560  178.8620  139.1800 C   0  0  0  0  0  2  0  0  0  0  0  0
  188.6780  177.8170  141.4750 N   0  0  0  0  0  0  0  0  0  0  0  0
  187.9250  177.8780  142.6930 C   0  0  0  0  0  3  0  0  0  0  0  0
  190.5350  176.6090  140.4350 C   0  0  0  0  0  3  0  0  0  0  0  0
  187.5960  177.4210  145.0190 C   0  0  0  0  0  2  0  0  0  0  0  0
  189.7480  177.5440  146.0370 O   0  0  0  0  0  0  0  0  0  0  0  0
  187.9550  177.5700  147.5130 N   0  0  0  0  0  1  0  0  0  0  0  0
  188.5010  177.5020  146.2010 C   0  0  0  0  0  0  0  0  0  0  0  0
  193.3180  175.1550  137.4990 C   0  0  0  0  0  3  0  0  0  0  0  0
  192.0740  174.6900  137.3880 C   0  0  0  0  0  3  0  0  0  0  0  0
  192.5820  175.9780  134.6570 C   0  0  0  0  0  3  0  0  0  0  0  0
  191.0250  175.2450  136.5060 C   0  0  0  0  0  0  0  0  0  0  0  0
  193.7960  176.3760  136.7890 C   0  0  0  0  0  2  0  0  0  0  0  0
  193.7210  176.2110  135.3080 C   0  0  0  0  0  3  0  0  0  0  0  0
  191.2660  175.7660  135.2890 C   0  0  0  0  0  3  0  0  0  0  0  0
  1 29  1  6  0  0  0
  3  4  1  0  0  0  0
  4  1  1  0  0  0  0
  4  9  2  0  0  0  0
  5  8  1  0  0  0  0
  6  3  1  0  0  0  0
  6  5  1  0  0  0  0
  7  9  1  0  0  0  0
  8  1  1  0  0  0  0
  8  2  2  0  0  0  0
 10  3  2  0  0  0  0
 10 11  1  0  0  0  0
 11  7  2  0  0  0  0
 12  9  1  6  0  0  0
 12 13  1  0  0  0  0
 12 18  1  0  0  0  0
 13 21  1  0  0  0  0
 14 19  1  0  0  0  0
 16 22  1  0  0  0  0
 17 14  2  0  0  0  0
 18 14  1  0  0  0  0
 19 15  1  0  0  0  0
 19 20  1  0  0  0  0
 20 16  2  0  0  0  0
 21 15  2  0  0  0  0
 22 25  1  0  0  0  0
 23 25  2  0  0  0  0
 25 24  1  0  0  0  0
 27 26  2  0  0  0  0
 28 32  1  0  0  0  0
 28 31  2  0  0  0  0
 29 27  1  0  0  0  0
 30 26  1  0  0  0  0
 31 30  1  0  0  0  0
 32 29  2  0  0  0  0
M  END
>  <MODEL>
5

>  <REMARK>
 VINA RESULT:      -6.4      6.724      8.659
  Name = 
  4 active torsions:
  status: ('A' for Active; 'I' for Inactive)
    1  A    between atoms: C_1  and  C_21
    2  A    between atoms: C_2  and  C_19
    3  A    between atoms: N_14  and  C_18
    4  A    between atoms: C_18  and  C_23
                            x       y       z     vdW  Elec       q    Type
                         _______ _______ _______ _____ _____    ______ ____

>  <TORSDO>
F 4

$$$$
=
 OpenBabel11042413073D

 32 35  0  0  1  0  0  0  0  0999 V2000
  181.5930  178.6490  139.8330 C   0  0  1  0  0  3  0  0  0  0  0  0
  181.5050  177.3870  137.8000 O   0  0  0  0  0  0  0  0  0  0  0  0
  179.8370  177.8870  141.4860 C   0  0  0  0  0  0  0  0  0  0  0  0
  181.1130  178.4370  141.2520 C   0  0  0  0  0  0  0  0  0  0  0  0
  179.7070  177.1070  139.2070 O   0  0  0  0  0  0  0  0  0  0  0  0
  178.9440  177.5430  140.3320 C   0  0  0  0  0  2  0  0  0  0  0  0
  181.4150  178.6050  143.6510 C   0  0  0  0  0  3  0  0  0  0  0  0
  180.9370  177.6870  138.8840 C   0  0  0  0  0  0  0  0  0  0  0  0
  181.9110  178.7960  142.3550 C   0  0  0  0  0  0  0  0  0  0  0  0
  179.3860  177.7210  142.7580 N   0  0  0  0  0  0  0  0  0  0  0  0
  180.1430  178.0620  143.8330 C   0  0  0  0  0  3  0  0  0  0  0  0
  183.2700  179.4040  142.1530 C   0  0  2  0  0  3  0  0  0  0  0  0
  184.1360  178.5420  141.2280 C   0  0  0  0  0  2  0  0  0  0  0  0
  184.8110  178.7080  144.0340 C   0  0  0  0  0  0  0  0  0  0  0  0
  186.4240  178.9510  142.1210 C   0  0  0  0  0  3  0  0  0  0  0  0
  188.2800  177.5660  143.7340 N   0  0  0  0  0  0  0  0  0  0  0  0
  184.4360  178.0530  145.0440 O   0  0  0  0  0  0  0  0  0  0  0  0
  183.9170  179.7800  143.4920 C   0  0  0  0  0  2  0  0  0  0  0  0
  186.0900  178.4470  143.4290 N   0  0  0  0  0  0  0  0  0  0  0  0
  187.0960  177.7890  144.2080 C   0  0  0  0  0  3  0  0  0  0  0  0
  185.5450  179.0380  141.1180 C   0  0  0  0  0  3  0  0  0  0  0  0
  189.2940  176.9000  144.5360 C   0  0  0  0  0  2  0  0  0  0  0  0
  190.8250  178.0050  143.0790 O   0  0  0  0  0  0  0  0  0  0  0  0
  191.7490  176.3300  144.3960 N   0  0  0  0  0  1  0  0  0  0  0  0
  190.6480  177.1110  143.9470 C   0  0  0  0  0  0  0  0  0  0  0  0
  179.5820  181.7210  139.0640 C   0  0  0  0  0  3  0  0  0  0  0  0
  180.1610  180.7350  139.7470 C   0  0  0  0  0  3  0  0  0  0  0  0
  182.5260  182.1190  138.3770 C   0  0  0  0  0  3  0  0  0  0  0  0
  181.4360  180.0760  139.3880 C   0  0  0  0  0  0  0  0  0  0  0  0
  180.1180  182.2420  137.7730 C   0  0  0  0  0  2  0  0  0  0  0  0
  181.4810  182.8240  137.9430 C   0  0  0  0  0  3  0  0  0  0  0  0
  182.4790  180.7140  138.8270 C   0  0  0  0  0  3  0  0  0  0  0  0
  1 29  1  6  0  0  0
  1  4  1  0  0  0  0
  2  8  2  0  0  0  0
  3 10  1  0  0  0  0
  4  3  2  0  0  0  0
  4  9  1  0  0  0  0
  5  6  1  0  0  0  0
  6  3  1  0  0  0  0
  7 11  1  0  0  0  0
  8  5  1  0  0  0  0
  8  1  1  0  0  0  0
  9  7  2  0  0  0  0
 10 11  2  0  0  0  0
 12  9  1  1  0  0  0
 12 18  1  0  0  0  0
 13 12  1  0  0  0  0
 14 17  2  0  0  0  0
 15 19  1  0  0  0  0
 16 20  2  0  0  0  0
 16 22  1  0  0  0  0
 18 14  1  0  0  0  0
 19 14  1  0  0  0  0
 19 20  1  0  0  0  0
 21 13  1  0  0  0  0
 21 15  2  0  0  0  0
 23 25  2  0  0  0  0
 25 24  1  0  0  0  0
 25 22  1  0  0  0  0
 26 27  2  0  0  0  0
 28 32  1  0  0  0  0
 29 27  1  0  0  0  0
 30 31  1  0  0  0  0
 30 26  1  0  0  0  0
 31 28  2  0  0  0  0
 32 29  2  0  0  0  0
M  END
>  <MODEL>
6

>  <REMARK>
 VINA RESULT:      -6.3      1.436      1.822
  Name = 
  4 active torsions:
  status: ('A' for Active; 'I' for Inactive)
    1  A    between atoms: C_1  and  C_21
    2  A    between atoms: C_2  and  C_19
    3  A    between atoms: N_14  and  C_18
    4  A    between atoms: C_18  and  C_23
                            x       y       z     vdW  Elec       q    Type
                         _______ _______ _______ _____ _____    ______ ____

>  <TORSDO>
F 4

$$$$
=
 OpenBabel11042413073D

 32 35  0  0  1  0  0  0  0  0999 V2000
  189.5440  175.2930  137.4740 C   0  0  1  0  0  3  0  0  0  0  0  0
  189.7640  172.9110  137.3710 O   0  0  0  0  0  0  0  0  0  0  0  0
  187.4510  176.0920  136.2980 C   0  0  0  0  0  0  0  0  0  0  0  0
  188.4030  176.2740  137.3210 C   0  0  0  0  0  0  0  0  0  0  0  0
  188.1620  173.8080  135.9860 O   0  0  0  0  0  0  0  0  0  0  0  0
  187.5880  174.9450  135.3410 C   0  0  0  0  0  2  0  0  0  0  0  0
  187.2190  178.2850  137.9800 C   0  0  0  0  0  3  0  0  0  0  0  0
  189.1740  173.9370  136.9420 C   0  0  0  0  0  0  0  0  0  0  0  0
  188.2770  177.3870  138.1740 C   0  0  0  0  0  0  0  0  0  0  0  0
  186.4410  176.9860  136.1350 N   0  0  0  0  0  0  0  0  0  0  0  0
  186.3050  178.0650  136.9490 C   0  0  0  0  0  3  0  0  0  0  0  0
  189.2790  177.6330  139.2660 C   0  0  2  0  0  3  0  0  0  0  0  0
  189.5710  176.3520  140.0550 C   0  0  0  0  0  2  0  0  0  0  0  0
  188.1020  178.4870  141.3360 C   0  0  0  0  0  0  0  0  0  0  0  0
  190.0410  177.2370  142.3350 C   0  0  0  0  0  3  0  0  0  0  0  0
  188.6680  177.4160  144.7950 N   0  0  0  0  0  0  0  0  0  0  0  0
  186.8750  178.7750  141.3790 O   0  0  0  0  0  0  0  0  0  0  0  0
  188.8910  178.8500  140.1160 C   0  0  0  0  0  2  0  0  0  0  0  0
  188.7400  177.8440  142.4540 N   0  0  0  0  0  0  0  0  0  0  0  0
  188.1200  177.9360  143.7430 C   0  0  0  0  0  3  0  0  0  0  0  0
  190.4540  176.5860  141.2430 C   0  0  0  0  0  3  0  0  0  0  0  0
  188.0310  177.5180  146.0980 C   0  0  0  0  0  2  0  0  0  0  0  0
  188.8810  178.3090  148.1800 O   0  0  0  0  0  0  0  0  0  0  0  0
  190.2190  176.7500  147.0970 N   0  0  0  0  0  1  0  0  0  0  0  0
  189.0580  177.5680  147.1790 C   0  0  0  0  0  0  0  0  0  0  0  0
  191.7010  176.3590  134.5940 C   0  0  0  0  0  3  0  0  0  0  0  0
  190.7190  176.3490  135.4960 C   0  0  0  0  0  3  0  0  0  0  0  0
  193.2500  176.4010  137.2200 C   0  0  0  0  0  3  0  0  0  0  0  0
  190.8200  175.8070  136.8680 C   0  0  0  0  0  0  0  0  0  0  0  0
  193.0340  175.7340  134.8350 C   0  0  0  0  0  2  0  0  0  0  0  0
  193.7390  176.3790  135.9810 C   0  0  0  0  0  3  0  0  0  0  0  0
  191.9300  175.8810  137.6250 C   0  0  0  0  0  3  0  0  0  0  0  0
  1 29  1  6  0  0  0
  3  4  1  0  0  0  0
  4  1  1  0  0  0  0
  4  9  2  0  0  0  0
  5  8  1  0  0  0  0
  6  5  1  0  0  0  0
  6  3  1  0  0  0  0
  7  9  1  0  0  0  0
  8  2  2  0  0  0  0
  8  1  1  0  0  0  0
 10  3  2  0  0  0  0
 10 11  1  0  0  0  0
 11  7  2  0  0  0  0
 12  9  1  6  0  0  0
 12 13  1  0  0  0  0
 12 18  1  0  0  0  0
 13 21  1  0  0  0  0
 14 17  2  0  0  0  0
 14 19  1  0  0  0  0
 15 19  1  0  0  0  0
 16 22  1  0  0  0  0
 18 14  1  0  0  0  0
 19 20  1  0  0  0  0
 20 16  2  0  0  0  0
 21 15  2  0  0  0  0
 22 25  1  0  0  0  0
 24 25  1  0  0  0  0
 25 23  2  0  0  0  0
 26 30  1  0  0  0  0
 26 27  2  0  0  0  0
 27 29  1  0  0  0  0
 28 32  1  0  0  0  0
 29 32  2  0  0  0  0
 30 31  1  0  0  0  0
 31 28  2  0  0  0  0
M  END
>  <MODEL>
7

>  <REMARK>
 VINA RESULT:      -6.3      6.283      8.154
  Name = 
  4 active torsions:
  status: ('A' for Active; 'I' for Inactive)
    1  A    between atoms: C_1  and  C_21
    2  A    between atoms: C_2  and  C_19
    3  A    between atoms: N_14  and  C_18
    4  A    between atoms: C_18  and  C_23
                            x       y       z     vdW  Elec       q    Type
                         _______ _______ _______ _____ _____    ______ ____

>  <TORSDO>
F 4

$$$$
=
 OpenBabel11042413073D

 32 35  0  0  1  0  0  0  0  0999 V2000
  193.9550  173.7760  137.0120 C   0  0  1  0  0  3  0  0  0  0  0  0
  195.4670  173.0640  138.7270 O   0  0  0  0  0  0  0  0  0  0  0  0
  192.9850  171.8140  135.7450 C   0  0  0  0  0  0  0  0  0  0  0  0
  192.8330  173.1280  136.2310 C   0  0  0  0  0  0  0  0  0  0  0  0
  194.8530  171.4360  137.2230 O   0  0  0  0  0  0  0  0  0  0  0  0
  194.2680  171.0720  135.9730 C   0  0  0  0  0  2  0  0  0  0  0  0
  190.6360  173.1880  135.2100 C   0  0  0  0  0  3  0  0  0  0  0  0
  194.8070  172.7480  137.7030 C   0  0  0  0  0  0  0  0  0  0  0  0
  191.6370  173.8190  135.9600 C   0  0  0  0  0  0  0  0  0  0  0  0
  191.9940  171.2360  135.0150 N   0  0  0  0  0  0  0  0  0  0  0  0
  190.8330  171.8880  134.7450 C   0  0  0  0  0  3  0  0  0  0  0  0
  191.4390  175.2280  136.4410 C   0  0  2  0  0  3  0  0  0  0  0  0
  190.9810  175.2600  137.9040 C   0  0  0  0  0  2  0  0  0  0  0  0
  189.1190  176.0280  135.8290 C   0  0  0  0  0  0  0  0  0  0  0  0
  189.5470  177.2950  137.9590 C   0  0  0  0  0  3  0  0  0  0  0  0
  186.7820  177.8620  137.9750 N   0  0  0  0  0  0  0  0  0  0  0  0
  188.3140  175.3700  135.1170 O   0  0  0  0  0  0  0  0  0  0  0  0
  190.5720  176.0340  135.4670 C   0  0  0  0  0  2  0  0  0  0  0  0
  188.6450  176.7830  136.9590 N   0  0  0  0  0  0  0  0  0  0  0  0
  187.2590  177.1470  137.0070 C   0  0  0  0  0  3  0  0  0  0  0  0
  190.6330  176.6380  138.3770 C   0  0  0  0  0  3  0  0  0  0  0  0
  185.3750  178.2270  138.0120 C   0  0  0  0  0  2  0  0  0  0  0  0
  185.7270  178.9160  140.2670 O   0  0  0  0  0  0  0  0  0  0  0  0
  184.1230  180.1280  139.1040 N   0  0  0  0  0  1  0  0  0  0  0  0
  185.0890  179.0880  139.1960 C   0  0  0  0  0  0  0  0  0  0  0  0
  196.9210  174.6470  134.8860 C   0  0  0  0  0  3  0  0  0  0  0  0
  195.7870  174.0780  135.2910 C   0  0  0  0  0  3  0  0  0  0  0  0
  195.1180  177.0660  135.3240 C   0  0  0  0  0  3  0  0  0  0  0  0
  194.7730  174.7090  136.1640 C   0  0  0  0  0  0  0  0  0  0  0  0
  197.3620  175.9970  135.3410 C   0  0  0  0  0  2  0  0  0  0  0  0
  196.3920  177.0540  134.9320 C   0  0  0  0  0  3  0  0  0  0  0  0
  194.4630  176.0180  136.1300 C   0  0  0  0  0  3  0  0  0  0  0  0
  1 29  1  6  0  0  0
  1  8  1  0  0  0  0
  3  6  1  0  0  0  0
  3  4  1  0  0  0  0
  4  1  1  0  0  0  0
  5  8  1  0  0  0  0
  6  5  1  0  0  0  0
  7  9  1  0  0  0  0
  8  2  2  0  0  0  0
  9  4  2  0  0  0  0
 10  3  2  0  0  0  0
 11 10  1  0  0  0  0
 11  7  2  0  0  0  0
 12  9  1  6  0  0  0
 12 13  1  0  0  0  0
 13 21  1  0  0  0  0
 14 19  1  0  0  0  0
 15 21  2  0  0  0  0
 16 22  1  0  0  0  0
 17 14  2  0  0  0  0
 18 14  1  0  0  0  0
 18 12  1  0  0  0  0
 19 20  1  0  0  0  0
 19 15  1  0  0  0  0
 20 16  2  0  0  0  0
 22 25  1  0  0  0  0
 24 25  1  0  0  0  0
 25 23  2  0  0  0  0
 26 27  2  0  0  0  0
 26 30  1  0  0  0  0
 27 29  1  0  0  0  0
 28 32  1  0  0  0  0
 31 28  2  0  0  0  0
 31 30  1  0  0  0  0
 32 29  2  0  0  0  0
M  END
>  <MODEL>
8

>  <REMARK>
 VINA RESULT:      -6.0      9.715     12.791
  Name = 
  4 active torsions:
  status: ('A' for Active; 'I' for Inactive)
    1  A    between atoms: C_1  and  C_21
    2  A    between atoms: C_2  and  C_19
    3  A    between atoms: N_14  and  C_18
    4  A    between atoms: C_18  and  C_23
                            x       y       z     vdW  Elec       q    Type
                         _______ _______ _______ _____ _____    ______ ____

>  <TORSDO>
F 4

$$$$
=
 OpenBabel11042413073D

 32 35  0  0  1  0  0  0  0  0999 V2000
  189.2330  177.8890  138.0650 C   0  0  1  0  0  3  0  0  0  0  0  0
  189.1080  180.2290  137.5740 O   0  0  0  0  0  0  0  0  0  0  0  0
  187.4530  176.5770  136.8370 C   0  0  0  0  0  0  0  0  0  0  0  0
  188.7450  176.6230  137.3960 C   0  0  0  0  0  0  0  0  0  0  0  0
  187.3010  178.9850  136.8840 O   0  0  0  0  0  0  0  0  0  0  0  0
  186.5510  177.7710  136.9340 C   0  0  0  0  0  2  0  0  0  0  0  0
  189.0500  174.3130  136.7280 C   0  0  0  0  0  3  0  0  0  0  0  0
  188.5490  179.1030  137.5030 C   0  0  0  0  0  0  0  0  0  0  0  0
  189.5530  175.4720  137.3340 C   0  0  0  0  0  0  0  0  0  0  0  0
  186.9950  175.4340  136.2620 N   0  0  0  0  0  0  0  0  0  0  0  0
  187.7620  174.3140  136.1930 C   0  0  0  0  0  3  0  0  0  0  0  0
  190.9300  175.4670  137.9340 C   0  0  2  0  0  3  0  0  0  0  0  0
  191.7700  176.6380  137.4120 C   0  0  0  0  0  2  0  0  0  0  0  0
  192.4460  173.9470  136.5970 C   0  0  0  0  0  0  0  0  0  0  0  0
  194.0690  175.6790  137.4270 C   0  0  0  0  0  3  0  0  0  0  0  0
  195.8790  174.6470  135.5220 N   0  0  0  0  0  0  0  0  0  0  0  0
  192.0500  173.2160  135.6490 O   0  0  0  0  0  0  0  0  0  0  0  0
  191.5860  174.0860  137.8150 C   0  0  0  0  0  2  0  0  0  0  0  0
  193.7170  174.6160  136.5190 N   0  0  0  0  0  0  0  0  0  0  0  0
  194.7020  174.1150  135.6060 C   0  0  0  0  0  3  0  0  0  0  0  0
  193.1950  176.5860  137.8740 C   0  0  0  0  0  3  0  0  0  0  0  0
  196.8700  174.1280  134.5940 C   0  0  0  0  0  2  0  0  0  0  0  0
  198.9490  173.0650  135.0800 O   0  0  0  0  0  0  0  0  0  0  0  0
  198.6810  175.1770  136.0070 N   0  0  0  0  0  1  0  0  0  0  0  0
  198.2140  174.0730  135.2410 C   0  0  0  0  0  0  0  0  0  0  0  0
  190.4340  176.8940  141.4770 C   0  0  0  0  0  3  0  0  0  0  0  0
  190.3660  177.5080  140.2970 C   0  0  0  0  0  3  0  0  0  0  0  0
  187.6880  178.2140  141.6050 C   0  0  0  0  0  3  0  0  0  0  0  0
  189.1210  177.8200  139.5620 C   0  0  0  0  0  0  0  0  0  0  0  0
  189.2360  176.3580  142.1860 C   0  0  0  0  0  2  0  0  0  0  0  0
  188.2700  177.4440  142.5240 C   0  0  0  0  0  3  0  0  0  0  0  0
  187.9660  178.1720  140.1560 C   0  0  0  0  0  3  0  0  0  0  0  0
  1 29  1  1  0  0  0
  3  6  1  0  0  0  0
  3  4  1  0  0  0  0
  4  1  1  0  0  0  0
  5  6  1  0  0  0  0
  5  8  1  0  0  0  0
  7  9  1  0  0  0  0
  8  2  2  0  0  0  0
  8  1  1  0  0  0  0
  9  4  2  0  0  0  0
 10  3  2  0  0  0  0
 11 10  1  0  0  0  0
 11  7  2  0  0  0  0
 12  9  1  6  0  0  0
 13 21  1  0  0  0  0
 13 12  1  0  0  0  0
 14 18  1  0  0  0  0
 15 21  2  0  0  0  0
 16 20  2  0  0  0  0
 17 14  2  0  0  0  0
 18 12  1  0  0  0  0
 19 14  1  0  0  0  0
 19 15  1  0  0  0  0
 20 19  1  0  0  0  0
 22 25  1  0  0  0  0
 22 16  1  0  0  0  0
 23 25  2  0  0  0  0
 25 24  1  0  0  0  0
 26 30  1  0  0  0  0
 27 26  2  0  0  0  0
 28 31  2  0  0  0  0
 29 32  2  0  0  0  0
 29 27  1  0  0  0  0
 30 31  1  0  0  0  0
 32 28  1  0  0  0  0
M  END
>  <MODEL>
9

>  <REMARK>
 VINA RESULT:      -6.0      8.623     10.695
  Name = 
  4 active torsions:
  status: ('A' for Active; 'I' for Inactive)
    1  A    between atoms: C_1  and  C_21
    2  A    between atoms: C_2  and  C_19
    3  A    between atoms: N_14  and  C_18
    4  A    between atoms: C_18  and  C_23
                            x       y       z     vdW  Elec       q    Type
                         _______ _______ _______ _____ _____    ______ ____

>  <TORSDO>
F 4

$$$$
