=
 OpenBabel11042410433D

 38 40  0  0  1  0  0  0  0  0999 V2000
  183.7660  178.7810  139.3720 C   0  0  0  0  0  0  0  0  0  0  0  0
  185.6440  178.7810  140.5640 C   0  0  0  0  0  3  0  0  0  0  0  0
  183.4470  178.8830  140.7100 C   0  0  0  0  0  3  0  0  0  0  0  0
  185.1380  178.7240  139.2810 C   0  0  0  0  0  0  0  0  0  0  0  0
  184.6000  178.8700  141.4100 N   0  0  0  0  0  0  0  0  0  0  0  0
  182.8010  178.7900  138.2380 C   0  0  0  0  0  2  0  0  0  0  0  0
  181.5060  179.4510  138.6690 C   0  0  0  0  0  2  0  0  0  0  0  0
  181.3980  184.1950  137.4100 C   0  0  0  0  0  3  0  0  0  0  0  0
  180.2090  183.0860  135.0850 C   0  0  0  0  0  3  0  0  0  0  0  0
  180.3970  184.4720  135.1960 C   0  0  0  0  0  3  0  0  0  0  0  0
  181.5540  181.9140  138.2370 N   0  0  0  0  0  0  0  0  0  0  0  0
  180.5330  180.6190  136.3000 S   0  0  0  0  0  0  0  0  0  0  0  0
  180.9890  185.0240  136.3500 C   0  0  0  0  0  3  0  0  0  0  0  0
  181.2060  182.8190  137.2890 C   0  0  0  0  0  0  0  0  0  0  0  0
  180.6260  182.2870  136.1450 C   0  0  0  0  0  0  0  0  0  0  0  0
  181.2450  180.6570  137.8360 C   0  0  0  0  0  0  0  0  0  0  0  0
  185.8660  178.6280  138.0910 O   0  0  0  0  0  0  0  0  0  0  0  0
  186.1690  177.3810  137.4760 C   0  0  0  0  0  2  0  0  0  0  0  0
  187.6000  177.1260  137.5180 N   0  0  0  0  0  2  0  0  0  0  0  0
  188.2700  178.4020  137.7080 C   0  0  0  0  0  2  0  0  0  0  0  0
  189.3870  178.2460  138.7210 C   0  0  0  0  0  2  0  0  0  0  0  0
  188.9530  177.3750  139.7990 N   0  0  0  0  0  2  0  0  0  0  0  0
  189.9620  177.4540  140.8410 C   0  0  0  0  0  2  0  0  0  0  0  0
  189.3180  177.8970  142.1440 C   0  0  1  0  0  3  0  0  0  0  0  0
  188.6070  176.7500  142.7820 C   0  0  0  0  0  0  0  0  0  0  0  0
  189.3010  175.5820  143.0670 O   0  0  0  0  0  0  0  0  0  0  0  0
  187.3830  176.8360  143.0730 O   0  0  0  0  0  1  0  0  0  0  0  0
  190.2910  178.3960  143.0150 O   0  0  0  0  0  0  0  0  0  0  0  0
  191.4380  178.0000  142.5000 O   0  0  0  0  0  1  0  0  0  0  0  0
  184.7070  178.9600  142.8570 C   0  0  0  0  0  2  0  0  0  0  0  0
  183.3280  178.9220  143.5070 C   0  0  0  0  0  2  0  0  0  0  0  0
  183.4240  178.9030  145.0260 C   0  0  0  0  0  2  0  0  0  0  0  0
  184.8600  179.1280  145.4750 C   0  0  0  0  0  2  0  0  0  0  0  0
  185.1910  178.2240  146.6520 C   0  0  0  0  0  2  0  0  0  0  0  0
  186.6260  178.3550  147.0490 C   0  0  0  0  0  3  0  0  0  0  0  0
  187.5710  177.6360  146.4600 C   0  0  0  0  0  3  0  0  0  0  0  0
  189.8590  176.8860  146.5170 C   0  0  0  0  0  2  0  0  0  0  0  0
  188.9640  177.7990  146.8580 C   0  0  0  0  0  3  0  0  0  0  0  0
  1  3  2  0  0  0  0
  2  5  1  0  0  0  0
  3  5  1  0  0  0  0
  4  1  1  0  0  0  0
  4  2  2  0  0  0  0
  5 30  1  0  0  0  0
  6  7  1  0  0  0  0
  6  1  1  0  0  0  0
  9 10  2  0  0  0  0
  9 15  1  0  0  0  0
 10 13  1  0  0  0  0
 12 16  1  0  0  0  0
 13  8  2  0  0  0  0
 14  8  1  0  0  0  0
 14 11  1  0  0  0  0
 15 12  1  0  0  0  0
 15 14  2  0  0  0  0
 16 11  2  0  0  0  0
 16  7  1  0  0  0  0
 17  4  1  0  0  0  0
 18 19  1  0  0  0  0
 18 17  1  0  0  0  0
 19 20  1  0  0  0  0
 20 21  1  0  0  0  0
 21 22  1  0  0  0  0
 22 23  1  0  0  0  0
 24 23  1  6  0  0  0
 24 25  1  0  0  0  0
 24 28  1  0  0  0  0
 25 26  2  0  0  0  0
 25 27  1  0  0  0  0
 29 28  1  0  0  0  0
 30 31  1  0  0  0  0
 31 32  1  0  0  0  0
 32 33  1  0  0  0  0
 33 34  1  0  0  0  0
 34 35  1  0  0  0  0
 36 38  1  0  0  0  0
 36 35  2  0  0  0  0
 37 38  2  0  0  0  0
M  END
>  <MODEL>
1

>  <REMARK>
 VINA RESULT:      -7.0      0.000      0.000
  Name = 
  20 active torsions:
  status: ('A' for Active; 'I' for Inactive)
    1  A    between atoms: C_2  and  C_20
    2  A    between atoms: C_4  and  C_32
    3  A    between atoms: C_4  and  C_36
    4  A    between atoms: C_5  and  C_32
    5  A    between atoms: C_7  and  C_13
    6  A    between atoms: N_8  and  C_24
    7  A    between atoms: N_8  and  C_37
    8  A    between atoms: C_10  and  C_11
    9  A    between atoms: C_10  and  N_38
   10  A    between atoms: C_11  and  C_33
   11  A    between atoms: C_13  and  C_19
   12  A    between atoms: C_14  and  C_35
   13  A    between atoms: N_15  and  C_16
   14  A    between atoms: N_15  and  C_18
   15  A    between atoms: C_16  and  C_24
   16  A    between atoms: C_18  and  O_30
   17  A    between atoms: C_19  and  C_33
   18  A    between atoms: C_20  and  O_21
   19  A    between atoms: C_20  and  C_37
   20  A    between atoms: C_28  and  O_30
                            x       y       z     vdW  Elec       q    Type
                         _______ _______ _______ _____ _____    ______ ____

>  <TORSDO>
F 20

$$$$
=
 OpenBabel11042410433D

 38 40  0  0  1  0  0  0  0  0999 V2000
  184.4680  178.4000  143.3990 C   0  0  0  0  0  0  0  0  0  0  0  0
  183.5570  178.9760  145.3450 C   0  0  0  0  0  3  0  0  0  0  0  0
  185.4050  178.2350  144.3980 C   0  0  0  0  0  3  0  0  0  0  0  0
  183.3130  178.8570  143.9920 C   0  0  0  0  0  0  0  0  0  0  0  0
  184.8320  178.6000  145.5630 N   0  0  0  0  0  0  0  0  0  0  0  0
  184.6600  178.0860  141.9560 C   0  0  0  0  0  2  0  0  0  0  0  0
  185.4690  179.1840  141.2920 C   0  0  0  0  0  2  0  0  0  0  0  0
  188.7370  177.6950  137.9460 C   0  0  0  0  0  3  0  0  0  0  0  0
  190.2060  177.1080  140.3020 C   0  0  0  0  0  3  0  0  0  0  0  0
  190.7530  176.8410  139.0360 C   0  0  0  0  0  3  0  0  0  0  0  0
  186.9770  178.4910  139.4210 N   0  0  0  0  0  0  0  0  0  0  0  0
  188.0300  178.0910  141.7020 S   0  0  0  0  0  0  0  0  0  0  0  0
  190.0250  177.1340  137.8650 C   0  0  0  0  0  3  0  0  0  0  0  0
  188.2040  177.9560  139.2080 C   0  0  0  0  0  0  0  0  0  0  0  0
  188.9330  177.6680  140.3540 C   0  0  0  0  0  0  0  0  0  0  0  0
  186.7370  178.6270  140.7490 C   0  0  0  0  0  0  0  0  0  0  0  0
  182.1190  179.1400  143.3230 O   0  0  0  0  0  0  0  0  0  0  0  0
  180.8490  178.7140  143.8060 C   0  0  0  0  0  2  0  0  0  0  0  0
  179.8210  178.9370  142.8000 N   0  0  0  0  0  2  0  0  0  0  0  0
  179.8460  177.8070  141.8860 C   0  0  0  0  0  2  0  0  0  0  0  0
  179.1670  178.1890  140.5850 C   0  0  0  0  0  2  0  0  0  0  0  0
  179.9690  177.7360  139.4620 N   0  0  0  0  0  2  0  0  0  0  0  0
  181.3420  177.6500  139.9280 C   0  0  0  0  0  2  0  0  0  0  0  0
  182.2300  177.1250  138.8120 C   0  0  1  0  0  3  0  0  0  0  0  0
  183.1570  178.1980  138.3450 C   0  0  0  0  0  0  0  0  0  0  0  0
  184.3030  177.8580  137.6380 O   0  0  0  0  0  0  0  0  0  0  0  0
  182.9040  179.4110  138.5800 O   0  0  0  0  0  1  0  0  0  0  0  0
  182.9650  176.0240  139.2600 O   0  0  0  0  0  0  0  0  0  0  0  0
  182.7470  175.0860  138.3600 O   0  0  0  0  0  1  0  0  0  0  0  0
  185.4810  178.5740  146.8640 C   0  0  0  0  0  2  0  0  0  0  0  0
  186.8920  178.0070  146.7560 C   0  0  0  0  0  2  0  0  0  0  0  0
  187.5820  177.9550  148.1120 C   0  0  0  0  0  2  0  0  0  0  0  0
  189.0920  178.0280  147.9480 C   0  0  0  0  0  2  0  0  0  0  0  0
  189.5910  176.8340  147.1480 C   0  0  0  0  0  2  0  0  0  0  0  0
  190.4650  177.2690  146.0160 C   0  0  0  0  0  3  0  0  0  0  0  0
  190.0430  178.1490  145.1190 C   0  0  0  0  0  3  0  0  0  0  0  0
  191.7670  177.6970  143.4980 C   0  0  0  0  0  2  0  0  0  0  0  0
  190.9250  178.5650  144.0350 C   0  0  0  0  0  3  0  0  0  0  0  0
  1  4  1  0  0  0  0
  1  3  2  0  0  0  0
  2  5  1  0  0  0  0
  3  5  1  0  0  0  0
  4  2  2  0  0  0  0
  5 30  1  0  0  0  0
  6  1  1  0  0  0  0
  7  6  1  0  0  0  0
  8 14  1  0  0  0  0
  9 15  1  0  0  0  0
 10  9  2  0  0  0  0
 11 16  2  0  0  0  0
 13  8  2  0  0  0  0
 13 10  1  0  0  0  0
 14 11  1  0  0  0  0
 14 15  2  0  0  0  0
 15 12  1  0  0  0  0
 16  7  1  0  0  0  0
 16 12  1  0  0  0  0
 17 18  1  0  0  0  0
 17  4  1  0  0  0  0
 19 18  1  0  0  0  0
 20 19  1  0  0  0  0
 21 20  1  0  0  0  0
 22 23  1  0  0  0  0
 22 21  1  0  0  0  0
 24 28  1  0  0  0  0
 24 23  1  1  0  0  0
 25 27  1  0  0  0  0
 25 24  1  0  0  0  0
 26 25  2  0  0  0  0
 29 28  1  0  0  0  0
 31 30  1  0  0  0  0
 31 32  1  0  0  0  0
 33 32  1  0  0  0  0
 34 33  1  0  0  0  0
 35 34  1  0  0  0  0
 36 35  2  0  0  0  0
 37 38  2  0  0  0  0
 38 36  1  0  0  0  0
M  END
>  <MODEL>
2

>  <REMARK>
 VINA RESULT:      -7.0      4.184      7.626
  Name = 
  20 active torsions:
  status: ('A' for Active; 'I' for Inactive)
    1  A    between atoms: C_2  and  C_20
    2  A    between atoms: C_4  and  C_32
    3  A    between atoms: C_4  and  C_36
    4  A    between atoms: C_5  and  C_32
    5  A    between atoms: C_7  and  C_13
    6  A    between atoms: N_8  and  C_24
    7  A    between atoms: N_8  and  C_37
    8  A    between atoms: C_10  and  C_11
    9  A    between atoms: C_10  and  N_38
   10  A    between atoms: C_11  and  C_33
   11  A    between atoms: C_13  and  C_19
   12  A    between atoms: C_14  and  C_35
   13  A    between atoms: N_15  and  C_16
   14  A    between atoms: N_15  and  C_18
   15  A    between atoms: C_16  and  C_24
   16  A    between atoms: C_18  and  O_30
   17  A    between atoms: C_19  and  C_33
   18  A    between atoms: C_20  and  O_21
   19  A    between atoms: C_20  and  C_37
   20  A    between atoms: C_28  and  O_30
                            x       y       z     vdW  Elec       q    Type
                         _______ _______ _______ _____ _____    ______ ____

>  <TORSDO>
F 20

$$$$
=
 OpenBabel11042410433D

 38 40  0  0  1  0  0  0  0  0999 V2000
  189.1640  177.5600  140.2270 C   0  0  0  0  0  0  0  0  0  0  0  0
  189.0800  177.0330  138.0670 C   0  0  0  0  0  3  0  0  0  0  0  0
  187.9400  177.9440  139.7190 C   0  0  0  0  0  3  0  0  0  0  0  0
  189.8720  176.9850  139.1960 C   0  0  0  0  0  0  0  0  0  0  0  0
  187.9190  177.6230  138.4090 N   0  0  0  0  0  0  0  0  0  0  0  0
  189.6070  177.6930  141.6420 C   0  0  0  0  0  2  0  0  0  0  0  0
  189.1320  176.4970  142.4450 C   0  0  0  0  0  2  0  0  0  0  0  0
  187.0630  177.9310  146.6600 C   0  0  0  0  0  3  0  0  0  0  0  0
  189.7320  177.5910  147.5610 C   0  0  0  0  0  3  0  0  0  0  0  0
  188.7290  178.0140  148.4480 C   0  0  0  0  0  3  0  0  0  0  0  0
  187.8720  177.2410  144.4730 N   0  0  0  0  0  0  0  0  0  0  0  0
  190.3350  176.8390  144.9660 S   0  0  0  0  0  0  0  0  0  0  0  0
  187.4030  178.1810  148.0010 C   0  0  0  0  0  3  0  0  0  0  0  0
  188.0680  177.5120  145.7880 C   0  0  0  0  0  0  0  0  0  0  0  0
  189.3700  177.3460  146.2400 C   0  0  0  0  0  0  0  0  0  0  0  0
  189.0320  176.8560  143.8860 C   0  0  0  0  0  0  0  0  0  0  0  0
  191.1610  176.4540  139.2990 O   0  0  0  0  0  0  0  0  0  0  0  0
  191.9280  176.0740  138.1620 C   0  0  0  0  0  2  0  0  0  0  0  0
  191.9260  174.6270  138.0070 N   0  0  0  0  0  2  0  0  0  0  0  0
  191.8550  174.3360  136.5850 C   0  0  0  0  0  2  0  0  0  0  0  0
  193.0220  173.4530  136.1860 C   0  0  0  0  0  2  0  0  0  0  0  0
  194.1300  174.2780  135.7390 N   0  0  0  0  0  2  0  0  0  0  0  0
  195.3290  173.7580  136.3730 C   0  0  0  0  0  2  0  0  0  0  0  0
  195.8690  174.7780  137.3610 C   0  0  1  0  0  3  0  0  0  0  0  0
  195.6230  174.3170  138.7600 C   0  0  0  0  0  0  0  0  0  0  0  0
  195.5630  175.2450  139.7910 O   0  0  0  0  0  1  0  0  0  0  0  0
  195.4590  173.0920  139.0120 O   0  0  0  0  0  0  0  0  0  0  0  0
  197.2390  174.9660  137.1580 O   0  0  0  0  0  0  0  0  0  0  0  0
  197.3190  176.0150  136.3650 O   0  0  0  0  0  1  0  0  0  0  0  0
  186.8060  177.8580  137.5040 C   0  0  0  0  0  2  0  0  0  0  0  0
  185.6070  178.4290  138.2530 C   0  0  0  0  0  2  0  0  0  0  0  0
  184.3740  177.5500  138.0930 C   0  0  0  0  0  2  0  0  0  0  0  0
  183.5440  177.5550  139.3670 C   0  0  0  0  0  2  0  0  0  0  0  0
  184.0030  178.6730  140.2890 C   0  0  0  0  0  2  0  0  0  0  0  0
  184.0720  178.2110  141.7090 C   0  0  0  0  0  3  0  0  0  0  0  0
  184.4880  179.0170  142.6750 C   0  0  0  0  0  3  0  0  0  0  0  0
  183.6320  178.9710  144.9270 C   0  0  0  0  0  2  0  0  0  0  0  0
  184.5290  178.5420  144.0530 C   0  0  0  0  0  3  0  0  0  0  0  0
  1  6  1  0  0  0  0
  2  5  1  0  0  0  0
  2  4  2  0  0  0  0
  3  1  2  0  0  0  0
  4 17  1  0  0  0  0
  4  1  1  0  0  0  0
  5  3  1  0  0  0  0
  6  7  1  0  0  0  0
  7 16  1  0  0  0  0
  8 13  1  0  0  0  0
  9 10  1  0  0  0  0
 11 14  1  0  0  0  0
 12 15  1  0  0  0  0
 13 10  2  0  0  0  0
 14 15  1  0  0  0  0
 14  8  2  0  0  0  0
 15  9  2  0  0  0  0
 16 11  2  0  0  0  0
 16 12  1  0  0  0  0
 18 17  1  0  0  0  0
 19 18  1  0  0  0  0
 20 19  1  0  0  0  0
 21 20  1  0  0  0  0
 22 21  1  0  0  0  0
 22 23  1  0  0  0  0
 24 23  1  6  0  0  0
 24 25  1  0  0  0  0
 25 27  2  0  0  0  0
 25 26  1  0  0  0  0
 28 24  1  0  0  0  0
 29 28  1  0  0  0  0
 30 31  1  0  0  0  0
 30  5  1  0  0  0  0
 32 31  1  0  0  0  0
 32 33  1  0  0  0  0
 33 34  1  0  0  0  0
 34 35  1  0  0  0  0
 35 36  2  0  0  0  0
 36 38  1  0  0  0  0
 38 37  2  0  0  0  0
M  END
>  <MODEL>
3

>  <REMARK>
 VINA RESULT:      -7.0      4.578      8.939
  Name = 
  20 active torsions:
  status: ('A' for Active; 'I' for Inactive)
    1  A    between atoms: C_2  and  C_20
    2  A    between atoms: C_4  and  C_32
    3  A    between atoms: C_4  and  C_36
    4  A    between atoms: C_5  and  C_32
    5  A    between atoms: C_7  and  C_13
    6  A    between atoms: N_8  and  C_24
    7  A    between atoms: N_8  and  C_37
    8  A    between atoms: C_10  and  C_11
    9  A    between atoms: C_10  and  N_38
   10  A    between atoms: C_11  and  C_33
   11  A    between atoms: C_13  and  C_19
   12  A    between atoms: C_14  and  C_35
   13  A    between atoms: N_15  and  C_16
   14  A    between atoms: N_15  and  C_18
   15  A    between atoms: C_16  and  C_24
   16  A    between atoms: C_18  and  O_30
   17  A    between atoms: C_19  and  C_33
   18  A    between atoms: C_20  and  O_21
   19  A    between atoms: C_20  and  C_37
   20  A    between atoms: C_28  and  O_30
                            x       y       z     vdW  Elec       q    Type
                         _______ _______ _______ _____ _____    ______ ____

>  <TORSDO>
F 20

$$$$
=
 OpenBabel11042410433D

 38 40  0  0  1  0  0  0  0  0999 V2000
  184.1540  178.5440  141.3640 C   0  0  0  0  0  0  0  0  0  0  0  0
  183.4340  179.3230  139.4080 C   0  0  0  0  0  3  0  0  0  0  0  0
  182.7790  178.6480  141.4020 C   0  0  0  0  0  3  0  0  0  0  0  0
  184.5610  178.9600  140.1170 C   0  0  0  0  0  0  0  0  0  0  0  0
  182.3700  179.1310  140.2110 N   0  0  0  0  0  0  0  0  0  0  0  0
  185.0240  178.0230  142.4540 C   0  0  0  0  0  2  0  0  0  0  0  0
  184.4940  178.4800  143.8000 C   0  0  0  0  0  2  0  0  0  0  0  0
  188.7860  177.1750  145.7930 C   0  0  0  0  0  3  0  0  0  0  0  0
  187.5170  178.2240  148.1040 C   0  0  0  0  0  3  0  0  0  0  0  0
  188.8200  177.7050  148.1800 C   0  0  0  0  0  3  0  0  0  0  0  0
  186.7450  177.7400  144.5980 N   0  0  0  0  0  0  0  0  0  0  0  0
  185.3470  178.7500  146.4680 S   0  0  0  0  0  0  0  0  0  0  0  0
  189.4510  177.1850  147.0320 C   0  0  0  0  0  3  0  0  0  0  0  0
  187.4930  177.6930  145.7290 C   0  0  0  0  0  0  0  0  0  0  0  0
  186.8830  178.2070  146.8650 C   0  0  0  0  0  0  0  0  0  0  0  0
  185.5350  178.2980  144.8470 C   0  0  0  0  0  0  0  0  0  0  0  0
  185.8860  178.9960  139.6710 O   0  0  0  0  0  0  0  0  0  0  0  0
  186.3610  178.1730  138.6110 C   0  0  0  0  0  2  0  0  0  0  0  0
  187.7610  178.4570  138.3340 N   0  0  0  0  0  2  0  0  0  0  0  0
  188.4380  177.1860  138.1340 C   0  0  0  0  0  2  0  0  0  0  0  0
  189.9380  177.4060  138.1080 C   0  0  0  0  0  2  0  0  0  0  0  0
  190.4150  177.6910  139.4500 N   0  0  0  0  0  2  0  0  0  0  0  0
  189.9660  176.6020  140.3000 C   0  0  0  0  0  2  0  0  0  0  0  0
  190.4510  176.8290  141.7220 C   0  0  1  0  0  3  0  0  0  0  0  0
  189.7390  177.9950  142.3270 C   0  0  0  0  0  0  0  0  0  0  0  0
  188.4470  178.2980  141.9200 O   0  0  0  0  0  0  0  0  0  0  0  0
  190.2980  178.6990  143.2110 O   0  0  0  0  0  1  0  0  0  0  0  0
  190.2310  175.6850  142.4940 O   0  0  0  0  0  0  0  0  0  0  0  0
  191.1540  175.7310  143.4330 O   0  0  0  0  0  1  0  0  0  0  0  0
  180.9890  179.3880  139.8370 C   0  0  0  0  0  2  0  0  0  0  0  0
  180.8140  180.8250  139.3570 C   0  0  0  0  0  2  0  0  0  0  0  0
  180.0500  180.8890  138.0420 C   0  0  0  0  0  2  0  0  0  0  0  0
  180.9940  180.7080  136.8650 C   0  0  0  0  0  2  0  0  0  0  0  0
  180.4440  181.4170  135.6360 C   0  0  0  0  0  2  0  0  0  0  0  0
  180.1360  182.8500  135.9300 C   0  0  0  0  0  3  0  0  0  0  0  0
  181.1030  183.7380  136.1100 C   0  0  0  0  0  3  0  0  0  0  0  0
  179.8200  185.4290  137.2490 C   0  0  0  0  0  2  0  0  0  0  0  0
  180.7700  185.1320  136.3780 C   0  0  0  0  0  3  0  0  0  0  0  0
  1  3  2  0  0  0  0
  1  6  1  0  0  0  0
  2  4  2  0  0  0  0
  2  5  1  0  0  0  0
  4  1  1  0  0  0  0
  5  3  1  0  0  0  0
  6  7  1  0  0  0  0
  7 16  1  0  0  0  0
  8 13  1  0  0  0  0
  9 10  1  0  0  0  0
 11 16  2  0  0  0  0
 11 14  1  0  0  0  0
 12 15  1  0  0  0  0
 13 10  2  0  0  0  0
 14  8  2  0  0  0  0
 14 15  1  0  0  0  0
 15  9  2  0  0  0  0
 16 12  1  0  0  0  0
 17  4  1  0  0  0  0
 18 17  1  0  0  0  0
 19 18  1  0  0  0  0
 20 19  1  0  0  0  0
 21 20  1  0  0  0  0
 21 22  1  0  0  0  0
 22 23  1  0  0  0  0
 24 23  1  6  0  0  0
 24 25  1  0  0  0  0
 24 28  1  0  0  0  0
 25 27  1  0  0  0  0
 26 25  2  0  0  0  0
 28 29  1  0  0  0  0
 30  5  1  0  0  0  0
 31 30  1  0  0  0  0
 32 31  1  0  0  0  0
 33 32  1  0  0  0  0
 34 35  1  0  0  0  0
 34 33  1  0  0  0  0
 35 36  2  0  0  0  0
 36 38  1  0  0  0  0
 38 37  2  0  0  0  0
M  END
>  <MODEL>
4

>  <REMARK>
 VINA RESULT:      -6.9      2.314      8.743
  Name = 
  20 active torsions:
  status: ('A' for Active; 'I' for Inactive)
    1  A    between atoms: C_2  and  C_20
    2  A    between atoms: C_4  and  C_32
    3  A    between atoms: C_4  and  C_36
    4  A    between atoms: C_5  and  C_32
    5  A    between atoms: C_7  and  C_13
    6  A    between atoms: N_8  and  C_24
    7  A    between atoms: N_8  and  C_37
    8  A    between atoms: C_10  and  C_11
    9  A    between atoms: C_10  and  N_38
   10  A    between atoms: C_11  and  C_33
   11  A    between atoms: C_13  and  C_19
   12  A    between atoms: C_14  and  C_35
   13  A    between atoms: N_15  and  C_16
   14  A    between atoms: N_15  and  C_18
   15  A    between atoms: C_16  and  C_24
   16  A    between atoms: C_18  and  O_30
   17  A    between atoms: C_19  and  C_33
   18  A    between atoms: C_20  and  O_21
   19  A    between atoms: C_20  and  C_37
   20  A    between atoms: C_28  and  O_30
                            x       y       z     vdW  Elec       q    Type
                         _______ _______ _______ _____ _____    ______ ____

>  <TORSDO>
F 20

$$$$
=
 OpenBabel11042410433D

 38 40  0  0  1  0  0  0  0  0999 V2000
  189.0600  177.2000  139.4010 C   0  0  0  0  0  0  0  0  0  0  0  0
  188.1210  176.6070  137.4730 C   0  0  0  0  0  3  0  0  0  0  0  0
  187.9600  178.0010  139.1730 C   0  0  0  0  0  3  0  0  0  0  0  0
  189.1550  176.3250  138.3420 C   0  0  0  0  0  0  0  0  0  0  0  0
  187.4170  177.6290  137.9960 N   0  0  0  0  0  0  0  0  0  0  0  0
  189.9410  177.2410  140.6000 C   0  0  0  0  0  2  0  0  0  0  0  0
  189.3720  178.2040  141.6250 C   0  0  0  0  0  2  0  0  0  0  0  0
  188.9800  177.3120  146.4360 C   0  0  0  0  0  3  0  0  0  0  0  0
  191.7050  176.6110  146.0690 C   0  0  0  0  0  3  0  0  0  0  0  0
  191.1110  176.5190  147.3370 C   0  0  0  0  0  3  0  0  0  0  0  0
  188.9440  177.8170  144.0580 N   0  0  0  0  0  0  0  0  0  0  0  0
  191.3400  177.2630  143.4030 S   0  0  0  0  0  0  0  0  0  0  0  0
  189.7560  176.8650  147.5200 C   0  0  0  0  0  3  0  0  0  0  0  0
  189.5810  177.4000  145.1810 C   0  0  0  0  0  0  0  0  0  0  0  0
  190.9150  177.0510  145.0120 C   0  0  0  0  0  0  0  0  0  0  0  0
  189.7850  177.7950  142.9950 C   0  0  0  0  0  0  0  0  0  0  0  0
  190.1330  175.3370  138.1970 O   0  0  0  0  0  0  0  0  0  0  0  0
  190.9270  175.2100  137.0220 C   0  0  0  0  0  2  0  0  0  0  0  0
  191.9920  176.2010  137.0180 N   0  0  0  0  0  2  0  0  0  0  0  0
  192.7870  175.9890  135.8190 C   0  0  0  0  0  2  0  0  0  0  0  0
  194.2490  176.2490  136.1240 C   0  0  0  0  0  2  0  0  0  0  0  0
  194.6440  175.5030  137.3050 N   0  0  0  0  0  2  0  0  0  0  0  0
  194.9850  174.1610  136.8660 C   0  0  0  0  0  2  0  0  0  0  0  0
  195.9370  173.5220  137.8630 C   0  0  1  0  0  3  0  0  0  0  0  0
  196.7390  174.5750  138.5540 C   0  0  0  0  0  0  0  0  0  0  0  0
  197.7850  175.1950  137.8840 O   0  0  0  0  0  0  0  0  0  0  0  0
  196.4680  174.9140  139.7390 O   0  0  0  0  0  1  0  0  0  0  0  0
  195.2200  172.7780  138.8040 O   0  0  0  0  0  0  0  0  0  0  0  0
  195.4880  171.5210  138.5130 O   0  0  0  0  0  1  0  0  0  0  0  0
  186.2370  178.2230  137.3890 C   0  0  0  0  0  2  0  0  0  0  0  0
  184.9830  177.8730  138.1820 C   0  0  0  0  0  2  0  0  0  0  0  0
  184.5030  179.0490  139.0220 C   0  0  0  0  0  2  0  0  0  0  0  0
  184.2480  178.6130  140.4560 C   0  0  0  0  0  2  0  0  0  0  0  0
  185.3740  179.0930  141.3590 C   0  0  0  0  0  2  0  0  0  0  0  0
  185.0900  178.7780  142.7930 C   0  0  0  0  0  3  0  0  0  0  0  0
  183.9800  179.2010  143.3830 C   0  0  0  0  0  3  0  0  0  0  0  0
  184.7330  178.7350  145.6230 C   0  0  0  0  0  2  0  0  0  0  0  0
  183.7230  178.8640  144.7780 C   0  0  0  0  0  3  0  0  0  0  0  0
  1  6  1  0  0  0  0
  2  5  1  0  0  0  0
  2  4  2  0  0  0  0
  3  1  2  0  0  0  0
  4  1  1  0  0  0  0
  5  3  1  0  0  0  0
  6  7  1  0  0  0  0
  7 16  1  0  0  0  0
  8 13  1  0  0  0  0
  9 10  1  0  0  0  0
 10 13  2  0  0  0  0
 11 14  1  0  0  0  0
 12 15  1  0  0  0  0
 14  8  2  0  0  0  0
 15 14  1  0  0  0  0
 15  9  2  0  0  0  0
 16 12  1  0  0  0  0
 16 11  2  0  0  0  0
 17  4  1  0  0  0  0
 18 17  1  0  0  0  0
 19 18  1  0  0  0  0
 20 21  1  0  0  0  0
 20 19  1  0  0  0  0
 21 22  1  0  0  0  0
 23 22  1  0  0  0  0
 24 23  1  6  0  0  0
 24 25  1  0  0  0  0
 24 28  1  0  0  0  0
 25 27  1  0  0  0  0
 26 25  2  0  0  0  0
 29 28  1  0  0  0  0
 30  5  1  0  0  0  0
 30 31  1  0  0  0  0
 31 32  1  0  0  0  0
 32 33  1  0  0  0  0
 33 34  1  0  0  0  0
 34 35  1  0  0  0  0
 35 36  2  0  0  0  0
 36 38  1  0  0  0  0
 38 37  2  0  0  0  0
M  END
>  <MODEL>
5

>  <REMARK>
 VINA RESULT:      -6.8      4.589      9.039
  Name = 
  20 active torsions:
  status: ('A' for Active; 'I' for Inactive)
    1  A    between atoms: C_2  and  C_20
    2  A    between atoms: C_4  and  C_32
    3  A    between atoms: C_4  and  C_36
    4  A    between atoms: C_5  and  C_32
    5  A    between atoms: C_7  and  C_13
    6  A    between atoms: N_8  and  C_24
    7  A    between atoms: N_8  and  C_37
    8  A    between atoms: C_10  and  C_11
    9  A    between atoms: C_10  and  N_38
   10  A    between atoms: C_11  and  C_33
   11  A    between atoms: C_13  and  C_19
   12  A    between atoms: C_14  and  C_35
   13  A    between atoms: N_15  and  C_16
   14  A    between atoms: N_15  and  C_18
   15  A    between atoms: C_16  and  C_24
   16  A    between atoms: C_18  and  O_30
   17  A    between atoms: C_19  and  C_33
   18  A    between atoms: C_20  and  O_21
   19  A    between atoms: C_20  and  C_37
   20  A    between atoms: C_28  and  O_30
                            x       y       z     vdW  Elec       q    Type
                         _______ _______ _______ _____ _____    ______ ____

>  <TORSDO>
F 20

$$$$
=
 OpenBabel11042410433D

 38 40  0  0  1  0  0  0  0  0999 V2000
  183.8110  178.7110  140.8310 C   0  0  0  0  0  0  0  0  0  0  0  0
  185.9590  178.7150  141.4100 C   0  0  0  0  0  3  0  0  0  0  0  0
  183.9100  178.4690  142.1860 C   0  0  0  0  0  3  0  0  0  0  0  0
  185.0900  178.8710  140.3490 C   0  0  0  0  0  0  0  0  0  0  0  0
  185.2200  178.4670  142.5080 N   0  0  0  0  0  0  0  0  0  0  0  0
  182.5470  178.8330  140.0540 C   0  0  0  0  0  2  0  0  0  0  0  0
  181.7200  177.5720  140.2120 C   0  0  0  0  0  2  0  0  0  0  0  0
  184.0910  174.1080  137.6660 C   0  0  0  0  0  3  0  0  0  0  0  0
  181.9520  174.6040  135.8690 C   0  0  0  0  0  3  0  0  0  0  0  0
  182.9350  173.6510  135.5600 C   0  0  0  0  0  3  0  0  0  0  0  0
  183.0850  175.7990  139.0940 N   0  0  0  0  0  0  0  0  0  0  0  0
  181.0560  176.4660  137.7110 S   0  0  0  0  0  0  0  0  0  0  0  0
  183.9970  173.4030  136.4530 C   0  0  0  0  0  3  0  0  0  0  0  0
  183.1080  175.0530  137.9620 C   0  0  0  0  0  0  0  0  0  0  0  0
  182.0640  175.2850  137.0770 C   0  0  0  0  0  0  0  0  0  0  0  0
  182.0110  176.6270  139.1000 C   0  0  0  0  0  0  0  0  0  0  0  0
  185.4230  179.1440  139.0200 O   0  0  0  0  0  0  0  0  0  0  0  0
  185.6710  178.1180  138.0650 C   0  0  0  0  0  2  0  0  0  0  0  0
  186.6220  178.5740  137.0620 N   0  0  0  0  0  2  0  0  0  0  0  0
  187.8760  177.8770  137.2930 C   0  0  0  0  0  2  0  0  0  0  0  0
  188.9400  178.8700  137.7200 C   0  0  0  0  0  2  0  0  0  0  0  0
  189.0020  178.9280  139.1700 N   0  0  0  0  0  2  0  0  0  0  0  0
  188.9930  177.5580  139.6520 C   0  0  0  0  0  2  0  0  0  0  0  0
  190.4150  177.1040  139.9330 C   0  0  1  0  0  3  0  0  0  0  0  0
  190.6130  176.9140  141.4010 C   0  0  0  0  0  0  0  0  0  0  0  0
  191.8170  177.2800  141.9860 O   0  0  0  0  0  0  0  0  0  0  0  0
  189.6910  176.4330  142.1150 O   0  0  0  0  0  1  0  0  0  0  0  0
  190.6800  175.9080  139.2590 O   0  0  0  0  0  0  0  0  0  0  0  0
  191.7440  176.1650  138.5250 O   0  0  0  0  0  1  0  0  0  0  0  0
  185.7580  178.2500  143.8410 C   0  0  0  0  0  2  0  0  0  0  0  0
  184.9450  179.0080  144.8860 C   0  0  0  0  0  2  0  0  0  0  0  0
  185.5120  178.8170  146.2850 C   0  0  0  0  0  2  0  0  0  0  0  0
  186.6870  177.8530  146.2600 C   0  0  0  0  0  2  0  0  0  0  0  0
  187.3960  177.8520  147.6060 C   0  0  0  0  0  2  0  0  0  0  0  0
  188.6900  177.1060  147.5370 C   0  0  0  0  0  3  0  0  0  0  0  0
  189.6980  177.5450  146.7960 C   0  0  0  0  0  3  0  0  0  0  0  0
  191.5750  176.6100  145.6110 C   0  0  0  0  0  2  0  0  0  0  0  0
  190.9530  176.8040  146.7620 C   0  0  0  0  0  3  0  0  0  0  0  0
  1  3  2  0  0  0  0
  2  5  1  0  0  0  0
  3  5  1  0  0  0  0
  4  1  1  0  0  0  0
  4  2  2  0  0  0  0
  5 30  1  0  0  0  0
  6  7  1  0  0  0  0
  6  1  1  0  0  0  0
  8 14  1  0  0  0  0
  9 15  1  0  0  0  0
 10  9  2  0  0  0  0
 10 13  1  0  0  0  0
 11 16  2  0  0  0  0
 12 16  1  0  0  0  0
 13  8  2  0  0  0  0
 14 11  1  0  0  0  0
 15 12  1  0  0  0  0
 15 14  2  0  0  0  0
 16  7  1  0  0  0  0
 17  4  1  0  0  0  0
 18 17  1  0  0  0  0
 19 20  1  0  0  0  0
 19 18  1  0  0  0  0
 20 21  1  0  0  0  0
 21 22  1  0  0  0  0
 22 23  1  0  0  0  0
 24 23  1  1  0  0  0
 24 25  1  0  0  0  0
 25 26  2  0  0  0  0
 25 27  1  0  0  0  0
 28 24  1  0  0  0  0
 29 28  1  0  0  0  0
 30 31  1  0  0  0  0
 31 32  1  0  0  0  0
 33 32  1  0  0  0  0
 33 34  1  0  0  0  0
 35 34  1  0  0  0  0
 36 35  2  0  0  0  0
 37 38  2  0  0  0  0
 38 36  1  0  0  0  0
M  END
>  <MODEL>
6

>  <REMARK>
 VINA RESULT:      -6.7      3.163      4.563
  Name = 
  20 active torsions:
  status: ('A' for Active; 'I' for Inactive)
    1  A    between atoms: C_2  and  C_20
    2  A    between atoms: C_4  and  C_32
    3  A    between atoms: C_4  and  C_36
    4  A    between atoms: C_5  and  C_32
    5  A    between atoms: C_7  and  C_13
    6  A    between atoms: N_8  and  C_24
    7  A    between atoms: N_8  and  C_37
    8  A    between atoms: C_10  and  C_11
    9  A    between atoms: C_10  and  N_38
   10  A    between atoms: C_11  and  C_33
   11  A    between atoms: C_13  and  C_19
   12  A    between atoms: C_14  and  C_35
   13  A    between atoms: N_15  and  C_16
   14  A    between atoms: N_15  and  C_18
   15  A    between atoms: C_16  and  C_24
   16  A    between atoms: C_18  and  O_30
   17  A    between atoms: C_19  and  C_33
   18  A    between atoms: C_20  and  O_21
   19  A    between atoms: C_20  and  C_37
   20  A    between atoms: C_28  and  O_30
                            x       y       z     vdW  Elec       q    Type
                         _______ _______ _______ _____ _____    ______ ____

>  <TORSDO>
F 20

$$$$
=
 OpenBabel11042410433D

 38 40  0  0  1  0  0  0  0  0999 V2000
  184.6700  178.6050  143.0460 C   0  0  0  0  0  0  0  0  0  0  0  0
  183.0070  179.3150  144.3420 C   0  0  0  0  0  3  0  0  0  0  0  0
  183.4960  178.5860  142.3200 C   0  0  0  0  0  3  0  0  0  0  0  0
  184.3640  179.0660  144.3060 C   0  0  0  0  0  0  0  0  0  0  0  0
  182.5050  179.0100  143.1300 N   0  0  0  0  0  0  0  0  0  0  0  0
  186.0210  178.2470  142.5350 C   0  0  0  0  0  2  0  0  0  0  0  0
  186.2890  178.9710  141.2300 C   0  0  0  0  0  2  0  0  0  0  0  0
  189.3640  177.7210  137.6130 C   0  0  0  0  0  3  0  0  0  0  0  0
  190.8700  176.7860  139.8290 C   0  0  0  0  0  3  0  0  0  0  0  0
  191.3620  176.6420  138.5210 C   0  0  0  0  0  3  0  0  0  0  0  0
  187.6970  178.4270  139.2360 N   0  0  0  0  0  0  0  0  0  0  0  0
  188.7960  177.7070  141.4140 S   0  0  0  0  0  0  0  0  0  0  0  0
  190.6150  177.1080  137.4210 C   0  0  0  0  0  3  0  0  0  0  0  0
  188.8850  177.8580  138.9160 C   0  0  0  0  0  0  0  0  0  0  0  0
  189.6320  177.4000  139.9930 C   0  0  0  0  0  0  0  0  0  0  0  0
  187.5070  178.4180  140.5780 C   0  0  0  0  0  0  0  0  0  0  0  0
  185.2810  179.2440  145.3450 O   0  0  0  0  0  0  0  0  0  0  0  0
  185.6230  178.2040  146.2540 C   0  0  0  0  0  2  0  0  0  0  0  0
  185.7680  178.7320  147.6020 N   0  0  0  0  0  2  0  0  0  0  0  0
  187.1910  178.8360  147.8840 C   0  0  0  0  0  2  0  0  0  0  0  0
  187.8380  177.4710  147.7540 C   0  0  0  0  0  2  0  0  0  0  0  0
  189.2610  177.6250  147.5080 N   0  0  0  0  0  2  0  0  0  0  0  0
  189.4360  177.7110  146.0680 C   0  0  0  0  0  2  0  0  0  0  0  0
  190.7000  176.9740  145.6610 C   0  0  1  0  0  3  0  0  0  0  0  0
  191.2110  177.5090  144.3630 C   0  0  0  0  0  0  0  0  0  0  0  0
  191.1830  178.8760  144.1240 O   0  0  0  0  0  1  0  0  0  0  0  0
  191.6770  176.7300  143.4870 O   0  0  0  0  0  0  0  0  0  0  0  0
  191.6780  177.1130  146.6500 O   0  0  0  0  0  0  0  0  0  0  0  0
  192.2270  175.9190  146.7500 O   0  0  0  0  0  1  0  0  0  0  0  0
  181.1070  179.1400  142.7520 C   0  0  0  0  0  2  0  0  0  0  0  0
  180.9380  179.0050  141.2420 C   0  0  0  0  0  2  0  0  0  0  0  0
  180.1790  177.7380  140.8730 C   0  0  0  0  0  2  0  0  0  0  0  0
  180.6970  177.1670  139.5630 C   0  0  0  0  0  2  0  0  0  0  0  0
  181.7620  176.1150  139.8320 C   0  0  0  0  0  2  0  0  0  0  0  0
  183.0300  176.4290  139.1050 C   0  0  0  0  0  3  0  0  0  0  0  0
  183.2860  177.6540  138.6680 C   0  0  0  0  0  3  0  0  0  0  0  0
  185.0760  177.0170  137.1870 C   0  0  0  0  0  2  0  0  0  0  0  0
  184.5390  177.9330  137.9760 C   0  0  0  0  0  3  0  0  0  0  0  0
  1  4  1  0  0  0  0
  3  1  2  0  0  0  0
  3  5  1  0  0  0  0
  4  2  2  0  0  0  0
  4 17  1  0  0  0  0
  5  2  1  0  0  0  0
  6  1  1  0  0  0  0
  7  6  1  0  0  0  0
  8 14  1  0  0  0  0
  9 15  1  0  0  0  0
 10  9  2  0  0  0  0
 11 16  2  0  0  0  0
 13  8  2  0  0  0  0
 13 10  1  0  0  0  0
 14 11  1  0  0  0  0
 14 15  2  0  0  0  0
 15 12  1  0  0  0  0
 16  7  1  0  0  0  0
 16 12  1  0  0  0  0
 17 18  1  0  0  0  0
 18 19  1  0  0  0  0
 19 20  1  0  0  0  0
 21 20  1  0  0  0  0
 22 21  1  0  0  0  0
 23 22  1  0  0  0  0
 24 23  1  1  0  0  0
 24 28  1  0  0  0  0
 25 24  1  0  0  0  0
 26 25  1  0  0  0  0
 27 25  2  0  0  0  0
 28 29  1  0  0  0  0
 30  5  1  0  0  0  0
 31 30  1  0  0  0  0
 32 31  1  0  0  0  0
 33 34  1  0  0  0  0
 33 32  1  0  0  0  0
 35 34  1  0  0  0  0
 36 35  2  0  0  0  0
 37 38  2  0  0  0  0
 38 36  1  0  0  0  0
M  END
>  <MODEL>
7

>  <REMARK>
 VINA RESULT:      -6.7      3.890      7.824
  Name = 
  20 active torsions:
  status: ('A' for Active; 'I' for Inactive)
    1  A    between atoms: C_2  and  C_20
    2  A    between atoms: C_4  and  C_32
    3  A    between atoms: C_4  and  C_36
    4  A    between atoms: C_5  and  C_32
    5  A    between atoms: C_7  and  C_13
    6  A    between atoms: N_8  and  C_24
    7  A    between atoms: N_8  and  C_37
    8  A    between atoms: C_10  and  C_11
    9  A    between atoms: C_10  and  N_38
   10  A    between atoms: C_11  and  C_33
   11  A    between atoms: C_13  and  C_19
   12  A    between atoms: C_14  and  C_35
   13  A    between atoms: N_15  and  C_16
   14  A    between atoms: N_15  and  C_18
   15  A    between atoms: C_16  and  C_24
   16  A    between atoms: C_18  and  O_30
   17  A    between atoms: C_19  and  C_33
   18  A    between atoms: C_20  and  O_21
   19  A    between atoms: C_20  and  C_37
   20  A    between atoms: C_28  and  O_30
                            x       y       z     vdW  Elec       q    Type
                         _______ _______ _______ _____ _____    ______ ____

>  <TORSDO>
F 20

$$$$
=
 OpenBabel11042410433D

 38 40  0  0  1  0  0  0  0  0999 V2000
  184.3170  179.2240  144.4210 C   0  0  0  0  0  0  0  0  0  0  0  0
  182.9470  179.0060  142.6820 C   0  0  0  0  0  3  0  0  0  0  0  0
  183.0360  179.0070  144.8850 C   0  0  0  0  0  3  0  0  0  0  0  0
  184.2620  179.2170  143.0460 C   0  0  0  0  0  0  0  0  0  0  0  0
  182.2260  178.8890  143.8130 N   0  0  0  0  0  0  0  0  0  0  0  0
  185.5380  179.3790  145.2600 C   0  0  0  0  0  2  0  0  0  0  0  0
  185.7060  178.1660  146.1550 C   0  0  0  0  0  2  0  0  0  0  0  0
  190.2210  177.0900  144.5570 C   0  0  0  0  0  3  0  0  0  0  0  0
  190.6250  176.7060  147.3400 C   0  0  0  0  0  3  0  0  0  0  0  0
  191.6780  176.5050  146.4330 C   0  0  0  0  0  3  0  0  0  0  0  0
  187.9260  177.6630  145.1210 N   0  0  0  0  0  0  0  0  0  0  0  0
  187.9660  177.4090  147.6520 S   0  0  0  0  0  0  0  0  0  0  0  0
  191.4780  176.6980  145.0500 C   0  0  0  0  0  3  0  0  0  0  0  0
  189.1830  177.2860  145.4670 C   0  0  0  0  0  0  0  0  0  0  0  0
  189.3920  177.0990  146.8270 C   0  0  0  0  0  0  0  0  0  0  0  0
  187.1390  177.7730  146.2190 C   0  0  0  0  0  0  0  0  0  0  0  0
  185.3550  179.3920  142.1930 O   0  0  0  0  0  0  0  0  0  0  0  0
  185.4130  178.8180  140.8920 C   0  0  0  0  0  2  0  0  0  0  0  0
  184.9040  179.7510  139.8990 N   0  0  0  0  0  2  0  0  0  0  0  0
  184.4300  178.9740  138.7660 C   0  0  0  0  0  2  0  0  0  0  0  0
  185.3990  177.8420  138.4840 C   0  0  0  0  0  2  0  0  0  0  0  0
  185.7160  177.8090  137.0670 N   0  0  0  0  0  2  0  0  0  0  0  0
  187.1360  178.0880  136.9430 C   0  0  0  0  0  2  0  0  0  0  0  0
  187.8310  177.8080  138.2650 C   0  0  1  0  0  3  0  0  0  0  0  0
  188.8650  176.7460  138.0860 C   0  0  0  0  0  0  0  0  0  0  0  0
  188.8010  175.9000  136.9880 O   0  0  0  0  0  0  0  0  0  0  0  0
  189.8030  176.6180  138.9200 O   0  0  0  0  0  1  0  0  0  0  0  0
  188.4270  178.9750  138.7500 O   0  0  0  0  0  0  0  0  0  0  0  0
  189.0570  179.4870  137.7120 O   0  0  0  0  0  1  0  0  0  0  0  0
  180.7930  178.6500  143.8650 C   0  0  0  0  0  2  0  0  0  0  0  0
  180.0520  179.5820  142.9120 C   0  0  0  0  0  2  0  0  0  0  0  0
  179.4500  178.8220  141.7380 C   0  0  0  0  0  2  0  0  0  0  0  0
  180.0790  179.2740  140.4290 C   0  0  0  0  0  2  0  0  0  0  0  0
  179.8460  180.7620  140.2200 C   0  0  0  0  0  2  0  0  0  0  0  0
  180.3050  181.1980  138.8660 C   0  0  0  0  0  3  0  0  0  0  0  0
  179.9910  182.3920  138.3840 C   0  0  0  0  0  3  0  0  0  0  0  0
  180.4760  181.9230  136.0720 C   0  0  0  0  0  2  0  0  0  0  0  0
  180.4690  182.7950  137.0670 C   0  0  0  0  0  3  0  0  0  0  0  0
  1  3  2  0  0  0  0
  1  6  1  0  0  0  0
  2  4  2  0  0  0  0
  2  5  1  0  0  0  0
  4  1  1  0  0  0  0
  5 30  1  0  0  0  0
  5  3  1  0  0  0  0
  6  7  1  0  0  0  0
  7 16  1  0  0  0  0
  8 13  2  0  0  0  0
  8 14  1  0  0  0  0
 10  9  2  0  0  0  0
 11 14  1  0  0  0  0
 11 16  2  0  0  0  0
 13 10  1  0  0  0  0
 14 15  2  0  0  0  0
 15  9  1  0  0  0  0
 15 12  1  0  0  0  0
 16 12  1  0  0  0  0
 17  4  1  0  0  0  0
 18 17  1  0  0  0  0
 19 18  1  0  0  0  0
 20 19  1  0  0  0  0
 21 20  1  0  0  0  0
 22 21  1  0  0  0  0
 23 22  1  0  0  0  0
 24 23  1  6  0  0  0
 24 28  1  0  0  0  0
 25 24  1  0  0  0  0
 25 27  1  0  0  0  0
 26 25  2  0  0  0  0
 29 28  1  0  0  0  0
 31 30  1  0  0  0  0
 32 31  1  0  0  0  0
 33 32  1  0  0  0  0
 34 33  1  0  0  0  0
 35 34  1  0  0  0  0
 36 35  2  0  0  0  0
 37 38  2  0  0  0  0
 38 36  1  0  0  0  0
M  END
>  <MODEL>
8

>  <REMARK>
 VINA RESULT:      -6.6      3.168      9.165
  Name = 
  20 active torsions:
  status: ('A' for Active; 'I' for Inactive)
    1  A    between atoms: C_2  and  C_20
    2  A    between atoms: C_4  and  C_32
    3  A    between atoms: C_4  and  C_36
    4  A    between atoms: C_5  and  C_32
    5  A    between atoms: C_7  and  C_13
    6  A    between atoms: N_8  and  C_24
    7  A    between atoms: N_8  and  C_37
    8  A    between atoms: C_10  and  C_11
    9  A    between atoms: C_10  and  N_38
   10  A    between atoms: C_11  and  C_33
   11  A    between atoms: C_13  and  C_19
   12  A    between atoms: C_14  and  C_35
   13  A    between atoms: N_15  and  C_16
   14  A    between atoms: N_15  and  C_18
   15  A    between atoms: C_16  and  C_24
   16  A    between atoms: C_18  and  O_30
   17  A    between atoms: C_19  and  C_33
   18  A    between atoms: C_20  and  O_21
   19  A    between atoms: C_20  and  C_37
   20  A    between atoms: C_28  and  O_30
                            x       y       z     vdW  Elec       q    Type
                         _______ _______ _______ _____ _____    ______ ____

>  <TORSDO>
F 20

$$$$
=
 OpenBabel11042410433D

 38 40  0  0  1  0  0  0  0  0999 V2000
  184.6500  178.6090  143.0990 C   0  0  0  0  0  0  0  0  0  0  0  0
  182.9010  179.3000  144.2880 C   0  0  0  0  0  3  0  0  0  0  0  0
  183.5160  178.5250  142.3170 C   0  0  0  0  0  3  0  0  0  0  0  0
  184.2660  179.0990  144.3270 C   0  0  0  0  0  0  0  0  0  0  0  0
  182.4710  178.9390  143.0630 N   0  0  0  0  0  0  0  0  0  0  0  0
  186.0370  178.2830  142.6680 C   0  0  0  0  0  2  0  0  0  0  0  0
  186.3610  179.0110  141.3770 C   0  0  0  0  0  2  0  0  0  0  0  0
  189.2870  177.3890  137.7840 C   0  0  0  0  0  3  0  0  0  0  0  0
  190.9210  176.7570  140.0160 C   0  0  0  0  0  3  0  0  0  0  0  0
  191.3520  176.4650  138.7120 C   0  0  0  0  0  3  0  0  0  0  0  0
  187.6830  178.2560  139.3930 N   0  0  0  0  0  0  0  0  0  0  0  0
  188.9050  177.8250  141.5830 S   0  0  0  0  0  0  0  0  0  0  0  0
  190.5410  176.7800  137.6030 C   0  0  0  0  0  3  0  0  0  0  0  0
  188.8690  177.6740  139.0840 C   0  0  0  0  0  0  0  0  0  0  0  0
  189.6780  177.3630  140.1690 C   0  0  0  0  0  0  0  0  0  0  0  0
  187.5590  178.4050  140.7350 C   0  0  0  0  0  0  0  0  0  0  0  0
  185.1240  179.3430  145.4030 O   0  0  0  0  0  0  0  0  0  0  0  0
  185.1400  178.5300  146.5710 C   0  0  0  0  0  2  0  0  0  0  0  0
  186.3460  177.7160  146.6090 N   0  0  0  0  0  2  0  0  0  0  0  0
  187.2040  178.2500  147.6530 C   0  0  0  0  0  2  0  0  0  0  0  0
  188.6460  177.8730  147.3710 C   0  0  0  0  0  2  0  0  0  0  0  0
  188.7500  177.3020  146.0390 N   0  0  0  0  0  2  0  0  0  0  0  0
  189.9970  177.7820  145.4680 C   0  0  0  0  0  2  0  0  0  0  0  0
  191.0680  176.7130  145.6030 C   0  0  1  0  0  3  0  0  0  0  0  0
  191.6820  176.4300  144.2720 C   0  0  0  0  0  0  0  0  0  0  0  0
  191.8660  177.4650  143.3650 O   0  0  0  0  0  0  0  0  0  0  0  0
  192.0450  175.2610  143.9680 O   0  0  0  0  0  1  0  0  0  0  0  0
  192.0530  177.1300  146.5020 O   0  0  0  0  0  0  0  0  0  0  0  0
  192.0440  176.2210  147.4560 O   0  0  0  0  0  1  0  0  0  0  0  0
  181.0910  179.0070  142.6130 C   0  0  0  0  0  2  0  0  0  0  0  0
  180.9960  178.7570  141.1110 C   0  0  0  0  0  2  0  0  0  0  0  0
  180.6820  180.0360  140.3480 C   0  0  0  0  0  2  0  0  0  0  0  0
  179.9000  179.7250  139.0820 C   0  0  0  0  0  2  0  0  0  0  0  0
  180.6450  180.2470  137.8620 C   0  0  0  0  0  2  0  0  0  0  0  0
  180.2660  181.6610  137.5600 C   0  0  0  0  0  3  0  0  0  0  0  0
  180.7440  182.2890  136.4950 C   0  0  0  0  0  3  0  0  0  0  0  0
  181.1800  184.6570  136.4590 C   0  0  0  0  0  2  0  0  0  0  0  0
  180.3420  183.6620  136.2170 C   0  0  0  0  0  3  0  0  0  0  0  0
  1  4  1  0  0  0  0
  2  4  2  0  0  0  0
  3  5  1  0  0  0  0
  3  1  2  0  0  0  0
  4 17  1  0  0  0  0
  5  2  1  0  0  0  0
  6  1  1  0  0  0  0
  7  6  1  0  0  0  0
  8 14  1  0  0  0  0
  9 15  1  0  0  0  0
 10  9  2  0  0  0  0
 11 16  2  0  0  0  0
 13  8  2  0  0  0  0
 13 10  1  0  0  0  0
 14 11  1  0  0  0  0
 14 15  2  0  0  0  0
 15 12  1  0  0  0  0
 16  7  1  0  0  0  0
 16 12  1  0  0  0  0
 17 18  1  0  0  0  0
 18 19  1  0  0  0  0
 19 20  1  0  0  0  0
 21 20  1  0  0  0  0
 22 21  1  0  0  0  0
 23 22  1  0  0  0  0
 24 23  1  6  0  0  0
 24 28  1  0  0  0  0
 25 24  1  0  0  0  0
 26 25  2  0  0  0  0
 27 25  1  0  0  0  0
 28 29  1  0  0  0  0
 30  5  1  0  0  0  0
 31 30  1  0  0  0  0
 32 31  1  0  0  0  0
 33 32  1  0  0  0  0
 34 33  1  0  0  0  0
 35 34  1  0  0  0  0
 36 35  2  0  0  0  0
 38 37  2  0  0  0  0
 38 36  1  0  0  0  0
M  END
>  <MODEL>
9

>  <REMARK>
 VINA RESULT:      -6.5      2.910      8.524
  Name = 
  20 active torsions:
  status: ('A' for Active; 'I' for Inactive)
    1  A    between atoms: C_2  and  C_20
    2  A    between atoms: C_4  and  C_32
    3  A    between atoms: C_4  and  C_36
    4  A    between atoms: C_5  and  C_32
    5  A    between atoms: C_7  and  C_13
    6  A    between atoms: N_8  and  C_24
    7  A    between atoms: N_8  and  C_37
    8  A    between atoms: C_10  and  C_11
    9  A    between atoms: C_10  and  N_38
   10  A    between atoms: C_11  and  C_33
   11  A    between atoms: C_13  and  C_19
   12  A    between atoms: C_14  and  C_35
   13  A    between atoms: N_15  and  C_16
   14  A    between atoms: N_15  and  C_18
   15  A    between atoms: C_16  and  C_24
   16  A    between atoms: C_18  and  O_30
   17  A    between atoms: C_19  and  C_33
   18  A    between atoms: C_20  and  O_21
   19  A    between atoms: C_20  and  C_37
   20  A    between atoms: C_28  and  O_30
                            x       y       z     vdW  Elec       q    Type
                         _______ _______ _______ _____ _____    ______ ____

>  <TORSDO>
F 20

$$$$
