=
 OpenBabel11042412153D

 34 36  0  0  1  0  0  0  0  0999 V2000
  185.1650  178.1770  144.0020 C   0  0  0  0  0  3  0  0  0  0  0  0
  187.2390  177.7790  145.1590 C   0  0  0  0  0  0  0  0  0  0  0  0
  188.5170  177.1900  144.8390 C   0  0  0  0  0  0  0  0  0  0  0  0
  186.4750  177.6990  144.0280 C   0  0  0  0  0  0  0  0  0  0  0  0
  185.4450  178.8390  146.3370 C   0  0  0  0  0  3  0  0  0  0  0  0
  187.2730  177.0420  142.9490 C   0  0  2  0  0  3  0  0  0  0  0  0
  188.5600  176.7740  143.6090 N   0  0  0  0  0  0  0  0  0  0  0  0
  184.6420  178.7570  145.1790 C   0  0  0  0  0  0  0  0  0  0  0  0
  186.7600  178.3460  146.3380 C   0  0  0  0  0  3  0  0  0  0  0  0
  190.8040  177.4670  145.4560 C   0  0  0  0  0  3  0  0  0  0  0  0
  189.6080  177.0770  145.7560 N   0  0  0  0  0  0  0  0  0  0  0  0
  191.8290  177.3370  146.3850 O   0  0  0  0  0  0  0  0  0  0  0  0
  191.5720  176.8040  147.6750 C   0  0  2  0  0  3  0  0  0  0  0  0
  192.1960  177.5810  148.6380 F   0  0  0  0  0  0  0  0  0  0  0  0
  192.8140  175.0570  146.6320 F   0  0  0  0  0  0  0  0  0  0  0  0
  192.0720  175.3680  147.7580 C   0  0  0  0  0  0  0  0  0  0  0  0
  190.9940  174.5070  147.8480 F   0  0  0  0  0  0  0  0  0  0  0  0
  192.8620  175.2190  148.8820 F   0  0  0  0  0  0  0  0  0  0  0  0
  183.3380  179.2570  145.2260 O   0  0  0  0  0  0  0  0  0  0  0  0
  182.3500  178.9160  144.2640 C   0  0  0  0  0  1  0  0  0  0  0  0
  187.4480  177.9390  141.7990 N   0  0  0  0  0  0  0  0  0  0  0  0
  189.6750  177.0680  141.1660 C   0  0  0  0  0  3  0  0  0  0  0  0
  189.1690  177.6120  138.4760 C   0  0  0  0  0  3  0  0  0  0  0  0
  188.2040  177.9080  139.4430 C   0  0  0  0  0  3  0  0  0  0  0  0
  190.6410  176.7760  140.2000 C   0  0  0  0  0  3  0  0  0  0  0  0
  188.4450  177.6380  140.8000 C   0  0  0  0  0  0  0  0  0  0  0  0
  190.3950  177.0440  138.8480 C   0  0  0  0  0  0  0  0  0  0  0  0
  191.0550  176.5330  136.6300 O   0  0  0  0  0  0  0  0  0  0  0  0
  191.4080  176.7250  137.8270 C   0  0  0  0  0  0  0  0  0  0  0  0
  193.5390  175.6440  137.8440 C   0  0  0  0  0  2  0  0  0  0  0  0
  192.7900  176.6390  138.1940 N   0  0  0  0  0  0  0  0  0  0  0  0
  186.5640  179.0980  141.6330 C   0  0  0  0  0  2  0  0  0  0  0  0
  185.4050  178.7680  140.7480 C   0  0  0  0  0  3  0  0  0  0  0  0
  184.8750  179.6690  140.0050 N   0  0  0  0  0  2  0  0  0  0  0  0
  1  4  2  0  0  0  0
  1  8  1  0  0  0  0
  2  9  2  0  0  0  0
  3  2  1  0  0  0  0
  3 11  1  0  0  0  0
  4  2  1  0  0  0  0
  5  9  1  0  0  0  0
  6 21  1  6  0  0  0
  6  7  1  0  0  0  0
  6  4  1  0  0  0  0
  7  3  2  0  0  0  0
  8 19  1  0  0  0  0
  8  5  2  0  0  0  0
 10 11  2  0  0  0  0
 10 12  1  0  0  0  0
 12 13  1  0  0  0  0
 13 16  1  0  0  0  0
 13 14  1  1  0  0  0
 15 16  1  0  0  0  0
 16 17  1  0  0  0  0
 16 18  1  0  0  0  0
 20 19  1  0  0  0  0
 23 27  2  0  0  0  0
 23 24  1  0  0  0  0
 24 26  2  0  0  0  0
 25 22  2  0  0  0  0
 26 22  1  0  0  0  0
 26 21  1  0  0  0  0
 27 25  1  0  0  0  0
 28 29  2  0  0  0  0
 29 31  1  0  0  0  0
 29 27  1  0  0  0  0
 30 31  2  0  0  0  0
 32 21  1  0  0  0  0
 33 32  1  0  0  0  0
 34 33  2  0  0  0  0
M  END
>  <MODEL>
1

>  <REMARK>
 VINA RESULT:      -8.6      0.000      0.000
  Name = 
  11 active torsions:
  status: ('A' for Active; 'I' for Inactive)
    1  A    between atoms: C_1  and  O_11
    2  A    between atoms: N_2  and  C_17
    3  A    between atoms: O_3  and  C_30
    4  A    between atoms: C_8  and  C_9
    5  A    between atoms: C_8  and  O_11
    6  A    between atoms: C_10  and  C_13
    7  A    between atoms: C_10  and  N_21
    8  A    between atoms: N_21  and  C_24
    9  A    between atoms: N_21  and  C_28
   10  A    between atoms: N_22  and  C_26
   11  A    between atoms: C_26  and  C_34
                            x       y       z     vdW  Elec       q    Type
                         _______ _______ _______ _____ _____    ______ ____

>  <TORSDO>
F 11

$$$$
=
 OpenBabel11042412153D

 34 36  0  0  1  0  0  0  0  0999 V2000
  189.6280  177.0820  145.3880 C   0  0  0  0  0  3  0  0  0  0  0  0
  189.4730  177.6000  143.0410 C   0  0  0  0  0  0  0  0  0  0  0  0
  188.4230  177.6680  142.0530 C   0  0  0  0  0  0  0  0  0  0  0  0
  188.8810  177.2440  144.2210 C   0  0  0  0  0  0  0  0  0  0  0  0
  191.6180  177.6740  144.1010 C   0  0  0  0  0  3  0  0  0  0  0  0
  187.4130  177.0760  143.9950 C   0  0  2  0  0  3  0  0  0  0  0  0
  187.2640  177.3810  142.5640 N   0  0  0  0  0  0  0  0  0  0  0  0
  191.0210  177.3020  145.3250 C   0  0  0  0  0  0  0  0  0  0  0  0
  190.8440  177.8270  142.9390 C   0  0  0  0  0  3  0  0  0  0  0  0
  187.6400  178.2360  139.8730 C   0  0  0  0  0  3  0  0  0  0  0  0
  188.6250  178.0090  140.6800 N   0  0  0  0  0  0  0  0  0  0  0  0
  187.8900  178.5680  138.5480 O   0  0  0  0  0  0  0  0  0  0  0  0
  189.2220  178.7010  138.0760 C   0  0  2  0  0  3  0  0  0  0  0  0
  189.2980  179.7510  137.1740 F   0  0  0  0  0  0  0  0  0  0  0  0
  189.8830  177.6140  136.0600 F   0  0  0  0  0  0  0  0  0  0  0  0
  189.6760  177.4080  137.4130 C   0  0  0  0  0  0  0  0  0  0  0  0
  188.7090  176.4350  137.5840 F   0  0  0  0  0  0  0  0  0  0  0  0
  190.8540  176.9790  137.9960 F   0  0  0  0  0  0  0  0  0  0  0  0
  191.8320  177.1580  146.4530 O   0  0  0  0  0  0  0  0  0  0  0  0
  192.2190  175.8890  146.9640 C   0  0  0  0  0  1  0  0  0  0  0  0
  186.6400  178.0150  144.8180 N   0  0  0  0  0  0  0  0  0  0  0  0
  184.3140  178.5600  145.4600 C   0  0  0  0  0  3  0  0  0  0  0  0
  183.5580  178.6850  142.7760 C   0  0  0  0  0  3  0  0  0  0  0  0
  184.8790  178.3850  143.1170 C   0  0  0  0  0  3  0  0  0  0  0  0
  182.9910  178.8560  145.1190 C   0  0  0  0  0  3  0  0  0  0  0  0
  185.2750  178.3210  144.4640 C   0  0  0  0  0  0  0  0  0  0  0  0
  182.6040  178.9220  143.7750 C   0  0  0  0  0  0  0  0  0  0  0  0
  180.9800  180.0260  142.4490 O   0  0  0  0  0  0  0  0  0  0  0  0
  181.2130  179.2470  143.4140 C   0  0  0  0  0  0  0  0  0  0  0  0
  179.0080  179.2900  144.3330 C   0  0  0  0  0  2  0  0  0  0  0  0
  180.1300  178.6720  144.1550 N   0  0  0  0  0  0  0  0  0  0  0  0
  187.2320  178.5830  146.0340 C   0  0  0  0  0  2  0  0  0  0  0  0
  186.9530  177.7200  147.2220 C   0  0  0  0  0  3  0  0  0  0  0  0
  187.6970  177.7860  148.2640 N   0  0  0  0  0  2  0  0  0  0  0  0
  2  4  1  0  0  0  0
  3  7  2  0  0  0  0
  3  2  1  0  0  0  0
  4  1  2  0  0  0  0
  5  8  2  0  0  0  0
  6  4  1  0  0  0  0
  6 21  1  1  0  0  0
  7  6  1  0  0  0  0
  8  1  1  0  0  0  0
  8 19  1  0  0  0  0
  9  2  2  0  0  0  0
  9  5  1  0  0  0  0
 10 11  2  0  0  0  0
 11  3  1  0  0  0  0
 12 10  1  0  0  0  0
 13 14  1  6  0  0  0
 13 12  1  0  0  0  0
 15 16  1  0  0  0  0
 16 17  1  0  0  0  0
 16 18  1  0  0  0  0
 16 13  1  0  0  0  0
 19 20  1  0  0  0  0
 21 32  1  0  0  0  0
 23 24  2  0  0  0  0
 23 27  1  0  0  0  0
 24 26  1  0  0  0  0
 25 22  1  0  0  0  0
 26 21  1  0  0  0  0
 26 22  2  0  0  0  0
 27 25  2  0  0  0  0
 28 29  2  0  0  0  0
 29 27  1  0  0  0  0
 29 31  1  0  0  0  0
 31 30  2  0  0  0  0
 32 33  1  0  0  0  0
 33 34  2  0  0  0  0
M  END
>  <MODEL>
2

>  <REMARK>
 VINA RESULT:      -8.4      4.117      8.526
  Name = 
  11 active torsions:
  status: ('A' for Active; 'I' for Inactive)
    1  A    between atoms: C_1  and  O_11
    2  A    between atoms: N_2  and  C_17
    3  A    between atoms: O_3  and  C_30
    4  A    between atoms: C_8  and  C_9
    5  A    between atoms: C_8  and  O_11
    6  A    between atoms: C_10  and  C_13
    7  A    between atoms: C_10  and  N_21
    8  A    between atoms: N_21  and  C_24
    9  A    between atoms: N_21  and  C_28
   10  A    between atoms: N_22  and  C_26
   11  A    between atoms: C_26  and  C_34
                            x       y       z     vdW  Elec       q    Type
                         _______ _______ _______ _____ _____    ______ ____

>  <TORSDO>
F 11

$$$$
=
 OpenBabel11042412153D

 34 36  0  0  1  0  0  0  0  0999 V2000
  190.3360  176.6670  141.5710 C   0  0  0  0  0  3  0  0  0  0  0  0
  188.2020  177.7750  141.6820 C   0  0  0  0  0  0  0  0  0  0  0  0
  187.3920  178.5760  140.7940 C   0  0  0  0  0  0  0  0  0  0  0  0
  189.3310  177.4400  140.9890 C   0  0  0  0  0  0  0  0  0  0  0  0
  188.9830  176.5780  143.6020 C   0  0  0  0  0  3  0  0  0  0  0  0
  189.2560  178.0360  139.6210 C   0  0  2  0  0  3  0  0  0  0  0  0
  187.9600  178.7320  139.6370 N   0  0  0  0  0  0  0  0  0  0  0  0
  190.1570  176.2290  142.9010 C   0  0  0  0  0  0  0  0  0  0  0  0
  187.9870  177.3610  142.9950 C   0  0  0  0  0  3  0  0  0  0  0  0
  185.1170  178.3910  141.4840 C   0  0  0  0  0  3  0  0  0  0  0  0
  186.1210  179.1290  141.1380 N   0  0  0  0  0  0  0  0  0  0  0  0
  183.9020  178.9790  141.8110 O   0  0  0  0  0  0  0  0  0  0  0  0
  183.2030  178.5890  142.9830 C   0  0  2  0  0  3  0  0  0  0  0  0
  181.9310  179.1420  142.9790 F   0  0  0  0  0  0  0  0  0  0  0  0
  183.1010  179.1490  145.2980 F   0  0  0  0  0  0  0  0  0  0  0  0
  183.9640  179.0390  144.2220 C   0  0  0  0  0  0  0  0  0  0  0  0
  184.5560  180.2650  143.9830 F   0  0  0  0  0  0  0  0  0  0  0  0
  184.9490  178.1140  144.5200 F   0  0  0  0  0  0  0  0  0  0  0  0
  191.1220  175.4520  143.5480 O   0  0  0  0  0  0  0  0  0  0  0  0
  191.7600  175.8640  144.7490 C   0  0  0  0  0  1  0  0  0  0  0  0
  189.2810  176.9930  138.5870 N   0  0  0  0  0  0  0  0  0  0  0  0
  191.7520  176.9790  138.4690 C   0  0  0  0  0  3  0  0  0  0  0  0
  191.7300  174.3820  137.4480 C   0  0  0  0  0  3  0  0  0  0  0  0
  190.5270  175.0240  137.7520 C   0  0  0  0  0  3  0  0  0  0  0  0
  192.9550  176.3390  138.1600 C   0  0  0  0  0  3  0  0  0  0  0  0
  190.5230  176.3300  138.2690 C   0  0  0  0  0  0  0  0  0  0  0  0
  192.9530  175.0350  137.6490 C   0  0  0  0  0  0  0  0  0  0  0  0
  194.2380  173.4110  136.4970 O   0  0  0  0  0  0  0  0  0  0  0  0
  194.2220  174.3540  137.3360 C   0  0  0  0  0  0  0  0  0  0  0  0
  196.0480  174.0250  138.8420 C   0  0  0  0  0  2  0  0  0  0  0  0
  195.4320  174.7680  137.9800 N   0  0  0  0  0  0  0  0  0  0  0  0
  188.0350  176.5800  137.9320 C   0  0  0  0  0  2  0  0  0  0  0  0
  187.9430  177.1410  136.5490 C   0  0  0  0  0  3  0  0  0  0  0  0
  187.2560  178.2000  136.3200 N   0  0  0  0  0  2  0  0  0  0  0  0
  1  8  1  0  0  0  0
  2  9  2  0  0  0  0
  3 11  1  0  0  0  0
  3  2  1  0  0  0  0
  4  1  2  0  0  0  0
  4  2  1  0  0  0  0
  6 21  1  6  0  0  0
  6  7  1  0  0  0  0
  6  4  1  0  0  0  0
  7  3  2  0  0  0  0
  8 19  1  0  0  0  0
  8  5  2  0  0  0  0
  9  5  1  0  0  0  0
 10 12  1  0  0  0  0
 11 10  2  0  0  0  0
 12 13  1  0  0  0  0
 13 14  1  6  0  0  0
 13 16  1  0  0  0  0
 16 18  1  0  0  0  0
 16 15  1  0  0  0  0
 17 16  1  0  0  0  0
 19 20  1  0  0  0  0
 23 27  2  0  0  0  0
 23 24  1  0  0  0  0
 24 26  2  0  0  0  0
 25 22  2  0  0  0  0
 26 22  1  0  0  0  0
 26 21  1  0  0  0  0
 27 25  1  0  0  0  0
 28 29  2  0  0  0  0
 29 27  1  0  0  0  0
 29 31  1  0  0  0  0
 31 30  2  0  0  0  0
 32 21  1  0  0  0  0
 33 32  1  0  0  0  0
 34 33  2  0  0  0  0
M  END
>  <MODEL>
3

>  <REMARK>
 VINA RESULT:      -8.3      3.892      6.393
  Name = 
  11 active torsions:
  status: ('A' for Active; 'I' for Inactive)
    1  A    between atoms: C_1  and  O_11
    2  A    between atoms: N_2  and  C_17
    3  A    between atoms: O_3  and  C_30
    4  A    between atoms: C_8  and  C_9
    5  A    between atoms: C_8  and  O_11
    6  A    between atoms: C_10  and  C_13
    7  A    between atoms: C_10  and  N_21
    8  A    between atoms: N_21  and  C_24
    9  A    between atoms: N_21  and  C_28
   10  A    between atoms: N_22  and  C_26
   11  A    between atoms: C_26  and  C_34
                            x       y       z     vdW  Elec       q    Type
                         _______ _______ _______ _____ _____    ______ ____

>  <TORSDO>
F 11

$$$$
=
 OpenBabel11042412153D

 34 36  0  0  1  0  0  0  0  0999 V2000
  185.7350  179.1420  144.1380 C   0  0  0  0  0  3  0  0  0  0  0  0
  184.2730  178.8550  142.2450 C   0  0  0  0  0  0  0  0  0  0  0  0
  184.4070  178.8810  140.8080 C   0  0  0  0  0  0  0  0  0  0  0  0
  185.5170  179.0930  142.7610 C   0  0  0  0  0  0  0  0  0  0  0  0
  183.3560  178.6820  144.4500 C   0  0  0  0  0  3  0  0  0  0  0  0
  186.4810  179.2790  141.6340 C   0  0  2  0  0  3  0  0  0  0  0  0
  185.6320  179.1140  140.4440 N   0  0  0  0  0  0  0  0  0  0  0  0
  184.6340  178.9330  144.9960 C   0  0  0  0  0  0  0  0  0  0  0  0
  183.1630  178.6410  143.0590 C   0  0  0  0  0  3  0  0  0  0  0  0
  182.9920  177.4970  139.4780 C   0  0  0  0  0  3  0  0  0  0  0  0
  183.3310  178.6750  139.8920 N   0  0  0  0  0  0  0  0  0  0  0  0
  181.9350  177.3500  138.5890 O   0  0  0  0  0  0  0  0  0  0  0  0
  180.6300  177.0510  139.0610 C   0  0  2  0  0  3  0  0  0  0  0  0
  180.4900  177.4930  140.3670 F   0  0  0  0  0  0  0  0  0  0  0  0
  180.7200  174.9510  140.1840 F   0  0  0  0  0  0  0  0  0  0  0  0
  180.3770  175.5520  138.9860 C   0  0  0  0  0  0  0  0  0  0  0  0
  181.1320  175.0050  137.9660 F   0  0  0  0  0  0  0  0  0  0  0  0
  179.0380  175.3230  138.7270 F   0  0  0  0  0  0  0  0  0  0  0  0
  184.7770  178.9680  146.3850 O   0  0  0  0  0  0  0  0  0  0  0  0
  186.0010  178.6610  147.0390 C   0  0  0  0  0  1  0  0  0  0  0  0
  187.5410  178.2630  141.6700 N   0  0  0  0  0  0  0  0  0  0  0  0
  187.7540  176.9590  143.7620 C   0  0  0  0  0  3  0  0  0  0  0  0
  190.0070  178.4330  144.4990 C   0  0  0  0  0  3  0  0  0  0  0  0
  189.3510  178.7120  143.2980 C   0  0  0  0  0  3  0  0  0  0  0  0
  188.4080  176.6820  144.9650 C   0  0  0  0  0  3  0  0  0  0  0  0
  188.2180  177.9780  142.9130 C   0  0  0  0  0  0  0  0  0  0  0  0
  189.5400  177.4150  145.3420 C   0  0  0  0  0  0  0  0  0  0  0  0
  189.5830  177.0380  147.6810 O   0  0  0  0  0  0  0  0  0  0  0  0
  190.2370  177.1150  146.6050 C   0  0  0  0  0  0  0  0  0  0  0  0
  192.1790  175.7290  146.7360 C   0  0  0  0  0  2  0  0  0  0  0  0
  191.6540  176.9040  146.6050 N   0  0  0  0  0  0  0  0  0  0  0  0
  187.8600  177.4940  140.4620 C   0  0  0  0  0  2  0  0  0  0  0  0
  189.0150  178.0980  139.7290 C   0  0  0  0  0  3  0  0  0  0  0  0
  188.8160  178.9100  138.7570 N   0  0  0  0  0  2  0  0  0  0  0  0
  1  8  1  0  0  0  0
  2  4  1  0  0  0  0
  2  9  2  0  0  0  0
  3  2  1  0  0  0  0
  4  1  2  0  0  0  0
  5  8  2  0  0  0  0
  6 21  1  1  0  0  0
  6  4  1  0  0  0  0
  7  3  2  0  0  0  0
  7  6  1  0  0  0  0
  8 19  1  0  0  0  0
  9  5  1  0  0  0  0
 10 11  2  0  0  0  0
 11  3  1  0  0  0  0
 12 13  1  0  0  0  0
 12 10  1  0  0  0  0
 13 14  1  1  0  0  0
 16 13  1  0  0  0  0
 16 15  1  0  0  0  0
 17 16  1  0  0  0  0
 18 16  1  0  0  0  0
 19 20  1  0  0  0  0
 21 26  1  0  0  0  0
 22 25  1  0  0  0  0
 23 27  1  0  0  0  0
 24 23  2  0  0  0  0
 25 27  2  0  0  0  0
 26 24  1  0  0  0  0
 26 22  2  0  0  0  0
 27 29  1  0  0  0  0
 29 31  1  0  0  0  0
 29 28  2  0  0  0  0
 31 30  2  0  0  0  0
 32 21  1  0  0  0  0
 33 32  1  0  0  0  0
 34 33  2  0  0  0  0
M  END
>  <MODEL>
4

>  <REMARK>
 VINA RESULT:      -8.1      5.386      8.233
  Name = 
  11 active torsions:
  status: ('A' for Active; 'I' for Inactive)
    1  A    between atoms: C_1  and  O_11
    2  A    between atoms: N_2  and  C_17
    3  A    between atoms: O_3  and  C_30
    4  A    between atoms: C_8  and  C_9
    5  A    between atoms: C_8  and  O_11
    6  A    between atoms: C_10  and  C_13
    7  A    between atoms: C_10  and  N_21
    8  A    between atoms: N_21  and  C_24
    9  A    between atoms: N_21  and  C_28
   10  A    between atoms: N_22  and  C_26
   11  A    between atoms: C_26  and  C_34
                            x       y       z     vdW  Elec       q    Type
                         _______ _______ _______ _____ _____    ______ ____

>  <TORSDO>
F 11

$$$$
=
 OpenBabel11042412153D

 34 36  0  0  1  0  0  0  0  0999 V2000
  185.7520  179.1190  144.1940 C   0  0  0  0  0  3  0  0  0  0  0  0
  184.3040  178.8630  142.2870 C   0  0  0  0  0  0  0  0  0  0  0  0
  184.4480  178.9170  140.8510 C   0  0  0  0  0  0  0  0  0  0  0  0
  185.5440  179.0950  142.8150 C   0  0  0  0  0  0  0  0  0  0  0  0
  183.3720  178.6460  144.4810 C   0  0  0  0  0  3  0  0  0  0  0  0
  186.5150  179.3070  141.6990 C   0  0  2  0  0  3  0  0  0  0  0  0
  185.6750  179.1620  140.5010 N   0  0  0  0  0  0  0  0  0  0  0  0
  184.6450  178.8900  145.0410 C   0  0  0  0  0  0  0  0  0  0  0  0
  183.1890  178.6310  143.0890 C   0  0  0  0  0  3  0  0  0  0  0  0
  183.3840  179.2580  138.7450 C   0  0  0  0  0  3  0  0  0  0  0  0
  183.3780  178.7260  139.9240 N   0  0  0  0  0  0  0  0  0  0  0  0
  182.3200  179.0380  137.8790 O   0  0  0  0  0  0  0  0  0  0  0  0
  181.2530  179.9710  137.7940 C   0  0  2  0  0  3  0  0  0  0  0  0
  181.7100  181.2390  138.1180 F   0  0  0  0  0  0  0  0  0  0  0  0
  180.0290  178.1860  138.7920 F   0  0  0  0  0  0  0  0  0  0  0  0
  180.1270  179.5650  138.7340 C   0  0  0  0  0  0  0  0  0  0  0  0
  178.9310  180.0900  138.2800 F   0  0  0  0  0  0  0  0  0  0  0  0
  180.3810  180.0590  140.0010 F   0  0  0  0  0  0  0  0  0  0  0  0
  184.7780  178.8990  146.4310 O   0  0  0  0  0  0  0  0  0  0  0  0
  186.0220  178.6820  147.0850 C   0  0  0  0  0  1  0  0  0  0  0  0
  187.5780  178.2930  141.7230 N   0  0  0  0  0  0  0  0  0  0  0  0
  187.7580  177.0600  143.8610 C   0  0  0  0  0  3  0  0  0  0  0  0
  190.1300  178.3940  144.4780 C   0  0  0  0  0  3  0  0  0  0  0  0
  189.4620  178.6730  143.2830 C   0  0  0  0  0  3  0  0  0  0  0  0
  188.4240  176.7830  145.0570 C   0  0  0  0  0  3  0  0  0  0  0  0
  188.2680  178.0080  142.9580 C   0  0  0  0  0  0  0  0  0  0  0  0
  189.6160  177.4460  145.3740 C   0  0  0  0  0  0  0  0  0  0  0  0
  189.6960  177.1400  147.7230 O   0  0  0  0  0  0  0  0  0  0  0  0
  190.3260  177.1460  146.6290 C   0  0  0  0  0  0  0  0  0  0  0  0
  192.1910  175.6610  146.7890 C   0  0  0  0  0  2  0  0  0  0  0  0
  191.7290  176.8550  146.6040 N   0  0  0  0  0  0  0  0  0  0  0  0
  187.8860  177.5260  140.5120 C   0  0  0  0  0  2  0  0  0  0  0  0
  188.9820  178.1750  139.7290 C   0  0  0  0  0  3  0  0  0  0  0  0
  188.7100  178.9290  138.7290 N   0  0  0  0  0  2  0  0  0  0  0  0
  1  8  1  0  0  0  0
  2  4  1  0  0  0  0
  2  9  2  0  0  0  0
  3  2  1  0  0  0  0
  4  1  2  0  0  0  0
  5  8  2  0  0  0  0
  6 21  1  6  0  0  0
  6  4  1  0  0  0  0
  7  3  2  0  0  0  0
  7  6  1  0  0  0  0
  8 19  1  0  0  0  0
  9  5  1  0  0  0  0
 10 11  2  0  0  0  0
 11  3  1  0  0  0  0
 12 10  1  0  0  0  0
 13 12  1  0  0  0  0
 13 14  1  1  0  0  0
 13 16  1  0  0  0  0
 16 15  1  0  0  0  0
 16 18  1  0  0  0  0
 17 16  1  0  0  0  0
 19 20  1  0  0  0  0
 21 26  1  0  0  0  0
 22 25  1  0  0  0  0
 23 27  1  0  0  0  0
 24 23  2  0  0  0  0
 25 27  2  0  0  0  0
 26 24  1  0  0  0  0
 26 22  2  0  0  0  0
 27 29  1  0  0  0  0
 29 28  2  0  0  0  0
 31 29  1  0  0  0  0
 31 30  2  0  0  0  0
 32 21  1  0  0  0  0
 33 32  1  0  0  0  0
 34 33  2  0  0  0  0
M  END
>  <MODEL>
5

>  <REMARK>
 VINA RESULT:      -8.1      5.717      8.538
  Name = 
  11 active torsions:
  status: ('A' for Active; 'I' for Inactive)
    1  A    between atoms: C_1  and  O_11
    2  A    between atoms: N_2  and  C_17
    3  A    between atoms: O_3  and  C_30
    4  A    between atoms: C_8  and  C_9
    5  A    between atoms: C_8  and  O_11
    6  A    between atoms: C_10  and  C_13
    7  A    between atoms: C_10  and  N_21
    8  A    between atoms: N_21  and  C_24
    9  A    between atoms: N_21  and  C_28
   10  A    between atoms: N_22  and  C_26
   11  A    between atoms: C_26  and  C_34
                            x       y       z     vdW  Elec       q    Type
                         _______ _______ _______ _____ _____    ______ ____

>  <TORSDO>
F 11

$$$$
=
 OpenBabel11042412153D

 34 36  0  0  1  0  0  0  0  0999 V2000
  185.7680  179.1590  144.2360 C   0  0  0  0  0  3  0  0  0  0  0  0
  184.2700  178.8770  142.3720 C   0  0  0  0  0  0  0  0  0  0  0  0
  184.3750  178.9130  140.9320 C   0  0  0  0  0  0  0  0  0  0  0  0
  185.5230  179.1170  142.8630 C   0  0  0  0  0  0  0  0  0  0  0  0
  183.3970  178.6870  144.5930 C   0  0  0  0  0  3  0  0  0  0  0  0
  186.4630  179.3140  141.7190 C   0  0  2  0  0  3  0  0  0  0  0  0
  185.5920  179.1530  140.5450 N   0  0  0  0  0  0  0  0  0  0  0  0
  184.6840  178.9400  145.1150 C   0  0  0  0  0  0  0  0  0  0  0  0
  183.1770  178.6540  143.2060 C   0  0  0  0  0  3  0  0  0  0  0  0
  183.0220  177.5530  139.5160 C   0  0  0  0  0  3  0  0  0  0  0  0
  183.2810  178.7080  140.0360 N   0  0  0  0  0  0  0  0  0  0  0  0
  181.9450  177.4070  138.6520 O   0  0  0  0  0  0  0  0  0  0  0  0
  182.0040  177.9200  137.3290 C   0  0  2  0  0  3  0  0  0  0  0  0
  183.3200  178.1890  136.9880 F   0  0  0  0  0  0  0  0  0  0  0  0
  180.0580  179.0960  138.0440 F   0  0  0  0  0  0  0  0  0  0  0  0
  181.1660  179.1860  137.2200 C   0  0  0  0  0  0  0  0  0  0  0  0
  180.7520  179.3570  135.9130 F   0  0  0  0  0  0  0  0  0  0  0  0
  181.9280  180.2770  137.5970 F   0  0  0  0  0  0  0  0  0  0  0  0
  184.8550  178.9670  146.5010 O   0  0  0  0  0  0  0  0  0  0  0  0
  186.0820  178.6200  147.1300 C   0  0  0  0  0  1  0  0  0  0  0  0
  187.5280  178.3020  141.7280 N   0  0  0  0  0  0  0  0  0  0  0  0
  189.3990  178.6910  143.2980 C   0  0  0  0  0  3  0  0  0  0  0  0
  188.4100  176.7360  145.0260 C   0  0  0  0  0  3  0  0  0  0  0  0
  187.7380  177.0210  143.8350 C   0  0  0  0  0  3  0  0  0  0  0  0
  190.0740  178.4040  144.4880 C   0  0  0  0  0  3  0  0  0  0  0  0
  188.2230  178.0040  142.9570 C   0  0  0  0  0  0  0  0  0  0  0  0
  189.5840  177.4250  145.3610 C   0  0  0  0  0  0  0  0  0  0  0  0
  189.6840  177.2610  147.7230 O   0  0  0  0  0  0  0  0  0  0  0  0
  190.2870  177.1300  146.6220 C   0  0  0  0  0  0  0  0  0  0  0  0
  192.1460  175.9150  147.5030 C   0  0  0  0  0  2  0  0  0  0  0  0
  191.6500  176.6900  146.5930 N   0  0  0  0  0  0  0  0  0  0  0  0
  187.8320  177.5490  140.5060 C   0  0  0  0  0  2  0  0  0  0  0  0
  188.9690  178.1710  139.7600 C   0  0  0  0  0  3  0  0  0  0  0  0
  188.7460  178.9570  138.7720 N   0  0  0  0  0  2  0  0  0  0  0  0
  1  8  1  0  0  0  0
  2  4  1  0  0  0  0
  2  9  2  0  0  0  0
  3  2  1  0  0  0  0
  4  1  2  0  0  0  0
  5  8  2  0  0  0  0
  6 21  1  6  0  0  0
  6  4  1  0  0  0  0
  7  3  2  0  0  0  0
  7  6  1  0  0  0  0
  8 19  1  0  0  0  0
  9  5  1  0  0  0  0
 10 11  2  0  0  0  0
 11  3  1  0  0  0  0
 12 10  1  0  0  0  0
 13 14  1  1  0  0  0
 13 12  1  0  0  0  0
 16 13  1  0  0  0  0
 16 18  1  0  0  0  0
 16 15  1  0  0  0  0
 17 16  1  0  0  0  0
 19 20  1  0  0  0  0
 21 26  1  0  0  0  0
 22 25  1  0  0  0  0
 23 27  1  0  0  0  0
 24 23  2  0  0  0  0
 25 27  2  0  0  0  0
 26 22  2  0  0  0  0
 26 24  1  0  0  0  0
 27 29  1  0  0  0  0
 29 28  2  0  0  0  0
 31 29  1  0  0  0  0
 31 30  2  0  0  0  0
 32 21  1  0  0  0  0
 33 32  1  0  0  0  0
 34 33  2  0  0  0  0
M  END
>  <MODEL>
6

>  <REMARK>
 VINA RESULT:      -8.0      5.665      8.540
  Name = 
  11 active torsions:
  status: ('A' for Active; 'I' for Inactive)
    1  A    between atoms: C_1  and  O_11
    2  A    between atoms: N_2  and  C_17
    3  A    between atoms: O_3  and  C_30
    4  A    between atoms: C_8  and  C_9
    5  A    between atoms: C_8  and  O_11
    6  A    between atoms: C_10  and  C_13
    7  A    between atoms: C_10  and  N_21
    8  A    between atoms: N_21  and  C_24
    9  A    between atoms: N_21  and  C_28
   10  A    between atoms: N_22  and  C_26
   11  A    between atoms: C_26  and  C_34
                            x       y       z     vdW  Elec       q    Type
                         _______ _______ _______ _____ _____    ______ ____

>  <TORSDO>
F 11

$$$$
=
 OpenBabel11042412153D

 34 36  0  0  1  0  0  0  0  0999 V2000
  187.7350  177.2680  145.6050 C   0  0  0  0  0  3  0  0  0  0  0  0
  188.5410  177.8480  143.4110 C   0  0  0  0  0  0  0  0  0  0  0  0
  187.9610  178.0510  142.1050 C   0  0  0  0  0  0  0  0  0  0  0  0
  187.5110  177.5350  144.2540 C   0  0  0  0  0  0  0  0  0  0  0  0
  190.1120  177.6670  145.2080 C   0  0  0  0  0  3  0  0  0  0  0  0
  186.2340  177.5320  143.4790 C   0  0  2  0  0  3  0  0  0  0  0  0
  186.6740  177.8820  142.1190 N   0  0  0  0  0  0  0  0  0  0  0  0
  189.0600  177.3350  146.0890 C   0  0  0  0  0  0  0  0  0  0  0  0
  189.8610  177.9270  143.8510 C   0  0  0  0  0  3  0  0  0  0  0  0
  189.0850  177.5120  140.0720 C   0  0  0  0  0  3  0  0  0  0  0  0
  188.7050  178.3970  140.9350 N   0  0  0  0  0  0  0  0  0  0  0  0
  189.8030  177.9010  138.9490 O   0  0  0  0  0  0  0  0  0  0  0  0
  189.4750  177.3860  137.6670 C   0  0  2  0  0  3  0  0  0  0  0  0
  190.6310  176.9980  137.0060 F   0  0  0  0  0  0  0  0  0  0  0  0
  187.3720  178.3290  137.0610 F   0  0  0  0  0  0  0  0  0  0  0  0
  188.7360  178.4380  136.8530 C   0  0  0  0  0  0  0  0  0  0  0  0
  189.0090  178.2620  135.5090 F   0  0  0  0  0  0  0  0  0  0  0  0
  189.1570  179.6990  137.2360 F   0  0  0  0  0  0  0  0  0  0  0  0
  189.3580  177.0810  147.4290 O   0  0  0  0  0  0  0  0  0  0  0  0
  188.8610  177.8820  148.4930 C   0  0  0  0  0  1  0  0  0  0  0  0
  185.2940  178.5320  144.0020 N   0  0  0  0  0  0  0  0  0  0  0  0
  183.7600  178.4890  142.0620 C   0  0  0  0  0  3  0  0  0  0  0  0
  181.5720  178.9600  143.7290 C   0  0  0  0  0  3  0  0  0  0  0  0
  182.8570  178.8690  144.2710 C   0  0  0  0  0  3  0  0  0  0  0  0
  182.4760  178.5840  141.5200 C   0  0  0  0  0  3  0  0  0  0  0  0
  183.9670  178.6300  143.4440 C   0  0  0  0  0  0  0  0  0  0  0  0
  181.3720  178.8180  142.3490 C   0  0  0  0  0  0  0  0  0  0  0  0
  179.0350  178.4360  142.4210 O   0  0  0  0  0  0  0  0  0  0  0  0
  180.0160  178.9050  141.7800 C   0  0  0  0  0  0  0  0  0  0  0  0
  178.9560  179.0840  139.6460 C   0  0  0  0  0  2  0  0  0  0  0  0
  179.8150  179.5290  140.5060 N   0  0  0  0  0  0  0  0  0  0  0  0
  185.6820  179.3790  145.1360 C   0  0  0  0  0  2  0  0  0  0  0  0
  185.0110  178.9330  146.3950 C   0  0  0  0  0  3  0  0  0  0  0  0
  185.6080  179.0390  147.5240 N   0  0  0  0  0  2  0  0  0  0  0  0
  1  8  1  0  0  0  0
  2  9  2  0  0  0  0
  2  4  1  0  0  0  0
  3  7  2  0  0  0  0
  3  2  1  0  0  0  0
  4  1  2  0  0  0  0
  5  8  2  0  0  0  0
  6 21  1  1  0  0  0
  6  4  1  0  0  0  0
  7  6  1  0  0  0  0
  8 19  1  0  0  0  0
  9  5  1  0  0  0  0
 10 11  2  0  0  0  0
 11  3  1  0  0  0  0
 12 10  1  0  0  0  0
 13 14  1  6  0  0  0
 13 12  1  0  0  0  0
 16 15  1  0  0  0  0
 16 18  1  0  0  0  0
 16 13  1  0  0  0  0
 17 16  1  0  0  0  0
 19 20  1  0  0  0  0
 21 32  1  0  0  0  0
 22 26  1  0  0  0  0
 23 24  1  0  0  0  0
 25 22  2  0  0  0  0
 25 27  1  0  0  0  0
 26 21  1  0  0  0  0
 26 24  2  0  0  0  0
 27 23  2  0  0  0  0
 29 27  1  0  0  0  0
 29 28  2  0  0  0  0
 30 31  2  0  0  0  0
 31 29  1  0  0  0  0
 32 33  1  0  0  0  0
 33 34  2  0  0  0  0
M  END
>  <MODEL>
7

>  <REMARK>
 VINA RESULT:      -7.9      4.546      8.407
  Name = 
  11 active torsions:
  status: ('A' for Active; 'I' for Inactive)
    1  A    between atoms: C_1  and  O_11
    2  A    between atoms: N_2  and  C_17
    3  A    between atoms: O_3  and  C_30
    4  A    between atoms: C_8  and  C_9
    5  A    between atoms: C_8  and  O_11
    6  A    between atoms: C_10  and  C_13
    7  A    between atoms: C_10  and  N_21
    8  A    between atoms: N_21  and  C_24
    9  A    between atoms: N_21  and  C_28
   10  A    between atoms: N_22  and  C_26
   11  A    between atoms: C_26  and  C_34
                            x       y       z     vdW  Elec       q    Type
                         _______ _______ _______ _____ _____    ______ ____

>  <TORSDO>
F 11

$$$$
=
 OpenBabel11042412153D

 34 36  0  0  1  0  0  0  0  0999 V2000
  182.6410  178.6550  143.9530 C   0  0  0  0  0  3  0  0  0  0  0  0
  183.8100  178.8860  141.8610 C   0  0  0  0  0  0  0  0  0  0  0  0
  185.1510  179.2220  141.4450 C   0  0  0  0  0  0  0  0  0  0  0  0
  183.8010  178.9260  143.2270 C   0  0  0  0  0  0  0  0  0  0  0  0
  181.4940  178.2850  141.8280 C   0  0  0  0  0  3  0  0  0  0  0  0
  185.1650  179.2980  143.7110 C   0  0  2  0  0  3  0  0  0  0  0  0
  185.9250  179.4540  142.4620 N   0  0  0  0  0  0  0  0  0  0  0  0
  181.4670  178.3290  143.2390 C   0  0  0  0  0  0  0  0  0  0  0  0
  182.6740  178.5670  141.1210 C   0  0  0  0  0  3  0  0  0  0  0  0
  186.1910  178.3110  139.5020 C   0  0  0  0  0  3  0  0  0  0  0  0
  185.5830  179.2920  140.0850 N   0  0  0  0  0  0  0  0  0  0  0  0
  186.5880  178.4280  138.1760 O   0  0  0  0  0  0  0  0  0  0  0  0
  187.5430  177.5330  137.6260 C   0  0  2  0  0  3  0  0  0  0  0  0
  187.7090  176.4460  138.4700 F   0  0  0  0  0  0  0  0  0  0  0  0
  189.5760  177.6540  136.3880 F   0  0  0  0  0  0  0  0  0  0  0  0
  188.8730  178.2450  137.4230 C   0  0  0  0  0  0  0  0  0  0  0  0
  189.6190  178.1740  138.5840 F   0  0  0  0  0  0  0  0  0  0  0  0
  188.6430  179.5740  137.1180 F   0  0  0  0  0  0  0  0  0  0  0  0
  180.2690  178.0460  143.8990 O   0  0  0  0  0  0  0  0  0  0  0  0
  179.2790  179.0350  144.1510 C   0  0  0  0  0  1  0  0  0  0  0  0
  185.7380  178.2360  144.5480 N   0  0  0  0  0  0  0  0  0  0  0  0
  187.2830  176.8070  143.2480 C   0  0  0  0  0  3  0  0  0  0  0  0
  189.4530  177.7160  144.7490 C   0  0  0  0  0  3  0  0  0  0  0  0
  188.1670  178.1910  145.0200 C   0  0  0  0  0  3  0  0  0  0  0  0
  188.5680  176.3290  142.9790 C   0  0  0  0  0  3  0  0  0  0  0  0
  187.0660  177.7440  144.2710 C   0  0  0  0  0  0  0  0  0  0  0  0
  189.6630  176.7810  143.7260 C   0  0  0  0  0  0  0  0  0  0  0  0
  191.4100  175.1930  143.9270 O   0  0  0  0  0  0  0  0  0  0  0  0
  191.0210  176.2880  143.4350 C   0  0  0  0  0  0  0  0  0  0  0  0
  191.5160  177.4970  141.4340 C   0  0  0  0  0  2  0  0  0  0  0  0
  191.8900  177.0490  142.5890 N   0  0  0  0  0  0  0  0  0  0  0  0
  184.9890  177.7280  145.7030 C   0  0  0  0  0  2  0  0  0  0  0  0
  185.6040  178.1850  146.9860 C   0  0  0  0  0  3  0  0  0  0  0  0
  185.6800  179.4350  147.2640 N   0  0  0  0  0  2  0  0  0  0  0  0
  2  4  1  0  0  0  0
  3  2  1  0  0  0  0
  3  7  2  0  0  0  0
  4  6  1  0  0  0  0
  4  1  2  0  0  0  0
  5  8  2  0  0  0  0
  6 21  1  1  0  0  0
  7  6  1  0  0  0  0
  8 19  1  0  0  0  0
  8  1  1  0  0  0  0
  9  5  1  0  0  0  0
  9  2  2  0  0  0  0
 10 11  2  0  0  0  0
 11  3  1  0  0  0  0
 12 10  1  0  0  0  0
 13 12  1  0  0  0  0
 13 14  1  1  0  0  0
 15 16  1  0  0  0  0
 16 13  1  0  0  0  0
 16 17  1  0  0  0  0
 18 16  1  0  0  0  0
 19 20  1  0  0  0  0
 21 32  1  0  0  0  0
 22 26  1  0  0  0  0
 23 24  1  0  0  0  0
 25 22  2  0  0  0  0
 25 27  1  0  0  0  0
 26 21  1  0  0  0  0
 26 24  2  0  0  0  0
 27 23  2  0  0  0  0
 29 27  1  0  0  0  0
 29 28  2  0  0  0  0
 30 31  2  0  0  0  0
 31 29  1  0  0  0  0
 32 33  1  0  0  0  0
 33 34  2  0  0  0  0
M  END
>  <MODEL>
8

>  <REMARK>
 VINA RESULT:      -7.8      4.278      6.784
  Name = 
  11 active torsions:
  status: ('A' for Active; 'I' for Inactive)
    1  A    between atoms: C_1  and  O_11
    2  A    between atoms: N_2  and  C_17
    3  A    between atoms: O_3  and  C_30
    4  A    between atoms: C_8  and  C_9
    5  A    between atoms: C_8  and  O_11
    6  A    between atoms: C_10  and  C_13
    7  A    between atoms: C_10  and  N_21
    8  A    between atoms: N_21  and  C_24
    9  A    between atoms: N_21  and  C_28
   10  A    between atoms: N_22  and  C_26
   11  A    between atoms: C_26  and  C_34
                            x       y       z     vdW  Elec       q    Type
                         _______ _______ _______ _____ _____    ______ ____

>  <TORSDO>
F 11

$$$$
=
 OpenBabel11042412153D

 34 36  0  0  1  0  0  0  0  0999 V2000
  182.8350  178.1680  138.0800 C   0  0  0  0  0  3  0  0  0  0  0  0
  185.2150  178.0970  138.4390 C   0  0  0  0  0  0  0  0  0  0  0  0
  186.1420  178.6270  139.4110 C   0  0  0  0  0  0  0  0  0  0  0  0
  183.9680  178.5080  138.8200 C   0  0  0  0  0  0  0  0  0  0  0  0
  184.2990  176.9550  136.5450 C   0  0  0  0  0  3  0  0  0  0  0  0
  184.0860  179.3250  140.0650 C   0  0  2  0  0  3  0  0  0  0  0  0
  185.5330  179.3150  140.3300 N   0  0  0  0  0  0  0  0  0  0  0  0
  183.0050  177.3770  136.9230 C   0  0  0  0  0  0  0  0  0  0  0  0
  185.4240  177.3140  137.3050 C   0  0  0  0  0  3  0  0  0  0  0  0
  188.2520  178.2230  140.4460 C   0  0  0  0  0  3  0  0  0  0  0  0
  187.5560  178.4250  139.3750 N   0  0  0  0  0  0  0  0  0  0  0  0
  189.6240  178.0290  140.3570 O   0  0  0  0  0  0  0  0  0  0  0  0
  190.2380  176.9140  140.9870 C   0  0  2  0  0  3  0  0  0  0  0  0
  189.2830  176.1700  141.6620 F   0  0  0  0  0  0  0  0  0  0  0  0
  191.6190  176.3800  142.8540 F   0  0  0  0  0  0  0  0  0  0  0  0
  191.3140  177.3860  141.9540 C   0  0  0  0  0  0  0  0  0  0  0  0
  190.8630  178.4960  142.6440 F   0  0  0  0  0  0  0  0  0  0  0  0
  192.4530  177.7280  141.2480 F   0  0  0  0  0  0  0  0  0  0  0  0
  181.9170  176.9990  136.1340 O   0  0  0  0  0  0  0  0  0  0  0  0
  182.0670  176.3320  134.8870 C   0  0  0  0  0  1  0  0  0  0  0  0
  183.3440  178.7100  141.1740 N   0  0  0  0  0  0  0  0  0  0  0  0
  185.1390  177.9010  142.6710 C   0  0  0  0  0  3  0  0  0  0  0  0
  183.9510  179.1740  144.8520 C   0  0  0  0  0  3  0  0  0  0  0  0
  183.3610  179.2560  143.5880 C   0  0  0  0  0  3  0  0  0  0  0  0
  185.7270  177.8150  143.9360 C   0  0  0  0  0  3  0  0  0  0  0  0
  183.9490  178.6230  142.4810 C   0  0  0  0  0  0  0  0  0  0  0  0
  185.1390  178.4520  145.0350 C   0  0  0  0  0  0  0  0  0  0  0  0
  185.3090  179.0680  147.3170 O   0  0  0  0  0  0  0  0  0  0  0  0
  185.7640  178.3730  146.3670 C   0  0  0  0  0  0  0  0  0  0  0  0
  187.7800  177.7380  147.4810 C   0  0  0  0  0  2  0  0  0  0  0  0
  186.8820  177.5030  146.5800 N   0  0  0  0  0  0  0  0  0  0  0  0
  181.9650  178.2520  140.9670 C   0  0  0  0  0  2  0  0  0  0  0  0
  181.0090  179.4020  140.9770 C   0  0  0  0  0  3  0  0  0  0  0  0
  180.2930  179.6440  142.0130 N   0  0  0  0  0  2  0  0  0  0  0  0
  1  4  1  0  0  0  0
  2  4  2  0  0  0  0
  2  3  1  0  0  0  0
  3  7  2  0  0  0  0
  4  6  1  0  0  0  0
  5  8  1  0  0  0  0
  5  9  2  0  0  0  0
  6  7  1  0  0  0  0
  6 21  1  1  0  0  0
  8  1  2  0  0  0  0
  9  2  1  0  0  0  0
 11  3  1  0  0  0  0
 11 10  2  0  0  0  0
 12 10  1  0  0  0  0
 12 13  1  0  0  0  0
 13 14  1  1  0  0  0
 13 16  1  0  0  0  0
 16 17  1  0  0  0  0
 16 15  1  0  0  0  0
 18 16  1  0  0  0  0
 19  8  1  0  0  0  0
 20 19  1  0  0  0  0
 21 26  1  0  0  0  0
 22 25  1  0  0  0  0
 23 27  1  0  0  0  0
 24 23  2  0  0  0  0
 25 27  2  0  0  0  0
 26 22  2  0  0  0  0
 26 24  1  0  0  0  0
 27 29  1  0  0  0  0
 29 31  1  0  0  0  0
 29 28  2  0  0  0  0
 31 30  2  0  0  0  0
 32 33  1  0  0  0  0
 32 21  1  0  0  0  0
 33 34  2  0  0  0  0
M  END
>  <MODEL>
9

>  <REMARK>
 VINA RESULT:      -7.8      3.673      7.462
  Name = 
  11 active torsions:
  status: ('A' for Active; 'I' for Inactive)
    1  A    between atoms: C_1  and  O_11
    2  A    between atoms: N_2  and  C_17
    3  A    between atoms: O_3  and  C_30
    4  A    between atoms: C_8  and  C_9
    5  A    between atoms: C_8  and  O_11
    6  A    between atoms: C_10  and  C_13
    7  A    between atoms: C_10  and  N_21
    8  A    between atoms: N_21  and  C_24
    9  A    between atoms: N_21  and  C_28
   10  A    between atoms: N_22  and  C_26
   11  A    between atoms: C_26  and  C_34
                            x       y       z     vdW  Elec       q    Type
                         _______ _______ _______ _____ _____    ______ ____

>  <TORSDO>
F 11

$$$$
