=
 OpenBabel11042411153D

 54 60  0  0  1  0  0  0  0  0999 V2000
  179.9760  175.4300  137.3440 C   0  0  2  0  0  0  0  0  0  0  0  0
  181.4320  175.8200  137.2840 C   0  0  1  0  0  0  0  0  0  0  0  0
  182.3390  175.4180  136.3270 O   0  0  0  0  0  0  0  0  0  0  0  0
  179.5780  174.4170  136.4660 O   0  0  0  0  0  1  0  0  0  0  0  0
  180.3680  176.7200  136.6630 C   0  0  0  0  0  2  0  0  0  0  0  0
  182.7240  176.0090  139.3460 O   0  0  0  0  0  1  0  0  0  0  0  0
  183.3880  176.0140  137.0860 C   0  0  2  0  0  0  0  0  0  0  0  0
  183.3400  177.5290  137.4480 C   0  0  1  0  0  0  0  0  0  0  0  0
  183.9740  177.0510  136.1540 C   0  0  1  0  0  3  0  0  0  0  0  0
  182.3790  176.5780  138.1190 C   0  0  1  0  0  0  0  0  0  0  0  0
  179.2410  175.5860  138.6350 C   0  0  0  0  0  3  0  0  0  0  0  0
  179.7020  173.9880  140.5640 O   0  0  0  0  0  0  0  0  0  0  0  0
  179.4720  174.7690  139.6290 C   0  0  0  0  0  0  0  0  0  0  0  0
  184.3500  177.8860  138.3950 O   0  0  0  0  0  0  0  0  0  0  0  0
  184.4320  180.1680  138.6180 O   0  0  0  0  0  0  0  0  0  0  0  0
  184.2810  179.0460  139.1730 C   0  0  0  0  0  0  0  0  0  0  0  0
  184.0510  178.9840  140.6550 C   0  0  0  0  0  2  0  0  0  0  0  0
  185.2170  178.3020  141.3800 C   0  0  2  0  0  3  0  0  0  0  0  0
  184.8310  178.0050  142.6960 O   0  0  0  0  0  0  0  0  0  0  0  0
  185.0630  179.1820  143.4280 C   0  0  1  0  0  3  0  0  0  0  0  0
  184.0140  179.5290  144.2840 C   0  0  2  0  0  3  0  0  0  0  0  0
  185.2070  178.8360  144.8770 N   0  0  0  0  0  0  0  0  0  0  0  0
  185.9280  178.2660  145.9710 C   0  0  0  0  0  0  0  0  0  0  0  0
  185.1640  178.1100  147.4240 S   0  0  0  0  0  0  0  0  0  0  0  0
  189.4830  176.3110  143.0390 C   0  0  0  0  0  1  0  0  0  0  0  0
  189.9720  176.9190  145.4100 C   0  0  0  0  0  3  0  0  0  0  0  0
  189.5740  177.4300  146.6480 C   0  0  0  0  0  3  0  0  0  0  0  0
  188.2590  177.8780  146.8330 C   0  0  0  0  0  3  0  0  0  0  0  0
  187.3260  177.8130  145.7840 C   0  0  0  0  0  0  0  0  0  0  0  0
  189.0560  176.8530  144.3570 C   0  0  0  0  0  0  0  0  0  0  0  0
  187.7410  177.2940  144.5450 C   0  0  0  0  0  3  0  0  0  0  0  0
  182.8160  178.5700  144.3120 C   0  0  0  0  0  2  0  0  0  0  0  0
  180.3420  178.8200  143.9890 C   0  0  0  0  0  1  0  0  0  0  0  0
  181.7120  179.0560  143.3740 C   0  0  0  0  0  2  0  0  0  0  0  0
  186.4750  179.1860  141.3840 C   0  0  0  0  0  2  0  0  0  0  0  0
  187.7320  178.3920  141.0370 C   0  0  0  0  0  2  0  0  0  0  0  0
  187.8130  178.1620  139.5330 C   0  0  0  0  0  2  0  0  0  0  0  0
  189.1400  178.5300  139.0480 N   0  0  0  0  0  2  0  0  0  0  0  0
  190.2210  177.5960  138.9570 C   0  0  0  0  0  3  0  0  0  0  0  0
  190.0670  176.3580  139.3060 N   0  0  0  0  0  2  0  0  0  0  0  0
  185.4990  176.9850  136.1790 C   0  0  0  0  0  2  0  0  0  0  0  0
  185.9860  175.5550  136.3760 C   0  0  1  0  0  3  0  0  0  0  0  0
  185.9180  174.8690  135.1750 F   0  0  0  0  0  0  0  0  0  0  0  0
  187.4080  175.5020  136.9350 C   0  0  0  0  0  2  0  0  0  0  0  0
  188.4660  175.5220  135.8390 C   0  0  0  0  0  2  0  0  0  0  0  0
  188.9180  174.2250  135.5770 O   0  0  0  0  0  0  0  0  0  0  0  0
  192.2390  175.7920  136.2740 C   0  0  0  0  0  2  0  0  0  0  0  0
  192.7250  174.7010  137.2300 C   0  0  1  0  0  3  0  0  0  0  0  0
  190.9120  172.9620  135.5370 C   0  0  0  0  0  3  0  0  0  0  0  0
  193.1020  173.4980  136.4990 N   0  0  0  0  0  2  0  0  0  0  0  0
  190.9690  175.4390  135.4920 C   0  0  0  0  0  2  0  0  0  0  0  0
  193.9250  175.2120  138.0020 C   0  0  0  0  0  1  0  0  0  0  0  0
  190.2390  174.2080  136.0260 C   0  0  1  0  0  3  0  0  0  0  0  0
  192.1970  172.6630  135.7580 C   0  0  0  0  0  3  0  0  0  0  0  0
  1  4  1  6  0  0  0
  1 11  1  0  0  0  0
  2  5  1  6  0  0  0
  2  1  1  0  0  0  0
  2 10  1  0  0  0  0
  3  2  1  0  0  0  0
  5  1  1  0  0  0  0
  7  3  1  6  0  0  0
  7  8  1  0  0  0  0
  7 10  1  0  0  0  0
  8 10  1  0  0  0  0
  8 14  1  1  0  0  0
  9 41  1  1  0  0  0
  9  7  1  0  0  0  0
  9  8  1  0  0  0  0
 10  6  1  1  0  0  0
 11 13  2  0  0  0  0
 13 12  2  0  0  0  0
 14 16  1  0  0  0  0
 15 16  2  0  0  0  0
 16 17  1  0  0  0  0
 18 17  1  1  0  0  0
 18 35  1  0  0  0  0
 18 19  1  0  0  0  0
 20 19  1  6  0  0  0
 20 21  1  0  0  0  0
 20 22  1  0  0  0  0
 21 32  1  6  0  0  0
 21 22  1  0  0  0  0
 22 23  1  0  0  0  0
 23 24  2  0  0  0  0
 25 30  1  0  0  0  0
 26 27  1  0  0  0  0
 27 28  2  0  0  0  0
 29 23  1  0  0  0  0
 29 28  1  0  0  0  0
 30 31  1  0  0  0  0
 30 26  2  0  0  0  0
 31 29  2  0  0  0  0
 34 33  1  0  0  0  0
 34 32  1  0  0  0  0
 36 35  1  0  0  0  0
 37 36  1  0  0  0  0
 38 37  1  0  0  0  0
 39 38  1  0  0  0  0
 39 40  2  0  0  0  0
 41 42  1  0  0  0  0
 42 43  1  6  0  0  0
 42 44  1  0  0  0  0
 45 44  1  0  0  0  0
 46 45  1  0  0  0  0
 47 48  1  0  0  0  0
 48 52  1  6  0  0  0
 49 54  2  0  0  0  0
 49 53  1  0  0  0  0
 50 48  1  0  0  0  0
 51 53  1  0  0  0  0
 51 47  1  0  0  0  0
 53 46  1  6  0  0  0
 54 50  1  0  0  0  0
M  END
>  <MODEL>
1

>  <REMARK>
 VINA RESULT:      -6.9      0.000      0.000
  Name = 
  21 active torsions:
  status: ('A' for Active; 'I' for Inactive)
    1  A    between atoms: C_2  and  N_42
    2  A    between atoms: C_2  and  C_44
    3  A    between atoms: C_3  and  C_8
    4  A    between atoms: C_6  and  O_34
    5  A    between atoms: C_6  and  C_52
    6  A    between atoms: C_7  and  C_28
    7  A    between atoms: C_7  and  N_30
    8  A    between atoms: C_10  and  C_27
    9  A    between atoms: C_10  and  C_52
   10  A    between atoms: C_11  and  C_38
   11  A    between atoms: C_11  and  C_46
   12  A    between atoms: C_13  and  C_28
   13  A    between atoms: C_13  and  C_46
   14  A    between atoms: C_14  and  C_45
   15  A    between atoms: O_17  and  C_35
   16  A    between atoms: O_17  and  C_46
   17  A    between atoms: C_27  and  C_33
   18  A    between atoms: C_32  and  O_36
   19  A    between atoms: O_34  and  C_50
   20  A    between atoms: O_36  and  C_38
   21  A    between atoms: C_37  and  C_45
                            x       y       z     vdW  Elec       q    Type
                         _______ _______ _______ _____ _____    ______ ____

>  <TORSDO>
F 21

$$$$
=
 OpenBabel11042411153D

 54 60  0  0  1  0  0  0  0  0999 V2000
  184.5130  178.9980  145.0600 C   0  0  2  0  0  0  0  0  0  0  0  0
  184.6870  178.6670  143.5990 C   0  0  1  0  0  0  0  0  0  0  0  0
  183.6760  178.5610  142.6670 O   0  0  0  0  0  0  0  0  0  0  0  0
  183.1980  178.9930  145.5350 O   0  0  0  0  0  1  0  0  0  0  0  0
  184.8130  180.1090  144.0820 C   0  0  0  0  0  2  0  0  0  0  0  0
  186.3590  177.0260  142.9150 O   0  0  0  0  0  1  0  0  0  0  0  0
  184.6180  178.0670  141.7170 C   0  0  2  0  0  0  0  0  0  0  0  0
  185.8710  178.9110  141.3350 C   0  0  1  0  0  0  0  0  0  0  0  0
  184.5590  179.0680  140.5850 C   0  0  1  0  0  3  0  0  0  0  0  0
  185.7930  178.2850  142.7060 C   0  0  1  0  0  0  0  0  0  0  0  0
  185.6170  178.6660  146.0100 C   0  0  0  0  0  3  0  0  0  0  0  0
  186.0560  180.1590  148.0260 O   0  0  0  0  0  0  0  0  0  0  0  0
  185.8480  179.4280  147.0460 C   0  0  0  0  0  0  0  0  0  0  0  0
  186.8040  178.1610  140.5520 O   0  0  0  0  0  0  0  0  0  0  0  0
  188.7940  179.2990  140.6270 O   0  0  0  0  0  0  0  0  0  0  0  0
  188.1840  178.2050  140.7730 C   0  0  0  0  0  0  0  0  0  0  0  0
  188.9570  176.9780  141.1600 C   0  0  0  0  0  2  0  0  0  0  0  0
  190.4680  177.1940  141.0130 C   0  0  2  0  0  3  0  0  0  0  0  0
  190.9660  176.3140  140.0400 O   0  0  0  0  0  0  0  0  0  0  0  0
  191.3960  177.1330  138.9820 C   0  0  1  0  0  3  0  0  0  0  0  0
  191.7140  176.4280  137.8180 C   0  0  2  0  0  3  0  0  0  0  0  0
  190.3720  177.0990  137.8910 N   0  0  0  0  0  0  0  0  0  0  0  0
  189.0930  177.4380  137.3520 C   0  0  0  0  0  0  0  0  0  0  0  0
  188.8050  179.0030  136.9230 S   0  0  0  0  0  0  0  0  0  0  0  0
  187.8830  172.6010  136.8970 C   0  0  0  0  0  1  0  0  0  0  0  0
  186.1290  174.3740  136.7960 C   0  0  0  0  0  3  0  0  0  0  0  0
  185.7420  175.7160  136.8380 C   0  0  0  0  0  3  0  0  0  0  0  0
  186.7050  176.7180  137.0270 C   0  0  0  0  0  3  0  0  0  0  0  0
  188.0630  176.3880  137.1690 C   0  0  0  0  0  0  0  0  0  0  0  0
  187.4750  174.0310  136.9400 C   0  0  0  0  0  0  0  0  0  0  0  0
  188.4360  175.0330  137.1220 C   0  0  0  0  0  3  0  0  0  0  0  0
  191.5140  174.9070  137.8680 C   0  0  0  0  0  2  0  0  0  0  0  0
  194.0000  174.6060  137.7500 C   0  0  0  0  0  1  0  0  0  0  0  0
  192.6610  174.1870  137.1640 C   0  0  0  0  0  2  0  0  0  0  0  0
  191.2020  176.9790  142.3460 C   0  0  0  0  0  2  0  0  0  0  0  0
  190.3500  177.3990  143.5410 C   0  0  0  0  0  2  0  0  0  0  0  0
  191.2310  177.6320  144.7630 C   0  0  0  0  0  2  0  0  0  0  0  0
  190.4940  177.2900  145.9760 N   0  0  0  0  0  2  0  0  0  0  0  0
  191.0750  176.5450  147.0530 C   0  0  0  0  0  3  0  0  0  0  0  0
  192.3030  176.1380  146.9990 N   0  0  0  0  0  2  0  0  0  0  0  0
  184.5040  178.3460  139.2420 C   0  0  0  0  0  2  0  0  0  0  0  0
  183.2250  178.6860  138.4860 C   0  0  1  0  0  3  0  0  0  0  0  0
  183.2750  178.1390  137.2150 F   0  0  0  0  0  0  0  0  0  0  0  0
  181.9750  178.2000  139.2210 C   0  0  0  0  0  2  0  0  0  0  0  0
  181.2880  177.0460  138.5020 C   0  0  0  0  0  2  0  0  0  0  0  0
  181.0340  176.0010  139.3960 O   0  0  0  0  0  0  0  0  0  0  0  0
  182.5050  173.8220  136.7400 C   0  0  0  0  0  2  0  0  0  0  0  0
  181.8310  172.5320  137.2110 C   0  0  1  0  0  3  0  0  0  0  0  0
  179.7110  174.4630  138.1890 C   0  0  0  0  0  2  0  0  0  0  0  0
  180.4160  172.5270  136.8610 N   0  0  0  0  0  0  0  0  0  0  0  0
  181.9720  175.0990  137.3980 C   0  0  0  0  0  2  0  0  0  0  0  0
  182.5100  171.3450  136.5550 C   0  0  0  0  0  1  0  0  0  0  0  0
  181.0950  174.8420  138.6210 C   0  0  1  0  0  3  0  0  0  0  0  0
  179.4290  173.4220  137.3980 C   0  0  0  0  0  3  0  0  0  0  0  0
  1  4  1  1  0  0  0
  1 11  1  0  0  0  0
  2  5  1  6  0  0  0
  2  1  1  0  0  0  0
  3  2  1  0  0  0  0
  5  1  1  0  0  0  0
  7  3  1  1  0  0  0
  7 10  1  0  0  0  0
  8 14  1  6  0  0  0
  8  7  1  0  0  0  0
  8 10  1  0  0  0  0
  9 41  1  6  0  0  0
  9  8  1  0  0  0  0
  9  7  1  0  0  0  0
 10  6  1  1  0  0  0
 10  2  1  0  0  0  0
 11 13  2  0  0  0  0
 13 12  2  0  0  0  0
 14 16  1  0  0  0  0
 15 16  2  0  0  0  0
 16 17  1  0  0  0  0
 18 17  1  1  0  0  0
 18 35  1  0  0  0  0
 19 18  1  0  0  0  0
 20 19  1  1  0  0  0
 21 32  1  1  0  0  0
 21 22  1  0  0  0  0
 21 20  1  0  0  0  0
 22 20  1  0  0  0  0
 23 22  1  0  0  0  0
 24 23  2  0  0  0  0
 25 30  1  0  0  0  0
 26 27  2  0  0  0  0
 26 30  1  0  0  0  0
 27 28  1  0  0  0  0
 28 29  2  0  0  0  0
 29 23  1  0  0  0  0
 30 31  2  0  0  0  0
 31 29  1  0  0  0  0
 34 33  1  0  0  0  0
 34 32  1  0  0  0  0
 35 36  1  0  0  0  0
 36 37  1  0  0  0  0
 37 38  1  0  0  0  0
 38 39  1  0  0  0  0
 40 39  2  0  0  0  0
 42 43  1  6  0  0  0
 42 44  1  0  0  0  0
 42 41  1  0  0  0  0
 45 44  1  0  0  0  0
 45 46  1  0  0  0  0
 47 48  1  0  0  0  0
 47 51  1  0  0  0  0
 48 52  1  6  0  0  0
 49 53  1  0  0  0  0
 50 48  1  0  0  0  0
 50 54  2  0  0  0  0
 51 53  1  0  0  0  0
 53 46  1  1  0  0  0
 54 49  1  0  0  0  0
M  END
>  <MODEL>
2

>  <REMARK>
 VINA RESULT:      -6.5      3.282      8.770
  Name = 
  21 active torsions:
  status: ('A' for Active; 'I' for Inactive)
    1  A    between atoms: C_2  and  N_42
    2  A    between atoms: C_2  and  C_44
    3  A    between atoms: C_3  and  C_8
    4  A    between atoms: C_6  and  O_34
    5  A    between atoms: C_6  and  C_52
    6  A    between atoms: C_7  and  C_28
    7  A    between atoms: C_7  and  N_30
    8  A    between atoms: C_10  and  C_27
    9  A    between atoms: C_10  and  C_52
   10  A    between atoms: C_11  and  C_38
   11  A    between atoms: C_11  and  C_46
   12  A    between atoms: C_13  and  C_28
   13  A    between atoms: C_13  and  C_46
   14  A    between atoms: C_14  and  C_45
   15  A    between atoms: O_17  and  C_35
   16  A    between atoms: O_17  and  C_46
   17  A    between atoms: C_27  and  C_33
   18  A    between atoms: C_32  and  O_36
   19  A    between atoms: O_34  and  C_50
   20  A    between atoms: O_36  and  C_38
   21  A    between atoms: C_37  and  C_45
                            x       y       z     vdW  Elec       q    Type
                         _______ _______ _______ _____ _____    ______ ____

>  <TORSDO>
F 21

$$$$
=
 OpenBabel11042411153D

 54 60  0  0  1  0  0  0  0  0999 V2000
  189.6060  176.9600  143.8580 C   0  0  2  0  0  0  0  0  0  0  0  0
  189.7810  177.1800  142.3750 C   0  0  1  0  0  0  0  0  0  0  0  0
  190.9090  176.8830  141.6400 O   0  0  0  0  0  0  0  0  0  0  0  0
  190.7620  176.6150  144.5640 O   0  0  0  0  0  1  0  0  0  0  0  0
  189.1310  175.9000  142.8930 C   0  0  0  0  0  2  0  0  0  0  0  0
  188.8430  179.1740  141.3240 O   0  0  0  0  0  1  0  0  0  0  0  0
  190.3340  177.5410  140.5130 C   0  0  2  0  0  0  0  0  0  0  0  0
  188.9570  177.0810  139.9460 C   0  0  1  0  0  0  0  0  0  0  0  0
  190.2540  176.4610  139.4570 C   0  0  1  0  0  3  0  0  0  0  0  0
  189.0090  177.7880  141.2790 C   0  0  1  0  0  0  0  0  0  0  0  0
  188.5260  177.7040  144.5740 C   0  0  0  0  0  3  0  0  0  0  0  0
  188.0930  177.2550  147.0430 O   0  0  0  0  0  0  0  0  0  0  0  0
  188.2980  177.4780  145.8410 C   0  0  0  0  0  0  0  0  0  0  0  0
  188.4460  177.9960  138.9730 O   0  0  0  0  0  0  0  0  0  0  0  0
  186.3150  178.8330  138.8220 O   0  0  0  0  0  0  0  0  0  0  0  0
  187.1350  177.9320  138.4910 C   0  0  0  0  0  0  0  0  0  0  0  0
  186.6760  176.8100  137.6080 C   0  0  0  0  0  2  0  0  0  0  0  0
  185.3100  177.1080  136.9780 C   0  0  2  0  0  3  0  0  0  0  0  0
  184.2990  176.6220  137.8200 O   0  0  0  0  0  0  0  0  0  0  0  0
  183.0960  177.1050  137.2770 C   0  0  1  0  0  3  0  0  0  0  0  0
  181.9530  176.5360  137.8450 C   0  0  2  0  0  3  0  0  0  0  0  0
  182.3730  177.8980  138.3190 N   0  0  0  0  0  0  0  0  0  0  0  0
  182.2190  179.0570  139.1410 C   0  0  0  0  0  0  0  0  0  0  0  0
  181.7830  180.4780  138.4290 S   0  0  0  0  0  0  0  0  0  0  0  0
  185.2920  178.3260  143.0250 C   0  0  0  0  0  1  0  0  0  0  0  0
  182.8590  178.7520  143.3810 C   0  0  0  0  0  3  0  0  0  0  0  0
  181.5780  179.0110  142.8880 C   0  0  0  0  0  3  0  0  0  0  0  0
  181.3660  179.1190  141.5060 C   0  0  0  0  0  3  0  0  0  0  0  0
  182.4320  178.9620  140.6050 C   0  0  0  0  0  0  0  0  0  0  0  0
  183.9280  178.5990  142.4970 C   0  0  0  0  0  0  0  0  0  0  0  0
  183.7150  178.7000  141.1170 C   0  0  0  0  0  3  0  0  0  0  0  0
  182.1870  175.5210  138.9720 C   0  0  0  0  0  2  0  0  0  0  0  0
  179.7100  175.1800  138.7940 C   0  0  0  0  0  1  0  0  0  0  0  0
  180.8950  175.2610  139.7430 C   0  0  0  0  0  2  0  0  0  0  0  0
  185.1820  176.4820  135.5800 C   0  0  0  0  0  2  0  0  0  0  0  0
  186.3710  175.5840  135.2470 C   0  0  0  0  0  2  0  0  0  0  0  0
  185.9570  174.1180  135.2990 C   0  0  0  0  0  2  0  0  0  0  0  0
  186.4110  173.5210  136.5520 N   0  0  0  0  0  2  0  0  0  0  0  0
  185.5100  173.0270  137.5490 C   0  0  0  0  0  3  0  0  0  0  0  0
  184.2270  173.0870  137.3800 N   0  0  0  0  0  2  0  0  0  0  0  0
  190.7480  176.9940  138.1150 C   0  0  0  0  0  2  0  0  0  0  0  0
  190.8930  175.8710  137.0960 C   0  0  1  0  0  3  0  0  0  0  0  0
  189.6730  175.6360  136.4840 F   0  0  0  0  0  0  0  0  0  0  0  0
  191.9590  176.1810  136.0450 C   0  0  0  0  0  2  0  0  0  0  0  0
  193.3750  176.0070  136.5810 C   0  0  0  0  0  2  0  0  0  0  0  0
  193.4280  174.9280  137.4680 O   0  0  0  0  0  0  0  0  0  0  0  0
  196.7900  174.5860  135.8700 C   0  0  0  0  0  2  0  0  0  0  0  0
  197.5320  174.2100  137.1540 C   0  0  1  0  0  3  0  0  0  0  0  0
  194.8260  173.0790  137.9170 C   0  0  0  0  0  2  0  0  0  0  0  0
  197.2360  172.8370  137.5420 N   0  0  0  0  0  0  0  0  0  0  0  0
  195.2610  174.5690  135.9850 C   0  0  0  0  0  2  0  0  0  0  0  0
  199.0240  174.3540  136.9290 C   0  0  0  0  0  1  0  0  0  0  0  0
  194.7530  174.4920  137.4230 C   0  0  1  0  0  3  0  0  0  0  0  0
  195.9490  172.3540  137.9600 C   0  0  0  0  0  3  0  0  0  0  0  0
  1  4  1  1  0  0  0
  1 11  1  0  0  0  0
  2  5  1  6  0  0  0
  2  1  1  0  0  0  0
  3  2  1  0  0  0  0
  5  1  1  0  0  0  0
  7 10  1  0  0  0  0
  7  3  1  1  0  0  0
  8 14  1  6  0  0  0
  8  7  1  0  0  0  0
  8 10  1  0  0  0  0
  9 41  1  6  0  0  0
  9  8  1  0  0  0  0
  9  7  1  0  0  0  0
 10  6  1  1  0  0  0
 10  2  1  0  0  0  0
 11 13  2  0  0  0  0
 13 12  2  0  0  0  0
 16 15  2  0  0  0  0
 16 14  1  0  0  0  0
 17 16  1  0  0  0  0
 18 35  1  6  0  0  0
 18 17  1  0  0  0  0
 18 19  1  0  0  0  0
 20 19  1  1  0  0  0
 20 21  1  0  0  0  0
 20 22  1  0  0  0  0
 21 22  1  0  0  0  0
 21 32  1  1  0  0  0
 22 23  1  0  0  0  0
 23 29  1  0  0  0  0
 24 23  2  0  0  0  0
 27 26  1  0  0  0  0
 28 27  2  0  0  0  0
 29 31  2  0  0  0  0
 29 28  1  0  0  0  0
 30 25  1  0  0  0  0
 30 26  2  0  0  0  0
 31 30  1  0  0  0  0
 32 34  1  0  0  0  0
 33 34  1  0  0  0  0
 36 37  1  0  0  0  0
 36 35  1  0  0  0  0
 37 38  1  0  0  0  0
 38 39  1  0  0  0  0
 40 39  2  0  0  0  0
 42 43  1  6  0  0  0
 42 41  1  0  0  0  0
 44 45  1  0  0  0  0
 44 42  1  0  0  0  0
 45 46  1  0  0  0  0
 47 51  1  0  0  0  0
 47 48  1  0  0  0  0
 48 52  1  6  0  0  0
 48 50  1  0  0  0  0
 49 54  1  0  0  0  0
 50 54  2  0  0  0  0
 51 53  1  0  0  0  0
 53 46  1  6  0  0  0
 53 49  1  0  0  0  0
M  END
>  <MODEL>
3

>  <REMARK>
 VINA RESULT:      -6.5      3.258      7.105
  Name = 
  21 active torsions:
  status: ('A' for Active; 'I' for Inactive)
    1  A    between atoms: C_2  and  N_42
    2  A    between atoms: C_2  and  C_44
    3  A    between atoms: C_3  and  C_8
    4  A    between atoms: C_6  and  O_34
    5  A    between atoms: C_6  and  C_52
    6  A    between atoms: C_7  and  C_28
    7  A    between atoms: C_7  and  N_30
    8  A    between atoms: C_10  and  C_27
    9  A    between atoms: C_10  and  C_52
   10  A    between atoms: C_11  and  C_38
   11  A    between atoms: C_11  and  C_46
   12  A    between atoms: C_13  and  C_28
   13  A    between atoms: C_13  and  C_46
   14  A    between atoms: C_14  and  C_45
   15  A    between atoms: O_17  and  C_35
   16  A    between atoms: O_17  and  C_46
   17  A    between atoms: C_27  and  C_33
   18  A    between atoms: C_32  and  O_36
   19  A    between atoms: O_34  and  C_50
   20  A    between atoms: O_36  and  C_38
   21  A    between atoms: C_37  and  C_45
                            x       y       z     vdW  Elec       q    Type
                         _______ _______ _______ _____ _____    ______ ____

>  <TORSDO>
F 21

$$$$
=
 OpenBabel11042411153D

 54 60  0  0  1  0  0  0  0  0999 V2000
  190.4150  177.2830  145.7500 C   0  0  2  0  0  0  0  0  0  0  0  0
  189.6300  177.3360  144.4630 C   0  0  1  0  0  0  0  0  0  0  0  0
  188.3390  177.7980  144.3210 O   0  0  0  0  0  0  0  0  0  0  0  0
  189.6900  177.5370  146.9180 O   0  0  0  0  0  1  0  0  0  0  0  0
  190.5650  178.4810  144.8420 C   0  0  0  0  0  2  0  0  0  0  0  0
  189.8430  175.5290  142.8350 O   0  0  0  0  0  1  0  0  0  0  0  0
  188.3320  177.3310  142.9730 C   0  0  2  0  0  0  0  0  0  0  0  0
  189.3990  177.8370  141.9560 C   0  0  1  0  0  0  0  0  0  0  0  0
  188.0890  178.5780  142.1530 C   0  0  1  0  0  3  0  0  0  0  0  0
  189.8200  176.9060  143.0680 C   0  0  1  0  0  0  0  0  0  0  0  0
  191.6080  176.3870  145.8300 C   0  0  0  0  0  3  0  0  0  0  0  0
  192.4860  175.6350  148.0990 O   0  0  0  0  0  0  0  0  0  0  0  0
  192.0640  175.9970  146.9910 C   0  0  0  0  0  0  0  0  0  0  0  0
  189.3710  177.0920  140.7350 O   0  0  0  0  0  0  0  0  0  0  0  0
  191.4960  177.0370  139.8730 O   0  0  0  0  0  0  0  0  0  0  0  0
  190.2770  177.3120  139.6940 C   0  0  0  0  0  0  0  0  0  0  0  0
  189.8380  177.8830  138.3780 C   0  0  0  0  0  2  0  0  0  0  0  0
  188.6570  177.1020  137.7890 C   0  0  2  0  0  3  0  0  0  0  0  0
  189.1290  176.2360  136.7910 O   0  0  0  0  0  0  0  0  0  0  0  0
  189.7110  175.1570  137.4780 C   0  0  1  0  0  3  0  0  0  0  0  0
  189.5430  173.9250  136.8380 C   0  0  2  0  0  3  0  0  0  0  0  0
  190.8600  174.6300  136.6760 N   0  0  0  0  0  0  0  0  0  0  0  0
  192.1850  174.7350  136.1520 C   0  0  0  0  0  0  0  0  0  0  0  0
  192.4480  175.7270  134.8610 S   0  0  0  0  0  0  0  0  0  0  0  0
  195.9340  174.4980  139.4620 C   0  0  0  0  0  1  0  0  0  0  0  0
  195.4230  172.5660  137.9660 C   0  0  0  0  0  3  0  0  0  0  0  0
  194.6640  171.9680  136.9570 C   0  0  0  0  0  3  0  0  0  0  0  0
  193.6020  172.6680  136.3690 C   0  0  0  0  0  3  0  0  0  0  0  0
  193.2940  173.9760  136.7780 C   0  0  0  0  0  0  0  0  0  0  0  0
  195.1240  173.8640  138.3860 C   0  0  0  0  0  0  0  0  0  0  0  0
  194.0680  174.5660  137.7930 C   0  0  0  0  0  3  0  0  0  0  0  0
  188.7950  173.9530  135.4990 C   0  0  0  0  0  2  0  0  0  0  0  0
  187.5790  171.9440  136.3770 C   0  0  0  0  0  1  0  0  0  0  0  0
  188.2410  172.5700  135.1610 C   0  0  0  0  0  2  0  0  0  0  0  0
  187.5880  178.0430  137.2100 C   0  0  0  0  0  2  0  0  0  0  0  0
  186.1740  177.5520  137.5070 C   0  0  0  0  0  2  0  0  0  0  0  0
  185.4830  177.1200  136.2200 C   0  0  0  0  0  2  0  0  0  0  0  0
  184.1930  176.5120  136.5310 N   0  0  0  0  0  2  0  0  0  0  0  0
  183.9320  175.1130  136.3610 C   0  0  0  0  0  3  0  0  0  0  0  0
  184.8470  174.3110  135.9180 N   0  0  0  0  0  2  0  0  0  0  0  0
  187.0380  178.3090  141.0780 C   0  0  0  0  0  2  0  0  0  0  0  0
  185.7520  179.0760  141.3620 C   0  0  1  0  0  3  0  0  0  0  0  0
  185.0640  179.2860  140.1780 F   0  0  0  0  0  0  0  0  0  0  0  0
  184.8590  178.3510  142.3690 C   0  0  0  0  0  2  0  0  0  0  0  0
  183.5510  177.8740  141.7510 C   0  0  0  0  0  2  0  0  0  0  0  0
  182.6410  178.9320  141.6640 O   0  0  0  0  0  0  0  0  0  0  0  0
  181.2890  176.9650  138.7870 C   0  0  0  0  0  2  0  0  0  0  0  0
  179.8420  176.9450  139.2840 C   0  0  1  0  0  3  0  0  0  0  0  0
  180.6570  179.5710  140.5550 C   0  0  0  0  0  2  0  0  0  0  0  0
  179.2080  178.2430  139.0910 N   0  0  0  0  0  0  0  0  0  0  0  0
  182.2110  177.9270  139.5440 C   0  0  0  0  0  2  0  0  0  0  0  0
  179.0650  175.8930  138.5160 C   0  0  0  0  0  1  0  0  0  0  0  0
  181.6150  178.4560  140.8460 C   0  0  1  0  0  3  0  0  0  0  0  0
  179.5850  179.4550  139.7640 C   0  0  0  0  0  3  0  0  0  0  0  0
  1 11  1  0  0  0  0
  1  4  1  1  0  0  0
  2  5  1  6  0  0  0
  2  1  1  0  0  0  0
  3  2  1  0  0  0  0
  5  1  1  0  0  0  0
  7 10  1  0  0  0  0
  7  3  1  1  0  0  0
  8 14  1  6  0  0  0
  8  9  1  0  0  0  0
  8  7  1  0  0  0  0
  8 10  1  0  0  0  0
  9 41  1  6  0  0  0
  9  7  1  0  0  0  0
 10  6  1  6  0  0  0
 10  2  1  0  0  0  0
 11 13  2  0  0  0  0
 13 12  2  0  0  0  0
 16 15  2  0  0  0  0
 16 14  1  0  0  0  0
 17 16  1  0  0  0  0
 18 35  1  6  0  0  0
 18 17  1  0  0  0  0
 19 18  1  0  0  0  0
 20 19  1  6  0  0  0
 21 32  1  6  0  0  0
 21 20  1  0  0  0  0
 22 21  1  0  0  0  0
 22 20  1  0  0  0  0
 23 22  1  0  0  0  0
 23 29  1  0  0  0  0
 24 23  2  0  0  0  0
 26 30  1  0  0  0  0
 27 26  2  0  0  0  0
 28 29  2  0  0  0  0
 28 27  1  0  0  0  0
 29 31  1  0  0  0  0
 30 25  1  0  0  0  0
 31 30  2  0  0  0  0
 34 32  1  0  0  0  0
 34 33  1  0  0  0  0
 35 36  1  0  0  0  0
 37 38  1  0  0  0  0
 37 36  1  0  0  0  0
 39 38  1  0  0  0  0
 40 39  2  0  0  0  0
 41 42  1  0  0  0  0
 42 43  1  6  0  0  0
 42 44  1  0  0  0  0
 45 44  1  0  0  0  0
 46 45  1  0  0  0  0
 47 48  1  0  0  0  0
 47 51  1  0  0  0  0
 48 52  1  6  0  0  0
 49 53  1  0  0  0  0
 50 48  1  0  0  0  0
 50 54  2  0  0  0  0
 51 53  1  0  0  0  0
 53 46  1  1  0  0  0
 54 49  1  0  0  0  0
M  END
>  <MODEL>
4

>  <REMARK>
 VINA RESULT:      -6.4      3.872     10.342
  Name = 
  21 active torsions:
  status: ('A' for Active; 'I' for Inactive)
    1  A    between atoms: C_2  and  N_42
    2  A    between atoms: C_2  and  C_44
    3  A    between atoms: C_3  and  C_8
    4  A    between atoms: C_6  and  O_34
    5  A    between atoms: C_6  and  C_52
    6  A    between atoms: C_7  and  C_28
    7  A    between atoms: C_7  and  N_30
    8  A    between atoms: C_10  and  C_27
    9  A    between atoms: C_10  and  C_52
   10  A    between atoms: C_11  and  C_38
   11  A    between atoms: C_11  and  C_46
   12  A    between atoms: C_13  and  C_28
   13  A    between atoms: C_13  and  C_46
   14  A    between atoms: C_14  and  C_45
   15  A    between atoms: O_17  and  C_35
   16  A    between atoms: O_17  and  C_46
   17  A    between atoms: C_27  and  C_33
   18  A    between atoms: C_32  and  O_36
   19  A    between atoms: O_34  and  C_50
   20  A    between atoms: O_36  and  C_38
   21  A    between atoms: C_37  and  C_45
                            x       y       z     vdW  Elec       q    Type
                         _______ _______ _______ _____ _____    ______ ____

>  <TORSDO>
F 21

$$$$
=
 OpenBabel11042411153D

 54 60  0  0  1  0  0  0  0  0999 V2000
  193.1710  174.6400  136.7210 C   0  0  2  0  0  0  0  0  0  0  0  0
  191.8480  175.1240  137.2610 C   0  0  1  0  0  0  0  0  0  0  0  0
  191.6760  176.0330  138.2830 O   0  0  0  0  0  0  0  0  0  0  0  0
  194.3010  174.9980  137.4620 O   0  0  0  0  0  1  0  0  0  0  0  0
  192.4800  175.8020  136.0490 C   0  0  0  0  0  2  0  0  0  0  0  0
  189.9790  173.5690  137.4690 O   0  0  0  0  0  1  0  0  0  0  0  0
  190.2750  175.7640  138.2710 C   0  0  2  0  0  0  0  0  0  0  0  0
  189.4420  175.9680  136.9700 C   0  0  1  0  0  0  0  0  0  0  0  0
  189.6450  177.1030  137.9590 C   0  0  1  0  0  3  0  0  0  0  0  0
  190.4230  174.8240  137.0470 C   0  0  1  0  0  0  0  0  0  0  0  0
  193.2070  173.3720  135.9320 C   0  0  0  0  0  3  0  0  0  0  0  0
  194.7610  171.4800  136.6300 O   0  0  0  0  0  0  0  0  0  0  0  0
  194.0020  172.3970  136.2840 C   0  0  0  0  0  0  0  0  0  0  0  0
  188.1210  175.4340  137.0910 O   0  0  0  0  0  0  0  0  0  0  0  0
  187.4550  174.6400  135.0440 O   0  0  0  0  0  0  0  0  0  0  0  0
  187.2190  175.4000  136.0240 C   0  0  0  0  0  0  0  0  0  0  0  0
  185.9880  176.2580  136.0080 C   0  0  0  0  0  2  0  0  0  0  0  0
  185.2400  176.1970  137.3450 C   0  0  2  0  0  3  0  0  0  0  0  0
  184.4170  175.0600  137.3610 O   0  0  0  0  0  0  0  0  0  0  0  0
  183.5170  175.2360  136.2960 C   0  0  1  0  0  3  0  0  0  0  0  0
  183.0710  174.0370  135.7330 C   0  0  2  0  0  3  0  0  0  0  0  0
  182.1690  174.7350  136.7100 N   0  0  0  0  0  0  0  0  0  0  0  0
  180.9620  174.8410  137.4670 C   0  0  0  0  0  0  0  0  0  0  0  0
  179.8650  173.6120  137.3830 S   0  0  0  0  0  0  0  0  0  0  0  0
  180.6620  179.8120  137.9770 C   0  0  0  0  0  1  0  0  0  0  0  0
  180.3020  178.3020  139.9310 C   0  0  0  0  0  3  0  0  0  0  0  0
  180.2260  177.0240  140.4920 C   0  0  0  0  0  3  0  0  0  0  0  0
  180.4330  175.8920  139.6900 C   0  0  0  0  0  3  0  0  0  0  0  0
  180.7240  176.0280  138.3220 C   0  0  0  0  0  0  0  0  0  0  0  0
  180.5850  178.4500  138.5720 C   0  0  0  0  0  0  0  0  0  0  0  0
  180.7980  177.3200  137.7740 C   0  0  0  0  0  3  0  0  0  0  0  0
  183.5990  172.7470  136.3750 C   0  0  0  0  0  2  0  0  0  0  0  0
  183.5540  170.2430  136.2690 C   0  0  0  0  0  1  0  0  0  0  0  0
  182.8910  171.5250  135.7940 C   0  0  0  0  0  2  0  0  0  0  0  0
  184.3990  177.4620  137.5810 C   0  0  0  0  0  2  0  0  0  0  0  0
  185.1150  178.4630  138.4840 C   0  0  0  0  0  2  0  0  0  0  0  0
  184.1210  179.1270  139.4300 C   0  0  0  0  0  2  0  0  0  0  0  0
  183.7200  178.1830  140.4680 N   0  0  0  0  0  2  0  0  0  0  0  0
  184.2610  178.2100  141.7940 C   0  0  0  0  0  3  0  0  0  0  0  0
  185.1450  179.0910  142.1380 N   0  0  0  0  0  2  0  0  0  0  0  0
  188.4590  177.3590  138.8850 C   0  0  0  0  0  2  0  0  0  0  0  0
  188.8320  178.3250  140.0030 C   0  0  1  0  0  3  0  0  0  0  0  0
  187.6960  178.9770  140.4550 F   0  0  0  0  0  0  0  0  0  0  0  0
  189.5320  177.6190  141.1650 C   0  0  0  0  0  2  0  0  0  0  0  0
  189.0940  178.1540  142.5220 C   0  0  0  0  0  2  0  0  0  0  0  0
  190.0330  177.8190  143.5020 O   0  0  0  0  0  0  0  0  0  0  0  0
  189.5630  177.0070  147.1200 C   0  0  0  0  0  2  0  0  0  0  0  0
  188.4170  177.9950  147.3500 C   0  0  1  0  0  3  0  0  0  0  0  0
  187.8870  177.4540  144.4170 C   0  0  0  0  0  3  0  0  0  0  0  0
  187.1790  177.5000  146.7620 N   0  0  0  0  0  2  0  0  0  0  0  0
  189.9310  176.7860  145.6490 C   0  0  0  0  0  2  0  0  0  0  0  0
  188.2180  178.1900  148.8400 C   0  0  0  0  0  1  0  0  0  0  0  0
  189.3150  177.8100  144.6990 C   0  0  1  0  0  3  0  0  0  0  0  0
  186.9460  177.3180  145.3560 C   0  0  0  0  0  3  0  0  0  0  0  0
  1  2  1  0  0  0  0
  1  4  1  1  0  0  0
  2  5  1  6  0  0  0
  2  3  1  0  0  0  0
  5  1  1  0  0  0  0
  7  3  1  6  0  0  0
  8 10  1  0  0  0  0
  8 14  1  1  0  0  0
  8  9  1  0  0  0  0
  8  7  1  0  0  0  0
  9  7  1  0  0  0  0
  9 41  1  1  0  0  0
 10  2  1  0  0  0  0
 10  6  1  1  0  0  0
 10  7  1  0  0  0  0
 11 13  2  0  0  0  0
 11  1  1  0  0  0  0
 13 12  2  0  0  0  0
 15 16  2  0  0  0  0
 16 14  1  0  0  0  0
 17 16  1  0  0  0  0
 18 17  1  6  0  0  0
 18 19  1  0  0  0  0
 18 35  1  0  0  0  0
 20 22  1  0  0  0  0
 20 19  1  1  0  0  0
 21 20  1  0  0  0  0
 21 32  1  1  0  0  0
 21 22  1  0  0  0  0
 22 23  1  0  0  0  0
 23 29  1  0  0  0  0
 24 23  2  0  0  0  0
 25 30  1  0  0  0  0
 26 27  1  0  0  0  0
 28 27  2  0  0  0  0
 29 28  1  0  0  0  0
 30 26  2  0  0  0  0
 31 29  2  0  0  0  0
 31 30  1  0  0  0  0
 34 33  1  0  0  0  0
 34 32  1  0  0  0  0
 35 36  1  0  0  0  0
 36 37  1  0  0  0  0
 37 38  1  0  0  0  0
 38 39  1  0  0  0  0
 39 40  2  0  0  0  0
 41 42  1  0  0  0  0
 42 43  1  1  0  0  0
 42 44  1  0  0  0  0
 44 45  1  0  0  0  0
 45 46  1  0  0  0  0
 47 48  1  0  0  0  0
 48 52  1  1  0  0  0
 49 53  1  0  0  0  0
 49 54  2  0  0  0  0
 50 48  1  0  0  0  0
 51 47  1  0  0  0  0
 53 46  1  6  0  0  0
 53 51  1  0  0  0  0
 54 50  1  0  0  0  0
M  END
>  <MODEL>
5

>  <REMARK>
 VINA RESULT:      -6.3      3.425      9.600
  Name = 
  21 active torsions:
  status: ('A' for Active; 'I' for Inactive)
    1  A    between atoms: C_2  and  N_42
    2  A    between atoms: C_2  and  C_44
    3  A    between atoms: C_3  and  C_8
    4  A    between atoms: C_6  and  O_34
    5  A    between atoms: C_6  and  C_52
    6  A    between atoms: C_7  and  C_28
    7  A    between atoms: C_7  and  N_30
    8  A    between atoms: C_10  and  C_27
    9  A    between atoms: C_10  and  C_52
   10  A    between atoms: C_11  and  C_38
   11  A    between atoms: C_11  and  C_46
   12  A    between atoms: C_13  and  C_28
   13  A    between atoms: C_13  and  C_46
   14  A    between atoms: C_14  and  C_45
   15  A    between atoms: O_17  and  C_35
   16  A    between atoms: O_17  and  C_46
   17  A    between atoms: C_27  and  C_33
   18  A    between atoms: C_32  and  O_36
   19  A    between atoms: O_34  and  C_50
   20  A    between atoms: O_36  and  C_38
   21  A    between atoms: C_37  and  C_45
                            x       y       z     vdW  Elec       q    Type
                         _______ _______ _______ _____ _____    ______ ____

>  <TORSDO>
F 21

$$$$
=
 OpenBabel11042411153D

 54 60  0  0  1  0  0  0  0  0999 V2000
  180.3660  179.2110  140.4390 C   0  0  2  0  0  0  0  0  0  0  0  0
  181.6450  178.5890  139.9360 C   0  0  1  0  0  0  0  0  0  0  0  0
  181.7860  177.8490  138.7810 O   0  0  0  0  0  0  0  0  0  0  0  0
  179.1980  178.8260  139.7750 O   0  0  0  0  0  1  0  0  0  0  0  0
  181.3090  180.0400  139.5990 C   0  0  0  0  0  2  0  0  0  0  0  0
  183.2220  177.6070  141.5190 O   0  0  0  0  0  1  0  0  0  0  0  0
  183.1190  177.5220  139.1670 C   0  0  2  0  0  0  0  0  0  0  0  0
  184.1630  178.6470  139.4390 C   0  0  1  0  0  0  0  0  0  0  0  0
  183.9730  178.0720  138.0460 C   0  0  1  0  0  3  0  0  0  0  0  0
  183.0290  178.4390  140.4140 C   0  0  1  0  0  0  0  0  0  0  0  0
  180.2730  179.6060  141.8770 C   0  0  0  0  0  3  0  0  0  0  0  0
  179.5010  177.9130  143.6150 O   0  0  0  0  0  0  0  0  0  0  0  0
  179.8770  178.7430  142.7740 C   0  0  0  0  0  0  0  0  0  0  0  0
  185.3610  178.1350  140.0290 O   0  0  0  0  0  0  0  0  0  0  0  0
  185.6630  179.6580  141.7180 O   0  0  0  0  0  0  0  0  0  0  0  0
  186.1880  178.9070  140.8500 C   0  0  0  0  0  0  0  0  0  0  0  0
  187.6820  178.8760  140.7110 C   0  0  0  0  0  2  0  0  0  0  0  0
  188.2670  177.5450  141.1980 C   0  0  2  0  0  3  0  0  0  0  0  0
  189.0760  177.7800  142.3210 O   0  0  0  0  0  0  0  0  0  0  0  0
  189.4320  176.5070  142.7970 C   0  0  1  0  0  3  0  0  0  0  0  0
  190.8120  176.2910  142.8490 C   0  0  2  0  0  3  0  0  0  0  0  0
  190.1070  176.6530  144.1250 N   0  0  0  0  0  0  0  0  0  0  0  0
  190.0870  176.9370  145.5250 C   0  0  0  0  0  0  0  0  0  0  0  0
  191.4590  176.6830  146.4030 S   0  0  0  0  0  0  0  0  0  0  0  0
  185.3280  178.4440  145.1320 C   0  0  0  0  0  1  0  0  0  0  0  0
  186.5100  178.4970  147.3300 C   0  0  0  0  0  3  0  0  0  0  0  0
  187.6450  178.2740  148.1140 C   0  0  0  0  0  3  0  0  0  0  0  0
  188.8110  177.7580  147.5310 C   0  0  0  0  0  3  0  0  0  0  0  0
  188.8550  177.4670  146.1580 C   0  0  0  0  0  0  0  0  0  0  0  0
  186.5390  178.2070  145.9640 C   0  0  0  0  0  0  0  0  0  0  0  0
  187.7060  177.6980  145.3810 C   0  0  0  0  0  3  0  0  0  0  0  0
  191.7000  177.4670  142.4190 C   0  0  0  0  0  2  0  0  0  0  0  0
  192.4730  177.6040  140.0380 C   0  0  0  0  0  1  0  0  0  0  0  0
  192.7510  177.0100  141.4090 C   0  0  0  0  0  2  0  0  0  0  0  0
  189.0810  176.8480  140.0960 C   0  0  0  0  0  2  0  0  0  0  0  0
  188.6080  177.2450  138.7000 C   0  0  0  0  0  2  0  0  0  0  0  0
  189.0260  176.1930  137.6810 C   0  0  0  0  0  2  0  0  0  0  0  0
  190.2630  175.5490  138.1130 N   0  0  0  0  0  2  0  0  0  0  0  0
  190.7690  174.3530  137.5090 C   0  0  0  0  0  3  0  0  0  0  0  0
  190.1420  173.7790  136.5330 N   0  0  0  0  0  2  0  0  0  0  0  0
  185.0270  177.0490  137.6310 C   0  0  0  0  0  2  0  0  0  0  0  0
  185.3990  177.2060  136.1620 C   0  0  1  0  0  3  0  0  0  0  0  0
  186.3520  176.2610  135.8190 F   0  0  0  0  0  0  0  0  0  0  0  0
  184.1830  177.0890  135.2430 C   0  0  0  0  0  2  0  0  0  0  0  0
  183.4900  175.7370  135.3630 C   0  0  0  0  0  2  0  0  0  0  0  0
  182.2890  175.8690  136.0670 O   0  0  0  0  0  0  0  0  0  0  0  0
  180.0720  173.2980  137.6320 C   0  0  0  0  0  2  0  0  0  0  0  0
  180.4760  172.1580  136.6950 C   0  0  1  0  0  3  0  0  0  0  0  0
  183.0790  173.7030  136.5790 C   0  0  0  0  0  3  0  0  0  0  0  0
  181.8040  171.6590  137.0260 N   0  0  0  0  0  2  0  0  0  0  0  0
  180.9560  174.5470  137.5380 C   0  0  0  0  0  2  0  0  0  0  0  0
  179.4730  171.0290  136.8220 C   0  0  0  0  0  1  0  0  0  0  0  0
  181.8770  174.5600  136.3200 C   0  0  1  0  0  3  0  0  0  0  0  0
  183.0250  172.4050  136.8950 C   0  0  0  0  0  3  0  0  0  0  0  0
  1  4  1  6  0  0  0
  1 11  1  0  0  0  0
  2  5  1  6  0  0  0
  2 10  1  0  0  0  0
  2  1  1  0  0  0  0
  3  2  1  0  0  0  0
  5  1  1  0  0  0  0
  7  3  1  6  0  0  0
  7  8  1  0  0  0  0
  7 10  1  0  0  0  0
  8 14  1  1  0  0  0
  8 10  1  0  0  0  0
  9 41  1  1  0  0  0
  9  7  1  0  0  0  0
  9  8  1  0  0  0  0
 10  6  1  1  0  0  0
 11 13  2  0  0  0  0
 13 12  2  0  0  0  0
 14 16  1  0  0  0  0
 16 15  2  0  0  0  0
 17 16  1  0  0  0  0
 17 18  1  0  0  0  0
 18 35  1  6  0  0  0
 18 19  1  0  0  0  0
 20 19  1  6  0  0  0
 20 21  1  0  0  0  0
 20 22  1  0  0  0  0
 21 32  1  6  0  0  0
 21 22  1  0  0  0  0
 22 23  1  0  0  0  0
 23 29  1  0  0  0  0
 23 24  2  0  0  0  0
 25 30  1  0  0  0  0
 26 27  1  0  0  0  0
 28 27  2  0  0  0  0
 29 28  1  0  0  0  0
 30 26  2  0  0  0  0
 31 30  1  0  0  0  0
 31 29  2  0  0  0  0
 33 34  1  0  0  0  0
 34 32  1  0  0  0  0
 36 35  1  0  0  0  0
 37 38  1  0  0  0  0
 37 36  1  0  0  0  0
 39 38  1  0  0  0  0
 40 39  2  0  0  0  0
 42 43  1  6  0  0  0
 42 41  1  0  0  0  0
 44 45  1  0  0  0  0
 44 42  1  0  0  0  0
 45 46  1  0  0  0  0
 48 52  1  1  0  0  0
 48 50  1  0  0  0  0
 48 47  1  0  0  0  0
 49 54  2  0  0  0  0
 51 47  1  0  0  0  0
 53 46  1  1  0  0  0
 53 49  1  0  0  0  0
 53 51  1  0  0  0  0
 54 50  1  0  0  0  0
M  END
>  <MODEL>
6

>  <REMARK>
 VINA RESULT:      -6.3      2.748      6.173
  Name = 
  21 active torsions:
  status: ('A' for Active; 'I' for Inactive)
    1  A    between atoms: C_2  and  N_42
    2  A    between atoms: C_2  and  C_44
    3  A    between atoms: C_3  and  C_8
    4  A    between atoms: C_6  and  O_34
    5  A    between atoms: C_6  and  C_52
    6  A    between atoms: C_7  and  C_28
    7  A    between atoms: C_7  and  N_30
    8  A    between atoms: C_10  and  C_27
    9  A    between atoms: C_10  and  C_52
   10  A    between atoms: C_11  and  C_38
   11  A    between atoms: C_11  and  C_46
   12  A    between atoms: C_13  and  C_28
   13  A    between atoms: C_13  and  C_46
   14  A    between atoms: C_14  and  C_45
   15  A    between atoms: O_17  and  C_35
   16  A    between atoms: O_17  and  C_46
   17  A    between atoms: C_27  and  C_33
   18  A    between atoms: C_32  and  O_36
   19  A    between atoms: O_34  and  C_50
   20  A    between atoms: O_36  and  C_38
   21  A    between atoms: C_37  and  C_45
                            x       y       z     vdW  Elec       q    Type
                         _______ _______ _______ _____ _____    ______ ____

>  <TORSDO>
F 21

$$$$
=
 OpenBabel11042411153D

 54 60  0  0  1  0  0  0  0  0999 V2000
  188.2030  177.1270  144.4280 C   0  0  2  0  0  0  0  0  0  0  0  0
  188.8750  177.3890  143.1030 C   0  0  1  0  0  0  0  0  0  0  0  0
  190.2290  177.3180  142.8540 O   0  0  0  0  0  0  0  0  0  0  0  0
  189.0550  177.0000  145.5300 O   0  0  0  0  0  1  0  0  0  0  0  0
  188.3210  176.0040  143.4240 C   0  0  0  0  0  2  0  0  0  0  0  0
  188.0550  179.1780  141.6590 O   0  0  0  0  0  1  0  0  0  0  0  0
  190.0080  177.8650  141.5550 C   0  0  2  0  0  0  0  0  0  0  0  0
  189.0480  177.1580  140.5530 C   0  0  1  0  0  0  0  0  0  0  0  0
  190.5230  176.8000  140.6140 C   0  0  1  0  0  3  0  0  0  0  0  0
  188.4720  177.8500  141.7640 C   0  0  1  0  0  0  0  0  0  0  0  0
  186.8200  177.6450  144.6500 C   0  0  0  0  0  3  0  0  0  0  0  0
  186.1040  178.4100  146.9710 O   0  0  0  0  0  0  0  0  0  0  0  0
  186.4450  178.0390  145.8380 C   0  0  0  0  0  0  0  0  0  0  0  0
  188.7800  177.9680  139.4050 O   0  0  0  0  0  0  0  0  0  0  0  0
  186.8000  178.6190  138.4470 O   0  0  0  0  0  0  0  0  0  0  0  0
  187.6970  177.7380  138.5520 C   0  0  0  0  0  0  0  0  0  0  0  0
  187.5660  176.4600  137.7760 C   0  0  0  0  0  2  0  0  0  0  0  0
  186.2910  176.4460  136.9230 C   0  0  2  0  0  3  0  0  0  0  0  0
  185.3410  175.6110  137.5300 O   0  0  0  0  0  0  0  0  0  0  0  0
  184.2780  175.5280  136.6140 C   0  0  1  0  0  3  0  0  0  0  0  0
  183.8010  174.2290  136.4210 C   0  0  2  0  0  3  0  0  0  0  0  0
  183.0340  175.1310  137.3440 N   0  0  0  0  0  0  0  0  0  0  0  0
  181.9570  175.4050  138.2430 C   0  0  0  0  0  0  0  0  0  0  0  0
  180.6740  174.3700  138.2790 S   0  0  0  0  0  0  0  0  0  0  0  0
  184.5470  178.3550  141.3510 C   0  0  0  0  0  1  0  0  0  0  0  0
  182.1470  178.8190  140.8500 C   0  0  0  0  0  3  0  0  0  0  0  0
  180.9520  178.5110  140.1930 C   0  0  0  0  0  3  0  0  0  0  0  0
  180.8890  177.4030  139.3360 C   0  0  0  0  0  3  0  0  0  0  0  0
  182.0160  176.5900  139.1330 C   0  0  0  0  0  0  0  0  0  0  0  0
  183.2760  178.0220  140.6520 C   0  0  0  0  0  0  0  0  0  0  0  0
  183.2100  176.9120  139.8020 C   0  0  0  0  0  3  0  0  0  0  0  0
  184.4770  173.1270  137.2480 C   0  0  0  0  0  2  0  0  0  0  0  0
  182.6670  171.5950  136.4330 C   0  0  0  0  0  1  0  0  0  0  0  0
  184.1610  171.7480  136.6730 C   0  0  0  0  0  2  0  0  0  0  0  0
  186.5750  175.9700  135.4890 C   0  0  0  0  0  2  0  0  0  0  0  0
  188.0640  175.7300  135.2520 C   0  0  0  0  0  2  0  0  0  0  0  0
  188.3010  174.2990  134.7840 C   0  0  0  0  0  2  0  0  0  0  0  0
  187.7880  173.3620  135.7780 N   0  0  0  0  0  2  0  0  0  0  0  0
  188.5370  172.9650  136.9330 C   0  0  0  0  0  3  0  0  0  0  0  0
  189.7250  173.4310  137.1520 N   0  0  0  0  0  2  0  0  0  0  0  0
  191.3760  177.4290  139.5170 C   0  0  0  0  0  2  0  0  0  0  0  0
  191.7440  176.4060  138.4490 C   0  0  1  0  0  3  0  0  0  0  0  0
  190.8770  176.5190  137.3760 F   0  0  0  0  0  0  0  0  0  0  0  0
  193.1900  176.5590  137.9780 C   0  0  0  0  0  2  0  0  0  0  0  0
  193.8930  175.2180  137.8070 C   0  0  0  0  0  2  0  0  0  0  0  0
  193.5530  174.6460  136.5780 O   0  0  0  0  0  0  0  0  0  0  0  0
  196.0020  171.8300  136.7940 C   0  0  0  0  0  2  0  0  0  0  0  0
  195.0160  170.8150  137.3760 C   0  0  1  0  0  3  0  0  0  0  0  0
  193.0070  172.4740  135.8300 C   0  0  0  0  0  3  0  0  0  0  0  0
  194.0930  170.3400  136.3520 N   0  0  0  0  0  2  0  0  0  0  0  0
  195.3590  173.1190  136.2690 C   0  0  0  0  0  2  0  0  0  0  0  0
  195.7860  169.6360  137.9370 C   0  0  0  0  0  1  0  0  0  0  0  0
  193.9050  173.3010  136.6990 C   0  0  1  0  0  3  0  0  0  0  0  0
  193.1090  171.1480  135.6870 C   0  0  0  0  0  3  0  0  0  0  0  0
  1 11  1  0  0  0  0
  1  4  1  1  0  0  0
  2  5  1  6  0  0  0
  2  1  1  0  0  0  0
  3  2  1  0  0  0  0
  5  1  1  0  0  0  0
  7 10  1  0  0  0  0
  7  3  1  1  0  0  0
  8 14  1  6  0  0  0
  8  9  1  0  0  0  0
  8  7  1  0  0  0  0
  8 10  1  0  0  0  0
  9 41  1  6  0  0  0
  9  7  1  0  0  0  0
 10  6  1  6  0  0  0
 10  2  1  0  0  0  0
 11 13  2  0  0  0  0
 13 12  2  0  0  0  0
 15 16  2  0  0  0  0
 16 14  1  0  0  0  0
 17 16  1  0  0  0  0
 18 35  1  6  0  0  0
 18 19  1  0  0  0  0
 18 17  1  0  0  0  0
 20 22  1  0  0  0  0
 20 19  1  1  0  0  0
 21 20  1  0  0  0  0
 21 32  1  1  0  0  0
 21 22  1  0  0  0  0
 22 23  1  0  0  0  0
 23 24  2  0  0  0  0
 23 29  1  0  0  0  0
 27 26  2  0  0  0  0
 28 27  1  0  0  0  0
 29 28  2  0  0  0  0
 29 31  1  0  0  0  0
 30 26  1  0  0  0  0
 30 25  1  0  0  0  0
 31 30  2  0  0  0  0
 33 34  1  0  0  0  0
 34 32  1  0  0  0  0
 36 35  1  0  0  0  0
 37 36  1  0  0  0  0
 37 38  1  0  0  0  0
 38 39  1  0  0  0  0
 39 40  2  0  0  0  0
 42 43  1  6  0  0  0
 42 41  1  0  0  0  0
 44 42  1  0  0  0  0
 45 44  1  0  0  0  0
 46 45  1  0  0  0  0
 47 48  1  0  0  0  0
 48 52  1  6  0  0  0
 49 53  1  0  0  0  0
 50 48  1  0  0  0  0
 51 53  1  0  0  0  0
 51 47  1  0  0  0  0
 53 46  1  6  0  0  0
 54 49  2  0  0  0  0
 54 50  1  0  0  0  0
M  END
>  <MODEL>
7

>  <REMARK>
 VINA RESULT:      -6.3      3.303      7.572
  Name = 
  21 active torsions:
  status: ('A' for Active; 'I' for Inactive)
    1  A    between atoms: C_2  and  N_42
    2  A    between atoms: C_2  and  C_44
    3  A    between atoms: C_3  and  C_8
    4  A    between atoms: C_6  and  O_34
    5  A    between atoms: C_6  and  C_52
    6  A    between atoms: C_7  and  C_28
    7  A    between atoms: C_7  and  N_30
    8  A    between atoms: C_10  and  C_27
    9  A    between atoms: C_10  and  C_52
   10  A    between atoms: C_11  and  C_38
   11  A    between atoms: C_11  and  C_46
   12  A    between atoms: C_13  and  C_28
   13  A    between atoms: C_13  and  C_46
   14  A    between atoms: C_14  and  C_45
   15  A    between atoms: O_17  and  C_35
   16  A    between atoms: O_17  and  C_46
   17  A    between atoms: C_27  and  C_33
   18  A    between atoms: C_32  and  O_36
   19  A    between atoms: O_34  and  C_50
   20  A    between atoms: O_36  and  C_38
   21  A    between atoms: C_37  and  C_45
                            x       y       z     vdW  Elec       q    Type
                         _______ _______ _______ _____ _____    ______ ____

>  <TORSDO>
F 21

$$$$
=
 OpenBabel11042411153D

 54 60  0  0  1  0  0  0  0  0999 V2000
  190.4280  177.4940  145.3540 C   0  0  2  0  0  0  0  0  0  0  0  0
  189.5500  177.4750  144.1280 C   0  0  1  0  0  0  0  0  0  0  0  0
  188.2450  177.9140  144.0590 O   0  0  0  0  0  0  0  0  0  0  0  0
  189.7870  177.7970  146.5590 O   0  0  0  0  0  1  0  0  0  0  0  0
  190.4930  178.6480  144.3820 C   0  0  0  0  0  2  0  0  0  0  0  0
  189.6720  175.5940  142.5770 O   0  0  0  0  0  1  0  0  0  0  0  0
  188.1470  177.3820  142.7400 C   0  0  2  0  0  0  0  0  0  0  0  0
  189.1290  177.8500  141.6240 C   0  0  1  0  0  0  0  0  0  0  0  0
  187.8240  178.5850  141.8810 C   0  0  1  0  0  3  0  0  0  0  0  0
  189.6440  176.9800  142.7440 C   0  0  1  0  0  0  0  0  0  0  0  0
  191.6370  176.6180  145.3890 C   0  0  0  0  0  3  0  0  0  0  0  0
  192.4420  175.6440  147.6000 O   0  0  0  0  0  0  0  0  0  0  0  0
  192.0560  176.1150  146.5200 C   0  0  0  0  0  0  0  0  0  0  0  0
  189.0230  177.0460  140.4450 O   0  0  0  0  0  0  0  0  0  0  0  0
  190.9760  176.0960  139.7080 O   0  0  0  0  0  0  0  0  0  0  0  0
  190.0560  176.9360  139.5100 C   0  0  0  0  0  0  0  0  0  0  0  0
  190.1050  177.8060  138.2880 C   0  0  0  0  0  2  0  0  0  0  0  0
  189.8300  177.0020  137.0110 C   0  0  2  0  0  3  0  0  0  0  0  0
  188.8790  176.0070  137.2880 O   0  0  0  0  0  0  0  0  0  0  0  0
  188.0650  175.9400  136.1450 C   0  0  1  0  0  3  0  0  0  0  0  0
  187.3190  174.7620  136.0540 C   0  0  2  0  0  3  0  0  0  0  0  0
  186.6300  175.9960  136.5630 N   0  0  0  0  0  0  0  0  0  0  0  0
  185.4910  176.6930  137.0720 C   0  0  0  0  0  0  0  0  0  0  0  0
  185.6860  178.2380  137.6140 S   0  0  0  0  0  0  0  0  0  0  0  0
  180.5300  176.9460  136.4440 C   0  0  0  0  0  1  0  0  0  0  0  0
  181.6250  174.8130  137.1360 C   0  0  0  0  0  3  0  0  0  0  0  0
  182.7650  174.0710  137.4580 C   0  0  0  0  0  3  0  0  0  0  0  0
  184.0280  174.6790  137.4310 C   0  0  0  0  0  3  0  0  0  0  0  0
  184.1630  176.0340  137.0880 C   0  0  0  0  0  0  0  0  0  0  0  0
  181.7460  176.1600  136.7890 C   0  0  0  0  0  0  0  0  0  0  0  0
  183.0070  176.7670  136.7680 C   0  0  0  0  0  3  0  0  0  0  0  0
  187.4770  173.7670  137.2100 C   0  0  0  0  0  2  0  0  0  0  0  0
  187.2880  171.7510  135.7310 C   0  0  0  0  0  1  0  0  0  0  0  0
  186.7010  172.4820  136.9280 C   0  0  0  0  0  2  0  0  0  0  0  0
  191.1150  176.3660  136.4560 C   0  0  0  0  0  2  0  0  0  0  0  0
  191.2930  174.9280  136.9370 C   0  0  0  0  0  2  0  0  0  0  0  0
  192.6340  174.3760  136.4700 C   0  0  0  0  0  2  0  0  0  0  0  0
  193.7200  175.1750  137.0300 N   0  0  0  0  0  2  0  0  0  0  0  0
  194.6730  174.6470  137.9600 C   0  0  0  0  0  3  0  0  0  0  0  0
  194.6150  173.4130  138.3500 N   0  0  0  0  0  2  0  0  0  0  0  0
  186.7030  178.2510  140.9010 C   0  0  0  0  0  2  0  0  0  0  0  0
  185.4310  179.0200  141.2370 C   0  0  1  0  0  3  0  0  0  0  0  0
  184.3260  178.3130  140.7920 F   0  0  0  0  0  0  0  0  0  0  0  0
  185.3070  179.3040  142.7340 C   0  0  0  0  0  2  0  0  0  0  0  0
  184.2040  178.4870  143.3940 C   0  0  0  0  0  2  0  0  0  0  0  0
  183.1090  179.3040  143.6940 O   0  0  0  0  0  0  0  0  0  0  0  0
  180.8410  178.7830  140.7690 C   0  0  0  0  0  2  0  0  0  0  0  0
  180.2730  177.4470  141.2530 C   0  0  1  0  0  3  0  0  0  0  0  0
  180.8630  178.6340  143.9770 C   0  0  0  0  0  2  0  0  0  0  0  0
  179.3260  177.6490  142.3420 N   0  0  0  0  0  0  0  0  0  0  0  0
  181.6600  179.5460  141.8160 C   0  0  0  0  0  2  0  0  0  0  0  0
  179.5680  176.7580  140.1010 C   0  0  0  0  0  1  0  0  0  0  0  0
  182.0290  178.7110  143.0390 C   0  0  1  0  0  3  0  0  0  0  0  0
  179.6590  178.1560  143.6440 C   0  0  0  0  0  3  0  0  0  0  0  0
  1 11  1  0  0  0  0
  1  4  1  1  0  0  0
  2  5  1  6  0  0  0
  2  1  1  0  0  0  0
  3  2  1  0  0  0  0
  5  1  1  0  0  0  0
  7 10  1  0  0  0  0
  7  3  1  1  0  0  0
  8 14  1  6  0  0  0
  8  9  1  0  0  0  0
  8  7  1  0  0  0  0
  8 10  1  0  0  0  0
  9 41  1  6  0  0  0
  9  7  1  0  0  0  0
 10  6  1  6  0  0  0
 10  2  1  0  0  0  0
 11 13  2  0  0  0  0
 13 12  2  0  0  0  0
 16 15  2  0  0  0  0
 16 14  1  0  0  0  0
 17 16  1  0  0  0  0
 18 35  1  1  0  0  0
 18 19  1  0  0  0  0
 18 17  1  0  0  0  0
 20 22  1  0  0  0  0
 20 19  1  1  0  0  0
 21 20  1  0  0  0  0
 21 22  1  0  0  0  0
 21 32  1  1  0  0  0
 22 23  1  0  0  0  0
 23 29  1  0  0  0  0
 23 24  2  0  0  0  0
 25 30  1  0  0  0  0
 26 27  1  0  0  0  0
 28 27  2  0  0  0  0
 29 28  1  0  0  0  0
 30 26  2  0  0  0  0
 31 30  1  0  0  0  0
 31 29  2  0  0  0  0
 33 34  1  0  0  0  0
 34 32  1  0  0  0  0
 35 36  1  0  0  0  0
 37 36  1  0  0  0  0
 37 38  1  0  0  0  0
 38 39  1  0  0  0  0
 39 40  2  0  0  0  0
 41 42  1  0  0  0  0
 42 43  1  1  0  0  0
 42 44  1  0  0  0  0
 44 45  1  0  0  0  0
 45 46  1  0  0  0  0
 47 48  1  0  0  0  0
 47 51  1  0  0  0  0
 48 52  1  6  0  0  0
 48 50  1  0  0  0  0
 50 54  2  0  0  0  0
 51 53  1  0  0  0  0
 53 46  1  1  0  0  0
 53 49  1  0  0  0  0
 54 49  1  0  0  0  0
M  END
>  <MODEL>
8

>  <REMARK>
 VINA RESULT:      -6.1      3.317     10.271
  Name = 
  21 active torsions:
  status: ('A' for Active; 'I' for Inactive)
    1  A    between atoms: C_2  and  N_42
    2  A    between atoms: C_2  and  C_44
    3  A    between atoms: C_3  and  C_8
    4  A    between atoms: C_6  and  O_34
    5  A    between atoms: C_6  and  C_52
    6  A    between atoms: C_7  and  C_28
    7  A    between atoms: C_7  and  N_30
    8  A    between atoms: C_10  and  C_27
    9  A    between atoms: C_10  and  C_52
   10  A    between atoms: C_11  and  C_38
   11  A    between atoms: C_11  and  C_46
   12  A    between atoms: C_13  and  C_28
   13  A    between atoms: C_13  and  C_46
   14  A    between atoms: C_14  and  C_45
   15  A    between atoms: O_17  and  C_35
   16  A    between atoms: O_17  and  C_46
   17  A    between atoms: C_27  and  C_33
   18  A    between atoms: C_32  and  O_36
   19  A    between atoms: O_34  and  C_50
   20  A    between atoms: O_36  and  C_38
   21  A    between atoms: C_37  and  C_45
                            x       y       z     vdW  Elec       q    Type
                         _______ _______ _______ _____ _____    ______ ____

>  <TORSDO>
F 21

$$$$
=
 OpenBabel11042411153D

 54 60  0  0  1  0  0  0  0  0999 V2000
  190.3730  177.4850  145.3090 C   0  0  2  0  0  0  0  0  0  0  0  0
  189.5160  177.4630  144.0680 C   0  0  1  0  0  0  0  0  0  0  0  0
  188.2440  177.9820  143.9530 O   0  0  0  0  0  0  0  0  0  0  0  0
  189.7330  177.8870  146.4850 O   0  0  0  0  0  1  0  0  0  0  0  0
  190.5290  178.5830  144.2840 C   0  0  0  0  0  2  0  0  0  0  0  0
  189.5390  175.5040  142.6110 O   0  0  0  0  0  1  0  0  0  0  0  0
  188.1320  177.3940  142.6590 C   0  0  2  0  0  0  0  0  0  0  0  0
  189.1610  177.7420  141.5410 C   0  0  1  0  0  0  0  0  0  0  0  0
  187.9040  178.5710  141.7370 C   0  0  1  0  0  3  0  0  0  0  0  0
  189.6000  176.8960  142.7120 C   0  0  1  0  0  0  0  0  0  0  0  0
  191.5210  176.5340  145.4090 C   0  0  0  0  0  3  0  0  0  0  0  0
  192.4910  175.9440  147.6890 O   0  0  0  0  0  0  0  0  0  0  0  0
  192.0240  176.2270  146.5750 C   0  0  0  0  0  0  0  0  0  0  0  0
  189.0220  176.8900  140.4010 O   0  0  0  0  0  0  0  0  0  0  0  0
  190.8510  175.6980  139.6970 O   0  0  0  0  0  0  0  0  0  0  0  0
  190.0620  176.6620  139.4960 C   0  0  0  0  0  0  0  0  0  0  0  0
  190.2740  177.5470  138.3020 C   0  0  0  0  0  2  0  0  0  0  0  0
  190.3650  176.7330  137.0050 C   0  0  2  0  0  3  0  0  0  0  0  0
  189.4820  175.6450  137.0800 O   0  0  0  0  0  0  0  0  0  0  0  0
  188.7700  175.6580  135.8690 C   0  0  1  0  0  3  0  0  0  0  0  0
  187.9770  174.5240  135.6700 C   0  0  2  0  0  3  0  0  0  0  0  0
  187.3070  175.7750  136.1630 N   0  0  0  0  0  0  0  0  0  0  0  0
  186.1630  176.5130  136.5980 C   0  0  0  0  0  0  0  0  0  0  0  0
  186.3740  178.0630  137.1180 S   0  0  0  0  0  0  0  0  0  0  0  0
  181.5830  176.2390  134.5940 C   0  0  0  0  0  1  0  0  0  0  0  0
  182.2470  174.7420  136.4780 C   0  0  0  0  0  3  0  0  0  0  0  0
  183.1870  174.2910  137.4080 C   0  0  0  0  0  3  0  0  0  0  0  0
  184.4680  174.8600  137.4460 C   0  0  0  0  0  3  0  0  0  0  0  0
  184.8190  175.8900  136.5580 C   0  0  0  0  0  0  0  0  0  0  0  0
  182.5850  175.7620  135.5860 C   0  0  0  0  0  0  0  0  0  0  0  0
  183.8620  176.3350  135.6280 C   0  0  0  0  0  3  0  0  0  0  0  0
  187.9840  173.4840  136.7980 C   0  0  0  0  0  2  0  0  0  0  0  0
  186.5840  172.2120  135.1520 C   0  0  0  0  0  1  0  0  0  0  0  0
  186.8360  172.4910  136.6250 C   0  0  0  0  0  2  0  0  0  0  0  0
  191.7970  176.2360  136.7490 C   0  0  0  0  0  2  0  0  0  0  0  0
  191.9500  174.7510  137.0680 C   0  0  0  0  0  2  0  0  0  0  0  0
  193.3710  174.2890  136.7690 C   0  0  0  0  0  2  0  0  0  0  0  0
  193.7070  174.5930  135.3810 N   0  0  0  0  0  2  0  0  0  0  0  0
  194.7050  175.5540  135.0140 C   0  0  0  0  0  3  0  0  0  0  0  0
  195.3670  176.2070  135.9150 N   0  0  0  0  0  2  0  0  0  0  0  0
  186.7790  178.2640  140.7530 C   0  0  0  0  0  2  0  0  0  0  0  0
  185.5150  179.0400  141.1010 C   0  0  1  0  0  3  0  0  0  0  0  0
  184.9770  179.5950  139.9520 F   0  0  0  0  0  0  0  0  0  0  0  0
  184.4760  178.1640  141.8020 C   0  0  0  0  0  2  0  0  0  0  0  0
  183.3350  177.7600  140.8760 C   0  0  0  0  0  2  0  0  0  0  0  0
  182.1780  178.4810  141.1890 O   0  0  0  0  0  0  0  0  0  0  0  0
  180.1390  180.8680  139.1600 C   0  0  0  0  0  2  0  0  0  0  0  0
  181.2140  181.1250  138.1020 C   0  0  1  0  0  3  0  0  0  0  0  0
  182.0530  178.3080  138.8380 C   0  0  0  0  0  2  0  0  0  0  0  0
  181.3400  179.9870  137.2000 N   0  0  0  0  0  0  0  0  0  0  0  0
  180.4380  179.6970  140.1040 C   0  0  0  0  0  2  0  0  0  0  0  0
  180.8410  182.3560  137.3010 C   0  0  0  0  0  1  0  0  0  0  0  0
  181.8790  179.1990  140.0300 C   0  0  1  0  0  3  0  0  0  0  0  0
  181.8040  178.6810  137.5770 C   0  0  0  0  0  3  0  0  0  0  0  0
  1 11  1  0  0  0  0
  1  4  1  1  0  0  0
  2  5  1  6  0  0  0
  2  1  1  0  0  0  0
  3  2  1  0  0  0  0
  5  1  1  0  0  0  0
  7 10  1  0  0  0  0
  7  3  1  1  0  0  0
  8 14  1  6  0  0  0
  8  9  1  0  0  0  0
  8  7  1  0  0  0  0
  8 10  1  0  0  0  0
  9 41  1  6  0  0  0
  9  7  1  0  0  0  0
 10  6  1  6  0  0  0
 10  2  1  0  0  0  0
 11 13  2  0  0  0  0
 13 12  2  0  0  0  0
 16 15  2  0  0  0  0
 16 14  1  0  0  0  0
 17 16  1  0  0  0  0
 18 35  1  1  0  0  0
 18 19  1  0  0  0  0
 18 17  1  0  0  0  0
 20 22  1  0  0  0  0
 20 19  1  1  0  0  0
 21 20  1  0  0  0  0
 21 22  1  0  0  0  0
 21 32  1  1  0  0  0
 22 23  1  0  0  0  0
 23 24  2  0  0  0  0
 25 30  1  0  0  0  0
 26 27  1  0  0  0  0
 27 28  2  0  0  0  0
 29 23  1  0  0  0  0
 29 28  1  0  0  0  0
 30 31  1  0  0  0  0
 30 26  2  0  0  0  0
 31 29  2  0  0  0  0
 33 34  1  0  0  0  0
 34 32  1  0  0  0  0
 35 36  1  0  0  0  0
 37 36  1  0  0  0  0
 38 37  1  0  0  0  0
 39 38  1  0  0  0  0
 39 40  2  0  0  0  0
 41 42  1  0  0  0  0
 42 43  1  6  0  0  0
 42 44  1  0  0  0  0
 45 46  1  0  0  0  0
 45 44  1  0  0  0  0
 47 51  1  0  0  0  0
 48 52  1  6  0  0  0
 48 47  1  0  0  0  0
 49 53  1  0  0  0  0
 50 54  2  0  0  0  0
 50 48  1  0  0  0  0
 53 51  1  0  0  0  0
 53 46  1  1  0  0  0
 54 49  1  0  0  0  0
M  END
>  <MODEL>
9

>  <REMARK>
 VINA RESULT:      -6.0      3.494     10.127
  Name = 
  21 active torsions:
  status: ('A' for Active; 'I' for Inactive)
    1  A    between atoms: C_2  and  N_42
    2  A    between atoms: C_2  and  C_44
    3  A    between atoms: C_3  and  C_8
    4  A    between atoms: C_6  and  O_34
    5  A    between atoms: C_6  and  C_52
    6  A    between atoms: C_7  and  C_28
    7  A    between atoms: C_7  and  N_30
    8  A    between atoms: C_10  and  C_27
    9  A    between atoms: C_10  and  C_52
   10  A    between atoms: C_11  and  C_38
   11  A    between atoms: C_11  and  C_46
   12  A    between atoms: C_13  and  C_28
   13  A    between atoms: C_13  and  C_46
   14  A    between atoms: C_14  and  C_45
   15  A    between atoms: O_17  and  C_35
   16  A    between atoms: O_17  and  C_46
   17  A    between atoms: C_27  and  C_33
   18  A    between atoms: C_32  and  O_36
   19  A    between atoms: O_34  and  C_50
   20  A    between atoms: O_36  and  C_38
   21  A    between atoms: C_37  and  C_45
                            x       y       z     vdW  Elec       q    Type
                         _______ _______ _______ _____ _____    ______ ____

>  <TORSDO>
F 21

$$$$
