=
 OpenBabel11032419193D

 25 29  0  0  1  0  0  0  0  0999 V2000
  186.7710  178.6590  147.4470 C   0  0  0  0  0  2  0  0  0  0  0  0
  191.0620  176.5570  148.0590 C   0  0  0  0  0  3  0  0  0  0  0  0
  190.3650  177.4350  145.7350 C   0  0  2  0  0  3  0  0  0  0  0  0
  182.9640  179.6280  144.5880 N   0  0  0  0  0  1  0  0  0  0  0  0
  191.0230  177.3220  141.2910 O   0  0  0  0  0  0  0  0  0  0  0  0
  184.7660  178.1680  143.5810 C   0  0  0  0  0  2  0  0  0  0  0  0
  187.9050  176.8610  145.2010 C   0  0  0  0  0  2  0  0  0  0  0  0
  189.2950  177.9920  143.3280 C   0  0  2  0  0  3  0  0  0  0  0  0
  192.0310  175.8410  147.4900 C   0  0  0  0  0  3  0  0  0  0  0  0
  186.2850  178.1570  143.6800 C   0  0  1  0  0  3  0  0  0  0  0  0
  192.0250  178.9870  143.1200 N   0  0  0  0  0  1  0  0  0  0  0  0
  191.3250  176.3820  145.1920 C   0  0  0  0  0  0  0  0  0  0  0  0
  188.8780  177.4620  147.7200 C   0  0  0  0  0  0  0  0  0  0  0  0
  190.9850  177.6220  142.7720 P   0  0  2  0  0  0  0  0  0  0  0  0
  191.5440  176.1810  143.7220 C   0  0  0  0  0  2  0  0  0  0  0  0
  190.0750  177.2550  147.2270 C   0  0  0  0  0  0  0  0  0  0  0  0
  184.2170  178.9700  144.7300 C   0  0  0  0  0  0  0  0  0  0  0  0
  186.1090  178.3630  146.1090 C   0  0  1  0  0  3  0  0  0  0  0  0
  189.1200  177.6970  144.8450 C   0  0  2  0  0  3  0  0  0  0  0  0
  192.1220  175.7020  146.0240 C   0  0  0  0  0  3  0  0  0  0  0  0
  188.2830  177.3060  142.4210 C   0  0  0  0  0  3  0  0  0  0  0  0
  184.8540  179.0310  145.8670 N   0  0  0  0  0  0  0  0  0  0  0  0
  186.7100  177.7400  145.0670 C   0  0  2  0  0  3  0  0  0  0  0  0
  186.9450  177.3800  142.5690 C   0  0  0  0  0  3  0  0  0  0  0  0
  187.6320  177.6100  148.0850 C   0  0  0  0  0  3  0  0  0  0  0  0
  1 25  1  0  0  0  0
  3 12  1  6  0  0  0
  3 16  1  0  0  0  0
  4 17  1  0  0  0  0
  6 10  1  0  0  0  0
  6 17  1  0  0  0  0
  8 21  1  6  0  0  0
  8 19  1  0  0  0  0
  9  2  2  0  0  0  0
 10 24  1  6  0  0  0
 10 23  1  0  0  0  0
 12 20  2  0  0  0  0
 13 25  2  0  0  0  0
 14  5  2  6  0  0  0
 14 11  1  0  0  0  0
 14  8  1  0  0  0  0
 14 15  1  0  0  0  0
 15 12  1  0  0  0  0
 16 13  2  0  0  0  0
 16  2  1  0  0  0  0
 17 22  2  0  0  0  0
 18  1  1  6  0  0  0
 19  7  1  6  0  0  0
 19  3  1  0  0  0  0
 20  9  1  0  0  0  0
 21 24  2  0  0  0  0
 22 18  1  0  0  0  0
 23  7  1  6  0  0  0
 23 18  1  0  0  0  0
M  END
>  <MODEL>
1

>  <REMARK>
 VINA RESULT:     -10.6      0.000      0.000
  Name = 
  0 active torsions:
  status: ('A' for Active; 'I' for Inactive)
                            x       y       z     vdW  Elec       q    Type
                         _______ _______ _______ _____ _____    ______ ____

>  <TORSDO>
F 0

$$$$
=
 OpenBabel11032419193D

 25 29  0  0  1  0  0  0  0  0999 V2000
  185.0880  179.3610  143.9800 C   0  0  0  0  0  2  0  0  0  0  0  0
  187.7370  177.5410  147.5690 C   0  0  0  0  0  3  0  0  0  0  0  0
  188.8290  178.0860  145.2960 C   0  0  2  0  0  3  0  0  0  0  0  0
  184.2450  179.7940  139.2160 N   0  0  0  0  0  1  0  0  0  0  0  0
  192.2930  177.4390  142.5060 O   0  0  0  0  0  0  0  0  0  0  0  0
  186.1750  178.2980  139.8700 C   0  0  0  0  0  2  0  0  0  0  0  0
  187.3380  177.3430  143.3230 C   0  0  0  0  0  2  0  0  0  0  0  0
  189.6840  178.2870  142.7500 C   0  0  2  0  0  3  0  0  0  0  0  0
  188.7970  176.8000  147.8920 C   0  0  0  0  0  3  0  0  0  0  0  0
  187.2310  178.3650  140.9640 C   0  0  1  0  0  3  0  0  0  0  0  0
  191.8940  179.3640  144.3110 N   0  0  0  0  0  1  0  0  0  0  0  0
  189.8460  177.0150  145.6740 C   0  0  0  0  0  0  0  0  0  0  0  0
  186.3980  178.3000  145.7430 C   0  0  0  0  0  0  0  0  0  0  0  0
  191.2860  177.9230  143.5250 P   0  0  2  0  0  0  0  0  0  0  0  0
  190.9850  176.6390  144.7710 C   0  0  0  0  0  2  0  0  0  0  0  0
  187.6030  178.0840  146.2130 C   0  0  0  0  0  0  0  0  0  0  0  0
  185.0410  179.2150  140.2420 C   0  0  0  0  0  0  0  0  0  0  0  0
  185.4810  178.8700  142.5950 C   0  0  1  0  0  3  0  0  0  0  0  0
  188.5200  178.1790  143.7770 C   0  0  2  0  0  3  0  0  0  0  0  0
  189.8410  176.4810  146.9000 C   0  0  0  0  0  3  0  0  0  0  0  0
  189.5070  177.4480  141.4920 C   0  0  0  0  0  3  0  0  0  0  0  0
  184.7520  179.4460  141.4930 N   0  0  0  0  0  0  0  0  0  0  0  0
  186.5920  178.1460  142.3150 C   0  0  2  0  0  3  0  0  0  0  0  0
  188.4230  177.4830  140.6920 C   0  0  0  0  0  3  0  0  0  0  0  0
  185.2400  178.4390  145.1540 C   0  0  0  0  0  3  0  0  0  0  0  0
  1 25  1  0  0  0  0
  2  9  2  0  0  0  0
  3 12  1  6  0  0  0
  3 16  1  0  0  0  0
  4 17  1  0  0  0  0
  6 17  1  0  0  0  0
  8 21  1  6  0  0  0
  8 14  1  0  0  0  0
  8 19  1  0  0  0  0
 10  6  1  6  0  0  0
 10 23  1  0  0  0  0
 12 20  2  0  0  0  0
 13 16  2  0  0  0  0
 14  5  2  6  0  0  0
 14 11  1  0  0  0  0
 14 15  1  0  0  0  0
 15 12  1  0  0  0  0
 16  2  1  0  0  0  0
 17 22  2  0  0  0  0
 18  1  1  1  0  0  0
 19  7  1  6  0  0  0
 19  3  1  0  0  0  0
 20  9  1  0  0  0  0
 22 18  1  0  0  0  0
 23 18  1  0  0  0  0
 23  7  1  1  0  0  0
 24 10  1  0  0  0  0
 24 21  2  0  0  0  0
 25 13  2  0  0  0  0
M  END
>  <MODEL>
2

>  <REMARK>
 VINA RESULT:     -10.6      1.918      2.981
  Name = 
  0 active torsions:
  status: ('A' for Active; 'I' for Inactive)
                            x       y       z     vdW  Elec       q    Type
                         _______ _______ _______ _____ _____    ______ ____

>  <TORSDO>
F 0

$$$$
=
 OpenBabel11032419193D

 25 29  0  0  1  0  0  0  0  0999 V2000
  190.5300  177.9300  143.1420 C   0  0  0  0  0  2  0  0  0  0  0  0
  186.9220  178.3680  139.9800 C   0  0  0  0  0  3  0  0  0  0  0  0
  186.4940  178.7330  142.4990 C   0  0  2  0  0  3  0  0  0  0  0  0
  192.0570  176.7530  147.6010 N   0  0  0  0  0  1  0  0  0  0  0  0
  183.4960  178.9330  145.8400 O   0  0  0  0  0  0  0  0  0  0  0  0
  189.5900  176.4300  147.1510 C   0  0  0  0  0  2  0  0  0  0  0  0
  187.7030  176.9590  143.9340 C   0  0  0  0  0  2  0  0  0  0  0  0
  186.1490  178.6290  145.1670 C   0  0  2  0  0  3  0  0  0  0  0  0
  185.6090  178.2530  139.7820 C   0  0  0  0  0  3  0  0  0  0  0  0
  188.5590  177.2110  146.3470 C   0  0  1  0  0  3  0  0  0  0  0  0
  184.5140  180.8940  144.3440 N   0  0  0  0  0  1  0  0  0  0  0  0
  185.0590  178.3260  142.1820 C   0  0  0  0  0  0  0  0  0  0  0  0
  188.6730  178.0040  141.5630 C   0  0  0  0  0  0  0  0  0  0  0  0
  184.4780  179.1840  144.7190 P   0  0  2  0  0  0  0  0  0  0  0  0
  183.9970  178.2530  143.2390 C   0  0  0  0  0  2  0  0  0  0  0  0
  187.4580  178.4430  141.3440 C   0  0  0  0  0  0  0  0  0  0  0  0
  190.9640  176.8420  146.6950 C   0  0  0  0  0  0  0  0  0  0  0  0
  190.1290  177.3200  144.4770 C   0  0  1  0  0  3  0  0  0  0  0  0
  186.9950  178.3010  143.9030 C   0  0  2  0  0  3  0  0  0  0  0  0
  184.6670  178.1670  140.9130 C   0  0  0  0  0  3  0  0  0  0  0  0
  186.0710  177.5080  146.1940 C   0  0  0  0  0  3  0  0  0  0  0  0
  191.1710  177.2360  145.4700 N   0  0  0  0  0  0  0  0  0  0  0  0
  188.8530  177.0890  144.8720 C   0  0  2  0  0  3  0  0  0  0  0  0
  187.1380  176.8780  146.7250 C   0  0  0  0  0  3  0  0  0  0  0  0
  189.8270  177.4870  141.8940 C   0  0  0  0  0  3  0  0  0  0  0  0
  2 16  1  0  0  0  0
  3 16  1  6  0  0  0
  3 19  1  0  0  0  0
  8 21  1  1  0  0  0
  9  2  2  0  0  0  0
  9 20  1  0  0  0  0
 10 24  1  6  0  0  0
 10  6  1  0  0  0  0
 12  3  1  0  0  0  0
 12 15  1  0  0  0  0
 13 25  2  0  0  0  0
 14 11  1  6  0  0  0
 14  8  1  0  0  0  0
 14  5  2  0  0  0  0
 15 14  1  0  0  0  0
 16 13  2  0  0  0  0
 17  6  1  0  0  0  0
 17  4  1  0  0  0  0
 18  1  1  1  0  0  0
 18 23  1  0  0  0  0
 18 22  1  0  0  0  0
 19  7  1  6  0  0  0
 19  8  1  0  0  0  0
 20 12  2  0  0  0  0
 21 24  2  0  0  0  0
 22 17  2  0  0  0  0
 23  7  1  6  0  0  0
 23 10  1  0  0  0  0
 25  1  1  0  0  0  0
M  END
>  <MODEL>
3

>  <REMARK>
 VINA RESULT:      -8.2      2.949      6.635
  Name = 
  0 active torsions:
  status: ('A' for Active; 'I' for Inactive)
                            x       y       z     vdW  Elec       q    Type
                         _______ _______ _______ _____ _____    ______ ____

>  <TORSDO>
F 0

$$$$
=
 OpenBabel11032419193D

 25 29  0  0  1  0  0  0  0  0999 V2000
  187.8290  178.8080  141.1040 C   0  0  0  0  0  2  0  0  0  0  0  0
  183.4300  179.1300  143.0440 C   0  0  0  0  0  3  0  0  0  0  0  0
  185.5130  178.9960  144.5620 C   0  0  2  0  0  3  0  0  0  0  0  0
  192.4030  177.1960  141.3710 N   0  0  0  0  0  1  0  0  0  0  0  0
  187.1720  178.1220  148.6450 O   0  0  0  0  0  0  0  0  0  0  0  0
  190.8780  176.5300  143.2750 C   0  0  0  0  0  2  0  0  0  0  0  0
  187.2050  177.2460  143.7000 C   0  0  0  0  0  2  0  0  0  0  0  0
  187.7330  178.3960  145.9630 C   0  0  2  0  0  3  0  0  0  0  0  0
  182.6600  178.8240  144.0870 C   0  0  0  0  0  3  0  0  0  0  0  0
  189.7580  177.2420  144.0200 C   0  0  1  0  0  3  0  0  0  0  0  0
  186.4310  180.4490  147.5690 N   0  0  0  0  0  1  0  0  0  0  0  0
  184.5620  178.4050  145.5960 C   0  0  0  0  0  0  0  0  0  0  0  0
  185.5970  178.8190  142.0890 C   0  0  0  0  0  0  0  0  0  0  0  0
  186.6280  178.7210  147.3690 P   0  0  2  0  0  0  0  0  0  0  0  0
  185.0260  177.9760  146.9570 C   0  0  0  0  0  2  0  0  0  0  0  0
  184.8920  179.0710  143.1640 C   0  0  0  0  0  0  0  0  0  0  0  0
  191.1140  177.2430  141.9700 C   0  0  0  0  0  0  0  0  0  0  0  0
  188.7970  177.9270  141.8790 C   0  0  1  0  0  3  0  0  0  0  0  0
  186.9590  178.4320  144.6140 C   0  0  2  0  0  3  0  0  0  0  0  0
  183.2430  178.3920  145.3710 C   0  0  0  0  0  3  0  0  0  0  0  0
  188.5330  177.1260  146.2080 C   0  0  0  0  0  3  0  0  0  0  0  0
  190.1410  177.8630  141.3630 N   0  0  0  0  0  0  0  0  0  0  0  0
  188.5640  177.4170  143.1140 C   0  0  2  0  0  3  0  0  0  0  0  0
  189.4380  176.6110  145.3520 C   0  0  0  0  0  3  0  0  0  0  0  0
  186.3690  178.4620  141.0960 C   0  0  0  0  0  3  0  0  0  0  0  0
  2 16  1  0  0  0  0
  2  9  2  0  0  0  0
  3 16  1  6  0  0  0
  3 19  1  0  0  0  0
  3 12  1  0  0  0  0
  4 17  1  0  0  0  0
  8 21  1  1  0  0  0
  8 14  1  0  0  0  0
  9 20  1  0  0  0  0
 10  6  1  6  0  0  0
 10 24  1  0  0  0  0
 12 15  1  0  0  0  0
 13 16  2  0  0  0  0
 14 11  1  1  0  0  0
 14  5  2  0  0  0  0
 15 14  1  0  0  0  0
 17  6  1  0  0  0  0
 18  1  1  1  0  0  0
 18 23  1  0  0  0  0
 19  7  1  1  0  0  0
 19  8  1  0  0  0  0
 20 12  2  0  0  0  0
 22 18  1  0  0  0  0
 22 17  2  0  0  0  0
 23  7  1  1  0  0  0
 23 10  1  0  0  0  0
 24 21  2  0  0  0  0
 25  1  1  0  0  0  0
 25 13  2  0  0  0  0
M  END
>  <MODEL>
4

>  <REMARK>
 VINA RESULT:      -7.6      2.887      6.668
  Name = 
  0 active torsions:
  status: ('A' for Active; 'I' for Inactive)
                            x       y       z     vdW  Elec       q    Type
                         _______ _______ _______ _____ _____    ______ ____

>  <TORSDO>
F 0

$$$$
