=
 OpenBabel11042411503D

 68 73  0  0  1  0  0  0  0  0999 V2000
  190.0980  178.1670  137.9660 C   0  0  0  0  0  1  0  0  0  0  0  0
  191.9030  177.3520  139.6290 C   0  0  1  0  0  3  0  0  0  0  0  0
  190.5020  177.9680  139.4270 C   0  0  2  0  0  3  0  0  0  0  0  0
  190.6490  176.5040  139.8270 C   0  0  1  0  0  0  0  0  0  0  0  0
  190.2880  175.5840  138.8220 O   0  0  0  0  0  0  0  0  0  0  0  0
  188.9760  175.6590  138.7210 O   0  0  0  0  0  0  0  0  0  0  0  0
  188.7160  175.5490  137.3540 C   0  0  0  0  0  2  0  0  0  0  0  0
  185.0770  175.3670  137.0940 C   0  0  0  0  0  0  0  0  0  0  0  0
  186.2050  176.0270  137.2890 C   0  0  0  0  0  0  0  0  0  0  0  0
  187.3270  175.1740  137.1490 N   0  0  0  0  0  0  0  0  0  0  0  0
  186.8830  173.8190  136.8750 C   0  0  0  0  0  3  0  0  0  0  0  0
  185.3530  173.9120  136.8570 C   0  0  0  0  0  3  0  0  0  0  0  0
  183.4000  176.8300  136.0230 C   0  0  2  0  0  3  0  0  0  0  0  0
  182.6080  178.0480  136.5070 C   0  0  0  0  0  2  0  0  0  0  0  0
  182.7640  175.4380  136.1730 C   0  0  1  0  0  3  0  0  0  0  0  0
  183.7090  175.9630  137.2390 C   0  0  1  0  0  3  0  0  0  0  0  0
  180.7350  176.6430  137.2930 C   0  0  0  0  0  2  0  0  0  0  0  0
  181.0990  177.8500  136.4490 C   0  0  1  0  0  3  0  0  0  0  0  0
  181.2870  175.3870  136.6280 C   0  0  2  0  0  3  0  0  0  0  0  0
  179.6890  173.7060  137.6530 N   0  0  0  0  0  1  0  0  0  0  0  0
  181.9790  173.5810  138.0210 O   0  0  0  0  0  0  0  0  0  0  0  0
  181.0210  174.1800  137.4670 C   0  0  0  0  0  0  0  0  0  0  0  0
  179.2610  178.7480  137.6840 O   0  0  0  0  0  1  0  0  0  0  0  0
  180.3200  179.1230  136.8490 C   0  0  2  0  0  0  0  0  0  0  0  0
  179.7440  179.8410  135.6130 C   0  0  2  0  0  3  0  0  0  0  0  0
  179.4610  178.9410  134.6010 F   0  0  0  0  0  0  0  0  0  0  0  0
  180.6990  180.8980  135.0800 C   0  0  0  0  0  1  0  0  0  0  0  0
  181.1770  180.0300  137.5530 O   0  0  0  0  0  0  0  0  0  0  0  0
  181.6850  179.4890  139.9770 C   0  0  0  0  0  1  0  0  0  0  0  0
  180.4630  181.3900  139.2570 O   0  0  0  0  0  0  0  0  0  0  0  0
  181.0740  180.3450  138.9160 C   0  0  0  0  0  0  0  0  0  0  0  0
  186.7360  178.2640  136.3820 C   0  0  0  0  0  1  0  0  0  0  0  0
  186.3020  177.4870  137.6090 C   0  0  0  0  0  2  0  0  0  0  0  0
  190.1940  176.2320  141.2530 C   0  0  0  0  0  2  0  0  0  0  0  0
  190.6360  177.3490  142.1820 C   0  0  0  0  0  2  0  0  0  0  0  0
  191.7610  176.9040  142.9860 N   0  0  0  0  0  2  0  0  0  0  0  0
  191.2790  175.8330  143.8410 C   0  0  0  0  0  2  0  0  0  0  0  0
  190.9690  176.3740  145.2280 C   0  0  0  0  0  2  0  0  0  0  0  0
  189.8990  177.4520  145.1680 C   0  0  2  0  0  3  0  0  0  0  0  0
  189.8730  178.1690  146.3660 O   0  0  0  0  0  1  0  0  0  0  0  0
  188.5470  176.8000  144.9370 C   0  0  0  0  0  2  0  0  0  0  0  0
  187.5230  177.8180  144.7470 N   0  0  0  0  0  0  0  0  0  0  0  0
  183.7750  178.3220  143.2610 C   0  0  0  0  0  1  0  0  0  0  0  0
  185.0950  178.8710  143.7740 C   0  0  1  0  0  3  0  0  0  0  0  0
  185.2440  178.6110  145.2530 C   0  0  0  0  0  0  0  0  0  0  0  0
  186.2480  178.2240  142.9840 C   0  0  0  0  0  2  0  0  0  0  0  0
  186.6690  177.7060  146.9360 O   0  0  0  0  0  0  0  0  0  0  0  0
  184.3240  178.9120  146.0600 O   0  0  0  0  0  0  0  0  0  0  0  0
  186.5050  178.0360  145.7310 C   0  0  0  0  0  0  0  0  0  0  0  0
  187.4790  178.5390  143.5910 O   0  0  0  0  0  0  0  0  0  0  0  0
  192.6530  176.9960  138.3420 C   0  0  0  0  0  2  0  0  0  0  0  0
  193.4510  175.7170  138.5430 C   0  0  0  0  0  2  0  0  0  0  0  0
  194.6570  173.1700  138.0720 O   0  0  0  0  0  0  0  0  0  0  0  0
  193.9690  175.2490  137.2660 N   0  0  0  0  0  2  0  0  0  0  0  0
  194.4560  173.9190  137.0800 C   0  0  0  0  0  0  0  0  0  0  0  0
  194.7010  173.3880  135.6990 C   0  0  2  0  0  3  0  0  0  0  0  0
  192.8730  171.6430  135.4580 C   0  0  0  0  0  0  0  0  0  0  0  0
  195.0450  170.8190  135.7310 C   0  0  0  0  0  3  0  0  0  0  0  0
  192.6610  170.1850  135.5060 C   0  0  0  0  0  2  0  0  0  0  0  0
  194.2320  172.0100  135.5470 N   0  0  0  0  0  0  0  0  0  0  0  0
  194.0840  169.6280  135.6130 C   0  0  0  0  0  3  0  0  0  0  0  0
  191.9390  172.4830  135.3590 O   0  0  0  0  0  0  0  0  0  0  0  0
  196.1610  173.5430  135.2750 C   0  0  0  0  0  2  0  0  0  0  0  0
  196.8040  174.5250  136.0400 O   0  0  0  0  0  0  0  0  0  0  0  0
  199.0420  174.8310  137.6490 O   0  0  0  0  0  1  0  0  0  0  0  0
  198.0290  172.1840  137.2040 C   0  0  0  0  0  1  0  0  0  0  0  0
  199.1740  173.7200  135.2860 O   0  0  0  0  0  0  0  0  0  0  0  0
  198.2840  173.8400  136.5030 P   0  0  1  0  0  0  0  0  0  0  0  0
  2 51  1  6  0  0  0
  2  4  1  0  0  0  0
  3  1  1  6  0  0  0
  3  2  1  0  0  0  0
  3  4  1  0  0  0  0
  4 34  1  1  0  0  0
  5  4  1  0  0  0  0
  6  5  1  0  0  0  0
  7  6  1  0  0  0  0
  8 16  1  0  0  0  0
  8  9  2  0  0  0  0
  9 33  1  0  0  0  0
 10  9  1  0  0  0  0
 10  7  1  0  0  0  0
 11 10  1  0  0  0  0
 12 11  2  0  0  0  0
 12  8  1  0  0  0  0
 13 15  1  0  0  0  0
 13 14  1  1  0  0  0
 13 16  1  0  0  0  0
 15 19  1  0  0  0  0
 15 16  1  0  0  0  0
 18 14  1  0  0  0  0
 18 24  1  0  0  0  0
 18 17  1  0  0  0  0
 19 17  1  0  0  0  0
 19 22  1  0  0  0  0
 22 20  1  0  0  0  0
 22 21  2  0  0  0  0
 24 28  1  0  0  0  0
 24 23  1  0  0  0  0
 25 24  1  0  0  0  0
 26 25  1  0  0  0  0
 27 25  1  0  0  0  0
 28 31  1  0  0  0  0
 31 30  2  0  0  0  0
 31 29  1  0  0  0  0
 32 33  1  0  0  0  0
 34 35  1  0  0  0  0
 35 36  1  0  0  0  0
 36 37  1  0  0  0  0
 37 38  1  0  0  0  0
 39 38  1  0  0  0  0
 39 40  1  0  0  0  0
 41 39  1  0  0  0  0
 42 41  1  0  0  0  0
 42 49  1  0  0  0  0
 43 44  1  0  0  0  0
 44 45  1  0  0  0  0
 45 49  1  0  0  0  0
 45 48  2  0  0  0  0
 46 50  1  0  0  0  0
 46 44  1  0  0  0  0
 49 47  2  0  0  0  0
 50 42  1  0  0  0  0
 51 52  1  0  0  0  0
 54 52  1  0  0  0  0
 55 54  1  0  0  0  0
 55 53  2  0  0  0  0
 56 55  1  0  0  0  0
 57 59  1  0  0  0  0
 57 60  1  0  0  0  0
 59 61  1  0  0  0  0
 60 56  1  0  0  0  0
 60 58  1  0  0  0  0
 61 58  2  0  0  0  0
 62 57  2  0  0  0  0
 63 56  1  0  0  0  0
 63 64  1  0  0  0  0
 64 68  1  0  0  0  0
 67 68  2  0  0  0  0
 68 66  1  0  0  0  0
 68 65  1  0  0  0  0
M  END
>  <MODEL>
1

>  <REMARK>
 VINA RESULT:      -4.9      0.000      0.000
  Name = 
  27 active torsions:
  status: ('A' for Active; 'I' for Inactive)
    1  A    between atoms: C_5  and  C_20
    2  A    between atoms: C_5  and  N_47
    3  A    between atoms: C_6  and  N_7
    4  A    between atoms: C_6  and  C_23
    5  A    between atoms: O_10  and  O_52
    6  A    between atoms: O_10  and  C_60
    7  A    between atoms: C_11  and  C_56
    8  A    between atoms: C_16  and  C_24
    9  A    between atoms: C_16  and  O_44
   10  A    between atoms: C_18  and  C_29
   11  A    between atoms: C_20  and  C_35
   12  A    between atoms: C_22  and  N_37
   13  A    between atoms: C_22  and  C_40
   14  A    between atoms: C_23  and  C_40
   15  A    between atoms: C_24  and  N_36
   16  A    between atoms: C_24  and  C_54
   17  A    between atoms: C_31  and  C_56
   18  A    between atoms: C_32  and  C_33
   19  A    between atoms: C_34  and  N_37
   20  A    between atoms: C_34  and  C_57
   21  A    between atoms: O_42  and  C_56
   22  A    between atoms: O_42  and  C_62
   23  A    between atoms: O_44  and  P_65
   24  A    between atoms: N_46  and  C_60
   25  A    between atoms: C_50  and  C_67
   26  A    between atoms: O_52  and  C_63
   27  A    between atoms: C_57  and  C_63
                            x       y       z     vdW  Elec       q    Type
                         _______ _______ _______ _____ _____    ______ ____

>  <TORSDO>
F 27

$$$$
=
 OpenBabel11042411503D

 68 73  0  0  1  0  0  0  0  0999 V2000
  187.4920  173.9650  137.6630 C   0  0  0  0  0  1  0  0  0  0  0  0
  187.0700  173.6400  135.1330 C   0  0  1  0  0  3  0  0  0  0  0  0
  186.4640  173.8300  136.5400 C   0  0  2  0  0  3  0  0  0  0  0  0
  186.4870  174.9880  135.5480 C   0  0  1  0  0  0  0  0  0  0  0  0
  187.3690  176.0320  135.8890 O   0  0  0  0  0  0  0  0  0  0  0  0
  186.6070  177.0480  136.2420 O   0  0  0  0  0  0  0  0  0  0  0  0
  187.5000  178.0780  136.5400 C   0  0  0  0  0  2  0  0  0  0  0  0
  188.8030  177.6330  139.9240 C   0  0  0  0  0  0  0  0  0  0  0  0
  187.8690  178.0130  139.0700 C   0  0  0  0  0  0  0  0  0  0  0  0
  188.2550  177.7390  137.7340 N   0  0  0  0  0  0  0  0  0  0  0  0
  189.5860  177.1600  137.7170 C   0  0  0  0  0  3  0  0  0  0  0  0
  189.9980  177.0990  139.1930 C   0  0  0  0  0  3  0  0  0  0  0  0
  187.9190  176.7260  142.0440 C   0  0  2  0  0  3  0  0  0  0  0  0
  187.1020  177.3360  143.1870 C   0  0  0  0  0  2  0  0  0  0  0  0
  189.4530  176.7390  142.1560 C   0  0  1  0  0  3  0  0  0  0  0  0
  188.7340  177.8460  141.4060 C   0  0  1  0  0  3  0  0  0  0  0  0
  189.1360  177.9870  144.4270 C   0  0  0  0  0  2  0  0  0  0  0  0
  187.8050  177.2680  144.5360 C   0  0  1  0  0  3  0  0  0  0  0  0
  190.0550  177.1960  143.5040 C   0  0  2  0  0  3  0  0  0  0  0  0
  191.9810  177.9260  142.0260 N   0  0  0  0  0  1  0  0  0  0  0  0
  191.8960  178.4980  144.2750 O   0  0  0  0  0  0  0  0  0  0  0  0
  191.3510  177.9100  143.3040 C   0  0  0  0  0  0  0  0  0  0  0  0
  186.2370  176.7190  146.2540 O   0  0  0  0  0  1  0  0  0  0  0  0
  186.9240  177.8000  145.6890 C   0  0  2  0  0  0  0  0  0  0  0  0
  185.8930  178.8270  145.1800 C   0  0  2  0  0  3  0  0  0  0  0  0
  186.0540  180.0480  145.8100 F   0  0  0  0  0  0  0  0  0  0  0  0
  184.4660  178.3470  145.3940 C   0  0  0  0  0  1  0  0  0  0  0  0
  187.7370  178.4190  146.6920 O   0  0  0  0  0  0  0  0  0  0  0  0
  187.8690  178.0420  149.1960 C   0  0  0  0  0  1  0  0  0  0  0  0
  189.1870  176.8890  147.5960 O   0  0  0  0  0  0  0  0  0  0  0  0
  188.3020  177.7590  147.7940 C   0  0  0  0  0  0  0  0  0  0  0  0
  185.4150  177.8980  138.8000 C   0  0  0  0  0  1  0  0  0  0  0  0
  186.5640  178.6450  139.4470 C   0  0  0  0  0  2  0  0  0  0  0  0
  185.1010  175.3520  135.0330 C   0  0  0  0  0  2  0  0  0  0  0  0
  184.1030  174.2520  135.3490 C   0  0  0  0  0  2  0  0  0  0  0  0
  182.9570  174.8120  136.0440 N   0  0  0  0  0  2  0  0  0  0  0  0
  182.7650  176.1590  135.5360 C   0  0  0  0  0  2  0  0  0  0  0  0
  181.8460  176.9400  136.4620 C   0  0  0  0  0  2  0  0  0  0  0  0
  180.3960  176.5300  136.2660 C   0  0  2  0  0  3  0  0  0  0  0  0
  179.8880  177.1090  135.1010 O   0  0  0  0  0  1  0  0  0  0  0  0
  179.5810  176.9950  137.4600 C   0  0  0  0  0  2  0  0  0  0  0  0
  180.1530  178.2130  138.0160 N   0  0  0  0  0  0  0  0  0  0  0  0
  179.1000  181.9170  139.3140 C   0  0  0  0  0  1  0  0  0  0  0  0
  180.1380  180.8980  138.8780 C   0  0  1  0  0  3  0  0  0  0  0  0
  180.2690  179.7970  139.9020 C   0  0  0  0  0  0  0  0  0  0  0  0
  179.7360  180.3270  137.5060 C   0  0  0  0  0  2  0  0  0  0  0  0
  180.2550  177.4360  140.2340 O   0  0  0  0  0  0  0  0  0  0  0  0
  180.4300  180.0630  141.1230 O   0  0  0  0  0  0  0  0  0  0  0  0
  180.2440  178.4090  139.4320 C   0  0  0  0  0  0  0  0  0  0  0  0
  180.5510  179.2220  137.1910 O   0  0  0  0  0  0  0  0  0  0  0  0
  188.6000  173.6580  135.0710 C   0  0  0  0  0  2  0  0  0  0  0  0
  189.1210  172.2760  134.7130 C   0  0  0  0  0  2  0  0  0  0  0  0
  190.7570  174.0900  136.1960 O   0  0  0  0  0  0  0  0  0  0  0  0
  190.5760  172.2700  134.7450 N   0  0  0  0  0  2  0  0  0  0  0  0
  191.3250  173.1370  135.5990 C   0  0  0  0  0  0  0  0  0  0  0  0
  192.7890  172.9020  135.8220 C   0  0  2  0  0  3  0  0  0  0  0  0
  194.0430  174.8220  136.9100 C   0  0  0  0  0  0  0  0  0  0  0  0
  193.7150  174.9930  134.6000 C   0  0  0  0  0  3  0  0  0  0  0  0
  194.6190  176.1440  136.5980 C   0  0  0  0  0  2  0  0  0  0  0  0
  193.5610  174.1440  135.7710 N   0  0  0  0  0  0  0  0  0  0  0  0
  194.4750  176.2380  135.0760 C   0  0  0  0  0  3  0  0  0  0  0  0
  193.9750  174.3460  138.0740 O   0  0  0  0  0  0  0  0  0  0  0  0
  193.3510  171.8430  134.8740 C   0  0  0  0  0  2  0  0  0  0  0  0
  194.7050  172.0800  134.6040 O   0  0  0  0  0  0  0  0  0  0  0  0
  194.4830  170.1160  136.5490 O   0  0  0  0  0  0  0  0  0  0  0  0
  196.7600  170.0620  134.8040 C   0  0  0  0  0  1  0  0  0  0  0  0
  196.3100  171.9810  136.6650 O   0  0  0  0  0  1  0  0  0  0  0  0
  195.5620  171.1000  135.6900 P   0  0  1  0  0  0  0  0  0  0  0  0
  2 51  1  1  0  0  0
  2  4  1  0  0  0  0
  2  3  1  0  0  0  0
  3  1  1  1  0  0  0
  4 34  1  6  0  0  0
  4  5  1  0  0  0  0
  4  3  1  0  0  0  0
  5  6  1  0  0  0  0
  6  7  1  0  0  0  0
  7 10  1  0  0  0  0
  8 16  1  0  0  0  0
  9 33  1  0  0  0  0
  9  8  2  0  0  0  0
 10  9  1  0  0  0  0
 11 10  1  0  0  0  0
 11 12  2  0  0  0  0
 12  8  1  0  0  0  0
 13 15  1  0  0  0  0
 13 14  1  1  0  0  0
 14 18  1  0  0  0  0
 15 19  1  0  0  0  0
 16 13  1  0  0  0  0
 16 15  1  0  0  0  0
 17 18  1  0  0  0  0
 18 24  1  0  0  0  0
 19 17  1  0  0  0  0
 20 22  1  0  0  0  0
 22 19  1  0  0  0  0
 22 21  2  0  0  0  0
 24 23  1  0  0  0  0
 24 28  1  0  0  0  0
 25 27  1  0  0  0  0
 25 24  1  0  0  0  0
 25 26  1  0  0  0  0
 28 31  1  0  0  0  0
 30 31  2  0  0  0  0
 31 29  1  0  0  0  0
 32 33  1  0  0  0  0
 34 35  1  0  0  0  0
 35 36  1  0  0  0  0
 37 36  1  0  0  0  0
 37 38  1  0  0  0  0
 39 38  1  0  0  0  0
 39 41  1  0  0  0  0
 40 39  1  0  0  0  0
 41 42  1  0  0  0  0
 42 49  1  0  0  0  0
 44 43  1  0  0  0  0
 44 45  1  0  0  0  0
 45 48  2  0  0  0  0
 46 44  1  0  0  0  0
 49 45  1  0  0  0  0
 49 47  2  0  0  0  0
 50 46  1  0  0  0  0
 50 42  1  0  0  0  0
 52 54  1  0  0  0  0
 52 51  1  0  0  0  0
 54 55  1  0  0  0  0
 55 56  1  0  0  0  0
 55 53  2  0  0  0  0
 57 62  2  0  0  0  0
 58 61  2  0  0  0  0
 58 60  1  0  0  0  0
 59 57  1  0  0  0  0
 60 56  1  0  0  0  0
 60 57  1  0  0  0  0
 61 59  1  0  0  0  0
 63 56  1  0  0  0  0
 64 63  1  0  0  0  0
 64 68  1  0  0  0  0
 66 68  1  0  0  0  0
 68 65  2  0  0  0  0
 68 67  1  0  0  0  0
M  END
>  <MODEL>
2

>  <REMARK>
 VINA RESULT:      -4.2      2.711      8.420
  Name = 
  27 active torsions:
  status: ('A' for Active; 'I' for Inactive)
    1  A    between atoms: C_5  and  C_20
    2  A    between atoms: C_5  and  N_47
    3  A    between atoms: C_6  and  N_7
    4  A    between atoms: C_6  and  C_23
    5  A    between atoms: O_10  and  O_52
    6  A    between atoms: O_10  and  C_60
    7  A    between atoms: C_11  and  C_56
    8  A    between atoms: C_16  and  C_24
    9  A    between atoms: C_16  and  O_44
   10  A    between atoms: C_18  and  C_29
   11  A    between atoms: C_20  and  C_35
   12  A    between atoms: C_22  and  N_37
   13  A    between atoms: C_22  and  C_40
   14  A    between atoms: C_23  and  C_40
   15  A    between atoms: C_24  and  N_36
   16  A    between atoms: C_24  and  C_54
   17  A    between atoms: C_31  and  C_56
   18  A    between atoms: C_32  and  C_33
   19  A    between atoms: C_34  and  N_37
   20  A    between atoms: C_34  and  C_57
   21  A    between atoms: O_42  and  C_56
   22  A    between atoms: O_42  and  C_62
   23  A    between atoms: O_44  and  P_65
   24  A    between atoms: N_46  and  C_60
   25  A    between atoms: C_50  and  C_67
   26  A    between atoms: O_52  and  C_63
   27  A    between atoms: C_57  and  C_63
                            x       y       z     vdW  Elec       q    Type
                         _______ _______ _______ _____ _____    ______ ____

>  <TORSDO>
F 27

$$$$
=
 OpenBabel11042411503D

 68 73  0  0  1  0  0  0  0  0999 V2000
  187.5370  174.0850  138.0220 C   0  0  0  0  0  1  0  0  0  0  0  0
  186.8360  173.8990  135.5390 C   0  0  1  0  0  3  0  0  0  0  0  0
  186.3910  173.9660  137.0170 C   0  0  2  0  0  3  0  0  0  0  0  0
  186.2440  175.1850  136.1120 C   0  0  1  0  0  0  0  0  0  0  0  0
  187.1110  176.2510  136.4210 O   0  0  0  0  0  0  0  0  0  0  0  0
  186.3360  177.2490  136.7950 O   0  0  0  0  0  0  0  0  0  0  0  0
  187.2170  178.2610  137.1780 C   0  0  0  0  0  2  0  0  0  0  0  0
  188.5530  177.6440  140.5220 C   0  0  0  0  0  0  0  0  0  0  0  0
  187.6350  178.1160  139.6970 C   0  0  0  0  0  0  0  0  0  0  0  0
  187.9680  177.8380  138.3480 N   0  0  0  0  0  0  0  0  0  0  0  0
  189.2460  177.1520  138.2890 C   0  0  0  0  0  3  0  0  0  0  0  0
  189.6840  177.0280  139.7540 C   0  0  0  0  0  3  0  0  0  0  0  0
  187.5010  176.8980  142.6280 C   0  0  2  0  0  3  0  0  0  0  0  0
  186.8360  177.6420  143.7900 C   0  0  0  0  0  2  0  0  0  0  0  0
  189.0020  176.5800  142.7290 C   0  0  1  0  0  3  0  0  0  0  0  0
  188.5350  177.8330  142.0090 C   0  0  1  0  0  3  0  0  0  0  0  0
  188.9650  177.8160  145.0290 C   0  0  0  0  0  2  0  0  0  0  0  0
  187.5110  177.3940  145.1320 C   0  0  1  0  0  3  0  0  0  0  0  0
  189.6910  176.8670  144.0830 C   0  0  2  0  0  3  0  0  0  0  0  0
  191.5100  178.6320  144.1700 N   0  0  0  0  0  1  0  0  0  0  0  0
  191.9590  176.4630  143.4690 O   0  0  0  0  0  0  0  0  0  0  0  0
  191.1100  177.2930  143.8890 C   0  0  0  0  0  0  0  0  0  0  0  0
  185.9370  177.1260  146.9100 O   0  0  0  0  0  1  0  0  0  0  0  0
  186.7670  178.0750  146.3030 C   0  0  2  0  0  0  0  0  0  0  0  0
  185.8960  179.2470  145.8080 C   0  0  2  0  0  3  0  0  0  0  0  0
  185.9310  180.3040  146.6990 F   0  0  0  0  0  0  0  0  0  0  0  0
  184.4490  178.8250  145.6020 C   0  0  0  0  0  1  0  0  0  0  0  0
  187.7020  178.5700  147.2670 O   0  0  0  0  0  0  0  0  0  0  0  0
  189.7210  177.2120  147.9780 C   0  0  0  0  0  1  0  0  0  0  0  0
  187.8090  177.5780  149.3330 O   0  0  0  0  0  0  0  0  0  0  0  0
  188.3650  177.7880  148.2250 C   0  0  0  0  0  0  0  0  0  0  0  0
  185.1800  177.9590  139.9340 C   0  0  0  0  0  1  0  0  0  0  0  0
  186.3960  178.8450  140.1170 C   0  0  0  0  0  2  0  0  0  0  0  0
  184.7920  175.5050  135.7850 C   0  0  0  0  0  2  0  0  0  0  0  0
  184.0970  174.2980  135.1810 C   0  0  0  0  0  2  0  0  0  0  0  0
  183.3290  173.6090  136.2040 N   0  0  0  0  0  2  0  0  0  0  0  0
  182.8520  174.6190  137.1330 C   0  0  0  0  0  2  0  0  0  0  0  0
  181.3950  174.3590  137.4810 C   0  0  0  0  0  2  0  0  0  0  0  0
  180.5540  175.6090  137.2800 C   0  0  2  0  0  3  0  0  0  0  0  0
  179.8270  175.5110  136.0920 O   0  0  0  0  0  1  0  0  0  0  0  0
  181.4700  176.8200  137.2150 C   0  0  0  0  0  2  0  0  0  0  0  0
  180.7070  178.0090  136.8620 N   0  0  0  0  0  0  0  0  0  0  0  0
  180.7670  182.0550  137.2400 C   0  0  0  0  0  1  0  0  0  0  0  0
  180.0590  180.7530  136.9070 C   0  0  1  0  0  3  0  0  0  0  0  0
  180.6190  180.1500  135.6420 C   0  0  0  0  0  0  0  0  0  0  0  0
  180.2090  179.7820  138.0920 C   0  0  0  0  0  2  0  0  0  0  0  0
  181.5330  178.1760  134.6660 O   0  0  0  0  0  0  0  0  0  0  0  0
  180.7430  180.8390  134.5940 O   0  0  0  0  0  0  0  0  0  0  0  0
  180.9750  178.7280  135.6520 C   0  0  0  0  0  0  0  0  0  0  0  0
  179.7650  178.4990  137.7170 O   0  0  0  0  0  0  0  0  0  0  0  0
  188.3450  174.0040  135.3040 C   0  0  0  0  0  2  0  0  0  0  0  0
  189.0280  172.7150  135.7340 C   0  0  0  0  0  2  0  0  0  0  0  0
  190.9460  170.9290  134.5950 O   0  0  0  0  0  0  0  0  0  0  0  0
  190.4710  172.9000  135.7520 N   0  0  0  0  0  2  0  0  0  0  0  0
  191.3630  172.0220  135.0620 C   0  0  0  0  0  0  0  0  0  0  0  0
  192.7980  172.4070  134.8580 C   0  0  2  0  0  3  0  0  0  0  0  0
  194.1510  170.5160  135.8770 C   0  0  0  0  0  0  0  0  0  0  0  0
  193.9550  172.4500  137.1780 C   0  0  0  0  0  3  0  0  0  0  0  0
  194.8490  170.1420  137.1210 C   0  0  0  0  0  2  0  0  0  0  0  0
  193.6720  171.8430  135.8880 N   0  0  0  0  0  0  0  0  0  0  0  0
  194.7900  171.4250  137.9560 C   0  0  0  0  0  3  0  0  0  0  0  0
  193.9840  169.7330  134.9060 O   0  0  0  0  0  0  0  0  0  0  0  0
  192.9740  173.9200  134.7280 C   0  0  0  0  0  2  0  0  0  0  0  0
  194.1320  174.3480  135.3890 O   0  0  0  0  0  0  0  0  0  0  0  0
  192.5690  176.5770  134.8570 O   0  0  0  0  0  0  0  0  0  0  0  0
  193.4550  176.1390  137.5510 C   0  0  0  0  0  1  0  0  0  0  0  0
  195.0970  176.7760  135.4900 O   0  0  0  0  0  1  0  0  0  0  0  0
  193.8500  175.9730  135.7860 P   0  0  1  0  0  0  0  0  0  0  0  0
  2 51  1  1  0  0  0
  2  4  1  0  0  0  0
  2  3  1  0  0  0  0
  3  1  1  1  0  0  0
  4 34  1  6  0  0  0
  4  5  1  0  0  0  0
  4  3  1  0  0  0  0
  5  6  1  0  0  0  0
  6  7  1  0  0  0  0
  7 10  1  0  0  0  0
  8 16  1  0  0  0  0
  9 33  1  0  0  0  0
  9  8  2  0  0  0  0
 10  9  1  0  0  0  0
 11 10  1  0  0  0  0
 11 12  2  0  0  0  0
 12  8  1  0  0  0  0
 13 15  1  0  0  0  0
 13 14  1  1  0  0  0
 14 18  1  0  0  0  0
 15 19  1  0  0  0  0
 16 13  1  0  0  0  0
 16 15  1  0  0  0  0
 17 18  1  0  0  0  0
 18 24  1  0  0  0  0
 19 17  1  0  0  0  0
 21 22  2  0  0  0  0
 22 19  1  0  0  0  0
 22 20  1  0  0  0  0
 24 23  1  0  0  0  0
 24 28  1  0  0  0  0
 25 24  1  0  0  0  0
 25 26  1  0  0  0  0
 27 25  1  0  0  0  0
 28 31  1  0  0  0  0
 29 31  1  0  0  0  0
 31 30  2  0  0  0  0
 32 33  1  0  0  0  0
 35 34  1  0  0  0  0
 35 36  1  0  0  0  0
 36 37  1  0  0  0  0
 37 38  1  0  0  0  0
 39 38  1  0  0  0  0
 40 39  1  0  0  0  0
 41 39  1  0  0  0  0
 42 41  1  0  0  0  0
 42 50  1  0  0  0  0
 44 43  1  0  0  0  0
 44 46  1  0  0  0  0
 45 49  1  0  0  0  0
 45 44  1  0  0  0  0
 47 49  2  0  0  0  0
 48 45  2  0  0  0  0
 49 42  1  0  0  0  0
 50 46  1  0  0  0  0
 51 52  1  0  0  0  0
 52 54  1  0  0  0  0
 53 55  2  0  0  0  0
 55 54  1  0  0  0  0
 56 55  1  0  0  0  0
 56 60  1  0  0  0  0
 57 60  1  0  0  0  0
 57 59  1  0  0  0  0
 58 61  2  0  0  0  0
 59 61  1  0  0  0  0
 60 58  1  0  0  0  0
 62 57  2  0  0  0  0
 63 56  1  0  0  0  0
 63 64  1  0  0  0  0
 64 68  1  0  0  0  0
 65 68  2  0  0  0  0
 67 68  1  0  0  0  0
 68 66  1  0  0  0  0
M  END
>  <MODEL>
3

>  <REMARK>
 VINA RESULT:      -4.2      2.817      8.682
  Name = 
  27 active torsions:
  status: ('A' for Active; 'I' for Inactive)
    1  A    between atoms: C_5  and  C_20
    2  A    between atoms: C_5  and  N_47
    3  A    between atoms: C_6  and  N_7
    4  A    between atoms: C_6  and  C_23
    5  A    between atoms: O_10  and  O_52
    6  A    between atoms: O_10  and  C_60
    7  A    between atoms: C_11  and  C_56
    8  A    between atoms: C_16  and  C_24
    9  A    between atoms: C_16  and  O_44
   10  A    between atoms: C_18  and  C_29
   11  A    between atoms: C_20  and  C_35
   12  A    between atoms: C_22  and  N_37
   13  A    between atoms: C_22  and  C_40
   14  A    between atoms: C_23  and  C_40
   15  A    between atoms: C_24  and  N_36
   16  A    between atoms: C_24  and  C_54
   17  A    between atoms: C_31  and  C_56
   18  A    between atoms: C_32  and  C_33
   19  A    between atoms: C_34  and  N_37
   20  A    between atoms: C_34  and  C_57
   21  A    between atoms: O_42  and  C_56
   22  A    between atoms: O_42  and  C_62
   23  A    between atoms: O_44  and  P_65
   24  A    between atoms: N_46  and  C_60
   25  A    between atoms: C_50  and  C_67
   26  A    between atoms: O_52  and  C_63
   27  A    between atoms: C_57  and  C_63
                            x       y       z     vdW  Elec       q    Type
                         _______ _______ _______ _____ _____    ______ ____

>  <TORSDO>
F 27

$$$$
=
 OpenBabel11042411503D

 68 73  0  0  1  0  0  0  0  0999 V2000
  184.4940  180.4800  138.9660 C   0  0  0  0  0  1  0  0  0  0  0  0
  183.8770  178.2760  140.1690 C   0  0  1  0  0  3  0  0  0  0  0  0
  183.6790  179.1870  138.9390 C   0  0  2  0  0  3  0  0  0  0  0  0
  184.5320  177.9280  138.8350 C   0  0  1  0  0  0  0  0  0  0  0  0
  185.9110  178.1680  138.6750 O   0  0  0  0  0  0  0  0  0  0  0  0
  186.1320  178.1440  137.3760 O   0  0  0  0  0  0  0  0  0  0  0  0
  185.9690  176.8070  137.0100 C   0  0  0  0  0  2  0  0  0  0  0  0
  189.2970  175.5780  136.1380 C   0  0  0  0  0  0  0  0  0  0  0  0
  188.3580  175.8940  137.0120 C   0  0  0  0  0  0  0  0  0  0  0  0
  187.1770  176.3280  136.3600 N   0  0  0  0  0  0  0  0  0  0  0  0
  187.3830  176.3310  134.9230 C   0  0  0  0  0  3  0  0  0  0  0  0
  188.8280  175.8500  134.7400 C   0  0  0  0  0  3  0  0  0  0  0  0
  191.6070  175.3310  135.3000 C   0  0  2  0  0  3  0  0  0  0  0  0
  192.6030  174.1670  135.2970 C   0  0  0  0  0  2  0  0  0  0  0  0
  191.6500  176.3250  136.4720 C   0  0  1  0  0  3  0  0  0  0  0  0
  190.6870  175.1510  136.5030 C   0  0  1  0  0  3  0  0  0  0  0  0
  193.5680  174.8570  137.4640 C   0  0  0  0  0  2  0  0  0  0  0  0
  193.9000  174.4800  136.0320 C   0  0  1  0  0  3  0  0  0  0  0  0
  192.8240  176.1870  137.4680 C   0  0  2  0  0  3  0  0  0  0  0  0
  193.1090  177.5660  139.5760 N   0  0  0  0  0  1  0  0  0  0  0  0
  191.4290  175.9730  139.3880 O   0  0  0  0  0  0  0  0  0  0  0  0
  192.4060  176.5590  138.8530 C   0  0  0  0  0  0  0  0  0  0  0  0
  195.0200  172.9350  134.5940 O   0  0  0  0  0  1  0  0  0  0  0  0
  194.9270  173.3300  135.9340 C   0  0  2  0  0  0  0  0  0  0  0  0
  194.4920  172.1150  136.7760 C   0  0  2  0  0  3  0  0  0  0  0  0
  195.5640  171.5770  137.4650 F   0  0  0  0  0  0  0  0  0  0  0  0
  193.8650  171.0280  135.9160 C   0  0  0  0  0  1  0  0  0  0  0  0
  196.2120  173.7690  136.3860 O   0  0  0  0  0  0  0  0  0  0  0  0
  198.2400  173.4180  134.9060 C   0  0  0  0  0  1  0  0  0  0  0  0
  197.2640  175.5310  135.3610 O   0  0  0  0  0  0  0  0  0  0  0  0
  197.2230  174.2920  135.5650 C   0  0  0  0  0  0  0  0  0  0  0  0
  188.7840  177.1740  139.0820 C   0  0  0  0  0  1  0  0  0  0  0  0
  188.5030  175.8030  138.5000 C   0  0  0  0  0  2  0  0  0  0  0  0
  183.8840  176.8430  137.9870 C   0  0  0  0  0  2  0  0  0  0  0  0
  182.4890  177.2580  137.5550 C   0  0  0  0  0  2  0  0  0  0  0  0
  182.3430  177.0760  136.1210 N   0  0  0  0  0  2  0  0  0  0  0  0
  181.6010  175.8440  135.9190 C   0  0  0  0  0  2  0  0  0  0  0  0
  182.5240  174.6470  136.0840 C   0  0  0  0  0  2  0  0  0  0  0  0
  181.8130  173.3540  135.7170 C   0  0  2  0  0  3  0  0  0  0  0  0
  180.5180  173.3550  136.2380 O   0  0  0  0  0  1  0  0  0  0  0  0
  182.5890  172.1800  136.2870 C   0  0  0  0  0  2  0  0  0  0  0  0
  183.7920  171.9420  135.5020 N   0  0  0  0  0  0  0  0  0  0  0  0
  187.8410  172.2000  135.7240 C   0  0  0  0  0  1  0  0  0  0  0  0
  186.5530  172.0340  134.9370 C   0  0  1  0  0  3  0  0  0  0  0  0
  185.9080  170.7040  135.2420 C   0  0  0  0  0  0  0  0  0  0  0  0
  185.6020  173.1960  135.2790 C   0  0  0  0  0  2  0  0  0  0  0  0
  183.8910  169.6280  135.9150 O   0  0  0  0  0  0  0  0  0  0  0  0
  186.5730  169.6350  135.1890 O   0  0  0  0  0  0  0  0  0  0  0  0
  184.4780  170.6860  135.5610 C   0  0  0  0  0  0  0  0  0  0  0  0
  184.3250  172.9410  134.7430 O   0  0  0  0  0  0  0  0  0  0  0  0
  184.8860  178.7820  141.2030 C   0  0  0  0  0  2  0  0  0  0  0  0
  184.3470  178.5610  142.6070 C   0  0  0  0  0  2  0  0  0  0  0  0
  186.6020  176.8060  142.6280 O   0  0  0  0  0  0  0  0  0  0  0  0
  185.4380  178.5970  143.5700 N   0  0  0  0  0  2  0  0  0  0  0  0
  186.5900  177.7610  143.4500 C   0  0  0  0  0  0  0  0  0  0  0  0
  187.8110  178.0290  144.2780 C   0  0  2  0  0  3  0  0  0  0  0  0
  189.6650  176.5780  143.3310 C   0  0  0  0  0  0  0  0  0  0  0  0
  189.9480  178.8870  143.0860 C   0  0  0  0  0  3  0  0  0  0  0  0
  190.9940  176.6760  142.6990 C   0  0  0  0  0  2  0  0  0  0  0  0
  189.0460  177.8320  143.5200 N   0  0  0  0  0  0  0  0  0  0  0  0
  191.1620  178.1810  142.4680 C   0  0  0  0  0  3  0  0  0  0  0  0
  189.1360  175.4900  143.6800 O   0  0  0  0  0  0  0  0  0  0  0  0
  187.8080  177.2300  145.5810 C   0  0  0  0  0  2  0  0  0  0  0  0
  187.3740  178.0200  146.6530 O   0  0  0  0  0  0  0  0  0  0  0  0
  187.8240  177.3850  149.3150 O   0  0  0  0  0  1  0  0  0  0  0  0
  189.7750  176.5870  147.3690 C   0  0  0  0  0  1  0  0  0  0  0  0
  189.2660  179.1610  148.0510 O   0  0  0  0  0  0  0  0  0  0  0  0
  188.5550  177.8400  147.8560 P   0  0  1  0  0  0  0  0  0  0  0  0
  2 51  1  1  0  0  0
  3  1  1  1  0  0  0
  3  2  1  0  0  0  0
  4 34  1  6  0  0  0
  4  3  1  0  0  0  0
  4  2  1  0  0  0  0
  5  4  1  0  0  0  0
  6  5  1  0  0  0  0
  7  6  1  0  0  0  0
  8 16  1  0  0  0  0
  8  9  2  0  0  0  0
  9 33  1  0  0  0  0
 10  7  1  0  0  0  0
 10  9  1  0  0  0  0
 11 10  1  0  0  0  0
 12 11  2  0  0  0  0
 12  8  1  0  0  0  0
 13 14  1  1  0  0  0
 13 15  1  0  0  0  0
 13 16  1  0  0  0  0
 14 18  1  0  0  0  0
 15 16  1  0  0  0  0
 15 19  1  0  0  0  0
 17 19  1  0  0  0  0
 18 17  1  0  0  0  0
 19 22  1  0  0  0  0
 22 21  2  0  0  0  0
 22 20  1  0  0  0  0
 23 24  1  0  0  0  0
 24 18  1  0  0  0  0
 24 28  1  0  0  0  0
 24 25  1  0  0  0  0
 25 26  1  0  0  0  0
 27 25  1  0  0  0  0
 29 31  1  0  0  0  0
 30 31  2  0  0  0  0
 31 28  1  0  0  0  0
 33 32  1  0  0  0  0
 35 34  1  0  0  0  0
 36 35  1  0  0  0  0
 37 38  1  0  0  0  0
 37 36  1  0  0  0  0
 39 38  1  0  0  0  0
 39 40  1  0  0  0  0
 39 41  1  0  0  0  0
 42 49  1  0  0  0  0
 42 41  1  0  0  0  0
 44 45  1  0  0  0  0
 44 46  1  0  0  0  0
 44 43  1  0  0  0  0
 45 49  1  0  0  0  0
 48 45  2  0  0  0  0
 49 47  2  0  0  0  0
 50 46  1  0  0  0  0
 50 42  1  0  0  0  0
 51 52  1  0  0  0  0
 52 54  1  0  0  0  0
 53 55  2  0  0  0  0
 55 54  1  0  0  0  0
 55 56  1  0  0  0  0
 56 63  1  0  0  0  0
 57 60  1  0  0  0  0
 57 62  2  0  0  0  0
 58 60  1  0  0  0  0
 59 57  1  0  0  0  0
 60 56  1  0  0  0  0
 61 59  1  0  0  0  0
 61 58  2  0  0  0  0
 63 64  1  0  0  0  0
 64 68  1  0  0  0  0
 66 68  1  0  0  0  0
 68 67  2  0  0  0  0
 68 65  1  0  0  0  0
M  END
>  <MODEL>
4

>  <REMARK>
 VINA RESULT:      -3.0      3.800     11.723
  Name = 
  27 active torsions:
  status: ('A' for Active; 'I' for Inactive)
    1  A    between atoms: C_5  and  C_20
    2  A    between atoms: C_5  and  N_47
    3  A    between atoms: C_6  and  N_7
    4  A    between atoms: C_6  and  C_23
    5  A    between atoms: O_10  and  O_52
    6  A    between atoms: O_10  and  C_60
    7  A    between atoms: C_11  and  C_56
    8  A    between atoms: C_16  and  C_24
    9  A    between atoms: C_16  and  O_44
   10  A    between atoms: C_18  and  C_29
   11  A    between atoms: C_20  and  C_35
   12  A    between atoms: C_22  and  N_37
   13  A    between atoms: C_22  and  C_40
   14  A    between atoms: C_23  and  C_40
   15  A    between atoms: C_24  and  N_36
   16  A    between atoms: C_24  and  C_54
   17  A    between atoms: C_31  and  C_56
   18  A    between atoms: C_32  and  C_33
   19  A    between atoms: C_34  and  N_37
   20  A    between atoms: C_34  and  C_57
   21  A    between atoms: O_42  and  C_56
   22  A    between atoms: O_42  and  C_62
   23  A    between atoms: O_44  and  P_65
   24  A    between atoms: N_46  and  C_60
   25  A    between atoms: C_50  and  C_67
   26  A    between atoms: O_52  and  C_63
   27  A    between atoms: C_57  and  C_63
                            x       y       z     vdW  Elec       q    Type
                         _______ _______ _______ _____ _____    ______ ____

>  <TORSDO>
F 27

$$$$
=
 OpenBabel11042411503D

 68 73  0  0  1  0  0  0  0  0999 V2000
  191.0970  179.2990  143.0370 C   0  0  0  0  0  1  0  0  0  0  0  0
  191.2090  177.1960  141.5350 C   0  0  1  0  0  3  0  0  0  0  0  0
  190.7710  177.8130  142.8810 C   0  0  2  0  0  3  0  0  0  0  0  0
  189.7410  177.5230  141.7950 C   0  0  1  0  0  0  0  0  0  0  0  0
  189.1860  178.6710  141.1940 O   0  0  0  0  0  0  0  0  0  0  0  0
  187.8820  178.4780  141.1850 O   0  0  0  0  0  0  0  0  0  0  0  0
  187.4840  178.7970  139.8860 C   0  0  0  0  0  2  0  0  0  0  0  0
  184.1650  177.6760  138.8510 C   0  0  0  0  0  0  0  0  0  0  0  0
  185.4830  177.6580  138.7730 C   0  0  0  0  0  0  0  0  0  0  0  0
  186.0650  178.5250  139.7300 N   0  0  0  0  0  0  0  0  0  0  0  0
  185.0210  179.2030  140.4770 C   0  0  0  0  0  3  0  0  0  0  0  0
  183.7120  178.6650  139.8830 C   0  0  0  0  0  3  0  0  0  0  0  0
  182.6630  175.7240  138.6670 C   0  0  2  0  0  3  0  0  0  0  0  0
  182.5620  174.5680  137.6680 C   0  0  0  0  0  2  0  0  0  0  0  0
  181.8120  176.9800  138.4180 C   0  0  1  0  0  3  0  0  0  0  0  0
  183.2490  176.9240  137.9310 C   0  0  1  0  0  3  0  0  0  0  0  0
  180.9670  175.8040  136.2450 C   0  0  0  0  0  2  0  0  0  0  0  0
  181.2140  174.4920  136.9650 C   0  0  1  0  0  3  0  0  0  0  0  0
  180.7710  176.9080  137.2780 C   0  0  2  0  0  3  0  0  0  0  0  0
  179.5730  179.1280  137.0240 N   0  0  0  0  0  1  0  0  0  0  0  0
  181.3770  178.5650  135.6750 O   0  0  0  0  0  0  0  0  0  0  0  0
  180.6040  178.2350  136.6120 C   0  0  0  0  0  0  0  0  0  0  0  0
  181.1050  173.7110  134.7090 O   0  0  0  0  0  1  0  0  0  0  0  0
  181.1010  173.2630  136.0350 C   0  0  2  0  0  0  0  0  0  0  0  0
  179.7950  172.4850  136.2890 C   0  0  2  0  0  3  0  0  0  0  0  0
  179.9010  171.6850  137.4120 F   0  0  0  0  0  0  0  0  0  0  0  0
  179.4170  171.6150  135.1000 C   0  0  0  0  0  1  0  0  0  0  0  0
  182.2110  172.3810  136.2390 O   0  0  0  0  0  0  0  0  0  0  0  0
  184.3600  172.8770  134.9890 C   0  0  0  0  0  1  0  0  0  0  0  0
  182.9980  170.9730  134.6080 O   0  0  0  0  0  0  0  0  0  0  0  0
  183.1560  172.0350  135.2620 C   0  0  0  0  0  0  0  0  0  0  0  0
  185.4340  176.4880  136.5960 C   0  0  0  0  0  1  0  0  0  0  0  0
  186.2760  176.8280  137.8090 C   0  0  0  0  0  2  0  0  0  0  0  0
  188.8100  176.3740  142.1550 C   0  0  0  0  0  2  0  0  0  0  0  0
  189.2680  175.6890  143.4300 C   0  0  0  0  0  2  0  0  0  0  0  0
  190.7140  175.7660  143.5370 N   0  0  0  0  0  2  0  0  0  0  0  0
  191.0820  175.1670  144.8090 C   0  0  0  0  0  2  0  0  0  0  0  0
  191.9170  176.1430  145.6230 C   0  0  0  0  0  2  0  0  0  0  0  0
  191.0340  177.1470  146.3450 C   0  0  2  0  0  3  0  0  0  0  0  0
  191.5800  177.4550  147.5930 O   0  0  0  0  0  1  0  0  0  0  0  0
  189.6500  176.5500  146.5310 C   0  0  0  0  0  2  0  0  0  0  0  0
  188.6310  177.5790  146.3710 N   0  0  0  0  0  0  0  0  0  0  0  0
  184.8360  178.1170  145.0250 C   0  0  0  0  0  1  0  0  0  0  0  0
  186.1810  178.6530  145.4810 C   0  0  1  0  0  3  0  0  0  0  0  0
  186.3830  178.4040  146.9560 C   0  0  0  0  0  0  0  0  0  0  0  0
  187.2950  177.9850  144.6540 C   0  0  0  0  0  2  0  0  0  0  0  0
  187.8600  177.4970  148.5920 O   0  0  0  0  0  0  0  0  0  0  0  0
  185.4980  178.7240  147.7940 O   0  0  0  0  0  0  0  0  0  0  0  0
  187.6540  177.8180  147.3910 C   0  0  0  0  0  0  0  0  0  0  0  0
  188.5520  178.2900  145.2110 O   0  0  0  0  0  0  0  0  0  0  0  0
  191.8610  178.1690  140.5500 C   0  0  0  0  0  2  0  0  0  0  0  0
  193.1360  177.5630  139.9870 C   0  0  0  0  0  2  0  0  0  0  0  0
  194.9560  175.7060  138.8020 O   0  0  0  0  0  0  0  0  0  0  0  0
  192.8120  176.6210  138.9270 N   0  0  0  0  0  2  0  0  0  0  0  0
  193.7450  175.6430  138.4610 C   0  0  0  0  0  0  0  0  0  0  0  0
  193.2860  174.5130  137.5900 C   0  0  2  0  0  3  0  0  0  0  0  0
  194.9300  174.6520  135.6600 C   0  0  0  0  0  0  0  0  0  0  0  0
  194.8420  172.6020  136.7840 C   0  0  0  0  0  3  0  0  0  0  0  0
  195.8680  173.8180  134.8860 C   0  0  0  0  0  2  0  0  0  0  0  0
  194.3710  173.9770  136.7660 N   0  0  0  0  0  0  0  0  0  0  0  0
  195.8750  172.4930  135.6540 C   0  0  0  0  0  3  0  0  0  0  0  0
  194.6430  175.8410  135.3630 O   0  0  0  0  0  0  0  0  0  0  0  0
  192.0680  174.8940  136.7490 C   0  0  0  0  0  2  0  0  0  0  0  0
  190.8810  174.6900  137.4660 O   0  0  0  0  0  0  0  0  0  0  0  0
  190.2240  173.8010  134.9220 O   0  0  0  0  0  0  0  0  0  0  0  0
  188.2020  173.7430  136.9560 C   0  0  0  0  0  1  0  0  0  0  0  0
  189.2490  176.0150  135.9120 O   0  0  0  0  0  1  0  0  0  0  0  0
  189.6550  174.6100  136.2980 P   0  0  1  0  0  0  0  0  0  0  0  0
  2 51  1  6  0  0  0
  2  4  1  0  0  0  0
  2  3  1  0  0  0  0
  3  1  1  6  0  0  0
  4 34  1  1  0  0  0
  4  3  1  0  0  0  0
  5  4  1  0  0  0  0
  6  5  1  0  0  0  0
  7  6  1  0  0  0  0
  8 12  1  0  0  0  0
  9  8  2  0  0  0  0
  9 10  1  0  0  0  0
 10  7  1  0  0  0  0
 10 11  1  0  0  0  0
 12 11  2  0  0  0  0
 13 14  1  6  0  0  0
 15 13  1  0  0  0  0
 16 15  1  0  0  0  0
 16 13  1  0  0  0  0
 16  8  1  0  0  0  0
 17 18  1  0  0  0  0
 17 19  1  0  0  0  0
 18 14  1  0  0  0  0
 19 15  1  0  0  0  0
 21 22  2  0  0  0  0
 22 20  1  0  0  0  0
 22 19  1  0  0  0  0
 23 24  1  0  0  0  0
 24 28  1  0  0  0  0
 24 25  1  0  0  0  0
 24 18  1  0  0  0  0
 25 26  1  0  0  0  0
 27 25  1  0  0  0  0
 29 31  1  0  0  0  0
 30 31  2  0  0  0  0
 31 28  1  0  0  0  0
 32 33  1  0  0  0  0
 33  9  1  0  0  0  0
 34 35  1  0  0  0  0
 35 36  1  0  0  0  0
 36 37  1  0  0  0  0
 37 38  1  0  0  0  0
 38 39  1  0  0  0  0
 39 41  1  0  0  0  0
 39 40  1  0  0  0  0
 42 41  1  0  0  0  0
 42 49  1  0  0  0  0
 43 44  1  0  0  0  0
 44 45  1  0  0  0  0
 45 49  1  0  0  0  0
 45 48  2  0  0  0  0
 46 50  1  0  0  0  0
 46 44  1  0  0  0  0
 49 47  2  0  0  0  0
 50 42  1  0  0  0  0
 52 51  1  0  0  0  0
 54 52  1  0  0  0  0
 55 53  2  0  0  0  0
 55 54  1  0  0  0  0
 56 55  1  0  0  0  0
 57 60  1  0  0  0  0
 59 61  1  0  0  0  0
 59 57  1  0  0  0  0
 60 58  1  0  0  0  0
 60 56  1  0  0  0  0
 61 58  2  0  0  0  0
 62 57  2  0  0  0  0
 63 64  1  0  0  0  0
 63 56  1  0  0  0  0
 65 68  2  0  0  0  0
 67 68  1  0  0  0  0
 68 66  1  0  0  0  0
 68 64  1  0  0  0  0
M  END
>  <MODEL>
5

>  <REMARK>
 VINA RESULT:      -2.5      2.643      4.824
  Name = 
  27 active torsions:
  status: ('A' for Active; 'I' for Inactive)
    1  A    between atoms: C_5  and  C_20
    2  A    between atoms: C_5  and  N_47
    3  A    between atoms: C_6  and  N_7
    4  A    between atoms: C_6  and  C_23
    5  A    between atoms: O_10  and  O_52
    6  A    between atoms: O_10  and  C_60
    7  A    between atoms: C_11  and  C_56
    8  A    between atoms: C_16  and  C_24
    9  A    between atoms: C_16  and  O_44
   10  A    between atoms: C_18  and  C_29
   11  A    between atoms: C_20  and  C_35
   12  A    between atoms: C_22  and  N_37
   13  A    between atoms: C_22  and  C_40
   14  A    between atoms: C_23  and  C_40
   15  A    between atoms: C_24  and  N_36
   16  A    between atoms: C_24  and  C_54
   17  A    between atoms: C_31  and  C_56
   18  A    between atoms: C_32  and  C_33
   19  A    between atoms: C_34  and  N_37
   20  A    between atoms: C_34  and  C_57
   21  A    between atoms: O_42  and  C_56
   22  A    between atoms: O_42  and  C_62
   23  A    between atoms: O_44  and  P_65
   24  A    between atoms: N_46  and  C_60
   25  A    between atoms: C_50  and  C_67
   26  A    between atoms: O_52  and  C_63
   27  A    between atoms: C_57  and  C_63
                            x       y       z     vdW  Elec       q    Type
                         _______ _______ _______ _____ _____    ______ ____

>  <TORSDO>
F 27

$$$$
=
 OpenBabel11042411503D

 68 73  0  0  1  0  0  0  0  0999 V2000
  187.6360  174.3050  137.7240 C   0  0  0  0  0  1  0  0  0  0  0  0
  187.6510  172.9240  135.5370 C   0  0  1  0  0  3  0  0  0  0  0  0
  186.8360  173.4550  136.7360 C   0  0  2  0  0  3  0  0  0  0  0  0
  186.6870  174.0950  135.3600 C   0  0  1  0  0  0  0  0  0  0  0  0
  187.2150  175.3970  135.2610 O   0  0  0  0  0  0  0  0  0  0  0  0
  186.1810  176.2110  135.3400 O   0  0  0  0  0  0  0  0  0  0  0  0
  186.7380  177.4780  135.5220 C   0  0  0  0  0  2  0  0  0  0  0  0
  189.3790  177.4280  138.0450 C   0  0  0  0  0  0  0  0  0  0  0  0
  188.1150  177.5370  137.6760 C   0  0  0  0  0  0  0  0  0  0  0  0
  187.9750  177.3640  136.2770 N   0  0  0  0  0  0  0  0  0  0  0  0
  189.2790  177.1620  135.6730 C   0  0  0  0  0  3  0  0  0  0  0  0
  190.2610  177.2270  136.8500 C   0  0  0  0  0  3  0  0  0  0  0  0
  189.1130  176.7040  140.3910 C   0  0  2  0  0  3  0  0  0  0  0  0
  188.8900  177.4610  141.7040 C   0  0  0  0  0  2  0  0  0  0  0  0
  190.5570  176.3790  139.9730 C   0  0  1  0  0  3  0  0  0  0  0  0
  189.8740  177.6280  139.4460 C   0  0  1  0  0  3  0  0  0  0  0  0
  191.3160  177.6320  142.1350 C   0  0  0  0  0  2  0  0  0  0  0  0
  189.9850  177.2200  142.7350 C   0  0  1  0  0  3  0  0  0  0  0  0
  191.6700  176.6710  141.0050 C   0  0  2  0  0  3  0  0  0  0  0  0
  194.0360  177.5780  141.0940 N   0  0  0  0  0  1  0  0  0  0  0  0
  193.0330  177.0090  139.0790 O   0  0  0  0  0  0  0  0  0  0  0  0
  192.9370  177.0870  140.3310 C   0  0  0  0  0  0  0  0  0  0  0  0
  189.3690  179.2530  143.8290 O   0  0  0  0  0  1  0  0  0  0  0  0
  189.6900  177.9140  144.0830 C   0  0  2  0  0  0  0  0  0  0  0  0
  190.9150  177.8710  145.0180 C   0  0  2  0  0  3  0  0  0  0  0  0
  191.9600  178.6190  144.5050 F   0  0  0  0  0  0  0  0  0  0  0  0
  191.3970  176.4470  145.2490 C   0  0  0  0  0  1  0  0  0  0  0  0
  188.5860  177.2800  144.7390 O   0  0  0  0  0  0  0  0  0  0  0  0
  186.7880  178.2820  146.2180 C   0  0  0  0  0  1  0  0  0  0  0  0
  186.5830  177.9860  143.8740 O   0  0  0  0  0  0  0  0  0  0  0  0
  187.3080  177.8380  144.8900 C   0  0  0  0  0  0  0  0  0  0  0  0
  185.6970  178.0280  137.8100 C   0  0  0  0  0  1  0  0  0  0  0  0
  186.9680  177.8000  138.6030 C   0  0  0  0  0  2  0  0  0  0  0  0
  185.3360  173.8110  134.7200 C   0  0  0  0  0  2  0  0  0  0  0  0
  184.3160  173.4090  135.7700 C   0  0  0  0  0  2  0  0  0  0  0  0
  183.7730  174.5950  136.4090 N   0  0  0  0  0  2  0  0  0  0  0  0
  182.3320  174.5570  136.2290 C   0  0  0  0  0  2  0  0  0  0  0  0
  181.8210  175.9310  135.8270 C   0  0  0  0  0  2  0  0  0  0  0  0
  180.3020  175.9790  135.8590 C   0  0  2  0  0  3  0  0  0  0  0  0
  179.8260  176.7900  134.8260 O   0  0  0  0  0  1  0  0  0  0  0  0
  179.8490  176.5420  137.1950 C   0  0  0  0  0  2  0  0  0  0  0  0
  180.6210  177.7320  137.5280 N   0  0  0  0  0  0  0  0  0  0  0  0
  180.4230  181.1380  139.7350 C   0  0  0  0  0  1  0  0  0  0  0  0
  181.0580  180.2790  138.6550 C   0  0  1  0  0  3  0  0  0  0  0  0
  181.7440  179.0790  139.2600 C   0  0  0  0  0  0  0  0  0  0  0  0
  179.9700  179.8440  137.6550 C   0  0  0  0  0  2  0  0  0  0  0  0
  181.9400  176.7040  139.1830 O   0  0  0  0  0  0  0  0  0  0  0  0
  182.5500  179.2090  140.2200 O   0  0  0  0  0  0  0  0  0  0  0  0
  181.4780  177.7620  138.6750 C   0  0  0  0  0  0  0  0  0  0  0  0
  180.4870  178.8660  136.7830 O   0  0  0  0  0  0  0  0  0  0  0  0
  189.1180  173.3620  135.4970 C   0  0  0  0  0  2  0  0  0  0  0  0
  190.0050  172.1750  135.1570 C   0  0  0  0  0  2  0  0  0  0  0  0
  191.4240  173.3770  137.3270 O   0  0  0  0  0  0  0  0  0  0  0  0
  191.3990  172.5890  135.1300 N   0  0  0  0  0  2  0  0  0  0  0  0
  192.0750  173.0800  136.2900 C   0  0  0  0  0  0  0  0  0  0  0  0
  193.5680  173.2150  136.2970 C   0  0  2  0  0  3  0  0  0  0  0  0
  194.2910  170.8380  136.8200 C   0  0  0  0  0  0  0  0  0  0  0  0
  195.1510  171.7590  134.8490 C   0  0  0  0  0  3  0  0  0  0  0  0
  195.1860  169.7740  136.3280 C   0  0  0  0  0  2  0  0  0  0  0  0
  194.2370  171.9570  135.9620 N   0  0  0  0  0  0  0  0  0  0  0  0
  195.7010  170.3350  135.0000 C   0  0  0  0  0  3  0  0  0  0  0  0
  193.6470  170.7680  137.9000 O   0  0  0  0  0  0  0  0  0  0  0  0
  194.0850  173.8020  137.6100 C   0  0  0  0  0  2  0  0  0  0  0  0
  195.2770  173.1800  138.0020 O   0  0  0  0  0  0  0  0  0  0  0  0
  196.8560  174.8240  139.5820 O   0  0  0  0  0  1  0  0  0  0  0  0
  197.9380  173.8540  137.1090 C   0  0  0  0  0  1  0  0  0  0  0  0
  195.8890  175.6190  137.2880 O   0  0  0  0  0  0  0  0  0  0  0  0
  196.4500  174.4040  137.9920 P   0  0  1  0  0  0  0  0  0  0  0  0
  2 51  1  1  0  0  0
  2  3  1  0  0  0  0
  3  1  1  1  0  0  0
  4 34  1  6  0  0  0
  4  2  1  0  0  0  0
  4  3  1  0  0  0  0
  5  6  1  0  0  0  0
  5  4  1  0  0  0  0
  6  7  1  0  0  0  0
  7 10  1  0  0  0  0
  8 16  1  0  0  0  0
  9  8  2  0  0  0  0
  9 33  1  0  0  0  0
 10  9  1  0  0  0  0
 11 10  1  0  0  0  0
 11 12  2  0  0  0  0
 12  8  1  0  0  0  0
 13 14  1  1  0  0  0
 14 18  1  0  0  0  0
 15 13  1  0  0  0  0
 15 19  1  0  0  0  0
 16 15  1  0  0  0  0
 16 13  1  0  0  0  0
 17 18  1  0  0  0  0
 18 24  1  0  0  0  0
 19 17  1  0  0  0  0
 21 22  2  0  0  0  0
 22 19  1  0  0  0  0
 22 20  1  0  0  0  0
 23 24  1  0  0  0  0
 24 28  1  0  0  0  0
 24 25  1  0  0  0  0
 25 27  1  0  0  0  0
 26 25  1  0  0  0  0
 28 31  1  0  0  0  0
 30 31  2  0  0  0  0
 31 29  1  0  0  0  0
 32 33  1  0  0  0  0
 34 35  1  0  0  0  0
 35 36  1  0  0  0  0
 37 36  1  0  0  0  0
 38 39  1  0  0  0  0
 38 37  1  0  0  0  0
 39 41  1  0  0  0  0
 40 39  1  0  0  0  0
 41 42  1  0  0  0  0
 42 49  1  0  0  0  0
 44 45  1  0  0  0  0
 44 43  1  0  0  0  0
 45 48  2  0  0  0  0
 46 44  1  0  0  0  0
 49 47  2  0  0  0  0
 49 45  1  0  0  0  0
 50 42  1  0  0  0  0
 50 46  1  0  0  0  0
 52 51  1  0  0  0  0
 54 52  1  0  0  0  0
 54 55  1  0  0  0  0
 55 56  1  0  0  0  0
 55 53  2  0  0  0  0
 56 63  1  0  0  0  0
 57 62  2  0  0  0  0
 58 61  2  0  0  0  0
 58 60  1  0  0  0  0
 59 57  1  0  0  0  0
 60 56  1  0  0  0  0
 60 57  1  0  0  0  0
 61 59  1  0  0  0  0
 63 64  1  0  0  0  0
 66 68  1  0  0  0  0
 67 68  2  0  0  0  0
 68 64  1  0  0  0  0
 68 65  1  0  0  0  0
M  END
>  <MODEL>
6

>  <REMARK>
 VINA RESULT:      -2.0      2.970      8.313
  Name = 
  27 active torsions:
  status: ('A' for Active; 'I' for Inactive)
    1  A    between atoms: C_5  and  C_20
    2  A    between atoms: C_5  and  N_47
    3  A    between atoms: C_6  and  N_7
    4  A    between atoms: C_6  and  C_23
    5  A    between atoms: O_10  and  O_52
    6  A    between atoms: O_10  and  C_60
    7  A    between atoms: C_11  and  C_56
    8  A    between atoms: C_16  and  C_24
    9  A    between atoms: C_16  and  O_44
   10  A    between atoms: C_18  and  C_29
   11  A    between atoms: C_20  and  C_35
   12  A    between atoms: C_22  and  N_37
   13  A    between atoms: C_22  and  C_40
   14  A    between atoms: C_23  and  C_40
   15  A    between atoms: C_24  and  N_36
   16  A    between atoms: C_24  and  C_54
   17  A    between atoms: C_31  and  C_56
   18  A    between atoms: C_32  and  C_33
   19  A    between atoms: C_34  and  N_37
   20  A    between atoms: C_34  and  C_57
   21  A    between atoms: O_42  and  C_56
   22  A    between atoms: O_42  and  C_62
   23  A    between atoms: O_44  and  P_65
   24  A    between atoms: N_46  and  C_60
   25  A    between atoms: C_50  and  C_67
   26  A    between atoms: O_52  and  C_63
   27  A    between atoms: C_57  and  C_63
                            x       y       z     vdW  Elec       q    Type
                         _______ _______ _______ _____ _____    ______ ____

>  <TORSDO>
F 27

$$$$
