=
 OpenBabel11042411013D

 29 35  0  0  1  0  0  0  0  0999 V2000
  188.3670  176.7500  143.1100 C   0  0  0  0  0  3  0  0  0  0  0  0
  185.5310  178.6930  138.9510 N   0  0  0  0  0  0  0  0  0  0  0  0
  183.1340  178.1970  139.1320 C   0  0  0  0  0  0  0  0  0  0  0  0
  181.5250  176.8590  139.7180 O   0  0  0  0  0  0  0  0  0  0  0  0
  184.2660  178.9950  139.6360 C   0  0  1  0  0  3  0  0  0  0  0  0
  189.8780  177.5150  140.3120 C   0  0  1  0  0  3  0  0  0  0  0  0
  181.3480  177.1870  138.4430 C   0  0  0  0  0  3  0  0  0  0  0  0
  189.3510  175.7000  143.0660 N   0  0  0  0  0  0  0  0  0  0  0  0
  186.6410  178.6300  139.6340 C   0  0  0  0  0  0  0  0  0  0  0  0
  188.7700  177.7150  142.2970 C   0  0  1  0  0  3  0  0  0  0  0  0
  188.6870  178.3720  140.1380 C   0  0  2  0  0  3  0  0  0  0  0  0
  189.9120  177.2000  141.6090 C   0  0  1  0  0  3  0  0  0  0  0  0
  185.5870  178.5680  141.8150 C   0  0  0  0  0  0  0  0  0  0  0  0
  184.3110  178.4660  141.0680 C   0  0  2  0  0  3  0  0  0  0  0  0
  183.3310  177.5880  141.3520 C   0  0  0  0  0  2  0  0  0  0  0  0
  182.3520  178.0720  138.0090 C   0  0  0  0  0  3  0  0  0  0  0  0
  190.2290  175.9400  142.1720 N   0  0  0  0  0  2  0  0  0  0  0  0
  188.0260  178.5100  141.3330 C   0  0  1  0  0  3  0  0  0  0  0  0
  182.5920  177.4910  140.1110 C   0  0  0  0  0  0  0  0  0  0  0  0
  186.6850  178.6400  141.0320 C   0  0  0  0  0  0  0  0  0  0  0  0
  187.8510  178.4000  139.0760 N   0  0  0  0  0  2  0  0  0  0  0  0
  186.0280  177.4290  144.0070 C   0  0  0  0  0  3  0  0  0  0  0  0
  185.6370  178.5750  143.2980 C   0  0  0  0  0  0  0  0  0  0  0  0
  185.2770  179.7210  145.4150 C   0  0  0  0  0  3  0  0  0  0  0  0
  185.6810  178.5770  146.1080 C   0  0  0  0  0  3  0  0  0  0  0  0
  185.2510  179.7180  144.0170 C   0  0  0  0  0  3  0  0  0  0  0  0
  186.0550  177.4300  145.4040 C   0  0  0  0  0  3  0  0  0  0  0  0
  191.9260  176.8950  139.1300 C   0  0  0  0  0  2  0  0  0  0  0  0
  190.6110  176.7920  139.2640 C   0  0  0  0  0  3  0  0  0  0  0  0
  2  9  2  0  0  0  0
  3  5  1  0  0  0  0
  3 19  2  0  0  0  0
  4 19  1  0  0  0  0
  5  2  1  6  0  0  0
  5 14  1  0  0  0  0
  6 29  1  6  0  0  0
  6 12  1  0  0  0  0
  7  4  1  0  0  0  0
  8  1  2  0  0  0  0
  9 20  1  0  0  0  0
 10  1  1  6  0  0  0
 11 21  1  6  0  0  0
 11  6  1  0  0  0  0
 11 18  1  0  0  0  0
 12 17  1  6  0  0  0
 12 10  1  0  0  0  0
 13 23  1  0  0  0  0
 14 15  1  6  0  0  0
 14 13  1  0  0  0  0
 16  7  2  0  0  0  0
 16  3  1  0  0  0  0
 17  8  1  0  0  0  0
 18 20  1  6  0  0  0
 18 10  1  0  0  0  0
 19 15  1  0  0  0  0
 20 13  2  0  0  0  0
 21  9  1  0  0  0  0
 22 27  1  0  0  0  0
 23 22  2  0  0  0  0
 23 26  1  0  0  0  0
 24 25  1  0  0  0  0
 26 24  2  0  0  0  0
 27 25  2  0  0  0  0
 28 29  2  0  0  0  0
M  END
>  <MODEL>
1

>  <REMARK>
 VINA RESULT:      -8.8      0.000      0.000
  Name = 
  2 active torsions:
  status: ('A' for Active; 'I' for Inactive)
    1  A    between atoms: C_7  and  C_27
    2  A    between atoms: C_11  and  C_18
                            x       y       z     vdW  Elec       q    Type
                         _______ _______ _______ _____ _____    ______ ____

>  <TORSDO>
F 2

$$$$
=
 OpenBabel11042411013D

 29 35  0  0  1  0  0  0  0  0999 V2000
  187.1480  177.1040  143.2190 C   0  0  0  0  0  3  0  0  0  0  0  0
  185.4750  178.5270  138.2890 N   0  0  0  0  0  0  0  0  0  0  0  0
  183.1050  178.0070  137.9130 C   0  0  0  0  0  0  0  0  0  0  0  0
  181.3880  176.7110  138.2170 O   0  0  0  0  0  0  0  0  0  0  0  0
  184.0810  178.8770  138.5950 C   0  0  1  0  0  3  0  0  0  0  0  0
  189.3240  177.5880  140.8260 C   0  0  1  0  0  3  0  0  0  0  0  0
  181.5430  176.8940  136.9110 C   0  0  0  0  0  3  0  0  0  0  0  0
  188.1000  176.0750  143.5410 N   0  0  0  0  0  0  0  0  0  0  0  0
  186.3740  178.5590  139.2340 C   0  0  0  0  0  0  0  0  0  0  0  0
  187.7520  177.9820  142.4320 C   0  0  1  0  0  3  0  0  0  0  0  0
  188.2240  178.3980  140.2630 C   0  0  2  0  0  3  0  0  0  0  0  0
  189.0260  177.4160  142.1170 C   0  0  1  0  0  3  0  0  0  0  0  0
  184.8020  178.7160  141.0710 C   0  0  0  0  0  0  0  0  0  0  0  0
  183.7560  178.5080  140.0420 C   0  0  2  0  0  3  0  0  0  0  0  0
  182.7290  177.6480  140.1640 C   0  0  0  0  0  2  0  0  0  0  0  0
  182.6330  177.7450  136.6500 C   0  0  0  0  0  3  0  0  0  0  0  0
  189.1780  176.2320  142.8770 N   0  0  0  0  0  2  0  0  0  0  0  0
  187.2830  178.6520  141.2300 C   0  0  1  0  0  3  0  0  0  0  0  0
  182.3260  177.4020  138.7950 C   0  0  0  0  0  0  0  0  0  0  0  0
  186.0640  178.7230  140.5870 C   0  0  0  0  0  0  0  0  0  0  0  0
  187.6850  178.2940  139.0290 N   0  0  0  0  0  2  0  0  0  0  0  0
  183.3700  178.2320  143.0740 C   0  0  0  0  0  3  0  0  0  0  0  0
  184.4760  178.8860  142.5090 C   0  0  0  0  0  0  0  0  0  0  0  0
  184.9270  179.9190  144.6660 C   0  0  0  0  0  3  0  0  0  0  0  0
  183.8320  179.2510  145.2190 C   0  0  0  0  0  3  0  0  0  0  0  0
  185.2450  179.7400  143.3160 C   0  0  0  0  0  3  0  0  0  0  0  0
  183.0520  178.4100  144.4230 C   0  0  0  0  0  3  0  0  0  0  0  0
  191.5390  177.1710  139.8780 C   0  0  0  0  0  2  0  0  0  0  0  0
  190.2930  176.7690  140.0840 C   0  0  0  0  0  3  0  0  0  0  0  0
  1  8  2  0  0  0  0
  2  5  1  0  0  0  0
  2  9  2  0  0  0  0
  3 19  2  0  0  0  0
  4 19  1  0  0  0  0
  5  3  1  6  0  0  0
  5 14  1  0  0  0  0
  6 29  1  6  0  0  0
  6 12  1  0  0  0  0
  7  4  1  0  0  0  0
  9 20  1  0  0  0  0
 10  1  1  6  0  0  0
 11 21  1  6  0  0  0
 11  6  1  0  0  0  0
 11 18  1  0  0  0  0
 12 10  1  0  0  0  0
 12 17  1  6  0  0  0
 13 23  1  0  0  0  0
 14 15  1  6  0  0  0
 14 13  1  0  0  0  0
 16  7  2  0  0  0  0
 16  3  1  0  0  0  0
 17  8  1  0  0  0  0
 18 20  1  6  0  0  0
 18 10  1  0  0  0  0
 19 15  1  0  0  0  0
 20 13  2  0  0  0  0
 21  9  1  0  0  0  0
 22 27  1  0  0  0  0
 23 22  2  0  0  0  0
 23 26  1  0  0  0  0
 24 25  1  0  0  0  0
 26 24  2  0  0  0  0
 27 25  2  0  0  0  0
 28 29  2  0  0  0  0
M  END
>  <MODEL>
2

>  <REMARK>
 VINA RESULT:      -8.3      1.102      1.375
  Name = 
  2 active torsions:
  status: ('A' for Active; 'I' for Inactive)
    1  A    between atoms: C_7  and  C_27
    2  A    between atoms: C_11  and  C_18
                            x       y       z     vdW  Elec       q    Type
                         _______ _______ _______ _____ _____    ______ ____

>  <TORSDO>
F 2

$$$$
=
 OpenBabel11042411013D

 29 35  0  0  1  0  0  0  0  0999 V2000
  185.8150  176.1280  137.1070 C   0  0  0  0  0  3  0  0  0  0  0  0
  187.2820  178.7280  141.6020 N   0  0  0  0  0  0  0  0  0  0  0  0
  189.3270  177.8060  142.5970 C   0  0  0  0  0  0  0  0  0  0  0  0
  190.5960  176.1040  143.0640 O   0  0  0  0  0  0  0  0  0  0  0  0
  188.7420  178.5940  141.4980 C   0  0  1  0  0  3  0  0  0  0  0  0
  183.6350  177.9410  138.7360 C   0  0  1  0  0  3  0  0  0  0  0  0
  190.3600  176.7660  144.1900 C   0  0  0  0  0  3  0  0  0  0  0  0
  184.6380  175.3200  136.9240 N   0  0  0  0  0  0  0  0  0  0  0  0
  186.5450  178.6490  140.5290 C   0  0  0  0  0  0  0  0  0  0  0  0
  185.4210  177.3460  137.4460 C   0  0  1  0  0  3  0  0  0  0  0  0
  184.8580  178.5990  139.2390 C   0  0  2  0  0  3  0  0  0  0  0  0
  184.0080  177.2600  137.6500 C   0  0  1  0  0  3  0  0  0  0  0  0
  188.2840  177.7580  139.0960 C   0  0  0  0  0  0  0  0  0  0  0  0
  189.0980  177.6730  140.3310 C   0  0  2  0  0  3  0  0  0  0  0  0
  189.8250  176.5990  140.6910 C   0  0  0  0  0  2  0  0  0  0  0  0
  189.5560  177.8960  143.9500 C   0  0  0  0  0  3  0  0  0  0  0  0
  183.5910  175.9620  137.2720 N   0  0  0  0  0  2  0  0  0  0  0  0
  185.9340  178.2570  138.4560 C   0  0  1  0  0  3  0  0  0  0  0  0
  189.9800  176.7570  142.1220 C   0  0  0  0  0  0  0  0  0  0  0  0
  187.0380  178.2450  139.2840 C   0  0  0  0  0  0  0  0  0  0  0  0
  185.2010  178.8050  140.5300 N   0  0  0  0  0  2  0  0  0  0  0  0
  188.9100  178.2390  136.7140 C   0  0  0  0  0  3  0  0  0  0  0  0
  188.8040  177.3270  137.7740 C   0  0  0  0  0  0  0  0  0  0  0  0
  189.6250  175.5700  136.3030 C   0  0  0  0  0  3  0  0  0  0  0  0
  189.7390  176.4920  135.2600 C   0  0  0  0  0  3  0  0  0  0  0  0
  189.1560  175.9850  137.5530 C   0  0  0  0  0  3  0  0  0  0  0  0
  189.3800  177.8260  135.4640 C   0  0  0  0  0  3  0  0  0  0  0  0
  181.6300  178.6960  139.9160 C   0  0  0  0  0  2  0  0  0  0  0  0
  182.3880  177.7010  139.4760 C   0  0  0  0  0  3  0  0  0  0  0  0
  3 16  1  0  0  0  0
  4  7  1  0  0  0  0
  5  2  1  1  0  0  0
  5  3  1  0  0  0  0
  6 11  1  0  0  0  0
  6 29  1  1  0  0  0
  8  1  2  0  0  0  0
  8 17  1  0  0  0  0
  9 21  1  0  0  0  0
  9  2  2  0  0  0  0
 10  1  1  1  0  0  0
 10 12  1  0  0  0  0
 10 18  1  0  0  0  0
 11 21  1  1  0  0  0
 12 17  1  1  0  0  0
 12  6  1  0  0  0  0
 13 20  2  0  0  0  0
 13 14  1  0  0  0  0
 14 15  1  1  0  0  0
 14  5  1  0  0  0  0
 15 19  1  0  0  0  0
 16  7  2  0  0  0  0
 18 11  1  0  0  0  0
 18 20  1  1  0  0  0
 19  3  2  0  0  0  0
 19  4  1  0  0  0  0
 20  9  1  0  0  0  0
 22 23  1  0  0  0  0
 23 13  1  0  0  0  0
 24 26  1  0  0  0  0
 25 27  1  0  0  0  0
 25 24  2  0  0  0  0
 26 23  2  0  0  0  0
 27 22  2  0  0  0  0
 29 28  2  0  0  0  0
M  END
>  <MODEL>
3

>  <REMARK>
 VINA RESULT:      -8.1      3.010      7.389
  Name = 
  2 active torsions:
  status: ('A' for Active; 'I' for Inactive)
    1  A    between atoms: C_7  and  C_27
    2  A    between atoms: C_11  and  C_18
                            x       y       z     vdW  Elec       q    Type
                         _______ _______ _______ _____ _____    ______ ____

>  <TORSDO>
F 2

$$$$
=
 OpenBabel11042411013D

 29 35  0  0  1  0  0  0  0  0999 V2000
  183.1780  178.6980  143.9470 C   0  0  0  0  0  3  0  0  0  0  0  0
  182.8510  176.8490  138.8870 N   0  0  0  0  0  0  0  0  0  0  0  0
  180.9630  175.3140  138.5660 C   0  0  0  0  0  0  0  0  0  0  0  0
  179.6600  173.7450  139.3160 O   0  0  0  0  0  0  0  0  0  0  0  0
  181.3930  176.7090  138.7710 C   0  0  1  0  0  3  0  0  0  0  0  0
  185.7870  178.8360  141.9810 C   0  0  1  0  0  3  0  0  0  0  0  0
  180.1690  173.3420  138.1580 C   0  0  0  0  0  3  0  0  0  0  0  0
  184.2190  178.4190  144.9000 N   0  0  0  0  0  0  0  0  0  0  0  0
  183.3570  177.6760  139.7610 C   0  0  0  0  0  0  0  0  0  0  0  0
  183.7390  179.2660  142.8900 C   0  0  1  0  0  3  0  0  0  0  0  0
  184.7490  178.7710  140.9320 C   0  0  2  0  0  3  0  0  0  0  0  0
  185.1500  179.1830  143.1020 C   0  0  1  0  0  3  0  0  0  0  0  0
  181.2990  178.0260  140.9920 C   0  0  0  0  0  0  0  0  0  0  0  0
  180.7360  176.9630  140.1270 C   0  0  2  0  0  3  0  0  0  0  0  0
  179.9990  175.9300  140.5730 C   0  0  0  0  0  2  0  0  0  0  0  0
  181.0100  174.3280  137.6100 C   0  0  0  0  0  3  0  0  0  0  0  0
  185.3670  178.6650  144.4010 N   0  0  0  0  0  2  0  0  0  0  0  0
  183.5160  179.0450  141.4700 C   0  0  1  0  0  3  0  0  0  0  0  0
  180.1390  174.9360  139.5300 C   0  0  0  0  0  0  0  0  0  0  0  0
  182.5970  178.3120  140.7480 C   0  0  0  0  0  0  0  0  0  0  0  0
  184.6840  177.8970  139.9030 N   0  0  0  0  0  2  0  0  0  0  0  0
  180.1720  178.0330  143.2340 C   0  0  0  0  0  3  0  0  0  0  0  0
  180.4960  178.7000  142.0430 C   0  0  0  0  0  0  0  0  0  0  0  0
  179.2350  180.6310  142.8190 C   0  0  0  0  0  3  0  0  0  0  0  0
  178.9310  179.9610  144.0060 C   0  0  0  0  0  3  0  0  0  0  0  0
  180.0100  180.0020  141.8400 C   0  0  0  0  0  3  0  0  0  0  0  0
  179.3980  178.6610  144.2130 C   0  0  0  0  0  3  0  0  0  0  0  0
  188.0290  178.5850  141.0370 C   0  0  0  0  0  2  0  0  0  0  0  0
  187.1270  178.2330  141.9420 C   0  0  0  0  0  3  0  0  0  0  0  0
  1  8  2  0  0  0  0
  2  9  2  0  0  0  0
  3 19  2  0  0  0  0
  4 19  1  0  0  0  0
  5  3  1  1  0  0  0
  5  2  1  0  0  0  0
  5 14  1  0  0  0  0
  6 29  1  1  0  0  0
  6 12  1  0  0  0  0
  7  4  1  0  0  0  0
  9 21  1  0  0  0  0
  9 20  1  0  0  0  0
 10 12  1  0  0  0  0
 10  1  1  1  0  0  0
 11 21  1  1  0  0  0
 11 18  1  0  0  0  0
 11  6  1  0  0  0  0
 12 17  1  1  0  0  0
 13 23  1  0  0  0  0
 14 15  1  1  0  0  0
 14 13  1  0  0  0  0
 16  7  2  0  0  0  0
 16  3  1  0  0  0  0
 17  8  1  0  0  0  0
 18 20  1  1  0  0  0
 18 10  1  0  0  0  0
 19 15  1  0  0  0  0
 20 13  2  0  0  0  0
 22 27  1  0  0  0  0
 23 22  2  0  0  0  0
 24 25  1  0  0  0  0
 25 27  2  0  0  0  0
 26 23  1  0  0  0  0
 26 24  2  0  0  0  0
 28 29  2  0  0  0  0
M  END
>  <MODEL>
4

>  <REMARK>
 VINA RESULT:      -7.9      3.103      4.869
  Name = 
  2 active torsions:
  status: ('A' for Active; 'I' for Inactive)
    1  A    between atoms: C_7  and  C_27
    2  A    between atoms: C_11  and  C_18
                            x       y       z     vdW  Elec       q    Type
                         _______ _______ _______ _____ _____    ______ ____

>  <TORSDO>
F 2

$$$$
=
 OpenBabel11042411013D

 29 35  0  0  1  0  0  0  0  0999 V2000
  186.0030  176.2900  137.2290 C   0  0  0  0  0  3  0  0  0  0  0  0
  184.5160  179.0500  141.6210 N   0  0  0  0  0  0  0  0  0  0  0  0
  185.9330  178.5610  143.5650 C   0  0  0  0  0  0  0  0  0  0  0  0
  187.1050  177.1570  144.7370 O   0  0  0  0  0  0  0  0  0  0  0  0
  185.8290  179.2290  142.2550 C   0  0  1  0  0  3  0  0  0  0  0  0
  182.9990  177.5680  137.4210 C   0  0  1  0  0  3  0  0  0  0  0  0
  186.2190  177.7310  145.5430 C   0  0  0  0  0  3  0  0  0  0  0  0
  185.2520  175.2560  136.5670 N   0  0  0  0  0  0  0  0  0  0  0  0
  184.4380  178.8380  140.3360 C   0  0  0  0  0  0  0  0  0  0  0  0
  185.2650  177.3900  137.2250 C   0  0  1  0  0  3  0  0  0  0  0  0
  183.6580  178.4590  138.3980 C   0  0  2  0  0  3  0  0  0  0  0  0
  183.9850  177.0040  136.7200 C   0  0  1  0  0  3  0  0  0  0  0  0
  186.7930  178.3650  140.0190 C   0  0  0  0  0  0  0  0  0  0  0  0
  186.8870  178.4280  141.4960 C   0  0  2  0  0  3  0  0  0  0  0  0
  187.5310  177.5260  142.2580 C   0  0  0  0  0  2  0  0  0  0  0  0
  185.4390  178.6700  144.8430 C   0  0  0  0  0  3  0  0  0  0  0  0
  184.0700  175.6540  136.3020 N   0  0  0  0  0  2  0  0  0  0  0  0
  185.0230  178.3690  138.2730 C   0  0  1  0  0  3  0  0  0  0  0  0
  186.9230  177.6840  143.5620 C   0  0  0  0  0  0  0  0  0  0  0  0
  185.5500  178.5730  139.5310 C   0  0  0  0  0  0  0  0  0  0  0  0
  183.2690  178.7060  139.6680 N   0  0  0  0  0  2  0  0  0  0  0  0
  188.2860  178.9110  138.0770 C   0  0  0  0  0  3  0  0  0  0  0  0
  187.9710  178.0800  139.1630 C   0  0  0  0  0  0  0  0  0  0  0  0
  189.8630  176.6620  138.5830 C   0  0  0  0  0  3  0  0  0  0  0  0
  190.1730  177.5050  137.5140 C   0  0  0  0  0  3  0  0  0  0  0  0
  188.7650  176.9450  139.4010 C   0  0  0  0  0  3  0  0  0  0  0  0
  189.3830  178.6280  137.2590 C   0  0  0  0  0  3  0  0  0  0  0  0
  181.2610  176.1060  138.3290 C   0  0  0  0  0  2  0  0  0  0  0  0
  181.6230  177.0550  137.4770 C   0  0  0  0  0  3  0  0  0  0  0  0
  3 16  1  0  0  0  0
  4  7  1  0  0  0  0
  5  2  1  6  0  0  0
  5  3  1  0  0  0  0
  6 29  1  1  0  0  0
  6 11  1  0  0  0  0
  8  1  2  0  0  0  0
  9  2  2  0  0  0  0
 10  1  1  1  0  0  0
 10 18  1  0  0  0  0
 11 21  1  1  0  0  0
 12 17  1  1  0  0  0
 12 10  1  0  0  0  0
 12  6  1  0  0  0  0
 13 14  1  0  0  0  0
 14  5  1  0  0  0  0
 14 15  1  1  0  0  0
 15 19  1  0  0  0  0
 16  7  2  0  0  0  0
 17  8  1  0  0  0  0
 18 11  1  0  0  0  0
 18 20  1  1  0  0  0
 19  3  2  0  0  0  0
 19  4  1  0  0  0  0
 20 13  2  0  0  0  0
 20  9  1  0  0  0  0
 21  9  1  0  0  0  0
 22 23  1  0  0  0  0
 23 26  2  0  0  0  0
 23 13  1  0  0  0  0
 24 26  1  0  0  0  0
 25 24  2  0  0  0  0
 27 25  1  0  0  0  0
 27 22  2  0  0  0  0
 29 28  2  0  0  0  0
M  END
>  <MODEL>
5

>  <REMARK>
 VINA RESULT:      -7.7      2.628      6.571
  Name = 
  2 active torsions:
  status: ('A' for Active; 'I' for Inactive)
    1  A    between atoms: C_7  and  C_27
    2  A    between atoms: C_11  and  C_18
                            x       y       z     vdW  Elec       q    Type
                         _______ _______ _______ _____ _____    ______ ____

>  <TORSDO>
F 2

$$$$
=
 OpenBabel11042411013D

 29 35  0  0  1  0  0  0  0  0999 V2000
  185.7650  178.3730  141.0220 C   0  0  0  0  0  3  0  0  0  0  0  0
  180.6920  180.1150  141.6150 N   0  0  0  0  0  0  0  0  0  0  0  0
  179.8920  181.3640  139.6600 C   0  0  0  0  0  0  0  0  0  0  0  0
  180.2650  182.7400  138.0190 O   0  0  0  0  0  0  0  0  0  0  0  0
  180.2440  180.0460  140.2170 C   0  0  1  0  0  3  0  0  0  0  0  0
  184.4460  178.5900  144.0070 C   0  0  1  0  0  3  0  0  0  0  0  0
  179.2350  183.2010  138.7200 C   0  0  0  0  0  3  0  0  0  0  0  0
  186.9170  178.8050  141.7700 N   0  0  0  0  0  0  0  0  0  0  0  0
  181.6900  179.3750  142.0140 C   0  0  0  0  0  0  0  0  0  0  0  0
  184.8860  177.8820  141.8820 C   0  0  1  0  0  3  0  0  0  0  0  0
  183.1880  178.4980  143.2370 C   0  0  2  0  0  3  0  0  0  0  0  0
  185.4070  178.1650  143.1830 C   0  0  1  0  0  3  0  0  0  0  0  0
  182.4380  178.7470  139.7960 C   0  0  0  0  0  0  0  0  0  0  0  0
  181.4260  179.7130  139.3070 C   0  0  2  0  0  3  0  0  0  0  0  0
  181.6520  180.6350  138.3540 C   0  0  0  0  0  2  0  0  0  0  0  0
  178.9310  182.3390  139.7900 C   0  0  0  0  0  3  0  0  0  0  0  0
  186.7000  178.7190  143.0240 N   0  0  0  0  0  2  0  0  0  0  0  0
  183.4450  178.0570  141.9630 C   0  0  1  0  0  3  0  0  0  0  0  0
  180.6280  181.6300  138.5930 C   0  0  0  0  0  0  0  0  0  0  0  0
  182.5050  178.6470  141.1420 C   0  0  0  0  0  0  0  0  0  0  0  0
  182.1360  179.3460  143.2910 N   0  0  0  0  0  2  0  0  0  0  0  0
  183.0380  176.6270  138.5950 C   0  0  0  0  0  3  0  0  0  0  0  0
  183.3070  177.9760  138.8740 C   0  0  0  0  0  0  0  0  0  0  0  0
  185.2730  177.8440  137.4450 C   0  0  0  0  0  3  0  0  0  0  0  0
  184.9860  176.5060  137.1660 C   0  0  0  0  0  3  0  0  0  0  0  0
  184.4400  178.5740  138.2980 C   0  0  0  0  0  3  0  0  0  0  0  0
  183.8690  175.8970  137.7430 C   0  0  0  0  0  3  0  0  0  0  0  0
  185.3160  178.8690  146.2750 C   0  0  0  0  0  2  0  0  0  0  0  0
  184.6860  179.3760  145.2250 C   0  0  0  0  0  3  0  0  0  0  0  0
  1  8  2  0  0  0  0
  2  9  2  0  0  0  0
  3 16  1  0  0  0  0
  4 19  1  0  0  0  0
  4  7  1  0  0  0  0
  5  3  1  6  0  0  0
  5  2  1  0  0  0  0
  6 29  1  6  0  0  0
  7 16  2  0  0  0  0
  8 17  1  0  0  0  0
  9 21  1  0  0  0  0
 10  1  1  6  0  0  0
 10 18  1  0  0  0  0
 10 12  1  0  0  0  0
 11 21  1  6  0  0  0
 11  6  1  0  0  0  0
 12 17  1  6  0  0  0
 12  6  1  0  0  0  0
 13 20  2  0  0  0  0
 14 15  1  1  0  0  0
 14 13  1  0  0  0  0
 14  5  1  0  0  0  0
 15 19  1  0  0  0  0
 18 20  1  6  0  0  0
 18 11  1  0  0  0  0
 19  3  2  0  0  0  0
 20  9  1  0  0  0  0
 22 23  1  0  0  0  0
 23 13  1  0  0  0  0
 24 26  1  0  0  0  0
 25 24  2  0  0  0  0
 25 27  1  0  0  0  0
 26 23  2  0  0  0  0
 27 22  2  0  0  0  0
 29 28  2  0  0  0  0
M  END
>  <MODEL>
6

>  <REMARK>
 VINA RESULT:      -7.6      3.242      6.000
  Name = 
  2 active torsions:
  status: ('A' for Active; 'I' for Inactive)
    1  A    between atoms: C_7  and  C_27
    2  A    between atoms: C_11  and  C_18
                            x       y       z     vdW  Elec       q    Type
                         _______ _______ _______ _____ _____    ______ ____

>  <TORSDO>
F 2

$$$$
=
 OpenBabel11042411013D

 29 35  0  0  1  0  0  0  0  0999 V2000
  184.1770  178.3160  141.9050 C   0  0  0  0  0  3  0  0  0  0  0  0
  186.7140  177.1640  137.2840 N   0  0  0  0  0  0  0  0  0  0  0  0
  185.3680  175.7470  135.7990 C   0  0  0  0  0  0  0  0  0  0  0  0
  183.9370  174.1360  135.5170 O   0  0  0  0  0  0  0  0  0  0  0  0
  185.5570  177.0880  136.3810 C   0  0  1  0  0  3  0  0  0  0  0  0
  187.4250  178.6280  141.6980 C   0  0  1  0  0  3  0  0  0  0  0  0
  185.0080  173.8730  134.7770 C   0  0  0  0  0  3  0  0  0  0  0  0
  184.5500  177.8800  143.2240 N   0  0  0  0  0  0  0  0  0  0  0  0
  186.6310  177.8510  138.3890 C   0  0  0  0  0  0  0  0  0  0  0  0
  185.1940  179.0010  141.4020 C   0  0  1  0  0  3  0  0  0  0  0  0
  187.1220  178.7360  140.2560 C   0  0  2  0  0  3  0  0  0  0  0  0
  186.2700  178.8450  142.3300 C   0  0  1  0  0  3  0  0  0  0  0  0
  184.2210  178.1030  138.3460 C   0  0  0  0  0  0  0  0  0  0  0  0
  184.2620  177.1820  137.1850 C   0  0  2  0  0  3  0  0  0  0  0  0
  183.4470  176.1230  137.0250 C   0  0  0  0  0  2  0  0  0  0  0  0
  185.9670  174.8950  134.9020 C   0  0  0  0  0  3  0  0  0  0  0  0
  185.7740  178.1530  143.4610 N   0  0  0  0  0  2  0  0  0  0  0  0
  185.7820  178.9770  140.0730 C   0  0  1  0  0  3  0  0  0  0  0  0
  184.1720  175.2720  136.1060 C   0  0  0  0  0  0  0  0  0  0  0  0
  185.4310  178.3760  138.8810 C   0  0  0  0  0  0  0  0  0  0  0  0
  187.6600  178.0080  139.2530 N   0  0  0  0  0  2  0  0  0  0  0  0
  182.0090  177.8240  139.4980 C   0  0  0  0  0  3  0  0  0  0  0  0
  182.9490  178.6570  138.8720 C   0  0  0  0  0  0  0  0  0  0  0  0
  181.4410  180.5410  139.1870 C   0  0  0  0  0  3  0  0  0  0  0  0
  180.5200  179.7040  139.8200 C   0  0  0  0  0  3  0  0  0  0  0  0
  182.6480  180.0200  138.7120 C   0  0  0  0  0  3  0  0  0  0  0  0
  180.8030  178.3450  139.9740 C   0  0  0  0  0  3  0  0  0  0  0  0
  188.6830  176.6790  142.4710 C   0  0  0  0  0  2  0  0  0  0  0  0
  188.5990  177.9920  142.3120 C   0  0  0  0  0  3  0  0  0  0  0  0
  1  8  2  0  0  0  0
  2  9  2  0  0  0  0
  3 19  2  0  0  0  0
  4 19  1  0  0  0  0
  5  3  1  1  0  0  0
  5 14  1  0  0  0  0
  5  2  1  0  0  0  0
  6 29  1  6  0  0  0
  6 12  1  0  0  0  0
  7 16  2  0  0  0  0
  7  4  1  0  0  0  0
  8 17  1  0  0  0  0
  9 20  1  0  0  0  0
  9 21  1  0  0  0  0
 10  1  1  6  0  0  0
 10 12  1  0  0  0  0
 11 21  1  6  0  0  0
 11  6  1  0  0  0  0
 12 17  1  1  0  0  0
 13 23  1  0  0  0  0
 13 20  2  0  0  0  0
 14 15  1  1  0  0  0
 14 13  1  0  0  0  0
 16  3  1  0  0  0  0
 18 20  1  6  0  0  0
 18 11  1  0  0  0  0
 18 10  1  0  0  0  0
 19 15  1  0  0  0  0
 22 27  1  0  0  0  0
 23 22  2  0  0  0  0
 24 25  1  0  0  0  0
 25 27  2  0  0  0  0
 26 23  1  0  0  0  0
 26 24  2  0  0  0  0
 29 28  2  0  0  0  0
M  END
>  <MODEL>
7

>  <REMARK>
 VINA RESULT:      -7.0      2.877      4.808
  Name = 
  2 active torsions:
  status: ('A' for Active; 'I' for Inactive)
    1  A    between atoms: C_7  and  C_27
    2  A    between atoms: C_11  and  C_18
                            x       y       z     vdW  Elec       q    Type
                         _______ _______ _______ _____ _____    ______ ____

>  <TORSDO>
F 2

$$$$
=
 OpenBabel11042411013D

 29 35  0  0  1  0  0  0  0  0999 V2000
  182.3000  176.1930  138.7990 C   0  0  0  0  0  3  0  0  0  0  0  0
  187.1190  178.6140  138.9910 N   0  0  0  0  0  0  0  0  0  0  0  0
  188.9200  177.1950  138.1160 C   0  0  0  0  0  0  0  0  0  0  0  0
  189.8190  175.2330  137.8580 O   0  0  0  0  0  0  0  0  0  0  0  0
  187.7400  178.0190  137.7990 C   0  0  1  0  0  3  0  0  0  0  0  0
  182.7730  178.7440  140.7900 C   0  0  1  0  0  3  0  0  0  0  0  0
  190.7290  176.0380  138.3930 C   0  0  0  0  0  3  0  0  0  0  0  0
  181.4970  175.7820  139.9200 N   0  0  0  0  0  0  0  0  0  0  0  0
  185.8190  178.6690  139.0870 C   0  0  0  0  0  0  0  0  0  0  0  0
  182.4930  177.5000  138.8980 C   0  0  1  0  0  3  0  0  0  0  0  0
  183.8650  179.0290  139.8370 C   0  0  2  0  0  3  0  0  0  0  0  0
  181.9640  177.8810  140.1700 C   0  0  1  0  0  3  0  0  0  0  0  0
  185.3690  177.1470  137.2560 C   0  0  0  0  0  0  0  0  0  0  0  0
  186.8350  176.9270  137.2300 C   0  0  2  0  0  3  0  0  0  0  0  0
  187.4220  175.7190  137.1600 C   0  0  0  0  0  2  0  0  0  0  0  0
  190.2110  177.3350  138.5670 C   0  0  0  0  0  3  0  0  0  0  0  0
  181.3300  176.7490  140.7360 N   0  0  0  0  0  2  0  0  0  0  0  0
  183.6920  178.2950  138.6880 C   0  0  1  0  0  3  0  0  0  0  0  0
  188.7500  175.9550  137.6870 C   0  0  0  0  0  0  0  0  0  0  0  0
  184.9540  178.0160  138.2040 C   0  0  0  0  0  0  0  0  0  0  0  0
  185.1680  179.2370  140.1280 N   0  0  0  0  0  2  0  0  0  0  0  0
  183.6010  177.1820  135.4750 C   0  0  0  0  0  3  0  0  0  0  0  0
  184.4490  176.4520  136.3220 C   0  0  0  0  0  0  0  0  0  0  0  0
  183.4990  174.3910  135.4420 C   0  0  0  0  0  3  0  0  0  0  0  0
  182.6700  175.1300  134.5940 C   0  0  0  0  0  3  0  0  0  0  0  0
  184.3810  175.0490  136.3050 C   0  0  0  0  0  3  0  0  0  0  0  0
  182.7200  176.5250  134.6130 C   0  0  0  0  0  3  0  0  0  0  0  0
  183.6320  178.3610  143.0480 C   0  0  0  0  0  2  0  0  0  0  0  0
  182.7790  178.9780  142.2410 C   0  0  0  0  0  3  0  0  0  0  0  0
  1  8  2  0  0  0  0
  2  9  2  0  0  0  0
  3 16  1  0  0  0  0
  4  7  1  0  0  0  0
  5  3  1  1  0  0  0
  5  2  1  0  0  0  0
  6 29  1  1  0  0  0
  7 16  2  0  0  0  0
  8 17  1  0  0  0  0
  9 21  1  0  0  0  0
 10  1  1  1  0  0  0
 10 12  1  0  0  0  0
 11 21  1  1  0  0  0
 11  6  1  0  0  0  0
 12 17  1  1  0  0  0
 12  6  1  0  0  0  0
 13 20  2  0  0  0  0
 14 15  1  1  0  0  0
 14 13  1  0  0  0  0
 14  5  1  0  0  0  0
 15 19  1  0  0  0  0
 18 20  1  1  0  0  0
 18 10  1  0  0  0  0
 18 11  1  0  0  0  0
 19  4  1  0  0  0  0
 19  3  2  0  0  0  0
 20  9  1  0  0  0  0
 22 23  1  0  0  0  0
 23 13  1  0  0  0  0
 24 26  1  0  0  0  0
 25 27  1  0  0  0  0
 25 24  2  0  0  0  0
 26 23  2  0  0  0  0
 27 22  2  0  0  0  0
 29 28  2  0  0  0  0
M  END
>  <MODEL>
8

>  <REMARK>
 VINA RESULT:      -7.0      3.147      7.543
  Name = 
  2 active torsions:
  status: ('A' for Active; 'I' for Inactive)
    1  A    between atoms: C_7  and  C_27
    2  A    between atoms: C_11  and  C_18
                            x       y       z     vdW  Elec       q    Type
                         _______ _______ _______ _____ _____    ______ ____

>  <TORSDO>
F 2

$$$$
=
 OpenBabel11042411013D

 29 35  0  0  1  0  0  0  0  0999 V2000
  187.5660  174.4040  135.8140 C   0  0  0  0  0  3  0  0  0  0  0  0
  187.5540  178.3550  139.4900 N   0  0  0  0  0  0  0  0  0  0  0  0
  189.2400  178.0160  141.2420 C   0  0  0  0  0  0  0  0  0  0  0  0
  190.3660  176.6890  142.5430 O   0  0  0  0  0  0  0  0  0  0  0  0
  188.9820  178.3740  139.8350 C   0  0  1  0  0  3  0  0  0  0  0  0
  184.9460  176.3340  136.1360 C   0  0  1  0  0  3  0  0  0  0  0  0
  189.7860  177.6160  143.2980 C   0  0  0  0  0  3  0  0  0  0  0  0
  186.5220  173.4420  135.5800 N   0  0  0  0  0  0  0  0  0  0  0  0
  187.1700  177.8790  138.3380 C   0  0  0  0  0  0  0  0  0  0  0  0
  187.0520  175.6120  135.6340 C   0  0  1  0  0  3  0  0  0  0  0  0
  185.9440  177.2530  136.7210 C   0  0  2  0  0  3  0  0  0  0  0  0
  185.6460  175.4180  135.4620 C   0  0  1  0  0  3  0  0  0  0  0  0
  189.2830  176.8280  137.7860 C   0  0  0  0  0  0  0  0  0  0  0  0
  189.6970  177.2040  139.1590 C   0  0  2  0  0  3  0  0  0  0  0  0
  190.3170  176.3780  140.0200 C   0  0  0  0  0  2  0  0  0  0  0  0
  189.0540  178.5210  142.5060 C   0  0  0  0  0  3  0  0  0  0  0  0
  185.4000  174.0250  135.4110 N   0  0  0  0  0  2  0  0  0  0  0  0
  187.2130  176.8320  136.4080 C   0  0  1  0  0  3  0  0  0  0  0  0
  190.0360  176.9620  141.3150 C   0  0  0  0  0  0  0  0  0  0  0  0
  188.0230  177.1940  137.4660 C   0  0  0  0  0  0  0  0  0  0  0  0
  185.8820  177.8640  137.9250 N   0  0  0  0  0  2  0  0  0  0  0  0
  190.6990  174.8390  137.2060 C   0  0  0  0  0  3  0  0  0  0  0  0
  190.1840  176.0980  136.8600 C   0  0  0  0  0  0  0  0  0  0  0  0
  191.4370  176.0030  134.7760 C   0  0  0  0  0  3  0  0  0  0  0  0
  191.9320  174.7440  135.1250 C   0  0  0  0  0  3  0  0  0  0  0  0
  190.5710  176.6780  135.6410 C   0  0  0  0  0  3  0  0  0  0  0  0
  191.5640  174.1640  136.3420 C   0  0  0  0  0  3  0  0  0  0  0  0
  182.5500  176.1870  135.6680 C   0  0  0  0  0  2  0  0  0  0  0  0
  183.5440  176.1700  136.5450 C   0  0  0  0  0  3  0  0  0  0  0  0
  3 19  2  0  0  0  0
  3 16  1  0  0  0  0
  4  7  1  0  0  0  0
  5  2  1  1  0  0  0
  5  3  1  0  0  0  0
  6 29  1  1  0  0  0
  6 11  1  0  0  0  0
  8  1  2  0  0  0  0
  9  2  2  0  0  0  0
 10  1  1  1  0  0  0
 10 18  1  0  0  0  0
 11 21  1  1  0  0  0
 12 17  1  1  0  0  0
 12 10  1  0  0  0  0
 12  6  1  0  0  0  0
 13 14  1  0  0  0  0
 14  5  1  0  0  0  0
 14 15  1  1  0  0  0
 15 19  1  0  0  0  0
 16  7  2  0  0  0  0
 17  8  1  0  0  0  0
 18 11  1  0  0  0  0
 18 20  1  1  0  0  0
 19  4  1  0  0  0  0
 20 13  2  0  0  0  0
 20  9  1  0  0  0  0
 21  9  1  0  0  0  0
 23 22  1  0  0  0  0
 23 13  1  0  0  0  0
 24 25  2  0  0  0  0
 24 26  1  0  0  0  0
 25 27  1  0  0  0  0
 26 23  2  0  0  0  0
 27 22  2  0  0  0  0
 28 29  2  0  0  0  0
M  END
>  <MODEL>
9

>  <REMARK>
 VINA RESULT:      -7.0      3.701      7.859
  Name = 
  2 active torsions:
  status: ('A' for Active; 'I' for Inactive)
    1  A    between atoms: C_7  and  C_27
    2  A    between atoms: C_11  and  C_18
                            x       y       z     vdW  Elec       q    Type
                         _______ _______ _______ _____ _____    ______ ____

>  <TORSDO>
F 2

$$$$
