=
 OpenBabel11042409593D

 38 41  0  0  1  0  0  0  0  0999 V2000
  184.1740  178.5800  138.9210 C   0  0  2  0  0  3  0  0  0  0  0  0
  180.0200  181.4760  138.3530 C   0  0  0  0  0  3  0  0  0  0  0  0
  185.6160  178.2830  139.3820 C   0  0  2  0  0  3  0  0  0  0  0  0
  179.0270  179.2820  138.7390 N   0  0  0  0  0  1  0  0  0  0  0  0
  181.6680  178.1280  139.2330 C   0  0  2  0  0  3  0  0  0  0  0  0
  181.1320  182.3120  138.2550 C   0  0  0  0  0  3  0  0  0  0  0  0
  182.5850  180.4490  138.7820 C   0  0  0  0  0  0  0  0  0  0  0  0
  183.8780  179.9660  138.9950 O   0  0  0  0  0  0  0  0  0  0  0  0
  183.5050  178.9880  141.7430 N   0  0  0  0  0  2  0  0  0  0  0  0
  182.4120  181.8000  138.4710 C   0  0  0  0  0  3  0  0  0  0  0  0
  181.4750  179.5870  138.8530 C   0  0  0  0  0  0  0  0  0  0  0  0
  183.2320  177.6740  141.1690 C   0  0  0  0  0  2  0  0  0  0  0  0
  183.0970  177.7450  139.6430 C   0  0  2  0  0  3  0  0  0  0  0  0
  185.9680  178.5370  141.8290 C   0  0  0  0  0  2  0  0  0  0  0  0
  180.1810  180.1180  138.6390 C   0  0  0  0  0  0  0  0  0  0  0  0
  184.6970  178.9340  142.5940 C   0  0  2  0  0  3  0  0  0  0  0  0
  186.1020  179.2320  140.4750 C   0  0  0  0  0  2  0  0  0  0  0  0
  181.1770  177.1830  138.1540 C   0  0  0  0  0  1  0  0  0  0  0  0
  185.9870  177.9340  137.0150 O   0  0  0  0  0  1  0  0  0  0  0  0
  186.6140  178.2570  138.2200 C   0  0  2  0  0  3  0  0  0  0  0  0
  187.7040  177.2410  138.5080 C   0  0  0  0  0  2  0  0  0  0  0  0
  189.0670  177.8510  138.2550 C   0  0  0  0  0  2  0  0  0  0  0  0
  189.7470  178.1450  139.5870 C   0  0  0  0  0  2  0  0  0  0  0  0
  189.2660  177.1780  140.6540 C   0  0  0  0  0  2  0  0  0  0  0  0
  190.3830  176.3890  141.1350 N   0  0  0  0  0  2  0  0  0  0  0  0
  190.1160  176.0510  142.5210 C   0  0  0  0  0  2  0  0  0  0  0  0
  191.7570  177.7500  143.4160 N   0  0  0  0  0  1  0  0  0  0  0  0
  191.2990  176.4040  143.3660 C   0  0  0  0  0  0  0  0  0  0  0  0
  191.8880  175.5110  144.0270 O   0  0  0  0  0  0  0  0  0  0  0  0
  184.5110  177.9700  143.7620 C   0  0  0  0  0  2  0  0  0  0  0  0
  186.0640  179.0460  147.0610 C   0  0  0  0  0  3  0  0  0  0  0  0
  187.6510  177.6390  145.8680 C   0  0  0  0  0  0  0  0  0  0  0  0
  186.7480  177.5450  144.7990 C   0  0  0  0  0  3  0  0  0  0  0  0
  185.1600  178.9240  146.0000 C   0  0  0  0  0  3  0  0  0  0  0  0
  185.5040  178.1810  144.8650 C   0  0  0  0  0  0  0  0  0  0  0  0
  187.3060  178.4110  146.9930 C   0  0  0  0  0  3  0  0  0  0  0  0
  188.8490  176.9200  145.8120 O   0  0  0  0  0  0  0  0  0  0  0  0
  189.8610  177.0230  146.8010 C   0  0  0  0  0  1  0  0  0  0  0  0
  1  8  1  1  0  0  0
  1  3  1  0  0  0  0
  1 13  1  0  0  0  0
  2 15  1  0  0  0  0
  3 20  1  6  0  0  0
  3 17  1  0  0  0  0
  5 18  1  6  0  0  0
  5 13  1  0  0  0  0
  6  2  2  0  0  0  0
  6 10  1  0  0  0  0
  7 11  1  0  0  0  0
  7  8  1  0  0  0  0
  9 16  1  0  0  0  0
 10  7  2  0  0  0  0
 11  5  1  0  0  0  0
 12  9  1  0  0  0  0
 13 12  1  1  0  0  0
 14 16  1  0  0  0  0
 15  4  1  0  0  0  0
 15 11  2  0  0  0  0
 16 30  1  1  0  0  0
 17 14  1  0  0  0  0
 20 19  1  6  0  0  0
 20 21  1  0  0  0  0
 22 21  1  0  0  0  0
 22 23  1  0  0  0  0
 23 24  1  0  0  0  0
 24 25  1  0  0  0  0
 25 26  1  0  0  0  0
 26 28  1  0  0  0  0
 28 27  1  0  0  0  0
 28 29  2  0  0  0  0
 30 35  1  0  0  0  0
 32 36  2  0  0  0  0
 33 35  2  0  0  0  0
 33 32  1  0  0  0  0
 34 31  2  0  0  0  0
 35 34  1  0  0  0  0
 36 31  1  0  0  0  0
 37 32  1  0  0  0  0
 37 38  1  0  0  0  0
M  END
>  <MODEL>
1

>  <REMARK>
 VINA RESULT:      -7.0      0.000      0.000
  Name = 
  11 active torsions:
  status: ('A' for Active; 'I' for Inactive)
    1  A    between atoms: C_3  and  C_20
    2  A    between atoms: C_4  and  C_20
    3  A    between atoms: C_4  and  C_30
    4  A    between atoms: O_5  and  C_7
    5  A    between atoms: C_11  and  N_23
    6  A    between atoms: C_11  and  C_25
    7  A    between atoms: N_23  and  C_34
    8  A    between atoms: C_25  and  C_30
    9  A    between atoms: C_26  and  C_35
   10  A    between atoms: C_29  and  C_35
   11  A    between atoms: C_34  and  C_36
                            x       y       z     vdW  Elec       q    Type
                         _______ _______ _______ _____ _____    ______ ____

>  <TORSDO>
F 11

$$$$
=
 OpenBabel11042409593D

 38 41  0  0  1  0  0  0  0  0999 V2000
  190.4920  177.0330  137.1730 C   0  0  2  0  0  3  0  0  0  0  0  0
  192.2130  172.3790  136.0130 C   0  0  0  0  0  3  0  0  0  0  0  0
  189.4770  178.0430  137.7470 C   0  0  2  0  0  3  0  0  0  0  0  0
  194.2810  173.5180  136.6200 N   0  0  0  0  0  1  0  0  0  0  0  0
  192.7850  175.9060  137.4030 C   0  0  2  0  0  3  0  0  0  0  0  0
  190.8250  172.3630  135.8700 C   0  0  0  0  0  3  0  0  0  0  0  0
  190.7060  174.6300  136.7100 C   0  0  0  0  0  0  0  0  0  0  0  0
  189.9280  175.7370  137.0540 O   0  0  0  0  0  0  0  0  0  0  0  0
  190.7170  175.9350  139.8790 N   0  0  0  0  0  2  0  0  0  0  0  0
  190.0730  173.4840  136.2200 C   0  0  0  0  0  3  0  0  0  0  0  0
  192.1080  174.6720  136.8290 C   0  0  0  0  0  0  0  0  0  0  0  0
  191.7180  176.9130  139.4640 C   0  0  0  0  0  2  0  0  0  0  0  0
  191.8320  176.9850  137.9360 C   0  0  2  0  0  3  0  0  0  0  0  0
  188.9700  177.7090  140.1580 C   0  0  0  0  0  2  0  0  0  0  0  0
  192.8600  173.5270  136.4780 C   0  0  0  0  0  0  0  0  0  0  0  0
  189.7530  176.5520  140.7940 C   0  0  2  0  0  3  0  0  0  0  0  0
  188.4990  177.4110  138.7360 C   0  0  0  0  0  2  0  0  0  0  0  0
  193.7650  176.5300  136.4270 C   0  0  0  0  0  1  0  0  0  0  0  0
  187.5890  179.4450  137.1720 O   0  0  0  0  0  1  0  0  0  0  0  0
  188.7130  178.7990  136.6550 C   0  0  2  0  0  3  0  0  0  0  0  0
  188.2830  177.8290  135.5700 C   0  0  0  0  0  2  0  0  0  0  0  0
  186.7760  177.8500  135.4180 C   0  0  0  0  0  2  0  0  0  0  0  0
  186.2140  176.4720  135.7490 C   0  0  0  0  0  2  0  0  0  0  0  0
  185.5090  176.4940  137.0920 C   0  0  0  0  0  2  0  0  0  0  0  0
  184.6760  177.6770  137.1840 N   0  0  0  0  0  2  0  0  0  0  0  0
  184.1660  177.7490  138.5420 C   0  0  0  0  0  2  0  0  0  0  0  0
  184.1360  180.2380  138.9700 N   0  0  0  0  0  1  0  0  0  0  0  0
  184.7120  178.9630  139.2250 C   0  0  0  0  0  0  0  0  0  0  0  0
  185.6810  178.8550  140.0200 O   0  0  0  0  0  0  0  0  0  0  0  0
  190.4290  177.0610  142.0640 C   0  0  0  0  0  2  0  0  0  0  0  0
  187.2570  177.0050  144.1580 C   0  0  0  0  0  3  0  0  0  0  0  0
  189.1400  177.5430  145.6010 C   0  0  0  0  0  0  0  0  0  0  0  0
  189.9900  177.5090  144.4860 C   0  0  0  0  0  3  0  0  0  0  0  0
  188.1180  176.9470  143.0570 C   0  0  0  0  0  3  0  0  0  0  0  0
  189.4830  177.2070  143.2180 C   0  0  0  0  0  0  0  0  0  0  0  0
  187.7640  177.3080  145.4230 C   0  0  0  0  0  3  0  0  0  0  0  0
  189.6890  177.7590  146.8690 O   0  0  0  0  0  0  0  0  0  0  0  0
  188.9040  178.0620  148.0110 C   0  0  0  0  0  1  0  0  0  0  0  0
  1  8  1  1  0  0  0
  1  3  1  0  0  0  0
  1 13  1  0  0  0  0
  2 15  1  0  0  0  0
  3 20  1  6  0  0  0
  3 17  1  0  0  0  0
  5 18  1  6  0  0  0
  5 13  1  0  0  0  0
  6  2  2  0  0  0  0
  6 10  1  0  0  0  0
  7 11  1  0  0  0  0
  7  8  1  0  0  0  0
  9 16  1  0  0  0  0
 10  7  2  0  0  0  0
 11  5  1  0  0  0  0
 12  9  1  0  0  0  0
 13 12  1  1  0  0  0
 14 16  1  0  0  0  0
 15  4  1  0  0  0  0
 15 11  2  0  0  0  0
 16 30  1  1  0  0  0
 17 14  1  0  0  0  0
 20 19  1  1  0  0  0
 21 20  1  0  0  0  0
 22 21  1  0  0  0  0
 22 23  1  0  0  0  0
 23 24  1  0  0  0  0
 24 25  1  0  0  0  0
 25 26  1  0  0  0  0
 26 28  1  0  0  0  0
 27 28  1  0  0  0  0
 28 29  2  0  0  0  0
 30 35  1  0  0  0  0
 31 36  1  0  0  0  0
 32 37  1  0  0  0  0
 33 32  1  0  0  0  0
 34 35  1  0  0  0  0
 34 31  2  0  0  0  0
 35 33  2  0  0  0  0
 36 32  2  0  0  0  0
 37 38  1  0  0  0  0
M  END
>  <MODEL>
2

>  <REMARK>
 VINA RESULT:      -6.8      3.304      8.138
  Name = 
  11 active torsions:
  status: ('A' for Active; 'I' for Inactive)
    1  A    between atoms: C_3  and  C_20
    2  A    between atoms: C_4  and  C_20
    3  A    between atoms: C_4  and  C_30
    4  A    between atoms: O_5  and  C_7
    5  A    between atoms: C_11  and  N_23
    6  A    between atoms: C_11  and  C_25
    7  A    between atoms: N_23  and  C_34
    8  A    between atoms: C_25  and  C_30
    9  A    between atoms: C_26  and  C_35
   10  A    between atoms: C_29  and  C_35
   11  A    between atoms: C_34  and  C_36
                            x       y       z     vdW  Elec       q    Type
                         _______ _______ _______ _____ _____    ______ ____

>  <TORSDO>
F 11

$$$$
=
 OpenBabel11042409593D

 38 41  0  0  1  0  0  0  0  0999 V2000
  189.8460  176.8490  136.5530 C   0  0  2  0  0  3  0  0  0  0  0  0
  190.6310  171.9510  135.3850 C   0  0  0  0  0  3  0  0  0  0  0  0
  189.1490  178.0140  137.2840 C   0  0  2  0  0  3  0  0  0  0  0  0
  192.9060  172.8290  135.3290 N   0  0  0  0  0  1  0  0  0  0  0  0
  191.9670  175.4340  136.2690 C   0  0  2  0  0  3  0  0  0  0  0  0
  189.2650  172.1150  135.6130 C   0  0  0  0  0  3  0  0  0  0  0  0
  189.6440  174.4180  136.2570 C   0  0  0  0  0  0  0  0  0  0  0  0
  189.1220  175.6360  136.6970 O   0  0  0  0  0  0  0  0  0  0  0  0
  190.6650  175.8700  139.1890 N   0  0  0  0  0  2  0  0  0  0  0  0
  188.7720  173.3450  136.0500 C   0  0  0  0  0  3  0  0  0  0  0  0
  191.0200  174.2760  136.0010 C   0  0  0  0  0  0  0  0  0  0  0  0
  191.6230  176.6810  138.4430 C   0  0  0  0  0  2  0  0  0  0  0  0
  191.3270  176.6580  136.9390 C   0  0  2  0  0  3  0  0  0  0  0  0
  189.2790  177.8770  139.7620 C   0  0  0  0  0  2  0  0  0  0  0  0
  191.5100  173.0220  135.5640 C   0  0  0  0  0  0  0  0  0  0  0  0
  190.0630  176.6580  140.2680 C   0  0  2  0  0  3  0  0  0  0  0  0
  188.4080  177.5730  138.5440 C   0  0  0  0  0  2  0  0  0  0  0  0
  192.7120  175.8690  135.0210 C   0  0  0  0  0  1  0  0  0  0  0  0
  187.1730  179.4000  137.0920 O   0  0  0  0  0  1  0  0  0  0  0  0
  188.2120  178.8100  136.3690 C   0  0  2  0  0  3  0  0  0  0  0  0
  187.6300  177.8900  135.3110 C   0  0  0  0  0  2  0  0  0  0  0  0
  186.1220  177.8350  135.4380 C   0  0  0  0  0  2  0  0  0  0  0  0
  185.7080  176.4760  135.9890 C   0  0  0  0  0  2  0  0  0  0  0  0
  185.1180  176.6240  137.3790 C   0  0  0  0  0  2  0  0  0  0  0  0
  184.1500  177.7030  137.3840 N   0  0  0  0  0  2  0  0  0  0  0  0
  183.7660  177.9410  138.7640 C   0  0  0  0  0  2  0  0  0  0  0  0
  185.5790  178.8910  140.2450 N   0  0  0  0  0  1  0  0  0  0  0  0
  184.5310  179.1070  139.3080 C   0  0  0  0  0  0  0  0  0  0  0  0
  184.2430  180.2740  138.9380 O   0  0  0  0  0  0  0  0  0  0  0  0
  191.1130  177.1360  141.2680 C   0  0  0  0  0  2  0  0  0  0  0  0
  188.7660  177.1580  144.2590 C   0  0  0  0  0  3  0  0  0  0  0  0
  191.0600  177.0510  145.0620 C   0  0  0  0  0  0  0  0  0  0  0  0
  191.5160  177.1170  143.7370 C   0  0  0  0  0  3  0  0  0  0  0  0
  189.2310  177.1960  142.9400 C   0  0  0  0  0  3  0  0  0  0  0  0
  190.6050  177.1850  142.6770 C   0  0  0  0  0  0  0  0  0  0  0  0
  189.6770  177.0920  145.3160 C   0  0  0  0  0  3  0  0  0  0  0  0
  191.9900  176.8930  146.0950 O   0  0  0  0  0  0  0  0  0  0  0  0
  191.6620  176.3260  147.3520 C   0  0  0  0  0  1  0  0  0  0  0  0
  1  8  1  1  0  0  0
  1 13  1  0  0  0  0
  1  3  1  0  0  0  0
  2 15  2  0  0  0  0
  2  6  1  0  0  0  0
  3 20  1  6  0  0  0
  3 17  1  0  0  0  0
  4 15  1  0  0  0  0
  5 18  1  6  0  0  0
  5 13  1  0  0  0  0
  6 10  2  0  0  0  0
  7  8  1  0  0  0  0
  9 16  1  0  0  0  0
 10  7  1  0  0  0  0
 11  7  2  0  0  0  0
 11  5  1  0  0  0  0
 12  9  1  0  0  0  0
 13 12  1  1  0  0  0
 14 16  1  0  0  0  0
 15 11  1  0  0  0  0
 16 30  1  1  0  0  0
 17 14  1  0  0  0  0
 20 19  1  1  0  0  0
 21 22  1  0  0  0  0
 21 20  1  0  0  0  0
 22 23  1  0  0  0  0
 23 24  1  0  0  0  0
 24 25  1  0  0  0  0
 25 26  1  0  0  0  0
 26 28  1  0  0  0  0
 28 27  1  0  0  0  0
 29 28  2  0  0  0  0
 30 35  1  0  0  0  0
 31 36  1  0  0  0  0
 32 36  2  0  0  0  0
 32 37  1  0  0  0  0
 33 32  1  0  0  0  0
 34 31  2  0  0  0  0
 35 34  1  0  0  0  0
 35 33  2  0  0  0  0
 37 38  1  0  0  0  0
M  END
>  <MODEL>
3

>  <REMARK>
 VINA RESULT:      -6.7      3.317      8.035
  Name = 
  11 active torsions:
  status: ('A' for Active; 'I' for Inactive)
    1  A    between atoms: C_3  and  C_20
    2  A    between atoms: C_4  and  C_20
    3  A    between atoms: C_4  and  C_30
    4  A    between atoms: O_5  and  C_7
    5  A    between atoms: C_11  and  N_23
    6  A    between atoms: C_11  and  C_25
    7  A    between atoms: N_23  and  C_34
    8  A    between atoms: C_25  and  C_30
    9  A    between atoms: C_26  and  C_35
   10  A    between atoms: C_29  and  C_35
   11  A    between atoms: C_34  and  C_36
                            x       y       z     vdW  Elec       q    Type
                         _______ _______ _______ _____ _____    ______ ____

>  <TORSDO>
F 11

$$$$
=
 OpenBabel11042409593D

 38 41  0  0  1  0  0  0  0  0999 V2000
  186.8370  178.0010  138.1700 C   0  0  2  0  0  3  0  0  0  0  0  0
  188.9770  173.9860  135.8730 C   0  0  0  0  0  3  0  0  0  0  0  0
  186.0230  178.7070  139.2740 C   0  0  2  0  0  3  0  0  0  0  0  0
  190.6220  175.7300  135.4240 N   0  0  0  0  0  1  0  0  0  0  0  0
  189.1280  177.6230  137.0790 C   0  0  2  0  0  3  0  0  0  0  0  0
  187.7930  173.5500  136.4670 C   0  0  0  0  0  3  0  0  0  0  0  0
  187.4710  175.7400  137.4480 C   0  0  0  0  0  0  0  0  0  0  0  0
  186.7000  176.5900  138.2430 O   0  0  0  0  0  0  0  0  0  0  0  0
  188.7420  177.2340  140.2590 N   0  0  0  0  0  2  0  0  0  0  0  0
  187.0420  174.4230  137.2550 C   0  0  0  0  0  3  0  0  0  0  0  0
  188.6460  176.2030  136.8290 C   0  0  0  0  0  0  0  0  0  0  0  0
  189.0450  178.4280  139.4760 C   0  0  0  0  0  2  0  0  0  0  0  0
  188.3240  178.4100  138.1230 C   0  0  2  0  0  3  0  0  0  0  0  0
  186.9640  178.4290  141.5590 C   0  0  0  0  0  2  0  0  0  0  0  0
  189.4030  175.3070  136.0380 C   0  0  0  0  0  0  0  0  0  0  0  0
  188.2610  177.6070  141.5920 C   0  0  2  0  0  3  0  0  0  0  0  0
  185.9340  177.8940  140.5640 C   0  0  0  0  0  2  0  0  0  0  0  0
  189.2270  178.4300  135.7990 C   0  0  0  0  0  1  0  0  0  0  0  0
  184.3600  180.4560  139.0950 O   0  0  0  0  0  1  0  0  0  0  0  0
  184.6230  179.1160  138.8070 C   0  0  2  0  0  3  0  0  0  0  0  0
  183.5840  178.2410  139.4850 C   0  0  0  0  0  2  0  0  0  0  0  0
  182.5890  179.1000  140.2370 C   0  0  0  0  0  2  0  0  0  0  0  0
  181.7030  178.2100  141.1020 C   0  0  0  0  0  2  0  0  0  0  0  0
  180.8260  179.0540  142.0080 C   0  0  0  0  0  2  0  0  0  0  0  0
  181.6530  179.7500  142.9740 N   0  0  0  0  0  2  0  0  0  0  0  0
  182.0860  178.7780  143.9610 C   0  0  0  0  0  2  0  0  0  0  0  0
  183.8050  178.9950  145.7990 N   0  0  0  0  0  1  0  0  0  0  0  0
  183.4720  179.1050  144.4210 C   0  0  0  0  0  0  0  0  0  0  0  0
  184.3380  179.4790  143.5880 O   0  0  0  0  0  0  0  0  0  0  0  0
  189.3140  178.3920  142.3700 C   0  0  0  0  0  2  0  0  0  0  0  0
  188.2780  177.4480  145.9030 C   0  0  0  0  0  3  0  0  0  0  0  0
  190.6930  177.2260  145.7070 C   0  0  0  0  0  0  0  0  0  0  0  0
  190.6180  177.6880  144.3860 C   0  0  0  0  0  3  0  0  0  0  0  0
  188.2110  177.8830  144.5760 C   0  0  0  0  0  3  0  0  0  0  0  0
  189.3810  178.0120  143.8180 C   0  0  0  0  0  0  0  0  0  0  0  0
  189.5140  177.1260  146.4690 C   0  0  0  0  0  3  0  0  0  0  0  0
  191.9320  176.8240  146.2190 O   0  0  0  0  0  0  0  0  0  0  0  0
  192.0670  175.8820  147.2700 C   0  0  0  0  0  1  0  0  0  0  0  0
  1  8  1  1  0  0  0
  1  3  1  0  0  0  0
  2 15  2  0  0  0  0
  2  6  1  0  0  0  0
  3 20  1  6  0  0  0
  3 17  1  0  0  0  0
  4 15  1  0  0  0  0
  5 18  1  6  0  0  0
  5 13  1  0  0  0  0
  6 10  2  0  0  0  0
  7  8  1  0  0  0  0
  9 16  1  0  0  0  0
 10  7  1  0  0  0  0
 11  5  1  0  0  0  0
 11  7  2  0  0  0  0
 12  9  1  0  0  0  0
 13  1  1  0  0  0  0
 13 12  1  1  0  0  0
 14 16  1  0  0  0  0
 15 11  1  0  0  0  0
 16 30  1  6  0  0  0
 17 14  1  0  0  0  0
 20 19  1  1  0  0  0
 20 21  1  0  0  0  0
 21 22  1  0  0  0  0
 22 23  1  0  0  0  0
 23 24  1  0  0  0  0
 24 25  1  0  0  0  0
 25 26  1  0  0  0  0
 26 28  1  0  0  0  0
 28 27  1  0  0  0  0
 29 28  2  0  0  0  0
 30 35  1  0  0  0  0
 31 36  1  0  0  0  0
 32 37  1  0  0  0  0
 32 36  2  0  0  0  0
 33 32  1  0  0  0  0
 34 31  2  0  0  0  0
 35 33  2  0  0  0  0
 35 34  1  0  0  0  0
 37 38  1  0  0  0  0
M  END
>  <MODEL>
4

>  <REMARK>
 VINA RESULT:      -6.7      2.414      6.742
  Name = 
  11 active torsions:
  status: ('A' for Active; 'I' for Inactive)
    1  A    between atoms: C_3  and  C_20
    2  A    between atoms: C_4  and  C_20
    3  A    between atoms: C_4  and  C_30
    4  A    between atoms: O_5  and  C_7
    5  A    between atoms: C_11  and  N_23
    6  A    between atoms: C_11  and  C_25
    7  A    between atoms: N_23  and  C_34
    8  A    between atoms: C_25  and  C_30
    9  A    between atoms: C_26  and  C_35
   10  A    between atoms: C_29  and  C_35
   11  A    between atoms: C_34  and  C_36
                            x       y       z     vdW  Elec       q    Type
                         _______ _______ _______ _____ _____    ______ ____

>  <TORSDO>
F 11

$$$$
=
 OpenBabel11042409593D

 38 41  0  0  1  0  0  0  0  0999 V2000
  183.2870  177.4210  137.4530 C   0  0  2  0  0  3  0  0  0  0  0  0
  186.2600  173.3020  137.0390 C   0  0  0  0  0  3  0  0  0  0  0  0
  182.1560  178.2690  138.0710 C   0  0  2  0  0  3  0  0  0  0  0  0
  187.8300  175.0860  136.4890 N   0  0  0  0  0  1  0  0  0  0  0  0
  185.8090  177.1100  137.0980 C   0  0  2  0  0  3  0  0  0  0  0  0
  184.9960  172.8710  137.4400 C   0  0  0  0  0  3  0  0  0  0  0  0
  184.2590  175.1700  137.6140 C   0  0  0  0  0  0  0  0  0  0  0  0
  183.2410  176.0780  137.9120 O   0  0  0  0  0  0  0  0  0  0  0  0
  184.6120  177.5420  140.0630 N   0  0  0  0  0  2  0  0  0  0  0  0
  183.9980  173.8020  137.7290 C   0  0  0  0  0  3  0  0  0  0  0  0
  185.5200  175.6190  137.1800 C   0  0  0  0  0  0  0  0  0  0  0  0
  185.0240  178.5110  139.0530 C   0  0  0  0  0  2  0  0  0  0  0  0
  184.6970  178.0200  137.6370 C   0  0  2  0  0  3  0  0  0  0  0  0
  182.4660  178.7630  140.4870 C   0  0  0  0  0  2  0  0  0  0  0  0
  186.5260  174.6670  136.8960 C   0  0  0  0  0  0  0  0  0  0  0  0
  183.7630  178.1850  141.0700 C   0  0  2  0  0  3  0  0  0  0  0  0
  181.7850  177.8310  139.4860 C   0  0  0  0  0  2  0  0  0  0  0  0
  186.1880  177.5460  135.6960 C   0  0  0  0  0  1  0  0  0  0  0  0
  181.2420  178.4360  135.8350 O   0  0  0  0  0  1  0  0  0  0  0  0
  180.9070  178.3220  137.1860 C   0  0  2  0  0  3  0  0  0  0  0  0
  180.0440  179.5010  137.5930 C   0  0  0  0  0  2  0  0  0  0  0  0
  180.8360  180.7880  137.4910 C   0  0  0  0  0  2  0  0  0  0  0  0
  180.6720  181.5880  138.7790 C   0  0  0  0  0  2  0  0  0  0  0  0
  179.4450  182.4780  138.6990 C   0  0  0  0  0  2  0  0  0  0  0  0
  179.3660  183.0790  137.3820 N   0  0  0  0  0  2  0  0  0  0  0  0
  179.7610  184.4700  137.5110 C   0  0  0  0  0  2  0  0  0  0  0  0
  182.2800  184.6630  137.5540 N   0  0  0  0  0  1  0  0  0  0  0  0
  181.0660  184.6920  136.8130 C   0  0  0  0  0  0  0  0  0  0  0  0
  181.0870  184.9060  135.5730 O   0  0  0  0  0  0  0  0  0  0  0  0
  184.5060  179.3000  141.8020 C   0  0  0  0  0  2  0  0  0  0  0  0
  184.5740  178.7140  145.5570 C   0  0  0  0  0  3  0  0  0  0  0  0
  186.5480  177.6920  144.5670 C   0  0  0  0  0  0  0  0  0  0  0  0
  186.1520  178.1710  143.3100 C   0  0  0  0  0  3  0  0  0  0  0  0
  184.1750  179.1630  144.2940 C   0  0  0  0  0  3  0  0  0  0  0  0
  184.9670  178.9010  143.1710 C   0  0  0  0  0  0  0  0  0  0  0  0
  185.7580  177.9860  145.6940 C   0  0  0  0  0  3  0  0  0  0  0  0
  187.6900  176.8890  144.6620 O   0  0  0  0  0  0  0  0  0  0  0  0
  188.7780  177.1890  145.5210 C   0  0  0  0  0  1  0  0  0  0  0  0
  1 13  1  0  0  0  0
  1  8  1  1  0  0  0
  1  3  1  0  0  0  0
  2  6  1  0  0  0  0
  3 20  1  6  0  0  0
  3 17  1  0  0  0  0
  4 15  1  0  0  0  0
  5 18  1  6  0  0  0
  5 11  1  0  0  0  0
  5 13  1  0  0  0  0
  6 10  2  0  0  0  0
  7 10  1  0  0  0  0
  7  8  1  0  0  0  0
  9 16  1  0  0  0  0
 11  7  2  0  0  0  0
 12  9  1  0  0  0  0
 13 12  1  1  0  0  0
 14 16  1  0  0  0  0
 15  2  2  0  0  0  0
 15 11  1  0  0  0  0
 16 30  1  6  0  0  0
 17 14  1  0  0  0  0
 20 19  1  6  0  0  0
 20 21  1  0  0  0  0
 22 21  1  0  0  0  0
 22 23  1  0  0  0  0
 24 23  1  0  0  0  0
 25 26  1  0  0  0  0
 25 24  1  0  0  0  0
 28 26  1  0  0  0  0
 28 27  1  0  0  0  0
 29 28  2  0  0  0  0
 30 35  1  0  0  0  0
 31 36  1  0  0  0  0
 32 37  1  0  0  0  0
 32 36  2  0  0  0  0
 33 32  1  0  0  0  0
 34 31  2  0  0  0  0
 35 33  2  0  0  0  0
 35 34  1  0  0  0  0
 37 38  1  0  0  0  0
M  END
>  <MODEL>
5

>  <REMARK>
 VINA RESULT:      -6.6      2.913      7.562
  Name = 
  11 active torsions:
  status: ('A' for Active; 'I' for Inactive)
    1  A    between atoms: C_3  and  C_20
    2  A    between atoms: C_4  and  C_20
    3  A    between atoms: C_4  and  C_30
    4  A    between atoms: O_5  and  C_7
    5  A    between atoms: C_11  and  N_23
    6  A    between atoms: C_11  and  C_25
    7  A    between atoms: N_23  and  C_34
    8  A    between atoms: C_25  and  C_30
    9  A    between atoms: C_26  and  C_35
   10  A    between atoms: C_29  and  C_35
   11  A    between atoms: C_34  and  C_36
                            x       y       z     vdW  Elec       q    Type
                         _______ _______ _______ _____ _____    ______ ____

>  <TORSDO>
F 11

$$$$
=
 OpenBabel11042409593D

 38 41  0  0  1  0  0  0  0  0999 V2000
  187.0190  177.8460  137.9070 C   0  0  2  0  0  3  0  0  0  0  0  0
  189.0720  173.6590  135.8510 C   0  0  0  0  0  3  0  0  0  0  0  0
  186.2180  178.6310  138.9650 C   0  0  2  0  0  3  0  0  0  0  0  0
  190.7610  175.3350  135.3150 N   0  0  0  0  0  1  0  0  0  0  0  0
  189.3050  177.3530  136.8520 C   0  0  2  0  0  3  0  0  0  0  0  0
  187.8750  173.2850  136.4610 C   0  0  0  0  0  3  0  0  0  0  0  0
  187.6020  175.5330  137.3160 C   0  0  0  0  0  0  0  0  0  0  0  0
  186.8480  176.4450  138.0580 O   0  0  0  0  0  0  0  0  0  0  0  0
  188.8950  177.1510  140.0470 N   0  0  0  0  0  2  0  0  0  0  0  0
  187.1420  174.2180  137.1940 C   0  0  0  0  0  3  0  0  0  0  0  0
  188.7910  175.9330  136.6790 C   0  0  0  0  0  0  0  0  0  0  0  0
  189.2310  178.2920  139.2000 C   0  0  0  0  0  2  0  0  0  0  0  0
  188.5160  178.2160  137.8460 C   0  0  2  0  0  3  0  0  0  0  0  0
  187.1410  178.4590  141.2670 C   0  0  0  0  0  2  0  0  0  0  0  0
  189.5290  174.9760  135.9440 C   0  0  0  0  0  0  0  0  0  0  0  0
  188.4170  177.6100  141.3540 C   0  0  2  0  0  3  0  0  0  0  0  0
  186.1030  177.8940  140.2980 C   0  0  0  0  0  2  0  0  0  0  0  0
  189.4300  178.0840  135.5300 C   0  0  0  0  0  1  0  0  0  0  0  0
  184.3920  180.2170  139.0910 O   0  0  0  0  0  1  0  0  0  0  0  0
  184.8300  179.0460  138.4670 C   0  0  2  0  0  3  0  0  0  0  0  0
  183.8370  177.9310  138.7370 C   0  0  0  0  0  2  0  0  0  0  0  0
  182.5830  178.4890  139.3770 C   0  0  0  0  0  2  0  0  0  0  0  0
  182.5030  178.0250  140.8270 C   0  0  0  0  0  2  0  0  0  0  0  0
  181.6770  178.9950  141.6510 C   0  0  0  0  0  2  0  0  0  0  0  0
  182.1650  179.0100  143.0160 N   0  0  0  0  0  2  0  0  0  0  0  0
  183.5640  178.6250  142.9860 C   0  0  0  0  0  2  0  0  0  0  0  0
  183.4310  179.0030  145.4800 N   0  0  0  0  0  1  0  0  0  0  0  0
  184.2110  178.9640  144.2920 C   0  0  0  0  0  0  0  0  0  0  0  0
  185.4430  179.2170  144.3350 O   0  0  0  0  0  0  0  0  0  0  0  0
  189.4850  178.4120  142.0930 C   0  0  0  0  0  2  0  0  0  0  0  0
  191.3040  177.1590  145.1870 C   0  0  0  0  0  3  0  0  0  0  0  0
  188.9590  177.5000  145.7390 C   0  0  0  0  0  0  0  0  0  0  0  0
  188.7110  177.8690  144.4090 C   0  0  0  0  0  3  0  0  0  0  0  0
  191.0500  177.5550  143.8690 C   0  0  0  0  0  3  0  0  0  0  0  0
  189.7530  177.9020  143.4760 C   0  0  0  0  0  0  0  0  0  0  0  0
  190.2620  177.1260  146.1170 C   0  0  0  0  0  3  0  0  0  0  0  0
  187.9170  177.5630  146.6690 O   0  0  0  0  0  0  0  0  0  0  0  0
  188.1240  177.4980  148.0710 C   0  0  0  0  0  1  0  0  0  0  0  0
  1  8  1  1  0  0  0
  1  3  1  0  0  0  0
  2 15  2  0  0  0  0
  2  6  1  0  0  0  0
  3 20  1  6  0  0  0
  3 17  1  0  0  0  0
  4 15  1  0  0  0  0
  5 18  1  6  0  0  0
  5 13  1  0  0  0  0
  6 10  2  0  0  0  0
  7  8  1  0  0  0  0
  9 16  1  0  0  0  0
 10  7  1  0  0  0  0
 11  5  1  0  0  0  0
 11  7  2  0  0  0  0
 12  9  1  0  0  0  0
 13  1  1  0  0  0  0
 13 12  1  1  0  0  0
 14 16  1  0  0  0  0
 15 11  1  0  0  0  0
 16 30  1  6  0  0  0
 17 14  1  0  0  0  0
 20 21  1  0  0  0  0
 20 19  1  1  0  0  0
 21 22  1  0  0  0  0
 22 23  1  0  0  0  0
 23 24  1  0  0  0  0
 24 25  1  0  0  0  0
 26 25  1  0  0  0  0
 26 28  1  0  0  0  0
 28 29  2  0  0  0  0
 28 27  1  0  0  0  0
 30 35  1  0  0  0  0
 31 36  1  0  0  0  0
 32 36  2  0  0  0  0
 32 37  1  0  0  0  0
 33 32  1  0  0  0  0
 34 31  2  0  0  0  0
 35 34  1  0  0  0  0
 35 33  2  0  0  0  0
 37 38  1  0  0  0  0
M  END
>  <MODEL>
6

>  <REMARK>
 VINA RESULT:      -6.5      2.339      6.740
  Name = 
  11 active torsions:
  status: ('A' for Active; 'I' for Inactive)
    1  A    between atoms: C_3  and  C_20
    2  A    between atoms: C_4  and  C_20
    3  A    between atoms: C_4  and  C_30
    4  A    between atoms: O_5  and  C_7
    5  A    between atoms: C_11  and  N_23
    6  A    between atoms: C_11  and  C_25
    7  A    between atoms: N_23  and  C_34
    8  A    between atoms: C_25  and  C_30
    9  A    between atoms: C_26  and  C_35
   10  A    between atoms: C_29  and  C_35
   11  A    between atoms: C_34  and  C_36
                            x       y       z     vdW  Elec       q    Type
                         _______ _______ _______ _____ _____    ______ ____

>  <TORSDO>
F 11

$$$$
=
 OpenBabel11042409593D

 38 41  0  0  1  0  0  0  0  0999 V2000
  190.4470  177.1920  137.3550 C   0  0  2  0  0  3  0  0  0  0  0  0
  192.1780  172.5510  136.1540 C   0  0  0  0  0  3  0  0  0  0  0  0
  189.4240  178.1950  137.9260 C   0  0  2  0  0  3  0  0  0  0  0  0
  194.2380  173.6760  136.8170 N   0  0  0  0  0  1  0  0  0  0  0  0
  192.7330  176.0550  137.6090 C   0  0  2  0  0  3  0  0  0  0  0  0
  190.7930  172.5410  135.9860 C   0  0  0  0  0  3  0  0  0  0  0  0
  190.6650  174.7950  136.8590 C   0  0  0  0  0  0  0  0  0  0  0  0
  189.8820  175.8980  137.2050 O   0  0  0  0  0  0  0  0  0  0  0  0
  190.6200  176.0510  140.0480 N   0  0  0  0  0  2  0  0  0  0  0  0
  190.0380  173.6590  136.3390 C   0  0  0  0  0  3  0  0  0  0  0  0
  192.0640  174.8320  137.0040 C   0  0  0  0  0  0  0  0  0  0  0  0
  191.6310  177.0330  139.6660 C   0  0  0  0  0  2  0  0  0  0  0  0
  191.7730  177.1280  138.1420 C   0  0  2  0  0  3  0  0  0  0  0  0
  188.8720  177.8250  140.3220 C   0  0  0  0  0  2  0  0  0  0  0  0
  192.8190  173.6900  136.6480 C   0  0  0  0  0  0  0  0  0  0  0  0
  189.6400  176.6560  140.9540 C   0  0  2  0  0  3  0  0  0  0  0  0
  188.4260  177.5500  138.8870 C   0  0  0  0  0  2  0  0  0  0  0  0
  193.7320  176.6920  136.6610 C   0  0  0  0  0  1  0  0  0  0  0  0
  187.4180  179.3780  137.2630 O   0  0  0  0  0  1  0  0  0  0  0  0
  188.6820  178.9690  136.8320 C   0  0  2  0  0  3  0  0  0  0  0  0
  188.5360  178.0970  135.5990 C   0  0  0  0  0  2  0  0  0  0  0  0
  187.0720  177.9070  135.2630 C   0  0  0  0  0  2  0  0  0  0  0  0
  186.6350  176.5040  135.6690 C   0  0  0  0  0  2  0  0  0  0  0  0
  185.4170  176.5670  136.5720 C   0  0  0  0  0  2  0  0  0  0  0  0
  185.2230  175.2820  137.2170 N   0  0  0  0  0  2  0  0  0  0  0  0
  186.4390  174.5120  137.0320 C   0  0  0  0  0  2  0  0  0  0  0  0
  184.8490  172.6310  137.5930 N   0  0  0  0  0  1  0  0  0  0  0  0
  186.1770  173.0710  137.3390 C   0  0  0  0  0  0  0  0  0  0  0  0
  187.1320  172.2530  137.3750 O   0  0  0  0  0  0  0  0  0  0  0  0
  190.2940  177.1440  142.2440 C   0  0  0  0  0  2  0  0  0  0  0  0
  187.0720  177.1280  144.2600 C   0  0  0  0  0  3  0  0  0  0  0  0
  188.9430  177.4890  145.7730 C   0  0  0  0  0  0  0  0  0  0  0  0
  189.8180  177.4750  144.6770 C   0  0  0  0  0  3  0  0  0  0  0  0
  187.9570  177.0890  143.1770 C   0  0  0  0  0  3  0  0  0  0  0  0
  189.3290  177.2720  143.3830 C   0  0  0  0  0  0  0  0  0  0  0  0
  187.5620  177.3330  145.5520 C   0  0  0  0  0  3  0  0  0  0  0  0
  189.4700  177.6050  147.0640 O   0  0  0  0  0  0  0  0  0  0  0  0
  188.7860  178.2530  148.1240 C   0  0  0  0  0  1  0  0  0  0  0  0
  1  8  1  1  0  0  0
  1  3  1  0  0  0  0
  1 13  1  0  0  0  0
  2 15  1  0  0  0  0
  3 20  1  6  0  0  0
  3 17  1  0  0  0  0
  5 18  1  6  0  0  0
  5 13  1  0  0  0  0
  6  2  2  0  0  0  0
  6 10  1  0  0  0  0
  7 11  1  0  0  0  0
  7  8  1  0  0  0  0
  9 16  1  0  0  0  0
 10  7  2  0  0  0  0
 11  5  1  0  0  0  0
 12  9  1  0  0  0  0
 13 12  1  1  0  0  0
 14 16  1  0  0  0  0
 15  4  1  0  0  0  0
 15 11  2  0  0  0  0
 16 30  1  1  0  0  0
 17 14  1  0  0  0  0
 20 19  1  1  0  0  0
 21 20  1  0  0  0  0
 22 21  1  0  0  0  0
 22 23  1  0  0  0  0
 23 24  1  0  0  0  0
 24 25  1  0  0  0  0
 26 25  1  0  0  0  0
 26 28  1  0  0  0  0
 28 29  2  0  0  0  0
 28 27  1  0  0  0  0
 30 35  1  0  0  0  0
 31 36  1  0  0  0  0
 32 37  1  0  0  0  0
 33 32  1  0  0  0  0
 34 35  1  0  0  0  0
 34 31  2  0  0  0  0
 35 33  2  0  0  0  0
 36 32  2  0  0  0  0
 37 38  1  0  0  0  0
M  END
>  <MODEL>
7

>  <REMARK>
 VINA RESULT:      -6.4      3.923      8.091
  Name = 
  11 active torsions:
  status: ('A' for Active; 'I' for Inactive)
    1  A    between atoms: C_3  and  C_20
    2  A    between atoms: C_4  and  C_20
    3  A    between atoms: C_4  and  C_30
    4  A    between atoms: O_5  and  C_7
    5  A    between atoms: C_11  and  N_23
    6  A    between atoms: C_11  and  C_25
    7  A    between atoms: N_23  and  C_34
    8  A    between atoms: C_25  and  C_30
    9  A    between atoms: C_26  and  C_35
   10  A    between atoms: C_29  and  C_35
   11  A    between atoms: C_34  and  C_36
                            x       y       z     vdW  Elec       q    Type
                         _______ _______ _______ _____ _____    ______ ____

>  <TORSDO>
F 11

$$$$
=
 OpenBabel11042409593D

 38 41  0  0  1  0  0  0  0  0999 V2000
  183.4900  178.5870  141.2090 C   0  0  2  0  0  3  0  0  0  0  0  0
  181.5940  176.0680  137.2050 C   0  0  0  0  0  3  0  0  0  0  0  0
  184.3360  178.7370  142.4900 C   0  0  2  0  0  3  0  0  0  0  0  0
  181.9100  178.2950  136.2660 N   0  0  0  0  0  1  0  0  0  0  0  0
  183.1800  179.2040  138.7380 C   0  0  2  0  0  3  0  0  0  0  0  0
  181.7120  175.1590  138.2570 C   0  0  0  0  0  3  0  0  0  0  0  0
  182.7700  176.8610  139.6160 C   0  0  0  0  0  0  0  0  0  0  0  0
  183.3560  177.2260  140.8300 O   0  0  0  0  0  0  0  0  0  0  0  0
  185.9900  178.0200  139.7930 N   0  0  0  0  0  2  0  0  0  0  0  0
  182.3000  175.5530  139.4590 C   0  0  0  0  0  3  0  0  0  0  0  0
  182.6280  177.7970  138.5750 C   0  0  0  0  0  0  0  0  0  0  0  0
  185.4900  179.3910  139.7530 C   0  0  0  0  0  2  0  0  0  0  0  0
  183.9810  179.4450  140.0250 C   0  0  2  0  0  3  0  0  0  0  0  0
  186.7560  178.2730  142.1640 C   0  0  0  0  0  2  0  0  0  0  0  0
  182.0360  177.3840  137.3580 C   0  0  0  0  0  0  0  0  0  0  0  0
  187.1230  177.9180  140.7160 C   0  0  2  0  0  3  0  0  0  0  0  0
  185.4250  177.6740  142.6160 C   0  0  0  0  0  2  0  0  0  0  0  0
  182.1020  180.2630  138.6040 C   0  0  0  0  0  1  0  0  0  0  0  0
  182.2530  179.3960  143.5320 O   0  0  0  0  0  1  0  0  0  0  0  0
  183.4820  178.7750  143.7610 C   0  0  2  0  0  3  0  0  0  0  0  0
  184.2270  179.5190  144.8540 C   0  0  0  0  0  2  0  0  0  0  0  0
  184.6120  178.5660  145.9660 C   0  0  0  0  0  2  0  0  0  0  0  0
  186.0690  178.7960  146.3510 C   0  0  0  0  0  2  0  0  0  0  0  0
  186.8890  177.5430  146.0990 C   0  0  0  0  0  2  0  0  0  0  0  0
  188.1430  177.9020  145.4660 N   0  0  0  0  0  2  0  0  0  0  0  0
  189.2120  177.5650  146.3890 C   0  0  0  0  0  2  0  0  0  0  0  0
  190.4050  177.0790  144.2160 N   0  0  0  0  0  1  0  0  0  0  0  0
  190.4620  177.2590  145.6250 C   0  0  0  0  0  0  0  0  0  0  0  0
  191.5590  177.1590  146.2310 O   0  0  0  0  0  0  0  0  0  0  0  0
  188.2870  178.8030  140.2780 C   0  0  0  0  0  2  0  0  0  0  0  0
  191.0860  176.6200  138.9190 C   0  0  0  0  0  3  0  0  0  0  0  0
  189.7830  177.4790  137.0520 C   0  0  0  0  0  0  0  0  0  0  0  0
  188.9860  178.1990  137.9540 C   0  0  0  0  0  3  0  0  0  0  0  0
  190.2680  177.3220  139.8110 C   0  0  0  0  0  3  0  0  0  0  0  0
  189.2240  178.1190  139.3300 C   0  0  0  0  0  0  0  0  0  0  0  0
  190.8480  176.7030  137.5450 C   0  0  0  0  0  3  0  0  0  0  0  0
  189.4660  177.5080  135.6900 O   0  0  0  0  0  0  0  0  0  0  0  0
  188.6390  176.5390  135.0660 C   0  0  0  0  0  1  0  0  0  0  0  0
  1  8  1  6  0  0  0
  1  3  1  0  0  0  0
  2 15  2  0  0  0  0
  2  6  1  0  0  0  0
  3 17  1  0  0  0  0
  3 20  1  1  0  0  0
  4 15  1  0  0  0  0
  5 18  1  1  0  0  0
  5 13  1  0  0  0  0
  6 10  2  0  0  0  0
  7  8  1  0  0  0  0
  9 16  1  0  0  0  0
 10  7  1  0  0  0  0
 11  5  1  0  0  0  0
 11  7  2  0  0  0  0
 12  9  1  0  0  0  0
 13 12  1  6  0  0  0
 13  1  1  0  0  0  0
 14 17  1  0  0  0  0
 15 11  1  0  0  0  0
 16 30  1  6  0  0  0
 16 14  1  0  0  0  0
 20 19  1  6  0  0  0
 20 21  1  0  0  0  0
 21 22  1  0  0  0  0
 22 23  1  0  0  0  0
 24 23  1  0  0  0  0
 25 24  1  0  0  0  0
 25 26  1  0  0  0  0
 27 28  1  0  0  0  0
 28 29  2  0  0  0  0
 28 26  1  0  0  0  0
 31 34  1  0  0  0  0
 32 36  1  0  0  0  0
 32 33  2  0  0  0  0
 33 35  1  0  0  0  0
 35 34  2  0  0  0  0
 35 30  1  0  0  0  0
 36 31  2  0  0  0  0
 37 32  1  0  0  0  0
 38 37  1  0  0  0  0
M  END
>  <MODEL>
8

>  <REMARK>
 VINA RESULT:      -6.4      2.094      6.000
  Name = 
  11 active torsions:
  status: ('A' for Active; 'I' for Inactive)
    1  A    between atoms: C_3  and  C_20
    2  A    between atoms: C_4  and  C_20
    3  A    between atoms: C_4  and  C_30
    4  A    between atoms: O_5  and  C_7
    5  A    between atoms: C_11  and  N_23
    6  A    between atoms: C_11  and  C_25
    7  A    between atoms: N_23  and  C_34
    8  A    between atoms: C_25  and  C_30
    9  A    between atoms: C_26  and  C_35
   10  A    between atoms: C_29  and  C_35
   11  A    between atoms: C_34  and  C_36
                            x       y       z     vdW  Elec       q    Type
                         _______ _______ _______ _____ _____    ______ ____

>  <TORSDO>
F 11

$$$$
=
 OpenBabel11042409593D

 38 41  0  0  1  0  0  0  0  0999 V2000
  182.3850  177.0100  139.9110 C   0  0  2  0  0  3  0  0  0  0  0  0
  182.7490  173.2450  136.4960 C   0  0  0  0  0  3  0  0  0  0  0  0
  182.7110  178.4000  140.4960 C   0  0  2  0  0  3  0  0  0  0  0  0
  180.3970  173.0990  137.1240 N   0  0  0  0  0  1  0  0  0  0  0  0
  180.6500  175.4890  138.7890 C   0  0  2  0  0  3  0  0  0  0  0  0
  183.9980  173.8610  136.5780 C   0  0  0  0  0  3  0  0  0  0  0  0
  183.0870  175.5200  138.0890 C   0  0  0  0  0  0  0  0  0  0  0  0
  183.2850  176.6580  138.8720 O   0  0  0  0  0  0  0  0  0  0  0  0
  181.3090  178.4030  137.5700 N   0  0  0  0  0  2  0  0  0  0  0  0
  184.1670  174.9970  137.3710 C   0  0  0  0  0  3  0  0  0  0  0  0
  181.8290  174.8900  138.0400 C   0  0  0  0  0  0  0  0  0  0  0  0
  180.3630  177.9960  138.6050 C   0  0  0  0  0  2  0  0  0  0  0  0
  180.9210  176.8460  139.4530 C   0  0  2  0  0  3  0  0  0  0  0  0
  182.1710  180.2900  138.9740 C   0  0  0  0  0  2  0  0  0  0  0  0
  181.6680  173.7430  137.2280 C   0  0  0  0  0  0  0  0  0  0  0  0
  181.5510  179.8470  137.6420 C   0  0  2  0  0  3  0  0  0  0  0  0
  183.2850  179.3650  139.4610 C   0  0  0  0  0  2  0  0  0  0  0  0
  180.0710  174.5300  139.8100 C   0  0  0  0  0  1  0  0  0  0  0  0
  182.9890  178.7960  142.8680 O   0  0  0  0  0  1  0  0  0  0  0  0
  183.6290  178.3250  141.7200 C   0  0  2  0  0  3  0  0  0  0  0  0
  184.8800  179.1470  141.4680 C   0  0  0  0  0  2  0  0  0  0  0  0
  186.1120  178.2720  141.5850 C   0  0  0  0  0  2  0  0  0  0  0  0
  186.3070  177.8610  143.0400 C   0  0  0  0  0  2  0  0  0  0  0  0
  187.7820  177.8560  143.3960 C   0  0  0  0  0  2  0  0  0  0  0  0
  187.9390  177.5690  144.8090 N   0  0  0  0  0  2  0  0  0  0  0  0
  186.6140  177.5480  145.4010 C   0  0  0  0  0  2  0  0  0  0  0  0
  185.6710  179.2440  147.0180 N   0  0  0  0  0  1  0  0  0  0  0  0
  186.6390  178.2450  146.7250 C   0  0  0  0  0  0  0  0  0  0  0  0
  187.5180  177.9470  147.5750 O   0  0  0  0  0  0  0  0  0  0  0  0
  180.2710  180.6440  137.4110 C   0  0  0  0  0  2  0  0  0  0  0  0
  180.8060  183.4450  134.8970 C   0  0  0  0  0  3  0  0  0  0  0  0
  180.6290  184.4110  137.1230 C   0  0  0  0  0  0  0  0  0  0  0  0
  180.5080  183.1220  137.6620 C   0  0  0  0  0  3  0  0  0  0  0  0
  180.6580  182.1650  135.4420 C   0  0  0  0  0  3  0  0  0  0  0  0
  180.5180  182.0010  136.8250 C   0  0  0  0  0  0  0  0  0  0  0  0
  180.7970  184.5630  135.7350 C   0  0  0  0  0  3  0  0  0  0  0  0
  180.5250  185.5170  137.9740 O   0  0  0  0  0  0  0  0  0  0  0  0
  179.2870  186.1200  138.3130 C   0  0  0  0  0  1  0  0  0  0  0  0
  1  8  1  6  0  0  0
  1  3  1  0  0  0  0
  2  6  2  0  0  0  0
  2 15  1  0  0  0  0
  3 20  1  1  0  0  0
  4 15  1  0  0  0  0
  5 13  1  0  0  0  0
  5 18  1  1  0  0  0
  6 10  1  0  0  0  0
  7  8  1  0  0  0  0
  9 16  1  0  0  0  0
  9 12  1  0  0  0  0
 10  7  2  0  0  0  0
 11  7  1  0  0  0  0
 11  5  1  0  0  0  0
 13 12  1  6  0  0  0
 13  1  1  0  0  0  0
 14 17  1  0  0  0  0
 15 11  2  0  0  0  0
 16 30  1  1  0  0  0
 16 14  1  0  0  0  0
 17  3  1  0  0  0  0
 20 19  1  1  0  0  0
 21 22  1  0  0  0  0
 21 20  1  0  0  0  0
 22 23  1  0  0  0  0
 23 24  1  0  0  0  0
 24 25  1  0  0  0  0
 25 26  1  0  0  0  0
 26 28  1  0  0  0  0
 28 27  1  0  0  0  0
 28 29  2  0  0  0  0
 31 34  2  0  0  0  0
 31 36  1  0  0  0  0
 32 33  1  0  0  0  0
 32 37  1  0  0  0  0
 34 35  1  0  0  0  0
 35 30  1  0  0  0  0
 35 33  2  0  0  0  0
 36 32  2  0  0  0  0
 37 38  1  0  0  0  0
M  END
>  <MODEL>
9

>  <REMARK>
 VINA RESULT:      -6.3      3.043      7.770
  Name = 
  11 active torsions:
  status: ('A' for Active; 'I' for Inactive)
    1  A    between atoms: C_3  and  C_20
    2  A    between atoms: C_4  and  C_20
    3  A    between atoms: C_4  and  C_30
    4  A    between atoms: O_5  and  C_7
    5  A    between atoms: C_11  and  N_23
    6  A    between atoms: C_11  and  C_25
    7  A    between atoms: N_23  and  C_34
    8  A    between atoms: C_25  and  C_30
    9  A    between atoms: C_26  and  C_35
   10  A    between atoms: C_29  and  C_35
   11  A    between atoms: C_34  and  C_36
                            x       y       z     vdW  Elec       q    Type
                         _______ _______ _______ _____ _____    ______ ____

>  <TORSDO>
F 11

$$$$
