=
 OpenBabel11032419223D

 51 55  0  0  1  0  0  0  0  0999 V2000
  181.1480  179.0650  143.2490 N   0  0  0  0  0  0  0  0  0  0  0  0
  185.9750  178.7320  146.3010 C   0  0  0  0  0  3  0  0  0  0  0  0
  185.9750  178.3680  141.8490 C   0  0  0  0  0  0  0  0  0  0  0  0
  186.9720  177.8380  146.1570 C   0  0  2  0  0  3  0  0  0  0  0  0
  186.5680  177.0020  143.8420 C   0  0  0  0  0  3  0  0  0  0  0  0
  186.0590  178.3250  143.3670 C   0  0  0  0  0  0  0  0  0  0  0  0
  187.0010  176.8170  145.0890 C   0  0  0  0  0  3  0  0  0  0  0  0
  184.8070  178.9140  145.4150 C   0  0  0  0  0  3  0  0  0  0  0  0
  183.5300  178.6730  141.9510 C   0  0  0  0  0  0  0  0  0  0  0  0
  182.3330  178.7640  141.2440 C   0  0  0  0  0  3  0  0  0  0  0  0
  182.2870  178.9890  143.9850 C   0  0  0  0  0  3  0  0  0  0  0  0
  184.7940  178.5030  141.2260 C   0  0  0  0  0  3  0  0  0  0  0  0
  184.7850  178.6860  144.0950 C   0  0  0  0  0  0  0  0  0  0  0  0
  181.1700  178.9550  141.9200 N   0  0  0  0  0  0  0  0  0  0  0  0
  183.5160  178.7910  143.3430 C   0  0  0  0  0  0  0  0  0  0  0  0
  187.2190  178.2850  141.0370 C   0  0  0  0  0  0  0  0  0  0  0  0
  188.4720  178.1930  141.6630 C   0  0  0  0  0  3  0  0  0  0  0  0
  189.6440  178.1200  140.9060 C   0  0  0  0  0  3  0  0  0  0  0  0
  189.5790  178.1450  139.5110 C   0  0  0  0  0  3  0  0  0  0  0  0
  188.3430  178.2430  138.8680 C   0  0  0  0  0  0  0  0  0  0  0  0
  187.1680  178.3130  139.6320 C   0  0  0  0  0  3  0  0  0  0  0  0
  188.3000  178.2750  137.4390 N   0  0  0  0  0  2  0  0  0  0  0  0
  187.0620  178.4270  136.6900 C   0  0  0  0  0  2  0  0  0  0  0  0
  186.8730  177.2420  135.7630 C   0  0  0  0  0  2  0  0  0  0  0  0
  188.0890  176.5800  135.5850 O   0  0  0  0  0  0  0  0  0  0  0  0
  187.7600  175.2260  135.6270 C   0  0  0  0  0  2  0  0  0  0  0  0
  186.4480  175.0430  136.3740 C   0  0  0  0  0  2  0  0  0  0  0  0
  185.7370  173.7280  136.0290 C   0  0  1  0  0  3  0  0  0  0  0  0
  187.2390  172.3900  137.5060 O   0  0  0  0  0  1  0  0  0  0  0  0
  186.6240  171.5720  135.4570 O   0  0  0  0  0  0  0  0  0  0  0  0
  186.5510  172.5000  136.3040 C   0  0  0  0  0  0  0  0  0  0  0  0
  183.9040  172.2260  136.9760 C   0  0  0  0  0  1  0  0  0  0  0  0
  184.2730  173.6170  136.4870 C   0  0  1  0  0  3  0  0  0  0  0  0
  183.9820  174.5950  137.5250 N   0  0  0  0  0  2  0  0  0  0  0  0
  182.6720  175.1700  137.2400 C   0  0  1  0  0  3  0  0  0  0  0  0
  181.7820  174.8490  138.2700 O   0  0  0  0  0  1  0  0  0  0  0  0
  182.7710  176.6880  137.0520 C   0  0  0  0  0  0  0  0  0  0  0  0
  183.1370  177.0400  135.6180 C   0  0  0  0  0  1  0  0  0  0  0  0
  181.5470  177.2770  137.3680 O   0  0  0  0  0  1  0  0  0  0  0  0
  183.8310  177.2500  137.9800 C   0  0  0  0  0  1  0  0  0  0  0  0
  188.0050  177.7680  147.1470 N   0  0  0  0  0  2  0  0  0  0  0  0
  190.2450  177.1360  147.8080 C   0  0  0  0  0  3  0  0  0  0  0  0
  189.7220  177.5980  145.4090 C   0  0  0  0  0  2  0  0  0  0  0  0
  189.4210  177.9630  146.8640 C   0  0  1  0  0  3  0  0  0  0  0  0
  191.2320  177.6760  145.1870 C   0  0  1  0  0  3  0  0  0  0  0  0
  191.9100  176.8430  146.1300 O   0  0  0  0  0  0  0  0  0  0  0  0
  191.4280  176.6440  147.4320 C   0  0  0  0  0  3  0  0  0  0  0  0
  191.5900  177.2420  143.7770 C   0  0  0  0  0  2  0  0  0  0  0  0
  190.2370  175.3620  142.8490 O   0  0  0  0  0  0  0  0  0  0  0  0
  191.3340  175.7860  143.5880 C   0  0  0  0  0  0  0  0  0  0  0  0
  192.1320  174.9400  144.0680 O   0  0  0  0  0  1  0  0  0  0  0  0
  1 11  1  0  0  0  0
  3  6  1  0  0  0  0
  4  2  1  0  0  0  0
  4 41  1  1  0  0  0
  5  7  2  0  0  0  0
  6  5  1  0  0  0  0
  6 13  2  0  0  0  0
  7  4  1  0  0  0  0
  8  2  2  0  0  0  0
  9 15  1  0  0  0  0
 10 14  1  0  0  0  0
 10  9  2  0  0  0  0
 12  3  2  0  0  0  0
 12  9  1  0  0  0  0
 13  8  1  0  0  0  0
 14  1  2  0  0  0  0
 15 11  2  0  0  0  0
 15 13  1  0  0  0  0
 16 17  1  0  0  0  0
 16  3  1  0  0  0  0
 18 17  2  0  0  0  0
 19 18  1  0  0  0  0
 20 19  2  0  0  0  0
 20 21  1  0  0  0  0
 21 16  2  0  0  0  0
 22 20  1  0  0  0  0
 23 22  1  0  0  0  0
 24 23  1  0  0  0  0
 25 26  1  0  0  0  0
 25 24  1  0  0  0  0
 26 27  1  0  0  0  0
 28 31  1  0  0  0  0
 28 27  1  1  0  0  0
 28 33  1  0  0  0  0
 30 31  2  0  0  0  0
 31 29  1  0  0  0  0
 33 32  1  1  0  0  0
 33 34  1  0  0  0  0
 35 34  1  0  0  0  0
 35 36  1  1  0  0  0
 37 35  1  0  0  0  0
 37 39  1  0  0  0  0
 37 40  1  0  0  0  0
 38 37  1  0  0  0  0
 43 44  1  0  0  0  0
 44 41  1  1  0  0  0
 44 42  1  0  0  0  0
 45 48  1  6  0  0  0
 45 43  1  0  0  0  0
 45 46  1  0  0  0  0
 46 47  1  0  0  0  0
 47 42  2  0  0  0  0
 49 50  2  0  0  0  0
 50 48  1  0  0  0  0
 50 51  1  0  0  0  0
M  END
>  <MODEL>
1

>  <REMARK>
 VINA RESULT:      -8.5      0.000      0.000
  Name = 
  17 active torsions:
  status: ('A' for Active; 'I' for Inactive)
    1  A    between atoms: C_4  and  C_5
    2  A    between atoms: C_8  and  C_24
    3  A    between atoms: C_8  and  N_51
    4  A    between atoms: C_10  and  N_33
    5  A    between atoms: C_18  and  C_19
    6  A    between atoms: C_18  and  C_48
    7  A    between atoms: C_19  and  O_45
    8  A    between atoms: C_21  and  N_33
    9  A    between atoms: C_22  and  C_48
   10  A    between atoms: C_22  and  N_51
   11  A    between atoms: C_26  and  C_31
   12  A    between atoms: C_27  and  N_50
   13  A    between atoms: C_29  and  C_31
   14  A    between atoms: C_39  and  C_44
   15  A    between atoms: C_39  and  N_50
   16  A    between atoms: C_44  and  O_45
   17  A    between atoms: C_48  and  C_49
                            x       y       z     vdW  Elec       q    Type
                         _______ _______ _______ _____ _____    ______ ____

>  <TORSDO>
F 17

$$$$
=
 OpenBabel11032419223D

 51 55  0  0  1  0  0  0  0  0999 V2000
  181.0390  179.0700  143.3320 N   0  0  0  0  0  0  0  0  0  0  0  0
  185.9260  178.7140  146.2840 C   0  0  0  0  0  3  0  0  0  0  0  0
  185.8370  178.3870  141.8300 C   0  0  0  0  0  0  0  0  0  0  0  0
  186.9200  177.8220  146.1130 C   0  0  2  0  0  3  0  0  0  0  0  0
  186.4710  177.0050  143.7990 C   0  0  0  0  0  3  0  0  0  0  0  0
  185.9520  178.3320  143.3460 C   0  0  0  0  0  0  0  0  0  0  0  0
  186.9280  176.8100  145.0360 C   0  0  0  0  0  3  0  0  0  0  0  0
  184.7410  178.9030  145.4230 C   0  0  0  0  0  3  0  0  0  0  0  0
  183.3950  178.6900  141.9840 C   0  0  0  0  0  0  0  0  0  0  0  0
  182.1840  178.7860  141.3010 C   0  0  0  0  0  3  0  0  0  0  0  0
  182.1930  178.9880  144.0440 C   0  0  0  0  0  3  0  0  0  0  0  0
  184.6440  178.5270  141.2320 C   0  0  0  0  0  3  0  0  0  0  0  0
  184.6930  178.6860  144.1020 C   0  0  0  0  0  0  0  0  0  0  0  0
  181.0340  178.9710  142.0020 N   0  0  0  0  0  0  0  0  0  0  0  0
  183.4080  178.7960  143.3770 C   0  0  0  0  0  0  0  0  0  0  0  0
  187.0650  178.3120  140.9930 C   0  0  0  0  0  0  0  0  0  0  0  0
  188.3350  178.2930  141.5920 C   0  0  0  0  0  3  0  0  0  0  0  0
  189.4910  178.2280  140.8100 C   0  0  0  0  0  3  0  0  0  0  0  0
  189.3930  178.1860  139.4180 C   0  0  0  0  0  3  0  0  0  0  0  0
  188.1400  178.2110  138.8010 C   0  0  0  0  0  0  0  0  0  0  0  0
  186.9820  178.2730  139.5890 C   0  0  0  0  0  3  0  0  0  0  0  0
  188.0640  178.1750  137.3740 N   0  0  0  0  0  2  0  0  0  0  0  0
  188.7130  177.1480  136.5740 C   0  0  0  0  0  2  0  0  0  0  0  0
  188.1290  175.7890  136.9110 C   0  0  0  0  0  2  0  0  0  0  0  0
  187.9660  175.0400  135.7450 O   0  0  0  0  0  0  0  0  0  0  0  0
  186.9150  174.1710  136.0310 C   0  0  0  0  0  2  0  0  0  0  0  0
  185.5980  174.8120  135.6230 C   0  0  0  0  0  2  0  0  0  0  0  0
  184.4300  174.4240  136.5390 C   0  0  1  0  0  3  0  0  0  0  0  0
  183.9810  171.9760  136.7240 O   0  0  0  0  0  0  0  0  0  0  0  0
  185.3090  173.0160  138.2740 O   0  0  0  0  0  1  0  0  0  0  0  0
  184.6060  173.1070  137.2330 C   0  0  0  0  0  0  0  0  0  0  0  0
  184.5440  176.8890  137.1890 C   0  0  0  0  0  1  0  0  0  0  0  0
  183.8940  175.5400  137.4520 C   0  0  1  0  0  3  0  0  0  0  0  0
  182.4490  175.6600  137.3250 N   0  0  0  0  0  2  0  0  0  0  0  0
  181.8500  175.1150  138.5380 C   0  0  1  0  0  3  0  0  0  0  0  0
  182.4350  175.7100  139.6610 O   0  0  0  0  0  1  0  0  0  0  0  0
  180.3310  175.3190  138.5370 C   0  0  0  0  0  0  0  0  0  0  0  0
  179.9570  176.6700  139.1270 C   0  0  0  0  0  1  0  0  0  0  0  0
  179.8520  175.2470  137.2280 O   0  0  0  0  0  1  0  0  0  0  0  0
  179.6680  174.2270  139.3540 C   0  0  0  0  0  1  0  0  0  0  0  0
  187.9730  177.7450  147.0810 N   0  0  0  0  0  2  0  0  0  0  0  0
  190.2370  177.1860  147.7260 C   0  0  0  0  0  3  0  0  0  0  0  0
  189.6740  177.5920  145.3250 C   0  0  0  0  0  2  0  0  0  0  0  0
  189.3800  177.9740  146.7770 C   0  0  1  0  0  3  0  0  0  0  0  0
  191.1780  177.7070  145.0840 C   0  0  1  0  0  3  0  0  0  0  0  0
  191.8910  176.9100  146.0340 O   0  0  0  0  0  0  0  0  0  0  0  0
  191.4290  176.7200  147.3440 C   0  0  0  0  0  3  0  0  0  0  0  0
  191.5320  177.2580  143.6770 C   0  0  0  0  0  2  0  0  0  0  0  0
  192.1210  174.8710  144.1040 O   0  0  0  0  0  1  0  0  0  0  0  0
  191.2790  175.7990  143.5050 C   0  0  0  0  0  0  0  0  0  0  0  0
  190.2810  175.4080  142.8470 O   0  0  0  0  0  0  0  0  0  0  0  0
  1 11  1  0  0  0  0
  3  6  1  0  0  0  0
  4  2  1  0  0  0  0
  4 41  1  1  0  0  0
  5  7  2  0  0  0  0
  6  5  1  0  0  0  0
  6 13  2  0  0  0  0
  7  4  1  0  0  0  0
  8  2  2  0  0  0  0
  9 15  1  0  0  0  0
 10  9  2  0  0  0  0
 10 14  1  0  0  0  0
 12  3  2  0  0  0  0
 12  9  1  0  0  0  0
 13  8  1  0  0  0  0
 14  1  2  0  0  0  0
 15 11  2  0  0  0  0
 15 13  1  0  0  0  0
 16 17  1  0  0  0  0
 16  3  1  0  0  0  0
 18 17  2  0  0  0  0
 19 18  1  0  0  0  0
 20 19  2  0  0  0  0
 20 21  1  0  0  0  0
 21 16  2  0  0  0  0
 22 20  1  0  0  0  0
 23 24  1  0  0  0  0
 23 22  1  0  0  0  0
 25 26  1  0  0  0  0
 25 24  1  0  0  0  0
 27 26  1  0  0  0  0
 28 27  1  1  0  0  0
 28 31  1  0  0  0  0
 28 33  1  0  0  0  0
 29 31  2  0  0  0  0
 31 30  1  0  0  0  0
 33 32  1  6  0  0  0
 34 33  1  0  0  0  0
 34 35  1  0  0  0  0
 35 36  1  1  0  0  0
 37 35  1  0  0  0  0
 37 38  1  0  0  0  0
 37 40  1  0  0  0  0
 39 37  1  0  0  0  0
 43 44  1  0  0  0  0
 44 41  1  1  0  0  0
 44 42  1  0  0  0  0
 45 48  1  6  0  0  0
 45 43  1  0  0  0  0
 45 46  1  0  0  0  0
 46 47  1  0  0  0  0
 47 42  2  0  0  0  0
 50 48  1  0  0  0  0
 50 49  1  0  0  0  0
 51 50  2  0  0  0  0
M  END
>  <MODEL>
2

>  <REMARK>
 VINA RESULT:      -8.5      1.232      1.776
  Name = 
  17 active torsions:
  status: ('A' for Active; 'I' for Inactive)
    1  A    between atoms: C_4  and  C_5
    2  A    between atoms: C_8  and  C_24
    3  A    between atoms: C_8  and  N_51
    4  A    between atoms: C_10  and  N_33
    5  A    between atoms: C_18  and  C_19
    6  A    between atoms: C_18  and  C_48
    7  A    between atoms: C_19  and  O_45
    8  A    between atoms: C_21  and  N_33
    9  A    between atoms: C_22  and  C_48
   10  A    between atoms: C_22  and  N_51
   11  A    between atoms: C_26  and  C_31
   12  A    between atoms: C_27  and  N_50
   13  A    between atoms: C_29  and  C_31
   14  A    between atoms: C_39  and  C_44
   15  A    between atoms: C_39  and  N_50
   16  A    between atoms: C_44  and  O_45
   17  A    between atoms: C_48  and  C_49
                            x       y       z     vdW  Elec       q    Type
                         _______ _______ _______ _____ _____    ______ ____

>  <TORSDO>
F 17

$$$$
=
 OpenBabel11032419223D

 51 55  0  0  1  0  0  0  0  0999 V2000
  180.9340  179.0290  143.2550 N   0  0  0  0  0  0  0  0  0  0  0  0
  185.8130  178.6840  146.2210 C   0  0  0  0  0  3  0  0  0  0  0  0
  185.7460  178.4250  141.7620 C   0  0  0  0  0  0  0  0  0  0  0  0
  186.8180  177.8060  146.0400 C   0  0  2  0  0  3  0  0  0  0  0  0
  186.3880  177.0200  143.7120 C   0  0  0  0  0  3  0  0  0  0  0  0
  185.8550  178.3480  143.2780 C   0  0  0  0  0  0  0  0  0  0  0  0
  186.8430  176.8110  144.9470 C   0  0  0  0  0  3  0  0  0  0  0  0
  184.6290  178.8720  145.3580 C   0  0  0  0  0  3  0  0  0  0  0  0
  183.3000  178.6970  141.9100 C   0  0  0  0  0  0  0  0  0  0  0  0
  182.0900  178.7900  141.2240 C   0  0  0  0  0  3  0  0  0  0  0  0
  182.0860  178.9490  143.9700 C   0  0  0  0  0  3  0  0  0  0  0  0
  184.5530  178.5600  141.1620 C   0  0  0  0  0  3  0  0  0  0  0  0
  184.5890  178.6750  144.0340 C   0  0  0  0  0  0  0  0  0  0  0  0
  180.9360  178.9510  141.9230 N   0  0  0  0  0  0  0  0  0  0  0  0
  183.3060  178.7820  143.3050 C   0  0  0  0  0  0  0  0  0  0  0  0
  186.9780  178.3770  140.9290 C   0  0  0  0  0  0  0  0  0  0  0  0
  188.2450  178.4490  141.5280 C   0  0  0  0  0  3  0  0  0  0  0  0
  189.4060  178.4100  140.7500 C   0  0  0  0  0  3  0  0  0  0  0  0
  189.3130  178.3030  139.3610 C   0  0  0  0  0  3  0  0  0  0  0  0
  188.0620  178.2360  138.7440 C   0  0  0  0  0  0  0  0  0  0  0  0
  186.9000  178.2730  139.5280 C   0  0  0  0  0  3  0  0  0  0  0  0
  187.9900  178.1360  137.3190 N   0  0  0  0  0  2  0  0  0  0  0  0
  188.7790  177.1820  136.5550 C   0  0  0  0  0  2  0  0  0  0  0  0
  188.0810  175.8360  136.5360 C   0  0  0  0  0  2  0  0  0  0  0  0
  187.3850  175.6790  135.3370 O   0  0  0  0  0  0  0  0  0  0  0  0
  186.4050  174.7290  135.6220 C   0  0  0  0  0  2  0  0  0  0  0  0
  185.9360  174.8970  137.0590 C   0  0  0  0  0  2  0  0  0  0  0  0
  184.4540  175.2770  137.1680 C   0  0  1  0  0  3  0  0  0  0  0  0
  184.2760  177.2330  135.6280 O   0  0  0  0  0  0  0  0  0  0  0  0
  183.8500  177.4950  137.8630 O   0  0  0  0  0  1  0  0  0  0  0  0
  184.1730  176.7280  136.9180 C   0  0  0  0  0  0  0  0  0  0  0  0
  183.5370  172.9010  137.0050 C   0  0  0  0  0  1  0  0  0  0  0  0
  183.4650  174.3250  136.4760 C   0  0  1  0  0  3  0  0  0  0  0  0
  182.1020  174.8220  136.5930 N   0  0  0  0  0  2  0  0  0  0  0  0
  181.5200  174.2450  137.7990 C   0  0  1  0  0  3  0  0  0  0  0  0
  181.5520  175.1850  138.8350 O   0  0  0  0  0  1  0  0  0  0  0  0
  180.0890  173.7610  137.5380 C   0  0  0  0  0  0  0  0  0  0  0  0
  180.0320  172.2450  137.4350 C   0  0  0  0  0  1  0  0  0  0  0  0
  179.2590  174.1780  138.5800 O   0  0  0  0  0  1  0  0  0  0  0  0
  179.5760  174.3610  136.2430 C   0  0  0  0  0  1  0  0  0  0  0  0
  187.8680  177.7260  147.0120 N   0  0  0  0  0  2  0  0  0  0  0  0
  190.1410  177.2600  147.6980 C   0  0  0  0  0  3  0  0  0  0  0  0
  189.5990  177.5970  145.2830 C   0  0  0  0  0  2  0  0  0  0  0  0
  189.2710  177.9980  146.7220 C   0  0  1  0  0  3  0  0  0  0  0  0
  191.1010  177.7610  145.0600 C   0  0  1  0  0  3  0  0  0  0  0  0
  191.8270  177.0090  146.0350 O   0  0  0  0  0  0  0  0  0  0  0  0
  191.3540  176.8290  147.3430 C   0  0  0  0  0  3  0  0  0  0  0  0
  191.4910  177.2970  143.6680 C   0  0  0  0  0  2  0  0  0  0  0  0
  192.1660  174.9360  144.1090 O   0  0  0  0  0  1  0  0  0  0  0  0
  191.2810  175.8280  143.5190 C   0  0  0  0  0  0  0  0  0  0  0  0
  190.2820  175.3970  142.8870 O   0  0  0  0  0  0  0  0  0  0  0  0
  1 11  1  0  0  0  0
  3  6  1  0  0  0  0
  4  2  1  0  0  0  0
  4 41  1  1  0  0  0
  5  7  2  0  0  0  0
  6  5  1  0  0  0  0
  6 13  2  0  0  0  0
  7  4  1  0  0  0  0
  8  2  2  0  0  0  0
  9 15  1  0  0  0  0
 10  9  2  0  0  0  0
 10 14  1  0  0  0  0
 12  3  2  0  0  0  0
 12  9  1  0  0  0  0
 13  8  1  0  0  0  0
 14  1  2  0  0  0  0
 15 11  2  0  0  0  0
 15 13  1  0  0  0  0
 16 17  1  0  0  0  0
 16  3  1  0  0  0  0
 18 17  2  0  0  0  0
 19 18  1  0  0  0  0
 20 19  2  0  0  0  0
 20 21  1  0  0  0  0
 21 16  2  0  0  0  0
 22 20  1  0  0  0  0
 23 22  1  0  0  0  0
 24 23  1  0  0  0  0
 25 26  1  0  0  0  0
 25 24  1  0  0  0  0
 26 27  1  0  0  0  0
 28 27  1  6  0  0  0
 29 31  2  0  0  0  0
 31 28  1  0  0  0  0
 31 30  1  0  0  0  0
 33 34  1  0  0  0  0
 33 32  1  1  0  0  0
 33 28  1  0  0  0  0
 34 35  1  0  0  0  0
 35 36  1  1  0  0  0
 37 35  1  0  0  0  0
 37 39  1  0  0  0  0
 38 37  1  0  0  0  0
 40 37  1  0  0  0  0
 43 44  1  0  0  0  0
 44 41  1  1  0  0  0
 44 42  1  0  0  0  0
 45 48  1  6  0  0  0
 45 43  1  0  0  0  0
 45 46  1  0  0  0  0
 46 47  1  0  0  0  0
 47 42  2  0  0  0  0
 50 48  1  0  0  0  0
 50 49  1  0  0  0  0
 51 50  2  0  0  0  0
M  END
>  <MODEL>
3

>  <REMARK>
 VINA RESULT:      -8.2      1.270      2.194
  Name = 
  17 active torsions:
  status: ('A' for Active; 'I' for Inactive)
    1  A    between atoms: C_4  and  C_5
    2  A    between atoms: C_8  and  C_24
    3  A    between atoms: C_8  and  N_51
    4  A    between atoms: C_10  and  N_33
    5  A    between atoms: C_18  and  C_19
    6  A    between atoms: C_18  and  C_48
    7  A    between atoms: C_19  and  O_45
    8  A    between atoms: C_21  and  N_33
    9  A    between atoms: C_22  and  C_48
   10  A    between atoms: C_22  and  N_51
   11  A    between atoms: C_26  and  C_31
   12  A    between atoms: C_27  and  N_50
   13  A    between atoms: C_29  and  C_31
   14  A    between atoms: C_39  and  C_44
   15  A    between atoms: C_39  and  N_50
   16  A    between atoms: C_44  and  O_45
   17  A    between atoms: C_48  and  C_49
                            x       y       z     vdW  Elec       q    Type
                         _______ _______ _______ _____ _____    ______ ____

>  <TORSDO>
F 17

$$$$
=
 OpenBabel11032419223D

 51 55  0  0  1  0  0  0  0  0999 V2000
  192.2480  176.4130  146.7510 N   0  0  0  0  0  0  0  0  0  0  0  0
  190.4330  178.2850  141.6580 C   0  0  0  0  0  3  0  0  0  0  0  0
  187.6420  177.7670  145.1070 C   0  0  0  0  0  0  0  0  0  0  0  0
  189.3330  177.8920  140.9890 C   0  0  0  0  0  0  0  0  0  0  0  0
  187.9740  176.8660  142.8110 C   0  0  0  0  0  3  0  0  0  0  0  0
  188.4800  177.8280  143.8380 C   0  0  2  0  0  3  0  0  0  0  0  0
  188.3480  176.9350  141.5340 C   0  0  0  0  0  3  0  0  0  0  0  0
  190.8160  177.9180  143.0370 C   0  0  0  0  0  3  0  0  0  0  0  0
  189.5940  177.0120  146.4100 C   0  0  0  0  0  0  0  0  0  0  0  0
  190.0770  176.5570  147.6350 C   0  0  0  0  0  3  0  0  0  0  0  0
  191.8290  176.8580  145.5370 C   0  0  0  0  0  3  0  0  0  0  0  0
  188.1770  177.3620  146.2690 C   0  0  0  0  0  3  0  0  0  0  0  0
  189.9660  177.6460  144.0360 C   0  0  0  0  0  0  0  0  0  0  0  0
  191.3970  176.2670  147.7680 N   0  0  0  0  0  0  0  0  0  0  0  0
  190.4790  177.1720  145.3400 C   0  0  0  0  0  0  0  0  0  0  0  0
  186.2140  178.1840  145.0710 C   0  0  0  0  0  0  0  0  0  0  0  0
  185.4930  178.3590  146.2620 C   0  0  0  0  0  3  0  0  0  0  0  0
  184.1510  178.7450  146.2340 C   0  0  0  0  0  3  0  0  0  0  0  0
  183.5090  178.9570  145.0120 C   0  0  0  0  0  3  0  0  0  0  0  0
  184.2060  178.7820  143.8140 C   0  0  0  0  0  0  0  0  0  0  0  0
  185.5540  178.3970  143.8470 C   0  0  0  0  0  3  0  0  0  0  0  0
  183.5270  178.9960  142.5740 N   0  0  0  0  0  2  0  0  0  0  0  0
  183.8710  178.2840  141.3530 C   0  0  0  0  0  2  0  0  0  0  0  0
  185.0230  178.9840  140.6570 C   0  0  0  0  0  2  0  0  0  0  0  0
  184.5340  179.8110  139.6450 O   0  0  0  0  0  0  0  0  0  0  0  0
  183.4510  179.1140  139.1150 C   0  0  0  0  0  2  0  0  0  0  0  0
  183.8750  178.4110  137.8340 C   0  0  0  0  0  2  0  0  0  0  0  0
  182.8360  177.4030  137.3280 C   0  0  1  0  0  3  0  0  0  0  0  0
  180.4130  177.9750  137.4990 O   0  0  0  0  0  1  0  0  0  0  0  0
  181.6070  178.5990  135.6480 O   0  0  0  0  0  0  0  0  0  0  0  0
  181.5940  178.0300  136.7700 C   0  0  0  0  0  0  0  0  0  0  0  0
  184.3840  176.7000  135.4250 C   0  0  0  0  0  1  0  0  0  0  0  0
  183.3840  176.2450  136.4760 C   0  0  1  0  0  3  0  0  0  0  0  0
  183.9890  175.2260  137.3190 N   0  0  0  0  0  2  0  0  0  0  0  0
  183.1620  174.0280  137.2320 C   0  0  1  0  0  3  0  0  0  0  0  0
  182.1140  174.2430  136.3320 O   0  0  0  0  0  1  0  0  0  0  0  0
  184.0010  172.8140  136.8190 C   0  0  0  0  0  0  0  0  0  0  0  0
  183.2140  171.5220  136.9790 C   0  0  0  0  0  1  0  0  0  0  0  0
  184.3910  172.9480  135.4860 O   0  0  0  0  0  1  0  0  0  0  0  0
  185.2480  172.7370  137.6810 C   0  0  0  0  0  1  0  0  0  0  0  0
  189.1480  178.3090  139.6310 N   0  0  0  0  0  2  0  0  0  0  0  0
  187.7330  178.2670  137.6690 C   0  0  0  0  0  3  0  0  0  0  0  0
  189.7410  176.7860  137.8050 C   0  0  0  0  0  2  0  0  0  0  0  0
  188.6040  177.4540  138.5820 C   0  0  1  0  0  3  0  0  0  0  0  0
  189.1420  176.0160  136.6290 C   0  0  1  0  0  3  0  0  0  0  0  0
  188.3450  176.8880  135.8250 O   0  0  0  0  0  0  0  0  0  0  0  0
  187.6160  177.9530  136.3760 C   0  0  0  0  0  3  0  0  0  0  0  0
  190.2380  175.4010  135.7780 C   0  0  0  0  0  2  0  0  0  0  0  0
  190.4110  173.5220  137.4110 O   0  0  0  0  0  1  0  0  0  0  0  0
  191.0440  174.4290  136.5700 C   0  0  0  0  0  0  0  0  0  0  0  0
  192.2960  174.4060  136.4520 O   0  0  0  0  0  0  0  0  0  0  0  0
  1 14  1  0  0  0  0
  2  8  1  0  0  0  0
  3 12  2  0  0  0  0
  4  7  1  0  0  0  0
  4  2  2  0  0  0  0
  6  5  1  6  0  0  0
  6 13  1  0  0  0  0
  6  3  1  0  0  0  0
  7  5  2  0  0  0  0
  8 13  2  0  0  0  0
  9 10  1  0  0  0  0
 10 14  2  0  0  0  0
 11  1  2  0  0  0  0
 12  9  1  0  0  0  0
 13 15  1  0  0  0  0
 15 11  1  0  0  0  0
 15  9  2  0  0  0  0
 16  3  1  0  0  0  0
 16 17  1  0  0  0  0
 18 17  2  0  0  0  0
 19 18  1  0  0  0  0
 20 21  1  0  0  0  0
 20 19  2  0  0  0  0
 21 16  2  0  0  0  0
 22 20  1  0  0  0  0
 23 22  1  0  0  0  0
 24 23  1  0  0  0  0
 25 24  1  0  0  0  0
 26 25  1  0  0  0  0
 27 26  1  0  0  0  0
 28 27  1  6  0  0  0
 30 31  2  0  0  0  0
 31 28  1  0  0  0  0
 31 29  1  0  0  0  0
 33 32  1  6  0  0  0
 33 34  1  0  0  0  0
 33 28  1  0  0  0  0
 35 36  1  6  0  0  0
 35 34  1  0  0  0  0
 37 38  1  0  0  0  0
 37 35  1  0  0  0  0
 37 40  1  0  0  0  0
 39 37  1  0  0  0  0
 41  4  1  0  0  0  0
 42 44  1  0  0  0  0
 43 44  1  0  0  0  0
 44 41  1  1  0  0  0
 45 48  1  6  0  0  0
 45 43  1  0  0  0  0
 46 47  1  0  0  0  0
 46 45  1  0  0  0  0
 47 42  2  0  0  0  0
 48 50  1  0  0  0  0
 50 49  1  0  0  0  0
 51 50  2  0  0  0  0
M  END
>  <MODEL>
4

>  <REMARK>
 VINA RESULT:      -8.2      2.414      6.997
  Name = 
  17 active torsions:
  status: ('A' for Active; 'I' for Inactive)
    1  A    between atoms: C_4  and  C_5
    2  A    between atoms: C_8  and  C_24
    3  A    between atoms: C_8  and  N_51
    4  A    between atoms: C_10  and  N_33
    5  A    between atoms: C_18  and  C_19
    6  A    between atoms: C_18  and  C_48
    7  A    between atoms: C_19  and  O_45
    8  A    between atoms: C_21  and  N_33
    9  A    between atoms: C_22  and  C_48
   10  A    between atoms: C_22  and  N_51
   11  A    between atoms: C_26  and  C_31
   12  A    between atoms: C_27  and  N_50
   13  A    between atoms: C_29  and  C_31
   14  A    between atoms: C_39  and  C_44
   15  A    between atoms: C_39  and  N_50
   16  A    between atoms: C_44  and  O_45
   17  A    between atoms: C_48  and  C_49
                            x       y       z     vdW  Elec       q    Type
                         _______ _______ _______ _____ _____    ______ ____

>  <TORSDO>
F 17

$$$$
=
 OpenBabel11032419223D

 51 55  0  0  1  0  0  0  0  0999 V2000
  192.4010  176.1260  146.9600 N   0  0  0  0  0  0  0  0  0  0  0  0
  190.7490  177.8840  141.7720 C   0  0  0  0  0  3  0  0  0  0  0  0
  187.8840  177.6090  145.1880 C   0  0  0  0  0  0  0  0  0  0  0  0
  189.6440  177.5130  141.0980 C   0  0  0  0  0  0  0  0  0  0  0  0
  188.2140  176.6120  142.9320 C   0  0  0  0  0  3  0  0  0  0  0  0
  188.7430  177.5890  143.9330 C   0  0  2  0  0  3  0  0  0  0  0  0
  188.6110  176.6180  141.6600 C   0  0  0  0  0  3  0  0  0  0  0  0
  191.0940  177.5520  143.1700 C   0  0  0  0  0  3  0  0  0  0  0  0
  189.7810  176.8220  146.5510 C   0  0  0  0  0  0  0  0  0  0  0  0
  190.2240  176.3930  147.8000 C   0  0  0  0  0  3  0  0  0  0  0  0
  192.0210  176.5430  145.7240 C   0  0  0  0  0  3  0  0  0  0  0  0
  188.3830  177.2250  146.3730 C   0  0  0  0  0  3  0  0  0  0  0  0
  190.2170  177.3530  144.1630 C   0  0  0  0  0  0  0  0  0  0  0  0
  191.5290  176.0530  147.9670 N   0  0  0  0  0  0  0  0  0  0  0  0
  190.6890  176.9050  145.4920 C   0  0  0  0  0  0  0  0  0  0  0  0
  186.4750  178.0840  145.1110 C   0  0  0  0  0  0  0  0  0  0  0  0
  185.7360  178.3080  146.2830 C   0  0  0  0  0  3  0  0  0  0  0  0
  184.4110  178.7490  146.2170 C   0  0  0  0  0  3  0  0  0  0  0  0
  183.8070  178.9660  144.9770 C   0  0  0  0  0  3  0  0  0  0  0  0
  184.5220  178.7420  143.7990 C   0  0  0  0  0  0  0  0  0  0  0  0
  185.8520  178.3020  143.8690 C   0  0  0  0  0  3  0  0  0  0  0  0
  183.8810  178.9620  142.5400 N   0  0  0  0  0  2  0  0  0  0  0  0
  184.1880  178.1820  141.3510 C   0  0  0  0  0  2  0  0  0  0  0  0
  184.9340  179.0430  140.3490 C   0  0  0  0  0  2  0  0  0  0  0  0
  184.7230  178.5600  139.0580 O   0  0  0  0  0  0  0  0  0  0  0  0
  183.4220  178.9510  138.7450 C   0  0  0  0  0  2  0  0  0  0  0  0
  182.7830  177.9130  137.8350 C   0  0  0  0  0  2  0  0  0  0  0  0
  182.6030  176.5480  138.5130 C   0  0  1  0  0  3  0  0  0  0  0  0
  180.1540  177.0230  138.4700 O   0  0  0  0  0  0  0  0  0  0  0  0
  180.9770  175.3840  139.8410 O   0  0  0  0  0  1  0  0  0  0  0  0
  181.2060  176.2760  138.9830 C   0  0  0  0  0  0  0  0  0  0  0  0
  182.3590  174.7020  136.7680 C   0  0  0  0  0  1  0  0  0  0  0  0
  183.2630  175.3550  137.8010 C   0  0  1  0  0  3  0  0  0  0  0  0
  184.5130  175.7550  137.1740 N   0  0  0  0  0  2  0  0  0  0  0  0
  184.8700  174.7310  136.2000 C   0  0  1  0  0  3  0  0  0  0  0  0
  185.0590  175.3200  134.9450 O   0  0  0  0  0  1  0  0  0  0  0  0
  186.1220  173.9670  136.6430 C   0  0  0  0  0  0  0  0  0  0  0  0
  186.8290  173.3340  135.4550 C   0  0  0  0  0  1  0  0  0  0  0  0
  187.0010  174.8430  137.2820 O   0  0  0  0  0  1  0  0  0  0  0  0
  185.7340  172.8750  137.6220 C   0  0  0  0  0  1  0  0  0  0  0  0
  189.4990  177.8870  139.7230 N   0  0  0  0  0  2  0  0  0  0  0  0
  189.2180  177.6650  137.3300 C   0  0  0  0  0  3  0  0  0  0  0  0
  190.8050  176.1740  138.5560 C   0  0  0  0  0  2  0  0  0  0  0  0
  189.4800  176.9370  138.6170 C   0  0  1  0  0  3  0  0  0  0  0  0
  190.8060  175.2960  137.3050 C   0  0  1  0  0  3  0  0  0  0  0  0
  190.5590  176.0930  136.1450 O   0  0  0  0  0  0  0  0  0  0  0  0
  189.7260  177.2210  136.1770 C   0  0  0  0  0  3  0  0  0  0  0  0
  192.1360  174.5780  137.1550 C   0  0  0  0  0  2  0  0  0  0  0  0
  193.6170  176.5790  137.3350 O   0  0  0  0  0  1  0  0  0  0  0  0
  193.1720  175.4920  136.5940 C   0  0  0  0  0  0  0  0  0  0  0  0
  193.6690  175.2580  135.4620 O   0  0  0  0  0  0  0  0  0  0  0  0
  1 14  1  0  0  0  0
  2  8  1  0  0  0  0
  3 12  2  0  0  0  0
  4  7  1  0  0  0  0
  4  2  2  0  0  0  0
  6  5  1  6  0  0  0
  6 13  1  0  0  0  0
  6  3  1  0  0  0  0
  7  5  2  0  0  0  0
  8 13  2  0  0  0  0
  9 10  1  0  0  0  0
 10 14  2  0  0  0  0
 11  1  2  0  0  0  0
 12  9  1  0  0  0  0
 13 15  1  0  0  0  0
 15 11  1  0  0  0  0
 15  9  2  0  0  0  0
 16  3  1  0  0  0  0
 16 17  1  0  0  0  0
 18 17  2  0  0  0  0
 19 18  1  0  0  0  0
 20 21  1  0  0  0  0
 20 19  2  0  0  0  0
 21 16  2  0  0  0  0
 22 20  1  0  0  0  0
 23 22  1  0  0  0  0
 24 23  1  0  0  0  0
 25 24  1  0  0  0  0
 26 25  1  0  0  0  0
 27 26  1  0  0  0  0
 28 27  1  6  0  0  0
 28 31  1  0  0  0  0
 29 31  2  0  0  0  0
 31 30  1  0  0  0  0
 33 32  1  6  0  0  0
 33 28  1  0  0  0  0
 34 33  1  0  0  0  0
 35 36  1  6  0  0  0
 35 37  1  0  0  0  0
 35 34  1  0  0  0  0
 37 39  1  0  0  0  0
 37 40  1  0  0  0  0
 38 37  1  0  0  0  0
 41  4  1  0  0  0  0
 42 44  1  0  0  0  0
 43 44  1  0  0  0  0
 44 41  1  1  0  0  0
 45 48  1  6  0  0  0
 45 43  1  0  0  0  0
 46 47  1  0  0  0  0
 46 45  1  0  0  0  0
 47 42  2  0  0  0  0
 50 48  1  0  0  0  0
 50 49  1  0  0  0  0
 51 50  2  0  0  0  0
M  END
>  <MODEL>
5

>  <REMARK>
 VINA RESULT:      -8.0      2.555      6.961
  Name = 
  17 active torsions:
  status: ('A' for Active; 'I' for Inactive)
    1  A    between atoms: C_4  and  C_5
    2  A    between atoms: C_8  and  C_24
    3  A    between atoms: C_8  and  N_51
    4  A    between atoms: C_10  and  N_33
    5  A    between atoms: C_18  and  C_19
    6  A    between atoms: C_18  and  C_48
    7  A    between atoms: C_19  and  O_45
    8  A    between atoms: C_21  and  N_33
    9  A    between atoms: C_22  and  C_48
   10  A    between atoms: C_22  and  N_51
   11  A    between atoms: C_26  and  C_31
   12  A    between atoms: C_27  and  N_50
   13  A    between atoms: C_29  and  C_31
   14  A    between atoms: C_39  and  C_44
   15  A    between atoms: C_39  and  N_50
   16  A    between atoms: C_44  and  O_45
   17  A    between atoms: C_48  and  C_49
                            x       y       z     vdW  Elec       q    Type
                         _______ _______ _______ _____ _____    ______ ____

>  <TORSDO>
F 17

$$$$
=
 OpenBabel11032419223D

 51 55  0  0  1  0  0  0  0  0999 V2000
  189.4830  177.8350  148.7460 N   0  0  0  0  0  0  0  0  0  0  0  0
  190.6980  177.8880  143.1560 C   0  0  0  0  0  3  0  0  0  0  0  0
  186.4960  178.1140  144.6540 C   0  0  0  0  0  0  0  0  0  0  0  0
  190.0830  177.1930  142.1800 C   0  0  0  0  0  0  0  0  0  0  0  0
  187.9140  176.6130  143.2660 C   0  0  0  0  0  3  0  0  0  0  0  0
  187.8720  177.8870  144.0460 C   0  0  2  0  0  3  0  0  0  0  0  0
  188.9000  176.3390  142.4120 C   0  0  0  0  0  3  0  0  0  0  0  0
  190.2850  177.9940  144.5700 C   0  0  0  0  0  3  0  0  0  0  0  0
  187.4360  178.0050  146.9300 C   0  0  0  0  0  0  0  0  0  0  0  0
  187.1820  177.9930  148.3000 C   0  0  0  0  0  3  0  0  0  0  0  0
  189.7840  177.8470  147.4220 C   0  0  0  0  0  3  0  0  0  0  0  0
  186.3230  178.1370  145.9840 C   0  0  0  0  0  3  0  0  0  0  0  0
  189.0250  177.9400  145.0210 C   0  0  0  0  0  0  0  0  0  0  0  0
  188.2210  177.9050  149.1720 N   0  0  0  0  0  0  0  0  0  0  0  0
  188.7550  177.9360  146.4760 C   0  0  0  0  0  0  0  0  0  0  0  0
  185.3240  178.3400  143.7650 C   0  0  0  0  0  0  0  0  0  0  0  0
  184.0630  178.6280  144.3090 C   0  0  0  0  0  3  0  0  0  0  0  0
  182.9580  178.8350  143.4800 C   0  0  0  0  0  3  0  0  0  0  0  0
  183.0990  178.7520  142.0930 C   0  0  0  0  0  3  0  0  0  0  0  0
  184.3430  178.4600  141.5300 C   0  0  0  0  0  0  0  0  0  0  0  0
  185.4500  178.2550  142.3660 C   0  0  0  0  0  3  0  0  0  0  0  0
  184.4630  178.3710  140.1080 N   0  0  0  0  0  2  0  0  0  0  0  0
  183.5400  177.6060  139.2840 C   0  0  0  0  0  2  0  0  0  0  0  0
  184.2480  177.1220  138.0340 C   0  0  0  0  0  2  0  0  0  0  0  0
  183.5360  177.5190  136.9010 O   0  0  0  0  0  0  0  0  0  0  0  0
  182.3880  176.7290  136.9130 C   0  0  0  0  0  2  0  0  0  0  0  0
  182.6750  175.4020  136.2270 C   0  0  0  0  0  2  0  0  0  0  0  0
  182.3830  174.1880  137.1180 C   0  0  1  0  0  3  0  0  0  0  0  0
  180.2990  173.3390  138.1960 O   0  0  0  0  0  1  0  0  0  0  0  0
  180.3930  173.5800  135.9210 O   0  0  0  0  0  0  0  0  0  0  0  0
  180.9720  173.6890  137.0330 C   0  0  0  0  0  0  0  0  0  0  0  0
  182.8560  171.7050  136.7660 C   0  0  0  0  0  1  0  0  0  0  0  0
  183.4390  173.0700  137.0940 C   0  0  1  0  0  3  0  0  0  0  0  0
  184.5040  173.3860  136.1530 N   0  0  0  0  0  2  0  0  0  0  0  0
  185.7230  173.6120  136.9200 C   0  0  1  0  0  3  0  0  0  0  0  0
  185.6610  172.9010  138.1230 O   0  0  0  0  0  1  0  0  0  0  0  0
  186.9610  173.2150  136.1090 C   0  0  0  0  0  0  0  0  0  0  0  0
  188.0950  172.7710  137.0190 C   0  0  0  0  0  1  0  0  0  0  0  0
  186.6350  172.1680  135.2440 O   0  0  0  0  0  1  0  0  0  0  0  0
  187.4290  174.3960  135.2800 C   0  0  0  0  0  1  0  0  0  0  0  0
  190.6570  177.1620  140.8680 N   0  0  0  0  0  2  0  0  0  0  0  0
  189.2650  178.3190  139.2620 C   0  0  0  0  0  3  0  0  0  0  0  0
  190.7770  176.4730  138.5200 C   0  0  0  0  0  2  0  0  0  0  0  0
  189.8830  177.0050  139.6420 C   0  0  1  0  0  3  0  0  0  0  0  0
  189.9730  176.4580  137.2210 C   0  0  1  0  0  3  0  0  0  0  0  0
  189.4440  177.7580  136.9540 O   0  0  0  0  0  0  0  0  0  0  0  0
  189.0510  178.6290  137.9810 C   0  0  0  0  0  3  0  0  0  0  0  0
  190.8420  176.0140  136.0580 C   0  0  0  0  0  2  0  0  0  0  0  0
  191.6310  174.0280  137.3470 O   0  0  0  0  0  1  0  0  0  0  0  0
  191.1570  174.5600  136.1550 C   0  0  0  0  0  0  0  0  0  0  0  0
  190.9600  173.8070  135.1660 O   0  0  0  0  0  0  0  0  0  0  0  0
  1 14  1  0  0  0  0
  2  8  1  0  0  0  0
  3 12  2  0  0  0  0
  4  7  1  0  0  0  0
  4  2  2  0  0  0  0
  6  5  1  1  0  0  0
  6  3  1  0  0  0  0
  6 13  1  0  0  0  0
  7  5  2  0  0  0  0
  8 13  2  0  0  0  0
  9 10  1  0  0  0  0
 10 14  2  0  0  0  0
 11  1  2  0  0  0  0
 12  9  1  0  0  0  0
 13 15  1  0  0  0  0
 15  9  2  0  0  0  0
 15 11  1  0  0  0  0
 16 17  1  0  0  0  0
 16  3  1  0  0  0  0
 18 17  2  0  0  0  0
 19 18  1  0  0  0  0
 20 19  2  0  0  0  0
 20 21  1  0  0  0  0
 21 16  2  0  0  0  0
 22 20  1  0  0  0  0
 23 22  1  0  0  0  0
 24 23  1  0  0  0  0
 25 26  1  0  0  0  0
 25 24  1  0  0  0  0
 27 26  1  0  0  0  0
 28 27  1  6  0  0  0
 30 31  2  0  0  0  0
 31 28  1  0  0  0  0
 31 29  1  0  0  0  0
 33 32  1  6  0  0  0
 33 28  1  0  0  0  0
 34 35  1  0  0  0  0
 34 33  1  0  0  0  0
 35 36  1  1  0  0  0
 37 35  1  0  0  0  0
 37 38  1  0  0  0  0
 39 37  1  0  0  0  0
 40 37  1  0  0  0  0
 41  4  1  0  0  0  0
 42 44  1  0  0  0  0
 43 44  1  0  0  0  0
 44 41  1  1  0  0  0
 45 48  1  6  0  0  0
 45 43  1  0  0  0  0
 46 45  1  0  0  0  0
 46 47  1  0  0  0  0
 47 42  2  0  0  0  0
 48 50  1  0  0  0  0
 50 49  1  0  0  0  0
 51 50  2  0  0  0  0
M  END
>  <MODEL>
6

>  <REMARK>
 VINA RESULT:      -7.8      2.479      6.159
  Name = 
  17 active torsions:
  status: ('A' for Active; 'I' for Inactive)
    1  A    between atoms: C_4  and  C_5
    2  A    between atoms: C_8  and  C_24
    3  A    between atoms: C_8  and  N_51
    4  A    between atoms: C_10  and  N_33
    5  A    between atoms: C_18  and  C_19
    6  A    between atoms: C_18  and  C_48
    7  A    between atoms: C_19  and  O_45
    8  A    between atoms: C_21  and  N_33
    9  A    between atoms: C_22  and  C_48
   10  A    between atoms: C_22  and  N_51
   11  A    between atoms: C_26  and  C_31
   12  A    between atoms: C_27  and  N_50
   13  A    between atoms: C_29  and  C_31
   14  A    between atoms: C_39  and  C_44
   15  A    between atoms: C_39  and  N_50
   16  A    between atoms: C_44  and  O_45
   17  A    between atoms: C_48  and  C_49
                            x       y       z     vdW  Elec       q    Type
                         _______ _______ _______ _____ _____    ______ ____

>  <TORSDO>
F 17

$$$$
=
 OpenBabel11032419223D

 51 55  0  0  1  0  0  0  0  0999 V2000
  189.9460  177.9790  148.8250 N   0  0  0  0  0  0  0  0  0  0  0  0
  190.5330  177.1770  143.1920 C   0  0  0  0  0  3  0  0  0  0  0  0
  186.5720  178.1000  145.0380 C   0  0  0  0  0  0  0  0  0  0  0  0
  189.7430  176.4450  142.3850 C   0  0  0  0  0  0  0  0  0  0  0  0
  187.6570  176.2740  143.7420 C   0  0  0  0  0  3  0  0  0  0  0  0
  187.8400  177.6330  144.3390 C   0  0  2  0  0  3  0  0  0  0  0  0
  188.5070  175.7770  142.8440 C   0  0  0  0  0  3  0  0  0  0  0  0
  190.2930  177.5110  144.6110 C   0  0  0  0  0  3  0  0  0  0  0  0
  187.7410  178.1650  147.2080 C   0  0  0  0  0  0  0  0  0  0  0  0
  187.6410  178.3580  148.5840 C   0  0  0  0  0  3  0  0  0  0  0  0
  190.0990  177.7880  147.4900 C   0  0  0  0  0  3  0  0  0  0  0  0
  186.5510  178.3110  146.3630 C   0  0  0  0  0  3  0  0  0  0  0  0
  189.0920  177.6670  145.1830 C   0  0  0  0  0  0  0  0  0  0  0  0
  188.7540  178.2550  149.3570 N   0  0  0  0  0  0  0  0  0  0  0  0
  188.9870  177.8800  146.6430 C   0  0  0  0  0  0  0  0  0  0  0  0
  185.3400  178.3520  144.2420 C   0  0  0  0  0  0  0  0  0  0  0  0
  184.1550  178.7610  144.8750 C   0  0  0  0  0  3  0  0  0  0  0  0
  182.9940  178.9940  144.1340 C   0  0  0  0  0  3  0  0  0  0  0  0
  183.0010  178.8160  142.7490 C   0  0  0  0  0  3  0  0  0  0  0  0
  184.1660  178.4020  142.1000 C   0  0  0  0  0  0  0  0  0  0  0  0
  185.3310  178.1720  142.8470 C   0  0  0  0  0  3  0  0  0  0  0  0
  184.1480  178.2170  140.6830 N   0  0  0  0  0  2  0  0  0  0  0  0
  183.5320  179.1680  139.7700 C   0  0  0  0  0  2  0  0  0  0  0  0
  184.2720  179.1630  138.4460 C   0  0  0  0  0  2  0  0  0  0  0  0
  184.3900  177.8560  137.9730 O   0  0  0  0  0  0  0  0  0  0  0  0
  183.1520  177.5780  137.3970 C   0  0  0  0  0  2  0  0  0  0  0  0
  183.1930  176.2070  136.7390 C   0  0  0  0  0  2  0  0  0  0  0  0
  182.1230  175.2480  137.2780 C   0  0  1  0  0  3  0  0  0  0  0  0
  180.2010  176.1920  138.5600 O   0  0  0  0  0  0  0  0  0  0  0  0
  182.1310  175.6170  139.6500 O   0  0  0  0  0  1  0  0  0  0  0  0
  181.4960  175.6900  138.5660 C   0  0  0  0  0  0  0  0  0  0  0  0
  180.9220  175.6600  135.0640 C   0  0  0  0  0  1  0  0  0  0  0  0
  181.1130  174.7210  136.2440 C   0  0  1  0  0  3  0  0  0  0  0  0
  181.5070  173.4050  135.7640 N   0  0  0  0  0  2  0  0  0  0  0  0
  182.1620  172.7080  136.8650 C   0  0  1  0  0  3  0  0  0  0  0  0
  181.2650  171.8130  137.4580 O   0  0  0  0  0  1  0  0  0  0  0  0
  183.4220  171.9820  136.3790 C   0  0  0  0  0  0  0  0  0  0  0  0
  184.6810  172.7040  136.8340 C   0  0  0  0  0  1  0  0  0  0  0  0
  183.4350  170.6820  136.8840 O   0  0  0  0  0  1  0  0  0  0  0  0
  183.4180  171.9110  134.8640 C   0  0  0  0  0  1  0  0  0  0  0  0
  190.1610  176.1790  141.0400 N   0  0  0  0  0  2  0  0  0  0  0  0
  191.2230  176.7540  138.9440 C   0  0  0  0  0  3  0  0  0  0  0  0
  188.8630  177.4430  139.3910 C   0  0  0  0  0  2  0  0  0  0  0  0
  190.2460  177.1920  139.9960 C   0  0  1  0  0  3  0  0  0  0  0  0
  189.0130  178.3990  138.2090 C   0  0  1  0  0  3  0  0  0  0  0  0
  189.9550  177.8770  137.2700 O   0  0  0  0  0  0  0  0  0  0  0  0
  191.0650  177.1190  137.6690 C   0  0  0  0  0  3  0  0  0  0  0  0
  187.6760  178.6160  137.5220 C   0  0  0  0  0  2  0  0  0  0  0  0
  187.1910  177.6920  135.2550 O   0  0  0  0  0  0  0  0  0  0  0  0
  187.3540  177.4760  136.6170 C   0  0  0  0  0  0  0  0  0  0  0  0
  187.2630  176.3100  137.0830 O   0  0  0  0  0  1  0  0  0  0  0  0
  1 14  1  0  0  0  0
  2  8  1  0  0  0  0
  3 12  2  0  0  0  0
  4  7  1  0  0  0  0
  4  2  2  0  0  0  0
  6  5  1  1  0  0  0
  6  3  1  0  0  0  0
  6 13  1  0  0  0  0
  7  5  2  0  0  0  0
  8 13  2  0  0  0  0
  9 10  1  0  0  0  0
 10 14  2  0  0  0  0
 11  1  2  0  0  0  0
 12  9  1  0  0  0  0
 13 15  1  0  0  0  0
 15  9  2  0  0  0  0
 15 11  1  0  0  0  0
 16 17  1  0  0  0  0
 16  3  1  0  0  0  0
 18 17  2  0  0  0  0
 19 18  1  0  0  0  0
 20 19  2  0  0  0  0
 20 21  1  0  0  0  0
 21 16  2  0  0  0  0
 22 20  1  0  0  0  0
 23 22  1  0  0  0  0
 24 23  1  0  0  0  0
 25 24  1  0  0  0  0
 26 25  1  0  0  0  0
 27 26  1  0  0  0  0
 28 27  1  6  0  0  0
 28 31  1  0  0  0  0
 29 31  2  0  0  0  0
 31 30  1  0  0  0  0
 33 32  1  6  0  0  0
 33 28  1  0  0  0  0
 34 33  1  0  0  0  0
 34 35  1  0  0  0  0
 35 36  1  6  0  0  0
 37 38  1  0  0  0  0
 37 35  1  0  0  0  0
 37 39  1  0  0  0  0
 40 37  1  0  0  0  0
 41  4  1  0  0  0  0
 42 44  1  0  0  0  0
 43 44  1  0  0  0  0
 44 41  1  1  0  0  0
 45 48  1  6  0  0  0
 45 43  1  0  0  0  0
 46 47  1  0  0  0  0
 46 45  1  0  0  0  0
 47 42  2  0  0  0  0
 49 50  2  0  0  0  0
 50 51  1  0  0  0  0
 50 48  1  0  0  0  0
M  END
>  <MODEL>
7

>  <REMARK>
 VINA RESULT:      -7.6      2.627      6.327
  Name = 
  17 active torsions:
  status: ('A' for Active; 'I' for Inactive)
    1  A    between atoms: C_4  and  C_5
    2  A    between atoms: C_8  and  C_24
    3  A    between atoms: C_8  and  N_51
    4  A    between atoms: C_10  and  N_33
    5  A    between atoms: C_18  and  C_19
    6  A    between atoms: C_18  and  C_48
    7  A    between atoms: C_19  and  O_45
    8  A    between atoms: C_21  and  N_33
    9  A    between atoms: C_22  and  C_48
   10  A    between atoms: C_22  and  N_51
   11  A    between atoms: C_26  and  C_31
   12  A    between atoms: C_27  and  N_50
   13  A    between atoms: C_29  and  C_31
   14  A    between atoms: C_39  and  C_44
   15  A    between atoms: C_39  and  N_50
   16  A    between atoms: C_44  and  O_45
   17  A    between atoms: C_48  and  C_49
                            x       y       z     vdW  Elec       q    Type
                         _______ _______ _______ _____ _____    ______ ____

>  <TORSDO>
F 17

$$$$
=
 OpenBabel11032419223D

 51 55  0  0  1  0  0  0  0  0999 V2000
  192.0300  176.5750  146.8260 N   0  0  0  0  0  0  0  0  0  0  0  0
  190.4030  178.2980  141.6190 C   0  0  0  0  0  3  0  0  0  0  0  0
  187.4820  177.8430  144.9680 C   0  0  0  0  0  0  0  0  0  0  0  0
  189.3330  177.8780  140.9170 C   0  0  0  0  0  0  0  0  0  0  0  0
  187.9110  176.8870  142.7120 C   0  0  0  0  0  3  0  0  0  0  0  0
  188.3680  177.8800  143.7320 C   0  0  2  0  0  3  0  0  0  0  0  0
  188.3350  176.9260  141.4490 C   0  0  0  0  0  3  0  0  0  0  0  0
  190.7340  177.9700  143.0210 C   0  0  0  0  0  3  0  0  0  0  0  0
  189.3880  177.1400  146.3660 C   0  0  0  0  0  0  0  0  0  0  0  0
  189.8250  176.7220  147.6210 C   0  0  0  0  0  3  0  0  0  0  0  0
  191.6560  176.9840  145.5860 C   0  0  0  0  0  3  0  0  0  0  0  0
  187.9740  177.4740  146.1600 C   0  0  0  0  0  3  0  0  0  0  0  0
  189.8470  177.7160  143.9930 C   0  0  0  0  0  0  0  0  0  0  0  0
  191.1420  176.4470  147.8130 N   0  0  0  0  0  0  0  0  0  0  0  0
  190.3120  177.2800  145.3280 C   0  0  0  0  0  0  0  0  0  0  0  0
  186.0530  178.2460  144.8650 C   0  0  0  0  0  0  0  0  0  0  0  0
  185.3310  178.6060  146.0130 C   0  0  0  0  0  3  0  0  0  0  0  0
  183.9870  178.9810  145.9230 C   0  0  0  0  0  3  0  0  0  0  0  0
  183.3470  178.9940  144.6820 C   0  0  0  0  0  3  0  0  0  0  0  0
  184.0450  178.6330  143.5270 C   0  0  0  0  0  0  0  0  0  0  0  0
  185.3940  178.2610  143.6220 C   0  0  0  0  0  3  0  0  0  0  0  0
  183.3680  178.6470  142.2690 N   0  0  0  0  0  2  0  0  0  0  0  0
  183.8930  177.9890  141.0820 C   0  0  0  0  0  2  0  0  0  0  0  0
  184.8520  178.9180  140.3620 C   0  0  0  0  0  2  0  0  0  0  0  0
  184.3380  179.2520  139.1080 O   0  0  0  0  0  0  0  0  0  0  0  0
  184.5140  178.1030  138.3400 C   0  0  0  0  0  2  0  0  0  0  0  0
  183.3170  177.9170  137.4190 C   0  0  0  0  0  2  0  0  0  0  0  0
  182.4260  176.7350  137.8220 C   0  0  1  0  0  3  0  0  0  0  0  0
  180.5580  178.2880  138.3950 O   0  0  0  0  0  0  0  0  0  0  0  0
  180.8870  176.3880  139.6320 O   0  0  0  0  0  1  0  0  0  0  0  0
  181.2500  177.1150  138.6700 C   0  0  0  0  0  0  0  0  0  0  0  0
  182.7900  176.0530  135.3900 C   0  0  0  0  0  1  0  0  0  0  0  0
  182.0860  175.7390  136.7000 C   0  0  1  0  0  3  0  0  0  0  0  0
  182.3980  174.3770  137.1090 N   0  0  0  0  0  2  0  0  0  0  0  0
  181.1430  173.6370  137.1810 C   0  0  1  0  0  3  0  0  0  0  0  0
  180.2630  174.1030  136.1990 O   0  0  0  0  0  1  0  0  0  0  0  0
  181.3880  172.1310  137.0320 C   0  0  0  0  0  0  0  0  0  0  0  0
  182.8680  171.8300  136.8600 C   0  0  0  0  0  1  0  0  0  0  0  0
  180.9170  171.4680  138.1660 O   0  0  0  0  0  1  0  0  0  0  0  0
  180.6370  171.6090  135.8220 C   0  0  0  0  0  1  0  0  0  0  0  0
  189.1980  178.2570  139.5430 N   0  0  0  0  0  2  0  0  0  0  0  0
  190.8710  176.6440  138.8660 C   0  0  0  0  0  3  0  0  0  0  0  0
  188.5760  176.5680  137.8810 C   0  0  0  0  0  2  0  0  0  0  0  0
  189.6920  177.4620  138.4240 C   0  0  1  0  0  3  0  0  0  0  0  0
  189.1620  175.6500  136.8110 C   0  0  1  0  0  3  0  0  0  0  0  0
  190.2660  174.9150  137.3440 O   0  0  0  0  0  0  0  0  0  0  0  0
  191.1230  175.4550  138.3140 C   0  0  0  0  0  3  0  0  0  0  0  0
  188.1090  174.6830  136.2970 C   0  0  0  0  0  2  0  0  0  0  0  0
  186.3570  176.1200  135.2510 O   0  0  0  0  0  0  0  0  0  0  0  0
  186.7590  175.3140  136.3090 C   0  0  0  0  0  0  0  0  0  0  0  0
  185.9680  175.0890  137.2610 O   0  0  0  0  0  1  0  0  0  0  0  0
  1 14  1  0  0  0  0
  2  8  1  0  0  0  0
  3 12  2  0  0  0  0
  4  7  1  0  0  0  0
  4  2  2  0  0  0  0
  6  5  1  6  0  0  0
  6 13  1  0  0  0  0
  6  3  1  0  0  0  0
  7  5  2  0  0  0  0
  8 13  2  0  0  0  0
  9 10  1  0  0  0  0
 10 14  2  0  0  0  0
 11  1  2  0  0  0  0
 12  9  1  0  0  0  0
 13 15  1  0  0  0  0
 15 11  1  0  0  0  0
 15  9  2  0  0  0  0
 16  3  1  0  0  0  0
 16 17  1  0  0  0  0
 18 17  2  0  0  0  0
 19 18  1  0  0  0  0
 20 21  1  0  0  0  0
 20 19  2  0  0  0  0
 21 16  2  0  0  0  0
 22 20  1  0  0  0  0
 23 22  1  0  0  0  0
 24 23  1  0  0  0  0
 25 24  1  0  0  0  0
 26 25  1  0  0  0  0
 27 26  1  0  0  0  0
 28 27  1  6  0  0  0
 28 31  1  0  0  0  0
 29 31  2  0  0  0  0
 31 30  1  0  0  0  0
 33 32  1  6  0  0  0
 33 34  1  0  0  0  0
 33 28  1  0  0  0  0
 34 35  1  0  0  0  0
 35 36  1  6  0  0  0
 37 35  1  0  0  0  0
 37 39  1  0  0  0  0
 38 37  1  0  0  0  0
 40 37  1  0  0  0  0
 41  4  1  0  0  0  0
 43 44  1  0  0  0  0
 44 42  1  0  0  0  0
 44 41  1  1  0  0  0
 45 48  1  1  0  0  0
 45 46  1  0  0  0  0
 45 43  1  0  0  0  0
 46 47  1  0  0  0  0
 47 42  2  0  0  0  0
 48 50  1  0  0  0  0
 49 50  2  0  0  0  0
 50 51  1  0  0  0  0
M  END
>  <MODEL>
8

>  <REMARK>
 VINA RESULT:      -7.5      2.466      6.918
  Name = 
  17 active torsions:
  status: ('A' for Active; 'I' for Inactive)
    1  A    between atoms: C_4  and  C_5
    2  A    between atoms: C_8  and  C_24
    3  A    between atoms: C_8  and  N_51
    4  A    between atoms: C_10  and  N_33
    5  A    between atoms: C_18  and  C_19
    6  A    between atoms: C_18  and  C_48
    7  A    between atoms: C_19  and  O_45
    8  A    between atoms: C_21  and  N_33
    9  A    between atoms: C_22  and  C_48
   10  A    between atoms: C_22  and  N_51
   11  A    between atoms: C_26  and  C_31
   12  A    between atoms: C_27  and  N_50
   13  A    between atoms: C_29  and  C_31
   14  A    between atoms: C_39  and  C_44
   15  A    between atoms: C_39  and  N_50
   16  A    between atoms: C_44  and  O_45
   17  A    between atoms: C_48  and  C_49
                            x       y       z     vdW  Elec       q    Type
                         _______ _______ _______ _____ _____    ______ ____

>  <TORSDO>
F 17

$$$$
=
 OpenBabel11032419223D

 51 55  0  0  1  0  0  0  0  0999 V2000
  180.6830  177.5640  134.7090 N   0  0  0  0  0  0  0  0  0  0  0  0
  186.0130  175.6800  135.5830 C   0  0  0  0  0  3  0  0  0  0  0  0
  183.8670  178.1630  138.6140 C   0  0  0  0  0  0  0  0  0  0  0  0
  187.0570  176.3790  136.0680 C   0  0  0  0  0  0  0  0  0  0  0  0
  185.9070  178.2850  137.1950 C   0  0  0  0  0  3  0  0  0  0  0  0
  184.7310  177.4480  137.5860 C   0  0  0  0  0  0  0  0  0  0  0  0
  186.9510  177.7750  136.5420 C   0  0  0  0  0  3  0  0  0  0  0  0
  184.6050  176.1200  135.5050 C   0  0  0  0  0  3  0  0  0  0  0  0
  181.9610  178.1970  137.0500 C   0  0  0  0  0  0  0  0  0  0  0  0
  180.6610  178.6320  136.8000 C   0  0  0  0  0  3  0  0  0  0  0  0
  181.9480  177.1100  134.9050 C   0  0  0  0  0  3  0  0  0  0  0  0
  182.6050  178.5170  138.3280 C   0  0  0  0  0  3  0  0  0  0  0  0
  184.0030  176.9630  136.3550 C   0  0  1  0  0  3  0  0  0  0  0  0
  180.0590  178.3030  135.6280 N   0  0  0  0  0  0  0  0  0  0  0  0
  182.6200  177.4190  136.0940 C   0  0  0  0  0  0  0  0  0  0  0  0
  184.4150  178.4530  139.9670 C   0  0  0  0  0  0  0  0  0  0  0  0
  185.7740  178.7610  140.1320 C   0  0  0  0  0  3  0  0  0  0  0  0
  186.2960  179.0290  141.4010 C   0  0  0  0  0  3  0  0  0  0  0  0
  185.4640  178.9880  142.5220 C   0  0  0  0  0  3  0  0  0  0  0  0
  184.1100  178.6770  142.3800 C   0  0  0  0  0  0  0  0  0  0  0  0
  183.5900  178.4110  141.1050 C   0  0  0  0  0  3  0  0  0  0  0  0
  183.2790  178.6310  143.5430 N   0  0  0  0  0  2  0  0  0  0  0  0
  183.5810  179.3700  144.7590 C   0  0  0  0  0  2  0  0  0  0  0  0
  184.6120  178.6140  145.5760 C   0  0  0  0  0  2  0  0  0  0  0  0
  184.9070  179.3230  146.7410 O   0  0  0  0  0  0  0  0  0  0  0  0
  186.0840  178.7470  147.2130 C   0  0  0  0  0  2  0  0  0  0  0  0
  186.5200  177.6330  146.2730 C   0  0  0  0  0  2  0  0  0  0  0  0
  188.0250  177.6510  145.9750 C   0  0  1  0  0  3  0  0  0  0  0  0
  188.2880  176.7640  148.2920 O   0  0  0  0  0  1  0  0  0  0  0  0
  190.1380  177.3310  147.0680 O   0  0  0  0  0  0  0  0  0  0  0  0
  188.8840  177.2410  147.1330 C   0  0  0  0  0  0  0  0  0  0  0  0
  187.2960  176.3870  143.8810 C   0  0  0  0  0  1  0  0  0  0  0  0
  188.4500  177.0280  144.6340 C   0  0  1  0  0  3  0  0  0  0  0  0
  189.0970  178.0200  143.7870 N   0  0  0  0  0  2  0  0  0  0  0  0
  189.7860  177.3090  142.7170 C   0  0  1  0  0  3  0  0  0  0  0  0
  189.4930  177.9090  141.4880 O   0  0  0  0  0  1  0  0  0  0  0  0
  191.2970  177.2750  142.9670 C   0  0  0  0  0  0  0  0  0  0  0  0
  191.7100  175.9900  143.6680 C   0  0  0  0  0  1  0  0  0  0  0  0
  191.9730  177.3670  141.7500 O   0  0  0  0  0  1  0  0  0  0  0  0
  191.6980  178.4550  143.8320 C   0  0  0  0  0  1  0  0  0  0  0  0
  188.3710  175.8110  136.0180 N   0  0  0  0  0  2  0  0  0  0  0  0
  189.5130  176.3050  138.0940 C   0  0  0  0  0  3  0  0  0  0  0  0
  190.8200  175.7970  136.0260 C   0  0  0  0  0  2  0  0  0  0  0  0
  189.5530  176.4360  136.5990 C   0  0  1  0  0  3  0  0  0  0  0  0
  192.0310  176.3730  136.7580 C   0  0  1  0  0  3  0  0  0  0  0  0
  191.8900  176.1830  138.1680 O   0  0  0  0  0  0  0  0  0  0  0  0
  190.6400  176.2120  138.8030 C   0  0  0  0  0  3  0  0  0  0  0  0
  193.3110  175.7100  136.2820 C   0  0  0  0  0  2  0  0  0  0  0  0
  194.8060  174.3420  137.7390 O   0  0  0  0  0  1  0  0  0  0  0  0
  193.5960  174.4770  137.0700 C   0  0  0  0  0  0  0  0  0  0  0  0
  192.7260  173.5730  137.1580 O   0  0  0  0  0  0  0  0  0  0  0  0
  1 11  2  0  0  0  0
  1 14  1  0  0  0  0
  2  4  1  0  0  0  0
  3 16  1  0  0  0  0
  4  7  2  0  0  0  0
  5  6  2  0  0  0  0
  6  3  1  0  0  0  0
  7  5  1  0  0  0  0
  8  2  2  0  0  0  0
  9 12  1  0  0  0  0
 10  9  1  0  0  0  0
 11 15  1  0  0  0  0
 12  3  2  0  0  0  0
 13  8  1  1  0  0  0
 13  6  1  0  0  0  0
 14 10  2  0  0  0  0
 15 13  1  0  0  0  0
 15  9  2  0  0  0  0
 16 17  2  0  0  0  0
 16 21  1  0  0  0  0
 17 18  1  0  0  0  0
 18 19  2  0  0  0  0
 20 19  1  0  0  0  0
 20 22  1  0  0  0  0
 21 20  2  0  0  0  0
 22 23  1  0  0  0  0
 23 24  1  0  0  0  0
 24 25  1  0  0  0  0
 25 26  1  0  0  0  0
 27 26  1  0  0  0  0
 28 27  1  1  0  0  0
 28 31  1  0  0  0  0
 30 31  2  0  0  0  0
 31 29  1  0  0  0  0
 33 32  1  6  0  0  0
 33 28  1  0  0  0  0
 34 33  1  0  0  0  0
 35 36  1  6  0  0  0
 35 37  1  0  0  0  0
 35 34  1  0  0  0  0
 37 38  1  0  0  0  0
 37 40  1  0  0  0  0
 39 37  1  0  0  0  0
 41  4  1  0  0  0  0
 42 47  2  0  0  0  0
 43 44  1  0  0  0  0
 43 45  1  0  0  0  0
 44 41  1  6  0  0  0
 44 42  1  0  0  0  0
 45 48  1  6  0  0  0
 45 46  1  0  0  0  0
 46 47  1  0  0  0  0
 48 50  1  0  0  0  0
 50 51  2  0  0  0  0
 50 49  1  0  0  0  0
M  END
>  <MODEL>
9

>  <REMARK>
 VINA RESULT:      -7.2      2.952      8.796
  Name = 
  17 active torsions:
  status: ('A' for Active; 'I' for Inactive)
    1  A    between atoms: C_4  and  C_5
    2  A    between atoms: C_8  and  C_24
    3  A    between atoms: C_8  and  N_51
    4  A    between atoms: C_10  and  N_33
    5  A    between atoms: C_18  and  C_19
    6  A    between atoms: C_18  and  C_48
    7  A    between atoms: C_19  and  O_45
    8  A    between atoms: C_21  and  N_33
    9  A    between atoms: C_22  and  C_48
   10  A    between atoms: C_22  and  N_51
   11  A    between atoms: C_26  and  C_31
   12  A    between atoms: C_27  and  N_50
   13  A    between atoms: C_29  and  C_31
   14  A    between atoms: C_39  and  C_44
   15  A    between atoms: C_39  and  N_50
   16  A    between atoms: C_44  and  O_45
   17  A    between atoms: C_48  and  C_49
                            x       y       z     vdW  Elec       q    Type
                         _______ _______ _______ _____ _____    ______ ____

>  <TORSDO>
F 17

$$$$
