=
 OpenBabel11042412273D

 26 28  0  0  1  0  0  0  0  0999 V2000
  190.3230  176.8420  146.6730 C   0  0  0  0  0  0  0  0  0  0  0  0
  189.0620  177.5670  147.5840 S   0  0  0  0  0  0  0  0  0  0  0  0
  186.8620  178.1870  145.8590 C   0  0  0  0  0  0  0  0  0  0  0  0
  186.7930  177.9560  144.4930 C   0  0  0  0  0  0  0  0  0  0  0  0
  189.9790  176.7170  145.3150 C   0  0  0  0  0  3  0  0  0  0  0  0
  185.8390  178.8080  146.5660 C   0  0  0  0  0  3  0  0  0  0  0  0
  184.7040  179.2020  145.8340 C   0  0  0  0  0  3  0  0  0  0  0  0
  184.6140  178.9770  144.4400 C   0  0  0  0  0  0  0  0  0  0  0  0
  188.0880  177.7060  146.2350 C   0  0  0  0  0  0  0  0  0  0  0  0
  185.6760  178.3450  143.7550 C   0  0  0  0  0  3  0  0  0  0  0  0
  188.6970  177.2240  145.1320 C   0  0  0  0  0  0  0  0  0  0  0  0
  187.9210  177.3550  144.0360 N   0  0  0  0  0  0  0  0  0  0  0  0
  192.1260  177.0590  148.1920 O   0  0  0  0  0  1  0  0  0  0  0  0
  192.2510  175.2900  146.7440 O   0  0  0  0  0  0  0  0  0  0  0  0
  191.6050  176.4130  147.2450 C   0  0  0  0  0  0  0  0  0  0  0  0
  188.2600  177.0160  142.6610 C   0  0  0  0  0  2  0  0  0  0  0  0
  189.1740  178.0790  142.0760 C   0  0  0  0  0  2  0  0  0  0  0  0
  191.5760  177.4190  142.0560 C   0  0  0  0  0  1  0  0  0  0  0  0
  190.2820  177.4350  141.2640 C   0  0  0  0  0  2  0  0  0  0  0  0
  183.4610  179.3930  143.7670 O   0  0  0  0  0  0  0  0  0  0  0  0
  182.4150  178.4980  143.3750 C   0  0  2  0  0  3  0  0  0  0  0  0
  183.1220  178.2900  140.9450 C   0  0  0  0  0  1  0  0  0  0  0  0
  182.0020  178.6540  141.9060 C   0  0  0  0  0  2  0  0  0  0  0  0
  181.3170  178.5100  144.2640 O   0  0  0  0  0  0  0  0  0  0  0  0
  180.1290  178.6480  143.5300 C   0  0  0  0  0  2  0  0  0  0  0  0
  179.0380  178.5930  144.3950 O   0  0  0  0  0  1  0  0  0  0  0  0
  1 15  1  0  0  0  0
  1  2  1  0  0  0  0
  3  9  1  0  0  0  0
  3  6  1  0  0  0  0
  4  3  2  0  0  0  0
  5  1  2  0  0  0  0
  7  6  2  0  0  0  0
  8  7  1  0  0  0  0
  9  2  1  0  0  0  0
 10  8  2  0  0  0  0
 10  4  1  0  0  0  0
 11  5  1  0  0  0  0
 11  9  2  0  0  0  0
 12  4  1  0  0  0  0
 12 11  1  0  0  0  0
 14 15  2  0  0  0  0
 15 13  1  0  0  0  0
 16 12  1  0  0  0  0
 17 16  1  0  0  0  0
 19 18  1  0  0  0  0
 19 17  1  0  0  0  0
 20  8  1  0  0  0  0
 21 23  1  6  0  0  0
 21 20  1  0  0  0  0
 21 24  1  0  0  0  0
 22 23  1  0  0  0  0
 25 24  1  0  0  0  0
 25 26  1  0  0  0  0
M  END
>  <MODEL>
1

>  <REMARK>
 VINA RESULT:      -7.5      0.000      0.000
  Name = 
  9 active torsions:
  status: ('A' for Active; 'I' for Inactive)
    1  A    between atoms: C_1  and  O_11
    2  A    between atoms: C_3  and  C_20
    3  A    between atoms: C_9  and  C_23
    4  A    between atoms: C_9  and  N_24
    5  A    between atoms: O_11  and  C_21
    6  A    between atoms: C_12  and  C_23
    7  A    between atoms: C_16  and  O_26
    8  A    between atoms: C_21  and  C_25
    9  A    between atoms: C_21  and  O_26
                            x       y       z     vdW  Elec       q    Type
                         _______ _______ _______ _____ _____    ______ ____

>  <TORSDO>
F 9

$$$$
=
 OpenBabel11042412273D

 26 28  0  0  1  0  0  0  0  0999 V2000
  183.2240  178.7360  143.1310 C   0  0  0  0  0  0  0  0  0  0  0  0
  183.3830  178.9570  144.8260 S   0  0  0  0  0  0  0  0  0  0  0  0
  186.0570  178.3270  145.6340 C   0  0  0  0  0  0  0  0  0  0  0  0
  187.0890  177.9000  144.8110 C   0  0  0  0  0  0  0  0  0  0  0  0
  184.4330  178.3130  142.5470 C   0  0  0  0  0  3  0  0  0  0  0  0
  186.2030  178.4630  147.0090 C   0  0  0  0  0  3  0  0  0  0  0  0
  187.4630  178.1510  147.5530 C   0  0  0  0  0  3  0  0  0  0  0  0
  188.5290  177.7130  146.7320 C   0  0  0  0  0  0  0  0  0  0  0  0
  184.9920  178.5170  144.7930 C   0  0  0  0  0  0  0  0  0  0  0  0
  188.3410  177.5840  145.3370 C   0  0  0  0  0  3  0  0  0  0  0  0
  185.3970  178.2100  143.5430 C   0  0  0  0  0  0  0  0  0  0  0  0
  186.6920  177.8320  143.5150 N   0  0  0  0  0  0  0  0  0  0  0  0
  181.1000  179.7400  142.8390 O   0  0  0  0  0  1  0  0  0  0  0  0
  181.7590  178.3020  141.1840 O   0  0  0  0  0  0  0  0  0  0  0  0
  181.9780  178.9570  142.3890 C   0  0  0  0  0  0  0  0  0  0  0  0
  187.4580  177.3640  142.3690 C   0  0  0  0  0  2  0  0  0  0  0  0
  188.0810  178.5460  141.6450 C   0  0  0  0  0  2  0  0  0  0  0  0
  189.9210  177.3870  140.4310 C   0  0  0  0  0  1  0  0  0  0  0  0
  188.6010  178.1200  140.2860 C   0  0  0  0  0  2  0  0  0  0  0  0
  189.7570  177.4160  147.3300 O   0  0  0  0  0  0  0  0  0  0  0  0
  190.7780  176.6470  146.6870 C   0  0  2  0  0  3  0  0  0  0  0  0
  192.8040  175.7490  147.9260 C   0  0  0  0  0  1  0  0  0  0  0  0
  191.3430  175.5280  147.5720 C   0  0  0  0  0  2  0  0  0  0  0  0
  191.7810  177.4470  146.0960 O   0  0  0  0  0  0  0  0  0  0  0  0
  191.6850  177.3520  144.6990 C   0  0  0  0  0  2  0  0  0  0  0  0
  191.5940  178.6300  144.1510 O   0  0  0  0  0  1  0  0  0  0  0  0
  1  2  1  0  0  0  0
  3  6  1  0  0  0  0
  4 10  1  0  0  0  0
  4  3  2  0  0  0  0
  5  1  2  0  0  0  0
  5 11  1  0  0  0  0
  6  7  2  0  0  0  0
  8 20  1  0  0  0  0
  8  7  1  0  0  0  0
  9  2  1  0  0  0  0
  9  3  1  0  0  0  0
 10  8  2  0  0  0  0
 11  9  2  0  0  0  0
 12 11  1  0  0  0  0
 12  4  1  0  0  0  0
 14 15  2  0  0  0  0
 15 13  1  0  0  0  0
 15  1  1  0  0  0  0
 16 12  1  0  0  0  0
 17 16  1  0  0  0  0
 19 18  1  0  0  0  0
 19 17  1  0  0  0  0
 21 20  1  0  0  0  0
 21 23  1  1  0  0  0
 23 22  1  0  0  0  0
 24 21  1  0  0  0  0
 25 24  1  0  0  0  0
 26 25  1  0  0  0  0
M  END
>  <MODEL>
2

>  <REMARK>
 VINA RESULT:      -7.3      2.055      7.577
  Name = 
  9 active torsions:
  status: ('A' for Active; 'I' for Inactive)
    1  A    between atoms: C_1  and  O_11
    2  A    between atoms: C_3  and  C_20
    3  A    between atoms: C_9  and  C_23
    4  A    between atoms: C_9  and  N_24
    5  A    between atoms: O_11  and  C_21
    6  A    between atoms: C_12  and  C_23
    7  A    between atoms: C_16  and  O_26
    8  A    between atoms: C_21  and  C_25
    9  A    between atoms: C_21  and  O_26
                            x       y       z     vdW  Elec       q    Type
                         _______ _______ _______ _____ _____    ______ ____

>  <TORSDO>
F 9

$$$$
=
 OpenBabel11042412273D

 26 28  0  0  1  0  0  0  0  0999 V2000
  190.4090  176.9060  146.7110 C   0  0  0  0  0  0  0  0  0  0  0  0
  189.0210  177.5790  147.4620 S   0  0  0  0  0  0  0  0  0  0  0  0
  186.9470  177.9290  145.5180 C   0  0  0  0  0  0  0  0  0  0  0  0
  187.0210  177.6200  144.1680 C   0  0  0  0  0  0  0  0  0  0  0  0
  190.2000  176.6800  145.3380 C   0  0  0  0  0  3  0  0  0  0  0  0
  185.8220  178.5070  146.0940 C   0  0  0  0  0  3  0  0  0  0  0  0
  184.7320  178.7700  145.2440 C   0  0  0  0  0  3  0  0  0  0  0  0
  184.7870  178.4630  143.8640 C   0  0  0  0  0  0  0  0  0  0  0  0
  188.1660  177.5670  146.0280 C   0  0  0  0  0  0  0  0  0  0  0  0
  185.9500  177.8780  143.3130 C   0  0  0  0  0  3  0  0  0  0  0  0
  188.9060  177.0740  145.0140 C   0  0  0  0  0  0  0  0  0  0  0  0
  188.2270  177.0830  143.8480 N   0  0  0  0  0  0  0  0  0  0  0  0
  192.3960  175.6610  147.0370 O   0  0  0  0  0  0  0  0  0  0  0  0
  192.0430  177.3770  148.5100 O   0  0  0  0  0  1  0  0  0  0  0  0
  191.6610  176.6100  147.4170 C   0  0  0  0  0  0  0  0  0  0  0  0
  188.7120  176.6970  142.5310 C   0  0  0  0  0  2  0  0  0  0  0  0
  189.5210  177.8310  141.9250 C   0  0  0  0  0  2  0  0  0  0  0  0
  189.9470  177.0900  139.5850 C   0  0  0  0  0  1  0  0  0  0  0  0
  190.5570  177.2850  140.9600 C   0  0  0  0  0  2  0  0  0  0  0  0
  183.6720  178.7490  143.0690 O   0  0  0  0  0  0  0  0  0  0  0  0
  183.7440  178.9280  141.6510 C   0  0  2  0  0  3  0  0  0  0  0  0
  181.7600  177.8490  140.4920 C   0  0  0  0  0  1  0  0  0  0  0  0
  183.2280  177.7190  140.8600 C   0  0  0  0  0  2  0  0  0  0  0  0
  185.0110  179.3760  141.2150 O   0  0  0  0  0  0  0  0  0  0  0  0
  185.2020  178.9940  139.8780 C   0  0  0  0  0  2  0  0  0  0  0  0
  186.5320  178.6270  139.6850 O   0  0  0  0  0  1  0  0  0  0  0  0
  1 15  1  0  0  0  0
  1  2  1  0  0  0  0
  3  9  1  0  0  0  0
  3  6  1  0  0  0  0
  4  3  2  0  0  0  0
  5  1  2  0  0  0  0
  7  6  2  0  0  0  0
  8  7  1  0  0  0  0
  9  2  1  0  0  0  0
 10  8  2  0  0  0  0
 10  4  1  0  0  0  0
 11  5  1  0  0  0  0
 11  9  2  0  0  0  0
 12  4  1  0  0  0  0
 12 11  1  0  0  0  0
 13 15  2  0  0  0  0
 15 14  1  0  0  0  0
 16 12  1  0  0  0  0
 17 16  1  0  0  0  0
 18 19  1  0  0  0  0
 19 17  1  0  0  0  0
 20  8  1  0  0  0  0
 21 23  1  6  0  0  0
 21 20  1  0  0  0  0
 22 23  1  0  0  0  0
 24 21  1  0  0  0  0
 25 24  1  0  0  0  0
 26 25  1  0  0  0  0
M  END
>  <MODEL>
3

>  <REMARK>
 VINA RESULT:      -7.3      1.495      2.603
  Name = 
  9 active torsions:
  status: ('A' for Active; 'I' for Inactive)
    1  A    between atoms: C_1  and  O_11
    2  A    between atoms: C_3  and  C_20
    3  A    between atoms: C_9  and  C_23
    4  A    between atoms: C_9  and  N_24
    5  A    between atoms: O_11  and  C_21
    6  A    between atoms: C_12  and  C_23
    7  A    between atoms: C_16  and  O_26
    8  A    between atoms: C_21  and  C_25
    9  A    between atoms: C_21  and  O_26
                            x       y       z     vdW  Elec       q    Type
                         _______ _______ _______ _____ _____    ______ ____

>  <TORSDO>
F 9

$$$$
=
 OpenBabel11042412273D

 26 28  0  0  1  0  0  0  0  0999 V2000
  188.4000  177.7570  146.7610 C   0  0  0  0  0  0  0  0  0  0  0  0
  186.8130  178.2960  147.1320 S   0  0  0  0  0  0  0  0  0  0  0  0
  185.2440  178.3950  144.7390 C   0  0  0  0  0  0  0  0  0  0  0  0
  185.6690  178.0710  143.4590 C   0  0  0  0  0  0  0  0  0  0  0  0
  188.5490  177.4860  145.3880 C   0  0  0  0  0  3  0  0  0  0  0  0
  183.9630  178.8630  145.0060 C   0  0  0  0  0  3  0  0  0  0  0  0
  183.0890  178.9970  143.9120 C   0  0  0  0  0  3  0  0  0  0  0  0
  183.5030  178.6720  142.5980 C   0  0  0  0  0  0  0  0  0  0  0  0
  186.3330  178.1700  145.5380 C   0  0  0  0  0  0  0  0  0  0  0  0
  184.8150  178.2020  142.3650 C   0  0  0  0  0  3  0  0  0  0  0  0
  187.3390  177.7380  144.7500 C   0  0  0  0  0  0  0  0  0  0  0  0
  186.9620  177.6570  143.4570 N   0  0  0  0  0  0  0  0  0  0  0  0
  189.4210  178.2430  148.8400 O   0  0  0  0  0  1  0  0  0  0  0  0
  190.5380  176.7570  147.5050 O   0  0  0  0  0  0  0  0  0  0  0  0
  189.4680  177.6050  147.7550 C   0  0  0  0  0  0  0  0  0  0  0  0
  187.7850  177.2990  142.3100 C   0  0  0  0  0  2  0  0  0  0  0  0
  188.3180  178.5560  141.6440 C   0  0  0  0  0  2  0  0  0  0  0  0
  189.8500  177.3970  140.0580 C   0  0  0  0  0  1  0  0  0  0  0  0
  188.6290  178.2890  140.1840 C   0  0  0  0  0  2  0  0  0  0  0  0
  182.5900  178.8280  141.5510 O   0  0  0  0  0  0  0  0  0  0  0  0
  182.3800  177.8380  140.5380 C   0  0  2  0  0  3  0  0  0  0  0  0
  183.0630  179.7790  139.0500 C   0  0  0  0  0  1  0  0  0  0  0  0
  182.8700  178.2750  139.1510 C   0  0  0  0  0  2  0  0  0  0  0  0
  181.0610  177.3320  140.5260 O   0  0  0  0  0  0  0  0  0  0  0  0
  180.2110  178.2450  141.1710 C   0  0  0  0  0  2  0  0  0  0  0  0
  179.3560  177.5570  142.0300 O   0  0  0  0  0  1  0  0  0  0  0  0
  1  2  1  0  0  0  0
  1 15  1  0  0  0  0
  3  6  1  0  0  0  0
  3  9  1  0  0  0  0
  4  3  2  0  0  0  0
  5  1  2  0  0  0  0
  7  6  2  0  0  0  0
  8  7  1  0  0  0  0
  9  2  1  0  0  0  0
 10  8  2  0  0  0  0
 10  4  1  0  0  0  0
 11  5  1  0  0  0  0
 11  9  2  0  0  0  0
 12  4  1  0  0  0  0
 12 11  1  0  0  0  0
 14 15  2  0  0  0  0
 15 13  1  0  0  0  0
 16 12  1  0  0  0  0
 17 16  1  0  0  0  0
 18 19  1  0  0  0  0
 19 17  1  0  0  0  0
 20  8  1  0  0  0  0
 21 23  1  6  0  0  0
 21 20  1  0  0  0  0
 22 23  1  0  0  0  0
 24 21  1  0  0  0  0
 24 25  1  0  0  0  0
 25 26  1  0  0  0  0
M  END
>  <MODEL>
4

>  <REMARK>
 VINA RESULT:      -7.1      1.750      2.298
  Name = 
  9 active torsions:
  status: ('A' for Active; 'I' for Inactive)
    1  A    between atoms: C_1  and  O_11
    2  A    between atoms: C_3  and  C_20
    3  A    between atoms: C_9  and  C_23
    4  A    between atoms: C_9  and  N_24
    5  A    between atoms: O_11  and  C_21
    6  A    between atoms: C_12  and  C_23
    7  A    between atoms: C_16  and  O_26
    8  A    between atoms: C_21  and  C_25
    9  A    between atoms: C_21  and  O_26
                            x       y       z     vdW  Elec       q    Type
                         _______ _______ _______ _____ _____    ______ ____

>  <TORSDO>
F 9

$$$$
=
 OpenBabel11042412273D

 26 28  0  0  1  0  0  0  0  0999 V2000
  190.7710  176.9050  145.8400 C   0  0  0  0  0  0  0  0  0  0  0  0
  191.4420  177.2360  144.2960 S   0  0  0  0  0  0  0  0  0  0  0  0
  189.3430  177.8350  142.4420 C   0  0  0  0  0  0  0  0  0  0  0  0
  187.9830  177.8570  142.7140 C   0  0  0  0  0  0  0  0  0  0  0  0
  189.3680  177.0130  145.8320 C   0  0  0  0  0  3  0  0  0  0  0  0
  189.8570  178.0730  141.1730 C   0  0  0  0  0  3  0  0  0  0  0  0
  188.9310  178.3470  140.1490 C   0  0  0  0  0  3  0  0  0  0  0  0
  187.5400  178.3740  140.4050 C   0  0  0  0  0  0  0  0  0  0  0  0
  189.9350  177.5210  143.6370 C   0  0  0  0  0  0  0  0  0  0  0  0
  187.0540  178.1240  141.7090 C   0  0  0  0  0  3  0  0  0  0  0  0
  188.9570  177.3680  144.5530 C   0  0  0  0  0  0  0  0  0  0  0  0
  187.7350  177.5770  144.0190 N   0  0  0  0  0  0  0  0  0  0  0  0
  191.6450  177.3350  147.9980 O   0  0  0  0  0  1  0  0  0  0  0  0
  192.2410  175.3320  147.0630 O   0  0  0  0  0  0  0  0  0  0  0  0
  191.5670  176.5460  147.0190 C   0  0  0  0  0  0  0  0  0  0  0  0
  186.4420  177.4360  144.6730 C   0  0  0  0  0  2  0  0  0  0  0  0
  186.1950  178.6210  145.5920 C   0  0  0  0  0  2  0  0  0  0  0  0
  184.0340  178.7260  144.3580 C   0  0  0  0  0  1  0  0  0  0  0  0
  184.7090  178.9020  145.7050 C   0  0  0  0  0  2  0  0  0  0  0  0
  186.6700  178.6510  139.3460 O   0  0  0  0  0  0  0  0  0  0  0  0
  185.2470  178.5330  139.4480 C   0  0  2  0  0  3  0  0  0  0  0  0
  185.6250  177.4210  137.1970 C   0  0  0  0  0  1  0  0  0  0  0  0
  184.6160  177.7650  138.2800 C   0  0  0  0  0  2  0  0  0  0  0  0
  184.6100  179.7670  139.7100 O   0  0  0  0  0  0  0  0  0  0  0  0
  183.3580  179.7850  139.0750 C   0  0  0  0  0  2  0  0  0  0  0  0
  182.3610  179.4920  140.0030 O   0  0  0  0  0  1  0  0  0  0  0  0
  1 15  1  0  0  0  0
  2  1  1  0  0  0  0
  3  4  1  0  0  0  0
  3  9  1  0  0  0  0
  4 12  1  0  0  0  0
  5  1  2  0  0  0  0
  6  3  2  0  0  0  0
  7  8  2  0  0  0  0
  7  6  1  0  0  0  0
  8 10  1  0  0  0  0
  9  2  1  0  0  0  0
  9 11  2  0  0  0  0
 10  4  2  0  0  0  0
 11  5  1  0  0  0  0
 12 11  1  0  0  0  0
 12 16  1  0  0  0  0
 15 14  2  0  0  0  0
 15 13  1  0  0  0  0
 16 17  1  0  0  0  0
 17 19  1  0  0  0  0
 18 19  1  0  0  0  0
 20 21  1  0  0  0  0
 20  8  1  0  0  0  0
 21 23  1  6  0  0  0
 21 24  1  0  0  0  0
 22 23  1  0  0  0  0
 25 24  1  0  0  0  0
 25 26  1  0  0  0  0
M  END
>  <MODEL>
5

>  <REMARK>
 VINA RESULT:      -7.1      2.368      4.461
  Name = 
  9 active torsions:
  status: ('A' for Active; 'I' for Inactive)
    1  A    between atoms: C_1  and  O_11
    2  A    between atoms: C_3  and  C_20
    3  A    between atoms: C_9  and  C_23
    4  A    between atoms: C_9  and  N_24
    5  A    between atoms: O_11  and  C_21
    6  A    between atoms: C_12  and  C_23
    7  A    between atoms: C_16  and  O_26
    8  A    between atoms: C_21  and  C_25
    9  A    between atoms: C_21  and  O_26
                            x       y       z     vdW  Elec       q    Type
                         _______ _______ _______ _____ _____    ______ ____

>  <TORSDO>
F 9

$$$$
=
 OpenBabel11042412273D

 26 28  0  0  1  0  0  0  0  0999 V2000
  184.1560  178.9270  140.2070 C   0  0  0  0  0  0  0  0  0  0  0  0
  183.8410  178.5700  141.8560 S   0  0  0  0  0  0  0  0  0  0  0  0
  186.3100  178.1160  143.2330 C   0  0  0  0  0  0  0  0  0  0  0  0
  187.5830  178.1630  142.6840 C   0  0  0  0  0  0  0  0  0  0  0  0
  185.5360  178.9210  139.9280 C   0  0  0  0  0  3  0  0  0  0  0  0
  186.0810  177.7900  144.5650 C   0  0  0  0  0  3  0  0  0  0  0  0
  187.2090  177.5060  145.3570 C   0  0  0  0  0  3  0  0  0  0  0  0
  188.5150  177.5470  144.8160 C   0  0  0  0  0  0  0  0  0  0  0  0
  185.4680  178.4200  142.1960 C   0  0  0  0  0  0  0  0  0  0  0  0
  188.7090  177.8800  143.4560 C   0  0  0  0  0  3  0  0  0  0  0  0
  186.2250  178.6290  141.1000 C   0  0  0  0  0  0  0  0  0  0  0  0
  187.5400  178.4860  141.3660 N   0  0  0  0  0  0  0  0  0  0  0  0
  182.9370  180.3650  138.7750 O   0  0  0  0  0  1  0  0  0  0  0  0
  182.3080  178.1640  138.7470 O   0  0  0  0  0  0  0  0  0  0  0  0
  183.1120  179.1970  139.2130 C   0  0  0  0  0  0  0  0  0  0  0  0
  188.6520  178.5650  140.4280 C   0  0  0  0  0  2  0  0  0  0  0  0
  188.9350  177.1910  139.8440 C   0  0  0  0  0  2  0  0  0  0  0  0
  189.0620  178.6570  137.8330 C   0  0  0  0  0  1  0  0  0  0  0  0
  189.4580  177.3170  138.4260 C   0  0  0  0  0  2  0  0  0  0  0  0
  189.5960  177.2530  145.6520 O   0  0  0  0  0  0  0  0  0  0  0  0
  189.4450  176.8110  147.0050 C   0  0  2  0  0  3  0  0  0  0  0  0
  188.0490  177.8780  148.8380 C   0  0  0  0  0  1  0  0  0  0  0  0
  189.3200  177.9640  148.0100 C   0  0  0  0  0  2  0  0  0  0  0  0
  190.4090  175.8490  147.3820 O   0  0  0  0  0  0  0  0  0  0  0  0
  191.6810  176.2900  146.9840 C   0  0  0  0  0  2  0  0  0  0  0  0
  192.5250  176.3350  148.0910 O   0  0  0  0  0  1  0  0  0  0  0  0
  1  2  1  0  0  0  0
  2  9  1  0  0  0  0
  3  6  1  0  0  0  0
  4  3  2  0  0  0  0
  4 10  1  0  0  0  0
  5  1  2  0  0  0  0
  5 11  1  0  0  0  0
  6  7  2  0  0  0  0
  8  7  1  0  0  0  0
  8 20  1  0  0  0  0
  9  3  1  0  0  0  0
 10  8  2  0  0  0  0
 11 12  1  0  0  0  0
 11  9  2  0  0  0  0
 12  4  1  0  0  0  0
 13 15  1  0  0  0  0
 14 15  2  0  0  0  0
 15  1  1  0  0  0  0
 16 12  1  0  0  0  0
 17 16  1  0  0  0  0
 18 19  1  0  0  0  0
 19 17  1  0  0  0  0
 20 21  1  0  0  0  0
 21 24  1  0  0  0  0
 21 23  1  1  0  0  0
 23 22  1  0  0  0  0
 25 24  1  0  0  0  0
 25 26  1  0  0  0  0
M  END
>  <MODEL>
6

>  <REMARK>
 VINA RESULT:      -6.9      3.172      7.834
  Name = 
  9 active torsions:
  status: ('A' for Active; 'I' for Inactive)
    1  A    between atoms: C_1  and  O_11
    2  A    between atoms: C_3  and  C_20
    3  A    between atoms: C_9  and  C_23
    4  A    between atoms: C_9  and  N_24
    5  A    between atoms: O_11  and  C_21
    6  A    between atoms: C_12  and  C_23
    7  A    between atoms: C_16  and  O_26
    8  A    between atoms: C_21  and  C_25
    9  A    between atoms: C_21  and  O_26
                            x       y       z     vdW  Elec       q    Type
                         _______ _______ _______ _____ _____    ______ ____

>  <TORSDO>
F 9

$$$$
=
 OpenBabel11042412273D

 26 28  0  0  1  0  0  0  0  0999 V2000
  190.5510  176.9630  139.0030 C   0  0  0  0  0  0  0  0  0  0  0  0
  189.0240  177.7450  139.0470 S   0  0  0  0  0  0  0  0  0  0  0  0
  187.9770  177.6640  141.7120 C   0  0  0  0  0  0  0  0  0  0  0  0
  188.5800  177.0850  142.8190 C   0  0  0  0  0  0  0  0  0  0  0  0
  190.9260  176.4820  140.2710 C   0  0  0  0  0  3  0  0  0  0  0  0
  186.7230  178.2600  141.7680 C   0  0  0  0  0  3  0  0  0  0  0  0
  186.0710  178.2610  143.0160 C   0  0  0  0  0  3  0  0  0  0  0  0
  186.6680  177.6760  144.1570 C   0  0  0  0  0  0  0  0  0  0  0  0
  188.8620  177.4670  140.6850 C   0  0  0  0  0  0  0  0  0  0  0  0
  187.9440  177.0760  144.0590 C   0  0  0  0  0  3  0  0  0  0  0  0
  189.9260  176.8020  141.1820 C   0  0  0  0  0  0  0  0  0  0  0  0
  189.7890  176.5560  142.5020 N   0  0  0  0  0  0  0  0  0  0  0  0
  192.6130  176.7240  137.8660 O   0  0  0  0  0  1  0  0  0  0  0  0
  190.7450  176.7640  136.5430 O   0  0  0  0  0  0  0  0  0  0  0  0
  191.3590  176.8120  137.7880 C   0  0  0  0  0  0  0  0  0  0  0  0
  190.6910  175.8070  143.3660 C   0  0  0  0  0  2  0  0  0  0  0  0
  191.5860  176.7650  144.1350 C   0  0  0  0  0  2  0  0  0  0  0  0
  190.6690  177.1230  146.4230 C   0  0  0  0  0  1  0  0  0  0  0  0
  191.6760  176.3510  145.5910 C   0  0  0  0  0  2  0  0  0  0  0  0
  185.9700  177.7060  145.3680 O   0  0  0  0  0  0  0  0  0  0  0  0
  185.4950  178.9150  145.9710 C   0  0  2  0  0  3  0  0  0  0  0  0
  187.2720  178.2690  147.6660 C   0  0  0  0  0  1  0  0  0  0  0  0
  186.3250  179.3550  147.1830 C   0  0  0  0  0  2  0  0  0  0  0  0
  184.1060  178.8940  146.2260 O   0  0  0  0  0  0  0  0  0  0  0  0
  183.4110  178.9670  145.0090 C   0  0  0  0  0  2  0  0  0  0  0  0
  183.7700  180.1350  144.3390 O   0  0  0  0  0  1  0  0  0  0  0  0
  1  2  1  0  0  0  0
  1  5  2  0  0  0  0
  2  9  1  0  0  0  0
  3  6  2  0  0  0  0
  3  4  1  0  0  0  0
  4 10  2  0  0  0  0
  5 11  1  0  0  0  0
  6  7  1  0  0  0  0
  7  8  2  0  0  0  0
  8 20  1  0  0  0  0
  9 11  2  0  0  0  0
  9  3  1  0  0  0  0
 10  8  1  0  0  0  0
 11 12  1  0  0  0  0
 12  4  1  0  0  0  0
 12 16  1  0  0  0  0
 14 15  2  0  0  0  0
 15 13  1  0  0  0  0
 15  1  1  0  0  0  0
 16 17  1  0  0  0  0
 17 19  1  0  0  0  0
 19 18  1  0  0  0  0
 20 21  1  0  0  0  0
 21 24  1  0  0  0  0
 21 23  1  1  0  0  0
 23 22  1  0  0  0  0
 25 24  1  0  0  0  0
 26 25  1  0  0  0  0
M  END
>  <MODEL>
7

>  <REMARK>
 VINA RESULT:      -6.9      3.615      5.685
  Name = 
  9 active torsions:
  status: ('A' for Active; 'I' for Inactive)
    1  A    between atoms: C_1  and  O_11
    2  A    between atoms: C_3  and  C_20
    3  A    between atoms: C_9  and  C_23
    4  A    between atoms: C_9  and  N_24
    5  A    between atoms: O_11  and  C_21
    6  A    between atoms: C_12  and  C_23
    7  A    between atoms: C_16  and  O_26
    8  A    between atoms: C_21  and  C_25
    9  A    between atoms: C_21  and  O_26
                            x       y       z     vdW  Elec       q    Type
                         _______ _______ _______ _____ _____    ______ ____

>  <TORSDO>
F 9

$$$$
=
 OpenBabel11042412273D

 26 28  0  0  1  0  0  0  0  0999 V2000
  185.1730  178.5260  143.9840 C   0  0  0  0  0  0  0  0  0  0  0  0
  185.2650  178.9450  142.3220 S   0  0  0  0  0  0  0  0  0  0  0  0
  187.7960  178.1300  141.2600 C   0  0  0  0  0  0  0  0  0  0  0  0
  188.8170  177.4970  141.9540 C   0  0  0  0  0  0  0  0  0  0  0  0
  186.3450  177.8810  144.4230 C   0  0  0  0  0  3  0  0  0  0  0  0
  187.9100  178.4900  139.9230 C   0  0  0  0  0  3  0  0  0  0  0  0
  189.1220  178.1810  139.2780 C   0  0  0  0  0  3  0  0  0  0  0  0
  190.1770  177.5360  139.9680 C   0  0  0  0  0  0  0  0  0  0  0  0
  186.7940  178.2930  142.1800 C   0  0  0  0  0  0  0  0  0  0  0  0
  190.0250  177.1880  141.3290 C   0  0  0  0  0  3  0  0  0  0  0  0
  187.2240  177.7780  143.3510 C   0  0  0  0  0  0  0  0  0  0  0  0
  188.4690  177.2690  143.2460 N   0  0  0  0  0  0  0  0  0  0  0  0
  182.8690  178.9370  144.3350 O   0  0  0  0  0  0  0  0  0  0  0  0
  184.1810  178.9500  146.2120 O   0  0  0  0  0  1  0  0  0  0  0  0
  184.0170  178.8130  144.8390 C   0  0  0  0  0  0  0  0  0  0  0  0
  189.2880  176.6940  144.3040 C   0  0  0  0  0  2  0  0  0  0  0  0
  189.8720  177.8020  145.1660 C   0  0  0  0  0  2  0  0  0  0  0  0
  188.6860  177.1600  147.2610 C   0  0  0  0  0  1  0  0  0  0  0  0
  190.0400  177.3260  146.5960 C   0  0  0  0  0  2  0  0  0  0  0  0
  191.3580  177.2570  139.2740 O   0  0  0  0  0  0  0  0  0  0  0  0
  191.6270  175.9930  138.6570 C   0  0  2  0  0  3  0  0  0  0  0  0
  193.9320  175.5510  137.6900 C   0  0  0  0  0  1  0  0  0  0  0  0
  192.5400  176.0990  137.4290 C   0  0  0  0  0  2  0  0  0  0  0  0
  190.4570  175.2390  138.4150 O   0  0  0  0  0  0  0  0  0  0  0  0
  190.5870  174.5620  137.1930 C   0  0  0  0  0  2  0  0  0  0  0  0
  189.8140  173.4040  137.2170 O   0  0  0  0  0  1  0  0  0  0  0  0
  1  5  2  0  0  0  0
  1 15  1  0  0  0  0
  2  1  1  0  0  0  0
  3  4  1  0  0  0  0
  3  9  1  0  0  0  0
  4 12  1  0  0  0  0
  6  3  2  0  0  0  0
  7  6  1  0  0  0  0
  7  8  2  0  0  0  0
  8 10  1  0  0  0  0
  9  2  1  0  0  0  0
  9 11  2  0  0  0  0
 10  4  2  0  0  0  0
 11  5  1  0  0  0  0
 12 11  1  0  0  0  0
 12 16  1  0  0  0  0
 13 15  2  0  0  0  0
 15 14  1  0  0  0  0
 16 17  1  0  0  0  0
 17 19  1  0  0  0  0
 19 18  1  0  0  0  0
 20  8  1  0  0  0  0
 21 23  1  6  0  0  0
 21 20  1  0  0  0  0
 23 22  1  0  0  0  0
 24 21  1  0  0  0  0
 25 26  1  0  0  0  0
 25 24  1  0  0  0  0
M  END
>  <MODEL>
8

>  <REMARK>
 VINA RESULT:      -6.9      3.918      7.936
  Name = 
  9 active torsions:
  status: ('A' for Active; 'I' for Inactive)
    1  A    between atoms: C_1  and  O_11
    2  A    between atoms: C_3  and  C_20
    3  A    between atoms: C_9  and  C_23
    4  A    between atoms: C_9  and  N_24
    5  A    between atoms: O_11  and  C_21
    6  A    between atoms: C_12  and  C_23
    7  A    between atoms: C_16  and  O_26
    8  A    between atoms: C_21  and  C_25
    9  A    between atoms: C_21  and  O_26
                            x       y       z     vdW  Elec       q    Type
                         _______ _______ _______ _____ _____    ______ ____

>  <TORSDO>
F 9

$$$$
=
 OpenBabel11042412273D

 26 28  0  0  1  0  0  0  0  0999 V2000
  190.9900  176.7470  145.3620 C   0  0  0  0  0  0  0  0  0  0  0  0
  191.6850  176.6530  143.7960 S   0  0  0  0  0  0  0  0  0  0  0  0
  189.7840  177.5360  141.8440 C   0  0  0  0  0  0  0  0  0  0  0  0
  188.4910  177.9730  142.0900 C   0  0  0  0  0  0  0  0  0  0  0  0
  189.6720  177.2370  145.3190 C   0  0  0  0  0  3  0  0  0  0  0  0
  190.3100  177.4370  140.5620 C   0  0  0  0  0  3  0  0  0  0  0  0
  189.4690  177.8060  139.4960 C   0  0  0  0  0  3  0  0  0  0  0  0
  188.1460  178.2530  139.7250 C   0  0  0  0  0  0  0  0  0  0  0  0
  190.2980  177.2460  143.0810 C   0  0  0  0  0  0  0  0  0  0  0  0
  187.6450  178.3380  141.0440 C   0  0  0  0  0  3  0  0  0  0  0  0
  189.3400  177.5040  143.9950 C   0  0  0  0  0  0  0  0  0  0  0  0
  188.2100  177.9630  143.4190 N   0  0  0  0  0  0  0  0  0  0  0  0
  192.4050  175.3200  146.6150 O   0  0  0  0  0  0  0  0  0  0  0  0
  191.5590  177.1250  147.7420 O   0  0  0  0  0  1  0  0  0  0  0  0
  191.6870  176.3550  146.5930 C   0  0  0  0  0  0  0  0  0  0  0  0
  186.9460  178.2810  144.0680 C   0  0  0  0  0  2  0  0  0  0  0  0
  186.6050  177.2100  145.0910 C   0  0  0  0  0  2  0  0  0  0  0  0
  184.9780  178.4190  146.5390 C   0  0  0  0  0  1  0  0  0  0  0  0
  186.3760  177.8350  146.4540 C   0  0  0  0  0  2  0  0  0  0  0  0
  187.3580  178.6040  138.6240 O   0  0  0  0  0  0  0  0  0  0  0  0
  186.4010  177.7210  138.0290 C   0  0  2  0  0  3  0  0  0  0  0  0
  187.1870  175.4860  137.1180 C   0  0  0  0  0  1  0  0  0  0  0  0
  186.9510  176.9570  136.8190 C   0  0  0  0  0  2  0  0  0  0  0  0
  185.1600  178.3460  137.7740 O   0  0  0  0  0  0  0  0  0  0  0  0
  184.4750  178.5240  138.9860 C   0  0  0  0  0  2  0  0  0  0  0  0
  184.5510  179.8610  139.3710 O   0  0  0  0  0  1  0  0  0  0  0  0
  1 15  1  0  0  0  0
  2  1  1  0  0  0  0
  3  4  1  0  0  0  0
  3  9  1  0  0  0  0
  4 12  1  0  0  0  0
  5  1  2  0  0  0  0
  6  3  2  0  0  0  0
  7  8  2  0  0  0  0
  7  6  1  0  0  0  0
  8 10  1  0  0  0  0
  9  2  1  0  0  0  0
  9 11  2  0  0  0  0
 10  4  2  0  0  0  0
 11  5  1  0  0  0  0
 12 11  1  0  0  0  0
 12 16  1  0  0  0  0
 15 13  2  0  0  0  0
 15 14  1  0  0  0  0
 16 17  1  0  0  0  0
 17 19  1  0  0  0  0
 19 18  1  0  0  0  0
 20  8  1  0  0  0  0
 21 23  1  6  0  0  0
 21 20  1  0  0  0  0
 23 22  1  0  0  0  0
 24 21  1  0  0  0  0
 24 25  1  0  0  0  0
 25 26  1  0  0  0  0
M  END
>  <MODEL>
9

>  <REMARK>
 VINA RESULT:      -6.9      3.026      5.255
  Name = 
  9 active torsions:
  status: ('A' for Active; 'I' for Inactive)
    1  A    between atoms: C_1  and  O_11
    2  A    between atoms: C_3  and  C_20
    3  A    between atoms: C_9  and  C_23
    4  A    between atoms: C_9  and  N_24
    5  A    between atoms: O_11  and  C_21
    6  A    between atoms: C_12  and  C_23
    7  A    between atoms: C_16  and  O_26
    8  A    between atoms: C_21  and  C_25
    9  A    between atoms: C_21  and  O_26
                            x       y       z     vdW  Elec       q    Type
                         _______ _______ _______ _____ _____    ______ ____

>  <TORSDO>
F 9

$$$$
