=
 OpenBabel11042411513D

 35 39  0  0  1  0  0  0  0  0999 V2000
  186.7270  178.3430  144.7040 C   0  0  0  0  0  0  0  0  0  0  0  0
  186.9120  178.1530  143.4070 C   0  0  0  0  0  0  0  0  0  0  0  0
  182.0350  178.5500  142.6290 C   0  0  0  0  0  0  0  0  0  0  0  0
  188.8730  177.7980  144.5370 C   0  0  1  0  0  3  0  0  0  0  0  0
  186.1730  179.7310  141.8170 O   0  0  0  0  0  1  0  0  0  0  0  0
  188.3520  177.8880  143.1390 C   0  0  1  0  0  3  0  0  0  0  0  0
  185.8720  178.4880  142.3730 C   0  0  2  0  0  3  0  0  0  0  0  0
  184.2580  178.6950  144.3360 C   0  0  0  0  0  0  0  0  0  0  0  0
  190.4850  176.1750  143.9730 C   0  0  0  0  0  0  0  0  0  0  0  0
  191.6660  175.4330  144.2520 N   0  0  0  0  0  1  0  0  0  0  0  0
  187.9490  178.0610  145.4510 C   0  0  0  0  0  2  0  0  0  0  0  0
  185.2740  178.9040  146.4880 O   0  0  0  0  0  0  0  0  0  0  0  0
  182.9640  178.8210  144.8460 C   0  0  0  0  0  3  0  0  0  0  0  0
  183.3300  178.4210  142.0850 C   0  0  0  0  0  0  0  0  0  0  0  0
  189.6660  175.8290  142.7820 C   0  0  0  0  0  3  0  0  0  0  0  0
  190.0710  177.0740  144.8220 N   0  0  0  0  0  0  0  0  0  0  0  0
  184.4590  178.5140  142.9420 C   0  0  0  0  0  0  0  0  0  0  0  0
  185.4140  178.6770  145.2560 C   0  0  0  0  0  0  0  0  0  0  0  0
  181.8640  178.7590  143.9980 C   0  0  0  0  0  3  0  0  0  0  0  0
  188.6260  176.5950  142.4190 C   0  0  0  0  0  3  0  0  0  0  0  0
  180.8140  178.5040  141.7660 C   0  0  0  0  0  2  0  0  0  0  0  0
  179.7340  177.8420  142.4770 N   0  0  0  0  0  1  0  0  0  0  0  0
  183.1070  179.3360  139.8820 O   0  0  0  0  0  1  0  0  0  0  0  0
  183.4720  178.1940  140.6010 C   0  0  2  0  0  3  0  0  0  0  0  0
  182.9120  176.3630  138.9490 C   0  0  0  0  0  0  0  0  0  0  0  0
  182.6770  177.0510  140.1770 N   0  0  0  0  0  2  0  0  0  0  0  0
  183.8510  176.7190  138.1850 O   0  0  0  0  0  0  0  0  0  0  0  0
  180.7480  175.2220  139.4100 C   0  0  0  0  0  2  0  0  0  0  0  0
  179.6810  174.2720  138.8490 C   0  0  0  0  0  2  0  0  0  0  0  0
  181.7390  175.2210  137.0710 C   0  0  0  0  0  2  0  0  0  0  0  0
  180.2360  173.3860  137.8230 N   0  0  0  0  0  0  0  0  0  0  0  0
  180.6400  174.2170  136.6860 C   0  0  0  0  0  2  0  0  0  0  0  0
  182.0310  175.2190  138.5740 C   0  0  0  0  0  3  0  0  0  0  0  0
  179.2210  172.5990  137.3920 O   0  0  0  0  0  0  0  0  0  0  0  0
  179.8450  171.4490  136.9000 C   0  0  0  0  0  1  0  0  0  0  0  0
  1 18  1  0  0  0  0
  1 11  1  0  0  0  0
  2  1  2  0  0  0  0
  3 19  1  0  0  0  0
  4 16  1  0  0  0  0
  4 11  1  1  0  0  0
  6 20  1  1  0  0  0
  6  2  1  0  0  0  0
  6  4  1  0  0  0  0
  7  5  1  1  0  0  0
  7 17  1  0  0  0  0
  7  2  1  0  0  0  0
  8 13  1  0  0  0  0
  8 18  1  0  0  0  0
  9 10  1  0  0  0  0
  9 16  2  0  0  0  0
 14  3  2  0  0  0  0
 14 17  1  0  0  0  0
 15  9  1  0  0  0  0
 17  8  2  0  0  0  0
 18 12  2  0  0  0  0
 19 13  2  0  0  0  0
 20 15  2  0  0  0  0
 21 22  1  0  0  0  0
 21  3  1  0  0  0  0
 24 23  1  6  0  0  0
 24 14  1  0  0  0  0
 25 26  1  0  0  0  0
 26 24  1  0  0  0  0
 27 25  2  0  0  0  0
 29 28  1  0  0  0  0
 30 33  1  0  0  0  0
 31 29  1  0  0  0  0
 32 30  1  0  0  0  0
 32 31  1  0  0  0  0
 33 25  1  0  0  0  0
 33 28  1  0  0  0  0
 34 31  1  0  0  0  0
 35 34  1  0  0  0  0
M  END
>  <MODEL>
1

>  <REMARK>
 VINA RESULT:      -9.0      0.000      0.000
  Name = 
  5 active torsions:
  status: ('A' for Active; 'I' for Inactive)
    1  A    between atoms: C_2  and  C_27
    2  A    between atoms: C_4  and  C_5
    3  A    between atoms: C_10  and  N_11
    4  A    between atoms: C_10  and  C_26
    5  A    between atoms: O_16  and  N_24
                            x       y       z     vdW  Elec       q    Type
                         _______ _______ _______ _____ _____    ______ ____

>  <TORSDO>
F 5

$$$$
=
 OpenBabel11042411513D

 35 39  0  0  1  0  0  0  0  0999 V2000
  182.6640  178.3390  141.2710 C   0  0  0  0  0  0  0  0  0  0  0  0
  183.9310  178.7100  141.1730 C   0  0  0  0  0  0  0  0  0  0  0  0
  184.1320  176.8980  136.5660 C   0  0  0  0  0  0  0  0  0  0  0  0
  183.1920  179.0080  143.3200 C   0  0  1  0  0  3  0  0  0  0  0  0
  184.6600  180.1500  139.4520 O   0  0  0  0  0  1  0  0  0  0  0  0
  184.3840  179.2930  142.4650 C   0  0  1  0  0  3  0  0  0  0  0  0
  184.6550  178.8150  139.8590 C   0  0  2  0  0  3  0  0  0  0  0  0
  182.6790  177.5340  138.8810 C   0  0  0  0  0  0  0  0  0  0  0  0
  184.4930  178.6820  145.2570 C   0  0  0  0  0  0  0  0  0  0  0  0
  184.6330  178.5720  146.6680 N   0  0  0  0  0  1  0  0  0  0  0  0
  182.1890  178.4620  142.6450 C   0  0  0  0  0  2  0  0  0  0  0  0
  180.7130  177.4820  140.2370 O   0  0  0  0  0  0  0  0  0  0  0  0
  182.0750  176.8310  137.8370 C   0  0  0  0  0  3  0  0  0  0  0  0
  184.7680  177.6110  137.6040 C   0  0  0  0  0  0  0  0  0  0  0  0
  185.6600  178.4000  144.3810 C   0  0  0  0  0  3  0  0  0  0  0  0
  183.3200  178.9190  144.7410 N   0  0  0  0  0  0  0  0  0  0  0  0
  184.0310  177.9530  138.7680 C   0  0  0  0  0  0  0  0  0  0  0  0
  181.9330  177.7800  140.1330 C   0  0  0  0  0  0  0  0  0  0  0  0
  182.7930  176.5240  136.6860 C   0  0  0  0  0  3  0  0  0  0  0  0
  185.5960  178.6280  143.0600 C   0  0  0  0  0  3  0  0  0  0  0  0
  184.8480  176.5500  135.3000 C   0  0  0  0  0  2  0  0  0  0  0  0
  184.4860  175.2060  134.8830 N   0  0  0  0  0  1  0  0  0  0  0  0
  186.7140  177.5440  136.2080 O   0  0  0  0  0  1  0  0  0  0  0  0
  186.2170  177.9930  137.4350 C   0  0  2  0  0  3  0  0  0  0  0  0
  188.2440  178.0740  138.9440 C   0  0  0  0  0  0  0  0  0  0  0  0
  187.0190  177.4710  138.5310 N   0  0  0  0  0  2  0  0  0  0  0  0
  188.6700  179.1150  138.3730 O   0  0  0  0  0  0  0  0  0  0  0  0
  190.5250  177.5340  139.7830 C   0  0  0  0  0  2  0  0  0  0  0  0
  191.3650  177.2070  141.0260 C   0  0  0  0  0  2  0  0  0  0  0  0
  188.6470  178.0820  141.4030 C   0  0  0  0  0  2  0  0  0  0  0  0
  190.5450  176.6290  142.0920 N   0  0  0  0  0  0  0  0  0  0  0  0
  189.5970  177.6550  142.5330 C   0  0  0  0  0  2  0  0  0  0  0  0
  189.0210  177.4550  140.0570 C   0  0  0  0  0  3  0  0  0  0  0  0
  191.3730  176.3840  143.1360 O   0  0  0  0  0  0  0  0  0  0  0  0
  191.6690  177.6450  143.6610 C   0  0  0  0  0  1  0  0  0  0  0  0
  1 11  1  0  0  0  0
  2  1  2  0  0  0  0
  2  6  1  0  0  0  0
  3 19  2  0  0  0  0
  3 14  1  0  0  0  0
  4 11  1  6  0  0  0
  4 16  1  0  0  0  0
  6 20  1  1  0  0  0
  6  4  1  0  0  0  0
  7  5  1  6  0  0  0
  7  2  1  0  0  0  0
  8 18  1  0  0  0  0
  9 10  1  0  0  0  0
 13  8  2  0  0  0  0
 14 17  2  0  0  0  0
 15  9  1  0  0  0  0
 16  9  2  0  0  0  0
 17  8  1  0  0  0  0
 17  7  1  0  0  0  0
 18 12  2  0  0  0  0
 18  1  1  0  0  0  0
 19 13  1  0  0  0  0
 20 15  2  0  0  0  0
 21  3  1  0  0  0  0
 22 21  1  0  0  0  0
 24 23  1  6  0  0  0
 24 14  1  0  0  0  0
 24 26  1  0  0  0  0
 25 33  1  0  0  0  0
 26 25  1  0  0  0  0
 27 25  2  0  0  0  0
 28 33  1  0  0  0  0
 28 29  1  0  0  0  0
 29 31  1  0  0  0  0
 30 32  1  0  0  0  0
 31 32  1  0  0  0  0
 31 34  1  0  0  0  0
 33 30  1  0  0  0  0
 34 35  1  0  0  0  0
M  END
>  <MODEL>
2

>  <REMARK>
 VINA RESULT:      -8.6      2.992      7.602
  Name = 
  5 active torsions:
  status: ('A' for Active; 'I' for Inactive)
    1  A    between atoms: C_2  and  C_27
    2  A    between atoms: C_4  and  C_5
    3  A    between atoms: C_10  and  N_11
    4  A    between atoms: C_10  and  C_26
    5  A    between atoms: O_16  and  N_24
                            x       y       z     vdW  Elec       q    Type
                         _______ _______ _______ _____ _____    ______ ____

>  <TORSDO>
F 5

$$$$
=
 OpenBabel11042411513D

 35 39  0  0  1  0  0  0  0  0999 V2000
  185.5130  178.6100  139.9800 C   0  0  0  0  0  0  0  0  0  0  0  0
  186.6160  178.4760  140.7020 C   0  0  0  0  0  0  0  0  0  0  0  0
  188.8260  176.1360  136.9350 C   0  0  0  0  0  0  0  0  0  0  0  0
  184.9220  179.2990  142.0060 C   0  0  1  0  0  3  0  0  0  0  0  0
  188.6880  179.3140  139.9450 O   0  0  0  0  0  1  0  0  0  0  0  0
  186.3880  179.0140  142.0700 C   0  0  1  0  0  3  0  0  0  0  0  0
  187.9530  178.1380  140.1000 C   0  0  2  0  0  3  0  0  0  0  0  0
  186.6460  177.5530  137.9900 C   0  0  0  0  0  0  0  0  0  0  0  0
  184.5860  178.7730  144.2780 C   0  0  0  0  0  0  0  0  0  0  0  0
  183.8090  178.8020  145.4680 N   0  0  0  0  0  1  0  0  0  0  0  0
  184.4040  179.0740  140.8060 C   0  0  0  0  0  2  0  0  0  0  0  0
  184.4140  178.3990  137.8930 O   0  0  0  0  0  0  0  0  0  0  0  0
  186.5740  176.9910  136.7140 C   0  0  0  0  0  3  0  0  0  0  0  0
  188.9290  176.6950  138.2260 C   0  0  0  0  0  0  0  0  0  0  0  0
  185.8390  177.9720  144.2390 C   0  0  0  0  0  3  0  0  0  0  0  0
  184.1390  179.3530  143.2000 N   0  0  0  0  0  0  0  0  0  0  0  0
  187.8350  177.4310  138.7560 C   0  0  0  0  0  0  0  0  0  0  0  0
  185.4600  178.2140  138.5730 C   0  0  0  0  0  0  0  0  0  0  0  0
  187.6580  176.2970  136.1880 C   0  0  0  0  0  3  0  0  0  0  0  0
  186.6600  178.0350  143.1800 C   0  0  0  0  0  3  0  0  0  0  0  0
  189.9620  175.3900  136.3100 C   0  0  0  0  0  2  0  0  0  0  0  0
  190.5100  176.1590  135.2080 N   0  0  0  0  0  1  0  0  0  0  0  0
  190.8580  175.3250  138.6000 O   0  0  0  0  0  1  0  0  0  0  0  0
  190.2070  176.4960  139.0000 C   0  0  2  0  0  3  0  0  0  0  0  0
  190.8520  177.0070  141.3910 C   0  0  0  0  0  0  0  0  0  0  0  0
  189.9440  176.4680  140.4310 N   0  0  0  0  0  2  0  0  0  0  0  0
  191.9260  177.5550  141.0200 O   0  0  0  0  0  0  0  0  0  0  0  0
  191.6770  176.2850  143.6270 C   0  0  0  0  0  2  0  0  0  0  0  0
  191.5150  176.4560  145.1440 C   0  0  0  0  0  2  0  0  0  0  0  0
  190.1110  178.2730  143.4050 C   0  0  0  0  0  2  0  0  0  0  0  0
  190.1720  176.9200  145.4930 N   0  0  0  0  0  0  0  0  0  0  0  0
  190.0050  178.2660  144.9380 C   0  0  0  0  0  2  0  0  0  0  0  0
  190.5190  176.9080  142.8420 C   0  0  0  0  0  3  0  0  0  0  0  0
  190.1350  177.0440  146.8410 O   0  0  0  0  0  0  0  0  0  0  0  0
  191.4010  176.6370  147.2720 C   0  0  0  0  0  1  0  0  0  0  0  0
  1  2  2  0  0  0  0
  1 11  1  0  0  0  0
  2  6  1  0  0  0  0
  3 14  1  0  0  0  0
  4 11  1  6  0  0  0
  4  6  1  0  0  0  0
  4 16  1  0  0  0  0
  6 20  1  1  0  0  0
  7  5  1  6  0  0  0
  7  2  1  0  0  0  0
  8 18  1  0  0  0  0
  8 17  1  0  0  0  0
  9 10  1  0  0  0  0
 12 18  2  0  0  0  0
 13  8  2  0  0  0  0
 14 17  2  0  0  0  0
 14 24  1  0  0  0  0
 15  9  1  0  0  0  0
 16  9  2  0  0  0  0
 17  7  1  0  0  0  0
 18  1  1  0  0  0  0
 19 13  1  0  0  0  0
 19  3  2  0  0  0  0
 20 15  2  0  0  0  0
 21  3  1  0  0  0  0
 22 21  1  0  0  0  0
 24 23  1  6  0  0  0
 24 26  1  0  0  0  0
 25 33  1  0  0  0  0
 26 25  1  0  0  0  0
 27 25  2  0  0  0  0
 28 29  1  0  0  0  0
 29 31  1  0  0  0  0
 30 32  1  0  0  0  0
 31 34  1  0  0  0  0
 32 31  1  0  0  0  0
 33 30  1  0  0  0  0
 33 28  1  0  0  0  0
 34 35  1  0  0  0  0
M  END
>  <MODEL>
3

>  <REMARK>
 VINA RESULT:      -8.5      3.954      8.963
  Name = 
  5 active torsions:
  status: ('A' for Active; 'I' for Inactive)
    1  A    between atoms: C_2  and  C_27
    2  A    between atoms: C_4  and  C_5
    3  A    between atoms: C_10  and  N_11
    4  A    between atoms: C_10  and  C_26
    5  A    between atoms: O_16  and  N_24
                            x       y       z     vdW  Elec       q    Type
                         _______ _______ _______ _____ _____    ______ ____

>  <TORSDO>
F 5

$$$$
=
 OpenBabel11042411513D

 35 39  0  0  1  0  0  0  0  0999 V2000
  189.5770  177.0840  141.1090 C   0  0  0  0  0  0  0  0  0  0  0  0
  188.6810  177.7990  140.4440 C   0  0  0  0  0  0  0  0  0  0  0  0
  185.8030  177.9900  144.4730 C   0  0  0  0  0  0  0  0  0  0  0  0
  190.3050  177.0480  139.0130 C   0  0  1  0  0  3  0  0  0  0  0  0
  187.9910  179.9220  141.2070 O   0  0  0  0  0  1  0  0  0  0  0  0
  189.1130  177.9510  139.0280 C   0  0  1  0  0  3  0  0  0  0  0  0
  187.5940  178.5860  141.1220 C   0  0  2  0  0  3  0  0  0  0  0  0
  188.2130  177.2790  143.2210 C   0  0  0  0  0  0  0  0  0  0  0  0
  189.9410  176.3870  136.7810 C   0  0  0  0  0  0  0  0  0  0  0  0
  190.3760  175.7950  135.5630 N   0  0  0  0  0  1  0  0  0  0  0  0
  190.5870  176.5440  140.2070 C   0  0  0  0  0  2  0  0  0  0  0  0
  190.3330  176.1800  143.1630 O   0  0  0  0  0  0  0  0  0  0  0  0
  187.9540  176.8850  144.5360 C   0  0  0  0  0  3  0  0  0  0  0  0
  186.0370  178.4040  143.1440 C   0  0  0  0  0  0  0  0  0  0  0  0
  188.5170  176.7890  136.9330 C   0  0  0  0  0  3  0  0  0  0  0  0
  190.7620  176.4680  137.7900 N   0  0  0  0  0  0  0  0  0  0  0  0
  187.2640  178.0640  142.5150 C   0  0  0  0  0  0  0  0  0  0  0  0
  189.4410  176.8190  142.5420 C   0  0  0  0  0  0  0  0  0  0  0  0
  186.7640  177.2460  145.1580 C   0  0  0  0  0  3  0  0  0  0  0  0
  188.1100  177.4720  138.0140 C   0  0  0  0  0  3  0  0  0  0  0  0
  184.5490  178.3570  145.1990 C   0  0  0  0  0  2  0  0  0  0  0  0
  184.8670  178.7750  146.5530 N   0  0  0  0  0  1  0  0  0  0  0  0
  184.0640  179.7460  143.3530 O   0  0  0  0  0  1  0  0  0  0  0  0
  184.9730  179.2040  142.4390 C   0  0  2  0  0  3  0  0  0  0  0  0
  184.1690  178.7560  140.0830 C   0  0  0  0  0  0  0  0  0  0  0  0
  184.2780  178.3850  141.4570 N   0  0  0  0  0  2  0  0  0  0  0  0
  184.7010  179.8200  139.6630 O   0  0  0  0  0  0  0  0  0  0  0  0
  184.2830  177.4610  137.9600 C   0  0  0  0  0  2  0  0  0  0  0  0
  183.6650  176.3120  137.1510 C   0  0  0  0  0  2  0  0  0  0  0  0
  182.8320  176.6630  139.8860 C   0  0  0  0  0  2  0  0  0  0  0  0
  182.2720  176.0740  137.5340 N   0  0  0  0  0  0  0  0  0  0  0  0
  182.2640  175.6080  138.9230 C   0  0  0  0  0  2  0  0  0  0  0  0
  183.4120  177.8740  139.1490 C   0  0  0  0  0  3  0  0  0  0  0  0
  181.8250  175.0460  136.7730 O   0  0  0  0  0  0  0  0  0  0  0  0
  182.8130  174.0630  136.8820 C   0  0  0  0  0  1  0  0  0  0  0  0
  1 18  1  0  0  0  0
  2  1  2  0  0  0  0
  2  7  1  0  0  0  0
  3 19  1  0  0  0  0
  3 21  1  0  0  0  0
  4  6  1  0  0  0  0
  4 11  1  1  0  0  0
  6 20  1  6  0  0  0
  6  2  1  0  0  0  0
  7  5  1  1  0  0  0
  7 17  1  0  0  0  0
  8 13  1  0  0  0  0
  9 15  1  0  0  0  0
  9 16  2  0  0  0  0
 10  9  1  0  0  0  0
 11  1  1  0  0  0  0
 13 19  2  0  0  0  0
 14  3  2  0  0  0  0
 15 20  2  0  0  0  0
 16  4  1  0  0  0  0
 17 14  1  0  0  0  0
 17  8  2  0  0  0  0
 18 12  2  0  0  0  0
 18  8  1  0  0  0  0
 21 22  1  0  0  0  0
 24 14  1  0  0  0  0
 24 23  1  1  0  0  0
 25 26  1  0  0  0  0
 26 24  1  0  0  0  0
 27 25  2  0  0  0  0
 28 33  1  0  0  0  0
 29 31  1  0  0  0  0
 29 28  1  0  0  0  0
 31 32  1  0  0  0  0
 32 30  1  0  0  0  0
 33 30  1  0  0  0  0
 33 25  1  0  0  0  0
 34 35  1  0  0  0  0
 34 31  1  0  0  0  0
M  END
>  <MODEL>
4

>  <REMARK>
 VINA RESULT:      -8.5      3.289      4.712
  Name = 
  5 active torsions:
  status: ('A' for Active; 'I' for Inactive)
    1  A    between atoms: C_2  and  C_27
    2  A    between atoms: C_4  and  C_5
    3  A    between atoms: C_10  and  N_11
    4  A    between atoms: C_10  and  C_26
    5  A    between atoms: O_16  and  N_24
                            x       y       z     vdW  Elec       q    Type
                         _______ _______ _______ _____ _____    ______ ____

>  <TORSDO>
F 5

$$$$
=
 OpenBabel11042411513D

 35 39  0  0  1  0  0  0  0  0999 V2000
  186.3250  178.3980  144.6650 C   0  0  0  0  0  0  0  0  0  0  0  0
  186.5230  178.2220  143.3670 C   0  0  0  0  0  0  0  0  0  0  0  0
  181.6370  178.4330  142.5700 C   0  0  0  0  0  0  0  0  0  0  0  0
  188.4910  177.9380  144.5040 C   0  0  1  0  0  3  0  0  0  0  0  0
  185.7290  179.7800  141.7830 O   0  0  0  0  0  1  0  0  0  0  0  0
  187.9720  178.0160  143.1040 C   0  0  1  0  0  3  0  0  0  0  0  0
  185.4740  178.5230  142.3310 C   0  0  2  0  0  3  0  0  0  0  0  0
  183.8450  178.6550  144.2880 C   0  0  0  0  0  0  0  0  0  0  0  0
  190.1680  176.3830  143.9370 C   0  0  0  0  0  0  0  0  0  0  0  0
  191.3760  175.6860  144.2170 N   0  0  0  0  0  1  0  0  0  0  0  0
  187.5530  178.1600  145.4150 C   0  0  0  0  0  2  0  0  0  0  0  0
  184.8430  178.8910  146.4450 O   0  0  0  0  0  0  0  0  0  0  0  0
  182.5450  178.7280  144.7930 C   0  0  0  0  0  3  0  0  0  0  0  0
  182.9380  178.3580  142.0310 C   0  0  0  0  0  0  0  0  0  0  0  0
  189.3670  176.0110  142.7400 C   0  0  0  0  0  3  0  0  0  0  0  0
  189.7150  177.2590  144.7890 N   0  0  0  0  0  0  0  0  0  0  0  0
  184.0590  178.4900  142.8940 C   0  0  0  0  0  0  0  0  0  0  0  0
  184.9980  178.6780  145.2120 C   0  0  0  0  0  0  0  0  0  0  0  0
  181.4520  178.6280  143.9400 C   0  0  0  0  0  3  0  0  0  0  0  0
  188.3000  176.7390  142.3780 C   0  0  0  0  0  3  0  0  0  0  0  0
  180.4220  178.3440  141.7030 C   0  0  0  0  0  2  0  0  0  0  0  0
  179.3400  177.7070  142.4330 N   0  0  0  0  0  1  0  0  0  0  0  0
  184.3950  177.7420  140.2320 O   0  0  0  0  0  1  0  0  0  0  0  0
  183.0940  178.1450  140.5470 C   0  0  2  0  0  3  0  0  0  0  0  0
  181.8980  179.3390  138.6650 C   0  0  0  0  0  0  0  0  0  0  0  0
  182.7450  179.3530  139.8140 N   0  0  0  0  0  2  0  0  0  0  0  0
  181.3980  178.2570  138.2520 O   0  0  0  0  0  0  0  0  0  0  0  0
  181.0130  180.3540  136.5710 C   0  0  0  0  0  2  0  0  0  0  0  0
  180.4150  181.6190  135.9400 C   0  0  0  0  0  2  0  0  0  0  0  0
  180.7300  181.5360  138.8020 C   0  0  0  0  0  2  0  0  0  0  0  0
  180.8080  182.8230  136.6740 N   0  0  0  0  0  0  0  0  0  0  0  0
  180.2120  182.7470  138.0110 C   0  0  0  0  0  2  0  0  0  0  0  0
  181.6160  180.6190  137.9530 C   0  0  0  0  0  3  0  0  0  0  0  0
  180.2290  183.8740  136.0460 O   0  0  0  0  0  0  0  0  0  0  0  0
  180.8190  185.0040  136.6200 C   0  0  0  0  0  1  0  0  0  0  0  0
  1 18  1  0  0  0  0
  1 11  1  0  0  0  0
  2  1  2  0  0  0  0
  3 19  1  0  0  0  0
  4 16  1  0  0  0  0
  4 11  1  1  0  0  0
  6 20  1  6  0  0  0
  6  2  1  0  0  0  0
  6  4  1  0  0  0  0
  7  5  1  1  0  0  0
  7 17  1  0  0  0  0
  7  2  1  0  0  0  0
  8 13  1  0  0  0  0
  8 18  1  0  0  0  0
  9 10  1  0  0  0  0
  9 16  2  0  0  0  0
 14  3  2  0  0  0  0
 14 17  1  0  0  0  0
 15  9  1  0  0  0  0
 17  8  2  0  0  0  0
 18 12  2  0  0  0  0
 19 13  2  0  0  0  0
 20 15  2  0  0  0  0
 21 22  1  0  0  0  0
 21  3  1  0  0  0  0
 24 23  1  1  0  0  0
 24 14  1  0  0  0  0
 25 26  1  0  0  0  0
 26 24  1  0  0  0  0
 27 25  2  0  0  0  0
 28 33  1  0  0  0  0
 29 28  1  0  0  0  0
 29 31  1  0  0  0  0
 31 32  1  0  0  0  0
 32 30  1  0  0  0  0
 33 25  1  0  0  0  0
 33 30  1  0  0  0  0
 34 35  1  0  0  0  0
 34 31  1  0  0  0  0
M  END
>  <MODEL>
5

>  <REMARK>
 VINA RESULT:      -8.5      3.043      4.418
  Name = 
  5 active torsions:
  status: ('A' for Active; 'I' for Inactive)
    1  A    between atoms: C_2  and  C_27
    2  A    between atoms: C_4  and  C_5
    3  A    between atoms: C_10  and  N_11
    4  A    between atoms: C_10  and  C_26
    5  A    between atoms: O_16  and  N_24
                            x       y       z     vdW  Elec       q    Type
                         _______ _______ _______ _____ _____    ______ ____

>  <TORSDO>
F 5

$$$$
=
 OpenBabel11042411513D

 35 39  0  0  1  0  0  0  0  0999 V2000
  184.9540  178.2490  144.3020 C   0  0  0  0  0  0  0  0  0  0  0  0
  185.8410  177.8830  143.3890 C   0  0  0  0  0  0  0  0  0  0  0  0
  189.4090  177.8660  146.8270 C   0  0  0  0  0  0  0  0  0  0  0  0
  183.8460  178.3910  142.3840 C   0  0  1  0  0  3  0  0  0  0  0  0
  187.1210  175.9180  143.6410 O   0  0  0  0  0  1  0  0  0  0  0  0
  185.1890  177.8250  142.0530 C   0  0  1  0  0  3  0  0  0  0  0  0
  187.1860  177.3080  143.7390 C   0  0  2  0  0  3  0  0  0  0  0  0
  186.7070  178.1140  146.1100 C   0  0  0  0  0  0  0  0  0  0  0  0
  183.6170  179.4250  140.2800 C   0  0  0  0  0  0  0  0  0  0  0  0
  182.8340  180.0520  139.2710 N   0  0  0  0  0  1  0  0  0  0  0  0
  183.6940  178.6380  143.6780 C   0  0  0  0  0  2  0  0  0  0  0  0
  184.4250  178.6410  146.5770 O   0  0  0  0  0  0  0  0  0  0  0  0
  187.1190  178.3740  147.4180 C   0  0  0  0  0  3  0  0  0  0  0  0
  189.0220  177.5940  145.4980 C   0  0  0  0  0  0  0  0  0  0  0  0
  185.0960  179.3780  140.1360 C   0  0  0  0  0  3  0  0  0  0  0  0
  183.0440  179.0020  141.3710 N   0  0  0  0  0  0  0  0  0  0  0  0
  187.6520  177.6990  145.1360 C   0  0  0  0  0  0  0  0  0  0  0  0
  185.2990  178.3390  145.7210 C   0  0  0  0  0  0  0  0  0  0  0  0
  188.4570  178.2410  147.7750 C   0  0  0  0  0  3  0  0  0  0  0  0
  185.8460  178.6770  141.0000 C   0  0  0  0  0  3  0  0  0  0  0  0
  190.8300  177.7290  147.2740 C   0  0  0  0  0  2  0  0  0  0  0  0
  191.0850  176.3630  147.6950 N   0  0  0  0  0  1  0  0  0  0  0  0
  191.2530  177.9330  144.6940 O   0  0  0  0  0  1  0  0  0  0  0  0
  190.0820  177.1930  144.5040 C   0  0  2  0  0  3  0  0  0  0  0  0
  190.0640  176.5460  142.0590 C   0  0  0  0  0  0  0  0  0  0  0  0
  189.5970  177.3510  143.1410 N   0  0  0  0  0  2  0  0  0  0  0  0
  190.9170  175.6380  142.2590 O   0  0  0  0  0  0  0  0  0  0  0  0
  189.1010  178.2530  140.5240 C   0  0  0  0  0  2  0  0  0  0  0  0
  188.8580  178.6330  139.0570 C   0  0  0  0  0  2  0  0  0  0  0  0
  190.5580  176.3780  139.6230 C   0  0  0  0  0  2  0  0  0  0  0  0
  188.8270  177.4510  138.1940 N   0  0  0  0  0  0  0  0  0  0  0  0
  190.1620  176.8470  138.2140 C   0  0  0  0  0  2  0  0  0  0  0  0
  189.5380  176.7950  140.6860 C   0  0  0  0  0  3  0  0  0  0  0  0
  188.6150  177.8910  136.9300 O   0  0  0  0  0  0  0  0  0  0  0  0
  187.3600  178.5060  136.9720 C   0  0  0  0  0  1  0  0  0  0  0  0
  1 18  1  0  0  0  0
  2  7  1  0  0  0  0
  2  1  2  0  0  0  0
  3 21  1  0  0  0  0
  3 19  1  0  0  0  0
  4 11  1  1  0  0  0
  6 20  1  6  0  0  0
  6  4  1  0  0  0  0
  6  2  1  0  0  0  0
  7  5  1  1  0  0  0
  7 17  1  0  0  0  0
  8 13  1  0  0  0  0
  9 16  2  0  0  0  0
 10  9  1  0  0  0  0
 11  1  1  0  0  0  0
 13 19  2  0  0  0  0
 14  3  2  0  0  0  0
 15  9  1  0  0  0  0
 15 20  2  0  0  0  0
 16  4  1  0  0  0  0
 17 14  1  0  0  0  0
 17  8  2  0  0  0  0
 18  8  1  0  0  0  0
 18 12  2  0  0  0  0
 21 22  1  0  0  0  0
 24 23  1  6  0  0  0
 24 14  1  0  0  0  0
 25 27  2  0  0  0  0
 25 26  1  0  0  0  0
 26 24  1  0  0  0  0
 28 33  1  0  0  0  0
 29 28  1  0  0  0  0
 30 33  1  0  0  0  0
 31 32  1  0  0  0  0
 31 29  1  0  0  0  0
 32 30  1  0  0  0  0
 33 25  1  0  0  0  0
 34 35  1  0  0  0  0
 34 31  1  0  0  0  0
M  END
>  <MODEL>
6

>  <REMARK>
 VINA RESULT:      -8.2      4.109      7.566
  Name = 
  5 active torsions:
  status: ('A' for Active; 'I' for Inactive)
    1  A    between atoms: C_2  and  C_27
    2  A    between atoms: C_4  and  C_5
    3  A    between atoms: C_10  and  N_11
    4  A    between atoms: C_10  and  C_26
    5  A    between atoms: O_16  and  N_24
                            x       y       z     vdW  Elec       q    Type
                         _______ _______ _______ _____ _____    ______ ____

>  <TORSDO>
F 5

$$$$
=
 OpenBabel11042411513D

 35 39  0  0  1  0  0  0  0  0999 V2000
  186.6780  178.2190  144.7350 C   0  0  0  0  0  0  0  0  0  0  0  0
  186.8960  178.2050  143.4290 C   0  0  0  0  0  0  0  0  0  0  0  0
  182.0350  178.6830  142.5920 C   0  0  0  0  0  0  0  0  0  0  0  0
  188.8310  177.7100  144.5490 C   0  0  1  0  0  3  0  0  0  0  0  0
  186.1830  179.9800  142.0470 O   0  0  0  0  0  1  0  0  0  0  0  0
  188.3430  177.9850  143.1630 C   0  0  1  0  0  3  0  0  0  0  0  0
  185.8770  178.6720  142.4240 C   0  0  2  0  0  3  0  0  0  0  0  0
  184.2160  178.6070  144.3570 C   0  0  0  0  0  0  0  0  0  0  0  0
  190.4680  176.1850  143.8120 C   0  0  0  0  0  0  0  0  0  0  0  0
  191.6480  175.4180  144.0180 N   0  0  0  0  0  1  0  0  0  0  0  0
  187.8840  177.8450  145.4670 C   0  0  0  0  0  2  0  0  0  0  0  0
  185.1790  178.5300  146.5420 O   0  0  0  0  0  0  0  0  0  0  0  0
  182.9090  178.6580  144.8470 C   0  0  0  0  0  3  0  0  0  0  0  0
  183.3440  178.6330  142.0670 C   0  0  0  0  0  0  0  0  0  0  0  0
  189.6800  175.9980  142.5650 C   0  0  0  0  0  3  0  0  0  0  0  0
  190.0280  176.9600  144.7630 N   0  0  0  0  0  0  0  0  0  0  0  0
  184.4510  178.6160  142.9570 C   0  0  0  0  0  0  0  0  0  0  0  0
  185.3500  178.4710  145.2940 C   0  0  0  0  0  0  0  0  0  0  0  0
  181.8300  178.7060  143.9720 C   0  0  0  0  0  3  0  0  0  0  0  0
  188.6440  176.8020  142.2830 C   0  0  0  0  0  3  0  0  0  0  0  0
  180.8350  178.7480  141.7010 C   0  0  0  0  0  2  0  0  0  0  0  0
  179.7660  177.9350  142.2550 N   0  0  0  0  0  1  0  0  0  0  0  0
  182.4940  177.8880  139.9560 O   0  0  0  0  0  1  0  0  0  0  0  0
  183.5220  178.6080  140.5710 C   0  0  2  0  0  3  0  0  0  0  0  0
  185.5150  178.4160  139.0260 C   0  0  0  0  0  0  0  0  0  0  0  0
  184.8170  178.0480  140.2150 N   0  0  0  0  0  2  0  0  0  0  0  0
  185.0290  179.2730  138.2380 O   0  0  0  0  0  0  0  0  0  0  0  0
  187.0370  177.6520  137.2100 C   0  0  0  0  0  2  0  0  0  0  0  0
  188.4860  177.2960  136.8470 C   0  0  0  0  0  2  0  0  0  0  0  0
  187.9760  178.5120  139.4080 C   0  0  0  0  0  2  0  0  0  0  0  0
  189.2480  176.8800  138.0260 N   0  0  0  0  0  0  0  0  0  0  0  0
  189.3530  178.0360  138.9210 C   0  0  0  0  0  2  0  0  0  0  0  0
  186.8250  177.7700  138.7210 C   0  0  0  0  0  3  0  0  0  0  0  0
  190.5030  176.5950  137.6030 O   0  0  0  0  0  0  0  0  0  0  0  0
  191.2590  176.4890  138.7740 C   0  0  0  0  0  1  0  0  0  0  0  0
  1 18  1  0  0  0  0
  1 11  1  0  0  0  0
  2  1  2  0  0  0  0
  3 19  1  0  0  0  0
  4 16  1  0  0  0  0
  4 11  1  1  0  0  0
  6 20  1  6  0  0  0
  6  2  1  0  0  0  0
  6  4  1  0  0  0  0
  7  5  1  1  0  0  0
  7 17  1  0  0  0  0
  7  2  1  0  0  0  0
  8 13  1  0  0  0  0
  8 18  1  0  0  0  0
  9 10  1  0  0  0  0
  9 16  2  0  0  0  0
 14  3  2  0  0  0  0
 14 17  1  0  0  0  0
 15  9  1  0  0  0  0
 17  8  2  0  0  0  0
 18 12  2  0  0  0  0
 19 13  2  0  0  0  0
 20 15  2  0  0  0  0
 21 22  1  0  0  0  0
 21  3  1  0  0  0  0
 24 23  1  6  0  0  0
 24 14  1  0  0  0  0
 25 26  1  0  0  0  0
 26 24  1  0  0  0  0
 27 25  2  0  0  0  0
 28 33  1  0  0  0  0
 29 28  1  0  0  0  0
 29 31  1  0  0  0  0
 31 32  1  0  0  0  0
 32 30  1  0  0  0  0
 33 25  1  0  0  0  0
 33 30  1  0  0  0  0
 34 31  1  0  0  0  0
 34 35  1  0  0  0  0
M  END
>  <MODEL>
7

>  <REMARK>
 VINA RESULT:      -8.2      3.029      4.614
  Name = 
  5 active torsions:
  status: ('A' for Active; 'I' for Inactive)
    1  A    between atoms: C_2  and  C_27
    2  A    between atoms: C_4  and  C_5
    3  A    between atoms: C_10  and  N_11
    4  A    between atoms: C_10  and  C_26
    5  A    between atoms: O_16  and  N_24
                            x       y       z     vdW  Elec       q    Type
                         _______ _______ _______ _____ _____    ______ ____

>  <TORSDO>
F 5

$$$$
=
 OpenBabel11042411513D

 35 39  0  0  1  0  0  0  0  0999 V2000
  188.3550  173.3120  135.9900 C   0  0  0  0  0  0  0  0  0  0  0  0
  187.5510  174.1590  136.6160 C   0  0  0  0  0  0  0  0  0  0  0  0
  191.4630  176.3390  138.7370 C   0  0  0  0  0  0  0  0  0  0  0  0
  186.3170  172.5380  135.5690 C   0  0  1  0  0  3  0  0  0  0  0  0
  187.7880  176.4920  136.3600 O   0  0  0  0  0  1  0  0  0  0  0  0
  186.1340  173.8180  136.3190 C   0  0  1  0  0  3  0  0  0  0  0  0
  188.0370  175.4390  137.2400 C   0  0  2  0  0  3  0  0  0  0  0  0
  190.3800  174.4810  136.9330 C   0  0  0  0  0  0  0  0  0  0  0  0
  184.3200  171.6080  136.4040 C   0  0  0  0  0  0  0  0  0  0  0  0
  183.2750  170.6440  136.3640 N   0  0  0  0  0  1  0  0  0  0  0  0
  187.5930  172.2350  135.3670 C   0  0  0  0  0  2  0  0  0  0  0  0
  190.5530  172.6500  135.4090 O   0  0  0  0  0  0  0  0  0  0  0  0
  191.7550  174.5160  137.1730 C   0  0  0  0  0  3  0  0  0  0  0  0
  190.0700  176.3280  138.5130 C   0  0  0  0  0  0  0  0  0  0  0  0
  184.3940  172.5620  137.5420 C   0  0  0  0  0  3  0  0  0  0  0  0
  185.2640  171.5740  135.5060 N   0  0  0  0  0  0  0  0  0  0  0  0
  189.5200  175.4040  137.5850 C   0  0  0  0  0  0  0  0  0  0  0  0
  189.8110  173.4380  136.0550 C   0  0  0  0  0  0  0  0  0  0  0  0
  192.2920  175.4430  138.0590 C   0  0  0  0  0  3  0  0  0  0  0  0
  185.2840  173.5660  137.5360 C   0  0  0  0  0  3  0  0  0  0  0  0
  192.1010  177.3190  139.6680 C   0  0  0  0  0  2  0  0  0  0  0  0
  193.5460  177.2060  139.5890 N   0  0  0  0  0  1  0  0  0  0  0  0
  189.3200  178.5940  138.7220 O   0  0  0  0  0  1  0  0  0  0  0  0
  189.2100  177.3110  139.2660 C   0  0  2  0  0  3  0  0  0  0  0  0
  188.6960  177.8560  141.6820 C   0  0  0  0  0  0  0  0  0  0  0  0
  189.5620  177.3260  140.6780 N   0  0  0  0  0  2  0  0  0  0  0  0
  187.5650  178.3180  141.3710 O   0  0  0  0  0  0  0  0  0  0  0  0
  188.0060  177.4620  144.0410 C   0  0  0  0  0  2  0  0  0  0  0  0
  188.4970  177.1450  145.4600 C   0  0  0  0  0  2  0  0  0  0  0  0
  190.3840  176.9760  143.2910 C   0  0  0  0  0  2  0  0  0  0  0  0
  189.8850  177.5670  145.6560 N   0  0  0  0  0  0  0  0  0  0  0  0
  190.7270  176.7560  144.7720 C   0  0  0  0  0  2  0  0  0  0  0  0
  189.1480  177.8620  143.1030 C   0  0  0  0  0  3  0  0  0  0  0  0
  190.2220  177.2390  146.9270 O   0  0  0  0  0  0  0  0  0  0  0  0
  191.4800  176.6400  146.8210 C   0  0  0  0  0  1  0  0  0  0  0  0
  1 18  1  0  0  0  0
  1  2  2  0  0  0  0
  2  7  1  0  0  0  0
  3 21  1  0  0  0  0
  4 11  1  1  0  0  0
  4  6  1  0  0  0  0
  6  2  1  0  0  0  0
  6 20  1  1  0  0  0
  7  5  1  6  0  0  0
  7 17  1  0  0  0  0
  8 13  2  0  0  0  0
  8 17  1  0  0  0  0
  9 15  1  0  0  0  0
 10  9  1  0  0  0  0
 11  1  1  0  0  0  0
 12 18  2  0  0  0  0
 13 19  1  0  0  0  0
 14  3  1  0  0  0  0
 14 24  1  0  0  0  0
 16  4  1  0  0  0  0
 16  9  2  0  0  0  0
 17 14  2  0  0  0  0
 18  8  1  0  0  0  0
 19  3  2  0  0  0  0
 20 15  2  0  0  0  0
 22 21  1  0  0  0  0
 24 23  1  6  0  0  0
 24 26  1  0  0  0  0
 25 33  1  0  0  0  0
 26 25  1  0  0  0  0
 27 25  2  0  0  0  0
 28 29  1  0  0  0  0
 29 31  1  0  0  0  0
 30 32  1  0  0  0  0
 31 34  1  0  0  0  0
 32 31  1  0  0  0  0
 33 30  1  0  0  0  0
 33 28  1  0  0  0  0
 35 34  1  0  0  0  0
M  END
>  <MODEL>
8

>  <REMARK>
 VINA RESULT:      -8.0      4.651     10.469
  Name = 
  5 active torsions:
  status: ('A' for Active; 'I' for Inactive)
    1  A    between atoms: C_2  and  C_27
    2  A    between atoms: C_4  and  C_5
    3  A    between atoms: C_10  and  N_11
    4  A    between atoms: C_10  and  C_26
    5  A    between atoms: O_16  and  N_24
                            x       y       z     vdW  Elec       q    Type
                         _______ _______ _______ _____ _____    ______ ____

>  <TORSDO>
F 5

$$$$
=
 OpenBabel11042411513D

 35 39  0  0  1  0  0  0  0  0999 V2000
  184.9500  178.6610  144.2440 C   0  0  0  0  0  0  0  0  0  0  0  0
  185.5930  178.4050  143.1150 C   0  0  0  0  0  0  0  0  0  0  0  0
  181.2770  178.0310  140.7110 C   0  0  0  0  0  0  0  0  0  0  0  0
  187.0660  178.4230  144.8700 C   0  0  1  0  0  3  0  0  0  0  0  0
  185.2810  179.7390  141.1940 O   0  0  0  0  0  1  0  0  0  0  0  0
  187.0560  178.3340  143.3770 C   0  0  1  0  0  3  0  0  0  0  0  0
  184.9450  178.5090  141.7620 C   0  0  2  0  0  3  0  0  0  0  0  0
  182.7380  178.6220  143.0330 C   0  0  0  0  0  0  0  0  0  0  0  0
  188.9440  177.0160  145.0730 C   0  0  0  0  0  0  0  0  0  0  0  0
  190.0310  176.4760  145.8160 N   0  0  0  0  0  1  0  0  0  0  0  0
  185.8590  178.6160  145.3840 C   0  0  0  0  0  2  0  0  0  0  0  0
  182.9140  179.1330  145.3590 O   0  0  0  0  0  0  0  0  0  0  0  0
  181.3420  178.5960  143.0620 C   0  0  0  0  0  3  0  0  0  0  0  0
  182.6860  178.0520  140.6500 C   0  0  0  0  0  0  0  0  0  0  0  0
  188.6340  176.4670  143.7260 C   0  0  0  0  0  3  0  0  0  0  0  0
  188.1640  177.9040  145.6220 N   0  0  0  0  0  0  0  0  0  0  0  0
  183.4290  178.3710  141.8180 C   0  0  0  0  0  0  0  0  0  0  0  0
  183.4980  178.8400  144.2810 C   0  0  0  0  0  0  0  0  0  0  0  0
  180.6190  178.3120  141.9090 C   0  0  0  0  0  3  0  0  0  0  0  0
  187.7060  177.0460  142.9490 C   0  0  0  0  0  3  0  0  0  0  0  0
  180.4450  177.7450  139.5020 C   0  0  0  0  0  2  0  0  0  0  0  0
  179.5970  178.8860  139.2050 N   0  0  0  0  0  1  0  0  0  0  0  0
  182.9770  178.6540  138.3500 O   0  0  0  0  0  1  0  0  0  0  0  0
  183.3580  177.7410  139.3370 C   0  0  2  0  0  3  0  0  0  0  0  0
  183.8050  175.7060  137.9030 C   0  0  0  0  0  0  0  0  0  0  0  0
  183.0580  176.3810  138.9150 N   0  0  0  0  0  2  0  0  0  0  0  0
  184.7840  176.2730  137.3450 O   0  0  0  0  0  0  0  0  0  0  0  0
  182.7440  174.3180  136.1290 C   0  0  0  0  0  2  0  0  0  0  0  0
  182.6150  172.9030  135.5460 C   0  0  0  0  0  2  0  0  0  0  0  0
  184.6080  173.3700  137.5720 C   0  0  0  0  0  2  0  0  0  0  0  0
  182.8970  171.8790  136.5530 N   0  0  0  0  0  0  0  0  0  0  0  0
  184.3060  172.0050  136.9360 C   0  0  0  0  0  2  0  0  0  0  0  0
  183.4100  174.3230  137.5080 C   0  0  0  0  0  3  0  0  0  0  0  0
  182.7620  170.6780  135.9420 O   0  0  0  0  0  0  0  0  0  0  0  0
  184.0450  170.3640  135.4840 C   0  0  0  0  0  1  0  0  0  0  0  0
  1 18  1  0  0  0  0
  1 11  1  0  0  0  0
  2  6  1  0  0  0  0
  2  1  2  0  0  0  0
  3 19  1  0  0  0  0
  4 11  1  1  0  0  0
  4 16  1  0  0  0  0
  6 20  1  1  0  0  0
  6  4  1  0  0  0  0
  7  5  1  1  0  0  0
  7 17  1  0  0  0  0
  7  2  1  0  0  0  0
  8 13  1  0  0  0  0
  8 18  1  0  0  0  0
  9 16  2  0  0  0  0
  9 10  1  0  0  0  0
 14  3  2  0  0  0  0
 14 17  1  0  0  0  0
 15  9  1  0  0  0  0
 17  8  2  0  0  0  0
 18 12  2  0  0  0  0
 19 13  2  0  0  0  0
 20 15  2  0  0  0  0
 21  3  1  0  0  0  0
 22 21  1  0  0  0  0
 24 23  1  6  0  0  0
 24 14  1  0  0  0  0
 25 26  1  0  0  0  0
 26 24  1  0  0  0  0
 27 25  2  0  0  0  0
 28 33  1  0  0  0  0
 29 28  1  0  0  0  0
 29 31  1  0  0  0  0
 31 32  1  0  0  0  0
 32 30  1  0  0  0  0
 33 30  1  0  0  0  0
 33 25  1  0  0  0  0
 34 31  1  0  0  0  0
 35 34  1  0  0  0  0
M  END
>  <MODEL>
9

>  <REMARK>
 VINA RESULT:      -8.0      2.038      2.531
  Name = 
  5 active torsions:
  status: ('A' for Active; 'I' for Inactive)
    1  A    between atoms: C_2  and  C_27
    2  A    between atoms: C_4  and  C_5
    3  A    between atoms: C_10  and  N_11
    4  A    between atoms: C_10  and  C_26
    5  A    between atoms: O_16  and  N_24
                            x       y       z     vdW  Elec       q    Type
                         _______ _______ _______ _____ _____    ______ ____

>  <TORSDO>
F 5

$$$$
