=
 OpenBabel11042409563D

 66 72  0  0  1  0  0  0  0  0999 V2000
  189.0960  177.2070  138.1420 N   0  0  0  0  0  0  0  0  0  0  0  0
  189.1010  175.6440  135.7570 N   0  0  0  0  0  0  0  0  0  0  0  0
  187.9310  175.6930  136.5720 C   0  0  0  0  0  0  0  0  0  0  0  0
  190.1350  176.3970  135.9820 C   0  0  0  0  0  0  0  0  0  0  0  0
  187.7960  176.7790  137.5940 C   0  0  2  0  0  3  0  0  0  0  0  0
  190.3440  178.7850  136.7100 C   0  0  0  0  0  1  0  0  0  0  0  0
  190.1920  177.3440  137.1600 C   0  0  1  0  0  3  0  0  0  0  0  0
  186.9580  174.7910  136.4320 C   0  0  0  0  0  3  0  0  0  0  0  0
  186.9060  177.9470  137.1190 C   0  0  2  0  0  3  0  0  0  0  0  0
  187.5650  179.3180  137.2520 C   0  0  0  0  0  1  0  0  0  0  0  0
  185.4890  177.8990  137.7070 C   0  0  2  0  0  3  0  0  0  0  0  0
  184.4460  178.0090  136.6050 C   0  0  0  0  0  1  0  0  0  0  0  0
  185.2980  178.9580  138.6950 N   0  0  0  0  0  2  0  0  0  0  0  0
  183.6870  177.4050  139.6170 C   0  0  0  0  0  1  0  0  0  0  0  0
  184.8020  178.3810  139.9400 C   0  0  2  0  0  3  0  0  0  0  0  0
  184.1840  179.6930  141.0520 S   0  0  0  0  0  0  0  0  0  0  0  0
  184.0090  178.2420  143.5540 C   0  0  1  0  0  3  0  0  0  0  0  0
  190.9710  177.5800  144.9260 C   0  0  0  0  0  0  0  0  0  0  0  0
  187.1740  178.3420  141.5730 C   0  0  0  0  0  2  0  0  0  0  0  0
  190.3870  176.9470  147.1850 O   0  0  0  0  0  1  0  0  0  0  0  0
  186.4170  178.8120  142.7980 C   0  0  1  0  0  3  0  0  0  0  0  0
  188.8790  178.9360  141.7330 S   0  0  0  0  0  0  0  0  0  0  0  0
  186.4200  176.4540  143.7330 C   0  0  0  0  0  1  0  0  0  0  0  0
  184.9000  179.0030  142.5920 C   0  0  1  0  0  0  0  0  0  0  0  0
  183.1440  180.3590  143.7270 O   0  0  0  0  0  1  0  0  0  0  0  0
  192.2860  177.3930  145.1910 F   0  0  0  0  0  0  0  0  0  0  0  0
  190.5800  178.0130  143.6580 C   0  0  0  0  0  3  0  0  0  0  0  0
  188.2390  177.9760  144.3500 C   0  0  0  0  0  0  0  0  0  0  0  0
  188.6580  177.5380  145.6210 C   0  0  0  0  0  3  0  0  0  0  0  0
  184.4040  178.6610  144.9670 C   0  0  1  0  0  3  0  0  0  0  0  0
  189.2300  178.2210  143.3570 C   0  0  0  0  0  0  0  0  0  0  0  0
  186.7550  177.9200  144.0280 C   0  0  1  0  0  0  0  0  0  0  0  0
  185.9010  178.3730  145.2540 C   0  0  0  0  0  2  0  0  0  0  0  0
  184.3570  179.6780  143.8470 C   0  0  1  0  0  0  0  0  0  0  0  0
  190.0090  177.3610  145.9150 C   0  0  0  0  0  0  0  0  0  0  0  0
  190.9080  176.1920  139.2110 O   0  0  0  0  0  1  0  0  0  0  0  0
  189.5120  176.2400  139.1540 C   0  0  0  0  0  2  0  0  0  0  0  0
  191.2350  176.3550  135.1230 O   0  0  0  0  0  0  0  0  0  0  0  0
  192.2370  175.3490  135.2180 C   0  0  0  0  0  2  0  0  0  0  0  0
  193.5410  175.8490  134.6160 C   0  0  0  0  0  2  0  0  0  0  0  0
  195.8550  175.9870  135.1010 C   0  0  0  0  0  2  0  0  0  0  0  0
  195.2670  174.9340  135.9220 C   0  0  2  0  0  3  0  0  0  0  0  0
  194.5050  176.1650  135.6640 N   0  0  0  0  0  0  0  0  0  0  0  0
  195.8350  174.9940  137.3320 C   0  0  2  0  0  3  0  0  0  0  0  0
  197.1940  174.6640  137.3160 O   0  0  0  0  0  1  0  0  0  0  0  0
  195.9260  173.5390  139.2290 O   0  0  0  0  0  1  0  0  0  0  0  0
  194.3670  172.9410  137.5280 C   0  0  0  0  0  1  0  0  0  0  0  0
  195.0600  174.0710  138.2740 C   0  0  2  0  0  3  0  0  0  0  0  0
  187.0290  173.6680  135.4460 C   0  0  0  0  0  2  0  0  0  0  0  0
  186.0540  171.4940  135.4220 O   0  0  0  0  0  0  0  0  0  0  0  0
  185.8890  172.7260  135.6270 C   0  0  0  0  0  0  0  0  0  0  0  0
  184.6500  173.2270  136.0260 O   0  0  0  0  0  0  0  0  0  0  0  0
  183.4250  172.6050  135.6520 C   0  0  1  0  0  3  0  0  0  0  0  0
  182.8300  171.8280  136.8290 C   0  0  1  0  0  3  0  0  0  0  0  0
  182.8660  172.6040  137.9910 O   0  0  0  0  0  1  0  0  0  0  0  0
  181.4000  171.3480  136.5590 C   0  0  0  0  0  2  0  0  0  0  0  0
  180.3320  172.3260  137.0510 C   0  0  2  0  0  3  0  0  0  0  0  0
  179.7880  171.8940  138.2640 O   0  0  0  0  0  1  0  0  0  0  0  0
  179.2450  171.3730  135.0730 N   0  0  0  0  0  1  0  0  0  0  0  0
  179.2330  172.4870  136.0090 C   0  0  0  0  0  2  0  0  0  0  0  0
  182.4430  173.6390  135.1010 C   0  0  0  0  0  2  0  0  0  0  0  0
  182.9310  174.9990  135.3090 N   0  0  0  0  0  2  0  0  0  0  0  0
  181.8790  175.8810  135.0120 N   0  0  0  0  0  2  0  0  0  0  0  0
  180.9760  176.0020  137.5300 S   0  0  0  0  0  0  0  0  0  0  0  0
  179.5040  176.4250  135.3720 N   0  0  0  0  0  1  0  0  0  0  0  0
  180.7820  176.0970  135.9050 C   0  0  0  0  0  0  0  0  0  0  0  0
  1 37  1  0  0  0  0
  2  4  2  0  0  0  0
  2  3  1  0  0  0  0
  3  5  1  0  0  0  0
  4  7  1  0  0  0  0
  5  9  1  6  0  0  0
  5  1  1  0  0  0  0
  7  6  1  6  0  0  0
  7  1  1  0  0  0  0
  8  3  2  0  0  0  0
  9 10  1  1  0  0  0
  9 11  1  0  0  0  0
 11 12  1  6  0  0  0
 11 13  1  0  0  0  0
 13 15  1  0  0  0  0
 15 14  1  6  0  0  0
 15 16  1  0  0  0  0
 16 24  1  0  0  0  0
 17 34  1  0  0  0  0
 17 30  1  0  0  0  0
 18 26  1  0  0  0  0
 18 35  1  0  0  0  0
 19 22  1  0  0  0  0
 19 21  1  0  0  0  0
 21 32  1  0  0  0  0
 22 31  1  0  0  0  0
 23 32  1  0  0  0  0
 24 21  1  0  0  0  0
 24 17  1  0  0  0  0
 24 34  1  0  0  0  0
 25 34  1  0  0  0  0
 27 18  2  0  0  0  0
 28 29  1  0  0  0  0
 29 35  2  0  0  0  0
 30 33  1  0  0  0  0
 31 27  1  0  0  0  0
 31 28  2  0  0  0  0
 32 28  1  0  0  0  0
 32 33  1  0  0  0  0
 34 30  1  0  0  0  0
 35 20  1  0  0  0  0
 37 36  1  0  0  0  0
 38 39  1  0  0  0  0
 38  4  1  0  0  0  0
 40 39  1  0  0  0  0
 40 43  1  0  0  0  0
 41 43  1  0  0  0  0
 41 42  1  0  0  0  0
 42 44  1  0  0  0  0
 43 42  1  0  0  0  0
 44 48  1  0  0  0  0
 45 44  1  0  0  0  0
 47 48  1  0  0  0  0
 48 46  1  0  0  0  0
 49 51  1  0  0  0  0
 49  8  1  0  0  0  0
 50 51  2  0  0  0  0
 51 52  1  0  0  0  0
 53 52  1  0  0  0  0
 53 54  1  0  0  0  0
 54 55  1  0  0  0  0
 56 54  1  0  0  0  0
 56 57  1  0  0  0  0
 57 58  1  0  0  0  0
 59 60  1  0  0  0  0
 60 57  1  0  0  0  0
 61 62  1  0  0  0  0
 61 53  1  0  0  0  0
 63 62  1  0  0  0  0
 63 66  1  0  0  0  0
 65 66  1  0  0  0  0
 66 64  2  0  0  0  0
M  END
>  <MODEL>
1

>  <REMARK>
 VINA RESULT:      -3.0      0.000      0.000
  Name = 
  25 active torsions:
  status: ('A' for Active; 'I' for Inactive)
    1  A    between atoms: C_1  and  C_5
    2  A    between atoms: C_1  and  C_20
    3  A    between atoms: C_2  and  C_35
    4  A    between atoms: C_2  and  C_64
    5  A    between atoms: N_3  and  C_60
    6  A    between atoms: C_5  and  C_53
    7  A    between atoms: C_5  and  O_58
    8  A    between atoms: S_9  and  C_23
    9  A    between atoms: S_9  and  C_28
   10  A    between atoms: C_10  and  O_32
   11  A    between atoms: C_10  and  C_54
   12  A    between atoms: C_13  and  C_20
   13  A    between atoms: C_13  and  C_48
   14  A    between atoms: C_19  and  N_40
   15  A    between atoms: C_19  and  C_43
   16  A    between atoms: C_23  and  N_40
   17  A    between atoms: C_27  and  C_49
   18  A    between atoms: C_27  and  C_51
   19  A    between atoms: C_31  and  O_32
   20  A    between atoms: C_35  and  O_58
   21  A    between atoms: C_37  and  C_43
   22  A    between atoms: N_41  and  C_53
   23  A    between atoms: N_41  and  N_59
   24  A    between atoms: C_47  and  N_59
   25  A    between atoms: C_54  and  N_62
                            x       y       z     vdW  Elec       q    Type
                         _______ _______ _______ _____ _____    ______ ____

>  <TORSDO>
F 25

$$$$
=
 OpenBabel11042409563D

 66 72  0  0  1  0  0  0  0  0999 V2000
  190.9770  176.3230  135.6840 N   0  0  0  0  0  0  0  0  0  0  0  0
  190.6330  175.0050  138.1890 N   0  0  0  0  0  0  0  0  0  0  0  0
  190.2110  176.3580  138.0350 C   0  0  0  0  0  0  0  0  0  0  0  0
  191.0480  174.2890  137.1870 C   0  0  0  0  0  0  0  0  0  0  0  0
  190.0460  176.9220  136.6570 C   0  0  2  0  0  3  0  0  0  0  0  0
  190.2740  174.1220  134.8100 C   0  0  0  0  0  1  0  0  0  0  0  0
  191.1650  174.8600  135.7920 C   0  0  1  0  0  3  0  0  0  0  0  0
  189.9600  177.1250  139.0970 C   0  0  0  0  0  3  0  0  0  0  0  0
  188.5760  176.9360  136.1850 C   0  0  2  0  0  3  0  0  0  0  0  0
  187.9740  178.3350  136.0830 C   0  0  0  0  0  1  0  0  0  0  0  0
  187.6880  175.9530  136.9600 C   0  0  2  0  0  3  0  0  0  0  0  0
  187.9160  174.5270  136.4790 C   0  0  0  0  0  1  0  0  0  0  0  0
  186.2770  176.3120  136.8350 N   0  0  0  0  0  2  0  0  0  0  0  0
  185.5970  176.9660  134.6070 C   0  0  0  0  0  1  0  0  0  0  0  0
  185.7550  175.8060  135.5710 C   0  0  2  0  0  3  0  0  0  0  0  0
  184.1440  174.9810  135.8280 S   0  0  0  0  0  0  0  0  0  0  0  0
  184.1260  176.2650  138.4260 C   0  0  1  0  0  3  0  0  0  0  0  0
  179.7230  181.6700  136.9480 C   0  0  0  0  0  0  0  0  0  0  0  0
  182.9900  178.0610  135.3540 C   0  0  0  0  0  2  0  0  0  0  0  0
  179.5180  182.0520  139.3270 O   0  0  0  0  0  1  0  0  0  0  0  0
  182.6080  177.3830  136.6550 C   0  0  1  0  0  3  0  0  0  0  0  0
  181.4860  178.8160  134.6780 S   0  0  0  0  0  0  0  0  0  0  0  0
  183.7630  179.2150  137.9750 C   0  0  0  0  0  1  0  0  0  0  0  0
  183.4960  176.1850  137.0500 C   0  0  1  0  0  0  0  0  0  0  0  0
  183.1740  174.1780  138.4920 O   0  0  0  0  0  1  0  0  0  0  0  0
  178.9310  182.7370  136.6880 F   0  0  0  0  0  0  0  0  0  0  0  0
  180.2250  180.9110  135.8900 C   0  0  0  0  0  3  0  0  0  0  0  0
  181.3770  179.4460  137.4670 C   0  0  0  0  0  0  0  0  0  0  0  0
  180.8600  180.2270  138.5170 C   0  0  0  0  0  3  0  0  0  0  0  0
  182.9940  176.4340  139.4340 C   0  0  1  0  0  3  0  0  0  0  0  0
  181.0420  179.8010  136.1290 C   0  0  0  0  0  0  0  0  0  0  0  0
  182.4590  178.4310  137.7960 C   0  0  1  0  0  0  0  0  0  0  0  0
  182.1470  177.7000  139.1400 C   0  0  0  0  0  2  0  0  0  0  0  0
  182.8340  175.5100  138.2460 C   0  0  1  0  0  0  0  0  0  0  0  0
  180.0260  181.3160  138.2650 C   0  0  0  0  0  0  0  0  0  0  0  0
  193.1090  176.6010  134.7710 O   0  0  0  0  0  1  0  0  0  0  0  0
  192.2810  176.9600  135.8390 C   0  0  0  0  0  2  0  0  0  0  0  0
  191.3950  172.9500  137.3770 O   0  0  0  0  0  0  0  0  0  0  0  0
  192.4610  172.3320  136.6630 C   0  0  0  0  0  2  0  0  0  0  0  0
  193.6160  173.3070  136.4980 C   0  0  0  0  0  2  0  0  0  0  0  0
  194.4290  174.6830  138.2450 C   0  0  0  0  0  2  0  0  0  0  0  0
  195.5560  174.2570  137.4240 C   0  0  2  0  0  3  0  0  0  0  0  0
  194.4550  173.3180  137.6900 N   0  0  0  0  0  0  0  0  0  0  0  0
  196.7380  173.8910  138.3080 C   0  0  2  0  0  3  0  0  0  0  0  0
  196.9360  174.8800  139.2770 O   0  0  0  0  0  1  0  0  0  0  0  0
  198.7180  174.8790  137.3970 O   0  0  0  0  0  1  0  0  0  0  0  0
  197.6900  173.1850  136.0720 C   0  0  0  0  0  1  0  0  0  0  0  0
  198.0040  173.6840  137.4740 C   0  0  2  0  0  3  0  0  0  0  0  0
  190.1200  176.6390  140.5030 C   0  0  0  0  0  2  0  0  0  0  0  0
  188.4790  175.8660  142.0480 O   0  0  0  0  0  0  0  0  0  0  0  0
  188.8470  176.7810  141.2650 C   0  0  0  0  0  0  0  0  0  0  0  0
  188.0800  177.9350  141.0990 O   0  0  0  0  0  0  0  0  0  0  0  0
  187.7120  178.7630  142.1960 C   0  0  1  0  0  3  0  0  0  0  0  0
  186.2650  179.2410  142.0530 C   0  0  1  0  0  3  0  0  0  0  0  0
  185.7650  178.9040  140.7920 O   0  0  0  0  0  1  0  0  0  0  0  0
  185.3480  178.6890  143.1500 C   0  0  0  0  0  2  0  0  0  0  0  0
  183.9730  179.3580  143.1800 C   0  0  2  0  0  3  0  0  0  0  0  0
  183.7440  179.9600  144.4210 O   0  0  0  0  0  1  0  0  0  0  0  0
  181.6180  178.7530  143.4780 N   0  0  0  0  0  1  0  0  0  0  0  0
  182.8780  178.3440  142.8780 C   0  0  0  0  0  2  0  0  0  0  0  0
  187.9400  178.0340  143.5210 C   0  0  0  0  0  2  0  0  0  0  0  0
  189.3390  178.1020  143.9310 N   0  0  0  0  0  2  0  0  0  0  0  0
  189.5930  177.0020  144.7670 N   0  0  0  0  0  2  0  0  0  0  0  0
  190.7920  177.2230  147.1500 S   0  0  0  0  0  0  0  0  0  0  0  0
  188.1780  177.0370  146.7820 N   0  0  0  0  0  1  0  0  0  0  0  0
  189.4710  177.0730  146.1900 C   0  0  0  0  0  0  0  0  0  0  0  0
  1  7  1  0  0  0  0
  1 37  1  0  0  0  0
  1  5  1  0  0  0  0
  3  2  1  0  0  0  0
  3  8  2  0  0  0  0
  4 38  1  0  0  0  0
  4  2  2  0  0  0  0
  5  9  1  6  0  0  0
  5  3  1  0  0  0  0
  7  6  1  6  0  0  0
  7  4  1  0  0  0  0
  8 49  1  0  0  0  0
  9 10  1  1  0  0  0
  9 11  1  0  0  0  0
 11 12  1  6  0  0  0
 13 11  1  0  0  0  0
 15 14  1  6  0  0  0
 15 16  1  0  0  0  0
 15 13  1  0  0  0  0
 16 24  1  0  0  0  0
 17 30  1  0  0  0  0
 18 35  1  0  0  0  0
 19 21  1  0  0  0  0
 21 24  1  0  0  0  0
 21 32  1  0  0  0  0
 22 19  1  0  0  0  0
 22 31  1  0  0  0  0
 24 34  1  0  0  0  0
 24 17  1  0  0  0  0
 26 18  1  0  0  0  0
 27 31  1  0  0  0  0
 27 18  2  0  0  0  0
 28 32  1  0  0  0  0
 28 29  1  0  0  0  0
 31 28  2  0  0  0  0
 32 23  1  0  0  0  0
 32 33  1  0  0  0  0
 33 30  1  0  0  0  0
 34 17  1  0  0  0  0
 34 25  1  0  0  0  0
 34 30  1  0  0  0  0
 35 29  2  0  0  0  0
 35 20  1  0  0  0  0
 36 37  1  0  0  0  0
 39 38  1  0  0  0  0
 40 39  1  0  0  0  0
 40 43  1  0  0  0  0
 42 43  1  0  0  0  0
 42 41  1  0  0  0  0
 42 44  1  0  0  0  0
 43 41  1  0  0  0  0
 44 45  1  0  0  0  0
 46 48  1  0  0  0  0
 47 48  1  0  0  0  0
 48 44  1  0  0  0  0
 49 51  1  0  0  0  0
 51 50  2  0  0  0  0
 52 51  1  0  0  0  0
 52 53  1  0  0  0  0
 53 61  1  0  0  0  0
 54 53  1  0  0  0  0
 54 56  1  0  0  0  0
 55 54  1  0  0  0  0
 56 57  1  0  0  0  0
 57 58  1  0  0  0  0
 60 57  1  0  0  0  0
 60 59  1  0  0  0  0
 61 62  1  0  0  0  0
 62 63  1  0  0  0  0
 63 66  1  0  0  0  0
 66 65  1  0  0  0  0
 66 64  2  0  0  0  0
M  END
>  <MODEL>
2

>  <REMARK>
 VINA RESULT:      -2.2      3.726      8.162
  Name = 
  25 active torsions:
  status: ('A' for Active; 'I' for Inactive)
    1  A    between atoms: C_1  and  C_5
    2  A    between atoms: C_1  and  C_20
    3  A    between atoms: C_2  and  C_35
    4  A    between atoms: C_2  and  C_64
    5  A    between atoms: N_3  and  C_60
    6  A    between atoms: C_5  and  C_53
    7  A    between atoms: C_5  and  O_58
    8  A    between atoms: S_9  and  C_23
    9  A    between atoms: S_9  and  C_28
   10  A    between atoms: C_10  and  O_32
   11  A    between atoms: C_10  and  C_54
   12  A    between atoms: C_13  and  C_20
   13  A    between atoms: C_13  and  C_48
   14  A    between atoms: C_19  and  N_40
   15  A    between atoms: C_19  and  C_43
   16  A    between atoms: C_23  and  N_40
   17  A    between atoms: C_27  and  C_49
   18  A    between atoms: C_27  and  C_51
   19  A    between atoms: C_31  and  O_32
   20  A    between atoms: C_35  and  O_58
   21  A    between atoms: C_37  and  C_43
   22  A    between atoms: N_41  and  C_53
   23  A    between atoms: N_41  and  N_59
   24  A    between atoms: C_47  and  N_59
   25  A    between atoms: C_54  and  N_62
                            x       y       z     vdW  Elec       q    Type
                         _______ _______ _______ _____ _____    ______ ____

>  <TORSDO>
F 25

$$$$
=
 OpenBabel11042409563D

 66 72  0  0  1  0  0  0  0  0999 V2000
  189.9380  176.5840  139.5180 N   0  0  0  0  0  0  0  0  0  0  0  0
  190.4720  174.8880  137.2890 N   0  0  0  0  0  0  0  0  0  0  0  0
  189.1240  175.1800  137.6530 C   0  0  0  0  0  0  0  0  0  0  0  0
  191.4850  175.4770  137.8500 C   0  0  0  0  0  0  0  0  0  0  0  0
  188.8440  176.3370  138.5610 C   0  0  2  0  0  3  0  0  0  0  0  0
  191.8500  177.8420  138.5910 C   0  0  0  0  0  1  0  0  0  0  0  0
  191.3070  176.4770  138.9710 C   0  0  1  0  0  3  0  0  0  0  0  0
  188.1130  174.4400  137.1940 C   0  0  0  0  0  3  0  0  0  0  0  0
  188.3850  177.6000  137.8020 C   0  0  2  0  0  3  0  0  0  0  0  0
  189.3470  178.7800  137.9270 C   0  0  0  0  0  1  0  0  0  0  0  0
  186.9260  177.9790  138.0960 C   0  0  2  0  0  3  0  0  0  0  0  0
  186.3550  178.8310  136.9720 C   0  0  0  0  0  1  0  0  0  0  0  0
  186.8160  178.6810  139.3730 N   0  0  0  0  0  2  0  0  0  0  0  0
  184.6410  177.6480  139.1280 C   0  0  0  0  0  1  0  0  0  0  0  0
  185.6690  178.1680  140.1140 C   0  0  2  0  0  3  0  0  0  0  0  0
  184.9350  179.4850  141.1480 S   0  0  0  0  0  0  0  0  0  0  0  0
  184.4150  178.0210  143.5940 C   0  0  1  0  0  3  0  0  0  0  0  0
  191.1300  177.2380  145.8490 C   0  0  0  0  0  0  0  0  0  0  0  0
  187.8120  178.0820  142.0400 C   0  0  0  0  0  2  0  0  0  0  0  0
  190.2490  176.6000  148.0090 O   0  0  0  0  0  1  0  0  0  0  0  0
  186.9090  178.5570  143.1610 C   0  0  1  0  0  3  0  0  0  0  0  0
  189.4910  178.6470  142.4240 S   0  0  0  0  0  0  0  0  0  0  0  0
  186.7550  176.1940  144.0690 C   0  0  0  0  0  1  0  0  0  0  0  0
  185.4350  178.7740  142.7620 C   0  0  1  0  0  0  0  0  0  0  0  0
  183.5680  180.1520  143.6710 O   0  0  0  0  0  1  0  0  0  0  0  0
  192.3970  177.0270  146.2810 F   0  0  0  0  0  0  0  0  0  0  0  0
  190.9130  177.6850  144.5450 C   0  0  0  0  0  3  0  0  0  0  0  0
  188.5020  177.6820  144.9290 C   0  0  0  0  0  0  0  0  0  0  0  0
  188.7460  177.2290  146.2390 C   0  0  0  0  0  3  0  0  0  0  0  0
  184.6310  178.4250  145.0490 C   0  0  1  0  0  3  0  0  0  0  0  0
  189.6170  177.9170  144.0740 C   0  0  0  0  0  0  0  0  0  0  0  0
  187.0720  177.6520  144.4160 C   0  0  1  0  0  0  0  0  0  0  0  0
  186.0730  178.1120  145.5250 C   0  0  0  0  0  2  0  0  0  0  0  0
  184.7450  179.4500  143.9410 C   0  0  1  0  0  0  0  0  0  0  0  0
  190.0450  177.0280  146.7040 C   0  0  0  0  0  0  0  0  0  0  0  0
  190.7550  175.9310  141.6070 O   0  0  0  0  0  1  0  0  0  0  0  0
  189.8140  175.6310  140.6180 C   0  0  0  0  0  2  0  0  0  0  0  0
  192.7850  175.2010  137.4200 O   0  0  0  0  0  0  0  0  0  0  0  0
  193.0940  174.0740  136.6080 C   0  0  0  0  0  2  0  0  0  0  0  0
  194.2830  174.3850  135.7110 C   0  0  0  0  0  2  0  0  0  0  0  0
  196.3690  173.3160  135.3790 C   0  0  0  0  0  2  0  0  0  0  0  0
  195.6020  172.5510  136.3550 C   0  0  2  0  0  3  0  0  0  0  0  0
  195.5320  174.0190  136.3680 N   0  0  0  0  0  0  0  0  0  0  0  0
  196.5080  172.0930  137.4880 C   0  0  2  0  0  3  0  0  0  0  0  0
  197.5250  173.0300  137.6980 O   0  0  0  0  0  1  0  0  0  0  0  0
  198.4810  170.8000  137.0840 O   0  0  0  0  0  1  0  0  0  0  0  0
  196.5160  170.0980  135.9290 C   0  0  0  0  0  1  0  0  0  0  0  0
  197.0940  170.7100  137.1970 C   0  0  2  0  0  3  0  0  0  0  0  0
  188.3150  173.2580  136.2990 C   0  0  0  0  0  2  0  0  0  0  0  0
  187.2710  171.1280  136.5320 O   0  0  0  0  0  0  0  0  0  0  0  0
  187.1240  172.3620  136.3230 C   0  0  0  0  0  0  0  0  0  0  0  0
  185.8580  172.9080  136.1130 O   0  0  0  0  0  0  0  0  0  0  0  0
  185.0670  172.5720  134.9780 C   0  0  1  0  0  3  0  0  0  0  0  0
  184.3360  171.2450  135.2000 C   0  0  1  0  0  3  0  0  0  0  0  0
  184.3700  170.8920  136.5520 O   0  0  0  0  0  1  0  0  0  0  0  0
  182.8880  171.2760  134.6990 C   0  0  0  0  0  2  0  0  0  0  0  0
  181.8890  170.6990  135.7030 C   0  0  2  0  0  3  0  0  0  0  0  0
  181.1870  169.6290  135.1420 O   0  0  0  0  0  1  0  0  0  0  0  0
  181.2010  172.1530  137.5500 N   0  0  0  0  0  1  0  0  0  0  0  0
  180.9210  171.7750  136.1730 C   0  0  0  0  0  2  0  0  0  0  0  0
  184.0950  173.7050  134.6460 C   0  0  0  0  0  2  0  0  0  0  0  0
  184.7390  175.0100  134.7670 N   0  0  0  0  0  2  0  0  0  0  0  0
  183.7500  175.9920  134.5940 N   0  0  0  0  0  2  0  0  0  0  0  0
  182.5950  177.9040  136.0710 S   0  0  0  0  0  0  0  0  0  0  0  0
  182.0720  175.3180  136.2660 N   0  0  0  0  0  1  0  0  0  0  0  0
  182.8250  176.3420  135.6270 C   0  0  0  0  0  0  0  0  0  0  0  0
  1 37  1  0  0  0  0
  2  3  1  0  0  0  0
  2  4  2  0  0  0  0
  3  5  1  0  0  0  0
  4  7  1  0  0  0  0
  5  9  1  6  0  0  0
  5  1  1  0  0  0  0
  7  6  1  6  0  0  0
  7  1  1  0  0  0  0
  8  3  2  0  0  0  0
  9 10  1  1  0  0  0
  9 11  1  0  0  0  0
 11 12  1  6  0  0  0
 11 13  1  0  0  0  0
 13 15  1  0  0  0  0
 15 14  1  6  0  0  0
 15 16  1  0  0  0  0
 16 24  1  0  0  0  0
 17 34  1  0  0  0  0
 17 30  1  0  0  0  0
 18 26  1  0  0  0  0
 18 35  1  0  0  0  0
 19 22  1  0  0  0  0
 19 21  1  0  0  0  0
 21 32  1  0  0  0  0
 22 31  1  0  0  0  0
 23 32  1  0  0  0  0
 24 21  1  0  0  0  0
 24 17  1  0  0  0  0
 24 34  1  0  0  0  0
 25 34  1  0  0  0  0
 27 18  2  0  0  0  0
 28 29  1  0  0  0  0
 29 35  2  0  0  0  0
 30 33  1  0  0  0  0
 31 27  1  0  0  0  0
 31 28  2  0  0  0  0
 32 28  1  0  0  0  0
 32 33  1  0  0  0  0
 34 30  1  0  0  0  0
 35 20  1  0  0  0  0
 37 36  1  0  0  0  0
 38  4  1  0  0  0  0
 39 38  1  0  0  0  0
 40 43  1  0  0  0  0
 40 39  1  0  0  0  0
 41 42  1  0  0  0  0
 41 43  1  0  0  0  0
 42 43  1  0  0  0  0
 42 44  1  0  0  0  0
 44 45  1  0  0  0  0
 46 48  1  0  0  0  0
 47 48  1  0  0  0  0
 48 44  1  0  0  0  0
 49 51  1  0  0  0  0
 49  8  1  0  0  0  0
 51 50  2  0  0  0  0
 52 51  1  0  0  0  0
 53 54  1  0  0  0  0
 53 52  1  0  0  0  0
 54 55  1  0  0  0  0
 56 54  1  0  0  0  0
 56 57  1  0  0  0  0
 57 60  1  0  0  0  0
 58 57  1  0  0  0  0
 60 59  1  0  0  0  0
 61 62  1  0  0  0  0
 61 53  1  0  0  0  0
 63 62  1  0  0  0  0
 63 66  1  0  0  0  0
 66 64  2  0  0  0  0
 66 65  1  0  0  0  0
M  END
>  <MODEL>
3

>  <REMARK>
 VINA RESULT:      -1.8      1.776      2.021
  Name = 
  25 active torsions:
  status: ('A' for Active; 'I' for Inactive)
    1  A    between atoms: C_1  and  C_5
    2  A    between atoms: C_1  and  C_20
    3  A    between atoms: C_2  and  C_35
    4  A    between atoms: C_2  and  C_64
    5  A    between atoms: N_3  and  C_60
    6  A    between atoms: C_5  and  C_53
    7  A    between atoms: C_5  and  O_58
    8  A    between atoms: S_9  and  C_23
    9  A    between atoms: S_9  and  C_28
   10  A    between atoms: C_10  and  O_32
   11  A    between atoms: C_10  and  C_54
   12  A    between atoms: C_13  and  C_20
   13  A    between atoms: C_13  and  C_48
   14  A    between atoms: C_19  and  N_40
   15  A    between atoms: C_19  and  C_43
   16  A    between atoms: C_23  and  N_40
   17  A    between atoms: C_27  and  C_49
   18  A    between atoms: C_27  and  C_51
   19  A    between atoms: C_31  and  O_32
   20  A    between atoms: C_35  and  O_58
   21  A    between atoms: C_37  and  C_43
   22  A    between atoms: N_41  and  C_53
   23  A    between atoms: N_41  and  N_59
   24  A    between atoms: C_47  and  N_59
   25  A    between atoms: C_54  and  N_62
                            x       y       z     vdW  Elec       q    Type
                         _______ _______ _______ _____ _____    ______ ____

>  <TORSDO>
F 25

$$$$
=
 OpenBabel11042409563D

 66 72  0  0  1  0  0  0  0  0999 V2000
  188.6550  178.9550  138.3100 N   0  0  0  0  0  0  0  0  0  0  0  0
  190.1560  176.7350  139.2820 N   0  0  0  0  0  0  0  0  0  0  0  0
  189.0280  177.2060  140.0170 C   0  0  0  0  0  0  0  0  0  0  0  0
  190.4550  177.1900  138.1030 C   0  0  0  0  0  0  0  0  0  0  0  0
  188.0370  178.1030  139.3420 C   0  0  2  0  0  3  0  0  0  0  0  0
  189.0330  177.8320  136.1430 C   0  0  0  0  0  1  0  0  0  0  0  0
  189.6570  178.2950  137.4470 C   0  0  1  0  0  3  0  0  0  0  0  0
  188.8430  176.8560  141.2910 C   0  0  0  0  0  3  0  0  0  0  0  0
  186.7780  177.3540  138.8580 C   0  0  2  0  0  3  0  0  0  0  0  0
  187.0320  176.4160  137.6790 C   0  0  0  0  0  1  0  0  0  0  0  0
  185.5740  178.2810  138.6410 C   0  0  2  0  0  3  0  0  0  0  0  0
  185.0970  178.8610  139.9640 C   0  0  0  0  0  1  0  0  0  0  0  0
  184.4840  177.5750  137.9720 N   0  0  0  0  0  2  0  0  0  0  0  0
  182.9730  176.1590  139.2260 C   0  0  0  0  0  1  0  0  0  0  0  0
  183.3010  177.5850  138.8250 C   0  0  2  0  0  3  0  0  0  0  0  0
  181.8830  178.3290  137.9430 S   0  0  0  0  0  0  0  0  0  0  0  0
  179.4880  176.7430  137.5620 C   0  0  1  0  0  3  0  0  0  0  0  0
  182.5090  170.7640  135.1290 C   0  0  0  0  0  0  0  0  0  0  0  0
  182.7210  175.8180  135.9350 C   0  0  0  0  0  2  0  0  0  0  0  0
  180.4080  169.6340  135.5230 O   0  0  0  0  0  1  0  0  0  0  0  0
  181.6990  175.5160  137.0120 C   0  0  1  0  0  3  0  0  0  0  0  0
  183.9300  174.4680  135.9470 S   0  0  0  0  0  0  0  0  0  0  0  0
  179.9880  174.8920  135.2470 C   0  0  0  0  0  1  0  0  0  0  0  0
  181.0030  176.7540  137.6150 C   0  0  1  0  0  0  0  0  0  0  0  0
  179.8530  177.2290  139.7740 O   0  0  0  0  0  1  0  0  0  0  0  0
  183.0460  169.6310  134.6170 F   0  0  0  0  0  0  0  0  0  0  0  0
  183.2890  171.9180  135.2160 C   0  0  0  0  0  3  0  0  0  0  0  0
  181.4110  173.1340  136.1920 C   0  0  0  0  0  0  0  0  0  0  0  0
  180.6440  171.9590  136.0930 C   0  0  0  0  0  3  0  0  0  0  0  0
  179.0190  175.4780  138.2750 C   0  0  1  0  0  3  0  0  0  0  0  0
  182.7630  173.1010  135.7460 C   0  0  0  0  0  0  0  0  0  0  0  0
  180.6940  174.4320  136.5270 C   0  0  1  0  0  0  0  0  0  0  0  0
  179.6050  174.1990  137.6210 C   0  0  0  0  0  2  0  0  0  0  0  0
  180.1890  176.2750  138.8110 C   0  0  1  0  0  0  0  0  0  0  0  0
  181.1890  170.7800  135.5870 C   0  0  0  0  0  0  0  0  0  0  0  0
  188.8250  180.2010  140.2790 O   0  0  0  0  0  1  0  0  0  0  0  0
  189.3010  180.0870  138.9700 C   0  0  0  0  0  2  0  0  0  0  0  0
  191.5360  176.6560  137.3970 O   0  0  0  0  0  0  0  0  0  0  0  0
  192.6080  175.9800  138.0450 C   0  0  0  0  0  2  0  0  0  0  0  0
  193.7210  175.6900  137.0500 C   0  0  0  0  0  2  0  0  0  0  0  0
  195.7570  174.5370  137.4150 C   0  0  0  0  0  2  0  0  0  0  0  0
  195.1840  174.0850  136.1530 C   0  0  2  0  0  3  0  0  0  0  0  0
  194.2980  174.3720  137.2900 N   0  0  0  0  0  0  0  0  0  0  0  0
  195.3380  172.5780  136.0190 C   0  0  2  0  0  3  0  0  0  0  0  0
  194.6390  171.9310  137.0430 O   0  0  0  0  0  1  0  0  0  0  0  0
  197.4970  172.8670  135.0280 O   0  0  0  0  0  1  0  0  0  0  0  0
  196.9990  170.6780  135.8300 C   0  0  0  0  0  1  0  0  0  0  0  0
  196.8140  172.1750  136.0270 C   0  0  2  0  0  3  0  0  0  0  0  0
  189.7980  175.9790  142.0380 C   0  0  0  0  0  2  0  0  0  0  0  0
  191.6820  176.3460  143.4490 O   0  0  0  0  0  0  0  0  0  0  0  0
  190.5620  176.7620  143.0480 C   0  0  0  0  0  0  0  0  0  0  0  0
  190.0240  177.9530  143.5360 O   0  0  0  0  0  0  0  0  0  0  0  0
  189.1680  177.9870  144.6730 C   0  0  1  0  0  3  0  0  0  0  0  0
  187.7150  177.7330  144.2660 C   0  0  1  0  0  3  0  0  0  0  0  0
  187.3780  176.3940  144.4800 O   0  0  0  0  0  1  0  0  0  0  0  0
  186.7260  178.6490  144.9950 C   0  0  0  0  0  2  0  0  0  0  0  0
  185.2910  178.5180  144.4830 C   0  0  2  0  0  3  0  0  0  0  0  0
  185.1290  179.2120  143.2810 O   0  0  0  0  0  1  0  0  0  0  0  0
  184.6450  178.5300  146.8460 N   0  0  0  0  0  1  0  0  0  0  0  0
  184.3040  179.0300  145.5230 C   0  0  0  0  0  2  0  0  0  0  0  0
  189.6420  176.9920  145.7330 C   0  0  0  0  0  2  0  0  0  0  0  0
  190.6200  177.5980  146.6310 N   0  0  0  0  0  2  0  0  0  0  0  0
  190.0870  177.5610  147.9310 N   0  0  0  0  0  2  0  0  0  0  0  0
  187.6650  176.5770  148.5070 S   0  0  0  0  0  0  0  0  0  0  0  0
  188.2280  179.1470  148.2320 N   0  0  0  0  0  1  0  0  0  0  0  0
  188.7050  177.8070  148.2020 C   0  0  0  0  0  0  0  0  0  0  0  0
  1 37  1  0  0  0  0
  1  5  1  0  0  0  0
  2  3  1  0  0  0  0
  3  8  2  0  0  0  0
  4  2  2  0  0  0  0
  5  9  1  6  0  0  0
  5  3  1  0  0  0  0
  7  6  1  6  0  0  0
  7  4  1  0  0  0  0
  7  1  1  0  0  0  0
  8 49  1  0  0  0  0
  9 10  1  6  0  0  0
 11  9  1  0  0  0  0
 11 12  1  1  0  0  0
 13 11  1  0  0  0  0
 13 15  1  0  0  0  0
 15 14  1  6  0  0  0
 16 15  1  0  0  0  0
 17 24  1  0  0  0  0
 17 30  1  0  0  0  0
 17 34  1  0  0  0  0
 18 27  2  0  0  0  0
 18 35  1  0  0  0  0
 19 22  1  0  0  0  0
 19 21  1  0  0  0  0
 20 35  1  0  0  0  0
 21 24  1  0  0  0  0
 23 32  1  0  0  0  0
 24 16  1  0  0  0  0
 24 34  1  0  0  0  0
 26 18  1  0  0  0  0
 27 31  1  0  0  0  0
 28 32  1  0  0  0  0
 29 28  1  0  0  0  0
 30 34  1  0  0  0  0
 31 22  1  0  0  0  0
 31 28  2  0  0  0  0
 32 21  1  0  0  0  0
 32 33  1  0  0  0  0
 33 30  1  0  0  0  0
 34 25  1  0  0  0  0
 35 29  2  0  0  0  0
 37 36  1  0  0  0  0
 38 39  1  0  0  0  0
 38  4  1  0  0  0  0
 40 43  1  0  0  0  0
 40 39  1  0  0  0  0
 42 43  1  0  0  0  0
 42 41  1  0  0  0  0
 43 41  1  0  0  0  0
 44 48  1  0  0  0  0
 44 42  1  0  0  0  0
 44 45  1  0  0  0  0
 46 48  1  0  0  0  0
 47 48  1  0  0  0  0
 49 51  1  0  0  0  0
 51 50  2  0  0  0  0
 51 52  1  0  0  0  0
 52 53  1  0  0  0  0
 53 61  1  0  0  0  0
 54 55  1  0  0  0  0
 54 53  1  0  0  0  0
 54 56  1  0  0  0  0
 57 56  1  0  0  0  0
 57 60  1  0  0  0  0
 58 57  1  0  0  0  0
 60 59  1  0  0  0  0
 61 62  1  0  0  0  0
 62 63  1  0  0  0  0
 63 66  1  0  0  0  0
 66 65  1  0  0  0  0
 66 64  2  0  0  0  0
M  END
>  <MODEL>
4

>  <REMARK>
 VINA RESULT:      -1.7      3.828      9.039
  Name = 
  25 active torsions:
  status: ('A' for Active; 'I' for Inactive)
    1  A    between atoms: C_1  and  C_5
    2  A    between atoms: C_1  and  C_20
    3  A    between atoms: C_2  and  C_35
    4  A    between atoms: C_2  and  C_64
    5  A    between atoms: N_3  and  C_60
    6  A    between atoms: C_5  and  C_53
    7  A    between atoms: C_5  and  O_58
    8  A    between atoms: S_9  and  C_23
    9  A    between atoms: S_9  and  C_28
   10  A    between atoms: C_10  and  O_32
   11  A    between atoms: C_10  and  C_54
   12  A    between atoms: C_13  and  C_20
   13  A    between atoms: C_13  and  C_48
   14  A    between atoms: C_19  and  N_40
   15  A    between atoms: C_19  and  C_43
   16  A    between atoms: C_23  and  N_40
   17  A    between atoms: C_27  and  C_49
   18  A    between atoms: C_27  and  C_51
   19  A    between atoms: C_31  and  O_32
   20  A    between atoms: C_35  and  O_58
   21  A    between atoms: C_37  and  C_43
   22  A    between atoms: N_41  and  C_53
   23  A    between atoms: N_41  and  N_59
   24  A    between atoms: C_47  and  N_59
   25  A    between atoms: C_54  and  N_62
                            x       y       z     vdW  Elec       q    Type
                         _______ _______ _______ _____ _____    ______ ____

>  <TORSDO>
F 25

$$$$
=
 OpenBabel11042409563D

 66 73  0  0  1  0  0  0  0  0999 V2000
  182.1740  179.6190  139.0640 N   0  0  0  0  0  0  0  0  0  0  0  0
  183.3960  177.7640  137.2760 N   0  0  0  0  0  0  0  0  0  0  0  0
  184.1930  178.4570  138.2350 C   0  0  0  0  0  0  0  0  0  0  0  0
  182.0980  177.8370  137.2700 C   0  0  0  0  0  0  0  0  0  0  0  0
  183.5240  179.1300  139.3940 C   0  0  2  0  0  3  0  0  0  0  0  0
  180.4120  177.8880  139.1220 C   0  0  0  0  0  1  0  0  0  0  0  0
  181.3430  178.7090  138.2470 C   0  0  1  0  0  3  0  0  0  0  0  0
  185.5200  178.5110  138.1140 C   0  0  0  0  0  3  0  0  0  0  0  0
  183.5840  178.2950  140.6900 C   0  0  2  0  0  3  0  0  0  0  0  0
  182.2940  177.5390  140.9980 C   0  0  0  0  0  1  0  0  0  0  0  0
  184.1190  179.0890  141.8910 C   0  0  2  0  0  3  0  0  0  0  0  0
  185.4430  179.7550  141.5480 C   0  0  0  0  0  2  0  0  0  0  0  0
  184.2710  178.2280  143.0610 N   0  0  0  0  0  2  0  0  0  0  0  0
  185.9460  177.8310  144.7610 C   0  0  0  0  0  1  0  0  0  0  0  0
  185.6830  177.9340  143.2710 C   0  0  2  0  0  3  0  0  0  0  0  0
  186.7260  179.2450  142.5400 S   0  0  1  0  0  3  0  0  0  0  0  0
  189.3900  178.4920  141.6850 C   0  0  1  0  0  3  0  0  0  0  0  0
  191.7220  175.6100  147.7720 C   0  0  0  0  0  0  0  0  0  0  0  0
  188.4970  178.7330  145.3040 C   0  0  0  0  0  2  0  0  0  0  0  0
  193.5520  174.6430  146.5230 O   0  0  0  0  0  1  0  0  0  0  0  0
  188.8100  177.8400  144.1210 C   0  0  1  0  0  3  0  0  0  0  0  0
  188.3810  177.6690  146.7670 S   0  0  0  0  0  0  0  0  0  0  0  0
  191.1980  178.6910  144.0790 C   0  0  0  0  0  1  0  0  0  0  0  0
  188.3250  178.3740  142.7570 C   0  0  1  0  0  0  0  0  0  0  0  0
  187.7660  177.3160  140.5710 O   0  0  0  0  0  1  0  0  0  0  0  0
  192.2140  175.1020  148.9270 F   0  0  0  0  0  0  0  0  0  0  0  0
  190.5360  176.3460  147.7940 C   0  0  0  0  0  3  0  0  0  0  0  0
  190.6790  176.6800  145.3800 C   0  0  0  0  0  0  0  0  0  0  0  0
  191.8740  175.9360  145.3830 C   0  0  0  0  0  3  0  0  0  0  0  0
  190.0180  177.1120  141.5160 C   0  0  1  0  0  3  0  0  0  0  0  0
  190.0010  176.8790  146.6170 C   0  0  0  0  0  0  0  0  0  0  0  0
  190.3130  177.4410  144.1160 C   0  0  1  0  0  0  0  0  0  0  0  0
  190.6250  176.5900  142.8440 C   0  0  0  0  0  2  0  0  0  0  0  0
  188.5280  177.2570  141.7390 C   0  0  1  0  0  0  0  0  0  0  0  0
  192.3820  175.3890  146.5610 C   0  0  0  0  0  0  0  0  0  0  0  0
  181.6190  181.8880  139.0360 O   0  0  0  0  0  1  0  0  0  0  0  0
  182.3020  180.8830  138.3450 C   0  0  0  0  0  2  0  0  0  0  0  0
  181.3580  177.0940  136.3480 O   0  0  0  0  0  0  0  0  0  0  0  0
  180.8150  175.8160  136.6620 C   0  0  0  0  0  2  0  0  0  0  0  0
  181.1200  174.8290  135.5460 C   0  0  0  0  0  2  0  0  0  0  0  0
  181.2570  172.5370  134.9680 C   0  0  0  0  0  2  0  0  0  0  0  0
  180.1090  172.7300  135.8480 C   0  0  2  0  0  3  0  0  0  0  0  0
  181.3430  173.4930  136.0860 N   0  0  0  0  0  0  0  0  0  0  0  0
  180.0300  171.5960  136.8590 C   0  0  2  0  0  3  0  0  0  0  0  0
  181.0630  171.7150  137.7940 O   0  0  0  0  0  1  0  0  0  0  0  0
  181.3430  170.0370  135.6040 O   0  0  0  0  0  1  0  0  0  0  0  0
  179.0180  170.1060  135.0800 C   0  0  0  0  0  1  0  0  0  0  0  0
  180.0800  170.2350  136.1620 C   0  0  2  0  0  3  0  0  0  0  0  0
  186.2570  177.8800  136.9750 C   0  0  0  0  0  2  0  0  0  0  0  0
  188.1560  179.1450  137.6610 O   0  0  0  0  0  0  0  0  0  0  0  0
  187.7250  178.1020  137.1010 C   0  0  0  0  0  0  0  0  0  0  0  0
  188.6040  177.1430  136.5970 O   0  0  0  0  0  0  0  0  0  0  0  0
  188.4350  175.7530  136.8520 C   0  0  1  0  0  3  0  0  0  0  0  0
  188.1420  174.9950  135.5550 C   0  0  1  0  0  3  0  0  0  0  0  0
  189.2780  174.9640  134.7430 O   0  0  0  0  0  1  0  0  0  0  0  0
  187.6320  173.5710  135.8040 C   0  0  0  0  0  2  0  0  0  0  0  0
  186.3230  173.2630  135.0750 C   0  0  2  0  0  3  0  0  0  0  0  0
  185.2860  174.0640  135.5620 O   0  0  0  0  0  1  0  0  0  0  0  0
  187.0930  170.9480  134.8610 N   0  0  0  0  0  1  0  0  0  0  0  0
  185.9640  171.7910  135.2210 C   0  0  0  0  0  2  0  0  0  0  0  0
  189.6590  175.1870  137.5750 C   0  0  0  0  0  2  0  0  0  0  0  0
  190.8870  175.8350  137.1260 N   0  0  0  0  0  2  0  0  0  0  0  0
  191.9660  175.1880  137.7520 N   0  0  0  0  0  2  0  0  0  0  0  0
  194.5290  175.2400  136.9820 S   0  0  0  0  0  0  0  0  0  0  0  0
  193.4440  176.8890  138.7430 N   0  0  0  0  0  1  0  0  0  0  0  0
  193.2600  175.7850  137.8650 C   0  0  0  0  0  0  0  0  0  0  0  0
  1  5  1  0  0  0  0
  2  3  1  0  0  0  0
  3  5  1  0  0  0  0
  4  2  2  0  0  0  0
  4  7  1  0  0  0  0
  5  9  1  1  0  0  0
  7  1  1  0  0  0  0
  7  6  1  1  0  0  0
  8  3  2  0  0  0  0
  9 10  1  1  0  0  0
 11  9  1  6  0  0  0
 11 13  1  0  0  0  0
 12 11  1  0  0  0  0
 13 15  1  0  0  0  0
 15 14  1  1  0  0  0
 16 12  1  6  0  0  0
 16 24  1  0  0  0  0
 16 15  1  0  0  0  0
 17 34  1  0  0  0  0
 17 24  1  0  0  0  0
 18 27  1  0  0  0  0
 18 26  1  0  0  0  0
 19 22  1  0  0  0  0
 20 35  1  0  0  0  0
 21 19  1  0  0  0  0
 23 32  1  0  0  0  0
 24 21  1  0  0  0  0
 25 34  1  0  0  0  0
 28 29  2  0  0  0  0
 28 31  1  0  0  0  0
 29 35  1  0  0  0  0
 30 17  1  0  0  0  0
 30 34  1  0  0  0  0
 30 33  1  0  0  0  0
 31 22  1  0  0  0  0
 31 27  2  0  0  0  0
 32 21  1  0  0  0  0
 32 28  1  0  0  0  0
 33 32  1  0  0  0  0
 34 24  1  0  0  0  0
 35 18  2  0  0  0  0
 37 36  1  0  0  0  0
 37  1  1  0  0  0  0
 38 39  1  0  0  0  0
 38  4  1  0  0  0  0
 40 43  1  0  0  0  0
 40 39  1  0  0  0  0
 41 42  1  0  0  0  0
 41 43  1  0  0  0  0
 42 43  1  0  0  0  0
 42 44  1  0  0  0  0
 44 45  1  0  0  0  0
 46 48  1  0  0  0  0
 47 48  1  0  0  0  0
 48 44  1  0  0  0  0
 49 51  1  0  0  0  0
 49  8  1  0  0  0  0
 51 50  2  0  0  0  0
 52 53  1  0  0  0  0
 52 51  1  0  0  0  0
 53 61  1  0  0  0  0
 54 56  1  0  0  0  0
 54 53  1  0  0  0  0
 55 54  1  0  0  0  0
 57 60  1  0  0  0  0
 57 58  1  0  0  0  0
 57 56  1  0  0  0  0
 59 60  1  0  0  0  0
 62 61  1  0  0  0  0
 62 63  1  0  0  0  0
 63 66  1  0  0  0  0
 64 66  2  0  0  0  0
 66 65  1  0  0  0  0
M  END
>  <MODEL>
5

>  <REMARK>
 VINA RESULT:      -1.2      2.798      8.528
  Name = 
  25 active torsions:
  status: ('A' for Active; 'I' for Inactive)
    1  A    between atoms: C_1  and  C_5
    2  A    between atoms: C_1  and  C_20
    3  A    between atoms: C_2  and  C_35
    4  A    between atoms: C_2  and  C_64
    5  A    between atoms: N_3  and  C_60
    6  A    between atoms: C_5  and  C_53
    7  A    between atoms: C_5  and  O_58
    8  A    between atoms: S_9  and  C_23
    9  A    between atoms: S_9  and  C_28
   10  A    between atoms: C_10  and  O_32
   11  A    between atoms: C_10  and  C_54
   12  A    between atoms: C_13  and  C_20
   13  A    between atoms: C_13  and  C_48
   14  A    between atoms: C_19  and  N_40
   15  A    between atoms: C_19  and  C_43
   16  A    between atoms: C_23  and  N_40
   17  A    between atoms: C_27  and  C_49
   18  A    between atoms: C_27  and  C_51
   19  A    between atoms: C_31  and  O_32
   20  A    between atoms: C_35  and  O_58
   21  A    between atoms: C_37  and  C_43
   22  A    between atoms: N_41  and  C_53
   23  A    between atoms: N_41  and  N_59
   24  A    between atoms: C_47  and  N_59
   25  A    between atoms: C_54  and  N_62
                            x       y       z     vdW  Elec       q    Type
                         _______ _______ _______ _____ _____    ______ ____

>  <TORSDO>
F 25

$$$$
=
 OpenBabel11042409563D

 66 72  0  0  1  0  0  0  0  0999 V2000
  191.4960  177.5000  137.5480 N   0  0  0  0  0  0  0  0  0  0  0  0
  190.5750  175.2590  139.0500 N   0  0  0  0  0  0  0  0  0  0  0  0
  190.5210  176.5660  139.6190 C   0  0  0  0  0  0  0  0  0  0  0  0
  190.9020  175.0550  137.8090 C   0  0  0  0  0  0  0  0  0  0  0  0
  190.6470  177.7600  138.7240 C   0  0  2  0  0  3  0  0  0  0  0  0
  190.3650  176.3060  135.7060 C   0  0  0  0  0  1  0  0  0  0  0  0
  191.3040  176.1890  136.8930 C   0  0  1  0  0  3  0  0  0  0  0  0
  190.3580  176.7370  140.9310 C   0  0  0  0  0  3  0  0  0  0  0  0
  189.2850  178.3980  138.3780 C   0  0  2  0  0  3  0  0  0  0  0  0
  188.4460  178.7640  139.6010 C   0  0  0  0  0  1  0  0  0  0  0  0
  188.4990  177.6030  137.3250 C   0  0  2  0  0  3  0  0  0  0  0  0
  188.1030  178.4990  136.1600 C   0  0  0  0  0  1  0  0  0  0  0  0
  187.3160  176.9830  137.9150 N   0  0  0  0  0  2  0  0  0  0  0  0
  185.6750  177.9700  136.4350 C   0  0  0  0  0  1  0  0  0  0  0  0
  186.3480  176.6810  136.8660 C   0  0  2  0  0  3  0  0  0  0  0  0
  185.0980  175.4930  137.4700 S   0  0  0  0  0  0  0  0  0  0  0  0
  182.5860  175.6180  136.0300 C   0  0  1  0  0  3  0  0  0  0  0  0
  180.5890  182.2040  137.8810 C   0  0  0  0  0  0  0  0  0  0  0  0
  183.3710  178.0010  138.7970 C   0  0  0  0  0  2  0  0  0  0  0  0
  178.9400  182.1170  136.1150 O   0  0  0  0  0  1  0  0  0  0  0  0
  183.2120  177.7800  137.3070 C   0  0  1  0  0  3  0  0  0  0  0  0
  183.6140  179.7790  139.0540 S   0  0  0  0  0  0  0  0  0  0  0  0
  180.7260  177.3760  137.6070 C   0  0  0  0  0  1  0  0  0  0  0  0
  183.6390  176.3840  136.8070 C   0  0  1  0  0  0  0  0  0  0  0  0
  184.3830  175.4710  134.6110 O   0  0  0  0  0  1  0  0  0  0  0  0
  180.1560  183.4320  138.2530 F   0  0  0  0  0  0  0  0  0  0  0  0
  181.6550  181.6150  138.5610 C   0  0  0  0  0  3  0  0  0  0  0  0
  181.5080  179.6480  137.1230 C   0  0  0  0  0  0  0  0  0  0  0  0
  180.4340  180.2620  136.4530 C   0  0  0  0  0  3  0  0  0  0  0  0
  182.1680  176.4920  134.8520 C   0  0  1  0  0  3  0  0  0  0  0  0
  182.1290  180.3500  138.1950 C   0  0  0  0  0  0  0  0  0  0  0  0
  181.7820  178.1800  136.8410 C   0  0  1  0  0  0  0  0  0  0  0  0
  181.6190  177.8650  135.3210 C   0  0  0  0  0  2  0  0  0  0  0  0
  183.6170  176.4250  135.2840 C   0  0  1  0  0  0  0  0  0  0  0  0
  179.9900  181.5340  136.8110 C   0  0  0  0  0  0  0  0  0  0  0  0
  193.4330  176.3200  138.1100 O   0  0  0  0  0  1  0  0  0  0  0  0
  192.8950  177.6010  137.9560 C   0  0  0  0  0  2  0  0  0  0  0  0
  190.8850  173.7620  137.2810 O   0  0  0  0  0  0  0  0  0  0  0  0
  191.1780  173.4950  135.9140 C   0  0  0  0  0  2  0  0  0  0  0  0
  192.2880  172.4600  135.8090 C   0  0  0  0  0  2  0  0  0  0  0  0
  194.5170  172.0400  135.1310 C   0  0  0  0  0  2  0  0  0  0  0  0
  194.5350  172.5980  136.4790 C   0  0  2  0  0  3  0  0  0  0  0  0
  193.5610  173.0990  135.4990 N   0  0  0  0  0  0  0  0  0  0  0  0
  195.6650  173.6080  136.6100 C   0  0  2  0  0  3  0  0  0  0  0  0
  196.5400  173.4930  135.5250 O   0  0  0  0  0  1  0  0  0  0  0  0
  195.5390  173.6480  139.0000 O   0  0  0  0  0  1  0  0  0  0  0  0
  197.6050  174.3630  138.0490 C   0  0  0  0  0  1  0  0  0  0  0  0
  196.4110  173.4280  137.9340 C   0  0  2  0  0  3  0  0  0  0  0  0
  190.2440  175.5940  141.8900 C   0  0  0  0  0  2  0  0  0  0  0  0
  188.0740  175.7970  142.8540 O   0  0  0  0  0  0  0  0  0  0  0  0
  189.3170  175.9270  143.0090 C   0  0  0  0  0  0  0  0  0  0  0  0
  189.8460  176.3780  144.2180 O   0  0  0  0  0  0  0  0  0  0  0  0
  189.6870  177.7230  144.6600 C   0  0  1  0  0  3  0  0  0  0  0  0
  188.4550  177.8560  145.5580 C   0  0  1  0  0  3  0  0  0  0  0  0
  188.8110  178.4110  146.7910 O   0  0  0  0  0  1  0  0  0  0  0  0
  187.3370  178.6800  144.9110 C   0  0  0  0  0  2  0  0  0  0  0  0
  185.9710  177.9940  144.9670 C   0  0  2  0  0  3  0  0  0  0  0  0
  185.6200  177.4890  143.7120 O   0  0  0  0  0  1  0  0  0  0  0  0
  184.4190  178.5640  146.7740 N   0  0  0  0  0  1  0  0  0  0  0  0
  184.9060  178.9620  145.4620 C   0  0  0  0  0  2  0  0  0  0  0  0
  190.9560  178.2120  145.3600 C   0  0  0  0  0  2  0  0  0  0  0  0
  192.0470  177.2540  145.2130 N   0  0  0  0  0  2  0  0  0  0  0  0
  191.6780  176.0790  145.8880 N   0  0  0  0  0  2  0  0  0  0  0  0
  192.8440  175.6630  148.2620 S   0  0  0  0  0  0  0  0  0  0  0  0
  190.2970  176.2920  147.9160 N   0  0  0  0  0  1  0  0  0  0  0  0
  191.5560  176.0170  147.3120 C   0  0  0  0  0  0  0  0  0  0  0  0
  1 37  1  0  0  0  0
  1  5  1  0  0  0  0
  2  3  1  0  0  0  0
  3  8  2  0  0  0  0
  4  2  2  0  0  0  0
  5  9  1  6  0  0  0
  5  3  1  0  0  0  0
  7  6  1  6  0  0  0
  7  1  1  0  0  0  0
  7  4  1  0  0  0  0
  8 49  1  0  0  0  0
  9 10  1  1  0  0  0
 11 12  1  6  0  0  0
 11 13  1  0  0  0  0
 11  9  1  0  0  0  0
 15 14  1  1  0  0  0
 15 16  1  0  0  0  0
 15 13  1  0  0  0  0
 17 24  1  0  0  0  0
 18 26  1  0  0  0  0
 18 27  1  0  0  0  0
 19 22  1  0  0  0  0
 20 35  1  0  0  0  0
 21 19  1  0  0  0  0
 24 21  1  0  0  0  0
 24 16  1  0  0  0  0
 25 34  1  0  0  0  0
 28 31  1  0  0  0  0
 29 35  1  0  0  0  0
 29 28  2  0  0  0  0
 30 34  1  0  0  0  0
 30 33  1  0  0  0  0
 30 17  1  0  0  0  0
 31 27  2  0  0  0  0
 31 22  1  0  0  0  0
 32 28  1  0  0  0  0
 32 21  1  0  0  0  0
 32 23  1  0  0  0  0
 33 32  1  0  0  0  0
 34 17  1  0  0  0  0
 34 24  1  0  0  0  0
 35 18  2  0  0  0  0
 37 36  1  0  0  0  0
 38  4  1  0  0  0  0
 39 38  1  0  0  0  0
 40 39  1  0  0  0  0
 41 43  1  0  0  0  0
 41 42  1  0  0  0  0
 42 44  1  0  0  0  0
 43 40  1  0  0  0  0
 43 42  1  0  0  0  0
 44 48  1  0  0  0  0
 45 44  1  0  0  0  0
 48 47  1  0  0  0  0
 48 46  1  0  0  0  0
 49 51  1  0  0  0  0
 50 51  2  0  0  0  0
 51 52  1  0  0  0  0
 52 53  1  0  0  0  0
 53 61  1  0  0  0  0
 53 54  1  0  0  0  0
 54 55  1  0  0  0  0
 56 57  1  0  0  0  0
 56 54  1  0  0  0  0
 57 60  1  0  0  0  0
 58 57  1  0  0  0  0
 60 59  1  0  0  0  0
 62 61  1  0  0  0  0
 62 63  1  0  0  0  0
 63 66  1  0  0  0  0
 66 65  1  0  0  0  0
 66 64  2  0  0  0  0
M  END
>  <MODEL>
6

>  <REMARK>
 VINA RESULT:      -1.2      3.998      8.984
  Name = 
  25 active torsions:
  status: ('A' for Active; 'I' for Inactive)
    1  A    between atoms: C_1  and  C_5
    2  A    between atoms: C_1  and  C_20
    3  A    between atoms: C_2  and  C_35
    4  A    between atoms: C_2  and  C_64
    5  A    between atoms: N_3  and  C_60
    6  A    between atoms: C_5  and  C_53
    7  A    between atoms: C_5  and  O_58
    8  A    between atoms: S_9  and  C_23
    9  A    between atoms: S_9  and  C_28
   10  A    between atoms: C_10  and  O_32
   11  A    between atoms: C_10  and  C_54
   12  A    between atoms: C_13  and  C_20
   13  A    between atoms: C_13  and  C_48
   14  A    between atoms: C_19  and  N_40
   15  A    between atoms: C_19  and  C_43
   16  A    between atoms: C_23  and  N_40
   17  A    between atoms: C_27  and  C_49
   18  A    between atoms: C_27  and  C_51
   19  A    between atoms: C_31  and  O_32
   20  A    between atoms: C_35  and  O_58
   21  A    between atoms: C_37  and  C_43
   22  A    between atoms: N_41  and  C_53
   23  A    between atoms: N_41  and  N_59
   24  A    between atoms: C_47  and  N_59
   25  A    between atoms: C_54  and  N_62
                            x       y       z     vdW  Elec       q    Type
                         _______ _______ _______ _____ _____    ______ ____

>  <TORSDO>
F 25

$$$$
=
 OpenBabel11042409563D

 66 72  0  0  1  0  0  0  0  0999 V2000
  188.6670  179.3680  140.0180 N   0  0  0  0  0  0  0  0  0  0  0  0
  189.9600  176.8480  140.3400 N   0  0  0  0  0  0  0  0  0  0  0  0
  188.9020  177.2200  141.2200 C   0  0  0  0  0  0  0  0  0  0  0  0
  190.2770  177.5560  139.2970 C   0  0  0  0  0  0  0  0  0  0  0  0
  187.9910  178.3450  140.8340 C   0  0  2  0  0  3  0  0  0  0  0  0
  188.8830  178.7950  137.6250 C   0  0  0  0  0  1  0  0  0  0  0  0
  189.5790  178.8570  138.9730 C   0  0  1  0  0  3  0  0  0  0  0  0
  188.7110  176.5810  142.3740 C   0  0  0  0  0  3  0  0  0  0  0  0
  186.6520  177.8580  140.2390 C   0  0  2  0  0  3  0  0  0  0  0  0
  186.7630  177.3540  138.8010 C   0  0  0  0  0  1  0  0  0  0  0  0
  185.5070  178.8600  140.4390 C   0  0  2  0  0  3  0  0  0  0  0  0
  185.1850  179.0200  141.9180 C   0  0  0  0  0  1  0  0  0  0  0  0
  184.3150  178.4460  139.7020 N   0  0  0  0  0  2  0  0  0  0  0  0
  182.3310  178.1570  141.0560 C   0  0  0  0  0  1  0  0  0  0  0  0
  183.1470  179.1370  140.2340 C   0  0  2  0  0  3  0  0  0  0  0  0
  182.1290  179.8150  138.8760 S   0  0  0  0  0  0  0  0  0  0  0  0
  179.6670  178.3950  138.3150 C   0  0  1  0  0  3  0  0  0  0  0  0
  182.4090  171.9770  136.8720 C   0  0  0  0  0  0  0  0  0  0  0  0
  182.9830  177.0540  137.2380 C   0  0  0  0  0  2  0  0  0  0  0  0
  180.1790  171.0640  137.0740 O   0  0  0  0  0  1  0  0  0  0  0  0
  181.8070  176.9460  138.1870 C   0  0  1  0  0  3  0  0  0  0  0  0
  184.0500  175.6200  137.5380 S   0  0  0  0  0  0  0  0  0  0  0  0
  180.2880  176.2830  136.2670 C   0  0  0  0  0  1  0  0  0  0  0  0
  181.1570  178.2910  138.5740 C   0  0  1  0  0  0  0  0  0  0  0  0
  179.7870  179.0730  140.5030 O   0  0  0  0  0  1  0  0  0  0  0  0
  182.9000  170.7580  136.5430 F   0  0  0  0  0  0  0  0  0  0  0  0
  183.2750  173.0670  136.9590 C   0  0  0  0  0  3  0  0  0  0  0  0
  181.4080  174.5230  137.5540 C   0  0  0  0  0  0  0  0  0  0  0  0
  180.5540  173.4090  137.4580 C   0  0  0  0  0  3  0  0  0  0  0  0
  178.9950  177.2510  139.0680 C   0  0  1  0  0  3  0  0  0  0  0  0
  182.7970  174.3360  137.3030 C   0  0  0  0  0  0  0  0  0  0  0  0
  180.7770  175.9010  137.6680 C   0  0  1  0  0  0  0  0  0  0  0  0
  179.5390  175.8690  138.6190 C   0  0  0  0  0  2  0  0  0  0  0  0
  180.1550  178.0030  139.6850 C   0  0  1  0  0  0  0  0  0  0  0  0
  181.0480  172.1450  137.1410 C   0  0  0  0  0  0  0  0  0  0  0  0
  189.5610  179.6300  142.1600 O   0  0  0  0  0  1  0  0  0  0  0  0
  189.4360  180.2350  140.9060 C   0  0  0  0  0  2  0  0  0  0  0  0
  191.2840  177.1200  138.4320 O   0  0  0  0  0  0  0  0  0  0  0  0
  191.9560  175.8780  138.6110 C   0  0  0  0  0  2  0  0  0  0  0  0
  191.7850  175.0080  137.3750 C   0  0  0  0  0  2  0  0  0  0  0  0
  192.7830  174.1070  135.4260 C   0  0  0  0  0  2  0  0  0  0  0  0
  193.4430  173.5370  136.5950 C   0  0  2  0  0  3  0  0  0  0  0  0
  193.0260  174.9470  136.6120 N   0  0  0  0  0  0  0  0  0  0  0  0
  194.9460  173.4730  136.3660 C   0  0  2  0  0  3  0  0  0  0  0  0
  195.4170  172.1830  136.6340 O   0  0  0  0  0  1  0  0  0  0  0  0
  195.9640  175.6370  136.4530 O   0  0  0  0  0  1  0  0  0  0  0  0
  196.9620  173.9560  137.8180 C   0  0  0  0  0  1  0  0  0  0  0  0
  195.6760  174.5090  137.2220 C   0  0  2  0  0  3  0  0  0  0  0  0
  189.5910  175.4610  142.8360 C   0  0  0  0  0  2  0  0  0  0  0  0
  191.7930  175.3960  143.7430 O   0  0  0  0  0  0  0  0  0  0  0  0
  190.6680  175.9650  143.7320 C   0  0  0  0  0  0  0  0  0  0  0  0
  190.4140  177.0660  144.5500 O   0  0  0  0  0  0  0  0  0  0  0  0
  189.3220  177.0960  145.4620 C   0  0  1  0  0  3  0  0  0  0  0  0
  189.8220  177.0610  146.9080 C   0  0  1  0  0  3  0  0  0  0  0  0
  189.0130  176.2260  147.6830 O   0  0  0  0  0  1  0  0  0  0  0  0
  191.2880  176.6260  147.0170 C   0  0  0  0  0  2  0  0  0  0  0  0
  191.8280  176.6740  148.4470 C   0  0  2  0  0  3  0  0  0  0  0  0
  191.8970  177.9930  148.9050 O   0  0  0  0  0  1  0  0  0  0  0  0
  193.9780  176.5790  149.6170 N   0  0  0  0  0  1  0  0  0  0  0  0
  193.1990  176.0180  148.5240 C   0  0  0  0  0  2  0  0  0  0  0  0
  188.4340  178.3130  145.1990 C   0  0  0  0  0  2  0  0  0  0  0  0
  187.1600  177.9220  144.6040 N   0  0  0  0  0  2  0  0  0  0  0  0
  186.3150  177.5000  145.6440 N   0  0  0  0  0  2  0  0  0  0  0  0
  186.3200  179.2020  147.7100 S   0  0  0  0  0  0  0  0  0  0  0  0
  184.2200  178.6740  146.1900 N   0  0  0  0  0  1  0  0  0  0  0  0
  185.5920  178.4180  146.4680 C   0  0  0  0  0  0  0  0  0  0  0  0
  1  5  1  0  0  0  0
  1 37  1  0  0  0  0
  2  3  1  0  0  0  0
  3  8  2  0  0  0  0
  4  2  2  0  0  0  0
  5  9  1  6  0  0  0
  5  3  1  0  0  0  0
  7  6  1  6  0  0  0
  7  4  1  0  0  0  0
  7  1  1  0  0  0  0
  8 49  1  0  0  0  0
  9 10  1  6  0  0  0
  9 11  1  0  0  0  0
 11 12  1  1  0  0  0
 13 15  1  0  0  0  0
 13 11  1  0  0  0  0
 15 14  1  6  0  0  0
 16 15  1  0  0  0  0
 17 24  1  0  0  0  0
 17 30  1  0  0  0  0
 17 34  1  0  0  0  0
 18 27  2  0  0  0  0
 18 35  1  0  0  0  0
 19 22  1  0  0  0  0
 19 21  1  0  0  0  0
 20 35  1  0  0  0  0
 21 24  1  0  0  0  0
 23 32  1  0  0  0  0
 24 16  1  0  0  0  0
 24 34  1  0  0  0  0
 26 18  1  0  0  0  0
 27 31  1  0  0  0  0
 28 32  1  0  0  0  0
 29 28  1  0  0  0  0
 30 34  1  0  0  0  0
 31 22  1  0  0  0  0
 31 28  2  0  0  0  0
 32 21  1  0  0  0  0
 32 33  1  0  0  0  0
 33 30  1  0  0  0  0
 34 25  1  0  0  0  0
 35 29  2  0  0  0  0
 37 36  1  0  0  0  0
 38 39  1  0  0  0  0
 38  4  1  0  0  0  0
 40 39  1  0  0  0  0
 41 42  1  0  0  0  0
 41 43  1  0  0  0  0
 42 43  1  0  0  0  0
 43 40  1  0  0  0  0
 44 42  1  0  0  0  0
 44 45  1  0  0  0  0
 44 48  1  0  0  0  0
 46 48  1  0  0  0  0
 48 47  1  0  0  0  0
 49 51  1  0  0  0  0
 51 50  2  0  0  0  0
 51 52  1  0  0  0  0
 52 53  1  0  0  0  0
 53 54  1  0  0  0  0
 54 56  1  0  0  0  0
 54 55  1  0  0  0  0
 56 57  1  0  0  0  0
 57 60  1  0  0  0  0
 57 58  1  0  0  0  0
 60 59  1  0  0  0  0
 61 53  1  0  0  0  0
 62 61  1  0  0  0  0
 62 63  1  0  0  0  0
 63 66  1  0  0  0  0
 65 66  1  0  0  0  0
 66 64  2  0  0  0  0
M  END
>  <MODEL>
7

>  <REMARK>
 VINA RESULT:      -0.9      3.659      9.179
  Name = 
  25 active torsions:
  status: ('A' for Active; 'I' for Inactive)
    1  A    between atoms: C_1  and  C_5
    2  A    between atoms: C_1  and  C_20
    3  A    between atoms: C_2  and  C_35
    4  A    between atoms: C_2  and  C_64
    5  A    between atoms: N_3  and  C_60
    6  A    between atoms: C_5  and  C_53
    7  A    between atoms: C_5  and  O_58
    8  A    between atoms: S_9  and  C_23
    9  A    between atoms: S_9  and  C_28
   10  A    between atoms: C_10  and  O_32
   11  A    between atoms: C_10  and  C_54
   12  A    between atoms: C_13  and  C_20
   13  A    between atoms: C_13  and  C_48
   14  A    between atoms: C_19  and  N_40
   15  A    between atoms: C_19  and  C_43
   16  A    between atoms: C_23  and  N_40
   17  A    between atoms: C_27  and  C_49
   18  A    between atoms: C_27  and  C_51
   19  A    between atoms: C_31  and  O_32
   20  A    between atoms: C_35  and  O_58
   21  A    between atoms: C_37  and  C_43
   22  A    between atoms: N_41  and  C_53
   23  A    between atoms: N_41  and  N_59
   24  A    between atoms: C_47  and  N_59
   25  A    between atoms: C_54  and  N_62
                            x       y       z     vdW  Elec       q    Type
                         _______ _______ _______ _____ _____    ______ ____

>  <TORSDO>
F 25

$$$$
=
 OpenBabel11042409563D

 66 72  0  0  1  0  0  0  0  0999 V2000
  182.0810  179.8610  139.5690 N   0  0  0  0  0  0  0  0  0  0  0  0
  183.1970  177.9800  137.7410 N   0  0  0  0  0  0  0  0  0  0  0  0
  184.0550  178.7380  138.5920 C   0  0  0  0  0  0  0  0  0  0  0  0
  181.9030  178.0070  137.8570 C   0  0  0  0  0  0  0  0  0  0  0  0
  183.4740  179.4330  139.7850 C   0  0  2  0  0  3  0  0  0  0  0  0
  180.4010  178.0740  139.8610 C   0  0  0  0  0  1  0  0  0  0  0  0
  181.2120  178.8910  138.8710 C   0  0  1  0  0  3  0  0  0  0  0  0
  185.3610  178.8330  138.3420 C   0  0  0  0  0  3  0  0  0  0  0  0
  183.6900  178.6540  141.0990 C   0  0  2  0  0  3  0  0  0  0  0  0
  182.3960  178.1580  141.7420 C   0  0  0  0  0  1  0  0  0  0  0  0
  184.6110  179.3850  142.0860 C   0  0  2  0  0  3  0  0  0  0  0  0
  185.8630  179.8860  141.3820 C   0  0  0  0  0  1  0  0  0  0  0  0
  184.9700  178.5180  143.2060 N   0  0  0  0  0  2  0  0  0  0  0  0
  186.5020  177.4130  141.6940 C   0  0  0  0  0  1  0  0  0  0  0  0
  186.3490  178.0680  143.0530 C   0  0  2  0  0  3  0  0  0  0  0  0
  186.7850  176.8810  144.3730 S   0  0  0  0  0  0  0  0  0  0  0  0
  189.4990  176.7760  145.3830 C   0  0  1  0  0  3  0  0  0  0  0  0
  192.9910  177.1840  139.1830 C   0  0  0  0  0  0  0  0  0  0  0  0
  188.7230  176.0860  141.7940 C   0  0  0  0  0  2  0  0  0  0  0  0
  195.0030  177.6640  140.4370 O   0  0  0  0  0  1  0  0  0  0  0  0
  189.3080  177.0400  142.8160 C   0  0  1  0  0  3  0  0  0  0  0  0
  189.0810  176.7680  140.1530 S   0  0  0  0  0  0  0  0  0  0  0  0
  191.1850  175.4060  143.3040 C   0  0  0  0  0  1  0  0  0  0  0  0
  188.6030  177.0360  144.1880 C   0  0  1  0  0  0  0  0  0  0  0  0
  188.4070  178.6790  146.0520 O   0  0  0  0  0  1  0  0  0  0  0  0
  193.6850  177.2090  138.0210 F   0  0  0  0  0  0  0  0  0  0  0  0
  191.6160  176.9480  139.1600 C   0  0  0  0  0  3  0  0  0  0  0  0
  191.5270  177.1270  141.5930 C   0  0  0  0  0  0  0  0  0  0  0  0
  192.9140  177.3610  141.5920 C   0  0  0  0  0  3  0  0  0  0  0  0
  190.6010  177.8310  145.3610 C   0  0  1  0  0  3  0  0  0  0  0  0
  190.8730  176.9230  140.3440 C   0  0  0  0  0  0  0  0  0  0  0  0
  190.8490  176.8520  142.9250 C   0  0  1  0  0  0  0  0  0  0  0  0
  191.4130  177.7870  144.0400 C   0  0  0  0  0  2  0  0  0  0  0  0
  189.1780  178.1960  144.9930 C   0  0  1  0  0  0  0  0  0  0  0  0
  193.6380  177.4100  140.4010 C   0  0  0  0  0  0  0  0  0  0  0  0
  180.8040  181.3680  138.3200 O   0  0  0  0  0  1  0  0  0  0  0  0
  182.0910  181.0990  138.7950 C   0  0  0  0  0  2  0  0  0  0  0  0
  181.1080  177.2020  137.0390 O   0  0  0  0  0  0  0  0  0  0  0  0
  179.7280  177.4730  136.8160 C   0  0  0  0  0  2  0  0  0  0  0  0
  178.9540  176.1710  136.6840 C   0  0  0  0  0  2  0  0  0  0  0  0
  179.2300  173.8290  136.8950 C   0  0  0  0  0  2  0  0  0  0  0  0
  180.2630  174.4940  137.6800 C   0  0  2  0  0  3  0  0  0  0  0  0
  179.8540  175.0630  136.3880 N   0  0  0  0  0  0  0  0  0  0  0  0
  181.5940  173.7790  137.5030 C   0  0  2  0  0  3  0  0  0  0  0  0
  182.6400  174.5960  137.9440 O   0  0  0  0  0  1  0  0  0  0  0  0
  181.6130  171.9890  135.9140 O   0  0  0  0  0  1  0  0  0  0  0  0
  183.1880  173.7390  135.5360 C   0  0  0  0  0  1  0  0  0  0  0  0
  181.8040  173.3640  136.0450 C   0  0  2  0  0  3  0  0  0  0  0  0
  186.0100  178.1830  137.1610 C   0  0  0  0  0  2  0  0  0  0  0  0
  187.9160  179.4540  137.8180 O   0  0  0  0  0  0  0  0  0  0  0  0
  187.4540  178.5430  137.0800 C   0  0  0  0  0  0  0  0  0  0  0  0
  188.2770  177.8590  136.1850 O   0  0  0  0  0  0  0  0  0  0  0  0
  188.5880  176.4790  136.3460 C   0  0  1  0  0  3  0  0  0  0  0  0
  187.3480  175.6130  136.1120 C   0  0  1  0  0  3  0  0  0  0  0  0
  187.3270  175.1380  134.7990 O   0  0  0  0  0  1  0  0  0  0  0  0
  187.2490  174.4440  137.0990 C   0  0  0  0  0  2  0  0  0  0  0  0
  187.1500  173.0810  136.4110 C   0  0  2  0  0  3  0  0  0  0  0  0
  186.8470  172.0800  137.3390 O   0  0  0  0  0  1  0  0  0  0  0  0
  188.3340  171.4880  134.9760 N   0  0  0  0  0  1  0  0  0  0  0  0
  188.4480  172.7520  135.6870 C   0  0  0  0  0  2  0  0  0  0  0  0
  189.7410  176.0770  135.4240 C   0  0  0  0  0  2  0  0  0  0  0  0
  190.9790  175.8890  136.1750 N   0  0  0  0  0  2  0  0  0  0  0  0
  191.1990  174.5070  136.2960 N   0  0  0  0  0  2  0  0  0  0  0  0
  193.4250  173.5550  137.4390 S   0  0  0  0  0  0  0  0  0  0  0  0
  192.9710  173.6210  134.8330 N   0  0  0  0  0  1  0  0  0  0  0  0
  192.4930  173.9180  136.1400 C   0  0  0  0  0  0  0  0  0  0  0  0
  1  5  1  0  0  0  0
  2  4  2  0  0  0  0
  2  3  1  0  0  0  0
  3  5  1  0  0  0  0
  4  7  1  0  0  0  0
  5  9  1  1  0  0  0
  7  1  1  0  0  0  0
  7  6  1  1  0  0  0
  8  3  2  0  0  0  0
  9 10  1  1  0  0  0
  9 11  1  0  0  0  0
 11 12  1  6  0  0  0
 11 13  1  0  0  0  0
 15 14  1  6  0  0  0
 15 13  1  0  0  0  0
 15 16  1  0  0  0  0
 18 35  1  0  0  0  0
 19 21  1  0  0  0  0
 21 32  1  0  0  0  0
 21 24  1  0  0  0  0
 22 31  1  0  0  0  0
 22 19  1  0  0  0  0
 24 16  1  0  0  0  0
 24 34  1  0  0  0  0
 24 17  1  0  0  0  0
 26 18  1  0  0  0  0
 27 18  2  0  0  0  0
 27 31  1  0  0  0  0
 28 32  1  0  0  0  0
 29 28  1  0  0  0  0
 30 17  1  0  0  0  0
 31 28  2  0  0  0  0
 32 23  1  0  0  0  0
 32 33  1  0  0  0  0
 33 30  1  0  0  0  0
 34 30  1  0  0  0  0
 34 17  1  0  0  0  0
 34 25  1  0  0  0  0
 35 20  1  0  0  0  0
 35 29  2  0  0  0  0
 36 37  1  0  0  0  0
 37  1  1  0  0  0  0
 38  4  1  0  0  0  0
 39 38  1  0  0  0  0
 40 39  1  0  0  0  0
 41 42  1  0  0  0  0
 43 40  1  0  0  0  0
 43 41  1  0  0  0  0
 43 42  1  0  0  0  0
 44 42  1  0  0  0  0
 44 45  1  0  0  0  0
 46 48  1  0  0  0  0
 47 48  1  0  0  0  0
 48 44  1  0  0  0  0
 49  8  1  0  0  0  0
 51 49  1  0  0  0  0
 51 50  2  0  0  0  0
 52 53  1  0  0  0  0
 52 51  1  0  0  0  0
 54 53  1  0  0  0  0
 54 56  1  0  0  0  0
 55 54  1  0  0  0  0
 57 56  1  0  0  0  0
 57 58  1  0  0  0  0
 59 60  1  0  0  0  0
 60 57  1  0  0  0  0
 61 62  1  0  0  0  0
 61 53  1  0  0  0  0
 62 63  1  0  0  0  0
 65 66  1  0  0  0  0
 66 63  1  0  0  0  0
 66 64  2  0  0  0  0
M  END
>  <MODEL>
8

>  <REMARK>
 VINA RESULT:      -0.5      2.878      8.592
  Name = 
  25 active torsions:
  status: ('A' for Active; 'I' for Inactive)
    1  A    between atoms: C_1  and  C_5
    2  A    between atoms: C_1  and  C_20
    3  A    between atoms: C_2  and  C_35
    4  A    between atoms: C_2  and  C_64
    5  A    between atoms: N_3  and  C_60
    6  A    between atoms: C_5  and  C_53
    7  A    between atoms: C_5  and  O_58
    8  A    between atoms: S_9  and  C_23
    9  A    between atoms: S_9  and  C_28
   10  A    between atoms: C_10  and  O_32
   11  A    between atoms: C_10  and  C_54
   12  A    between atoms: C_13  and  C_20
   13  A    between atoms: C_13  and  C_48
   14  A    between atoms: C_19  and  N_40
   15  A    between atoms: C_19  and  C_43
   16  A    between atoms: C_23  and  N_40
   17  A    between atoms: C_27  and  C_49
   18  A    between atoms: C_27  and  C_51
   19  A    between atoms: C_31  and  O_32
   20  A    between atoms: C_35  and  O_58
   21  A    between atoms: C_37  and  C_43
   22  A    between atoms: N_41  and  C_53
   23  A    between atoms: N_41  and  N_59
   24  A    between atoms: C_47  and  N_59
   25  A    between atoms: C_54  and  N_62
                            x       y       z     vdW  Elec       q    Type
                         _______ _______ _______ _____ _____    ______ ____

>  <TORSDO>
F 25

$$$$
=
 OpenBabel11042409563D

 66 72  0  0  1  0  0  0  0  0999 V2000
  189.0550  176.5630  140.4620 N   0  0  0  0  0  0  0  0  0  0  0  0
  189.0870  179.0440  141.8680 N   0  0  0  0  0  0  0  0  0  0  0  0
  190.2820  178.2730  141.7600 C   0  0  0  0  0  0  0  0  0  0  0  0
  187.9990  178.7300  141.2290 C   0  0  0  0  0  0  0  0  0  0  0  0
  190.3630  177.1870  140.7320 C   0  0  2  0  0  3  0  0  0  0  0  0
  187.6070  177.8400  138.9210 C   0  0  0  0  0  1  0  0  0  0  0  0
  187.9080  177.4910  140.3670 C   0  0  1  0  0  3  0  0  0  0  0  0
  191.3250  178.5090  142.5570 C   0  0  0  0  0  3  0  0  0  0  0  0
  191.1210  177.6180  139.4590 C   0  0  2  0  0  3  0  0  0  0  0  0
  190.2110  177.9180  138.2700 C   0  0  0  0  0  1  0  0  0  0  0  0
  192.2830  176.6790  139.1060 C   0  0  2  0  0  3  0  0  0  0  0  0
  193.5480  177.0870  139.8470 C   0  0  0  0  0  1  0  0  0  0  0  0
  192.5220  176.6620  137.6650 N   0  0  0  0  0  2  0  0  0  0  0  0
  193.3310  174.4380  137.1610 C   0  0  0  0  0  1  0  0  0  0  0  0
  192.1330  175.3660  137.1210 C   0  0  2  0  0  3  0  0  0  0  0  0
  191.5370  175.5460  135.4020 S   0  0  0  0  0  0  0  0  0  0  0  0
  189.7610  173.5390  136.5040 C   0  0  1  0  0  3  0  0  0  0  0  0
  183.5390  176.7870  135.2690 C   0  0  0  0  0  0  0  0  0  0  0  0
  188.6150  177.0440  135.9050 C   0  0  0  0  0  2  0  0  0  0  0  0
  182.4390  174.6810  135.7170 O   0  0  0  0  0  1  0  0  0  0  0  0
  188.5700  175.5920  135.4740 C   0  0  1  0  0  3  0  0  0  0  0  0
  187.4040  177.9430  134.9000 S   0  0  0  0  0  0  0  0  0  0  0  0
  187.3600  174.9690  137.6140 C   0  0  0  0  0  1  0  0  0  0  0  0
  189.8830  174.8090  135.6850 C   0  0  1  0  0  0  0  0  0  0  0  0
  190.8820  172.7720  134.6550 O   0  0  0  0  0  1  0  0  0  0  0  0
  182.3430  177.3980  135.0950 F   0  0  0  0  0  0  0  0  0  0  0  0
  184.7160  177.5210  135.1170 C   0  0  0  0  0  3  0  0  0  0  0  0
  186.0400  175.5350  135.6280 C   0  0  0  0  0  0  0  0  0  0  0  0
  184.8400  174.8160  135.7770 C   0  0  0  0  0  3  0  0  0  0  0  0
  188.7270  172.6540  135.8170 C   0  0  1  0  0  3  0  0  0  0  0  0
  185.9650  176.9160  135.2850 C   0  0  0  0  0  0  0  0  0  0  0  0
  187.3310  174.8760  136.0840 C   0  0  1  0  0  0  0  0  0  0  0  0
  187.3540  173.3650  135.6920 C   0  0  0  0  0  2  0  0  0  0  0  0
  189.7160  173.4580  135.0000 C   0  0  1  0  0  0  0  0  0  0  0  0
  183.6020  175.4270  135.5810 C   0  0  0  0  0  0  0  0  0  0  0  0
  189.3730  176.0260  142.7130 O   0  0  0  0  0  1  0  0  0  0  0  0
  188.7730  175.6020  141.5240 C   0  0  0  0  0  2  0  0  0  0  0  0
  186.8710  179.5480  141.3210 O   0  0  0  0  0  0  0  0  0  0  0  0
  185.7550  179.2170  142.1400 C   0  0  0  0  0  2  0  0  0  0  0  0
  184.7690  178.3600  141.3610 C   0  0  0  0  0  2  0  0  0  0  0  0
  182.6860  177.2630  141.6070 C   0  0  0  0  0  2  0  0  0  0  0  0
  182.5000  178.4330  140.7560 C   0  0  2  0  0  3  0  0  0  0  0  0
  183.4220  178.5050  141.8990 N   0  0  0  0  0  0  0  0  0  0  0  0
  181.2070  179.1450  141.1220 C   0  0  2  0  0  3  0  0  0  0  0  0
  181.4900  180.3260  141.8150 O   0  0  0  0  0  1  0  0  0  0  0  0
  179.3970  177.5790  141.1020 O   0  0  0  0  0  1  0  0  0  0  0  0
  179.5250  179.0050  143.0080 C   0  0  0  0  0  1  0  0  0  0  0  0
  180.2930  178.2350  141.9450 C   0  0  2  0  0  3  0  0  0  0  0  0
  191.3130  179.5630  143.6180 C   0  0  0  0  0  2  0  0  0  0  0  0
  191.9460  179.2710  145.8970 O   0  0  0  0  0  0  0  0  0  0  0  0
  191.1530  178.9570  144.9700 C   0  0  0  0  0  0  0  0  0  0  0  0
  190.1180  178.0470  145.1890 O   0  0  0  0  0  0  0  0  0  0  0  0
  190.0960  177.1840  146.3210 C   0  0  1  0  0  3  0  0  0  0  0  0
  188.6740  177.0460  146.8700 C   0  0  1  0  0  3  0  0  0  0  0  0
  188.6690  177.2210  148.2560 O   0  0  0  0  0  1  0  0  0  0  0  0
  187.6890  178.0180  146.2110 C   0  0  0  0  0  2  0  0  0  0  0  0
  186.3780  177.3530  145.7870 C   0  0  2  0  0  3  0  0  0  0  0  0
  186.4250  176.9820  144.4400 O   0  0  0  0  0  1  0  0  0  0  0  0
  185.5760  179.3550  146.9480 N   0  0  0  0  0  1  0  0  0  0  0  0
  185.2010  178.2860  146.0360 C   0  0  0  0  0  2  0  0  0  0  0  0
  190.7040  175.8240  145.9720 C   0  0  0  0  0  2  0  0  0  0  0  0
  191.4750  175.2850  147.0880 N   0  0  0  0  0  2  0  0  0  0  0  0
  192.1470  176.3570  147.6990 N   0  0  0  0  0  2  0  0  0  0  0  0
  193.1010  177.5130  149.9180 S   0  0  0  0  0  0  0  0  0  0  0  0
  193.2870  174.9340  149.3560 N   0  0  0  0  0  1  0  0  0  0  0  0
  192.8390  176.2210  148.9440 C   0  0  0  0  0  0  0  0  0  0  0  0
  1  5  1  0  0  0  0
  1 37  1  0  0  0  0
  3  2  1  0  0  0  0
  3  8  2  0  0  0  0
  4 38  1  0  0  0  0
  4  2  2  0  0  0  0
  5  9  1  6  0  0  0
  5  3  1  0  0  0  0
  7  6  1  6  0  0  0
  7  1  1  0  0  0  0
  7  4  1  0  0  0  0
  8 49  1  0  0  0  0
  9 10  1  6  0  0  0
 11  9  1  0  0  0  0
 11 12  1  1  0  0  0
 13 11  1  0  0  0  0
 15 14  1  6  0  0  0
 15 13  1  0  0  0  0
 16 24  1  0  0  0  0
 16 15  1  0  0  0  0
 18 35  1  0  0  0  0
 21 24  1  0  0  0  0
 21 19  1  0  0  0  0
 21 32  1  0  0  0  0
 22 31  1  0  0  0  0
 22 19  1  0  0  0  0
 24 17  1  0  0  0  0
 25 34  1  0  0  0  0
 26 18  1  0  0  0  0
 27 18  2  0  0  0  0
 27 31  1  0  0  0  0
 28 29  1  0  0  0  0
 28 32  1  0  0  0  0
 30 17  1  0  0  0  0
 31 28  2  0  0  0  0
 32 23  1  0  0  0  0
 33 30  1  0  0  0  0
 33 32  1  0  0  0  0
 34 24  1  0  0  0  0
 34 30  1  0  0  0  0
 34 17  1  0  0  0  0
 35 20  1  0  0  0  0
 35 29  2  0  0  0  0
 37 36  1  0  0  0  0
 38 39  1  0  0  0  0
 40 43  1  0  0  0  0
 40 39  1  0  0  0  0
 41 43  1  0  0  0  0
 42 44  1  0  0  0  0
 42 41  1  0  0  0  0
 42 43  1  0  0  0  0
 44 45  1  0  0  0  0
 44 48  1  0  0  0  0
 46 48  1  0  0  0  0
 48 47  1  0  0  0  0
 49 51  1  0  0  0  0
 51 52  1  0  0  0  0
 51 50  2  0  0  0  0
 52 53  1  0  0  0  0
 53 54  1  0  0  0  0
 54 55  1  0  0  0  0
 56 54  1  0  0  0  0
 57 60  1  0  0  0  0
 57 56  1  0  0  0  0
 58 57  1  0  0  0  0
 60 59  1  0  0  0  0
 61 53  1  0  0  0  0
 61 62  1  0  0  0  0
 62 63  1  0  0  0  0
 63 66  1  0  0  0  0
 66 65  1  0  0  0  0
 66 64  2  0  0  0  0
M  END
>  <MODEL>
9

>  <REMARK>
 VINA RESULT:      -0.3      4.235     11.568
  Name = 
  25 active torsions:
  status: ('A' for Active; 'I' for Inactive)
    1  A    between atoms: C_1  and  C_5
    2  A    between atoms: C_1  and  C_20
    3  A    between atoms: C_2  and  C_35
    4  A    between atoms: C_2  and  C_64
    5  A    between atoms: N_3  and  C_60
    6  A    between atoms: C_5  and  C_53
    7  A    between atoms: C_5  and  O_58
    8  A    between atoms: S_9  and  C_23
    9  A    between atoms: S_9  and  C_28
   10  A    between atoms: C_10  and  O_32
   11  A    between atoms: C_10  and  C_54
   12  A    between atoms: C_13  and  C_20
   13  A    between atoms: C_13  and  C_48
   14  A    between atoms: C_19  and  N_40
   15  A    between atoms: C_19  and  C_43
   16  A    between atoms: C_23  and  N_40
   17  A    between atoms: C_27  and  C_49
   18  A    between atoms: C_27  and  C_51
   19  A    between atoms: C_31  and  O_32
   20  A    between atoms: C_35  and  O_58
   21  A    between atoms: C_37  and  C_43
   22  A    between atoms: N_41  and  C_53
   23  A    between atoms: N_41  and  N_59
   24  A    between atoms: C_47  and  N_59
   25  A    between atoms: C_54  and  N_62
                            x       y       z     vdW  Elec       q    Type
                         _______ _______ _______ _____ _____    ______ ____

>  <TORSDO>
F 25

$$$$
