=
 OpenBabel11032420303D

 33 36  0  0  1  0  0  0  0  0999 V2000
  187.1700  178.1420  143.6600 C   0  0  0  0  0  0  0  0  0  0  0  0
  188.4340  176.9590  146.7190 C   0  0  0  0  0  3  0  0  0  0  0  0
  188.8540  177.9890  141.9480 N   0  0  0  0  0  0  0  0  0  0  0  0
  189.5370  176.3880  147.3600 C   0  0  0  0  0  3  0  0  0  0  0  0
  189.9060  177.9740  145.0660 C   0  0  0  0  0  0  0  0  0  0  0  0
  188.6010  177.7220  145.5580 C   0  0  0  0  0  0  0  0  0  0  0  0
  187.4310  178.2610  144.9260 N   0  0  0  0  0  0  0  0  0  0  0  0
  191.3850  179.7000  143.9730 C   0  0  0  0  0  1  0  0  0  0  0  0
  187.9910  177.3740  142.8290 O   0  0  0  0  0  0  0  0  0  0  0  0
  190.8200  176.5830  146.8460 C   0  0  0  0  0  0  0  0  0  0  0  0
  190.1670  178.0290  142.5810 C   0  0  0  0  0  2  0  0  0  0  0  0
  191.0040  177.3760  145.7090 C   0  0  0  0  0  3  0  0  0  0  0  0
  190.1270  178.8560  143.8590 C   0  0  1  0  0  3  0  0  0  0  0  0
  192.8650  175.5010  148.0230 N   0  0  0  0  0  0  0  0  0  0  0  0
  191.9510  175.9850  147.5000 C   0  0  0  0  0  0  0  0  0  0  0  0
  188.9810  177.0950  140.8090 C   0  0  0  0  0  2  0  0  0  0  0  0
  188.9320  177.8810  139.5130 C   0  0  0  0  0  2  0  0  0  0  0  0
  188.2330  177.8590  137.1380 C   0  0  0  0  0  2  0  0  0  0  0  0
  188.3500  177.0260  138.3950 C   0  0  2  0  0  3  0  0  0  0  0  0
  186.9770  177.4920  137.9030 C   0  0  1  0  0  3  0  0  0  0  0  0
  186.5060  178.6290  138.6220 O   0  0  0  0  0  0  0  0  0  0  0  0
  184.8260  179.7320  139.7200 O   0  0  0  0  0  0  0  0  0  0  0  0
  185.1950  178.7050  139.0930 C   0  0  0  0  0  0  0  0  0  0  0  0
  184.2750  177.6300  138.8620 N   0  0  0  0  0  2  0  0  0  0  0  0
  182.4440  176.2160  139.6260 C   0  0  0  0  0  1  0  0  0  0  0  0
  182.9000  177.6370  139.3380 C   0  0  2  0  0  3  0  0  0  0  0  0
  181.1720  179.2040  138.8410 O   0  0  0  0  0  1  0  0  0  0  0  0
  182.0090  178.2440  138.2690 C   0  0  0  0  0  2  0  0  0  0  0  0
  185.9760  178.8250  143.0920 C   0  0  0  0  0  2  0  0  0  0  0  0
  184.7160  178.0340  143.3850 C   0  0  2  0  0  3  0  0  0  0  0  0
  183.6080  178.6930  142.8520 N   0  0  0  0  0  2  0  0  0  0  0  0
  183.9810  178.7220  144.3360 C   0  0  0  0  0  0  0  0  0  0  0  0
  183.7860  179.1260  145.5460 N   0  0  0  0  0  2  0  0  0  0  0  0
  1  7  2  0  0  0  0
  2  4  1  0  0  0  0
  3 11  1  0  0  0  0
  3  9  1  0  0  0  0
  5  6  1  0  0  0  0
  5 12  2  0  0  0  0
  6  2  2  0  0  0  0
  7  6  1  0  0  0  0
  9  1  1  0  0  0  0
 10  4  2  0  0  0  0
 10 15  1  0  0  0  0
 11 13  1  0  0  0  0
 12 10  1  0  0  0  0
 13  8  1  1  0  0  0
 13  5  1  0  0  0  0
 15 14  3  0  0  0  0
 16  3  1  0  0  0  0
 17 16  1  0  0  0  0
 18 20  1  0  0  0  0
 18 19  1  0  0  0  0
 19 17  1  1  0  0  0
 20 19  1  0  0  0  0
 20 21  1  1  0  0  0
 21 23  1  0  0  0  0
 23 22  2  0  0  0  0
 24 23  1  0  0  0  0
 24 26  1  0  0  0  0
 26 25  1  6  0  0  0
 28 27  1  0  0  0  0
 28 26  1  0  0  0  0
 29  1  1  0  0  0  0
 30 29  1  6  0  0  0
 30 32  1  0  0  0  0
 31 30  1  0  0  0  0
 31 32  1  0  0  0  0
 32 33  2  0  0  0  0
M  END
>  <MODEL>
1

>  <REMARK>
 VINA RESULT:      -7.8      0.000      0.000
  Name = 
  10 active torsions:
  status: ('A' for Active; 'I' for Inactive)
    1  A    between atoms: C_3  and  C_23
    2  A    between atoms: C_5  and  C_23
    3  A    between atoms: O_6  and  C_12
    4  A    between atoms: O_6  and  C_30
    5  A    between atoms: C_10  and  C_22
    6  A    between atoms: C_13  and  C_29
    7  A    between atoms: N_14  and  C_20
    8  A    between atoms: CA_16  and  C_26
    9  A    between atoms: CA_16  and  N_27
   10  A    between atoms: C_20  and  C_22
                            x       y       z     vdW  Elec       q    Type
                         _______ _______ _______ _____ _____    ______ ____

>  <TORSDO>
F 10

$$$$
=
 OpenBabel11032420303D

 33 36  0  0  1  0  0  0  0  0999 V2000
  187.3400  177.9900  143.5610 C   0  0  0  0  0  0  0  0  0  0  0  0
  188.5280  176.9660  146.7070 C   0  0  0  0  0  3  0  0  0  0  0  0
  189.0580  177.7290  141.8970 N   0  0  0  0  0  0  0  0  0  0  0  0
  189.6120  176.4210  147.4020 C   0  0  0  0  0  3  0  0  0  0  0  0
  190.0440  177.8760  145.0330 C   0  0  0  0  0  0  0  0  0  0  0  0
  188.7270  177.6630  145.5100 C   0  0  0  0  0  0  0  0  0  0  0  0
  187.5760  178.1770  144.8240 N   0  0  0  0  0  0  0  0  0  0  0  0
  191.5630  179.5270  143.8800 C   0  0  0  0  0  1  0  0  0  0  0  0
  188.1710  177.1710  142.7920 O   0  0  0  0  0  0  0  0  0  0  0  0
  190.9070  176.5770  146.9060 C   0  0  0  0  0  0  0  0  0  0  0  0
  190.3580  177.7930  142.5560 C   0  0  0  0  0  2  0  0  0  0  0  0
  191.1230  177.3040  145.7320 C   0  0  0  0  0  3  0  0  0  0  0  0
  190.3000  178.6890  143.7850 C   0  0  1  0  0  3  0  0  0  0  0  0
  192.9170  175.5460  148.1850 N   0  0  0  0  0  0  0  0  0  0  0  0
  192.0180  176.0050  147.6150 C   0  0  0  0  0  0  0  0  0  0  0  0
  189.2010  176.7730  140.8120 C   0  0  0  0  0  2  0  0  0  0  0  0
  190.3360  177.1830  139.8940 C   0  0  0  0  0  2  0  0  0  0  0  0
  190.2830  175.5690  138.0170 C   0  0  0  0  0  2  0  0  0  0  0  0
  189.9400  176.9810  138.4370 C   0  0  2  0  0  3  0  0  0  0  0  0
  191.1230  176.7190  137.5000 C   0  0  1  0  0  3  0  0  0  0  0  0
  192.3700  176.7470  138.1880 O   0  0  0  0  0  0  0  0  0  0  0  0
  194.0720  176.7180  136.6560 O   0  0  0  0  0  0  0  0  0  0  0  0
  193.5190  176.1700  137.6450 C   0  0  0  0  0  0  0  0  0  0  0  0
  194.0680  174.9710  138.2080 N   0  0  0  0  0  2  0  0  0  0  0  0
  194.8620  173.0010  137.0150 C   0  0  0  0  0  1  0  0  0  0  0  0
  195.2520  174.3100  137.6820 C   0  0  2  0  0  3  0  0  0  0  0  0
  196.0720  175.0030  139.8120 O   0  0  0  0  0  1  0  0  0  0  0  0
  196.2100  174.0250  138.8250 C   0  0  0  0  0  2  0  0  0  0  0  0
  186.1650  178.6520  142.9310 C   0  0  0  0  0  2  0  0  0  0  0  0
  184.8850  177.9240  143.2900 C   0  0  2  0  0  3  0  0  0  0  0  0
  183.7900  178.5990  142.7500 N   0  0  0  0  0  2  0  0  0  0  0  0
  184.1990  178.6840  144.2220 C   0  0  0  0  0  0  0  0  0  0  0  0
  184.0470  179.1510  145.4150 N   0  0  0  0  0  2  0  0  0  0  0  0
  1  7  2  0  0  0  0
  2  4  1  0  0  0  0
  3 11  1  0  0  0  0
  3  9  1  0  0  0  0
  5  6  1  0  0  0  0
  5 12  2  0  0  0  0
  6  2  2  0  0  0  0
  7  6  1  0  0  0  0
  9  1  1  0  0  0  0
 10  4  2  0  0  0  0
 10 15  1  0  0  0  0
 11 13  1  0  0  0  0
 12 10  1  0  0  0  0
 13  8  1  1  0  0  0
 13  5  1  0  0  0  0
 15 14  3  0  0  0  0
 16  3  1  0  0  0  0
 17 16  1  0  0  0  0
 18 19  1  0  0  0  0
 19 17  1  1  0  0  0
 20 18  1  0  0  0  0
 20 21  1  1  0  0  0
 20 19  1  0  0  0  0
 22 23  2  0  0  0  0
 23 21  1  0  0  0  0
 23 24  1  0  0  0  0
 26 25  1  1  0  0  0
 26 24  1  0  0  0  0
 26 28  1  0  0  0  0
 28 27  1  0  0  0  0
 29  1  1  0  0  0  0
 30 29  1  6  0  0  0
 30 32  1  0  0  0  0
 31 30  1  0  0  0  0
 31 32  1  0  0  0  0
 32 33  2  0  0  0  0
M  END
>  <MODEL>
2

>  <REMARK>
 VINA RESULT:      -7.7      3.746      5.918
  Name = 
  10 active torsions:
  status: ('A' for Active; 'I' for Inactive)
    1  A    between atoms: C_3  and  C_23
    2  A    between atoms: C_5  and  C_23
    3  A    between atoms: O_6  and  C_12
    4  A    between atoms: O_6  and  C_30
    5  A    between atoms: C_10  and  C_22
    6  A    between atoms: C_13  and  C_29
    7  A    between atoms: N_14  and  C_20
    8  A    between atoms: CA_16  and  C_26
    9  A    between atoms: CA_16  and  N_27
   10  A    between atoms: C_20  and  C_22
                            x       y       z     vdW  Elec       q    Type
                         _______ _______ _______ _____ _____    ______ ____

>  <TORSDO>
F 10

$$$$
=
 OpenBabel11032420303D

 33 36  0  0  1  0  0  0  0  0999 V2000
  187.3690  177.9920  143.6280 C   0  0  0  0  0  0  0  0  0  0  0  0
  188.5650  176.9910  146.7790 C   0  0  0  0  0  3  0  0  0  0  0  0
  189.0760  177.6980  141.9580 N   0  0  0  0  0  0  0  0  0  0  0  0
  189.6480  176.4440  147.4730 C   0  0  0  0  0  3  0  0  0  0  0  0
  190.0800  177.8700  145.0870 C   0  0  0  0  0  0  0  0  0  0  0  0
  188.7630  177.6740  145.5730 C   0  0  0  0  0  0  0  0  0  0  0  0
  187.6130  178.1900  144.8880 N   0  0  0  0  0  0  0  0  0  0  0  0
  191.6070  179.4950  143.9080 C   0  0  0  0  0  1  0  0  0  0  0  0
  188.1880  177.1570  142.8630 O   0  0  0  0  0  0  0  0  0  0  0  0
  190.9410  176.5830  146.9690 C   0  0  0  0  0  0  0  0  0  0  0  0
  190.3800  177.7580  142.6090 C   0  0  0  0  0  2  0  0  0  0  0  0
  191.1570  177.2960  145.7860 C   0  0  0  0  0  3  0  0  0  0  0  0
  190.3360  178.6670  143.8290 C   0  0  1  0  0  3  0  0  0  0  0  0
  192.9450  175.5470  148.2530 N   0  0  0  0  0  0  0  0  0  0  0  0
  192.0520  176.0100  147.6780 C   0  0  0  0  0  0  0  0  0  0  0  0
  189.2040  176.7300  140.8820 C   0  0  0  0  0  2  0  0  0  0  0  0
  190.2990  177.1510  139.9210 C   0  0  0  0  0  2  0  0  0  0  0  0
  191.3570  176.7220  137.7240 C   0  0  0  0  0  2  0  0  0  0  0  0
  190.3510  176.2050  138.7280 C   0  0  2  0  0  3  0  0  0  0  0  0
  189.8780  176.8320  137.4140 C   0  0  1  0  0  3  0  0  0  0  0  0
  189.4530  178.1810  137.5850 O   0  0  0  0  0  0  0  0  0  0  0  0
  187.8440  179.5830  136.7540 O   0  0  0  0  0  0  0  0  0  0  0  0
  188.1180  178.5540  137.4240 C   0  0  0  0  0  0  0  0  0  0  0  0
  187.0680  177.7720  138.0090 N   0  0  0  0  0  2  0  0  0  0  0  0
  185.1260  178.5800  139.2380 C   0  0  0  0  0  1  0  0  0  0  0  0
  185.6590  178.1110  137.8930 C   0  0  2  0  0  3  0  0  0  0  0  0
  185.7690  175.9320  136.9310 O   0  0  0  0  0  1  0  0  0  0  0  0
  184.8870  176.8810  137.4490 C   0  0  0  0  0  2  0  0  0  0  0  0
  186.1960  178.6570  142.9980 C   0  0  0  0  0  2  0  0  0  0  0  0
  184.9150  177.9270  143.3450 C   0  0  2  0  0  3  0  0  0  0  0  0
  183.8230  178.5950  142.7910 N   0  0  0  0  0  2  0  0  0  0  0  0
  184.2160  178.6870  144.2670 C   0  0  0  0  0  0  0  0  0  0  0  0
  184.0490  179.1590  145.4560 N   0  0  0  0  0  2  0  0  0  0  0  0
  1  7  2  0  0  0  0
  2  4  1  0  0  0  0
  3 11  1  0  0  0  0
  3  9  1  0  0  0  0
  5  6  1  0  0  0  0
  5 12  2  0  0  0  0
  6  2  2  0  0  0  0
  7  6  1  0  0  0  0
  9  1  1  0  0  0  0
 10  4  2  0  0  0  0
 10 15  1  0  0  0  0
 11 13  1  0  0  0  0
 12 10  1  0  0  0  0
 13  8  1  1  0  0  0
 13  5  1  0  0  0  0
 15 14  3  0  0  0  0
 16  3  1  0  0  0  0
 17 16  1  0  0  0  0
 18 19  1  0  0  0  0
 19 17  1  1  0  0  0
 20 21  1  1  0  0  0
 20 18  1  0  0  0  0
 20 19  1  0  0  0  0
 22 23  2  0  0  0  0
 23 21  1  0  0  0  0
 23 24  1  0  0  0  0
 26 24  1  0  0  0  0
 26 25  1  1  0  0  0
 27 28  1  0  0  0  0
 28 26  1  0  0  0  0
 29  1  1  0  0  0  0
 30 29  1  6  0  0  0
 30 32  1  0  0  0  0
 31 30  1  0  0  0  0
 31 32  1  0  0  0  0
 32 33  2  0  0  0  0
M  END
>  <MODEL>
3

>  <REMARK>
 VINA RESULT:      -7.7      1.792      2.105
  Name = 
  10 active torsions:
  status: ('A' for Active; 'I' for Inactive)
    1  A    between atoms: C_3  and  C_23
    2  A    between atoms: C_5  and  C_23
    3  A    between atoms: O_6  and  C_12
    4  A    between atoms: O_6  and  C_30
    5  A    between atoms: C_10  and  C_22
    6  A    between atoms: C_13  and  C_29
    7  A    between atoms: N_14  and  C_20
    8  A    between atoms: CA_16  and  C_26
    9  A    between atoms: CA_16  and  N_27
   10  A    between atoms: C_20  and  C_22
                            x       y       z     vdW  Elec       q    Type
                         _______ _______ _______ _____ _____    ______ ____

>  <TORSDO>
F 10

$$$$
=
 OpenBabel11032420303D

 33 36  0  0  1  0  0  0  0  0999 V2000
  187.0900  177.9670  144.0060 C   0  0  0  0  0  0  0  0  0  0  0  0
  188.5860  176.8810  146.9960 C   0  0  0  0  0  3  0  0  0  0  0  0
  188.6630  177.8280  142.1900 N   0  0  0  0  0  0  0  0  0  0  0  0
  189.7450  176.3540  147.5730 C   0  0  0  0  0  3  0  0  0  0  0  0
  189.9160  177.9050  145.2330 C   0  0  0  0  0  0  0  0  0  0  0  0
  188.6540  177.6260  145.8130 C   0  0  0  0  0  0  0  0  0  0  0  0
  187.4300  178.1190  145.2500 N   0  0  0  0  0  0  0  0  0  0  0  0
  191.2690  179.6500  144.0140 C   0  0  0  0  0  1  0  0  0  0  0  0
  187.8780  177.2060  143.1370 O   0  0  0  0  0  0  0  0  0  0  0  0
  190.9850  176.5760  146.9730 C   0  0  0  0  0  0  0  0  0  0  0  0
  190.0130  177.9180  142.7350 C   0  0  0  0  0  2  0  0  0  0  0  0
  191.0710  177.3510  145.8130 C   0  0  0  0  0  3  0  0  0  0  0  0
  190.0320  178.7690  143.9980 C   0  0  1  0  0  3  0  0  0  0  0  0
  193.1330  175.5810  148.0370 N   0  0  0  0  0  0  0  0  0  0  0  0
  192.1740  176.0230  147.5610 C   0  0  0  0  0  0  0  0  0  0  0  0
  188.7420  176.9160  141.0620 C   0  0  0  0  0  2  0  0  0  0  0  0
  190.1250  176.9630  140.4420 C   0  0  0  0  0  2  0  0  0  0  0  0
  188.9910  177.0180  138.2420 C   0  0  0  0  0  2  0  0  0  0  0  0
  190.0760  177.6520  139.0840 C   0  0  2  0  0  3  0  0  0  0  0  0
  190.4430  176.7420  137.9090 C   0  0  1  0  0  3  0  0  0  0  0  0
  190.7890  175.4270  138.3360 O   0  0  0  0  0  0  0  0  0  0  0  0
  191.4830  173.6670  137.0450 O   0  0  0  0  0  0  0  0  0  0  0  0
  191.7940  174.6930  137.7030 C   0  0  0  0  0  0  0  0  0  0  0  0
  193.1640  175.1050  137.7960 N   0  0  0  0  0  2  0  0  0  0  0  0
  195.2270  173.8870  138.2410 C   0  0  0  0  0  1  0  0  0  0  0  0
  194.2610  174.3790  137.1740 C   0  0  2  0  0  3  0  0  0  0  0  0
  194.5790  176.6220  136.4320 O   0  0  0  0  0  1  0  0  0  0  0  0
  194.9930  175.3060  136.2220 C   0  0  0  0  0  2  0  0  0  0  0  0
  185.8420  178.6040  143.5060 C   0  0  0  0  0  2  0  0  0  0  0  0
  185.6180  178.2710  142.0450 C   0  0  2  0  0  3  0  0  0  0  0  0
  185.6250  179.4410  141.2850 N   0  0  0  0  0  2  0  0  0  0  0  0
  184.3500  178.6980  141.6900 C   0  0  0  0  0  0  0  0  0  0  0  0
  183.0640  178.5870  141.7190 N   0  0  0  0  0  2  0  0  0  0  0  0
  1  7  2  0  0  0  0
  2  4  1  0  0  0  0
  3 11  1  0  0  0  0
  3  9  1  0  0  0  0
  5  6  1  0  0  0  0
  5 12  2  0  0  0  0
  6  2  2  0  0  0  0
  7  6  1  0  0  0  0
  9  1  1  0  0  0  0
 10 15  1  0  0  0  0
 10  4  2  0  0  0  0
 11 13  1  0  0  0  0
 12 10  1  0  0  0  0
 13  8  1  1  0  0  0
 13  5  1  0  0  0  0
 15 14  3  0  0  0  0
 16  3  1  0  0  0  0
 17 16  1  0  0  0  0
 18 19  1  0  0  0  0
 19 17  1  1  0  0  0
 20 18  1  0  0  0  0
 20 21  1  1  0  0  0
 20 19  1  0  0  0  0
 22 23  2  0  0  0  0
 23 24  1  0  0  0  0
 23 21  1  0  0  0  0
 26 24  1  0  0  0  0
 26 25  1  1  0  0  0
 28 27  1  0  0  0  0
 28 26  1  0  0  0  0
 29  1  1  0  0  0  0
 30 29  1  1  0  0  0
 31 32  1  0  0  0  0
 31 30  1  0  0  0  0
 32 33  2  0  0  0  0
 32 30  1  0  0  0  0
M  END
>  <MODEL>
4

>  <REMARK>
 VINA RESULT:      -7.5      3.442      5.532
  Name = 
  10 active torsions:
  status: ('A' for Active; 'I' for Inactive)
    1  A    between atoms: C_3  and  C_23
    2  A    between atoms: C_5  and  C_23
    3  A    between atoms: O_6  and  C_12
    4  A    between atoms: O_6  and  C_30
    5  A    between atoms: C_10  and  C_22
    6  A    between atoms: C_13  and  C_29
    7  A    between atoms: N_14  and  C_20
    8  A    between atoms: CA_16  and  C_26
    9  A    between atoms: CA_16  and  N_27
   10  A    between atoms: C_20  and  C_22
                            x       y       z     vdW  Elec       q    Type
                         _______ _______ _______ _____ _____    ______ ____

>  <TORSDO>
F 10

$$$$
=
 OpenBabel11032420303D

 33 36  0  0  1  0  0  0  0  0999 V2000
  187.6060  177.8410  143.2470 C   0  0  0  0  0  0  0  0  0  0  0  0
  188.5230  176.9200  146.5130 C   0  0  0  0  0  3  0  0  0  0  0  0
  189.4980  177.6660  141.7700 N   0  0  0  0  0  0  0  0  0  0  0  0
  189.5590  176.4470  147.3230 C   0  0  0  0  0  3  0  0  0  0  0  0
  190.1470  177.9020  144.9880 C   0  0  0  0  0  0  0  0  0  0  0  0
  188.8020  177.6160  145.3310 C   0  0  0  0  0  0  0  0  0  0  0  0
  187.7000  178.0540  144.5240 N   0  0  0  0  0  0  0  0  0  0  0  0
  191.6790  179.6280  143.9690 C   0  0  0  0  0  1  0  0  0  0  0  0
  188.5570  177.0650  142.5790 O   0  0  0  0  0  0  0  0  0  0  0  0
  190.8870  176.6740  146.9590 C   0  0  0  0  0  0  0  0  0  0  0  0
  190.7180  177.8130  142.5560 C   0  0  0  0  0  2  0  0  0  0  0  0
  191.1800  177.4010  145.8010 C   0  0  0  0  0  3  0  0  0  0  0  0
  190.4820  178.7160  143.7590 C   0  0  1  0  0  3  0  0  0  0  0  0
  192.8090  175.7720  148.4520 N   0  0  0  0  0  0  0  0  0  0  0  0
  191.9510  176.1770  147.7860 C   0  0  0  0  0  0  0  0  0  0  0  0
  189.8060  176.7090  140.7200 C   0  0  0  0  0  2  0  0  0  0  0  0
  190.1130  177.4310  139.4220 C   0  0  0  0  0  2  0  0  0  0  0  0
  187.8560  177.8710  138.5040 C   0  0  0  0  0  2  0  0  0  0  0  0
  189.0670  178.5050  139.1520 C   0  0  2  0  0  3  0  0  0  0  0  0
  188.7780  178.7340  137.6660 C   0  0  1  0  0  3  0  0  0  0  0  0
  189.5780  177.9040  136.8290 O   0  0  0  0  0  0  0  0  0  0  0  0
  188.4000  177.5560  134.8960 O   0  0  0  0  0  0  0  0  0  0  0  0
  189.0080  177.0560  135.8780 C   0  0  0  0  0  0  0  0  0  0  0  0
  189.1170  175.6330  136.0130 N   0  0  0  0  0  2  0  0  0  0  0  0
  187.1650  174.2470  135.5580 C   0  0  0  0  0  1  0  0  0  0  0  0
  188.5340  174.6930  135.0680 C   0  0  2  0  0  3  0  0  0  0  0  0
  190.7770  173.8940  134.9310 O   0  0  0  0  0  1  0  0  0  0  0  0
  189.4430  173.4830  134.9470 C   0  0  0  0  0  2  0  0  0  0  0  0
  186.4660  178.4260  142.4900 C   0  0  0  0  0  2  0  0  0  0  0  0
  185.1470  177.8800  143.0010 C   0  0  2  0  0  3  0  0  0  0  0  0
  184.1150  178.2530  142.1410 N   0  0  0  0  0  2  0  0  0  0  0  0
  184.3940  178.9380  143.4810 C   0  0  0  0  0  0  0  0  0  0  0  0
  184.1450  179.8470  144.3620 N   0  0  0  0  0  2  0  0  0  0  0  0
  1  7  2  0  0  0  0
  2  4  1  0  0  0  0
  3 11  1  0  0  0  0
  3  9  1  0  0  0  0
  5  6  1  0  0  0  0
  5 12  2  0  0  0  0
  6  2  2  0  0  0  0
  7  6  1  0  0  0  0
  9  1  1  0  0  0  0
 10  4  2  0  0  0  0
 10 15  1  0  0  0  0
 11 13  1  0  0  0  0
 12 10  1  0  0  0  0
 13  8  1  1  0  0  0
 13  5  1  0  0  0  0
 15 14  3  0  0  0  0
 16  3  1  0  0  0  0
 17 16  1  0  0  0  0
 18 19  1  0  0  0  0
 19 17  1  6  0  0  0
 20 21  1  6  0  0  0
 20 18  1  0  0  0  0
 20 19  1  0  0  0  0
 22 23  2  0  0  0  0
 23 24  1  0  0  0  0
 23 21  1  0  0  0  0
 26 25  1  1  0  0  0
 26 24  1  0  0  0  0
 27 28  1  0  0  0  0
 28 26  1  0  0  0  0
 29  1  1  0  0  0  0
 30 29  1  6  0  0  0
 30 32  1  0  0  0  0
 31 30  1  0  0  0  0
 31 32  1  0  0  0  0
 32 33  2  0  0  0  0
M  END
>  <MODEL>
5

>  <REMARK>
 VINA RESULT:      -7.2      2.568      3.749
  Name = 
  10 active torsions:
  status: ('A' for Active; 'I' for Inactive)
    1  A    between atoms: C_3  and  C_23
    2  A    between atoms: C_5  and  C_23
    3  A    between atoms: O_6  and  C_12
    4  A    between atoms: O_6  and  C_30
    5  A    between atoms: C_10  and  C_22
    6  A    between atoms: C_13  and  C_29
    7  A    between atoms: N_14  and  C_20
    8  A    between atoms: CA_16  and  C_26
    9  A    between atoms: CA_16  and  N_27
   10  A    between atoms: C_20  and  C_22
                            x       y       z     vdW  Elec       q    Type
                         _______ _______ _______ _____ _____    ______ ____

>  <TORSDO>
F 10

$$$$
=
 OpenBabel11032420303D

 33 36  0  0  1  0  0  0  0  0999 V2000
  189.9540  177.6630  146.9090 C   0  0  0  0  0  0  0  0  0  0  0  0
  186.5270  178.2570  147.4250 C   0  0  0  0  0  3  0  0  0  0  0  0
  190.5250  178.0350  144.6010 N   0  0  0  0  0  0  0  0  0  0  0  0
  185.3320  178.6660  146.8280 C   0  0  0  0  0  3  0  0  0  0  0  0
  187.3510  177.4780  145.2700 C   0  0  0  0  0  0  0  0  0  0  0  0
  187.5530  177.6960  146.6560 C   0  0  0  0  0  0  0  0  0  0  0  0
  188.7700  177.3200  147.3170 N   0  0  0  0  0  0  0  0  0  0  0  0
  187.8150  175.9040  143.3550 C   0  0  0  0  0  1  0  0  0  0  0  0
  190.1130  178.5270  145.8220 O   0  0  0  0  0  0  0  0  0  0  0  0
  185.1500  178.5090  145.4530 C   0  0  0  0  0  0  0  0  0  0  0  0
  189.3310  177.8350  143.7870 C   0  0  0  0  0  2  0  0  0  0  0  0
  186.1510  177.9140  144.6790 C   0  0  0  0  0  3  0  0  0  0  0  0
  188.4070  176.8050  144.4250 C   0  0  1  0  0  3  0  0  0  0  0  0
  182.9380  179.2940  144.3450 N   0  0  0  0  0  0  0  0  0  0  0  0
  183.9250  178.9410  144.8390 C   0  0  0  0  0  0  0  0  0  0  0  0
  191.2750  179.1030  143.9620 C   0  0  0  0  0  2  0  0  0  0  0  0
  191.2750  178.9200  142.4570 C   0  0  0  0  0  2  0  0  0  0  0  0
  192.3170  177.5030  140.7150 C   0  0  0  0  0  2  0  0  0  0  0  0
  191.6980  177.5020  142.0950 C   0  0  2  0  0  3  0  0  0  0  0  0
  190.9360  176.9090  140.9060 C   0  0  1  0  0  3  0  0  0  0  0  0
  189.9550  177.8070  140.3950 O   0  0  0  0  0  0  0  0  0  0  0  0
  189.4230  176.4620  138.6180 O   0  0  0  0  0  0  0  0  0  0  0  0
  189.1200  177.4520  139.3340 C   0  0  0  0  0  0  0  0  0  0  0  0
  187.9270  178.2010  139.0650 N   0  0  0  0  0  2  0  0  0  0  0  0
  187.4640  178.6280  136.7110 C   0  0  0  0  0  1  0  0  0  0  0  0
  187.0220  177.8950  137.9680 C   0  0  2  0  0  3  0  0  0  0  0  0
  185.6470  179.0030  139.5720 O   0  0  0  0  0  1  0  0  0  0  0  0
  185.6200  178.3420  138.3430 C   0  0  0  0  0  2  0  0  0  0  0  0
  191.1520  177.1350  147.6160 C   0  0  0  0  0  2  0  0  0  0  0  0
  191.2880  175.6420  147.3980 C   0  0  2  0  0  3  0  0  0  0  0  0
  192.6130  175.2530  147.5980 N   0  0  0  0  0  2  0  0  0  0  0  0
  191.9810  175.4350  146.2160 C   0  0  0  0  0  0  0  0  0  0  0  0
  192.0560  175.4410  144.9280 N   0  0  0  0  0  2  0  0  0  0  0  0
  1  7  2  0  0  0  0
  1 29  1  0  0  0  0
  3  9  1  0  0  0  0
  4  2  1  0  0  0  0
  5  6  1  0  0  0  0
  6  7  1  0  0  0  0
  6  2  2  0  0  0  0
  9  1  1  0  0  0  0
 10  4  2  0  0  0  0
 11 13  1  0  0  0  0
 11  3  1  0  0  0  0
 12  5  2  0  0  0  0
 12 10  1  0  0  0  0
 13  8  1  6  0  0  0
 13  5  1  0  0  0  0
 14 15  3  0  0  0  0
 15 10  1  0  0  0  0
 16  3  1  0  0  0  0
 17 16  1  0  0  0  0
 18 20  1  0  0  0  0
 18 19  1  0  0  0  0
 19 17  1  6  0  0  0
 20 21  1  6  0  0  0
 20 19  1  0  0  0  0
 22 23  2  0  0  0  0
 23 21  1  0  0  0  0
 24 23  1  0  0  0  0
 26 25  1  6  0  0  0
 26 28  1  0  0  0  0
 26 24  1  0  0  0  0
 28 27  1  0  0  0  0
 30 31  1  0  0  0  0
 30 29  1  6  0  0  0
 32 30  1  0  0  0  0
 32 31  1  0  0  0  0
 33 32  2  0  0  0  0
M  END
>  <MODEL>
6

>  <REMARK>
 VINA RESULT:      -7.1      2.057      5.703
  Name = 
  10 active torsions:
  status: ('A' for Active; 'I' for Inactive)
    1  A    between atoms: C_3  and  C_23
    2  A    between atoms: C_5  and  C_23
    3  A    between atoms: O_6  and  C_12
    4  A    between atoms: O_6  and  C_30
    5  A    between atoms: C_10  and  C_22
    6  A    between atoms: C_13  and  C_29
    7  A    between atoms: N_14  and  C_20
    8  A    between atoms: CA_16  and  C_26
    9  A    between atoms: CA_16  and  N_27
   10  A    between atoms: C_20  and  C_22
                            x       y       z     vdW  Elec       q    Type
                         _______ _______ _______ _____ _____    ______ ____

>  <TORSDO>
F 10

$$$$
=
 OpenBabel11032420303D

 33 36  0  0  1  0  0  0  0  0999 V2000
  186.8520  178.5800  141.3230 C   0  0  0  0  0  0  0  0  0  0  0  0
  183.3660  179.0000  141.1570 C   0  0  0  0  0  3  0  0  0  0  0  0
  187.4580  177.4430  143.3550 N   0  0  0  0  0  0  0  0  0  0  0  0
  182.1480  178.7400  141.7920 C   0  0  0  0  0  3  0  0  0  0  0  0
  184.5150  178.9150  143.3020 C   0  0  0  0  0  0  0  0  0  0  0  0
  184.5550  179.0560  141.8930 C   0  0  0  0  0  0  0  0  0  0  0  0
  185.7800  179.3000  141.1860 N   0  0  0  0  0  0  0  0  0  0  0  0
  185.5170  179.7220  145.4720 C   0  0  0  0  0  1  0  0  0  0  0  0
  186.8460  177.4320  142.1200 O   0  0  0  0  0  0  0  0  0  0  0  0
  182.1100  178.5400  143.1720 C   0  0  0  0  0  0  0  0  0  0  0  0
  186.4210  177.6870  144.3520 C   0  0  0  0  0  2  0  0  0  0  0  0
  183.2850  178.6320  143.9240 C   0  0  0  0  0  3  0  0  0  0  0  0
  185.7690  179.0450  144.1350 C   0  0  1  0  0  3  0  0  0  0  0  0
  179.8490  178.0380  144.3430 N   0  0  0  0  0  0  0  0  0  0  0  0
  180.8590  178.2600  143.8210 C   0  0  0  0  0  0  0  0  0  0  0  0
  187.9340  176.0900  143.5880 C   0  0  0  0  0  2  0  0  0  0  0  0
  189.4250  176.0030  143.3290 C   0  0  0  0  0  2  0  0  0  0  0  0
  191.3930  177.2430  142.4810 C   0  0  0  0  0  2  0  0  0  0  0  0
  189.9960  177.3860  143.0440 C   0  0  2  0  0  3  0  0  0  0  0  0
  191.2140  177.7460  143.8990 C   0  0  1  0  0  3  0  0  0  0  0  0
  191.5500  176.7100  144.8190 O   0  0  0  0  0  0  0  0  0  0  0  0
  191.9820  176.5050  147.0590 O   0  0  0  0  0  0  0  0  0  0  0  0
  191.1450  176.7570  146.1540 C   0  0  0  0  0  0  0  0  0  0  0  0
  189.7930  177.0960  146.4930 N   0  0  0  0  0  2  0  0  0  0  0  0
  187.9030  176.5550  147.9320 C   0  0  0  0  0  1  0  0  0  0  0  0
  189.3010  177.1490  147.8610 C   0  0  2  0  0  3  0  0  0  0  0  0
  187.9300  178.9990  148.4800 O   0  0  0  0  0  1  0  0  0  0  0  0
  189.2560  178.5960  148.3160 C   0  0  0  0  0  2  0  0  0  0  0  0
  188.0970  178.9820  140.6140 C   0  0  0  0  0  2  0  0  0  0  0  0
  188.4700  177.9550  139.5630 C   0  0  2  0  0  3  0  0  0  0  0  0
  189.8580  177.8470  139.4780 N   0  0  0  0  0  2  0  0  0  0  0  0
  189.0030  178.6220  138.4720 C   0  0  0  0  0  0  0  0  0  0  0  0
  188.8810  179.3710  137.4290 N   0  0  0  0  0  2  0  0  0  0  0  0
  1  9  1  0  0  0  0
  2  4  2  0  0  0  0
  2  6  1  0  0  0  0
  3 16  1  0  0  0  0
  3 11  1  0  0  0  0
  4 10  1  0  0  0  0
  5 12  1  0  0  0  0
  5 13  1  0  0  0  0
  6  5  2  0  0  0  0
  7  1  2  0  0  0  0
  7  6  1  0  0  0  0
  9  3  1  0  0  0  0
 10 15  1  0  0  0  0
 10 12  2  0  0  0  0
 13 11  1  0  0  0  0
 13  8  1  1  0  0  0
 15 14  3  0  0  0  0
 17 16  1  0  0  0  0
 18 19  1  0  0  0  0
 18 20  1  0  0  0  0
 19 17  1  1  0  0  0
 19 20  1  0  0  0  0
 20 21  1  1  0  0  0
 21 23  1  0  0  0  0
 23 24  1  0  0  0  0
 23 22  2  0  0  0  0
 24 26  1  0  0  0  0
 26 25  1  6  0  0  0
 26 28  1  0  0  0  0
 28 27  1  0  0  0  0
 29  1  1  0  0  0  0
 30 29  1  1  0  0  0
 31 30  1  0  0  0  0
 32 31  1  0  0  0  0
 32 30  1  0  0  0  0
 33 32  2  0  0  0  0
M  END
>  <MODEL>
7

>  <REMARK>
 VINA RESULT:      -7.0      2.630      7.904
  Name = 
  10 active torsions:
  status: ('A' for Active; 'I' for Inactive)
    1  A    between atoms: C_3  and  C_23
    2  A    between atoms: C_5  and  C_23
    3  A    between atoms: O_6  and  C_12
    4  A    between atoms: O_6  and  C_30
    5  A    between atoms: C_10  and  C_22
    6  A    between atoms: C_13  and  C_29
    7  A    between atoms: N_14  and  C_20
    8  A    between atoms: CA_16  and  C_26
    9  A    between atoms: CA_16  and  N_27
   10  A    between atoms: C_20  and  C_22
                            x       y       z     vdW  Elec       q    Type
                         _______ _______ _______ _____ _____    ______ ____

>  <TORSDO>
F 10

$$$$
=
 OpenBabel11032420303D

 33 36  0  0  1  0  0  0  0  0999 V2000
  187.3270  177.4320  143.6200 C   0  0  0  0  0  0  0  0  0  0  0  0
  188.5480  176.7370  146.8430 C   0  0  0  0  0  3  0  0  0  0  0  0
  189.1200  177.3550  142.0170 N   0  0  0  0  0  0  0  0  0  0  0  0
  189.6760  176.3910  147.5920 C   0  0  0  0  0  3  0  0  0  0  0  0
  189.9680  177.7870  145.1680 C   0  0  0  0  0  0  0  0  0  0  0  0
  188.6810  177.4010  145.6190 C   0  0  0  0  0  0  0  0  0  0  0  0
  187.4910  177.7070  144.8790 N   0  0  0  0  0  0  0  0  0  0  0  0
  191.2650  179.5920  143.9750 C   0  0  0  0  0  1  0  0  0  0  0  0
  188.2950  176.7110  142.9140 O   0  0  0  0  0  0  0  0  0  0  0  0
  190.9490  176.7150  147.1240 C   0  0  0  0  0  0  0  0  0  0  0  0
  190.3740  177.6400  142.7060 C   0  0  0  0  0  2  0  0  0  0  0  0
  191.0950  177.4130  145.9210 C   0  0  0  0  0  3  0  0  0  0  0  0
  190.1420  178.5720  143.8880 C   0  0  1  0  0  3  0  0  0  0  0  0
  193.0450  176.0520  148.5040 N   0  0  0  0  0  0  0  0  0  0  0  0
  192.1090  176.3480  147.8900 C   0  0  0  0  0  0  0  0  0  0  0  0
  189.4380  176.3830  140.9840 C   0  0  0  0  0  2  0  0  0  0  0  0
  190.0230  177.0770  139.7690 C   0  0  0  0  0  2  0  0  0  0  0  0
  190.9210  176.7340  137.4880 C   0  0  0  0  0  2  0  0  0  0  0  0
  190.6030  176.0540  138.8010 C   0  0  2  0  0  3  0  0  0  0  0  0
  189.7320  175.7990  137.5680 C   0  0  1  0  0  3  0  0  0  0  0  0
  188.5270  176.5600  137.5940 O   0  0  0  0  0  0  0  0  0  0  0  0
  186.5720  176.8940  136.4490 O   0  0  0  0  0  0  0  0  0  0  0  0
  187.3480  176.0840  137.0190 C   0  0  0  0  0  0  0  0  0  0  0  0
  187.0260  174.6870  137.0710 N   0  0  0  0  0  2  0  0  0  0  0  0
  185.0080  173.4250  137.5920 C   0  0  0  0  0  1  0  0  0  0  0  0
  185.8080  174.1270  136.5060 C   0  0  2  0  0  3  0  0  0  0  0  0
  185.8800  171.8320  135.8600 O   0  0  0  0  0  1  0  0  0  0  0  0
  186.1770  173.1250  135.4270 C   0  0  0  0  0  2  0  0  0  0  0  0
  186.0900  177.8820  142.9280 C   0  0  0  0  0  2  0  0  0  0  0  0
  186.3190  179.2060  142.2270 C   0  0  2  0  0  3  0  0  0  0  0  0
  185.1160  179.6800  141.7040 N   0  0  0  0  0  2  0  0  0  0  0  0
  186.1990  179.0020  140.8620 C   0  0  0  0  0  0  0  0  0  0  0  0
  186.6400  178.5440  139.7390 N   0  0  0  0  0  2  0  0  0  0  0  0
  1  7  2  0  0  0  0
  2  4  1  0  0  0  0
  3 11  1  0  0  0  0
  3  9  1  0  0  0  0
  5  6  1  0  0  0  0
  5 12  2  0  0  0  0
  6  2  2  0  0  0  0
  7  6  1  0  0  0  0
  9  1  1  0  0  0  0
 10  4  2  0  0  0  0
 10 15  1  0  0  0  0
 11 13  1  0  0  0  0
 12 10  1  0  0  0  0
 13  8  1  1  0  0  0
 13  5  1  0  0  0  0
 15 14  3  0  0  0  0
 16  3  1  0  0  0  0
 17 16  1  0  0  0  0
 18 20  1  0  0  0  0
 18 19  1  0  0  0  0
 19 17  1  1  0  0  0
 20 21  1  1  0  0  0
 20 19  1  0  0  0  0
 22 23  2  0  0  0  0
 23 24  1  0  0  0  0
 23 21  1  0  0  0  0
 26 24  1  0  0  0  0
 26 25  1  1  0  0  0
 28 27  1  0  0  0  0
 28 26  1  0  0  0  0
 29  1  1  0  0  0  0
 30 29  1  1  0  0  0
 31 30  1  0  0  0  0
 32 31  1  0  0  0  0
 32 30  1  0  0  0  0
 33 32  2  0  0  0  0
M  END
>  <MODEL>
8

>  <REMARK>
 VINA RESULT:      -6.9      2.428      3.268
  Name = 
  10 active torsions:
  status: ('A' for Active; 'I' for Inactive)
    1  A    between atoms: C_3  and  C_23
    2  A    between atoms: C_5  and  C_23
    3  A    between atoms: O_6  and  C_12
    4  A    between atoms: O_6  and  C_30
    5  A    between atoms: C_10  and  C_22
    6  A    between atoms: C_13  and  C_29
    7  A    between atoms: N_14  and  C_20
    8  A    between atoms: CA_16  and  C_26
    9  A    between atoms: CA_16  and  N_27
   10  A    between atoms: C_20  and  C_22
                            x       y       z     vdW  Elec       q    Type
                         _______ _______ _______ _____ _____    ______ ____

>  <TORSDO>
F 10

$$$$
=
 OpenBabel11032420303D

 33 36  0  0  1  0  0  0  0  0999 V2000
  190.7140  177.5410  141.2810 C   0  0  0  0  0  0  0  0  0  0  0  0
  191.5070  175.5620  138.4860 C   0  0  0  0  0  3  0  0  0  0  0  0
  188.3950  178.1800  141.2170 N   0  0  0  0  0  0  0  0  0  0  0  0
  191.0040  174.9470  137.3360 C   0  0  0  0  0  3  0  0  0  0  0  0
  189.7520  177.2450  138.3680 C   0  0  0  0  0  0  0  0  0  0  0  0
  190.8740  176.6850  139.0290 C   0  0  0  0  0  0  0  0  0  0  0  0
  191.4180  177.2590  140.2270 N   0  0  0  0  0  0  0  0  0  0  0  0
  188.5960  179.4050  137.7680 C   0  0  0  0  0  1  0  0  0  0  0  0
  189.3590  177.2040  141.3480 O   0  0  0  0  0  0  0  0  0  0  0  0
  189.8640  175.4590  136.7150 C   0  0  0  0  0  0  0  0  0  0  0  0
  187.9450  178.1650  139.8300 C   0  0  0  0  0  2  0  0  0  0  0  0
  189.2440  176.6040  137.2240 C   0  0  0  0  0  3  0  0  0  0  0  0
  189.0910  178.5020  138.8850 C   0  0  1  0  0  3  0  0  0  0  0  0
  188.9160  174.3010  134.5940 N   0  0  0  0  0  0  0  0  0  0  0  0
  189.3410  174.8180  135.5390 C   0  0  0  0  0  0  0  0  0  0  0  0
  187.2610  177.7440  142.0150 C   0  0  0  0  0  2  0  0  0  0  0  0
  186.2220  178.8450  142.1010 C   0  0  0  0  0  2  0  0  0  0  0  0
  183.8900  179.3720  142.7430 C   0  0  0  0  0  2  0  0  0  0  0  0
  184.8460  178.2570  142.3830 C   0  0  2  0  0  3  0  0  0  0  0  0
  184.3760  178.4350  143.8290 C   0  0  1  0  0  3  0  0  0  0  0  0
  185.3480  179.0990  144.6320 O   0  0  0  0  0  0  0  0  0  0  0  0
  184.9860  178.5350  146.8230 O   0  0  0  0  0  0  0  0  0  0  0  0
  185.7810  178.5670  145.8480 C   0  0  0  0  0  0  0  0  0  0  0  0
  187.1130  178.0540  145.9850 N   0  0  0  0  0  2  0  0  0  0  0  0
  187.8650  178.6150  148.2340 C   0  0  0  0  0  1  0  0  0  0  0  0
  187.6330  177.5000  147.2260 C   0  0  2  0  0  3  0  0  0  0  0  0
  189.9680  177.3820  147.6950 O   0  0  0  0  0  1  0  0  0  0  0  0
  188.9490  176.7980  146.9420 C   0  0  0  0  0  2  0  0  0  0  0  0
  191.3640  178.2240  142.4320 C   0  0  0  0  0  2  0  0  0  0  0  0
  190.7770  177.7410  143.7430 C   0  0  2  0  0  3  0  0  0  0  0  0
  191.6980  177.9320  144.7730 N   0  0  0  0  0  2  0  0  0  0  0  0
  191.4340  176.5780  144.1110 C   0  0  0  0  0  0  0  0  0  0  0  0
  191.6770  175.3190  143.9700 N   0  0  0  0  0  2  0  0  0  0  0  0
  1  9  1  0  0  0  0
  1 29  1  0  0  0  0
  2  6  1  0  0  0  0
  3  9  1  0  0  0  0
  3 16  1  0  0  0  0
  4  2  2  0  0  0  0
  5 13  1  0  0  0  0
  5  6  2  0  0  0  0
  6  7  1  0  0  0  0
  7  1  2  0  0  0  0
 10 12  2  0  0  0  0
 10  4  1  0  0  0  0
 11  3  1  0  0  0  0
 12  5  1  0  0  0  0
 13  8  1  6  0  0  0
 13 11  1  0  0  0  0
 14 15  3  0  0  0  0
 15 10  1  0  0  0  0
 16 17  1  0  0  0  0
 18 20  1  0  0  0  0
 19 17  1  1  0  0  0
 19 18  1  0  0  0  0
 19 20  1  0  0  0  0
 20 21  1  1  0  0  0
 21 23  1  0  0  0  0
 23 24  1  0  0  0  0
 23 22  2  0  0  0  0
 24 26  1  0  0  0  0
 26 25  1  1  0  0  0
 28 26  1  0  0  0  0
 28 27  1  0  0  0  0
 30 29  1  6  0  0  0
 30 32  1  0  0  0  0
 30 31  1  0  0  0  0
 32 31  1  0  0  0  0
 33 32  2  0  0  0  0
M  END
>  <MODEL>
9

>  <REMARK>
 VINA RESULT:      -6.8      2.958      7.878
  Name = 
  10 active torsions:
  status: ('A' for Active; 'I' for Inactive)
    1  A    between atoms: C_3  and  C_23
    2  A    between atoms: C_5  and  C_23
    3  A    between atoms: O_6  and  C_12
    4  A    between atoms: O_6  and  C_30
    5  A    between atoms: C_10  and  C_22
    6  A    between atoms: C_13  and  C_29
    7  A    between atoms: N_14  and  C_20
    8  A    between atoms: CA_16  and  C_26
    9  A    between atoms: CA_16  and  N_27
   10  A    between atoms: C_20  and  C_22
                            x       y       z     vdW  Elec       q    Type
                         _______ _______ _______ _____ _____    ______ ____

>  <TORSDO>
F 10

$$$$
