=
 OpenBabel11042413133D

 56 60  0  0  1  0  0  0  0  0999 V2000
  182.0110  179.7840  139.1720 C   0  0  0  0  0  2  0  0  0  0  0  0
  181.5050  180.1400  137.7820 C   0  0  0  0  0  2  0  0  0  0  0  0
  183.2320  178.8520  139.1240 C   0  0  2  0  0  3  0  0  0  0  0  0
  180.5830  179.2000  135.6760 C   0  0  0  0  0  1  0  0  0  0  0  0
  182.1490  177.7990  137.0190 C   0  0  2  0  0  3  0  0  0  0  0  0
  183.4430  178.1350  137.7820 C   0  0  0  0  0  2  0  0  0  0  0  0
  181.0480  178.8680  137.0780 C   0  0  1  0  0  3  0  0  0  0  0  0
  180.6250  173.8900  137.9010 C   0  0  0  0  0  0  0  0  0  0  0  0
  181.8500  174.0070  137.2410 C   0  0  0  0  0  3  0  0  0  0  0  0
  182.3560  175.2750  136.9500 C   0  0  0  0  0  0  0  0  0  0  0  0
  180.1000  172.6020  138.2040 N   0  0  0  0  0  1  0  0  0  0  0  0
  179.9320  175.0060  138.2520 N   0  0  0  0  0  0  0  0  0  0  0  0
  181.6280  176.4200  137.3220 C   0  0  0  0  0  0  0  0  0  0  0  0
  180.4010  176.2530  137.9780 C   0  0  0  0  0  3  0  0  0  0  0  0
  184.6530  175.4530  135.6510 C   0  0  0  0  0  0  0  0  0  0  0  0
  183.6120  175.3840  136.2560 C   0  0  0  0  0  0  0  0  0  0  0  0
  185.9090  175.5080  134.8900 C   0  0  2  0  0  3  0  0  0  0  0  0
  186.6820  174.1830  134.9920 C   0  0  2  0  0  3  0  0  0  0  0  0
  187.5550  172.8950  136.9620 C   0  0  0  0  0  3  0  0  0  0  0  0
  185.7690  172.9780  134.7420 C   0  0  0  0  0  2  0  0  0  0  0  0
  187.4000  174.0660  136.3220 C   0  0  0  0  0  3  0  0  0  0  0  0
  186.9340  171.6140  136.4670 C   0  0  0  0  0  2  0  0  0  0  0  0
  185.7560  170.5940  134.6600 O   0  0  0  0  0  1  0  0  0  0  0  0
  186.5470  171.6930  134.9920 C   0  0  1  0  0  3  0  0  0  0  0  0
  188.5160  178.5910  136.6220 O   0  0  0  0  0  1  0  0  0  0  0  0
  186.1300  177.7460  135.6700 O   0  0  0  0  0  0  0  0  0  0  0  0
  190.3520  177.2790  136.2400 O   0  0  0  0  0  0  0  0  0  0  0  0
  188.1320  176.5280  135.5780 N   0  0  0  0  0  2  0  0  0  0  0  0
  188.9870  177.5170  136.1620 C   0  0  0  0  0  0  0  0  0  0  0  0
  186.7160  176.6660  135.3920 C   0  0  0  0  0  0  0  0  0  0  0  0
  183.1990  177.8500  140.2700 C   0  0  0  0  0  2  0  0  0  0  0  0
  182.9850  179.2420  143.7130 C   0  0  0  0  0  3  0  0  0  0  0  0
  184.2810  179.6890  143.9510 C   0  0  0  0  0  3  0  0  0  0  0  0
  182.6900  178.6550  142.5250 N   0  0  0  0  0  0  0  0  0  0  0  0
  183.6290  178.4840  141.5560 C   0  0  0  0  0  0  0  0  0  0  0  0
  185.2270  179.5270  142.9910 N   0  0  0  0  0  0  0  0  0  0  0  0
  184.9540  178.9340  141.7980 C   0  0  0  0  0  0  0  0  0  0  0  0
  187.2180  178.3820  141.1000 C   0  0  0  0  0  3  0  0  0  0  0  0
  186.0290  178.8240  140.8490 N   0  0  0  0  0  0  0  0  0  0  0  0
  188.2410  178.3060  140.0200 C   0  0  0  0  0  2  0  0  0  0  0  0
  189.6020  177.9270  140.5820 C   0  0  0  0  0  2  0  0  0  0  0  0
  190.9330  177.4260  143.7540 C   0  0  2  0  0  3  0  0  0  0  0  0
  189.8060  176.1700  142.1890 O   0  0  0  0  0  0  0  0  0  0  0  0
  190.4090  178.3110  142.8150 O   0  0  0  0  0  0  0  0  0  0  0  0
  189.5180  177.5360  142.0500 C   0  0  1  0  0  3  0  0  0  0  0  0
  190.3690  176.0710  143.4570 C   0  0  0  0  0  2  0  0  0  0  0  0
  190.7260  177.8900  145.2140 C   0  0  0  0  0  2  0  0  0  0  0  0
  190.4960  176.8430  146.2300 N   0  0  0  0  0  0  0  0  0  0  0  0
  189.8630  177.8240  148.2680 O   0  0  0  0  0  1  0  0  0  0  0  0
  189.3800  177.1730  147.1260 C   0  0  1  0  0  3  0  0  0  0  0  0
  188.3710  178.0860  146.4300 C   0  0  0  0  0  2  0  0  0  0  0  0
  185.8860  178.1860  146.5890 C   0  0  0  0  0  1  0  0  0  0  0  0
  186.9600  177.1000  144.6500 C   0  0  0  0  0  1  0  0  0  0  0  0
  187.0710  177.3520  146.1380 C   0  0  0  0  0  3  0  0  0  0  0  0
  191.7190  176.6000  146.9930 C   0  0  0  0  0  2  0  0  0  0  0  0
  192.0860  175.2580  146.8850 O   0  0  0  0  0  1  0  0  0  0  0  0
  2  1  1  0  0  0  0
  3  1  1  0  0  0  0
  3 31  1  1  0  0  0
  5  7  1  0  0  0  0
  5 13  1  1  0  0  0
  5  6  1  0  0  0  0
  6  3  1  0  0  0  0
  7  4  1  6  0  0  0
  7  2  1  0  0  0  0
  8 11  1  0  0  0  0
  8 12  1  0  0  0  0
  9  8  2  0  0  0  0
 10  9  1  0  0  0  0
 10 13  2  0  0  0  0
 13 14  1  0  0  0  0
 14 12  2  0  0  0  0
 15 16  3  0  0  0  0
 16 10  1  0  0  0  0
 17 30  1  0  0  0  0
 17 15  1  1  0  0  0
 18 17  1  1  0  0  0
 18 21  1  0  0  0  0
 20 18  1  0  0  0  0
 20 24  1  0  0  0  0
 21 19  2  0  0  0  0
 22 19  1  0  0  0  0
 24 23  1  1  0  0  0
 24 22  1  0  0  0  0
 28 29  1  0  0  0  0
 29 27  2  0  0  0  0
 29 25  1  0  0  0  0
 30 28  1  0  0  0  0
 30 26  2  0  0  0  0
 31 35  1  0  0  0  0
 32 33  2  0  0  0  0
 34 32  1  0  0  0  0
 35 37  1  0  0  0  0
 35 34  2  0  0  0  0
 36 33  1  0  0  0  0
 37 36  2  0  0  0  0
 39 38  2  0  0  0  0
 39 37  1  0  0  0  0
 40 41  1  0  0  0  0
 40 38  1  0  0  0  0
 42 47  1  1  0  0  0
 43 46  1  0  0  0  0
 44 42  1  0  0  0  0
 45 41  1  6  0  0  0
 45 43  1  0  0  0  0
 45 44  1  0  0  0  0
 46 42  1  0  0  0  0
 47 48  1  0  0  0  0
 48 55  1  0  0  0  0
 48 50  1  0  0  0  0
 50 49  1  1  0  0  0
 51 50  1  0  0  0  0
 53 54  1  0  0  0  0
 54 51  1  0  0  0  0
 54 52  1  0  0  0  0
 56 55  1  0  0  0  0
M  END
>  <MODEL>
1

>  <REMARK>
 VINA RESULT:      -7.6      0.000      0.000
  Name = 
  17 active torsions:
  status: ('A' for Active; 'I' for Inactive)
    1  A    between atoms: C_2  and  C_31
    2  A    between atoms: C_4  and  C_51
    3  A    between atoms: C_12  and  C_22
    4  A    between atoms: C_12  and  C_43
    5  A    between atoms: C_13  and  C_41
    6  A    between atoms: C_21  and  C_23
    7  A    between atoms: C_21  and  C_45
    8  A    between atoms: C_26  and  C_31
    9  A    between atoms: C_31  and  C_49
   10  A    between atoms: C_32  and  C_33
   11  A    between atoms: C_32  and  C_52
   12  A    between atoms: C_33  and  N_55
   13  A    between atoms: C_35  and  N_55
   14  A    between atoms: C_38  and  C_39
   15  A    between atoms: C_45  and  C_48
   16  A    between atoms: C_47  and  N_54
   17  A    between atoms: C_51  and  N_55
                            x       y       z     vdW  Elec       q    Type
                         _______ _______ _______ _____ _____    ______ ____

>  <TORSDO>
F 17

$$$$
=
 OpenBabel11042413133D

 56 60  0  0  1  0  0  0  0  0999 V2000
  186.7190  176.2750  135.6300 C   0  0  0  0  0  2  0  0  0  0  0  0
  186.7340  177.7690  135.9190 C   0  0  0  0  0  2  0  0  0  0  0  0
  186.8970  175.4340  136.9040 C   0  0  2  0  0  3  0  0  0  0  0  0
  188.1060  179.6250  136.8340 C   0  0  0  0  0  1  0  0  0  0  0  0
  188.4480  177.3310  137.7480 C   0  0  2  0  0  3  0  0  0  0  0  0
  187.4640  176.2030  138.1080 C   0  0  0  0  0  2  0  0  0  0  0  0
  188.0910  178.1490  136.4990 C   0  0  1  0  0  3  0  0  0  0  0  0
  192.5370  176.0450  137.7050 C   0  0  0  0  0  0  0  0  0  0  0  0
  191.9670  176.4480  138.9140 C   0  0  0  0  0  3  0  0  0  0  0  0
  190.6350  176.8670  138.9400 C   0  0  0  0  0  0  0  0  0  0  0  0
  193.8940  175.6140  137.6690 N   0  0  0  0  0  1  0  0  0  0  0  0
  191.8000  176.0670  136.5640 N   0  0  0  0  0  0  0  0  0  0  0  0
  189.8840  176.8820  137.7500 C   0  0  0  0  0  0  0  0  0  0  0  0
  190.5020  176.4730  136.5610 C   0  0  0  0  0  3  0  0  0  0  0  0
  189.5570  177.6260  141.2330 C   0  0  0  0  0  0  0  0  0  0  0  0
  190.0600  177.2950  140.1880 C   0  0  0  0  0  0  0  0  0  0  0  0
  188.9170  178.0020  142.5010 C   0  0  2  0  0  3  0  0  0  0  0  0
  189.3900  177.1010  143.6540 C   0  0  2  0  0  3  0  0  0  0  0  0
  191.6570  176.2290  144.2830 C   0  0  0  0  0  3  0  0  0  0  0  0
  189.4290  177.8630  144.9840 C   0  0  0  0  0  2  0  0  0  0  0  0
  190.7290  176.4660  143.3420 C   0  0  0  0  0  3  0  0  0  0  0  0
  191.4920  176.6780  145.7130 C   0  0  0  0  0  2  0  0  0  0  0  0
  189.9710  177.6180  147.2930 O   0  0  0  0  0  1  0  0  0  0  0  0
  190.0340  176.9720  146.0600 C   0  0  1  0  0  3  0  0  0  0  0  0
  184.5730  178.2940  141.9150 O   0  0  0  0  0  1  0  0  0  0  0  0
  186.7560  177.1640  143.0430 O   0  0  0  0  0  0  0  0  0  0  0  0
  184.8880  179.7150  140.1490 O   0  0  0  0  0  0  0  0  0  0  0  0
  186.7930  178.7810  141.3460 N   0  0  0  0  0  2  0  0  0  0  0  0
  185.3790  178.9010  141.1610 C   0  0  0  0  0  0  0  0  0  0  0  0
  187.4320  177.9410  142.3180 C   0  0  0  0  0  0  0  0  0  0  0  0
  187.7230  174.1860  136.6240 C   0  0  0  0  0  2  0  0  0  0  0  0
  186.6310  171.0670  134.9180 C   0  0  0  0  0  3  0  0  0  0  0  0
  185.3240  170.9060  135.3660 C   0  0  0  0  0  3  0  0  0  0  0  0
  187.3600  172.1260  135.3530 N   0  0  0  0  0  0  0  0  0  0  0  0
  186.8500  173.0390  136.2240 C   0  0  0  0  0  0  0  0  0  0  0  0
  184.8020  171.8110  136.2320 N   0  0  0  0  0  0  0  0  0  0  0  0
  185.5180  172.8750  136.6880 C   0  0  0  0  0  0  0  0  0  0  0  0
  183.7830  174.4460  137.3490 C   0  0  0  0  0  3  0  0  0  0  0  0
  184.8620  173.7770  137.5950 N   0  0  0  0  0  0  0  0  0  0  0  0
  183.1950  175.3400  138.3850 C   0  0  0  0  0  2  0  0  0  0  0  0
  181.6780  175.2260  138.4080 C   0  0  0  0  0  2  0  0  0  0  0  0
  180.9250  178.0080  140.3500 C   0  0  2  0  0  3  0  0  0  0  0  0
  179.7520  176.3710  139.2390 O   0  0  0  0  0  0  0  0  0  0  0  0
  181.8210  177.3620  139.5030 O   0  0  0  0  0  0  0  0  0  0  0  0
  181.0150  176.5710  138.6640 C   0  0  1  0  0  3  0  0  0  0  0  0
  179.5540  177.5000  140.0250 C   0  0  0  0  0  2  0  0  0  0  0  0
  181.0520  179.5480  140.3170 C   0  0  0  0  0  2  0  0  0  0  0  0
  180.2220  180.2740  139.3330 N   0  0  0  0  0  0  0  0  0  0  0  0
  182.3890  180.8840  138.6640 O   0  0  0  0  0  1  0  0  0  0  0  0
  181.0330  180.9650  138.3220 C   0  0  1  0  0  3  0  0  0  0  0  0
  180.8370  180.3370  136.9420 C   0  0  0  0  0  2  0  0  0  0  0  0
  180.4320  182.7420  136.4280 C   0  0  0  0  0  1  0  0  0  0  0  0
  180.7540  181.1200  134.5940 C   0  0  0  0  0  1  0  0  0  0  0  0
  180.1770  181.3150  135.9800 C   0  0  0  0  0  3  0  0  0  0  0  0
  179.3340  181.2140  140.0150 C   0  0  0  0  0  2  0  0  0  0  0  0
  179.6090  181.2190  141.3830 O   0  0  0  0  0  1  0  0  0  0  0  0
  1  2  1  0  0  0  0
  1  3  1  0  0  0  0
  2  7  1  0  0  0  0
  3 31  1  6  0  0  0
  3  6  1  0  0  0  0
  5 13  1  6  0  0  0
  5  6  1  0  0  0  0
  7  4  1  1  0  0  0
  7  5  1  0  0  0  0
  8  9  1  0  0  0  0
  9 10  2  0  0  0  0
 10 16  1  0  0  0  0
 11  8  1  0  0  0  0
 12  8  2  0  0  0  0
 13 10  1  0  0  0  0
 14 12  1  0  0  0  0
 14 13  2  0  0  0  0
 16 15  3  0  0  0  0
 17 15  1  6  0  0  0
 18 17  1  6  0  0  0
 18 20  1  0  0  0  0
 19 22  1  0  0  0  0
 20 24  1  0  0  0  0
 21 18  1  0  0  0  0
 21 19  2  0  0  0  0
 22 24  1  0  0  0  0
 24 23  1  1  0  0  0
 27 29  2  0  0  0  0
 28 30  1  0  0  0  0
 29 28  1  0  0  0  0
 29 25  1  0  0  0  0
 30 17  1  0  0  0  0
 30 26  2  0  0  0  0
 32 34  1  0  0  0  0
 32 33  2  0  0  0  0
 33 36  1  0  0  0  0
 34 35  2  0  0  0  0
 35 31  1  0  0  0  0
 35 37  1  0  0  0  0
 36 37  2  0  0  0  0
 37 39  1  0  0  0  0
 38 39  2  0  0  0  0
 38 40  1  0  0  0  0
 40 41  1  0  0  0  0
 42 47  1  6  0  0  0
 43 46  1  0  0  0  0
 44 42  1  0  0  0  0
 45 41  1  1  0  0  0
 45 43  1  0  0  0  0
 45 44  1  0  0  0  0
 46 42  1  0  0  0  0
 48 55  1  0  0  0  0
 48 47  1  0  0  0  0
 50 49  1  1  0  0  0
 50 48  1  0  0  0  0
 51 50  1  0  0  0  0
 53 54  1  0  0  0  0
 54 52  1  0  0  0  0
 54 51  1  0  0  0  0
 55 56  1  0  0  0  0
M  END
>  <MODEL>
2

>  <REMARK>
 VINA RESULT:      -7.6      3.155     10.007
  Name = 
  17 active torsions:
  status: ('A' for Active; 'I' for Inactive)
    1  A    between atoms: C_2  and  C_31
    2  A    between atoms: C_4  and  C_51
    3  A    between atoms: C_12  and  C_22
    4  A    between atoms: C_12  and  C_43
    5  A    between atoms: C_13  and  C_41
    6  A    between atoms: C_21  and  C_23
    7  A    between atoms: C_21  and  C_45
    8  A    between atoms: C_26  and  C_31
    9  A    between atoms: C_31  and  C_49
   10  A    between atoms: C_32  and  C_33
   11  A    between atoms: C_32  and  C_52
   12  A    between atoms: C_33  and  N_55
   13  A    between atoms: C_35  and  N_55
   14  A    between atoms: C_38  and  C_39
   15  A    between atoms: C_45  and  C_48
   16  A    between atoms: C_47  and  N_54
   17  A    between atoms: C_51  and  N_55
                            x       y       z     vdW  Elec       q    Type
                         _______ _______ _______ _____ _____    ______ ____

>  <TORSDO>
F 17

$$$$
=
 OpenBabel11042413133D

 56 60  0  0  1  0  0  0  0  0999 V2000
  190.8780  177.9400  143.8340 C   0  0  0  0  0  2  0  0  0  0  0  0
  191.9600  177.7660  142.7790 C   0  0  0  0  0  2  0  0  0  0  0  0
  189.8320  176.8160  143.7850 C   0  0  2  0  0  3  0  0  0  0  0  0
  192.3800  177.6160  140.3360 C   0  0  0  0  0  1  0  0  0  0  0  0
  190.1920  176.8080  141.2190 C   0  0  2  0  0  3  0  0  0  0  0  0
  189.8170  176.0060  142.4790 C   0  0  0  0  0  2  0  0  0  0  0  0
  191.3220  177.8320  141.3970 C   0  0  1  0  0  3  0  0  0  0  0  0
  186.7670  178.4680  139.2480 C   0  0  0  0  0  0  0  0  0  0  0  0
  187.8020  177.9360  138.4750 C   0  0  0  0  0  3  0  0  0  0  0  0
  188.9220  177.3920  139.1070 C   0  0  0  0  0  0  0  0  0  0  0  0
  185.6210  179.0240  138.6140 N   0  0  0  0  0  1  0  0  0  0  0  0
  186.8550  178.4570  140.6040 N   0  0  0  0  0  0  0  0  0  0  0  0
  188.9970  177.3860  140.5120 C   0  0  0  0  0  0  0  0  0  0  0  0
  187.9360  177.9350  141.2440 C   0  0  0  0  0  3  0  0  0  0  0  0
  190.8730  176.4340  137.6010 C   0  0  0  0  0  0  0  0  0  0  0  0
  189.9890  176.8600  138.3020 C   0  0  0  0  0  0  0  0  0  0  0  0
  191.9340  175.9330  136.7150 C   0  0  2  0  0  3  0  0  0  0  0  0
  191.3510  175.1220  135.5480 C   0  0  2  0  0  3  0  0  0  0  0  0
  191.9430  172.8740  134.6020 C   0  0  0  0  0  3  0  0  0  0  0  0
  190.0020  174.4940  135.9170 C   0  0  0  0  0  2  0  0  0  0  0  0
  192.3320  174.0750  135.0600 C   0  0  0  0  0  3  0  0  0  0  0  0
  190.5050  172.4210  134.6370 C   0  0  0  0  0  2  0  0  0  0  0  0
  188.2600  173.1060  135.0640 O   0  0  0  0  0  1  0  0  0  0  0  0
  189.5360  173.5920  134.7830 C   0  0  1  0  0  3  0  0  0  0  0  0
  195.0260  173.5620  138.7450 O   0  0  0  0  0  1  0  0  0  0  0  0
  192.4410  174.2020  138.2680 O   0  0  0  0  0  0  0  0  0  0  0  0
  196.6450  174.9910  137.9870 O   0  0  0  0  0  0  0  0  0  0  0  0
  194.3000  175.3820  137.4610 N   0  0  0  0  0  2  0  0  0  0  0  0
  195.3170  174.6040  138.0990 C   0  0  0  0  0  0  0  0  0  0  0  0
  192.8910  175.1230  137.5360 C   0  0  0  0  0  0  0  0  0  0  0  0
  188.4410  177.3500  144.1030 C   0  0  0  0  0  2  0  0  0  0  0  0
  189.0590  177.0000  147.7540 C   0  0  0  0  0  3  0  0  0  0  0  0
  187.9620  177.6400  148.3200 C   0  0  0  0  0  2  0  0  0  0  0  0
  189.1720  176.9390  146.4030 N   0  0  0  0  0  0  0  0  0  0  0  0
  188.2410  177.4930  145.5790 C   0  0  2  0  0  3  0  0  0  0  0  0
  187.0250  178.1950  147.5100 N   0  0  0  0  0  0  0  0  0  0  0  0
  187.1220  178.1520  146.1540 C   0  0  0  0  0  0  0  0  0  0  0  0
  184.8080  178.7350  145.6860 C   0  0  0  0  0  3  0  0  0  0  0  0
  186.0660  178.7630  145.3920 N   0  0  0  0  0  0  0  0  0  0  0  0
  183.8120  179.4220  144.8180 C   0  0  0  0  0  2  0  0  0  0  0  0
  182.9620  178.4160  144.0580 C   0  0  0  0  0  2  0  0  0  0  0  0
  180.9870  178.3330  141.1990 C   0  0  2  0  0  3  0  0  0  0  0  0
  183.1800  178.8070  141.7110 O   0  0  0  0  0  0  0  0  0  0  0  0
  181.0650  178.4810  142.5810 O   0  0  0  0  0  0  0  0  0  0  0  0
  182.3400  179.0290  142.8120 C   0  0  1  0  0  3  0  0  0  0  0  0
  182.3090  178.7440  140.6280 C   0  0  0  0  0  2  0  0  0  0  0  0
  179.7750  179.0590  140.5730 C   0  0  0  0  0  2  0  0  0  0  0  0
  179.9750  179.6940  139.2540 N   0  0  0  0  0  0  0  0  0  0  0  0
  179.8270  181.5850  140.6390 O   0  0  0  0  0  1  0  0  0  0  0  0
  179.8080  181.1520  139.3070 C   0  0  1  0  0  3  0  0  0  0  0  0
  180.9280  181.8590  138.5440 C   0  0  0  0  0  2  0  0  0  0  0  0
  181.1360  183.8990  137.1270 C   0  0  0  0  0  1  0  0  0  0  0  0
  180.5700  181.7270  136.0970 C   0  0  0  0  0  1  0  0  0  0  0  0
  180.3880  182.5930  137.3260 C   0  0  0  0  0  3  0  0  0  0  0  0
  179.0720  179.1040  138.2660 C   0  0  0  0  0  2  0  0  0  0  0  0
  179.6160  177.9160  137.7770 O   0  0  0  0  0  1  0  0  0  0  0  0
  2  1  1  0  0  0  0
  3  1  1  0  0  0  0
  3 31  1  6  0  0  0
  5 13  1  1  0  0  0
  5  7  1  0  0  0  0
  5  6  1  0  0  0  0
  6  3  1  0  0  0  0
  7  4  1  6  0  0  0
  7  2  1  0  0  0  0
  8 12  1  0  0  0  0
  9 10  1  0  0  0  0
  9  8  2  0  0  0  0
 10 13  2  0  0  0  0
 11  8  1  0  0  0  0
 12 14  2  0  0  0  0
 13 14  1  0  0  0  0
 15 16  3  0  0  0  0
 16 10  1  0  0  0  0
 17 30  1  0  0  0  0
 17 15  1  1  0  0  0
 18 20  1  0  0  0  0
 18 17  1  1  0  0  0
 19 22  1  0  0  0  0
 19 21  2  0  0  0  0
 21 18  1  0  0  0  0
 22 24  1  0  0  0  0
 24 23  1  1  0  0  0
 24 20  1  0  0  0  0
 27 29  2  0  0  0  0
 28 30  1  0  0  0  0
 28 29  1  0  0  0  0
 29 25  1  0  0  0  0
 30 26  2  0  0  0  0
 32 33  1  0  0  0  0
 34 32  2  0  0  0  0
 35 31  1  6  0  0  0
 35 37  1  0  0  0  0
 35 34  1  0  0  0  0
 36 33  1  0  0  0  0
 37 36  2  0  0  0  0
 39 38  2  0  0  0  0
 39 37  1  0  0  0  0
 40 38  1  0  0  0  0
 41 40  1  0  0  0  0
 42 47  1  6  0  0  0
 42 44  1  0  0  0  0
 43 45  1  0  0  0  0
 44 45  1  0  0  0  0
 45 41  1  1  0  0  0
 46 42  1  0  0  0  0
 46 43  1  0  0  0  0
 48 50  1  0  0  0  0
 48 47  1  0  0  0  0
 50 49  1  1  0  0  0
 51 50  1  0  0  0  0
 52 54  1  0  0  0  0
 53 54  1  0  0  0  0
 54 51  1  0  0  0  0
 55 48  1  0  0  0  0
 56 55  1  0  0  0  0
M  END
>  <MODEL>
3

>  <REMARK>
 VINA RESULT:      -7.5      3.768      8.755
  Name = 
  17 active torsions:
  status: ('A' for Active; 'I' for Inactive)
    1  A    between atoms: C_2  and  C_31
    2  A    between atoms: C_4  and  C_51
    3  A    between atoms: C_12  and  C_22
    4  A    between atoms: C_12  and  C_43
    5  A    between atoms: C_13  and  C_41
    6  A    between atoms: C_21  and  C_23
    7  A    between atoms: C_21  and  C_45
    8  A    between atoms: C_26  and  C_31
    9  A    between atoms: C_31  and  C_49
   10  A    between atoms: C_32  and  C_33
   11  A    between atoms: C_32  and  C_52
   12  A    between atoms: C_33  and  N_55
   13  A    between atoms: C_35  and  N_55
   14  A    between atoms: C_38  and  C_39
   15  A    between atoms: C_45  and  C_48
   16  A    between atoms: C_47  and  N_54
   17  A    between atoms: C_51  and  N_55
                            x       y       z     vdW  Elec       q    Type
                         _______ _______ _______ _____ _____    ______ ____

>  <TORSDO>
F 17

$$$$
=
 OpenBabel11042413133D

 56 60  0  0  1  0  0  0  0  0999 V2000
  190.8900  177.9140  143.4170 C   0  0  0  0  0  2  0  0  0  0  0  0
  192.0670  177.7170  142.4730 C   0  0  0  0  0  2  0  0  0  0  0  0
  189.8520  176.7870  143.2940 C   0  0  2  0  0  3  0  0  0  0  0  0
  192.7160  177.5130  140.0840 C   0  0  0  0  0  1  0  0  0  0  0  0
  190.4540  176.7220  140.7740 C   0  0  2  0  0  3  0  0  0  0  0  0
  189.9610  175.9480  142.0110 C   0  0  0  0  0  2  0  0  0  0  0  0
  191.5620  177.7520  141.0350 C   0  0  1  0  0  3  0  0  0  0  0  0
  187.2330  178.3360  138.4510 C   0  0  0  0  0  0  0  0  0  0  0  0
  188.2950  177.7110  137.7940 C   0  0  0  0  0  3  0  0  0  0  0  0
  189.3500  177.1810  138.5420 C   0  0  0  0  0  0  0  0  0  0  0  0
  186.1540  178.8790  137.6990 N   0  0  0  0  0  1  0  0  0  0  0  0
  187.2310  178.4280  139.8070 N   0  0  0  0  0  0  0  0  0  0  0  0
  189.3310  177.2820  139.9450 C   0  0  0  0  0  0  0  0  0  0  0  0
  188.2460  177.9230  140.5580 C   0  0  0  0  0  3  0  0  0  0  0  0
  191.3830  176.0560  137.2790 C   0  0  0  0  0  0  0  0  0  0  0  0
  190.4470  176.5520  137.8550 C   0  0  0  0  0  0  0  0  0  0  0  0
  192.5400  175.4860  136.5740 C   0  0  2  0  0  3  0  0  0  0  0  0
  192.0960  174.5550  135.4350 C   0  0  2  0  0  3  0  0  0  0  0  0
  192.9610  172.3340  134.6470 C   0  0  0  0  0  3  0  0  0  0  0  0
  190.8050  173.8080  135.7880 C   0  0  0  0  0  2  0  0  0  0  0  0
  193.2020  173.5930  135.0480 C   0  0  0  0  0  3  0  0  0  0  0  0
  191.5780  171.7330  134.6530 C   0  0  0  0  0  2  0  0  0  0  0  0
  189.2570  172.1980  134.9530 O   0  0  0  0  0  1  0  0  0  0  0  0
  190.4870  172.8010  134.6920 C   0  0  1  0  0  3  0  0  0  0  0  0
  195.4140  173.4420  139.1940 O   0  0  0  0  0  1  0  0  0  0  0  0
  192.9190  173.8030  138.2130 O   0  0  0  0  0  0  0  0  0  0  0  0
  196.9850  175.0470  138.7530 O   0  0  0  0  0  0  0  0  0  0  0  0
  194.7590  175.1880  137.7740 N   0  0  0  0  0  2  0  0  0  0  0  0
  195.7100  174.5170  138.6070 C   0  0  0  0  0  0  0  0  0  0  0  0
  193.4000  174.7760  137.5740 C   0  0  0  0  0  0  0  0  0  0  0  0
  188.4380  177.3250  143.4670 C   0  0  0  0  0  2  0  0  0  0  0  0
  188.7400  177.1040  147.1670 C   0  0  0  0  0  3  0  0  0  0  0  0
  187.5590  177.6890  147.6140 C   0  0  0  0  0  2  0  0  0  0  0  0
  188.9790  177.0160  145.8340 N   0  0  0  0  0  0  0  0  0  0  0  0
  188.0960  177.4920  144.9140 C   0  0  2  0  0  3  0  0  0  0  0  0
  186.6690  178.1640  146.7060 N   0  0  0  0  0  0  0  0  0  0  0  0
  186.8930  178.0950  145.3660 C   0  0  0  0  0  0  0  0  0  0  0  0
  184.7300  178.0720  144.2530 C   0  0  0  0  0  3  0  0  0  0  0  0
  185.8760  178.6200  144.4950 N   0  0  0  0  0  0  0  0  0  0  0  0
  183.7560  178.7290  143.3370 C   0  0  0  0  0  2  0  0  0  0  0  0
  184.2210  178.6430  141.8910 C   0  0  0  0  0  2  0  0  0  0  0  0
  182.7370  178.2750  138.7700 C   0  0  2  0  0  3  0  0  0  0  0  0
  182.2350  179.3300  140.7530 O   0  0  0  0  0  0  0  0  0  0  0  0
  183.6070  177.7740  139.7350 O   0  0  0  0  0  0  0  0  0  0  0  0
  183.0890  178.2360  140.9590 C   0  0  1  0  0  3  0  0  0  0  0  0
  181.7250  179.1240  139.4750 C   0  0  0  0  0  2  0  0  0  0  0  0
  182.1240  177.1790  137.8690 C   0  0  0  0  0  2  0  0  0  0  0  0
  182.5540  175.7860  138.1130 N   0  0  0  0  0  0  0  0  0  0  0  0
  182.8630  175.8220  135.7850 O   0  0  0  0  0  1  0  0  0  0  0  0
  183.2970  175.2270  136.9760 C   0  0  1  0  0  3  0  0  0  0  0  0
  184.7980  175.4730  137.1300 C   0  0  0  0  0  2  0  0  0  0  0  0
  185.0180  173.1240  136.3250 C   0  0  0  0  0  1  0  0  0  0  0  0
  187.0240  174.3970  136.9950 C   0  0  0  0  0  1  0  0  0  0  0  0
  185.5580  174.1640  137.2890 C   0  0  0  0  0  3  0  0  0  0  0  0
  181.4000  174.9500  138.4400 C   0  0  0  0  0  2  0  0  0  0  0  0
  180.2270  175.5720  138.0130 O   0  0  0  0  0  1  0  0  0  0  0  0
  2  1  1  0  0  0  0
  3  1  1  0  0  0  0
  3 31  1  6  0  0  0
  5 13  1  1  0  0  0
  5  7  1  0  0  0  0
  5  6  1  0  0  0  0
  6  3  1  0  0  0  0
  7  4  1  6  0  0  0
  7  2  1  0  0  0  0
  8 12  1  0  0  0  0
  9  8  2  0  0  0  0
  9 10  1  0  0  0  0
 10 13  2  0  0  0  0
 11  8  1  0  0  0  0
 12 14  2  0  0  0  0
 13 14  1  0  0  0  0
 15 16  3  0  0  0  0
 16 10  1  0  0  0  0
 17 15  1  1  0  0  0
 17 30  1  0  0  0  0
 18 20  1  0  0  0  0
 18 17  1  1  0  0  0
 19 22  1  0  0  0  0
 19 21  2  0  0  0  0
 21 18  1  0  0  0  0
 22 24  1  0  0  0  0
 24 23  1  1  0  0  0
 24 20  1  0  0  0  0
 28 29  1  0  0  0  0
 29 27  2  0  0  0  0
 29 25  1  0  0  0  0
 30 28  1  0  0  0  0
 30 26  2  0  0  0  0
 32 33  1  0  0  0  0
 34 32  2  0  0  0  0
 35 31  1  6  0  0  0
 35 37  1  0  0  0  0
 35 34  1  0  0  0  0
 36 33  1  0  0  0  0
 37 36  2  0  0  0  0
 38 39  2  0  0  0  0
 39 37  1  0  0  0  0
 40 38  1  0  0  0  0
 41 40  1  0  0  0  0
 42 47  1  1  0  0  0
 42 46  1  0  0  0  0
 42 44  1  0  0  0  0
 43 45  1  0  0  0  0
 44 45  1  0  0  0  0
 45 41  1  1  0  0  0
 46 43  1  0  0  0  0
 47 48  1  0  0  0  0
 48 55  1  0  0  0  0
 50 49  1  6  0  0  0
 50 51  1  0  0  0  0
 50 48  1  0  0  0  0
 51 54  1  0  0  0  0
 52 54  1  0  0  0  0
 53 54  1  0  0  0  0
 56 55  1  0  0  0  0
M  END
>  <MODEL>
4

>  <REMARK>
 VINA RESULT:      -7.2      3.471      8.453
  Name = 
  17 active torsions:
  status: ('A' for Active; 'I' for Inactive)
    1  A    between atoms: C_2  and  C_31
    2  A    between atoms: C_4  and  C_51
    3  A    between atoms: C_12  and  C_22
    4  A    between atoms: C_12  and  C_43
    5  A    between atoms: C_13  and  C_41
    6  A    between atoms: C_21  and  C_23
    7  A    between atoms: C_21  and  C_45
    8  A    between atoms: C_26  and  C_31
    9  A    between atoms: C_31  and  C_49
   10  A    between atoms: C_32  and  C_33
   11  A    between atoms: C_32  and  C_52
   12  A    between atoms: C_33  and  N_55
   13  A    between atoms: C_35  and  N_55
   14  A    between atoms: C_38  and  C_39
   15  A    between atoms: C_45  and  C_48
   16  A    between atoms: C_47  and  N_54
   17  A    between atoms: C_51  and  N_55
                            x       y       z     vdW  Elec       q    Type
                         _______ _______ _______ _____ _____    ______ ____

>  <TORSDO>
F 17

$$$$
=
 OpenBabel11042413133D

 56 60  0  0  1  0  0  0  0  0999 V2000
  189.7120  176.5980  135.6500 C   0  0  0  0  0  2  0  0  0  0  0  0
  188.6570  177.1520  134.7030 C   0  0  0  0  0  2  0  0  0  0  0  0
  189.1390  175.5360  136.6000 C   0  0  2  0  0  3  0  0  0  0  0  0
  186.4920  178.3640  134.5940 C   0  0  0  0  0  1  0  0  0  0  0  0
  186.9500  176.9230  136.5770 C   0  0  2  0  0  3  0  0  0  0  0  0
  187.6070  175.5370  136.7200 C   0  0  0  0  0  2  0  0  0  0  0  0
  187.5730  177.8450  135.5190 C   0  0  1  0  0  3  0  0  0  0  0  0
  186.4170  178.9020  140.3420 C   0  0  0  0  0  0  0  0  0  0  0  0
  185.2910  178.5720  139.5850 C   0  0  0  0  0  3  0  0  0  0  0  0
  185.4530  177.9260  138.3570 C   0  0  0  0  0  0  0  0  0  0  0  0
  186.2620  179.5590  141.5950 N   0  0  0  0  0  1  0  0  0  0  0  0
  187.6590  178.5970  139.8830 N   0  0  0  0  0  0  0  0  0  0  0  0
  186.7460  177.6160  137.8960 C   0  0  0  0  0  0  0  0  0  0  0  0
  187.8450  177.9710  138.6900 C   0  0  0  0  0  3  0  0  0  0  0  0
  183.2910  177.3500  136.9470 C   0  0  0  0  0  0  0  0  0  0  0  0
  184.2880  177.6050  137.5760 C   0  0  0  0  0  0  0  0  0  0  0  0
  182.0550  177.0530  136.2090 C   0  0  2  0  0  3  0  0  0  0  0  0
  181.0070  178.1600  136.4060 C   0  0  2  0  0  3  0  0  0  0  0  0
  180.7550  179.9430  138.1540 C   0  0  0  0  0  3  0  0  0  0  0  0
  181.2100  179.3100  135.4130 C   0  0  0  0  0  2  0  0  0  0  0  0
  180.9980  178.6620  137.8360 C   0  0  0  0  0  3  0  0  0  0  0  0
  180.5810  181.0170  137.1100 C   0  0  0  0  0  2  0  0  0  0  0  0
  180.3430  181.4380  134.7730 O   0  0  0  0  0  1  0  0  0  0  0  0
  180.2400  180.4370  135.7390 C   0  0  1  0  0  3  0  0  0  0  0  0
  180.7680  172.9560  137.1350 O   0  0  0  0  0  1  0  0  0  0  0  0
  180.3880  175.6340  137.1430 O   0  0  0  0  0  0  0  0  0  0  0  0
  182.8590  172.1680  136.6420 O   0  0  0  0  0  0  0  0  0  0  0  0
  182.3670  174.5490  136.5060 N   0  0  0  0  0  2  0  0  0  0  0  0
  181.9510  173.2080  136.7830 C   0  0  0  0  0  0  0  0  0  0  0  0
  181.5470  175.7170  136.6570 C   0  0  0  0  0  0  0  0  0  0  0  0
  189.7870  175.6280  137.9760 C   0  0  0  0  0  2  0  0  0  0  0  0
  193.2040  174.7600  136.7920 C   0  0  0  0  0  3  0  0  0  0  0  0
  194.0240  175.5280  137.6120 C   0  0  0  0  0  2  0  0  0  0  0  0
  191.8570  174.8310  136.9410 N   0  0  0  0  0  0  0  0  0  0  0  0
  191.2790  175.6400  137.8710 C   0  0  2  0  0  3  0  0  0  0  0  0
  193.4610  176.3360  138.5460 N   0  0  0  0  0  0  0  0  0  0  0  0
  192.1130  176.4290  138.7070 C   0  0  0  0  0  0  0  0  0  0  0  0
  191.4520  176.9970  140.9770 C   0  0  0  0  0  3  0  0  0  0  0  0
  191.6250  177.3080  139.7350 N   0  0  0  0  0  0  0  0  0  0  0  0
  190.9510  178.0100  141.9480 C   0  0  0  0  0  2  0  0  0  0  0  0
  191.5710  177.8030  143.3220 C   0  0  0  0  0  2  0  0  0  0  0  0
  188.9260  177.7120  145.5750 C   0  0  2  0  0  3  0  0  0  0  0  0
  191.1470  177.1120  145.5690 O   0  0  0  0  0  0  0  0  0  0  0  0
  189.3540  177.7270  144.2490 O   0  0  0  0  0  0  0  0  0  0  0  0
  190.6130  177.1010  144.2720 C   0  0  1  0  0  3  0  0  0  0  0  0
  190.0290  177.1190  146.3960 C   0  0  0  0  0  2  0  0  0  0  0  0
  187.5550  177.0250  145.7670 C   0  0  0  0  0  2  0  0  0  0  0  0
  186.6840  177.5450  146.8410 N   0  0  0  0  0  0  0  0  0  0  0  0
  185.7670  179.7030  146.7070 O   0  0  0  0  0  1  0  0  0  0  0  0
  185.5860  178.3690  146.3180 C   0  0  1  0  0  3  0  0  0  0  0  0
  185.5340  178.3050  144.7910 C   0  0  0  0  0  2  0  0  0  0  0  0
  183.8050  178.2680  142.9960 C   0  0  0  0  0  1  0  0  0  0  0  0
  183.1860  178.9050  145.3000 C   0  0  0  0  0  1  0  0  0  0  0  0
  184.2780  178.9750  144.2540 C   0  0  0  0  0  3  0  0  0  0  0  0
  187.4740  178.2930  147.8180 C   0  0  0  0  0  2  0  0  0  0  0  0
  187.8260  177.4600  148.8800 O   0  0  0  0  0  1  0  0  0  0  0  0
  1  3  1  0  0  0  0
  2  7  1  0  0  0  0
  2  1  1  0  0  0  0
  3  6  1  0  0  0  0
  3 31  1  1  0  0  0
  5  6  1  0  0  0  0
  5 13  1  1  0  0  0
  7  4  1  6  0  0  0
  7  5  1  0  0  0  0
  8 11  1  0  0  0  0
  9  8  2  0  0  0  0
 10  9  1  0  0  0  0
 12  8  1  0  0  0  0
 13 10  2  0  0  0  0
 13 14  1  0  0  0  0
 14 12  2  0  0  0  0
 15 16  3  0  0  0  0
 16 10  1  0  0  0  0
 17 30  1  0  0  0  0
 17 15  1  1  0  0  0
 18 17  1  1  0  0  0
 18 21  1  0  0  0  0
 20 24  1  0  0  0  0
 20 18  1  0  0  0  0
 21 19  2  0  0  0  0
 22 19  1  0  0  0  0
 24 23  1  6  0  0  0
 24 22  1  0  0  0  0
 27 29  2  0  0  0  0
 28 30  1  0  0  0  0
 28 29  1  0  0  0  0
 29 25  1  0  0  0  0
 30 26  2  0  0  0  0
 32 34  2  0  0  0  0
 32 33  1  0  0  0  0
 33 36  1  0  0  0  0
 34 35  1  0  0  0  0
 35 31  1  1  0  0  0
 35 37  1  0  0  0  0
 36 37  2  0  0  0  0
 37 39  1  0  0  0  0
 38 40  1  0  0  0  0
 39 38  2  0  0  0  0
 40 41  1  0  0  0  0
 42 47  1  6  0  0  0
 42 46  1  0  0  0  0
 43 46  1  0  0  0  0
 44 45  1  0  0  0  0
 44 42  1  0  0  0  0
 45 41  1  6  0  0  0
 45 43  1  0  0  0  0
 47 48  1  0  0  0  0
 48 55  1  0  0  0  0
 50 49  1  6  0  0  0
 50 48  1  0  0  0  0
 51 50  1  0  0  0  0
 52 54  1  0  0  0  0
 54 51  1  0  0  0  0
 54 53  1  0  0  0  0
 55 56  1  0  0  0  0
M  END
>  <MODEL>
5

>  <REMARK>
 VINA RESULT:      -6.9      2.839      7.086
  Name = 
  17 active torsions:
  status: ('A' for Active; 'I' for Inactive)
    1  A    between atoms: C_2  and  C_31
    2  A    between atoms: C_4  and  C_51
    3  A    between atoms: C_12  and  C_22
    4  A    between atoms: C_12  and  C_43
    5  A    between atoms: C_13  and  C_41
    6  A    between atoms: C_21  and  C_23
    7  A    between atoms: C_21  and  C_45
    8  A    between atoms: C_26  and  C_31
    9  A    between atoms: C_31  and  C_49
   10  A    between atoms: C_32  and  C_33
   11  A    between atoms: C_32  and  C_52
   12  A    between atoms: C_33  and  N_55
   13  A    between atoms: C_35  and  N_55
   14  A    between atoms: C_38  and  C_39
   15  A    between atoms: C_45  and  C_48
   16  A    between atoms: C_47  and  N_54
   17  A    between atoms: C_51  and  N_55
                            x       y       z     vdW  Elec       q    Type
                         _______ _______ _______ _____ _____    ______ ____

>  <TORSDO>
F 17

$$$$
=
 OpenBabel11042413133D

 56 60  0  0  1  0  0  0  0  0999 V2000
  187.0030  177.8570  139.3110 C   0  0  0  0  0  2  0  0  0  0  0  0
  186.0000  178.8420  139.8930 C   0  0  0  0  0  2  0  0  0  0  0  0
  186.9470  177.8090  137.7760 C   0  0  2  0  0  3  0  0  0  0  0  0
  183.5820  179.3840  140.0620 C   0  0  0  0  0  1  0  0  0  0  0  0
  184.4000  178.2210  138.0140 C   0  0  2  0  0  3  0  0  0  0  0  0
  185.6690  178.3980  137.1600 C   0  0  0  0  0  2  0  0  0  0  0  0
  184.5910  178.3900  139.5280 C   0  0  1  0  0  3  0  0  0  0  0  0
  182.2350  174.6530  137.0310 C   0  0  0  0  0  0  0  0  0  0  0  0
  181.5520  175.8710  137.0720 C   0  0  0  0  0  3  0  0  0  0  0  0
  182.2480  177.0390  137.3900 C   0  0  0  0  0  0  0  0  0  0  0  0
  181.5350  173.4570  136.7070 N   0  0  0  0  0  1  0  0  0  0  0  0
  183.5660  174.6100  137.3040 N   0  0  0  0  0  0  0  0  0  0  0  0
  183.6260  176.9780  137.6670 C   0  0  0  0  0  0  0  0  0  0  0  0
  184.2660  175.7330  137.6180 C   0  0  0  0  0  3  0  0  0  0  0  0
  180.9030  179.3140  137.4950 C   0  0  0  0  0  0  0  0  0  0  0  0
  181.5320  178.2860  137.4440 C   0  0  0  0  0  0  0  0  0  0  0  0
  180.1040  180.5460  137.5620 C   0  0  2  0  0  3  0  0  0  0  0  0
  180.8070  181.7070  136.8420 C   0  0  2  0  0  3  0  0  0  0  0  0
  179.9170  183.6860  135.5800 C   0  0  0  0  0  3  0  0  0  0  0  0
  181.3700  182.7280  137.8370 C   0  0  0  0  0  2  0  0  0  0  0  0
  179.8870  182.3680  135.8350 C   0  0  0  0  0  3  0  0  0  0  0  0
  180.7920  184.6400  136.3530 C   0  0  0  0  0  2  0  0  0  0  0  0
  182.5420  184.8010  137.9670 O   0  0  0  0  0  1  0  0  0  0  0  0
  181.9300  183.9220  137.0750 C   0  0  1  0  0  3  0  0  0  0  0  0
  179.2610  181.0040  141.8490 O   0  0  0  0  0  0  0  0  0  0  0  0
  179.1540  181.8770  139.2920 O   0  0  0  0  0  0  0  0  0  0  0  0
  180.6420  179.2420  142.3280 O   0  0  0  0  0  1  0  0  0  0  0  0
  180.3400  179.9940  140.0310 N   0  0  0  0  0  2  0  0  0  0  0  0
  180.0530  180.1200  141.4280 C   0  0  0  0  0  0  0  0  0  0  0  0
  179.8390  180.8600  139.0030 C   0  0  0  0  0  0  0  0  0  0  0  0
  187.1900  176.3960  137.2650 C   0  0  0  0  0  2  0  0  0  0  0  0
  189.7910  175.5590  134.7400 C   0  0  0  0  0  3  0  0  0  0  0  0
  190.9710  175.9480  135.3660 C   0  0  0  0  0  2  0  0  0  0  0  0
  188.6080  175.7280  135.3840 N   0  0  0  0  0  0  0  0  0  0  0  0
  188.5390  176.2750  136.6280 C   0  0  2  0  0  3  0  0  0  0  0  0
  190.9170  176.4920  136.6090 N   0  0  0  0  0  0  0  0  0  0  0  0
  189.7410  176.6780  137.2680 C   0  0  0  0  0  0  0  0  0  0  0  0
  190.4640  176.7770  139.5880 C   0  0  0  0  0  3  0  0  0  0  0  0
  189.8020  177.2520  138.5850 N   0  0  0  0  0  0  0  0  0  0  0  0
  190.4560  177.4800  140.9010 C   0  0  0  0  0  2  0  0  0  0  0  0
  191.6500  177.0690  141.7490 C   0  0  0  0  0  2  0  0  0  0  0  0
  189.8410  178.2520  144.4710 C   0  0  2  0  0  3  0  0  0  0  0  0
  191.6830  178.9170  143.2640 O   0  0  0  0  0  0  0  0  0  0  0  0
  190.2370  177.1680  143.6920 O   0  0  0  0  0  0  0  0  0  0  0  0
  191.5010  177.5280  143.1920 C   0  0  1  0  0  3  0  0  0  0  0  0
  190.8960  179.3060  144.3430 C   0  0  0  0  0  2  0  0  0  0  0  0
  189.5050  177.8680  145.9300 C   0  0  0  0  0  2  0  0  0  0  0  0
  188.1250  177.4210  146.2110 N   0  0  0  0  0  0  0  0  0  0  0  0
  187.0910  176.7230  144.2210 O   0  0  0  0  0  1  0  0  0  0  0  0
  187.1940  177.7810  145.1340 C   0  0  1  0  0  3  0  0  0  0  0  0
  185.8040  178.0850  145.6920 C   0  0  0  0  0  2  0  0  0  0  0  0
  185.3220  178.8040  143.3550 C   0  0  0  0  0  1  0  0  0  0  0  0
  183.5820  179.0020  145.0950 C   0  0  0  0  0  1  0  0  0  0  0  0
  185.0680  179.0940  144.8230 C   0  0  0  0  0  3  0  0  0  0  0  0
  187.6690  177.9590  147.4920 C   0  0  0  0  0  2  0  0  0  0  0  0
  188.0970  177.1320  148.5310 O   0  0  0  0  0  1  0  0  0  0  0  0
  1  2  1  0  0  0  0
  3 31  1  1  0  0  0
  3  1  1  0  0  0  0
  5 13  1  1  0  0  0
  5  7  1  0  0  0  0
  6  3  1  0  0  0  0
  6  5  1  0  0  0  0
  7  2  1  0  0  0  0
  7  4  1  6  0  0  0
  8  9  2  0  0  0  0
  8 12  1  0  0  0  0
  9 10  1  0  0  0  0
 10 16  1  0  0  0  0
 10 13  2  0  0  0  0
 11  8  1  0  0  0  0
 12 14  2  0  0  0  0
 14 13  1  0  0  0  0
 16 15  3  0  0  0  0
 17 15  1  1  0  0  0
 17 30  1  0  0  0  0
 18 17  1  1  0  0  0
 18 20  1  0  0  0  0
 19 21  2  0  0  0  0
 19 22  1  0  0  0  0
 21 18  1  0  0  0  0
 22 24  1  0  0  0  0
 24 20  1  0  0  0  0
 24 23  1  1  0  0  0
 28 29  1  0  0  0  0
 29 25  2  0  0  0  0
 29 27  1  0  0  0  0
 30 26  2  0  0  0  0
 30 28  1  0  0  0  0
 32 33  1  0  0  0  0
 32 34  2  0  0  0  0
 33 36  1  0  0  0  0
 34 35  1  0  0  0  0
 35 31  1  1  0  0  0
 35 37  1  0  0  0  0
 36 37  2  0  0  0  0
 37 39  1  0  0  0  0
 38 40  1  0  0  0  0
 39 38  2  0  0  0  0
 40 41  1  0  0  0  0
 42 47  1  1  0  0  0
 43 46  1  0  0  0  0
 44 42  1  0  0  0  0
 45 41  1  6  0  0  0
 45 43  1  0  0  0  0
 45 44  1  0  0  0  0
 46 42  1  0  0  0  0
 47 48  1  0  0  0  0
 48 55  1  0  0  0  0
 50 49  1  6  0  0  0
 50 51  1  0  0  0  0
 50 48  1  0  0  0  0
 52 54  1  0  0  0  0
 54 53  1  0  0  0  0
 54 51  1  0  0  0  0
 55 56  1  0  0  0  0
M  END
>  <MODEL>
6

>  <REMARK>
 VINA RESULT:      -6.7      3.238      7.102
  Name = 
  17 active torsions:
  status: ('A' for Active; 'I' for Inactive)
    1  A    between atoms: C_2  and  C_31
    2  A    between atoms: C_4  and  C_51
    3  A    between atoms: C_12  and  C_22
    4  A    between atoms: C_12  and  C_43
    5  A    between atoms: C_13  and  C_41
    6  A    between atoms: C_21  and  C_23
    7  A    between atoms: C_21  and  C_45
    8  A    between atoms: C_26  and  C_31
    9  A    between atoms: C_31  and  C_49
   10  A    between atoms: C_32  and  C_33
   11  A    between atoms: C_32  and  C_52
   12  A    between atoms: C_33  and  N_55
   13  A    between atoms: C_35  and  N_55
   14  A    between atoms: C_38  and  C_39
   15  A    between atoms: C_45  and  C_48
   16  A    between atoms: C_47  and  N_54
   17  A    between atoms: C_51  and  N_55
                            x       y       z     vdW  Elec       q    Type
                         _______ _______ _______ _____ _____    ______ ____

>  <TORSDO>
F 17

$$$$
=
 OpenBabel11042413133D

 56 60  0  0  1  0  0  0  0  0999 V2000
  181.9510  179.0000  137.3760 C   0  0  0  0  0  2  0  0  0  0  0  0
  182.7340  177.7340  137.6930 C   0  0  0  0  0  2  0  0  0  0  0  0
  182.4630  180.2140  138.1660 C   0  0  2  0  0  3  0  0  0  0  0  0
  183.3630  176.1630  139.5110 C   0  0  0  0  0  1  0  0  0  0  0  0
  182.9550  178.5530  140.0930 C   0  0  2  0  0  3  0  0  0  0  0  0
  183.3300  179.8690  139.3870 C   0  0  0  0  0  2  0  0  0  0  0  0
  182.5530  177.3950  139.1680 C   0  0  1  0  0  3  0  0  0  0  0  0
  180.1510  179.1180  143.2860 C   0  0  0  0  0  0  0  0  0  0  0  0
  181.4730  178.7950  143.5960 C   0  0  0  0  0  3  0  0  0  0  0  0
  182.3960  178.6090  142.5630 C   0  0  0  0  0  0  0  0  0  0  0  0
  179.2030  179.3110  144.3310 N   0  0  0  0  0  1  0  0  0  0  0  0
  179.7670  179.2470  141.9880 N   0  0  0  0  0  0  0  0  0  0  0  0
  181.9840  178.7490  141.2250 C   0  0  0  0  0  0  0  0  0  0  0  0
  180.6440  179.0700  140.9640 C   0  0  0  0  0  3  0  0  0  0  0  0
  184.8810  177.9360  143.1660 C   0  0  0  0  0  0  0  0  0  0  0  0
  183.7520  178.2610  142.8920 C   0  0  0  0  0  0  0  0  0  0  0  0
  186.2440  177.5030  143.5030 C   0  0  2  0  0  3  0  0  0  0  0  0
  186.7560  178.2040  144.7720 C   0  0  2  0  0  3  0  0  0  0  0  0
  185.6910  178.6210  147.0060 C   0  0  0  0  0  3  0  0  0  0  0  0
  187.7610  177.3300  145.5310 C   0  0  0  0  0  2  0  0  0  0  0  0
  185.6090  178.6300  145.6660 C   0  0  0  0  0  3  0  0  0  0  0  0
  186.8930  178.0810  147.7390 C   0  0  0  0  0  2  0  0  0  0  0  0
  189.1240  177.2720  147.4870 O   0  0  0  0  0  1  0  0  0  0  0  0
  188.1280  178.0070  146.8450 C   0  0  1  0  0  3  0  0  0  0  0  0
  189.1880  178.3500  140.3540 O   0  0  0  0  0  0  0  0  0  0  0  0
  186.6780  178.4380  141.3580 O   0  0  0  0  0  0  0  0  0  0  0  0
  190.7140  176.9950  141.3910 O   0  0  0  0  0  1  0  0  0  0  0  0
  188.4790  177.2810  142.3150 N   0  0  0  0  0  2  0  0  0  0  0  0
  189.4530  177.5690  141.3060 C   0  0  0  0  0  0  0  0  0  0  0  0
  187.1290  177.7670  142.3240 C   0  0  0  0  0  0  0  0  0  0  0  0
  181.3140  181.1310  138.5640 C   0  0  0  0  0  2  0  0  0  0  0  0
  181.2640  184.5660  137.1390 C   0  0  0  0  0  3  0  0  0  0  0  0
  180.7900  184.3620  135.8470 C   0  0  0  0  0  3  0  0  0  0  0  0
  181.4210  183.5020  137.9670 N   0  0  0  0  0  0  0  0  0  0  0  0
  181.1330  182.2330  137.5690 C   0  0  0  0  0  0  0  0  0  0  0  0
  180.4960  183.1020  135.4380 N   0  0  0  0  0  0  0  0  0  0  0  0
  180.6540  182.0210  136.2490 C   0  0  0  0  0  0  0  0  0  0  0  0
  179.1800  180.1160  135.9070 C   0  0  0  0  0  3  0  0  0  0  0  0
  180.3000  180.7330  135.7150 N   0  0  0  0  0  0  0  0  0  0  0  0
  178.9330  178.7860  135.2840 C   0  0  0  0  0  2  0  0  0  0  0  0
  179.2680  177.6590  136.2480 C   0  0  0  0  0  2  0  0  0  0  0  0
  181.4430  174.9750  135.8680 C   0  0  2  0  0  3  0  0  0  0  0  0
  180.8410  176.8320  134.6510 O   0  0  0  0  0  0  0  0  0  0  0  0
  180.2850  175.4890  136.4460 O   0  0  0  0  0  0  0  0  0  0  0  0
  179.8140  176.4390  135.5220 C   0  0  1  0  0  3  0  0  0  0  0  0
  181.6790  175.7230  134.5940 C   0  0  0  0  0  2  0  0  0  0  0  0
  181.4130  173.4380  135.7030 C   0  0  0  0  0  2  0  0  0  0  0  0
  182.1370  172.6360  136.7110 N   0  0  0  0  0  0  0  0  0  0  0  0
  183.8430  172.6410  135.0970 O   0  0  0  0  0  1  0  0  0  0  0  0
  183.5870  172.6210  136.4730 C   0  0  1  0  0  3  0  0  0  0  0  0
  184.2590  173.8340  137.1160 C   0  0  0  0  0  2  0  0  0  0  0  0
  185.5380  175.6690  136.0160 C   0  0  0  0  0  1  0  0  0  0  0  0
  186.7260  173.9280  137.3010 C   0  0  0  0  0  1  0  0  0  0  0  0
  185.5470  174.1980  136.3920 C   0  0  0  0  0  3  0  0  0  0  0  0
  181.6040  171.2750  136.7530 C   0  0  0  0  0  2  0  0  0  0  0  0
  180.2100  171.3110  136.7190 O   0  0  0  0  0  1  0  0  0  0  0  0
  1  2  1  0  0  0  0
  1  3  1  0  0  0  0
  2  7  1  0  0  0  0
  3 31  1  1  0  0  0
  3  6  1  0  0  0  0
  5 13  1  1  0  0  0
  6  5  1  0  0  0  0
  7  4  1  1  0  0  0
  7  5  1  0  0  0  0
  8  9  1  0  0  0  0
  8 11  1  0  0  0  0
 10 16  1  0  0  0  0
 10  9  2  0  0  0  0
 12  8  2  0  0  0  0
 13 10  1  0  0  0  0
 14 13  2  0  0  0  0
 14 12  1  0  0  0  0
 16 15  3  0  0  0  0
 17 15  1  6  0  0  0
 18 17  1  6  0  0  0
 18 20  1  0  0  0  0
 18 21  1  0  0  0  0
 19 22  1  0  0  0  0
 20 24  1  0  0  0  0
 21 19  2  0  0  0  0
 24 23  1  1  0  0  0
 24 22  1  0  0  0  0
 25 29  2  0  0  0  0
 26 30  2  0  0  0  0
 28 30  1  0  0  0  0
 29 27  1  0  0  0  0
 29 28  1  0  0  0  0
 30 17  1  0  0  0  0
 32 34  1  0  0  0  0
 33 32  2  0  0  0  0
 35 34  2  0  0  0  0
 35 31  1  0  0  0  0
 36 33  1  0  0  0  0
 36 37  2  0  0  0  0
 37 35  1  0  0  0  0
 39 38  2  0  0  0  0
 39 37  1  0  0  0  0
 40 38  1  0  0  0  0
 40 41  1  0  0  0  0
 42 47  1  6  0  0  0
 42 44  1  0  0  0  0
 43 45  1  0  0  0  0
 45 41  1  1  0  0  0
 45 44  1  0  0  0  0
 46 43  1  0  0  0  0
 46 42  1  0  0  0  0
 47 48  1  0  0  0  0
 48 55  1  0  0  0  0
 50 49  1  6  0  0  0
 50 48  1  0  0  0  0
 50 51  1  0  0  0  0
 52 54  1  0  0  0  0
 54 51  1  0  0  0  0
 54 53  1  0  0  0  0
 56 55  1  0  0  0  0
M  END
>  <MODEL>
7

>  <REMARK>
 VINA RESULT:      -6.6      2.965      9.535
  Name = 
  17 active torsions:
  status: ('A' for Active; 'I' for Inactive)
    1  A    between atoms: C_2  and  C_31
    2  A    between atoms: C_4  and  C_51
    3  A    between atoms: C_12  and  C_22
    4  A    between atoms: C_12  and  C_43
    5  A    between atoms: C_13  and  C_41
    6  A    between atoms: C_21  and  C_23
    7  A    between atoms: C_21  and  C_45
    8  A    between atoms: C_26  and  C_31
    9  A    between atoms: C_31  and  C_49
   10  A    between atoms: C_32  and  C_33
   11  A    between atoms: C_32  and  C_52
   12  A    between atoms: C_33  and  N_55
   13  A    between atoms: C_35  and  N_55
   14  A    between atoms: C_38  and  C_39
   15  A    between atoms: C_45  and  C_48
   16  A    between atoms: C_47  and  N_54
   17  A    between atoms: C_51  and  N_55
                            x       y       z     vdW  Elec       q    Type
                         _______ _______ _______ _____ _____    ______ ____

>  <TORSDO>
F 17

$$$$
=
 OpenBabel11042413133D

 56 60  0  0  1  0  0  0  0  0999 V2000
  185.2720  177.2430  136.6650 C   0  0  0  0  0  2  0  0  0  0  0  0
  184.3060  177.9700  135.7410 C   0  0  0  0  0  2  0  0  0  0  0  0
  185.7410  175.9020  136.0780 C   0  0  2  0  0  3  0  0  0  0  0  0
  182.1020  177.8060  134.6070 C   0  0  0  0  0  1  0  0  0  0  0  0
  183.3730  175.7060  135.0460 C   0  0  2  0  0  3  0  0  0  0  0  0
  184.8690  175.3590  134.9360 C   0  0  0  0  0  2  0  0  0  0  0  0
  183.0560  177.1170  135.5600 C   0  0  1  0  0  3  0  0  0  0  0  0
  181.1070  172.6470  137.0170 C   0  0  0  0  0  0  0  0  0  0  0  0
  181.1110  173.9370  137.5510 C   0  0  0  0  0  3  0  0  0  0  0  0
  181.8450  174.9420  136.9160 C   0  0  0  0  0  0  0  0  0  0  0  0
  180.3620  171.6160  137.6560 N   0  0  0  0  0  1  0  0  0  0  0  0
  181.8160  172.3740  135.8900 N   0  0  0  0  0  0  0  0  0  0  0  0
  182.5720  174.6440  135.7490 C   0  0  0  0  0  0  0  0  0  0  0  0
  182.5410  173.3330  135.2540 C   0  0  0  0  0  3  0  0  0  0  0  0
  181.8540  177.3590  137.9880 C   0  0  0  0  0  0  0  0  0  0  0  0
  181.8560  176.2640  137.4830 C   0  0  0  0  0  0  0  0  0  0  0  0
  181.8380  178.6780  138.6360 C   0  0  2  0  0  3  0  0  0  0  0  0
  181.5180  179.7930  137.6270 C   0  0  2  0  0  3  0  0  0  0  0  0
  179.3800  180.4850  136.5110 C   0  0  0  0  0  3  0  0  0  0  0  0
  181.4900  181.1700  138.3000 C   0  0  0  0  0  2  0  0  0  0  0  0
  180.2250  179.5120  136.8890 C   0  0  0  0  0  3  0  0  0  0  0  0
  179.5900  181.9300  136.8840 C   0  0  0  0  0  2  0  0  0  0  0  0
  181.1130  183.4840  137.8650 O   0  0  0  0  0  1  0  0  0  0  0  0
  181.0340  182.2160  137.2920 C   0  0  1  0  0  3  0  0  0  0  0  0
  185.4770  179.3730  140.9980 O   0  0  0  0  0  0  0  0  0  0  0  0
  184.0460  179.5640  138.7110 O   0  0  0  0  0  0  0  0  0  0  0  0
  184.6990  177.9810  142.6400 O   0  0  0  0  0  1  0  0  0  0  0  0
  183.3990  178.3600  140.6160 N   0  0  0  0  0  2  0  0  0  0  0  0
  184.5700  178.5980  141.4030 C   0  0  0  0  0  0  0  0  0  0  0  0
  183.1610  178.8930  139.3050 C   0  0  0  0  0  0  0  0  0  0  0  0
  185.9090  174.8560  137.1720 C   0  0  0  0  0  2  0  0  0  0  0  0
  186.8370  171.5180  135.8200 C   0  0  0  0  0  3  0  0  0  0  0  0
  188.2270  171.5350  135.8690 C   0  0  0  0  0  2  0  0  0  0  0  0
  186.1410  172.6050  136.2400 N   0  0  0  0  0  0  0  0  0  0  0  0
  186.7650  173.7200  136.7070 C   0  0  2  0  0  3  0  0  0  0  0  0
  188.8620  172.6410  136.3350 N   0  0  0  0  0  0  0  0  0  0  0  0
  188.1840  173.7440  136.7540 C   0  0  0  0  0  0  0  0  0  0  0  0
  189.4290  175.8200  136.5200 C   0  0  0  0  0  3  0  0  0  0  0  0
  188.9580  174.8550  137.2390 N   0  0  0  0  0  0  0  0  0  0  0  0
  190.2060  176.9230  137.1500 C   0  0  0  0  0  2  0  0  0  0  0  0
  189.2840  178.0260  137.6480 C   0  0  0  0  0  2  0  0  0  0  0  0
  189.8610  176.9610  140.9060 C   0  0  2  0  0  3  0  0  0  0  0  0
  188.1750  178.0330  139.7650 O   0  0  0  0  0  0  0  0  0  0  0  0
  190.3850  177.3670  139.6810 O   0  0  0  0  0  0  0  0  0  0  0  0
  189.4180  178.2390  139.1490 C   0  0  1  0  0  3  0  0  0  0  0  0
  188.4990  177.5710  141.0350 C   0  0  0  0  0  2  0  0  0  0  0  0
  190.7990  177.2490  142.1000 C   0  0  0  0  0  2  0  0  0  0  0  0
  190.4940  176.5730  143.3770 N   0  0  0  0  0  0  0  0  0  0  0  0
  190.0120  178.8120  143.8930 O   0  0  0  0  0  1  0  0  0  0  0  0
  189.9880  177.5050  144.3940 C   0  0  1  0  0  3  0  0  0  0  0  0
  188.5530  177.1560  144.7890 C   0  0  0  0  0  2  0  0  0  0  0  0
  186.6350  178.0500  146.1060 C   0  0  0  0  0  1  0  0  0  0  0  0
  188.5780  177.0590  147.2630 C   0  0  0  0  0  1  0  0  0  0  0  0
  188.1420  177.8750  146.0650 C   0  0  0  0  0  3  0  0  0  0  0  0
  191.6740  175.8610  143.8680 C   0  0  0  0  0  2  0  0  0  0  0  0
  191.7620  175.9900  145.2540 O   0  0  0  0  0  1  0  0  0  0  0  0
  2  1  1  0  0  0  0
  3  1  1  0  0  0  0
  3 31  1  1  0  0  0
  5  7  1  0  0  0  0
  5 13  1  1  0  0  0
  6  5  1  0  0  0  0
  6  3  1  0  0  0  0
  7  4  1  6  0  0  0
  7  2  1  0  0  0  0
  8  9  1  0  0  0  0
  8 11  1  0  0  0  0
 10 16  1  0  0  0  0
 10  9  2  0  0  0  0
 12  8  2  0  0  0  0
 13 10  1  0  0  0  0
 14 13  2  0  0  0  0
 14 12  1  0  0  0  0
 16 15  3  0  0  0  0
 17 15  1  6  0  0  0
 17 30  1  0  0  0  0
 18 20  1  0  0  0  0
 18 17  1  1  0  0  0
 19 22  1  0  0  0  0
 19 21  2  0  0  0  0
 21 18  1  0  0  0  0
 22 24  1  0  0  0  0
 24 23  1  1  0  0  0
 24 20  1  0  0  0  0
 25 29  2  0  0  0  0
 26 30  2  0  0  0  0
 28 29  1  0  0  0  0
 29 27  1  0  0  0  0
 30 28  1  0  0  0  0
 32 33  1  0  0  0  0
 32 34  2  0  0  0  0
 33 36  1  0  0  0  0
 34 35  1  0  0  0  0
 35 37  1  0  0  0  0
 35 31  1  1  0  0  0
 36 37  2  0  0  0  0
 37 39  1  0  0  0  0
 38 40  1  0  0  0  0
 38 39  2  0  0  0  0
 40 41  1  0  0  0  0
 42 46  1  0  0  0  0
 42 47  1  1  0  0  0
 43 46  1  0  0  0  0
 44 42  1  0  0  0  0
 45 41  1  6  0  0  0
 45 44  1  0  0  0  0
 45 43  1  0  0  0  0
 47 48  1  0  0  0  0
 48 55  1  0  0  0  0
 48 50  1  0  0  0  0
 50 49  1  6  0  0  0
 50 51  1  0  0  0  0
 51 54  1  0  0  0  0
 54 52  1  0  0  0  0
 54 53  1  0  0  0  0
 55 56  1  0  0  0  0
M  END
>  <MODEL>
8

>  <REMARK>
 VINA RESULT:      -6.4      2.351      6.248
  Name = 
  17 active torsions:
  status: ('A' for Active; 'I' for Inactive)
    1  A    between atoms: C_2  and  C_31
    2  A    between atoms: C_4  and  C_51
    3  A    between atoms: C_12  and  C_22
    4  A    between atoms: C_12  and  C_43
    5  A    between atoms: C_13  and  C_41
    6  A    between atoms: C_21  and  C_23
    7  A    between atoms: C_21  and  C_45
    8  A    between atoms: C_26  and  C_31
    9  A    between atoms: C_31  and  C_49
   10  A    between atoms: C_32  and  C_33
   11  A    between atoms: C_32  and  C_52
   12  A    between atoms: C_33  and  N_55
   13  A    between atoms: C_35  and  N_55
   14  A    between atoms: C_38  and  C_39
   15  A    between atoms: C_45  and  C_48
   16  A    between atoms: C_47  and  N_54
   17  A    between atoms: C_51  and  N_55
                            x       y       z     vdW  Elec       q    Type
                         _______ _______ _______ _____ _____    ______ ____

>  <TORSDO>
F 17

$$$$
=
 OpenBabel11042413133D

 56 60  0  0  1  0  0  0  0  0999 V2000
  182.5620  179.8040  139.5560 C   0  0  0  0  0  2  0  0  0  0  0  0
  181.3770  180.2800  138.7280 C   0  0  0  0  0  2  0  0  0  0  0  0
  183.2210  178.5500  138.9610 C   0  0  2  0  0  3  0  0  0  0  0  0
  179.1390  179.6350  137.8660 C   0  0  0  0  0  1  0  0  0  0  0  0
  180.8400  177.8450  138.2190 C   0  0  2  0  0  3  0  0  0  0  0  0
  182.3540  177.7880  137.9460 C   0  0  0  0  0  2  0  0  0  0  0  0
  180.3080  179.1950  138.7220 C   0  0  1  0  0  3  0  0  0  0  0  0
  179.4130  174.5800  140.6030 C   0  0  0  0  0  0  0  0  0  0  0  0
  180.1010  174.3050  139.4190 C   0  0  0  0  0  3  0  0  0  0  0  0
  180.5710  175.3610  138.6350 C   0  0  0  0  0  0  0  0  0  0  0  0
  178.9310  173.5110  141.4090 N   0  0  0  0  0  1  0  0  0  0  0  0
  179.2020  175.8680  140.9830 N   0  0  0  0  0  0  0  0  0  0  0  0
  180.3460  176.6880  139.0440 C   0  0  0  0  0  0  0  0  0  0  0  0
  179.6470  176.9140  140.2370 C   0  0  0  0  0  3  0  0  0  0  0  0
  181.8460  174.8540  136.3750 C   0  0  0  0  0  0  0  0  0  0  0  0
  181.2660  175.0670  137.4100 C   0  0  0  0  0  0  0  0  0  0  0  0
  182.5480  174.6320  135.1020 C   0  0  2  0  0  3  0  0  0  0  0  0
  182.3650  173.1880  134.6090 C   0  0  2  0  0  3  0  0  0  0  0  0
  183.3850  171.0170  135.3490 C   0  0  0  0  0  3  0  0  0  0  0  0
  181.0290  172.5980  135.0770 C   0  0  0  0  0  2  0  0  0  0  0  0
  183.5300  172.3120  135.0240 C   0  0  0  0  0  3  0  0  0  0  0  0
  182.0360  170.3510  135.4370 C   0  0  0  0  0  2  0  0  0  0  0  0
  179.7040  170.6160  135.0070 O   0  0  0  0  0  1  0  0  0  0  0  0
  180.9590  171.1290  134.6830 C   0  0  1  0  0  3  0  0  0  0  0  0
  186.6490  176.1020  135.6640 O   0  0  0  0  0  0  0  0  0  0  0  0
  184.8650  174.3450  134.6410 O   0  0  0  0  0  0  0  0  0  0  0  0
  185.9310  177.5380  137.2940 O   0  0  0  0  0  1  0  0  0  0  0  0
  184.3660  176.0380  136.1850 N   0  0  0  0  0  2  0  0  0  0  0  0
  185.6950  176.5400  136.3590 C   0  0  0  0  0  0  0  0  0  0  0  0
  183.9930  174.9790  135.2920 C   0  0  0  0  0  0  0  0  0  0  0  0
  183.7100  177.6160  140.0600 C   0  0  0  0  0  2  0  0  0  0  0  0
  183.7580  179.2960  143.3780 C   0  0  0  0  0  3  0  0  0  0  0  0
  185.0380  179.8380  143.4360 C   0  0  0  0  0  2  0  0  0  0  0  0
  183.3830  178.5890  142.2820 N   0  0  0  0  0  0  0  0  0  0  0  0
  184.2260  178.3870  141.2340 C   0  0  2  0  0  3  0  0  0  0  0  0
  185.8890  179.6460  142.3960 N   0  0  0  0  0  0  0  0  0  0  0  0
  185.5350  178.9340  141.2920 C   0  0  0  0  0  0  0  0  0  0  0  0
  187.7270  178.3870  140.3900 C   0  0  0  0  0  3  0  0  0  0  0  0
  186.5120  178.8040  140.2440 N   0  0  0  0  0  0  0  0  0  0  0  0
  188.6380  178.2850  139.2160 C   0  0  0  0  0  2  0  0  0  0  0  0
  189.1620  176.8670  139.0530 C   0  0  0  0  0  2  0  0  0  0  0  0
  191.2940  177.6120  141.6950 C   0  0  2  0  0  3  0  0  0  0  0  0
  191.4960  177.2100  139.4390 O   0  0  0  0  0  0  0  0  0  0  0  0
  190.0860  177.0690  141.2630 O   0  0  0  0  0  0  0  0  0  0  0  0
  190.3500  176.5960  139.9650 C   0  0  1  0  0  3  0  0  0  0  0  0
  192.2630  177.5100  140.5590 C   0  0  0  0  0  2  0  0  0  0  0  0
  191.8040  176.9970  143.0180 C   0  0  0  0  0  2  0  0  0  0  0  0
  191.5120  177.7360  144.2640 N   0  0  0  0  0  0  0  0  0  0  0  0
  191.3580  175.8740  145.6870 O   0  0  0  0  0  1  0  0  0  0  0  0
  190.6520  176.9700  145.1760 C   0  0  1  0  0  3  0  0  0  0  0  0
  190.1810  177.8390  146.3420 C   0  0  0  0  0  2  0  0  0  0  0  0
  188.7740  177.8530  148.3990 C   0  0  0  0  0  1  0  0  0  0  0  0
  187.7340  177.4960  146.1890 C   0  0  0  0  0  1  0  0  0  0  0  0
  188.9660  177.2320  147.0280 C   0  0  0  0  0  3  0  0  0  0  0  0
  190.9140  179.0340  143.9550 C   0  0  0  0  0  2  0  0  0  0  0  0
  191.8440  180.0490  144.1800 O   0  0  0  0  0  1  0  0  0  0  0  0
  2  1  1  0  0  0  0
  3  1  1  0  0  0  0
  3 31  1  1  0  0  0
  5  7  1  0  0  0  0
  5 13  1  1  0  0  0
  6  5  1  0  0  0  0
  6  3  1  0  0  0  0
  7  4  1  6  0  0  0
  7  2  1  0  0  0  0
  8 12  1  0  0  0  0
  8 11  1  0  0  0  0
  9  8  2  0  0  0  0
 10 13  2  0  0  0  0
 10  9  1  0  0  0  0
 13 14  1  0  0  0  0
 14 12  2  0  0  0  0
 15 16  3  0  0  0  0
 16 10  1  0  0  0  0
 17 30  1  0  0  0  0
 17 15  1  1  0  0  0
 18 21  1  0  0  0  0
 18 20  1  0  0  0  0
 18 17  1  1  0  0  0
 19 22  1  0  0  0  0
 21 19  2  0  0  0  0
 24 23  1  1  0  0  0
 24 20  1  0  0  0  0
 24 22  1  0  0  0  0
 25 29  2  0  0  0  0
 26 30  2  0  0  0  0
 28 29  1  0  0  0  0
 29 27  1  0  0  0  0
 30 28  1  0  0  0  0
 32 33  1  0  0  0  0
 34 32  2  0  0  0  0
 35 31  1  6  0  0  0
 35 37  1  0  0  0  0
 35 34  1  0  0  0  0
 36 33  1  0  0  0  0
 37 36  2  0  0  0  0
 39 38  2  0  0  0  0
 39 37  1  0  0  0  0
 40 38  1  0  0  0  0
 41 40  1  0  0  0  0
 42 47  1  1  0  0  0
 43 45  1  0  0  0  0
 43 46  1  0  0  0  0
 44 42  1  0  0  0  0
 45 41  1  6  0  0  0
 45 44  1  0  0  0  0
 46 42  1  0  0  0  0
 47 48  1  0  0  0  0
 48 50  1  0  0  0  0
 50 49  1  1  0  0  0
 50 51  1  0  0  0  0
 51 54  1  0  0  0  0
 53 54  1  0  0  0  0
 54 52  1  0  0  0  0
 55 56  1  0  0  0  0
 55 48  1  0  0  0  0
M  END
>  <MODEL>
9

>  <REMARK>
 VINA RESULT:      -6.1      2.146      3.024
  Name = 
  17 active torsions:
  status: ('A' for Active; 'I' for Inactive)
    1  A    between atoms: C_2  and  C_31
    2  A    between atoms: C_4  and  C_51
    3  A    between atoms: C_12  and  C_22
    4  A    between atoms: C_12  and  C_43
    5  A    between atoms: C_13  and  C_41
    6  A    between atoms: C_21  and  C_23
    7  A    between atoms: C_21  and  C_45
    8  A    between atoms: C_26  and  C_31
    9  A    between atoms: C_31  and  C_49
   10  A    between atoms: C_32  and  C_33
   11  A    between atoms: C_32  and  C_52
   12  A    between atoms: C_33  and  N_55
   13  A    between atoms: C_35  and  N_55
   14  A    between atoms: C_38  and  C_39
   15  A    between atoms: C_45  and  C_48
   16  A    between atoms: C_47  and  N_54
   17  A    between atoms: C_51  and  N_55
                            x       y       z     vdW  Elec       q    Type
                         _______ _______ _______ _____ _____    ______ ____

>  <TORSDO>
F 17

$$$$
