=
 OpenBabel11042409573D

 38 43  0  0  1  0  0  0  0  0999 V2000
  185.1620  178.5030  145.8970 C   0  0  0  0  0  3  0  0  0  0  0  0
  183.4270  179.1360  139.7160 C   0  0  1  0  0  3  0  0  0  0  0  0
  186.0220  178.4730  142.2700 C   0  0  0  0  0  0  0  0  0  0  0  0
  185.3030  178.6830  141.0790 C   0  0  0  0  0  0  0  0  0  0  0  0
  183.9680  178.9610  141.0960 C   0  0  0  0  0  0  0  0  0  0  0  0
  184.7050  178.9820  138.8540 C   0  0  0  0  0  3  0  0  0  0  0  0
  183.9140  178.8920  143.4480 C   0  0  0  0  0  0  0  0  0  0  0  0
  183.2060  179.0030  144.6450 C   0  0  0  0  0  3  0  0  0  0  0  0
  183.2780  179.0810  142.2590 N   0  0  0  0  0  0  0  0  0  0  0  0
  185.9160  178.3830  144.7280 C   0  0  0  0  0  3  0  0  0  0  0  0
  185.3000  178.5760  143.4830 C   0  0  0  0  0  0  0  0  0  0  0  0
  185.8070  178.6630  139.7610 N   0  0  0  0  0  0  0  0  0  0  0  0
  183.8380  178.8070  145.8330 N   0  0  0  0  0  0  0  0  0  0  0  0
  180.0230  177.6170  138.6520 C   0  0  0  0  0  3  0  0  0  0  0  0
  180.8690  175.4180  139.5310 C   0  0  2  0  0  3  0  0  0  0  0  0
  180.6840  174.0790  139.1900 O   0  0  0  0  0  1  0  0  0  0  0  0
  182.6280  176.9020  140.1460 O   0  0  0  0  0  0  0  0  0  0  0  0
  179.9940  176.2750  138.6620 C   0  0  0  0  0  3  0  0  0  0  0  0
  182.3340  175.7870  139.3530 C   0  0  0  0  0  2  0  0  0  0  0  0
  182.4170  178.0330  139.3390 C   0  0  1  0  0  3  0  0  0  0  0  0
  180.9380  178.4630  139.5010 C   0  0  1  0  0  3  0  0  0  0  0  0
  180.0830  180.7440  140.0300 C   0  0  0  0  0  3  0  0  0  0  0  0
  180.7080  179.8760  139.2160 N   0  0  0  0  0  0  0  0  0  0  0  0
  181.0830  180.5060  138.1160 N   0  0  0  0  0  0  0  0  0  0  0  0
  180.0450  181.9690  139.4660 N   0  0  0  0  0  0  0  0  0  0  0  0
  180.8920  182.8520  137.2870 C   0  0  0  0  0  1  0  0  0  0  0  0
  180.6730  181.7750  138.2870 C   0  0  0  0  0  0  0  0  0  0  0  0
  187.4680  178.1500  142.2920 C   0  0  0  0  0  3  0  0  0  0  0  0
  187.9610  176.9570  142.6110 C   0  0  0  0  0  3  0  0  0  0  0  0
  189.4330  176.7300  142.6200 C   0  0  1  0  0  3  0  0  0  0  0  0
  189.9540  176.9100  141.3380 O   0  0  0  0  0  1  0  0  0  0  0  0
  190.5280  178.7430  143.2040 O   0  0  0  0  0  0  0  0  0  0  0  0
  190.1030  177.6620  143.5840 C   0  0  0  0  0  0  0  0  0  0  0  0
  190.2900  177.2490  145.0120 C   0  0  0  0  0  0  0  0  0  0  0  0
  189.7610  178.1590  146.0990 C   0  0  0  0  0  2  0  0  0  0  0  0
  189.0380  176.8570  145.7630 C   0  0  0  0  0  2  0  0  0  0  0  0
  191.4570  176.4550  145.3670 N   0  0  0  0  0  2  0  0  0  0  0  0
  191.9060  176.9050  146.5640 O   0  0  0  0  0  1  0  0  0  0  0  0
  2  6  1  6  0  0  0
  2  5  1  0  0  0  0
  3 28  1  0  0  0  0
  3 11  1  0  0  0  0
  4  5  1  0  0  0  0
  4  3  2  0  0  0  0
  5  9  2  0  0  0  0
  6 12  2  0  0  0  0
  7 11  2  0  0  0  0
  7  8  1  0  0  0  0
  8 13  2  0  0  0  0
  9  7  1  0  0  0  0
 10  1  2  0  0  0  0
 11 10  1  0  0  0  0
 12  4  1  0  0  0  0
 13  1  1  0  0  0  0
 14 18  2  0  0  0  0
 15 16  1  6  0  0  0
 18 15  1  0  0  0  0
 19 15  1  0  0  0  0
 19 17  1  0  0  0  0
 20 21  1  0  0  0  0
 20  2  1  0  0  0  0
 20 17  1  1  0  0  0
 21 14  1  6  0  0  0
 23 21  1  0  0  0  0
 23 22  1  0  0  0  0
 24 27  2  0  0  0  0
 24 23  1  0  0  0  0
 25 22  2  0  0  0  0
 26 27  1  0  0  0  0
 27 25  1  0  0  0  0
 28 29  2  0  0  0  0
 29 30  1  0  0  0  0
 30 31  1  6  0  0  0
 30 33  1  0  0  0  0
 32 33  2  0  0  0  0
 33 34  1  0  0  0  0
 34 37  1  0  0  0  0
 34 36  1  0  0  0  0
 34 35  1  0  0  0  0
 36 35  1  0  0  0  0
 37 38  1  0  0  0  0
M  END
>  <MODEL>
1

>  <REMARK>
 VINA RESULT:      -8.8      0.000      0.000
  Name = 
  7 active torsions:
  status: ('A' for Active; 'I' for Inactive)
    1  A    between atoms: N_5  and  C_37
    2  A    between atoms: C_6  and  N_12
    3  A    between atoms: C_6  and  C_15
    4  A    between atoms: C_7  and  C_16
    5  A    between atoms: C_10  and  C_36
    6  A    between atoms: C_13  and  C_15
    7  A    between atoms: C_13  and  C_26
                            x       y       z     vdW  Elec       q    Type
                         _______ _______ _______ _____ _____    ______ ____

>  <TORSDO>
F 7

$$$$
=
 OpenBabel11042409573D

 38 43  0  0  1  0  0  0  0  0999 V2000
  183.7850  178.7460  144.9830 C   0  0  0  0  0  3  0  0  0  0  0  0
  183.7530  178.7980  138.5320 C   0  0  1  0  0  3  0  0  0  0  0  0
  185.6030  178.6080  141.7320 C   0  0  0  0  0  0  0  0  0  0  0  0
  185.2200  178.6590  140.3790 C   0  0  0  0  0  0  0  0  0  0  0  0
  183.9100  178.7720  140.0160 C   0  0  0  0  0  0  0  0  0  0  0  0
  185.2260  178.7520  138.0570 C   0  0  0  0  0  3  0  0  0  0  0  0
  183.2220  178.8340  142.2660 C   0  0  0  0  0  0  0  0  0  0  0  0
  182.2060  178.9270  143.2180 C   0  0  0  0  0  3  0  0  0  0  0  0
  182.9190  178.8740  140.9390 N   0  0  0  0  0  0  0  0  0  0  0  0
  184.8380  178.6500  144.0700 C   0  0  0  0  0  3  0  0  0  0  0  0
  184.5700  178.6930  142.6950 C   0  0  0  0  0  0  0  0  0  0  0  0
  186.0640  178.6240  139.2490 N   0  0  0  0  0  0  0  0  0  0  0  0
  182.5060  178.8810  144.5430 N   0  0  0  0  0  0  0  0  0  0  0  0
  180.8420  176.7880  136.9450 C   0  0  0  0  0  3  0  0  0  0  0  0
  181.8790  174.7290  137.9480 C   0  0  2  0  0  3  0  0  0  0  0  0
  181.9650  173.3870  137.5830 O   0  0  0  0  0  1  0  0  0  0  0  0
  183.2610  176.4560  138.8320 O   0  0  0  0  0  0  0  0  0  0  0  0
  181.0250  175.4590  136.9510 C   0  0  0  0  0  3  0  0  0  0  0  0
  183.2770  175.3290  138.0030 C   0  0  0  0  0  2  0  0  0  0  0  0
  183.0020  177.5590  138.0020 C   0  0  1  0  0  3  0  0  0  0  0  0
  181.4660  177.7470  137.9270 C   0  0  1  0  0  3  0  0  0  0  0  0
  181.0420  179.6530  136.3780 C   0  0  0  0  0  3  0  0  0  0  0  0
  181.0620  179.1130  137.6080 N   0  0  0  0  0  0  0  0  0  0  0  0
  180.6550  180.0150  138.4840 N   0  0  0  0  0  0  0  0  0  0  0  0
  180.6130  180.9300  136.4350 N   0  0  0  0  0  0  0  0  0  0  0  0
  179.8860  182.3840  138.3330 C   0  0  0  0  0  1  0  0  0  0  0  0
  180.3860  181.1110  137.7530 C   0  0  0  0  0  0  0  0  0  0  0  0
  187.0130  178.4670  142.1650 C   0  0  0  0  0  3  0  0  0  0  0  0
  187.5110  177.3750  142.7360 C   0  0  0  0  0  3  0  0  0  0  0  0
  188.9410  177.3300  143.1520 C   0  0  1  0  0  3  0  0  0  0  0  0
  189.6550  178.3540  142.5290 O   0  0  0  0  0  1  0  0  0  0  0  0
  188.1190  177.8690  145.3030 O   0  0  0  0  0  0  0  0  0  0  0  0
  189.0590  177.4520  144.6410 C   0  0  0  0  0  0  0  0  0  0  0  0
  190.3480  177.1020  145.3190 C   0  0  0  0  0  0  0  0  0  0  0  0
  191.3730  176.3010  144.5460 C   0  0  0  0  0  2  0  0  0  0  0  0
  191.5870  177.7920  144.7950 C   0  0  0  0  0  2  0  0  0  0  0  0
  190.3530  176.9070  146.7620 N   0  0  0  0  0  2  0  0  0  0  0  0
  191.6480  176.8640  147.1610 O   0  0  0  0  0  1  0  0  0  0  0  0
  2  6  1  6  0  0  0
  2  5  1  0  0  0  0
  3 28  1  0  0  0  0
  3 11  1  0  0  0  0
  4  3  2  0  0  0  0
  5  4  1  0  0  0  0
  5  9  2  0  0  0  0
  6 12  2  0  0  0  0
  7 11  2  0  0  0  0
  7  8  1  0  0  0  0
  8 13  2  0  0  0  0
  9  7  1  0  0  0  0
 10  1  2  0  0  0  0
 11 10  1  0  0  0  0
 12  4  1  0  0  0  0
 13  1  1  0  0  0  0
 14 18  2  0  0  0  0
 15 16  1  6  0  0  0
 15 19  1  0  0  0  0
 18 15  1  0  0  0  0
 19 17  1  0  0  0  0
 20  2  1  0  0  0  0
 20 17  1  1  0  0  0
 21 14  1  6  0  0  0
 21 20  1  0  0  0  0
 22 25  2  0  0  0  0
 22 23  1  0  0  0  0
 23 21  1  0  0  0  0
 23 24  1  0  0  0  0
 25 27  1  0  0  0  0
 27 26  1  0  0  0  0
 27 24  2  0  0  0  0
 28 29  2  0  0  0  0
 29 30  1  0  0  0  0
 30 31  1  6  0  0  0
 30 33  1  0  0  0  0
 33 32  2  0  0  0  0
 33 34  1  0  0  0  0
 34 37  1  0  0  0  0
 35 36  1  0  0  0  0
 35 34  1  0  0  0  0
 36 34  1  0  0  0  0
 37 38  1  0  0  0  0
M  END
>  <MODEL>
2

>  <REMARK>
 VINA RESULT:      -7.9      1.476      1.789
  Name = 
  7 active torsions:
  status: ('A' for Active; 'I' for Inactive)
    1  A    between atoms: N_5  and  C_37
    2  A    between atoms: C_6  and  N_12
    3  A    between atoms: C_6  and  C_15
    4  A    between atoms: C_7  and  C_16
    5  A    between atoms: C_10  and  C_36
    6  A    between atoms: C_13  and  C_15
    7  A    between atoms: C_13  and  C_26
                            x       y       z     vdW  Elec       q    Type
                         _______ _______ _______ _____ _____    ______ ____

>  <TORSDO>
F 7

$$$$
=
 OpenBabel11042409573D

 38 43  0  0  1  0  0  0  0  0999 V2000
  188.2660  178.5530  139.9770 C   0  0  0  0  0  3  0  0  0  0  0  0
  181.8280  178.2240  139.7200 C   0  0  1  0  0  3  0  0  0  0  0  0
  184.9380  178.8030  141.6390 C   0  0  0  0  0  0  0  0  0  0  0  0
  183.6060  178.6430  141.2180 C   0  0  0  0  0  0  0  0  0  0  0  0
  183.3020  178.3340  139.9250 C   0  0  0  0  0  0  0  0  0  0  0  0
  181.2900  178.4530  141.1540 C   0  0  0  0  0  3  0  0  0  0  0  0
  185.5790  178.2720  139.3340 C   0  0  0  0  0  0  0  0  0  0  0  0
  186.5750  178.0800  138.3760 C   0  0  0  0  0  3  0  0  0  0  0  0
  184.2680  178.1350  138.9920 N   0  0  0  0  0  0  0  0  0  0  0  0
  187.3070  178.7550  140.9720 C   0  0  0  0  0  3  0  0  0  0  0  0
  185.9470  178.6170  140.6630 C   0  0  0  0  0  0  0  0  0  0  0  0
  182.4410  178.7460  142.0090 N   0  0  0  0  0  0  0  0  0  0  0  0
  187.8840  178.2240  138.7140 N   0  0  0  0  0  0  0  0  0  0  0  0
  180.3870  179.7580  136.4640 C   0  0  0  0  0  3  0  0  0  0  0  0
  181.1320  181.9960  137.3340 C   0  0  2  0  0  3  0  0  0  0  0  0
  180.6640  183.3050  137.2290 O   0  0  0  0  0  1  0  0  0  0  0  0
  182.0030  180.5130  138.9830 O   0  0  0  0  0  0  0  0  0  0  0  0
  180.2790  181.0950  136.4890 C   0  0  0  0  0  3  0  0  0  0  0  0
  181.0960  181.5620  138.7930 C   0  0  0  0  0  2  0  0  0  0  0  0
  181.2830  179.3230  138.7850 C   0  0  1  0  0  3  0  0  0  0  0  0
  181.3720  178.9600  137.2810 C   0  0  1  0  0  3  0  0  0  0  0  0
  180.0320  176.8650  137.1020 C   0  0  0  0  0  3  0  0  0  0  0  0
  181.1940  177.5360  137.0140 N   0  0  0  0  0  0  0  0  0  0  0  0
  182.1500  176.7000  136.6470 N   0  0  0  0  0  0  0  0  0  0  0  0
  180.2170  175.5680  136.7850 N   0  0  0  0  0  0  0  0  0  0  0  0
  182.2380  174.2680  136.0980 C   0  0  0  0  0  1  0  0  0  0  0  0
  181.5370  175.5110  136.5110 C   0  0  0  0  0  0  0  0  0  0  0  0
  185.3070  179.1570  143.0300 C   0  0  0  0  0  3  0  0  0  0  0  0
  185.3500  178.2870  144.0340 C   0  0  0  0  0  3  0  0  0  0  0  0
  185.7200  178.7390  145.4050 C   0  0  1  0  0  3  0  0  0  0  0  0
  184.6090  178.6770  146.2470 O   0  0  0  0  0  1  0  0  0  0  0  0
  186.8990  177.6690  147.1540 O   0  0  0  0  0  0  0  0  0  0  0  0
  186.8300  177.8960  145.9540 C   0  0  0  0  0  0  0  0  0  0  0  0
  187.8860  177.3610  145.0350 C   0  0  0  0  0  0  0  0  0  0  0  0
  189.0580  178.2530  144.6910 C   0  0  0  0  0  2  0  0  0  0  0  0
  189.2360  177.0840  145.6580 C   0  0  0  0  0  2  0  0  0  0  0  0
  187.5050  176.3980  144.0120 N   0  0  0  0  0  2  0  0  0  0  0  0
  188.5680  176.2430  143.1850 O   0  0  0  0  0  1  0  0  0  0  0  0
  1 10  1  0  0  0  0
  2  5  1  0  0  0  0
  2  6  1  1  0  0  0
  3 28  1  0  0  0  0
  4  3  2  0  0  0  0
  4 12  1  0  0  0  0
  5  4  1  0  0  0  0
  6 12  2  0  0  0  0
  7 11  1  0  0  0  0
  8 13  1  0  0  0  0
  8  7  2  0  0  0  0
  9  7  1  0  0  0  0
  9  5  2  0  0  0  0
 11 10  2  0  0  0  0
 11  3  1  0  0  0  0
 13  1  2  0  0  0  0
 14 18  2  0  0  0  0
 15 16  1  1  0  0  0
 15 19  1  0  0  0  0
 18 15  1  0  0  0  0
 19 17  1  0  0  0  0
 20 17  1  6  0  0  0
 20  2  1  0  0  0  0
 21 14  1  6  0  0  0
 21 20  1  0  0  0  0
 23 22  1  0  0  0  0
 23 21  1  0  0  0  0
 24 23  1  0  0  0  0
 25 22  2  0  0  0  0
 26 27  1  0  0  0  0
 27 24  2  0  0  0  0
 27 25  1  0  0  0  0
 28 29  2  0  0  0  0
 29 30  1  0  0  0  0
 30 33  1  0  0  0  0
 30 31  1  1  0  0  0
 33 32  2  0  0  0  0
 34 36  1  0  0  0  0
 34 33  1  0  0  0  0
 35 34  1  0  0  0  0
 35 36  1  0  0  0  0
 37 34  1  0  0  0  0
 38 37  1  0  0  0  0
M  END
>  <MODEL>
3

>  <REMARK>
 VINA RESULT:      -7.8      2.787      4.897
  Name = 
  7 active torsions:
  status: ('A' for Active; 'I' for Inactive)
    1  A    between atoms: N_5  and  C_37
    2  A    between atoms: C_6  and  N_12
    3  A    between atoms: C_6  and  C_15
    4  A    between atoms: C_7  and  C_16
    5  A    between atoms: C_10  and  C_36
    6  A    between atoms: C_13  and  C_15
    7  A    between atoms: C_13  and  C_26
                            x       y       z     vdW  Elec       q    Type
                         _______ _______ _______ _____ _____    ______ ____

>  <TORSDO>
F 7

$$$$
=
 OpenBabel11042409573D

 38 43  0  0  1  0  0  0  0  0999 V2000
  185.0270  178.5340  145.7560 C   0  0  0  0  0  3  0  0  0  0  0  0
  183.4650  179.0040  139.5140 C   0  0  1  0  0  3  0  0  0  0  0  0
  185.9700  178.3340  142.1550 C   0  0  0  0  0  0  0  0  0  0  0  0
  185.2880  178.5290  140.9400 C   0  0  0  0  0  0  0  0  0  0  0  0
  183.9660  178.8600  140.9130 C   0  0  0  0  0  0  0  0  0  0  0  0
  184.7550  178.7680  138.6910 C   0  0  0  0  0  3  0  0  0  0  0  0
  183.8530  178.8810  143.2640 C   0  0  0  0  0  0  0  0  0  0  0  0
  183.1220  179.0640  144.4380 C   0  0  0  0  0  3  0  0  0  0  0  0
  183.2530  179.0500  142.0540 N   0  0  0  0  0  0  0  0  0  0  0  0
  185.8020  178.3400  144.6110 C   0  0  0  0  0  3  0  0  0  0  0  0
  185.2240  178.5110  143.3450 C   0  0  0  0  0  0  0  0  0  0  0  0
  185.8220  178.4400  139.6360 N   0  0  0  0  0  0  0  0  0  0  0  0
  183.7180  178.8880  145.6480 N   0  0  0  0  0  0  0  0  0  0  0  0
  180.0320  177.5840  138.4060 C   0  0  0  0  0  3  0  0  0  0  0  0
  180.7540  175.3930  139.4060 C   0  0  2  0  0  3  0  0  0  0  0  0
  180.5220  174.0490  139.1180 O   0  0  0  0  0  1  0  0  0  0  0  0
  182.5560  176.8280  140.0150 O   0  0  0  0  0  0  0  0  0  0  0  0
  179.9440  176.2460  138.4730 C   0  0  0  0  0  3  0  0  0  0  0  0
  182.2390  175.6920  139.2610 C   0  0  0  0  0  2  0  0  0  0  0  0
  182.4200  177.9290  139.1530 C   0  0  1  0  0  3  0  0  0  0  0  0
  180.9560  178.4280  139.2470 C   0  0  1  0  0  3  0  0  0  0  0  0
  180.4500  180.8180  139.7430 C   0  0  0  0  0  3  0  0  0  0  0  0
  180.7970  179.8360  138.8940 N   0  0  0  0  0  0  0  0  0  0  0  0
  180.9730  180.3470  137.6880 N   0  0  0  0  0  0  0  0  0  0  0  0
  180.3970  181.9990  139.0930 N   0  0  0  0  0  0  0  0  0  0  0  0
  180.8140  182.6380  136.7140 C   0  0  0  0  0  1  0  0  0  0  0  0
  180.7270  181.6610  137.8300 C   0  0  0  0  0  0  0  0  0  0  0  0
  187.4000  177.9550  142.2250 C   0  0  0  0  0  3  0  0  0  0  0  0
  188.4050  178.8240  142.1820 C   0  0  0  0  0  3  0  0  0  0  0  0
  189.8150  178.3470  142.2450 C   0  0  1  0  0  3  0  0  0  0  0  0
  190.2000  178.1600  143.5730 O   0  0  0  0  0  1  0  0  0  0  0  0
  189.7880  175.9920  142.0280 O   0  0  0  0  0  0  0  0  0  0  0  0
  189.9710  177.0690  141.4780 C   0  0  0  0  0  0  0  0  0  0  0  0
  190.3960  177.1080  140.0420 C   0  0  0  0  0  0  0  0  0  0  0  0
  189.5110  176.4400  139.0120 C   0  0  0  0  0  2  0  0  0  0  0  0
  189.5550  177.9630  139.1200 C   0  0  0  0  0  2  0  0  0  0  0  0
  191.8170  177.1350  139.7300 N   0  0  0  0  0  2  0  0  0  0  0  0
  191.9560  176.7500  138.4370 O   0  0  0  0  0  1  0  0  0  0  0  0
  2  6  1  6  0  0  0
  2  5  1  0  0  0  0
  3 28  1  0  0  0  0
  3 11  1  0  0  0  0
  4  3  2  0  0  0  0
  5  4  1  0  0  0  0
  5  9  2  0  0  0  0
  6 12  2  0  0  0  0
  7 11  2  0  0  0  0
  7  8  1  0  0  0  0
  8 13  2  0  0  0  0
  9  7  1  0  0  0  0
 10  1  2  0  0  0  0
 11 10  1  0  0  0  0
 12  4  1  0  0  0  0
 13  1  1  0  0  0  0
 14 18  2  0  0  0  0
 15 16  1  6  0  0  0
 18 15  1  0  0  0  0
 19 15  1  0  0  0  0
 19 17  1  0  0  0  0
 20 21  1  0  0  0  0
 20  2  1  0  0  0  0
 20 17  1  1  0  0  0
 21 14  1  6  0  0  0
 23 21  1  0  0  0  0
 23 22  1  0  0  0  0
 24 27  2  0  0  0  0
 24 23  1  0  0  0  0
 25 22  2  0  0  0  0
 26 27  1  0  0  0  0
 27 25  1  0  0  0  0
 29 28  2  0  0  0  0
 29 30  1  0  0  0  0
 30 31  1  1  0  0  0
 33 32  2  0  0  0  0
 33 30  1  0  0  0  0
 34 33  1  0  0  0  0
 35 36  1  0  0  0  0
 35 34  1  0  0  0  0
 36 34  1  0  0  0  0
 37 34  1  0  0  0  0
 38 37  1  0  0  0  0
M  END
>  <MODEL>
4

>  <REMARK>
 VINA RESULT:      -7.7      1.570      2.576
  Name = 
  7 active torsions:
  status: ('A' for Active; 'I' for Inactive)
    1  A    between atoms: N_5  and  C_37
    2  A    between atoms: C_6  and  N_12
    3  A    between atoms: C_6  and  C_15
    4  A    between atoms: C_7  and  C_16
    5  A    between atoms: C_10  and  C_36
    6  A    between atoms: C_13  and  C_15
    7  A    between atoms: C_13  and  C_26
                            x       y       z     vdW  Elec       q    Type
                         _______ _______ _______ _____ _____    ______ ____

>  <TORSDO>
F 7

$$$$
=
 OpenBabel11042409573D

 38 43  0  0  1  0  0  0  0  0999 V2000
  186.3950  178.7320  140.9080 C   0  0  0  0  0  3  0  0  0  0  0  0
  191.5660  176.7210  137.6150 C   0  0  1  0  0  3  0  0  0  0  0  0
  189.9800  177.7150  140.8080 C   0  0  0  0  0  0  0  0  0  0  0  0
  190.8650  177.3000  139.7960 C   0  0  0  0  0  0  0  0  0  0  0  0
  190.4560  177.1830  138.5000 C   0  0  0  0  0  0  0  0  0  0  0  0
  192.7520  176.6470  138.6080 C   0  0  0  0  0  3  0  0  0  0  0  0
  188.2840  177.9020  139.0490 C   0  0  0  0  0  0  0  0  0  0  0  0
  186.9780  178.2090  138.6640 C   0  0  0  0  0  3  0  0  0  0  0  0
  189.1900  177.4910  138.1200 N   0  0  0  0  0  0  0  0  0  0  0  0
  187.6890  178.4370  141.3430 C   0  0  0  0  0  3  0  0  0  0  0  0
  188.6540  178.0170  140.4170 C   0  0  0  0  0  0  0  0  0  0  0  0
  192.2320  176.9760  139.9350 N   0  0  0  0  0  0  0  0  0  0  0  0
  186.0700  178.6130  139.5920 N   0  0  0  0  0  0  0  0  0  0  0  0
  192.2500  173.5390  135.5080 C   0  0  0  0  0  3  0  0  0  0  0  0
  189.7880  173.0520  135.6690 C   0  0  2  0  0  3  0  0  0  0  0  0
  189.0090  171.8980  135.7240 O   0  0  0  0  0  1  0  0  0  0  0  0
  189.9360  175.1860  136.7180 O   0  0  0  0  0  0  0  0  0  0  0  0
  191.2270  172.6700  135.4800 C   0  0  0  0  0  3  0  0  0  0  0  0
  189.6050  173.8470  136.9540 C   0  0  0  0  0  2  0  0  0  0  0  0
  191.3010  175.3200  137.0270 C   0  0  1  0  0  3  0  0  0  0  0  0
  192.1100  175.0230  135.7390 C   0  0  1  0  0  3  0  0  0  0  0  0
  194.5180  175.1920  136.3600 C   0  0  0  0  0  3  0  0  0  0  0  0
  193.4280  175.6510  135.7220 N   0  0  0  0  0  0  0  0  0  0  0  0
  193.7390  176.7600  135.0760 N   0  0  0  0  0  0  0  0  0  0  0  0
  195.5690  176.0050  136.1320 N   0  0  0  0  0  0  0  0  0  0  0  0
  195.8240  178.1030  134.7980 C   0  0  0  0  0  1  0  0  0  0  0  0
  195.0430  176.9580  135.3350 C   0  0  0  0  0  0  0  0  0  0  0  0
  190.3810  177.8360  142.2290 C   0  0  0  0  0  3  0  0  0  0  0  0
  190.4880  176.8080  143.0640 C   0  0  0  0  0  3  0  0  0  0  0  0
  190.8850  177.0290  144.4830 C   0  0  1  0  0  3  0  0  0  0  0  0
  191.5050  178.2710  144.6200 O   0  0  0  0  0  1  0  0  0  0  0  0
  188.5780  176.7410  144.9140 O   0  0  0  0  0  0  0  0  0  0  0  0
  189.6880  176.9480  145.3810 C   0  0  0  0  0  0  0  0  0  0  0  0
  189.8460  177.1660  146.8550 C   0  0  0  0  0  0  0  0  0  0  0  0
  189.0170  178.2440  147.5170 C   0  0  0  0  0  2  0  0  0  0  0  0
  188.6690  176.7710  147.7180 C   0  0  0  0  0  2  0  0  0  0  0  0
  191.1380  176.8970  147.4710 N   0  0  0  0  0  2  0  0  0  0  0  0
  191.3940  175.5740  147.3150 O   0  0  0  0  0  1  0  0  0  0  0  0
  1 10  1  0  0  0  0
  2  5  1  0  0  0  0
  2  6  1  1  0  0  0
  3 28  1  0  0  0  0
  4 12  1  0  0  0  0
  4  3  2  0  0  0  0
  5  4  1  0  0  0  0
  6 12  2  0  0  0  0
  7 11  1  0  0  0  0
  8  7  2  0  0  0  0
  8 13  1  0  0  0  0
  9  5  2  0  0  0  0
  9  7  1  0  0  0  0
 11  3  1  0  0  0  0
 11 10  2  0  0  0  0
 13  1  2  0  0  0  0
 15 16  1  1  0  0  0
 15 19  1  0  0  0  0
 17 19  1  0  0  0  0
 18 14  2  0  0  0  0
 18 15  1  0  0  0  0
 20 17  1  6  0  0  0
 20  2  1  0  0  0  0
 21 14  1  1  0  0  0
 21 20  1  0  0  0  0
 23 21  1  0  0  0  0
 23 22  1  0  0  0  0
 24 27  2  0  0  0  0
 24 23  1  0  0  0  0
 25 22  2  0  0  0  0
 26 27  1  0  0  0  0
 27 25  1  0  0  0  0
 28 29  2  0  0  0  0
 29 30  1  0  0  0  0
 30 31  1  6  0  0  0
 30 33  1  0  0  0  0
 32 33  2  0  0  0  0
 33 34  1  0  0  0  0
 34 37  1  0  0  0  0
 34 35  1  0  0  0  0
 34 36  1  0  0  0  0
 35 36  1  0  0  0  0
 38 37  1  0  0  0  0
M  END
>  <MODEL>
5

>  <REMARK>
 VINA RESULT:      -7.6      5.482      8.743
  Name = 
  7 active torsions:
  status: ('A' for Active; 'I' for Inactive)
    1  A    between atoms: N_5  and  C_37
    2  A    between atoms: C_6  and  N_12
    3  A    between atoms: C_6  and  C_15
    4  A    between atoms: C_7  and  C_16
    5  A    between atoms: C_10  and  C_36
    6  A    between atoms: C_13  and  C_15
    7  A    between atoms: C_13  and  C_26
                            x       y       z     vdW  Elec       q    Type
                         _______ _______ _______ _____ _____    ______ ____

>  <TORSDO>
F 7

$$$$
=
 OpenBabel11042409573D

 38 43  0  0  1  0  0  0  0  0999 V2000
  186.1900  178.0540  145.3760 C   0  0  0  0  0  3  0  0  0  0  0  0
  182.7500  179.3490  140.0740 C   0  0  1  0  0  3  0  0  0  0  0  0
  186.0060  178.6960  141.7090 C   0  0  0  0  0  0  0  0  0  0  0  0
  184.9660  178.9760  140.8030 C   0  0  0  0  0  0  0  0  0  0  0  0
  183.6680  179.0500  141.2120 C   0  0  0  0  0  0  0  0  0  0  0  0
  183.7460  179.5160  138.9000 C   0  0  0  0  0  3  0  0  0  0  0  0
  184.2770  178.6200  143.4450 C   0  0  0  0  0  0  0  0  0  0  0  0
  183.9220  178.4440  144.7830 C   0  0  0  0  0  3  0  0  0  0  0  0
  183.3200  178.8900  142.5150 N   0  0  0  0  0  0  0  0  0  0  0  0
  186.5960  178.2230  144.0510 C   0  0  0  0  0  3  0  0  0  0  0  0
  185.6420  178.5090  143.0640 C   0  0  0  0  0  0  0  0  0  0  0  0
  185.0830  179.2290  139.4190 N   0  0  0  0  0  0  0  0  0  0  0  0
  184.8760  178.1670  145.7110 N   0  0  0  0  0  0  0  0  0  0  0  0
  179.3550  177.5160  139.6910 C   0  0  0  0  0  3  0  0  0  0  0  0
  180.6410  175.3610  139.8490 C   0  0  2  0  0  3  0  0  0  0  0  0
  180.5010  174.0830  139.3100 O   0  0  0  0  0  1  0  0  0  0  0  0
  182.3430  176.9790  140.2490 O   0  0  0  0  0  0  0  0  0  0  0  0
  179.4670  176.2020  139.4400 C   0  0  0  0  0  3  0  0  0  0  0  0
  181.9440  175.9760  139.3580 C   0  0  0  0  0  2  0  0  0  0  0  0
  181.7910  178.1800  139.7730 C   0  0  1  0  0  3  0  0  0  0  0  0
  180.3890  178.3430  140.4120 C   0  0  1  0  0  3  0  0  0  0  0  0
  179.7080  180.4130  141.6240 C   0  0  0  0  0  3  0  0  0  0  0  0
  179.9430  179.7320  140.4890 N   0  0  0  0  0  0  0  0  0  0  0  0
  179.7090  180.5190  139.4540 N   0  0  0  0  0  0  0  0  0  0  0  0
  179.3140  181.6710  141.3390 N   0  0  0  0  0  0  0  0  0  0  0  0
  178.9700  182.8870  139.1830 C   0  0  0  0  0  1  0  0  0  0  0  0
  179.3290  181.6920  139.9900 C   0  0  0  0  0  0  0  0  0  0  0  0
  187.4250  178.5890  141.2990 C   0  0  0  0  0  3  0  0  0  0  0  0
  187.8550  177.8420  140.2870 C   0  0  0  0  0  3  0  0  0  0  0  0
  189.3070  177.7860  139.9580 C   0  0  1  0  0  3  0  0  0  0  0  0
  189.9410  176.8240  140.7450 O   0  0  0  0  0  1  0  0  0  0  0  0
  190.6240  177.2670  138.0630 O   0  0  0  0  0  0  0  0  0  0  0  0
  189.5030  177.4740  138.5050 C   0  0  0  0  0  0  0  0  0  0  0  0
  188.3240  177.4550  137.5800 C   0  0  0  0  0  0  0  0  0  0  0  0
  188.4130  176.6270  136.3180 C   0  0  0  0  0  2  0  0  0  0  0  0
  187.5630  176.1520  137.4940 C   0  0  0  0  0  2  0  0  0  0  0  0
  187.4750  178.6350  137.5020 N   0  0  0  0  0  2  0  0  0  0  0  0
  188.2580  179.6750  137.1250 O   0  0  0  0  0  1  0  0  0  0  0  0
  1 13  1  0  0  0  0
  2  6  1  6  0  0  0
  2  5  1  0  0  0  0
  3 11  1  0  0  0  0
  4  5  1  0  0  0  0
  4  3  2  0  0  0  0
  5  9  2  0  0  0  0
  6 12  2  0  0  0  0
  7  8  1  0  0  0  0
  8 13  2  0  0  0  0
  9  7  1  0  0  0  0
 10  1  2  0  0  0  0
 11  7  2  0  0  0  0
 11 10  1  0  0  0  0
 12  4  1  0  0  0  0
 15 16  1  6  0  0  0
 18 14  2  0  0  0  0
 18 15  1  0  0  0  0
 19 15  1  0  0  0  0
 19 17  1  0  0  0  0
 20  2  1  0  0  0  0
 20 17  1  1  0  0  0
 20 21  1  0  0  0  0
 21 14  1  6  0  0  0
 21 23  1  0  0  0  0
 23 22  1  0  0  0  0
 24 27  2  0  0  0  0
 24 23  1  0  0  0  0
 25 22  2  0  0  0  0
 26 27  1  0  0  0  0
 27 25  1  0  0  0  0
 28  3  1  0  0  0  0
 29 28  2  0  0  0  0
 30 29  1  0  0  0  0
 30 31  1  1  0  0  0
 32 33  2  0  0  0  0
 33 30  1  0  0  0  0
 34 33  1  0  0  0  0
 35 36  1  0  0  0  0
 35 34  1  0  0  0  0
 36 34  1  0  0  0  0
 37 34  1  0  0  0  0
 38 37  1  0  0  0  0
M  END
>  <MODEL>
6

>  <REMARK>
 VINA RESULT:      -7.2      2.258      3.741
  Name = 
  7 active torsions:
  status: ('A' for Active; 'I' for Inactive)
    1  A    between atoms: N_5  and  C_37
    2  A    between atoms: C_6  and  N_12
    3  A    between atoms: C_6  and  C_15
    4  A    between atoms: C_7  and  C_16
    5  A    between atoms: C_10  and  C_36
    6  A    between atoms: C_13  and  C_15
    7  A    between atoms: C_13  and  C_26
                            x       y       z     vdW  Elec       q    Type
                         _______ _______ _______ _____ _____    ______ ____

>  <TORSDO>
F 7

$$$$
=
 OpenBabel11042409573D

 38 43  0  0  1  0  0  0  0  0999 V2000
  185.0010  178.5580  146.2000 C   0  0  0  0  0  3  0  0  0  0  0  0
  186.3260  178.7250  139.8880 C   0  0  1  0  0  3  0  0  0  0  0  0
  187.2160  177.6920  143.3290 C   0  0  0  0  0  0  0  0  0  0  0  0
  187.1780  177.9280  141.9430 C   0  0  0  0  0  0  0  0  0  0  0  0
  186.1480  178.6090  141.3660 C   0  0  0  0  0  0  0  0  0  0  0  0
  187.7030  178.0460  139.6820 C   0  0  0  0  0  3  0  0  0  0  0  0
  185.1030  178.9290  143.4500 C   0  0  0  0  0  0  0  0  0  0  0  0
  184.0510  179.4420  144.2100 C   0  0  0  0  0  3  0  0  0  0  0  0
  185.1270  179.1190  142.1020 N   0  0  0  0  0  0  0  0  0  0  0  0
  186.0770  178.0260  145.4850 C   0  0  0  0  0  3  0  0  0  0  0  0
  186.1420  178.2050  144.0960 C   0  0  0  0  0  0  0  0  0  0  0  0
  188.1410  177.5450  140.9840 N   0  0  0  0  0  0  0  0  0  0  0  0
  184.0220  179.2470  145.5550 N   0  0  0  0  0  0  0  0  0  0  0  0
  184.7360  176.8560  136.8870 C   0  0  0  0  0  3  0  0  0  0  0  0
  182.5050  177.2640  137.9720 C   0  0  2  0  0  3  0  0  0  0  0  0
  181.2940  176.5770  138.0340 O   0  0  0  0  0  1  0  0  0  0  0  0
  183.9770  178.4680  139.4070 O   0  0  0  0  0  0  0  0  0  0  0  0
  183.4480  176.5260  137.0660 C   0  0  0  0  0  3  0  0  0  0  0  0
  183.0870  177.3880  139.3730 C   0  0  0  0  0  2  0  0  0  0  0  0
  185.2470  177.9490  139.1060 C   0  0  1  0  0  3  0  0  0  0  0  0
  185.4310  178.0080  137.5690 C   0  0  1  0  0  3  0  0  0  0  0  0
  187.4940  179.1640  136.7810 C   0  0  0  0  0  3  0  0  0  0  0  0
  186.8300  178.0560  137.1510 N   0  0  0  0  0  0  0  0  0  0  0  0
  187.6430  177.0180  137.0790 N   0  0  0  0  0  0  0  0  0  0  0  0
  188.7690  178.8590  136.4610 N   0  0  0  0  0  0  0  0  0  0  0  0
  190.0360  176.7050  136.4420 C   0  0  0  0  0  1  0  0  0  0  0  0
  188.8160  177.5250  136.6590 C   0  0  0  0  0  0  0  0  0  0  0  0
  188.3080  176.9410  143.9900 C   0  0  0  0  0  3  0  0  0  0  0  0
  189.6010  177.1970  143.8170 C   0  0  0  0  0  3  0  0  0  0  0  0
  190.6300  176.3760  144.5140 C   0  0  1  0  0  3  0  0  0  0  0  0
  191.6480  176.0260  143.6260 O   0  0  0  0  0  1  0  0  0  0  0  0
  191.9680  178.0610  145.4960 O   0  0  0  0  0  0  0  0  0  0  0  0
  191.1990  177.1290  145.6790 C   0  0  0  0  0  0  0  0  0  0  0  0
  190.8580  176.7090  147.0760 C   0  0  0  0  0  0  0  0  0  0  0  0
  190.1820  177.7130  147.9840 C   0  0  0  0  0  2  0  0  0  0  0  0
  189.3860  176.5550  147.3860 C   0  0  0  0  0  2  0  0  0  0  0  0
  191.7020  175.7260  147.7400 N   0  0  0  0  0  2  0  0  0  0  0  0
  192.7350  176.3950  148.3090 O   0  0  0  0  0  1  0  0  0  0  0  0
  2  6  1  1  0  0  0
  2  5  1  0  0  0  0
  3 28  1  0  0  0  0
  3 11  1  0  0  0  0
  4  3  2  0  0  0  0
  5  4  1  0  0  0  0
  5  9  2  0  0  0  0
  6 12  2  0  0  0  0
  7 11  2  0  0  0  0
  7  8  1  0  0  0  0
  8 13  2  0  0  0  0
  9  7  1  0  0  0  0
 10  1  2  0  0  0  0
 11 10  1  0  0  0  0
 12  4  1  0  0  0  0
 13  1  1  0  0  0  0
 14 18  2  0  0  0  0
 15 16  1  1  0  0  0
 15 19  1  0  0  0  0
 18 15  1  0  0  0  0
 19 17  1  0  0  0  0
 20 17  1  6  0  0  0
 20  2  1  0  0  0  0
 21 14  1  6  0  0  0
 21 20  1  0  0  0  0
 22 23  1  0  0  0  0
 23 21  1  0  0  0  0
 24 23  1  0  0  0  0
 25 27  1  0  0  0  0
 25 22  2  0  0  0  0
 26 27  1  0  0  0  0
 27 24  2  0  0  0  0
 29 28  2  0  0  0  0
 29 30  1  0  0  0  0
 30 31  1  6  0  0  0
 30 33  1  0  0  0  0
 32 33  2  0  0  0  0
 33 34  1  0  0  0  0
 34 36  1  0  0  0  0
 34 37  1  0  0  0  0
 34 35  1  0  0  0  0
 36 35  1  0  0  0  0
 37 38  1  0  0  0  0
M  END
>  <MODEL>
7

>  <REMARK>
 VINA RESULT:      -7.1      2.756      4.223
  Name = 
  7 active torsions:
  status: ('A' for Active; 'I' for Inactive)
    1  A    between atoms: N_5  and  C_37
    2  A    between atoms: C_6  and  N_12
    3  A    between atoms: C_6  and  C_15
    4  A    between atoms: C_7  and  C_16
    5  A    between atoms: C_10  and  C_36
    6  A    between atoms: C_13  and  C_15
    7  A    between atoms: C_13  and  C_26
                            x       y       z     vdW  Elec       q    Type
                         _______ _______ _______ _____ _____    ______ ____

>  <TORSDO>
F 7

$$$$
=
 OpenBabel11042409573D

 38 43  0  0  1  0  0  0  0  0999 V2000
  188.1460  178.0060  138.1280 C   0  0  0  0  0  3  0  0  0  0  0  0
  181.7960  178.4260  139.1880 C   0  0  1  0  0  3  0  0  0  0  0  0
  185.2740  178.5100  140.4510 C   0  0  0  0  0  0  0  0  0  0  0  0
  183.8750  178.5320  140.3060 C   0  0  0  0  0  0  0  0  0  0  0  0
  183.2830  178.3540  139.0900 C   0  0  0  0  0  0  0  0  0  0  0  0
  181.5880  178.6110  140.7120 C   0  0  0  0  0  3  0  0  0  0  0  0
  185.3710  178.0780  138.0400 C   0  0  0  0  0  0  0  0  0  0  0  0
  186.1250  177.8430  136.8890 C   0  0  0  0  0  3  0  0  0  0  0  0
  184.0120  178.1150  137.9700 N   0  0  0  0  0  0  0  0  0  0  0  0
  187.4370  178.2430  139.3080 C   0  0  0  0  0  3  0  0  0  0  0  0
  186.0360  178.2820  139.2800 C   0  0  0  0  0  0  0  0  0  0  0  0
  182.9130  178.7100  141.3240 N   0  0  0  0  0  0  0  0  0  0  0  0
  187.4820  177.8130  136.9560 N   0  0  0  0  0  0  0  0  0  0  0  0
  179.8970  180.3390  136.4010 C   0  0  0  0  0  3  0  0  0  0  0  0
  181.1300  182.4010  137.1470 C   0  0  2  0  0  3  0  0  0  0  0  0
  180.8410  183.7630  137.1940 O   0  0  0  0  0  1  0  0  0  0  0  0
  182.1260  180.7140  138.5040 O   0  0  0  0  0  0  0  0  0  0  0  0
  179.9890  181.6750  136.4930 C   0  0  0  0  0  3  0  0  0  0  0  0
  181.3590  181.8840  138.5600 C   0  0  0  0  0  2  0  0  0  0  0  0
  181.2190  179.6440  138.4390 C   0  0  1  0  0  3  0  0  0  0  0  0
  180.9160  179.3690  136.9440 C   0  0  1  0  0  3  0  0  0  0  0  0
  179.2520  177.5130  136.9200 C   0  0  0  0  0  3  0  0  0  0  0  0
  180.4820  178.0000  136.6810 N   0  0  0  0  0  0  0  0  0  0  0  0
  181.2350  177.0430  136.1680 N   0  0  0  0  0  0  0  0  0  0  0  0
  179.1860  176.2150  136.5590 N   0  0  0  0  0  0  0  0  0  0  0  0
  180.8640  174.6490  135.5710 C   0  0  0  0  0  1  0  0  0  0  0  0
  180.4300  175.9680  136.1000 C   0  0  0  0  0  0  0  0  0  0  0  0
  185.9530  178.7190  141.7500 C   0  0  0  0  0  3  0  0  0  0  0  0
  185.9930  177.8160  142.7250 C   0  0  0  0  0  3  0  0  0  0  0  0
  186.6900  178.1220  144.0050 C   0  0  1  0  0  3  0  0  0  0  0  0
  185.7940  178.0390  145.0720 O   0  0  0  0  0  1  0  0  0  0  0  0
  187.8820  176.1180  143.6090 O   0  0  0  0  0  0  0  0  0  0  0  0
  187.8330  177.1760  144.2190 C   0  0  0  0  0  0  0  0  0  0  0  0
  188.9010  177.5100  145.2160 C   0  0  0  0  0  0  0  0  0  0  0  0
  190.2960  176.9720  144.9840 C   0  0  0  0  0  2  0  0  0  0  0  0
  189.9870  178.4480  144.7410 C   0  0  0  0  0  2  0  0  0  0  0  0
  188.5240  177.7080  146.6080 N   0  0  0  0  0  2  0  0  0  0  0  0
  189.1320  176.7370  147.3340 O   0  0  0  0  0  1  0  0  0  0  0  0
  1 10  1  0  0  0  0
  2  6  1  1  0  0  0
  3 28  1  0  0  0  0
  4  3  2  0  0  0  0
  4 12  1  0  0  0  0
  5  2  1  0  0  0  0
  5  4  1  0  0  0  0
  6 12  2  0  0  0  0
  7 11  1  0  0  0  0
  8 13  1  0  0  0  0
  8  7  2  0  0  0  0
  9  7  1  0  0  0  0
  9  5  2  0  0  0  0
 11 10  2  0  0  0  0
 11  3  1  0  0  0  0
 13  1  2  0  0  0  0
 14 18  2  0  0  0  0
 15 16  1  1  0  0  0
 15 19  1  0  0  0  0
 17 19  1  0  0  0  0
 18 15  1  0  0  0  0
 20 17  1  6  0  0  0
 20  2  1  0  0  0  0
 21 14  1  1  0  0  0
 21 20  1  0  0  0  0
 23 22  1  0  0  0  0
 23 21  1  0  0  0  0
 24 23  1  0  0  0  0
 25 22  2  0  0  0  0
 26 27  1  0  0  0  0
 27 24  2  0  0  0  0
 27 25  1  0  0  0  0
 28 29  2  0  0  0  0
 29 30  1  0  0  0  0
 30 33  1  0  0  0  0
 30 31  1  1  0  0  0
 32 33  2  0  0  0  0
 33 34  1  0  0  0  0
 34 37  1  0  0  0  0
 35 34  1  0  0  0  0
 36 35  1  0  0  0  0
 36 34  1  0  0  0  0
 37 38  1  0  0  0  0
M  END
>  <MODEL>
8

>  <REMARK>
 VINA RESULT:      -6.8      2.747      4.971
  Name = 
  7 active torsions:
  status: ('A' for Active; 'I' for Inactive)
    1  A    between atoms: N_5  and  C_37
    2  A    between atoms: C_6  and  N_12
    3  A    between atoms: C_6  and  C_15
    4  A    between atoms: C_7  and  C_16
    5  A    between atoms: C_10  and  C_36
    6  A    between atoms: C_13  and  C_15
    7  A    between atoms: C_13  and  C_26
                            x       y       z     vdW  Elec       q    Type
                         _______ _______ _______ _____ _____    ______ ____

>  <TORSDO>
F 7

$$$$
=
 OpenBabel11042409573D

 38 43  0  0  1  0  0  0  0  0999 V2000
  186.8270  177.9150  144.8880 C   0  0  0  0  0  3  0  0  0  0  0  0
  182.8660  179.3060  139.9890 C   0  0  1  0  0  3  0  0  0  0  0  0
  186.2790  178.6950  141.2840 C   0  0  0  0  0  0  0  0  0  0  0  0
  185.1510  178.9770  140.4920 C   0  0  0  0  0  0  0  0  0  0  0  0
  183.8960  178.9920  141.0230 C   0  0  0  0  0  0  0  0  0  0  0  0
  183.7420  179.5520  138.7360 C   0  0  0  0  0  3  0  0  0  0  0  0
  184.7250  178.4940  143.1690 C   0  0  0  0  0  0  0  0  0  0  0  0
  184.5030  178.2550  144.5260 C   0  0  0  0  0  3  0  0  0  0  0  0
  183.6770  178.7700  142.3450 N   0  0  0  0  0  0  0  0  0  0  0  0
  187.1020  178.1490  143.5390 C   0  0  0  0  0  3  0  0  0  0  0  0
  186.0510  178.4430  142.6580 C   0  0  0  0  0  0  0  0  0  0  0  0
  185.1300  179.2880  139.1150 N   0  0  0  0  0  0  0  0  0  0  0  0
  185.5490  177.9720  145.3480 N   0  0  0  0  0  0  0  0  0  0  0  0
  179.4850  177.4470  139.6140 C   0  0  0  0  0  3  0  0  0  0  0  0
  180.7660  175.3070  139.9380 C   0  0  2  0  0  3  0  0  0  0  0  0
  180.6420  174.0000  139.4720 O   0  0  0  0  0  1  0  0  0  0  0  0
  182.4550  176.9500  140.2930 O   0  0  0  0  0  0  0  0  0  0  0  0
  179.6040  176.1210  139.4450 C   0  0  0  0  0  3  0  0  0  0  0  0
  182.0830  175.8950  139.4510 C   0  0  0  0  0  2  0  0  0  0  0  0
  181.9170  178.1190  139.7290 C   0  0  1  0  0  3  0  0  0  0  0  0
  180.4970  178.3180  140.3160 C   0  0  1  0  0  3  0  0  0  0  0  0
  179.6670  180.4180  141.3710 C   0  0  0  0  0  3  0  0  0  0  0  0
  180.0490  179.7080  140.2960 N   0  0  0  0  0  0  0  0  0  0  0  0
  179.9560  180.4670  139.2190 N   0  0  0  0  0  0  0  0  0  0  0  0
  179.3180  181.6680  141.0040 N   0  0  0  0  0  0  0  0  0  0  0  0
  179.2660  182.8260  138.7900 C   0  0  0  0  0  1  0  0  0  0  0  0
  179.5120  181.6540  139.6690 C   0  0  0  0  0  0  0  0  0  0  0  0
  187.6560  178.6500  140.7400 C   0  0  0  0  0  3  0  0  0  0  0  0
  188.1800  177.5970  140.1220 C   0  0  0  0  0  3  0  0  0  0  0  0
  189.5820  177.6400  139.6190 C   0  0  1  0  0  3  0  0  0  0  0  0
  190.3120  176.5720  140.1410 O   0  0  0  0  0  1  0  0  0  0  0  0
  189.4100  178.6110  137.4690 O   0  0  0  0  0  0  0  0  0  0  0  0
  189.6030  177.5940  138.1210 C   0  0  0  0  0  0  0  0  0  0  0  0
  189.8210  176.2900  137.4170 C   0  0  0  0  0  0  0  0  0  0  0  0
  188.6230  175.4020  137.1610 C   0  0  0  0  0  2  0  0  0  0  0  0
  189.2610  176.1850  136.0160 C   0  0  0  0  0  2  0  0  0  0  0  0
  191.0910  175.6000  137.5920 N   0  0  0  0  0  2  0  0  0  0  0  0
  192.0560  176.3840  137.0510 O   0  0  0  0  0  1  0  0  0  0  0  0
  1 13  1  0  0  0  0
  2  6  1  6  0  0  0
  2  5  1  0  0  0  0
  3 11  1  0  0  0  0
  4  5  1  0  0  0  0
  4  3  2  0  0  0  0
  5  9  2  0  0  0  0
  6 12  2  0  0  0  0
  7  8  1  0  0  0  0
  8 13  2  0  0  0  0
  9  7  1  0  0  0  0
 10  1  2  0  0  0  0
 11  7  2  0  0  0  0
 11 10  1  0  0  0  0
 12  4  1  0  0  0  0
 15 16  1  6  0  0  0
 18 14  2  0  0  0  0
 18 15  1  0  0  0  0
 19 15  1  0  0  0  0
 19 17  1  0  0  0  0
 20  2  1  0  0  0  0
 20 17  1  1  0  0  0
 20 21  1  0  0  0  0
 21 14  1  6  0  0  0
 23 21  1  0  0  0  0
 23 22  1  0  0  0  0
 24 27  2  0  0  0  0
 24 23  1  0  0  0  0
 25 22  2  0  0  0  0
 26 27  1  0  0  0  0
 27 25  1  0  0  0  0
 28  3  1  0  0  0  0
 29 28  2  0  0  0  0
 30 29  1  0  0  0  0
 30 31  1  1  0  0  0
 32 33  2  0  0  0  0
 33 30  1  0  0  0  0
 34 37  1  0  0  0  0
 34 33  1  0  0  0  0
 35 34  1  0  0  0  0
 36 35  1  0  0  0  0
 36 34  1  0  0  0  0
 38 37  1  0  0  0  0
M  END
>  <MODEL>
9

>  <REMARK>
 VINA RESULT:      -6.8      2.558      3.705
  Name = 
  7 active torsions:
  status: ('A' for Active; 'I' for Inactive)
    1  A    between atoms: N_5  and  C_37
    2  A    between atoms: C_6  and  N_12
    3  A    between atoms: C_6  and  C_15
    4  A    between atoms: C_7  and  C_16
    5  A    between atoms: C_10  and  C_36
    6  A    between atoms: C_13  and  C_15
    7  A    between atoms: C_13  and  C_26
                            x       y       z     vdW  Elec       q    Type
                         _______ _______ _______ _____ _____    ______ ____

>  <TORSDO>
F 7

$$$$
