=
 OpenBabel11032420013D

 46 48  0  0  1  0  0  0  0  0999 V2000
  183.0280  178.6420  142.2010 C   0  0  0  0  0  3  0  0  0  0  0  0
  182.9580  178.8510  143.5210 C   0  0  0  0  0  0  0  0  0  0  0  0
  181.7720  178.6070  144.2270 O   0  0  0  0  0  0  0  0  0  0  0  0
  179.3620  178.5790  144.3140 C   0  0  0  0  0  1  0  0  0  0  0  0
  180.6100  179.4210  144.1190 C   0  0  0  0  0  2  0  0  0  0  0  0
  184.1460  179.3480  144.2850 C   0  0  0  0  0  2  0  0  0  0  0  0
  185.0940  178.2050  144.6120 C   0  0  0  0  0  2  0  0  0  0  0  0
  185.7990  179.5980  146.4160 O   0  0  0  0  0  1  0  0  0  0  0  0
  185.5410  178.2700  146.0630 C   0  0  2  0  0  3  0  0  0  0  0  0
  186.7450  177.4760  146.2390 N   0  0  0  0  0  2  0  0  0  0  0  0
  187.6460  178.2320  147.0990 C   0  0  1  0  0  3  0  0  0  0  0  0
  187.3130  177.9580  148.5580 C   0  0  0  0  0  1  0  0  0  0  0  0
  189.5340  178.4570  145.3750 C   0  0  0  0  0  2  0  0  0  0  0  0
  189.4290  176.4440  147.0160 C   0  0  0  0  0  2  0  0  0  0  0  0
  190.9290  176.1920  147.1760 C   0  0  0  0  0  2  0  0  0  0  0  0
  189.9860  177.4180  144.3310 C   0  0  1  0  0  3  0  0  0  0  0  0
  189.1080  177.9180  146.7610 C   0  0  2  0  0  3  0  0  0  0  0  0
  191.7860  176.8490  146.0920 C   0  0  0  0  0  2  0  0  0  0  0  0
  191.2420  176.5990  144.6870 C   0  0  0  0  0  2  0  0  0  0  0  0
  188.8370  176.5210  143.8890 C   0  0  0  0  0  2  0  0  0  0  0  0
  189.4920  176.7620  141.5810 O   0  0  0  0  0  1  0  0  0  0  0  0
  188.4060  176.8360  142.4610 C   0  0  2  0  0  3  0  0  0  0  0  0
  187.8380  178.4650  141.1120 O   0  0  0  0  0  1  0  0  0  0  0  0
  187.7770  178.0920  142.3780 O   0  0  0  0  0  0  0  0  0  0  0  0
  184.2660  178.8800  141.3980 C   0  0  0  0  0  2  0  0  0  0  0  0
  184.6300  178.9530  138.6840 S   0  0  0  0  0  0  0  0  0  0  0  0
  182.9330  177.2830  140.0620 C   0  0  0  0  0  2  0  0  0  0  0  0
  184.2800  177.9760  140.1800 C   0  0  2  0  0  3  0  0  0  0  0  0
  182.8620  176.4710  137.6300 C   0  0  2  0  0  3  0  0  0  0  0  0
  185.2380  177.4770  137.8190 C   0  0  0  0  0  2  0  0  0  0  0  0
  182.9830  176.0860  139.1120 C   0  0  0  0  0  2  0  0  0  0  0  0
  184.1690  176.8630  136.9210 C   0  0  1  0  0  3  0  0  0  0  0  0
  181.7670  177.4520  137.3470 C   0  0  0  0  0  3  0  0  0  0  0  0
  181.8500  178.2140  136.3990 O   0  0  0  0  0  0  0  0  0  0  0  0
  184.7310  175.7020  136.2500 N   0  0  0  0  0  2  0  0  0  0  0  0
  185.9010  175.2810  137.0050 C   0  0  0  0  0  2  0  0  0  0  0  0
  186.6410  174.1790  136.2440 C   0  0  1  0  0  3  0  0  0  0  0  0
  188.1560  174.4820  136.2200 C   0  0  0  0  0  3  0  0  0  0  0  0
  189.9890  176.0720  136.8620 C   0  0  0  0  0  2  0  0  0  0  0  0
  188.9750  173.3290  136.8170 C   0  0  0  0  0  2  0  0  0  0  0  0
  190.4670  173.6210  136.7020 C   0  0  0  0  0  2  0  0  0  0  0  0
  190.8060  174.9160  137.4330 C   0  0  0  0  0  2  0  0  0  0  0  0
  188.4990  175.7690  136.9780 C   0  0  0  0  0  2  0  0  0  0  0  0
  185.5080  171.9570  135.9460 C   0  0  0  0  0  1  0  0  0  0  0  0
  186.3500  172.8060  136.8800 C   0  0  2  0  0  3  0  0  0  0  0  0
  185.6580  172.9380  138.0870 O   0  0  0  0  0  1  0  0  0  0  0  0
  1  2  2  0  0  0  0
  2  3  1  0  0  0  0
  2  6  1  0  0  0  0
  5  3  1  0  0  0  0
  5  4  1  0  0  0  0
  6  7  1  0  0  0  0
  7  9  1  0  0  0  0
  9 10  1  0  0  0  0
  9  8  1  6  0  0  0
 10 11  1  0  0  0  0
 11 12  1  1  0  0  0
 13 17  1  0  0  0  0
 14 15  1  0  0  0  0
 16 20  1  1  0  0  0
 16 19  1  0  0  0  0
 16 13  1  0  0  0  0
 17 14  1  0  0  0  0
 17 11  1  6  0  0  0
 18 15  1  0  0  0  0
 19 18  1  0  0  0  0
 22 21  1  6  0  0  0
 22 20  1  0  0  0  0
 23 24  1  0  0  0  0
 24 22  1  0  0  0  0
 25  1  1  0  0  0  0
 26 28  1  0  0  0  0
 27 28  1  0  0  0  0
 28 25  1  1  0  0  0
 29 33  1  1  0  0  0
 29 31  1  0  0  0  0
 30 26  1  0  0  0  0
 31 27  1  0  0  0  0
 32 35  1  1  0  0  0
 32 29  1  0  0  0  0
 32 30  1  0  0  0  0
 34 33  2  0  0  0  0
 35 36  1  0  0  0  0
 37 45  1  0  0  0  0
 37 36  1  1  0  0  0
 38 37  1  0  0  0  0
 38 40  1  0  0  0  0
 38 43  1  0  0  0  0
 39 43  1  0  0  0  0
 39 42  1  0  0  0  0
 41 40  1  0  0  0  0
 41 42  1  0  0  0  0
 45 44  1  6  0  0  0
 45 46  1  0  0  0  0
M  END
>  <MODEL>
1

>  <REMARK>
 VINA RESULT:      -6.8      0.000      0.000
  Name = 
  19 active torsions:
  status: ('A' for Active; 'I' for Inactive)
    1  A    between atoms: O_4  and  C_14
    2  A    between atoms: O_4  and  C_19
    3  A    between atoms: C_6  and  C_31
    4  A    between atoms: C_6  and  C_41
    5  A    between atoms: C_9  and  C_33
    6  A    between atoms: C_13  and  C_42
    7  A    between atoms: C_16  and  O_32
    8  A    between atoms: C_16  and  C_44
    9  A    between atoms: C_17  and  C_42
   10  A    between atoms: C_18  and  C_24
   11  A    between atoms: C_19  and  C_31
   12  A    between atoms: C_20  and  C_44
   13  A    between atoms: N_21  and  C_29
   14  A    between atoms: N_21  and  C_41
   15  A    between atoms: C_22  and  C_29
   16  A    between atoms: C_23  and  C_33
   17  A    between atoms: N_27  and  C_39
   18  A    between atoms: N_27  and  C_43
   19  A    between atoms: C_33  and  C_43
                            x       y       z     vdW  Elec       q    Type
                         _______ _______ _______ _____ _____    ______ ____

>  <TORSDO>
F 19

$$$$
=
 OpenBabel11032420013D

 46 48  0  0  1  0  0  0  0  0999 V2000
  190.6120  177.1470  139.1170 C   0  0  0  0  0  3  0  0  0  0  0  0
  190.5350  176.5060  137.9440 C   0  0  0  0  0  0  0  0  0  0  0  0
  191.6620  175.8910  137.3830 O   0  0  0  0  0  0  0  0  0  0  0  0
  191.9500  173.6300  136.5930 C   0  0  0  0  0  1  0  0  0  0  0  0
  191.6130  175.0640  136.2250 C   0  0  0  0  0  2  0  0  0  0  0  0
  189.2400  176.4260  137.1960 C   0  0  0  0  0  2  0  0  0  0  0  0
  189.0640  177.6340  136.2890 C   0  0  0  0  0  2  0  0  0  0  0  0
  187.6790  179.4440  136.9980 O   0  0  0  0  0  1  0  0  0  0  0  0
  187.6510  178.1860  136.3900 C   0  0  2  0  0  3  0  0  0  0  0  0
  186.8310  177.2820  137.1790 N   0  0  0  0  0  2  0  0  0  0  0  0
  185.4430  177.6940  137.0150 C   0  0  1  0  0  3  0  0  0  0  0  0
  184.7850  176.8630  135.9250 C   0  0  0  0  0  1  0  0  0  0  0  0
  183.3120  176.9260  138.2220 C   0  0  0  0  0  2  0  0  0  0  0  0
  184.6870  178.9660  139.0630 C   0  0  0  0  0  2  0  0  0  0  0  0
  184.4100  178.8340  140.5620 C   0  0  0  0  0  2  0  0  0  0  0  0
  182.0770  177.7730  138.5840 C   0  0  1  0  0  3  0  0  0  0  0  0
  184.6930  177.6130  138.3490 C   0  0  2  0  0  3  0  0  0  0  0  0
  183.2160  177.9370  140.8940 C   0  0  0  0  0  2  0  0  0  0  0  0
  181.9890  178.2600  140.0430 C   0  0  0  0  0  2  0  0  0  0  0  0
  181.8620  178.9140  137.5980 C   0  0  0  0  0  2  0  0  0  0  0  0
  179.8620  180.2550  137.7280 O   0  0  0  0  0  1  0  0  0  0  0  0
  181.1470  180.0890  138.2580 C   0  0  2  0  0  3  0  0  0  0  0  0
  181.0240  182.2670  138.0770 O   0  0  0  0  0  1  0  0  0  0  0  0
  181.8940  181.2750  138.1460 O   0  0  0  0  0  0  0  0  0  0  0  0
  189.4430  177.8150  139.7640 C   0  0  0  0  0  2  0  0  0  0  0  0
  191.2090  178.1860  141.8240 S   0  0  0  0  0  0  0  0  0  0  0  0
  189.2460  176.2650  141.6800 C   0  0  0  0  0  2  0  0  0  0  0  0
  189.5440  177.6990  141.2740 C   0  0  2  0  0  3  0  0  0  0  0  0
  190.2090  176.0780  144.0500 C   0  0  2  0  0  3  0  0  0  0  0  0
  190.5830  178.5750  143.4850 C   0  0  0  0  0  2  0  0  0  0  0  0
  188.9480  176.1420  143.1740 C   0  0  0  0  0  2  0  0  0  0  0  0
  190.8170  177.4280  144.4640 C   0  0  1  0  0  3  0  0  0  0  0  0
  191.2540  175.1370  143.5380 C   0  0  0  0  0  3  0  0  0  0  0  0
  192.1930  174.8130  144.2450 O   0  0  0  0  0  0  0  0  0  0  0  0
  190.3100  177.8170  145.7700 N   0  0  0  0  0  2  0  0  0  0  0  0
  189.0710  177.0870  145.9950 C   0  0  0  0  0  2  0  0  0  0  0  0
  188.0530  177.9950  146.6900 C   0  0  1  0  0  3  0  0  0  0  0  0
  186.6960  177.9220  145.9560 C   0  0  0  0  0  3  0  0  0  0  0  0
  184.3120  178.7060  145.8670 C   0  0  0  0  0  2  0  0  0  0  0  0
  186.8390  178.2540  144.4640 C   0  0  0  0  0  2  0  0  0  0  0  0
  185.5010  178.0910  143.7520 C   0  0  0  0  0  2  0  0  0  0  0  0
  184.4580  179.0120  144.3780 C   0  0  0  0  0  2  0  0  0  0  0  0
  185.6570  178.8670  146.5690 C   0  0  0  0  0  2  0  0  0  0  0  0
  188.8720  178.4070  149.0280 C   0  0  0  0  0  1  0  0  0  0  0  0
  187.9150  177.5990  148.1730 C   0  0  2  0  0  3  0  0  0  0  0  0
  188.1960  176.2440  148.3690 O   0  0  0  0  0  1  0  0  0  0  0  0
  1 25  1  0  0  0  0
  2  1  2  0  0  0  0
  3  2  1  0  0  0  0
  5  4  1  0  0  0  0
  5  3  1  0  0  0  0
  6  2  1  0  0  0  0
  7  9  1  0  0  0  0
  7  6  1  0  0  0  0
  9  8  1  1  0  0  0
  9 10  1  0  0  0  0
 11 12  1  6  0  0  0
 11 10  1  0  0  0  0
 13 17  1  0  0  0  0
 13 16  1  0  0  0  0
 14 15  1  0  0  0  0
 15 18  1  0  0  0  0
 16 20  1  6  0  0  0
 16 19  1  0  0  0  0
 17 11  1  6  0  0  0
 17 14  1  0  0  0  0
 19 18  1  0  0  0  0
 20 22  1  0  0  0  0
 22 21  1  6  0  0  0
 23 24  1  0  0  0  0
 24 22  1  0  0  0  0
 26 30  1  0  0  0  0
 27 31  1  0  0  0  0
 28 25  1  6  0  0  0
 28 27  1  0  0  0  0
 28 26  1  0  0  0  0
 29 33  1  6  0  0  0
 29 32  1  0  0  0  0
 30 32  1  0  0  0  0
 31 29  1  0  0  0  0
 32 35  1  1  0  0  0
 33 34  2  0  0  0  0
 35 36  1  0  0  0  0
 37 36  1  6  0  0  0
 37 45  1  0  0  0  0
 38 43  1  0  0  0  0
 38 37  1  0  0  0  0
 39 43  1  0  0  0  0
 40 38  1  0  0  0  0
 41 42  1  0  0  0  0
 41 40  1  0  0  0  0
 42 39  1  0  0  0  0
 45 46  1  0  0  0  0
 45 44  1  1  0  0  0
M  END
>  <MODEL>
2

>  <REMARK>
 VINA RESULT:      -6.7      3.015     10.250
  Name = 
  19 active torsions:
  status: ('A' for Active; 'I' for Inactive)
    1  A    between atoms: O_4  and  C_14
    2  A    between atoms: O_4  and  C_19
    3  A    between atoms: C_6  and  C_31
    4  A    between atoms: C_6  and  C_41
    5  A    between atoms: C_9  and  C_33
    6  A    between atoms: C_13  and  C_42
    7  A    between atoms: C_16  and  O_32
    8  A    between atoms: C_16  and  C_44
    9  A    between atoms: C_17  and  C_42
   10  A    between atoms: C_18  and  C_24
   11  A    between atoms: C_19  and  C_31
   12  A    between atoms: C_20  and  C_44
   13  A    between atoms: N_21  and  C_29
   14  A    between atoms: N_21  and  C_41
   15  A    between atoms: C_22  and  C_29
   16  A    between atoms: C_23  and  C_33
   17  A    between atoms: N_27  and  C_39
   18  A    between atoms: N_27  and  C_43
   19  A    between atoms: C_33  and  C_43
                            x       y       z     vdW  Elec       q    Type
                         _______ _______ _______ _____ _____    ______ ____

>  <TORSDO>
F 19

$$$$
=
 OpenBabel11032420013D

 46 48  0  0  1  0  0  0  0  0999 V2000
  188.5940  176.9810  135.7320 C   0  0  0  0  0  3  0  0  0  0  0  0
  189.6370  176.5770  136.4670 C   0  0  0  0  0  0  0  0  0  0  0  0
  190.3200  175.3930  136.1600 O   0  0  0  0  0  0  0  0  0  0  0  0
  192.2480  173.9520  136.0060 C   0  0  0  0  0  1  0  0  0  0  0  0
  191.6940  175.3490  135.7920 C   0  0  0  0  0  2  0  0  0  0  0  0
  190.1090  177.3820  137.6380 C   0  0  0  0  0  2  0  0  0  0  0  0
  190.0330  176.5660  138.9190 C   0  0  0  0  0  2  0  0  0  0  0  0
  188.9270  178.5810  139.5600 O   0  0  0  0  0  1  0  0  0  0  0  0
  189.4900  177.4060  140.0640 C   0  0  2  0  0  3  0  0  0  0  0  0
  190.5690  177.7370  140.9800 N   0  0  0  0  0  2  0  0  0  0  0  0
  190.3890  176.9290  142.1790 C   0  0  1  0  0  3  0  0  0  0  0  0
  191.6850  176.8940  142.9750 C   0  0  0  0  0  1  0  0  0  0  0  0
  189.6430  178.3530  144.1790 C   0  0  0  0  0  2  0  0  0  0  0  0
  188.2570  176.3040  143.3800 C   0  0  0  0  0  2  0  0  0  0  0  0
  186.8600  176.8060  143.7520 C   0  0  0  0  0  2  0  0  0  0  0  0
  189.2950  177.8720  145.6010 C   0  0  1  0  0  3  0  0  0  0  0  0
  189.2060  177.4440  143.0060 C   0  0  2  0  0  3  0  0  0  0  0  0
  186.8650  177.9760  144.7370 C   0  0  0  0  0  2  0  0  0  0  0  0
  187.7950  177.7360  145.9250 C   0  0  0  0  0  2  0  0  0  0  0  0
  190.0670  176.6160  145.9800 C   0  0  0  0  0  2  0  0  0  0  0  0
  190.1390  177.8610  148.0440 O   0  0  0  0  0  1  0  0  0  0  0  0
  190.5820  176.6930  147.4140 C   0  0  2  0  0  3  0  0  0  0  0  0
  192.3250  175.6020  146.6630 O   0  0  0  0  0  1  0  0  0  0  0  0
  191.9840  176.5950  147.4640 O   0  0  0  0  0  0  0  0  0  0  0  0
  187.8330  178.2370  136.0090 C   0  0  0  0  0  2  0  0  0  0  0  0
  186.1920  177.1120  137.8920 S   0  0  0  0  0  0  0  0  0  0  0  0
  185.8620  177.0090  135.1630 C   0  0  0  0  0  2  0  0  0  0  0  0
  186.3730  177.9170  136.2690 C   0  0  2  0  0  3  0  0  0  0  0  0
  183.7330  175.9690  136.1470 C   0  0  2  0  0  3  0  0  0  0  0  0
  184.4540  177.6310  137.9940 C   0  0  0  0  0  2  0  0  0  0  0  0
  184.3340  176.9500  135.1280 C   0  0  0  0  0  2  0  0  0  0  0  0
  183.5020  176.5190  137.5640 C   0  0  1  0  0  3  0  0  0  0  0  0
  184.4120  174.6360  136.1770 C   0  0  0  0  0  3  0  0  0  0  0  0
  184.0370  173.7350  135.4470 O   0  0  0  0  0  0  0  0  0  0  0  0
  182.1350  176.9990  137.6890 N   0  0  0  0  0  2  0  0  0  0  0  0
  181.7600  176.8970  139.0910 C   0  0  0  0  0  2  0  0  0  0  0  0
  181.0350  178.1720  139.5280 C   0  0  1  0  0  3  0  0  0  0  0  0
  181.7420  178.7840  140.7570 C   0  0  0  0  0  3  0  0  0  0  0  0
  181.5630  179.4320  143.1770 C   0  0  0  0  0  2  0  0  0  0  0  0
  183.0630  178.0670  141.0690 C   0  0  0  0  0  2  0  0  0  0  0  0
  183.7770  178.7470  142.2320 C   0  0  0  0  0  2  0  0  0  0  0  0
  182.8880  178.7340  143.4720 C   0  0  0  0  0  2  0  0  0  0  0  0
  180.8590  178.7470  142.0100 C   0  0  0  0  0  2  0  0  0  0  0  0
  181.7880  180.4110  138.6740 C   0  0  0  0  0  1  0  0  0  0  0  0
  180.9700  179.1730  138.3580 C   0  0  2  0  0  3  0  0  0  0  0  0
  179.6560  179.5760  138.1030 O   0  0  0  0  0  1  0  0  0  0  0  0
  1 25  1  0  0  0  0
  1  2  2  0  0  0  0
  2  6  1  0  0  0  0
  3  2  1  0  0  0  0
  5  4  1  0  0  0  0
  5  3  1  0  0  0  0
  6  7  1  0  0  0  0
  7  9  1  0  0  0  0
  9  8  1  6  0  0  0
  9 10  1  0  0  0  0
 10 11  1  0  0  0  0
 11 12  1  1  0  0  0
 13 16  1  0  0  0  0
 14 15  1  0  0  0  0
 15 18  1  0  0  0  0
 16 19  1  0  0  0  0
 16 20  1  6  0  0  0
 17 11  1  1  0  0  0
 17 14  1  0  0  0  0
 17 13  1  0  0  0  0
 18 19  1  0  0  0  0
 20 22  1  0  0  0  0
 22 24  1  0  0  0  0
 22 21  1  6  0  0  0
 23 24  1  0  0  0  0
 26 30  1  0  0  0  0
 27 28  1  0  0  0  0
 28 25  1  6  0  0  0
 28 26  1  0  0  0  0
 29 33  1  1  0  0  0
 29 32  1  0  0  0  0
 31 27  1  0  0  0  0
 31 29  1  0  0  0  0
 32 35  1  6  0  0  0
 32 30  1  0  0  0  0
 34 33  2  0  0  0  0
 35 36  1  0  0  0  0
 37 36  1  6  0  0  0
 37 38  1  0  0  0  0
 38 40  1  0  0  0  0
 38 43  1  0  0  0  0
 39 42  1  0  0  0  0
 40 41  1  0  0  0  0
 41 42  1  0  0  0  0
 43 39  1  0  0  0  0
 45 44  1  1  0  0  0
 45 37  1  0  0  0  0
 46 45  1  0  0  0  0
M  END
>  <MODEL>
3

>  <REMARK>
 VINA RESULT:      -6.7      2.647      7.439
  Name = 
  19 active torsions:
  status: ('A' for Active; 'I' for Inactive)
    1  A    between atoms: O_4  and  C_14
    2  A    between atoms: O_4  and  C_19
    3  A    between atoms: C_6  and  C_31
    4  A    between atoms: C_6  and  C_41
    5  A    between atoms: C_9  and  C_33
    6  A    between atoms: C_13  and  C_42
    7  A    between atoms: C_16  and  O_32
    8  A    between atoms: C_16  and  C_44
    9  A    between atoms: C_17  and  C_42
   10  A    between atoms: C_18  and  C_24
   11  A    between atoms: C_19  and  C_31
   12  A    between atoms: C_20  and  C_44
   13  A    between atoms: N_21  and  C_29
   14  A    between atoms: N_21  and  C_41
   15  A    between atoms: C_22  and  C_29
   16  A    between atoms: C_23  and  C_33
   17  A    between atoms: N_27  and  C_39
   18  A    between atoms: N_27  and  C_43
   19  A    between atoms: C_33  and  C_43
                            x       y       z     vdW  Elec       q    Type
                         _______ _______ _______ _____ _____    ______ ____

>  <TORSDO>
F 19

$$$$
=
 OpenBabel11032420013D

 46 48  0  0  1  0  0  0  0  0999 V2000
  190.8850  176.3390  139.2990 C   0  0  0  0  0  3  0  0  0  0  0  0
  190.5700  175.7920  138.1180 C   0  0  0  0  0  0  0  0  0  0  0  0
  191.1820  174.6080  137.6860 O   0  0  0  0  0  0  0  0  0  0  0  0
  193.1480  175.3900  136.5270 C   0  0  0  0  0  1  0  0  0  0  0  0
  191.9190  174.5000  136.4720 C   0  0  0  0  0  2  0  0  0  0  0  0
  189.5510  176.4280  137.2240 C   0  0  0  0  0  2  0  0  0  0  0  0
  188.1500  175.9510  137.5780 C   0  0  0  0  0  2  0  0  0  0  0  0
  188.5940  174.7950  135.5390 O   0  0  0  0  0  1  0  0  0  0  0  0
  187.6440  174.9510  136.5510 C   0  0  2  0  0  3  0  0  0  0  0  0
  186.3970  175.4300  135.9790 N   0  0  0  0  0  2  0  0  0  0  0  0
  185.3990  174.3860  136.1690 C   0  0  1  0  0  3  0  0  0  0  0  0
  185.7680  173.5360  137.3760 C   0  0  0  0  0  1  0  0  0  0  0  0
  183.9780  176.5190  136.0350 C   0  0  0  0  0  2  0  0  0  0  0  0
  183.2990  174.5310  137.5670 C   0  0  0  0  0  2  0  0  0  0  0  0
  181.7790  174.6860  137.4940 C   0  0  0  0  0  2  0  0  0  0  0  0
  183.5040  177.4100  137.2000 C   0  0  1  0  0  3  0  0  0  0  0  0
  183.9960  174.9920  136.2850 C   0  0  2  0  0  3  0  0  0  0  0  0
  181.3200  176.0520  136.9790 C   0  0  0  0  0  2  0  0  0  0  0  0
  182.0490  177.2080  137.6620 C   0  0  0  0  0  2  0  0  0  0  0  0
  184.4760  177.3770  138.3710 C   0  0  0  0  0  2  0  0  0  0  0  0
  186.2370  178.7950  137.5320 O   0  0  0  0  0  1  0  0  0  0  0  0
  185.2330  178.6950  138.5010 C   0  0  2  0  0  3  0  0  0  0  0  0
  184.9430  179.6670  140.4410 O   0  0  0  0  0  1  0  0  0  0  0  0
  185.7640  178.8590  139.7940 O   0  0  0  0  0  0  0  0  0  0  0  0
  190.2600  177.5950  139.8130 C   0  0  0  0  0  2  0  0  0  0  0  0
  191.6030  178.3490  142.0780 S   0  0  0  0  0  0  0  0  0  0  0  0
  190.0590  176.0950  141.7660 C   0  0  0  0  0  2  0  0  0  0  0  0
  190.1530  177.5450  141.3250 C   0  0  2  0  0  3  0  0  0  0  0  0
  190.6740  176.1600  144.2560 C   0  0  2  0  0  3  0  0  0  0  0  0
  190.6760  178.6650  143.6080 C   0  0  0  0  0  2  0  0  0  0  0  0
  189.5670  175.9630  143.2080 C   0  0  0  0  0  2  0  0  0  0  0  0
  190.9620  177.6120  144.6740 C   0  0  1  0  0  3  0  0  0  0  0  0
  191.9350  175.4140  143.9520 C   0  0  0  0  0  3  0  0  0  0  0  0
  192.0750  174.2610  144.3220 O   0  0  0  0  0  0  0  0  0  0  0  0
  190.2030  177.9380  145.8710 N   0  0  0  0  0  2  0  0  0  0  0  0
  188.9430  177.2140  145.8040 C   0  0  0  0  0  2  0  0  0  0  0  0
  187.8490  178.0100  146.5180 C   0  0  1  0  0  3  0  0  0  0  0  0
  186.5250  177.9110  145.7290 C   0  0  0  0  0  3  0  0  0  0  0  0
  184.1750  178.7520  145.4540 C   0  0  0  0  0  2  0  0  0  0  0  0
  186.7470  178.1010  144.2220 C   0  0  0  0  0  2  0  0  0  0  0  0
  185.4380  177.9130  143.4620 C   0  0  0  0  0  2  0  0  0  0  0  0
  184.3990  178.9170  143.9530 C   0  0  0  0  0  2  0  0  0  0  0  0
  185.4910  178.9380  146.2030 C   0  0  0  0  0  2  0  0  0  0  0  0
  188.4220  178.4100  148.9310 C   0  0  0  0  0  1  0  0  0  0  0  0
  187.6820  177.5050  147.9650 C   0  0  2  0  0  3  0  0  0  0  0  0
  188.1840  176.2090  148.1140 O   0  0  0  0  0  1  0  0  0  0  0  0
  1 25  1  0  0  0  0
  2  1  2  0  0  0  0
  3  2  1  0  0  0  0
  5  4  1  0  0  0  0
  5  3  1  0  0  0  0
  6  7  1  0  0  0  0
  6  2  1  0  0  0  0
  9  8  1  6  0  0  0
  9  7  1  0  0  0  0
 10 11  1  0  0  0  0
 10  9  1  0  0  0  0
 11 12  1  1  0  0  0
 13 17  1  0  0  0  0
 13 16  1  0  0  0  0
 15 14  1  0  0  0  0
 16 19  1  0  0  0  0
 16 20  1  1  0  0  0
 17 11  1  1  0  0  0
 17 14  1  0  0  0  0
 18 15  1  0  0  0  0
 18 19  1  0  0  0  0
 20 22  1  0  0  0  0
 22 21  1  6  0  0  0
 22 24  1  0  0  0  0
 24 23  1  0  0  0  0
 26 30  1  0  0  0  0
 27 31  1  0  0  0  0
 28 25  1  6  0  0  0
 28 27  1  0  0  0  0
 28 26  1  0  0  0  0
 29 33  1  6  0  0  0
 29 32  1  0  0  0  0
 30 32  1  0  0  0  0
 31 29  1  0  0  0  0
 32 35  1  1  0  0  0
 33 34  2  0  0  0  0
 36 35  1  0  0  0  0
 37 36  1  6  0  0  0
 37 45  1  0  0  0  0
 38 43  1  0  0  0  0
 38 37  1  0  0  0  0
 39 43  1  0  0  0  0
 40 38  1  0  0  0  0
 41 42  1  0  0  0  0
 41 40  1  0  0  0  0
 42 39  1  0  0  0  0
 45 46  1  0  0  0  0
 45 44  1  1  0  0  0
M  END
>  <MODEL>
4

>  <REMARK>
 VINA RESULT:      -6.7      2.606     10.428
  Name = 
  19 active torsions:
  status: ('A' for Active; 'I' for Inactive)
    1  A    between atoms: O_4  and  C_14
    2  A    between atoms: O_4  and  C_19
    3  A    between atoms: C_6  and  C_31
    4  A    between atoms: C_6  and  C_41
    5  A    between atoms: C_9  and  C_33
    6  A    between atoms: C_13  and  C_42
    7  A    between atoms: C_16  and  O_32
    8  A    between atoms: C_16  and  C_44
    9  A    between atoms: C_17  and  C_42
   10  A    between atoms: C_18  and  C_24
   11  A    between atoms: C_19  and  C_31
   12  A    between atoms: C_20  and  C_44
   13  A    between atoms: N_21  and  C_29
   14  A    between atoms: N_21  and  C_41
   15  A    between atoms: C_22  and  C_29
   16  A    between atoms: C_23  and  C_33
   17  A    between atoms: N_27  and  C_39
   18  A    between atoms: N_27  and  C_43
   19  A    between atoms: C_33  and  C_43
                            x       y       z     vdW  Elec       q    Type
                         _______ _______ _______ _____ _____    ______ ____

>  <TORSDO>
F 19

$$$$
=
 OpenBabel11032420013D

 46 48  0  0  1  0  0  0  0  0999 V2000
  192.3470  176.5600  139.0580 C   0  0  0  0  0  3  0  0  0  0  0  0
  192.9130  176.1780  137.9070 C   0  0  0  0  0  0  0  0  0  0  0  0
  194.2740  175.8500  137.8460 O   0  0  0  0  0  0  0  0  0  0  0  0
  195.6120  175.6000  135.8550 C   0  0  0  0  0  1  0  0  0  0  0  0
  194.8140  174.8960  136.9370 C   0  0  0  0  0  2  0  0  0  0  0  0
  192.1070  176.0860  136.6480 C   0  0  0  0  0  2  0  0  0  0  0  0
  191.7620  174.6390  136.3320 C   0  0  0  0  0  2  0  0  0  0  0  0
  190.1430  173.3680  137.5400 O   0  0  0  0  0  1  0  0  0  0  0  0
  190.2850  174.3700  136.5750 C   0  0  2  0  0  3  0  0  0  0  0  0
  189.6570  173.9450  135.3350 N   0  0  0  0  0  2  0  0  0  0  0  0
  188.3790  174.6360  135.2340 C   0  0  1  0  0  3  0  0  0  0  0  0
  187.2490  173.6810  135.5890 C   0  0  0  0  0  1  0  0  0  0  0  0
  187.2100  175.9230  137.1220 C   0  0  0  0  0  2  0  0  0  0  0  0
  188.5220  177.1580  135.2480 C   0  0  0  0  0  2  0  0  0  0  0  0
  189.0130  178.3590  136.0570 C   0  0  0  0  0  2  0  0  0  0  0  0
  186.1920  177.0730  136.9900 C   0  0  1  0  0  3  0  0  0  0  0  0
  188.3750  175.8980  136.1030 C   0  0  2  0  0  3  0  0  0  0  0  0
  188.2600  178.5710  137.3720 C   0  0  0  0  0  2  0  0  0  0  0  0
  186.7440  178.4970  137.1940 C   0  0  0  0  0  2  0  0  0  0  0  0
  185.3780  176.9650  135.7070 C   0  0  0  0  0  2  0  0  0  0  0  0
  183.1030  176.4870  135.0660 O   0  0  0  0  0  1  0  0  0  0  0  0
  184.1480  176.0840  135.9050 C   0  0  2  0  0  3  0  0  0  0  0  0
  182.7480  175.1960  137.3340 O   0  0  0  0  0  1  0  0  0  0  0  0
  183.7360  176.0690  137.2490 O   0  0  0  0  0  0  0  0  0  0  0  0
  190.9020  176.9150  139.1830 C   0  0  0  0  0  2  0  0  0  0  0  0
  189.0390  177.9190  140.9230 S   0  0  0  0  0  0  0  0  0  0  0  0
  191.6280  177.2140  141.5260 C   0  0  0  0  0  2  0  0  0  0  0  0
  190.4640  176.8230  140.6330 C   0  0  2  0  0  3  0  0  0  0  0  0
  190.5280  177.7590  143.7790 C   0  0  2  0  0  3  0  0  0  0  0  0
  188.5280  176.9320  142.3600 C   0  0  0  0  0  2  0  0  0  0  0  0
  191.4080  176.7860  142.9780 C   0  0  0  0  0  2  0  0  0  0  0  0
  189.0090  177.5460  143.6710 C   0  0  1  0  0  3  0  0  0  0  0  0
  190.8970  179.1980  143.5970 C   0  0  0  0  0  3  0  0  0  0  0  0
  191.7260  179.7200  144.3230 O   0  0  0  0  0  0  0  0  0  0  0  0
  188.5490  176.7160  144.7730 N   0  0  0  0  0  2  0  0  0  0  0  0
  187.1070  176.8770  144.8740 C   0  0  0  0  0  2  0  0  0  0  0  0
  186.7760  178.2660  145.4250 C   0  0  1  0  0  3  0  0  0  0  0  0
  185.5550  178.8500  144.6820 C   0  0  0  0  0  3  0  0  0  0  0  0
  184.3540  179.1070  142.4920 C   0  0  0  0  0  2  0  0  0  0  0  0
  184.2340  178.4150  145.3310 C   0  0  0  0  0  2  0  0  0  0  0  0
  183.0520  179.0750  144.6290 C   0  0  0  0  0  2  0  0  0  0  0  0
  183.0410  178.6940  143.1510 C   0  0  0  0  0  2  0  0  0  0  0  0
  185.5290  178.4450  143.2040 C   0  0  0  0  0  2  0  0  0  0  0  0
  186.0480  179.5280  147.4700 C   0  0  0  0  0  1  0  0  0  0  0  0
  186.5300  178.1900  146.9440 C   0  0  2  0  0  3  0  0  0  0  0  0
  187.6960  177.8470  147.6340 O   0  0  0  0  0  1  0  0  0  0  0  0
  1 25  1  0  0  0  0
  2  1  2  0  0  0  0
  3  2  1  0  0  0  0
  4  5  1  0  0  0  0
  5  3  1  0  0  0  0
  6  2  1  0  0  0  0
  7  9  1  0  0  0  0
  7  6  1  0  0  0  0
  9  8  1  1  0  0  0
 10  9  1  0  0  0  0
 11 10  1  0  0  0  0
 11 12  1  1  0  0  0
 14 15  1  0  0  0  0
 14 17  1  0  0  0  0
 15 18  1  0  0  0  0
 16 20  1  6  0  0  0
 16 13  1  0  0  0  0
 16 19  1  0  0  0  0
 17 11  1  6  0  0  0
 17 13  1  0  0  0  0
 19 18  1  0  0  0  0
 20 22  1  0  0  0  0
 22 21  1  6  0  0  0
 22 24  1  0  0  0  0
 24 23  1  0  0  0  0
 26 30  1  0  0  0  0
 27 31  1  0  0  0  0
 28 25  1  6  0  0  0
 28 26  1  0  0  0  0
 28 27  1  0  0  0  0
 29 33  1  6  0  0  0
 30 32  1  0  0  0  0
 31 29  1  0  0  0  0
 32 29  1  0  0  0  0
 32 35  1  1  0  0  0
 33 34  2  0  0  0  0
 35 36  1  0  0  0  0
 37 36  1  6  0  0  0
 37 45  1  0  0  0  0
 38 40  1  0  0  0  0
 38 37  1  0  0  0  0
 39 42  1  0  0  0  0
 39 43  1  0  0  0  0
 41 40  1  0  0  0  0
 42 41  1  0  0  0  0
 43 38  1  0  0  0  0
 45 44  1  1  0  0  0
 45 46  1  0  0  0  0
M  END
>  <MODEL>
5

>  <REMARK>
 VINA RESULT:      -6.6      2.773     10.593
  Name = 
  19 active torsions:
  status: ('A' for Active; 'I' for Inactive)
    1  A    between atoms: O_4  and  C_14
    2  A    between atoms: O_4  and  C_19
    3  A    between atoms: C_6  and  C_31
    4  A    between atoms: C_6  and  C_41
    5  A    between atoms: C_9  and  C_33
    6  A    between atoms: C_13  and  C_42
    7  A    between atoms: C_16  and  O_32
    8  A    between atoms: C_16  and  C_44
    9  A    between atoms: C_17  and  C_42
   10  A    between atoms: C_18  and  C_24
   11  A    between atoms: C_19  and  C_31
   12  A    between atoms: C_20  and  C_44
   13  A    between atoms: N_21  and  C_29
   14  A    between atoms: N_21  and  C_41
   15  A    between atoms: C_22  and  C_29
   16  A    between atoms: C_23  and  C_33
   17  A    between atoms: N_27  and  C_39
   18  A    between atoms: N_27  and  C_43
   19  A    between atoms: C_33  and  C_43
                            x       y       z     vdW  Elec       q    Type
                         _______ _______ _______ _____ _____    ______ ____

>  <TORSDO>
F 19

$$$$
=
 OpenBabel11032420013D

 46 48  0  0  1  0  0  0  0  0999 V2000
  185.8590  178.6440  142.3950 C   0  0  0  0  0  3  0  0  0  0  0  0
  184.6000  178.8970  142.0170 C   0  0  0  0  0  0  0  0  0  0  0  0
  183.6600  179.3980  142.9270 O   0  0  0  0  0  0  0  0  0  0  0  0
  183.7920  178.9970  145.3020 C   0  0  0  0  0  1  0  0  0  0  0  0
  183.1120  178.6320  143.9940 C   0  0  0  0  0  2  0  0  0  0  0  0
  184.1580  178.6540  140.6060 C   0  0  0  0  0  2  0  0  0  0  0  0
  183.1010  177.5610  140.5530 C   0  0  0  0  0  2  0  0  0  0  0  0
  183.0550  175.7950  138.9490 O   0  0  0  0  0  1  0  0  0  0  0  0
  182.8100  177.1600  139.1160 C   0  0  2  0  0  3  0  0  0  0  0  0
  183.6600  177.9220  138.2160 N   0  0  0  0  0  2  0  0  0  0  0  0
  183.9840  177.0600  137.0870 C   0  0  1  0  0  3  0  0  0  0  0  0
  182.9580  177.2550  135.9800 C   0  0  0  0  0  1  0  0  0  0  0  0
  185.8960  176.2720  135.5670 C   0  0  0  0  0  2  0  0  0  0  0  0
  186.3630  177.5370  137.7900 C   0  0  0  0  0  2  0  0  0  0  0  0
  187.6460  178.2630  137.3820 C   0  0  0  0  0  2  0  0  0  0  0  0
  187.1120  175.4070  135.9530 C   0  0  1  0  0  3  0  0  0  0  0  0
  185.4180  177.3130  136.6080 C   0  0  2  0  0  3  0  0  0  0  0  0
  188.3170  177.6830  136.1360 C   0  0  0  0  0  2  0  0  0  0  0  0
  188.4350  176.1610  136.1910 C   0  0  0  0  0  2  0  0  0  0  0  0
  186.7910  174.4590  137.1010 C   0  0  0  0  0  2  0  0  0  0  0  0
  187.7660  172.2580  137.2440 O   0  0  0  0  0  1  0  0  0  0  0  0
  186.7590  173.0090  136.6280 C   0  0  2  0  0  3  0  0  0  0  0  0
  187.1410  171.6640  134.9430 O   0  0  0  0  0  1  0  0  0  0  0  0
  186.8510  172.9210  135.2270 O   0  0  0  0  0  0  0  0  0  0  0  0
  186.9030  178.1150  141.4670 C   0  0  0  0  0  2  0  0  0  0  0  0
  189.1830  179.3930  142.2880 S   0  0  0  0  0  0  0  0  0  0  0  0
  188.9690  176.7590  141.5250 C   0  0  0  0  0  2  0  0  0  0  0  0
  188.1950  177.8650  142.2220 C   0  0  2  0  0  3  0  0  0  0  0  0
  191.3620  177.0190  142.4130 C   0  0  2  0  0  3  0  0  0  0  0  0
  190.0620  178.8020  143.7640 C   0  0  0  0  0  2  0  0  0  0  0  0
  190.0730  176.1820  142.4120 C   0  0  0  0  0  2  0  0  0  0  0  0
  191.4120  178.1860  143.4130 C   0  0  1  0  0  3  0  0  0  0  0  0
  191.8100  177.4420  141.0490 C   0  0  0  0  0  3  0  0  0  0  0  0
  192.9800  177.3400  140.7240 O   0  0  0  0  0  0  0  0  0  0  0  0
  192.0630  177.7540  144.6390 N   0  0  0  0  0  2  0  0  0  0  0  0
  191.2810  176.6580  145.1910 C   0  0  0  0  0  2  0  0  0  0  0  0
  191.1810  176.8050  146.7110 C   0  0  1  0  0  3  0  0  0  0  0  0
  189.7000  176.9100  147.1330 C   0  0  0  0  0  3  0  0  0  0  0  0
  188.0090  178.0560  148.5930 C   0  0  0  0  0  2  0  0  0  0  0  0
  188.7790  177.1350  145.9260 C   0  0  0  0  0  2  0  0  0  0  0  0
  187.3190  177.1490  146.3640 C   0  0  0  0  0  2  0  0  0  0  0  0
  187.0900  178.2560  147.3900 C   0  0  0  0  0  2  0  0  0  0  0  0
  189.4650  178.0390  148.1430 C   0  0  0  0  0  2  0  0  0  0  0  0
  192.8090  176.1230  148.4980 C   0  0  0  0  0  1  0  0  0  0  0  0
  191.8840  175.6220  147.4050 C   0  0  2  0  0  3  0  0  0  0  0  0
  192.6450  174.8770  146.5000 O   0  0  0  0  0  1  0  0  0  0  0  0
  2  1  2  0  0  0  0
  2  3  1  0  0  0  0
  3  5  1  0  0  0  0
  5  4  1  0  0  0  0
  6  2  1  0  0  0  0
  7  6  1  0  0  0  0
  9  8  1  1  0  0  0
  9  7  1  0  0  0  0
 10  9  1  0  0  0  0
 11 12  1  6  0  0  0
 11 10  1  0  0  0  0
 13 16  1  0  0  0  0
 13 17  1  0  0  0  0
 15 14  1  0  0  0  0
 16 19  1  0  0  0  0
 16 20  1  1  0  0  0
 17 11  1  1  0  0  0
 17 14  1  0  0  0  0
 18 19  1  0  0  0  0
 18 15  1  0  0  0  0
 22 20  1  0  0  0  0
 22 21  1  1  0  0  0
 23 24  1  0  0  0  0
 24 22  1  0  0  0  0
 25  1  1  0  0  0  0
 26 30  1  0  0  0  0
 27 28  1  0  0  0  0
 27 31  1  0  0  0  0
 28 25  1  6  0  0  0
 28 26  1  0  0  0  0
 29 33  1  6  0  0  0
 29 32  1  0  0  0  0
 31 29  1  0  0  0  0
 32 30  1  0  0  0  0
 32 35  1  1  0  0  0
 34 33  2  0  0  0  0
 35 36  1  0  0  0  0
 37 36  1  6  0  0  0
 37 38  1  0  0  0  0
 37 45  1  0  0  0  0
 38 43  1  0  0  0  0
 40 41  1  0  0  0  0
 40 38  1  0  0  0  0
 41 42  1  0  0  0  0
 42 39  1  0  0  0  0
 43 39  1  0  0  0  0
 45 44  1  1  0  0  0
 46 45  1  0  0  0  0
M  END
>  <MODEL>
6

>  <REMARK>
 VINA RESULT:      -6.5      2.388      9.188
  Name = 
  19 active torsions:
  status: ('A' for Active; 'I' for Inactive)
    1  A    between atoms: O_4  and  C_14
    2  A    between atoms: O_4  and  C_19
    3  A    between atoms: C_6  and  C_31
    4  A    between atoms: C_6  and  C_41
    5  A    between atoms: C_9  and  C_33
    6  A    between atoms: C_13  and  C_42
    7  A    between atoms: C_16  and  O_32
    8  A    between atoms: C_16  and  C_44
    9  A    between atoms: C_17  and  C_42
   10  A    between atoms: C_18  and  C_24
   11  A    between atoms: C_19  and  C_31
   12  A    between atoms: C_20  and  C_44
   13  A    between atoms: N_21  and  C_29
   14  A    between atoms: N_21  and  C_41
   15  A    between atoms: C_22  and  C_29
   16  A    between atoms: C_23  and  C_33
   17  A    between atoms: N_27  and  C_39
   18  A    between atoms: N_27  and  C_43
   19  A    between atoms: C_33  and  C_43
                            x       y       z     vdW  Elec       q    Type
                         _______ _______ _______ _____ _____    ______ ____

>  <TORSDO>
F 19

$$$$
=
 OpenBabel11032420013D

 46 48  0  0  1  0  0  0  0  0999 V2000
  190.3600  176.5020  138.7430 C   0  0  0  0  0  3  0  0  0  0  0  0
  189.2780  176.5420  137.9550 C   0  0  0  0  0  0  0  0  0  0  0  0
  188.7950  175.3830  137.3330 O   0  0  0  0  0  0  0  0  0  0  0  0
  189.9220  175.2550  135.2050 C   0  0  0  0  0  1  0  0  0  0  0  0
  189.5920  174.5440  136.5050 C   0  0  0  0  0  2  0  0  0  0  0  0
  188.5490  177.8280  137.7160 C   0  0  0  0  0  2  0  0  0  0  0  0
  187.3600  177.6110  136.7930 C   0  0  0  0  0  2  0  0  0  0  0  0
  185.5890  176.0240  136.9820 O   0  0  0  0  0  1  0  0  0  0  0  0
  186.1400  177.1610  137.5790 C   0  0  2  0  0  3  0  0  0  0  0  0
  185.1530  178.2270  137.6000 N   0  0  0  0  0  2  0  0  0  0  0  0
  184.3510  178.0580  138.8050 C   0  0  1  0  0  3  0  0  0  0  0  0
  184.2330  179.3880  139.5340 C   0  0  0  0  0  1  0  0  0  0  0  0
  181.8570  178.5090  138.4020 C   0  0  0  0  0  2  0  0  0  0  0  0
  182.6900  176.2320  139.3400 C   0  0  0  0  0  2  0  0  0  0  0  0
  181.6210  175.3220  138.7320 C   0  0  0  0  0  2  0  0  0  0  0  0
  180.6970  178.3510  139.4050 C   0  0  1  0  0  3  0  0  0  0  0  0
  182.9850  177.4520  138.4650 C   0  0  2  0  0  3  0  0  0  0  0  0
  180.3780  176.0670  138.2440 C   0  0  0  0  0  2  0  0  0  0  0  0
  179.8550  177.0670  139.2740 C   0  0  0  0  0  2  0  0  0  0  0  0
  181.1510  178.5810  140.8390 C   0  0  0  0  0  2  0  0  0  0  0  0
  179.5410  180.3740  140.7650 O   0  0  0  0  0  1  0  0  0  0  0  0
  180.1500  179.4380  141.6070 C   0  0  2  0  0  3  0  0  0  0  0  0
  179.8610  180.0650  143.6850 O   0  0  0  0  0  1  0  0  0  0  0  0
  180.7520  180.0710  142.7100 O   0  0  0  0  0  0  0  0  0  0  0  0
  190.9150  177.7040  139.4350 C   0  0  0  0  0  2  0  0  0  0  0  0
  192.0480  177.8810  141.9220 S   0  0  0  0  0  0  0  0  0  0  0  0
  189.8710  176.3530  141.2220 C   0  0  0  0  0  2  0  0  0  0  0  0
  190.5510  177.6740  140.9070 C   0  0  2  0  0  3  0  0  0  0  0  0
  190.0510  176.1520  143.7730 C   0  0  2  0  0  3  0  0  0  0  0  0
  191.0590  178.4920  143.3180 C   0  0  0  0  0  2  0  0  0  0  0  0
  189.1360  176.3890  142.5620 C   0  0  0  0  0  2  0  0  0  0  0  0
  190.7690  177.3910  144.3340 C   0  0  1  0  0  3  0  0  0  0  0  0
  190.9930  175.0000  143.6040 C   0  0  0  0  0  3  0  0  0  0  0  0
  192.0460  174.9680  144.2170 O   0  0  0  0  0  0  0  0  0  0  0  0
  189.9930  177.9550  145.4270 N   0  0  0  0  0  2  0  0  0  0  0  0
  188.7470  177.2080  145.5130 C   0  0  0  0  0  2  0  0  0  0  0  0
  187.6960  178.0350  146.2570 C   0  0  1  0  0  3  0  0  0  0  0  0
  186.3300  177.9120  145.5470 C   0  0  0  0  0  3  0  0  0  0  0  0
  183.9300  178.6460  145.4680 C   0  0  0  0  0  2  0  0  0  0  0  0
  186.4450  178.1960  144.0430 C   0  0  0  0  0  2  0  0  0  0  0  0
  185.1000  177.9830  143.3560 C   0  0  0  0  0  2  0  0  0  0  0  0
  184.0480  178.9040  143.9680 C   0  0  0  0  0  2  0  0  0  0  0  0
  185.2810  178.8570  146.1430 C   0  0  0  0  0  2  0  0  0  0  0  0
  188.2600  178.6120  148.6360 C   0  0  0  0  0  1  0  0  0  0  0  0
  187.6100  177.5850  147.7280 C   0  0  2  0  0  3  0  0  0  0  0  0
  188.2550  176.3610  147.9270 O   0  0  0  0  0  1  0  0  0  0  0  0
  1 25  1  0  0  0  0
  2  1  2  0  0  0  0
  3  2  1  0  0  0  0
  4  5  1  0  0  0  0
  5  3  1  0  0  0  0
  6  2  1  0  0  0  0
  7  9  1  0  0  0  0
  7  6  1  0  0  0  0
  9  8  1  6  0  0  0
  9 10  1  0  0  0  0
 10 11  1  0  0  0  0
 11 12  1  6  0  0  0
 13 17  1  0  0  0  0
 13 16  1  0  0  0  0
 15 14  1  0  0  0  0
 16 20  1  1  0  0  0
 17 11  1  1  0  0  0
 17 14  1  0  0  0  0
 18 15  1  0  0  0  0
 18 19  1  0  0  0  0
 19 16  1  0  0  0  0
 20 22  1  0  0  0  0
 22 21  1  6  0  0  0
 22 24  1  0  0  0  0
 24 23  1  0  0  0  0
 26 30  1  0  0  0  0
 27 31  1  0  0  0  0
 28 25  1  6  0  0  0
 28 27  1  0  0  0  0
 28 26  1  0  0  0  0
 29 33  1  6  0  0  0
 29 32  1  0  0  0  0
 30 32  1  0  0  0  0
 31 29  1  0  0  0  0
 32 35  1  1  0  0  0
 33 34  2  0  0  0  0
 35 36  1  0  0  0  0
 37 36  1  6  0  0  0
 37 45  1  0  0  0  0
 38 43  1  0  0  0  0
 38 37  1  0  0  0  0
 39 43  1  0  0  0  0
 40 38  1  0  0  0  0
 41 42  1  0  0  0  0
 41 40  1  0  0  0  0
 42 39  1  0  0  0  0
 45 46  1  0  0  0  0
 45 44  1  1  0  0  0
M  END
>  <MODEL>
7

>  <REMARK>
 VINA RESULT:      -6.3      2.726     10.121
  Name = 
  19 active torsions:
  status: ('A' for Active; 'I' for Inactive)
    1  A    between atoms: O_4  and  C_14
    2  A    between atoms: O_4  and  C_19
    3  A    between atoms: C_6  and  C_31
    4  A    between atoms: C_6  and  C_41
    5  A    between atoms: C_9  and  C_33
    6  A    between atoms: C_13  and  C_42
    7  A    between atoms: C_16  and  O_32
    8  A    between atoms: C_16  and  C_44
    9  A    between atoms: C_17  and  C_42
   10  A    between atoms: C_18  and  C_24
   11  A    between atoms: C_19  and  C_31
   12  A    between atoms: C_20  and  C_44
   13  A    between atoms: N_21  and  C_29
   14  A    between atoms: N_21  and  C_41
   15  A    between atoms: C_22  and  C_29
   16  A    between atoms: C_23  and  C_33
   17  A    between atoms: N_27  and  C_39
   18  A    between atoms: N_27  and  C_43
   19  A    between atoms: C_33  and  C_43
                            x       y       z     vdW  Elec       q    Type
                         _______ _______ _______ _____ _____    ______ ____

>  <TORSDO>
F 19

$$$$
=
 OpenBabel11032420013D

 46 48  0  0  1  0  0  0  0  0999 V2000
  189.8110  175.9010  137.0370 C   0  0  0  0  0  3  0  0  0  0  0  0
  188.5320  175.6820  136.7050 C   0  0  0  0  0  0  0  0  0  0  0  0
  188.1660  174.5610  135.9490 O   0  0  0  0  0  0  0  0  0  0  0  0
  187.4010  172.7290  137.3190 C   0  0  0  0  0  1  0  0  0  0  0  0
  188.4500  173.2210  136.3380 C   0  0  0  0  0  2  0  0  0  0  0  0
  187.4540  176.6280  137.1350 C   0  0  0  0  0  2  0  0  0  0  0  0
  186.3490  176.6950  136.0920 C   0  0  0  0  0  2  0  0  0  0  0  0
  184.8330  174.9430  136.6620 O   0  0  0  0  0  1  0  0  0  0  0  0
  185.0050  176.3290  136.7030 C   0  0  2  0  0  3  0  0  0  0  0  0
  183.9390  176.9750  135.9570 N   0  0  0  0  0  2  0  0  0  0  0  0
  182.8620  177.2630  136.8940 C   0  0  1  0  0  3  0  0  0  0  0  0
  181.8320  176.1440  136.8540 C   0  0  0  0  0  1  0  0  0  0  0  0
  182.6540  176.7080  139.3910 C   0  0  0  0  0  2  0  0  0  0  0  0
  183.5960  178.9920  138.5840 C   0  0  0  0  0  2  0  0  0  0  0  0
  184.5780  179.2580  139.7260 C   0  0  0  0  0  2  0  0  0  0  0  0
  181.9460  177.5320  140.4840 C   0  0  1  0  0  3  0  0  0  0  0  0
  183.4180  177.4990  138.3030 C   0  0  2  0  0  3  0  0  0  0  0  0
  184.3260  178.4050  140.9700 C   0  0  0  0  0  2  0  0  0  0  0  0
  182.8550  178.3930  141.3820 C   0  0  0  0  0  2  0  0  0  0  0  0
  180.7840  178.3390  139.9230 C   0  0  0  0  0  2  0  0  0  0  0  0
  180.1720  179.8820  141.6730 O   0  0  0  0  0  1  0  0  0  0  0  0
  179.7860  178.7080  141.0170 C   0  0  2  0  0  3  0  0  0  0  0  0
  179.1600  178.1920  143.0500 O   0  0  0  0  0  1  0  0  0  0  0  0
  179.6120  177.6540  141.9320 O   0  0  0  0  0  0  0  0  0  0  0  0
  190.2570  177.0760  137.8460 C   0  0  0  0  0  2  0  0  0  0  0  0
  188.9690  178.6360  139.6920 S   0  0  0  0  0  0  0  0  0  0  0  0
  190.7310  176.5920  140.2230 C   0  0  0  0  0  2  0  0  0  0  0  0
  189.6550  177.0120  139.2370 C   0  0  2  0  0  3  0  0  0  0  0  0
  189.7900  177.2900  142.5050 C   0  0  2  0  0  3  0  0  0  0  0  0
  187.8480  177.8640  140.8950 C   0  0  0  0  0  2  0  0  0  0  0  0
  190.1410  176.1330  141.5570 C   0  0  0  0  0  2  0  0  0  0  0  0
  188.4040  177.9280  142.3140 C   0  0  1  0  0  3  0  0  0  0  0  0
  190.8630  178.3280  142.6170 C   0  0  0  0  0  3  0  0  0  0  0  0
  191.3950  178.5530  143.6910 O   0  0  0  0  0  0  0  0  0  0  0  0
  187.4490  177.3100  143.2200 N   0  0  0  0  0  2  0  0  0  0  0  0
  187.0770  178.3070  144.2130 C   0  0  0  0  0  2  0  0  0  0  0  0
  186.3890  177.6260  145.3990 C   0  0  1  0  0  3  0  0  0  0  0  0
  187.4190  177.3480  146.5150 C   0  0  0  0  0  3  0  0  0  0  0  0
  189.8460  177.1900  147.1420 C   0  0  0  0  0  2  0  0  0  0  0  0
  187.1810  178.2370  147.7430 C   0  0  0  0  0  2  0  0  0  0  0  0
  188.1580  177.8790  148.8570 C   0  0  0  0  0  2  0  0  0  0  0  0
  189.5940  178.0580  148.3730 C   0  0  0  0  0  2  0  0  0  0  0  0
  188.8610  177.5530  146.0350 C   0  0  0  0  0  2  0  0  0  0  0  0
  184.1650  178.6470  144.8350 C   0  0  0  0  0  1  0  0  0  0  0  0
  185.2250  178.4970  145.9090 C   0  0  2  0  0  3  0  0  0  0  0  0
  185.6620  179.7750  146.2670 O   0  0  0  0  0  1  0  0  0  0  0  0
  1 25  1  0  0  0  0
  2  1  2  0  0  0  0
  2  6  1  0  0  0  0
  3  5  1  0  0  0  0
  3  2  1  0  0  0  0
  5  4  1  0  0  0  0
  7  9  1  0  0  0  0
  7  6  1  0  0  0  0
  9  8  1  6  0  0  0
 10  9  1  0  0  0  0
 10 11  1  0  0  0  0
 11 12  1  1  0  0  0
 13 16  1  0  0  0  0
 14 15  1  0  0  0  0
 15 18  1  0  0  0  0
 16 20  1  6  0  0  0
 16 19  1  0  0  0  0
 17 11  1  6  0  0  0
 17 14  1  0  0  0  0
 17 13  1  0  0  0  0
 18 19  1  0  0  0  0
 20 22  1  0  0  0  0
 22 21  1  1  0  0  0
 22 24  1  0  0  0  0
 24 23  1  0  0  0  0
 26 30  1  0  0  0  0
 27 31  1  0  0  0  0
 28 25  1  6  0  0  0
 28 26  1  0  0  0  0
 28 27  1  0  0  0  0
 29 33  1  6  0  0  0
 30 32  1  0  0  0  0
 31 29  1  0  0  0  0
 32 29  1  0  0  0  0
 32 35  1  1  0  0  0
 33 34  2  0  0  0  0
 35 36  1  0  0  0  0
 37 36  1  6  0  0  0
 37 45  1  0  0  0  0
 37 38  1  0  0  0  0
 38 40  1  0  0  0  0
 39 42  1  0  0  0  0
 40 41  1  0  0  0  0
 42 41  1  0  0  0  0
 43 38  1  0  0  0  0
 43 39  1  0  0  0  0
 45 44  1  6  0  0  0
 45 46  1  0  0  0  0
M  END
>  <MODEL>
8

>  <REMARK>
 VINA RESULT:      -6.3      2.077      9.749
  Name = 
  19 active torsions:
  status: ('A' for Active; 'I' for Inactive)
    1  A    between atoms: O_4  and  C_14
    2  A    between atoms: O_4  and  C_19
    3  A    between atoms: C_6  and  C_31
    4  A    between atoms: C_6  and  C_41
    5  A    between atoms: C_9  and  C_33
    6  A    between atoms: C_13  and  C_42
    7  A    between atoms: C_16  and  O_32
    8  A    between atoms: C_16  and  C_44
    9  A    between atoms: C_17  and  C_42
   10  A    between atoms: C_18  and  C_24
   11  A    between atoms: C_19  and  C_31
   12  A    between atoms: C_20  and  C_44
   13  A    between atoms: N_21  and  C_29
   14  A    between atoms: N_21  and  C_41
   15  A    between atoms: C_22  and  C_29
   16  A    between atoms: C_23  and  C_33
   17  A    between atoms: N_27  and  C_39
   18  A    between atoms: N_27  and  C_43
   19  A    between atoms: C_33  and  C_43
                            x       y       z     vdW  Elec       q    Type
                         _______ _______ _______ _____ _____    ______ ____

>  <TORSDO>
F 19

$$$$
=
 OpenBabel11032420013D

 46 48  0  0  1  0  0  0  0  0999 V2000
  189.3290  177.4200  137.8310 C   0  0  0  0  0  3  0  0  0  0  0  0
  188.3820  176.6570  137.2710 C   0  0  0  0  0  0  0  0  0  0  0  0
  188.7190  175.5050  136.5470 O   0  0  0  0  0  0  0  0  0  0  0  0
  189.6890  173.3580  136.0330 C   0  0  0  0  0  1  0  0  0  0  0  0
  189.5690  174.4800  137.0480 C   0  0  0  0  0  2  0  0  0  0  0  0
  186.9330  177.0090  137.4060 C   0  0  0  0  0  2  0  0  0  0  0  0
  186.0560  175.9240  136.8010 C   0  0  0  0  0  2  0  0  0  0  0  0
  183.9140  174.8910  137.0040 O   0  0  0  0  0  1  0  0  0  0  0  0
  184.6150  176.0720  137.2640 C   0  0  2  0  0  3  0  0  0  0  0  0
  183.9880  177.1770  136.5600 N   0  0  0  0  0  2  0  0  0  0  0  0
  183.0070  177.7690  137.4590 C   0  0  1  0  0  3  0  0  0  0  0  0
  181.6770  177.0450  137.3180 C   0  0  0  0  0  1  0  0  0  0  0  0
  182.5710  177.0480  139.8830 C   0  0  0  0  0  2  0  0  0  0  0  0
  183.9700  179.1680  139.3300 C   0  0  0  0  0  2  0  0  0  0  0  0
  184.9250  179.1380  140.5240 C   0  0  0  0  0  2  0  0  0  0  0  0
  181.9780  177.8950  141.0260 C   0  0  1  0  0  3  0  0  0  0  0  0
  183.5260  177.7680  138.9020 C   0  0  2  0  0  3  0  0  0  0  0  0
  184.4530  178.2450  141.6720 C   0  0  0  0  0  2  0  0  0  0  0  0
  182.9870  178.4820  142.0320 C   0  0  0  0  0  2  0  0  0  0  0  0
  181.0200  178.9590  140.5060 C   0  0  0  0  0  2  0  0  0  0  0  0
  179.2920  180.0230  141.8100 O   0  0  0  0  0  1  0  0  0  0  0  0
  179.6470  178.8350  141.1610 C   0  0  2  0  0  3  0  0  0  0  0  0
  179.5200  178.2460  143.2650 O   0  0  0  0  0  1  0  0  0  0  0  0
  179.5950  177.7430  142.0460 O   0  0  0  0  0  0  0  0  0  0  0  0
  189.0290  178.6530  138.6180 C   0  0  0  0  0  2  0  0  0  0  0  0
  190.2010  176.8230  140.2850 S   0  0  0  0  0  0  0  0  0  0  0  0
  188.2520  178.6410  140.9650 C   0  0  0  0  0  2  0  0  0  0  0  0
  189.4620  178.4710  140.0610 C   0  0  2  0  0  3  0  0  0  0  0  0
  188.9710  177.5530  143.1750 C   0  0  2  0  0  3  0  0  0  0  0  0
  191.1200  177.3950  141.7430 C   0  0  0  0  0  2  0  0  0  0  0  0
  188.6520  178.8560  142.4250 C   0  0  0  0  0  2  0  0  0  0  0  0
  190.4100  177.0280  143.0430 C   0  0  1  0  0  3  0  0  0  0  0  0
  187.9660  176.4660  142.9530 C   0  0  0  0  0  3  0  0  0  0  0  0
  188.2440  175.3060  143.2070 O   0  0  0  0  0  0  0  0  0  0  0  0
  191.2090  177.5000  144.1620 N   0  0  0  0  0  2  0  0  0  0  0  0
  191.3190  176.4060  145.1160 C   0  0  0  0  0  2  0  0  0  0  0  0
  191.3830  176.9640  146.5400 C   0  0  1  0  0  3  0  0  0  0  0  0
  189.9640  177.0160  147.1480 C   0  0  0  0  0  3  0  0  0  0  0  0
  188.4150  178.1430  148.7710 C   0  0  0  0  0  2  0  0  0  0  0  0
  188.8850  177.1420  146.0630 C   0  0  0  0  0  2  0  0  0  0  0  0
  187.4950  177.1050  146.6880 C   0  0  0  0  0  2  0  0  0  0  0  0
  187.3400  178.2440  147.6910 C   0  0  0  0  0  2  0  0  0  0  0  0
  189.8010  178.1770  148.1360 C   0  0  0  0  0  2  0  0  0  0  0  0
  191.6170  174.8840  147.9290 C   0  0  0  0  0  1  0  0  0  0  0  0
  192.3350  176.1120  147.4020 C   0  0  2  0  0  3  0  0  0  0  0  0
  192.8180  176.8350  148.4960 O   0  0  0  0  0  1  0  0  0  0  0  0
  1 25  1  0  0  0  0
  2  6  1  0  0  0  0
  2  1  2  0  0  0  0
  3  5  1  0  0  0  0
  3  2  1  0  0  0  0
  4  5  1  0  0  0  0
  7  9  1  0  0  0  0
  7  6  1  0  0  0  0
  9  8  1  6  0  0  0
 10  9  1  0  0  0  0
 10 11  1  0  0  0  0
 11 12  1  1  0  0  0
 13 16  1  0  0  0  0
 14 15  1  0  0  0  0
 15 18  1  0  0  0  0
 16 20  1  6  0  0  0
 16 19  1  0  0  0  0
 17 11  1  6  0  0  0
 17 14  1  0  0  0  0
 17 13  1  0  0  0  0
 18 19  1  0  0  0  0
 20 22  1  0  0  0  0
 22 21  1  1  0  0  0
 22 24  1  0  0  0  0
 24 23  1  0  0  0  0
 26 30  1  0  0  0  0
 27 31  1  0  0  0  0
 28 25  1  6  0  0  0
 28 26  1  0  0  0  0
 28 27  1  0  0  0  0
 29 33  1  6  0  0  0
 30 32  1  0  0  0  0
 31 29  1  0  0  0  0
 32 29  1  0  0  0  0
 32 35  1  1  0  0  0
 33 34  2  0  0  0  0
 35 36  1  0  0  0  0
 37 36  1  6  0  0  0
 37 38  1  0  0  0  0
 37 45  1  0  0  0  0
 38 43  1  0  0  0  0
 40 41  1  0  0  0  0
 40 38  1  0  0  0  0
 41 42  1  0  0  0  0
 42 39  1  0  0  0  0
 43 39  1  0  0  0  0
 45 44  1  1  0  0  0
 45 46  1  0  0  0  0
M  END
>  <MODEL>
9

>  <REMARK>
 VINA RESULT:      -6.3      2.468      9.861
  Name = 
  19 active torsions:
  status: ('A' for Active; 'I' for Inactive)
    1  A    between atoms: O_4  and  C_14
    2  A    between atoms: O_4  and  C_19
    3  A    between atoms: C_6  and  C_31
    4  A    between atoms: C_6  and  C_41
    5  A    between atoms: C_9  and  C_33
    6  A    between atoms: C_13  and  C_42
    7  A    between atoms: C_16  and  O_32
    8  A    between atoms: C_16  and  C_44
    9  A    between atoms: C_17  and  C_42
   10  A    between atoms: C_18  and  C_24
   11  A    between atoms: C_19  and  C_31
   12  A    between atoms: C_20  and  C_44
   13  A    between atoms: N_21  and  C_29
   14  A    between atoms: N_21  and  C_41
   15  A    between atoms: C_22  and  C_29
   16  A    between atoms: C_23  and  C_33
   17  A    between atoms: N_27  and  C_39
   18  A    between atoms: N_27  and  C_43
   19  A    between atoms: C_33  and  C_43
                            x       y       z     vdW  Elec       q    Type
                         _______ _______ _______ _____ _____    ______ ____

>  <TORSDO>
F 19

$$$$
