=
 OpenBabel11042410503D

 31 34  0  0  1  0  0  0  0  0999 V2000
  184.7250  178.3670  144.3480 C   0  0  0  0  0  0  0  0  0  0  0  0
  186.6680  178.6510  146.2880 C   0  0  0  0  0  2  0  0  0  0  0  0
  187.5980  178.1580  145.5400 C   0  0  2  0  0  3  0  0  0  0  0  0
  181.3740  178.8200  139.8130 N   0  0  0  0  0  1  0  0  0  0  0  0
  182.2210  178.7460  140.9550 C   0  0  0  0  0  0  0  0  0  0  0  0
  184.4110  178.3970  145.8420 C   0  0  0  0  0  2  0  0  0  0  0  0
  187.1640  177.6590  144.2420 N   0  0  1  0  0  0  0  0  0  0  0  0
  181.6990  178.9390  142.1410 N   0  0  0  0  0  0  0  0  0  0  0  0
  185.8550  177.9920  143.6790 C   0  0  2  0  0  3  0  0  0  0  0  0
  183.7350  178.5640  143.3120 C   0  0  0  0  0  0  0  0  0  0  0  0
  182.4450  178.8620  143.3710 C   0  0  0  0  0  3  0  0  0  0  0  0
  185.6300  177.9640  142.2590 N   0  0  0  0  0  0  0  0  0  0  0  0
  185.4950  179.0090  146.6730 C   0  0  0  0  0  2  0  0  0  0  0  0
  184.3980  178.3040  142.0730 C   0  0  0  0  0  0  0  0  0  0  0  0
  183.6990  178.4360  140.7520 C   0  0  0  0  0  0  0  0  0  0  0  0
  189.6520  177.6970  142.1690 C   0  0  1  0  0  3  0  0  0  0  0  0
  188.1520  177.5000  141.9610 C   0  0  0  0  0  2  0  0  0  0  0  0
  188.0420  176.8910  143.3450 C   0  0  1  0  0  3  0  0  0  0  0  0
  189.5170  177.1420  143.5850 C   0  0  0  0  0  2  0  0  0  0  0  0
  191.8140  177.1600  141.3960 C   0  0  0  0  0  1  0  0  0  0  0  0
  190.0140  177.0070  139.9450 C   0  0  0  0  0  1  0  0  0  0  0  0
  190.4130  176.7770  141.3250 N   0  0  0  0  0  0  0  0  0  0  0  0
  189.3400  177.3970  147.1370 C   0  0  0  0  0  0  0  0  0  0  0  0
  188.9420  177.9510  146.0210 N   0  0  0  0  0  0  0  0  0  0  0  0
  188.3860  176.9240  148.1860 C   0  0  0  0  0  2  0  0  0  0  0  0
  188.1930  177.9300  149.1300 O   0  0  0  0  0  1  0  0  0  0  0  0
  191.5660  176.4590  146.6180 C   0  0  0  0  0  1  0  0  0  0  0  0
  190.7050  177.2680  147.4070 O   0  0  0  0  0  0  0  0  0  0  0  0
  184.3410  179.5410  139.9240 C   0  0  0  0  0  2  0  0  0  0  0  0
  185.4020  179.0280  139.1770 O   0  0  0  0  0  0  0  0  0  0  0  0
  184.8100  178.1110  138.3090 C   0  0  0  0  0  1  0  0  0  0  0  0
  1  6  1  0  0  0  0
  2 13  1  0  0  0  0
  3 24  1  1  0  0  0
  3  2  1  0  0  0  0
  4  5  1  0  0  0  0
  5  8  1  0  0  0  0
  6 13  1  0  0  0  0
  7 18  1  6  0  0  0
  7  3  1  0  0  0  0
  8 11  2  0  0  0  0
  9 12  1  6  0  0  0
  9  7  1  0  0  0  0
  9  1  1  0  0  0  0
 10 11  1  0  0  0  0
 10  1  2  0  0  0  0
 14 12  2  0  0  0  0
 14 10  1  0  0  0  0
 15  5  2  0  0  0  0
 15 14  1  0  0  0  0
 16 22  1  6  0  0  0
 16 19  1  0  0  0  0
 17 16  1  0  0  0  0
 18 17  1  6  0  0  0
 18 19  1  0  0  0  0
 21 22  1  0  0  0  0
 22 20  1  0  0  0  0
 23 28  1  0  0  0  0
 23 25  1  0  0  0  0
 24 23  2  0  0  0  0
 25 26  1  0  0  0  0
 27 28  1  0  0  0  0
 29 15  1  0  0  0  0
 30 29  1  0  0  0  0
 31 30  1  0  0  0  0
M  END
>  <MODEL>
1

>  <REMARK>
 VINA RESULT:      -8.6      0.000      0.000
  Name = 
  7 active torsions:
  status: ('A' for Active; 'I' for Inactive)
    1  A    between atoms: C_1  and  O_12
    2  A    between atoms: C_1  and  C_31
    3  A    between atoms: C_3  and  C_5
    4  A    between atoms: C_3  and  O_27
    5  A    between atoms: N_6  and  C_9
    6  A    between atoms: N_16  and  C_23
    7  A    between atoms: N_19  and  C_20
                            x       y       z     vdW  Elec       q    Type
                         _______ _______ _______ _____ _____    ______ ____

>  <TORSDO>
F 7

$$$$
=
 OpenBabel11042410503D

 31 34  0  0  1  0  0  0  0  0999 V2000
  189.4690  177.2490  142.7050 C   0  0  0  0  0  0  0  0  0  0  0  0
  188.2930  178.4560  140.5190 C   0  0  0  0  0  2  0  0  0  0  0  0
  187.1300  178.5100  141.0760 C   0  0  2  0  0  3  0  0  0  0  0  0
  191.7660  175.9930  147.7200 N   0  0  0  0  0  1  0  0  0  0  0  0
  191.2050  176.3450  146.4590 C   0  0  0  0  0  0  0  0  0  0  0  0
  190.0060  177.1000  141.2840 C   0  0  0  0  0  2  0  0  0  0  0  0
  187.0260  177.8740  142.3820 N   0  0  0  0  0  0  0  0  0  0  0  0
  191.9470  176.2350  145.3850 N   0  0  0  0  0  0  0  0  0  0  0  0
  188.2080  177.5050  143.1620 C   0  0  0  0  0  0  0  0  0  0  0  0
  190.2310  176.9290  143.8920 C   0  0  2  0  0  3  0  0  0  0  0  0
  191.4850  176.5320  144.0530 C   0  0  0  0  0  3  0  0  0  0  0  0
  188.1430  177.3820  144.5940 N   0  0  0  0  0  0  0  0  0  0  0  0
  189.5330  178.1670  140.3460 C   0  0  0  0  0  2  0  0  0  0  0  0
  189.3270  177.0540  144.9910 C   0  0  0  0  0  0  0  0  0  0  0  0
  189.7600  176.8280  146.4100 C   0  0  0  0  0  0  0  0  0  0  0  0
  184.0640  179.0070  143.0340 C   0  0  1  0  0  3  0  0  0  0  0  0
  185.3150  178.8630  143.8980 C   0  0  0  0  0  2  0  0  0  0  0  0
  185.7440  177.6660  143.0730 C   0  0  1  0  0  3  0  0  0  0  0  0
  184.5380  177.8410  142.1710 C   0  0  0  0  0  2  0  0  0  0  0  0
  181.7270  179.2930  143.1800 C   0  0  0  0  0  1  0  0  0  0  0  0
  182.9900  179.2150  145.1220 C   0  0  0  0  0  1  0  0  0  0  0  0
  182.8700  178.6350  143.7930 N   0  0  0  0  0  0  0  0  0  0  0  0
  185.5870  178.7830  139.1500 C   0  0  0  0  0  0  0  0  0  0  0  0
  185.9670  179.0060  140.3800 N   0  0  0  0  0  0  0  0  0  0  0  0
  186.4000  177.9740  138.1900 C   0  0  0  0  0  2  0  0  0  0  0  0
  187.0400  178.8230  137.2880 O   0  0  0  0  0  1  0  0  0  0  0  0
  183.2610  178.5600  138.3480 C   0  0  0  0  0  1  0  0  0  0  0  0
  184.4010  179.3440  138.6690 O   0  0  0  0  0  0  0  0  0  0  0  0
  189.6270  178.1150  147.2130 C   0  0  0  0  0  2  0  0  0  0  0  0
  188.9700  177.8640  148.4180 O   0  0  0  0  0  0  0  0  0  0  0  0
  187.6350  178.1740  148.1600 C   0  0  0  0  0  1  0  0  0  0  0  0
  1  9  2  0  0  0  0
  1 10  1  0  0  0  0
  2  3  1  0  0  0  0
  3 24  1  6  0  0  0
  3  7  1  0  0  0  0
  5  4  1  0  0  0  0
  6  1  1  0  0  0  0
  7 18  1  0  0  0  0
  7  9  1  0  0  0  0
  8  5  1  0  0  0  0
  9 12  1  0  0  0  0
 10 11  1  6  0  0  0
 10 14  1  0  0  0  0
 11  8  2  0  0  0  0
 12 14  2  0  0  0  0
 13  2  1  0  0  0  0
 13  6  1  0  0  0  0
 14 15  1  0  0  0  0
 15  5  2  0  0  0  0
 15 29  1  0  0  0  0
 16 22  1  1  0  0  0
 16 17  1  0  0  0  0
 18 19  1  6  0  0  0
 18 17  1  0  0  0  0
 19 16  1  0  0  0  0
 20 22  1  0  0  0  0
 22 21  1  0  0  0  0
 23 24  2  0  0  0  0
 25 23  1  0  0  0  0
 26 25  1  0  0  0  0
 27 28  1  0  0  0  0
 28 23  1  0  0  0  0
 29 30  1  0  0  0  0
 31 30  1  0  0  0  0
M  END
>  <MODEL>
2

>  <REMARK>
 VINA RESULT:      -7.7      1.756      8.285
  Name = 
  7 active torsions:
  status: ('A' for Active; 'I' for Inactive)
    1  A    between atoms: C_1  and  O_12
    2  A    between atoms: C_1  and  C_31
    3  A    between atoms: C_3  and  C_5
    4  A    between atoms: C_3  and  O_27
    5  A    between atoms: N_6  and  C_9
    6  A    between atoms: N_16  and  C_23
    7  A    between atoms: N_19  and  C_20
                            x       y       z     vdW  Elec       q    Type
                         _______ _______ _______ _____ _____    ______ ____

>  <TORSDO>
F 7

$$$$
=
 OpenBabel11042410503D

 31 34  0  0  1  0  0  0  0  0999 V2000
  184.5290  178.6190  144.0480 C   0  0  0  0  0  0  0  0  0  0  0  0
  182.1260  178.7280  142.6960 C   0  0  0  0  0  2  0  0  0  0  0  0
  182.6900  178.8730  141.5440 C   0  0  2  0  0  3  0  0  0  0  0  0
  189.5270  177.1780  146.2730 N   0  0  0  0  0  1  0  0  0  0  0  0
  188.2570  177.5030  145.7170 C   0  0  0  0  0  0  0  0  0  0  0  0
  183.2260  179.0710  144.7030 C   0  0  0  0  0  2  0  0  0  0  0  0
  184.1410  179.0020  141.5650 N   0  0  0  0  0  0  0  0  0  0  0  0
  187.2530  177.7300  146.5270 N   0  0  0  0  0  0  0  0  0  0  0  0
  184.9350  178.6550  142.7440 C   0  0  0  0  0  0  0  0  0  0  0  0
  185.7080  178.2250  144.7880 C   0  0  0  0  0  0  0  0  0  0  0  0
  185.9300  178.0950  146.0880 C   0  0  0  0  0  3  0  0  0  0  0  0
  186.3180  178.2790  142.6230 N   0  0  0  0  0  0  0  0  0  0  0  0
  181.9990  178.6270  143.9700 C   0  0  0  0  0  2  0  0  0  0  0  0
  186.7390  178.0290  143.8180 C   0  0  0  0  0  0  0  0  0  0  0  0
  188.1190  177.5810  144.2010 C   0  0  2  0  0  3  0  0  0  0  0  0
  185.8070  177.9930  138.9790 C   0  0  1  0  0  3  0  0  0  0  0  0
  186.2510  178.6280  140.2940 C   0  0  0  0  0  2  0  0  0  0  0  0
  184.9310  179.3690  140.3790 C   0  0  1  0  0  3  0  0  0  0  0  0
  184.4570  178.6930  139.1080 C   0  0  0  0  0  2  0  0  0  0  0  0
  186.1670  177.8390  136.6530 C   0  0  0  0  0  1  0  0  0  0  0  0
  187.9690  178.2030  138.0640 C   0  0  0  0  0  1  0  0  0  0  0  0
  186.5700  178.5450  137.8600 N   0  0  0  0  0  0  0  0  0  0  0  0
  181.1910  178.2200  139.6760 C   0  0  0  0  0  0  0  0  0  0  0  0
  181.9300  179.0740  140.3350 N   0  0  0  0  0  0  0  0  0  0  0  0
  181.0730  176.7840  140.0740 C   0  0  0  0  0  2  0  0  0  0  0  0
  182.1290  176.0580  139.5250 O   0  0  0  0  0  1  0  0  0  0  0  0
  181.0950  178.5800  137.2340 C   0  0  0  0  0  1  0  0  0  0  0  0
  180.5070  178.6240  138.5270 O   0  0  0  0  0  0  0  0  0  0  0  0
  188.4190  176.2170  143.5930 C   0  0  0  0  0  2  0  0  0  0  0  0
  189.2290  176.3600  142.4660 O   0  0  0  0  0  0  0  0  0  0  0  0
  190.5040  176.0030  142.9050 C   0  0  0  0  0  1  0  0  0  0  0  0
  1  6  1  0  0  0  0
  1 10  1  0  0  0  0
  2 13  1  0  0  0  0
  3 24  1  1  0  0  0
  3  7  1  0  0  0  0
  3  2  1  0  0  0  0
  5  4  1  0  0  0  0
  5  8  2  0  0  0  0
  7  9  1  0  0  0  0
  9  1  2  0  0  0  0
 10 11  2  0  0  0  0
 11  8  1  0  0  0  0
 12  9  1  0  0  0  0
 12 14  2  0  0  0  0
 13  6  1  0  0  0  0
 14 15  1  0  0  0  0
 14 10  1  0  0  0  0
 15 29  1  6  0  0  0
 15  5  1  0  0  0  0
 16 22  1  6  0  0  0
 16 19  1  0  0  0  0
 16 17  1  0  0  0  0
 17 18  1  0  0  0  0
 18 19  1  6  0  0  0
 18  7  1  0  0  0  0
 20 22  1  0  0  0  0
 22 21  1  0  0  0  0
 23 25  1  0  0  0  0
 23 24  2  0  0  0  0
 26 25  1  0  0  0  0
 27 28  1  0  0  0  0
 28 23  1  0  0  0  0
 30 31  1  0  0  0  0
 30 29  1  0  0  0  0
M  END
>  <MODEL>
3

>  <REMARK>
 VINA RESULT:      -7.6      2.454      7.147
  Name = 
  7 active torsions:
  status: ('A' for Active; 'I' for Inactive)
    1  A    between atoms: C_1  and  O_12
    2  A    between atoms: C_1  and  C_31
    3  A    between atoms: C_3  and  C_5
    4  A    between atoms: C_3  and  O_27
    5  A    between atoms: N_6  and  C_9
    6  A    between atoms: N_16  and  C_23
    7  A    between atoms: N_19  and  C_20
                            x       y       z     vdW  Elec       q    Type
                         _______ _______ _______ _____ _____    ______ ____

>  <TORSDO>
F 7

$$$$
=
 OpenBabel11042410503D

 31 34  0  0  1  0  0  0  0  0999 V2000
  186.2920  178.3270  145.2820 C   0  0  0  0  0  0  0  0  0  0  0  0
  183.6100  178.5270  144.6610 C   0  0  0  0  0  2  0  0  0  0  0  0
  183.8350  178.7420  143.4080 C   0  0  0  0  0  0  0  0  0  0  0  0
  191.6800  176.7350  145.9380 N   0  0  0  0  0  1  0  0  0  0  0  0
  190.3130  177.0980  145.7790 C   0  0  0  0  0  0  0  0  0  0  0  0
  185.2310  178.7420  146.2990 C   0  0  0  0  0  2  0  0  0  0  0  0
  185.2370  178.8650  143.0320 N   0  0  0  0  0  0  0  0  0  0  0  0
  189.5780  177.2780  146.8480 N   0  0  0  0  0  0  0  0  0  0  0  0
  186.3200  178.4420  143.9210 C   0  0  0  0  0  0  0  0  0  0  0  0
  187.6210  177.8840  145.6400 C   0  0  0  0  0  0  0  0  0  0  0  0
  188.1930  177.6730  146.8160 C   0  0  0  0  0  3  0  0  0  0  0  0
  187.6070  178.0700  143.3980 N   0  0  0  0  0  0  0  0  0  0  0  0
  183.8400  178.3480  145.9120 C   0  0  0  0  0  2  0  0  0  0  0  0
  188.3390  177.7460  144.4110 C   0  0  0  0  0  0  0  0  0  0  0  0
  189.7610  177.2700  144.3680 C   0  0  2  0  0  3  0  0  0  0  0  0
  186.2060  178.0090  140.0640 C   0  0  1  0  0  3  0  0  0  0  0  0
  186.9530  178.6280  141.2420 C   0  0  0  0  0  2  0  0  0  0  0  0
  185.6740  179.3020  141.6970 C   0  0  1  0  0  3  0  0  0  0  0  0
  184.9100  178.6400  140.5670 C   0  0  0  0  0  2  0  0  0  0  0  0
  185.7150  178.1860  137.7640 C   0  0  0  0  0  1  0  0  0  0  0  0
  187.9250  178.0750  138.4520 C   0  0  0  0  0  1  0  0  0  0  0  0
  186.6270  178.6280  138.8070 N   0  0  0  0  0  0  0  0  0  0  0  0
  181.4800  179.0030  142.6670 C   0  0  2  0  0  3  0  0  0  0  0  0
  182.7730  179.0190  142.4730 N   0  0  0  0  0  0  0  0  0  0  0  0
  180.8670  178.5980  143.9680 C   0  0  0  0  0  2  0  0  0  0  0  0
  179.6860  177.8960  143.7310 O   0  0  0  0  0  1  0  0  0  0  0  0
  180.9110  179.0550  140.2630 C   0  0  0  0  0  1  0  0  0  0  0  0
  180.6100  179.3310  141.6230 O   0  0  0  0  0  0  0  0  0  0  0  0
  189.8520  175.9460  143.6220 C   0  0  0  0  0  2  0  0  0  0  0  0
  190.8700  176.0000  142.6690 O   0  0  0  0  0  0  0  0  0  0  0  0
  190.2630  176.5460  141.5380 C   0  0  0  0  0  1  0  0  0  0  0  0
  1 10  1  0  0  0  0
  1  6  1  0  0  0  0
  2 13  1  0  0  0  0
  3  2  1  0  0  0  0
  5  4  1  0  0  0  0
  5  8  2  0  0  0  0
  7  3  1  0  0  0  0
  7  9  1  0  0  0  0
  9  1  2  0  0  0  0
 10 11  2  0  0  0  0
 11  8  1  0  0  0  0
 12  9  1  0  0  0  0
 12 14  2  0  0  0  0
 13  6  1  0  0  0  0
 14 10  1  0  0  0  0
 15 29  1  1  0  0  0
 15 14  1  0  0  0  0
 15  5  1  0  0  0  0
 16 22  1  6  0  0  0
 16 19  1  0  0  0  0
 16 17  1  0  0  0  0
 17 18  1  0  0  0  0
 18 19  1  6  0  0  0
 18  7  1  0  0  0  0
 20 22  1  0  0  0  0
 21 22  1  0  0  0  0
 23 25  1  6  0  0  0
 24 23  1  0  0  0  0
 24  3  2  0  0  0  0
 26 25  1  0  0  0  0
 27 28  1  0  0  0  0
 28 23  1  0  0  0  0
 30 29  1  0  0  0  0
 31 30  1  0  0  0  0
M  END
>  <MODEL>
4

>  <REMARK>
 VINA RESULT:      -7.6      2.396      6.800
  Name = 
  7 active torsions:
  status: ('A' for Active; 'I' for Inactive)
    1  A    between atoms: C_1  and  O_12
    2  A    between atoms: C_1  and  C_31
    3  A    between atoms: C_3  and  C_5
    4  A    between atoms: C_3  and  O_27
    5  A    between atoms: N_6  and  C_9
    6  A    between atoms: N_16  and  C_23
    7  A    between atoms: N_19  and  C_20
                            x       y       z     vdW  Elec       q    Type
                         _______ _______ _______ _____ _____    ______ ____

>  <TORSDO>
F 7

$$$$
=
 OpenBabel11042410503D

 31 34  0  0  1  0  0  0  0  0999 V2000
  189.6030  177.2350  140.8090 C   0  0  0  0  0  0  0  0  0  0  0  0
  189.5010  176.4750  143.4600 C   0  0  0  0  0  2  0  0  0  0  0  0
  188.3650  177.0530  143.6640 C   0  0  2  0  0  3  0  0  0  0  0  0
  188.8720  177.8510  135.2330 N   0  0  0  0  0  1  0  0  0  0  0  0
  189.0510  177.6570  136.6320 C   0  0  0  0  0  0  0  0  0  0  0  0
  190.8500  176.9330  141.6360 C   0  0  0  0  0  2  0  0  0  0  0  0
  187.8360  177.8160  142.5420 N   0  0  1  0  0  0  0  0  0  0  0  0
  190.2210  177.2660  137.0720 N   0  0  0  0  0  0  0  0  0  0  0  0
  188.3640  177.6700  141.1850 C   0  0  2  0  0  3  0  0  0  0  0  0
  189.5900  177.2960  139.3640 C   0  0  0  0  0  0  0  0  0  0  0  0
  190.5330  177.0630  138.4630 C   0  0  0  0  0  3  0  0  0  0  0  0
  187.5560  177.9850  140.0370 N   0  0  0  0  0  0  0  0  0  0  0  0
  190.5780  176.1140  142.8590 C   0  0  0  0  0  2  0  0  0  0  0  0
  188.2860  177.7550  138.9970 C   0  0  0  0  0  0  0  0  0  0  0  0
  187.8730  177.9200  137.5640 C   0  0  0  0  0  0  0  0  0  0  0  0
  184.6090  178.0530  142.6580 C   0  0  1  0  0  3  0  0  0  0  0  0
  185.6220  178.4320  141.5810 C   0  0  0  0  0  2  0  0  0  0  0  0
  186.6610  178.6950  142.6530 C   0  0  1  0  0  3  0  0  0  0  0  0
  185.6820  178.2580  143.7240 C   0  0  0  0  0  2  0  0  0  0  0  0
  182.9440  178.9400  144.0740 C   0  0  0  0  0  1  0  0  0  0  0  0
  182.5300  178.7590  141.8010 C   0  0  0  0  0  1  0  0  0  0  0  0
  183.5700  179.0770  142.7680 N   0  0  0  0  0  0  0  0  0  0  0  0
  188.2620  177.4350  146.1150 C   0  0  0  0  0  0  0  0  0  0  0  0
  187.7440  177.0900  144.9650 N   0  0  0  0  0  0  0  0  0  0  0  0
  189.7020  177.8060  146.2690 C   0  0  0  0  0  2  0  0  0  0  0  0
  190.4090  176.7250  146.7930 O   0  0  0  0  0  1  0  0  0  0  0  0
  187.8260  178.1550  148.4380 C   0  0  0  0  0  1  0  0  0  0  0  0
  187.4750  177.4270  147.2690 O   0  0  0  0  0  0  0  0  0  0  0  0
  186.7370  176.9630  137.2290 C   0  0  0  0  0  2  0  0  0  0  0  0
  187.1690  175.6420  137.3510 O   0  0  0  0  0  0  0  0  0  0  0  0
  186.0710  174.8770  136.9580 C   0  0  0  0  0  1  0  0  0  0  0  0
  1  9  1  0  0  0  0
  1  6  1  0  0  0  0
  2  3  1  0  0  0  0
  3 24  1  1  0  0  0
  4  5  1  0  0  0  0
  5  8  1  0  0  0  0
  5 15  2  0  0  0  0
  6 13  1  0  0  0  0
  7 18  1  6  0  0  0
  7  3  1  0  0  0  0
  8 11  2  0  0  0  0
  9 12  1  6  0  0  0
  9  7  1  0  0  0  0
 10  1  2  0  0  0  0
 11 10  1  0  0  0  0
 13  2  1  0  0  0  0
 14 10  1  0  0  0  0
 14 12  2  0  0  0  0
 15 14  1  0  0  0  0
 16 22  1  1  0  0  0
 16 19  1  0  0  0  0
 17 16  1  0  0  0  0
 18 17  1  6  0  0  0
 18 19  1  0  0  0  0
 21 22  1  0  0  0  0
 22 20  1  0  0  0  0
 23 25  1  0  0  0  0
 23 28  1  0  0  0  0
 24 23  2  0  0  0  0
 25 26  1  0  0  0  0
 28 27  1  0  0  0  0
 29 30  1  0  0  0  0
 29 15  1  0  0  0  0
 31 30  1  0  0  0  0
M  END
>  <MODEL>
5

>  <REMARK>
 VINA RESULT:      -7.5      2.309      5.700
  Name = 
  7 active torsions:
  status: ('A' for Active; 'I' for Inactive)
    1  A    between atoms: C_1  and  O_12
    2  A    between atoms: C_1  and  C_31
    3  A    between atoms: C_3  and  C_5
    4  A    between atoms: C_3  and  O_27
    5  A    between atoms: N_6  and  C_9
    6  A    between atoms: N_16  and  C_23
    7  A    between atoms: N_19  and  C_20
                            x       y       z     vdW  Elec       q    Type
                         _______ _______ _______ _____ _____    ______ ____

>  <TORSDO>
F 7

$$$$
=
 OpenBabel11042410503D

 31 34  0  0  1  0  0  0  0  0999 V2000
  183.1220  178.8840  143.3370 C   0  0  0  0  0  0  0  0  0  0  0  0
  181.3270  178.6070  141.2590 C   0  0  0  0  0  2  0  0  0  0  0  0
  182.2390  178.7150  140.3520 C   0  0  2  0  0  3  0  0  0  0  0  0
  187.1490  178.2090  147.2520 N   0  0  0  0  0  1  0  0  0  0  0  0
  186.1260  178.3400  146.2710 C   0  0  0  0  0  0  0  0  0  0  0  0
  181.6430  179.2420  143.4620 C   0  0  0  0  0  2  0  0  0  0  0  0
  183.5800  179.0070  140.8400 N   0  0  0  0  0  0  0  0  0  0  0  0
  184.8900  178.5220  146.6670 N   0  0  0  0  0  0  0  0  0  0  0  0
  183.9460  178.8530  142.2480 C   0  0  0  0  0  0  0  0  0  0  0  0
  184.0020  178.6890  144.4680 C   0  0  2  0  0  3  0  0  0  0  0  0
  183.7750  178.6970  145.7730 C   0  0  0  0  0  3  0  0  0  0  0  0
  185.3110  178.6260  142.6400 N   0  0  0  0  0  0  0  0  0  0  0  0
  180.7790  178.6020  142.4210 C   0  0  0  0  0  2  0  0  0  0  0  0
  185.3150  178.5280  143.9270 C   0  0  0  0  0  0  0  0  0  0  0  0
  186.5110  178.2720  144.7970 C   0  0  0  0  0  0  0  0  0  0  0  0
  186.0350  177.9640  139.0040 C   0  0  1  0  0  3  0  0  0  0  0  0
  186.0010  178.6920  140.3460 C   0  0  0  0  0  2  0  0  0  0  0  0
  184.6980  179.3570  139.9490 C   0  0  1  0  0  3  0  0  0  0  0  0
  184.6900  178.5890  138.6420 C   0  0  0  0  0  2  0  0  0  0  0  0
  186.9380  177.9350  136.8250 C   0  0  0  0  0  1  0  0  0  0  0  0
  188.3660  177.9830  138.6500 C   0  0  0  0  0  1  0  0  0  0  0  0
  187.0990  178.5010  138.1560 N   0  0  0  0  0  0  0  0  0  0  0  0
  181.5760  179.7310  138.1860 C   0  0  0  0  0  0  0  0  0  0  0  0
  181.9260  178.7250  138.9440 N   0  0  0  0  0  0  0  0  0  0  0  0
  181.3680  181.1100  138.7240 C   0  0  0  0  0  2  0  0  0  0  0  0
  182.5570  181.8320  138.6310 O   0  0  0  0  0  1  0  0  0  0  0  0
  181.6390  178.3090  136.1660 C   0  0  0  0  0  1  0  0  0  0  0  0
  181.3380  179.5320  136.8230 O   0  0  0  0  0  0  0  0  0  0  0  0
  187.1030  176.9040  144.4900 C   0  0  0  0  0  2  0  0  0  0  0  0
  188.4830  177.0070  144.3070 O   0  0  0  0  0  0  0  0  0  0  0  0
  188.7440  176.2400  143.1720 C   0  0  0  0  0  1  0  0  0  0  0  0
  1  6  1  0  0  0  0
  1 10  1  0  0  0  0
  2 13  1  0  0  0  0
  3 24  1  6  0  0  0
  3  7  1  0  0  0  0
  3  2  1  0  0  0  0
  5  8  1  0  0  0  0
  5  4  1  0  0  0  0
  7  9  1  0  0  0  0
  9 12  1  0  0  0  0
  9  1  2  0  0  0  0
 10 11  1  1  0  0  0
 11  8  2  0  0  0  0
 12 14  2  0  0  0  0
 13  6  1  0  0  0  0
 14 10  1  0  0  0  0
 14 15  1  0  0  0  0
 15  5  2  0  0  0  0
 16 22  1  6  0  0  0
 16 17  1  0  0  0  0
 18 19  1  6  0  0  0
 18 17  1  0  0  0  0
 18  7  1  0  0  0  0
 19 16  1  0  0  0  0
 20 22  1  0  0  0  0
 22 21  1  0  0  0  0
 23 25  1  0  0  0  0
 23 24  2  0  0  0  0
 26 25  1  0  0  0  0
 27 28  1  0  0  0  0
 28 23  1  0  0  0  0
 29 15  1  0  0  0  0
 30 29  1  0  0  0  0
 31 30  1  0  0  0  0
M  END
>  <MODEL>
6

>  <REMARK>
 VINA RESULT:      -7.3      2.401      7.364
  Name = 
  7 active torsions:
  status: ('A' for Active; 'I' for Inactive)
    1  A    between atoms: C_1  and  O_12
    2  A    between atoms: C_1  and  C_31
    3  A    between atoms: C_3  and  C_5
    4  A    between atoms: C_3  and  O_27
    5  A    between atoms: N_6  and  C_9
    6  A    between atoms: N_16  and  C_23
    7  A    between atoms: N_19  and  C_20
                            x       y       z     vdW  Elec       q    Type
                         _______ _______ _______ _____ _____    ______ ____

>  <TORSDO>
F 7

$$$$
=
 OpenBabel11042410503D

 31 34  0  0  1  0  0  0  0  0999 V2000
  189.0720  177.6740  141.9160 C   0  0  0  0  0  0  0  0  0  0  0  0
  187.2790  177.6020  144.0130 C   0  0  0  0  0  2  0  0  0  0  0  0
  186.3030  178.0480  143.2960 C   0  0  2  0  0  3  0  0  0  0  0  0
  192.0610  176.7520  137.2020 N   0  0  0  0  0  1  0  0  0  0  0  0
  191.3050  176.9450  138.3930 C   0  0  0  0  0  0  0  0  0  0  0  0
  189.4990  177.7670  143.3790 C   0  0  0  0  0  2  0  0  0  0  0  0
  186.6430  178.4220  141.9300 N   0  0  1  0  0  0  0  0  0  0  0  0
  191.9120  176.8450  139.5490 N   0  0  0  0  0  0  0  0  0  0  0  0
  187.9000  178.0130  141.3030 C   0  0  2  0  0  3  0  0  0  0  0  0
  189.9780  177.3650  140.8310 C   0  0  0  0  0  0  0  0  0  0  0  0
  191.2640  177.0450  140.8200 C   0  0  0  0  0  3  0  0  0  0  0  0
  188.0170  177.9120  139.8720 N   0  0  0  0  0  0  0  0  0  0  0  0
  188.4720  177.2540  144.3400 C   0  0  0  0  0  2  0  0  0  0  0  0
  189.2260  177.5300  139.6270 C   0  0  0  0  0  0  0  0  0  0  0  0
  189.8200  177.2680  138.2740 C   0  0  0  0  0  0  0  0  0  0  0  0
  184.0040  178.2580  140.0620 C   0  0  1  0  0  3  0  0  0  0  0  0
  185.4860  178.4020  139.7240 C   0  0  0  0  0  2  0  0  0  0  0  0
  185.7110  179.1280  141.0360 C   0  0  1  0  0  3  0  0  0  0  0  0
  184.2550  178.9320  141.4080 C   0  0  0  0  0  2  0  0  0  0  0  0
  181.9080  179.3190  139.8460 C   0  0  0  0  0  1  0  0  0  0  0  0
  182.9070  178.3760  137.9790 C   0  0  0  0  0  1  0  0  0  0  0  0
  183.1940  179.1170  139.1980 N   0  0  0  0  0  0  0  0  0  0  0  0
  184.6970  178.7730  145.0460 C   0  0  0  0  0  0  0  0  0  0  0  0
  185.0030  178.3260  143.8560 N   0  0  0  0  0  0  0  0  0  0  0  0
  185.7270  179.0140  146.1030 C   0  0  0  0  0  2  0  0  0  0  0  0
  185.2220  178.6290  147.3440 O   0  0  0  0  0  1  0  0  0  0  0  0
  182.3160  179.0000  144.4260 C   0  0  0  0  0  1  0  0  0  0  0  0
  183.3620  179.0020  145.3880 O   0  0  0  0  0  0  0  0  0  0  0  0
  189.1010  176.1090  137.5970 C   0  0  0  0  0  2  0  0  0  0  0  0
  188.4490  176.5530  136.4460 O   0  0  0  0  0  0  0  0  0  0  0  0
  187.1130  176.2040  136.6430 C   0  0  0  0  0  1  0  0  0  0  0  0
  1  6  1  0  0  0  0
  2 13  1  0  0  0  0
  3 24  1  1  0  0  0
  3  2  1  0  0  0  0
  4  5  1  0  0  0  0
  5  8  1  0  0  0  0
  6 13  1  0  0  0  0
  7 18  1  6  0  0  0
  7  3  1  0  0  0  0
  8 11  2  0  0  0  0
  9 12  1  1  0  0  0
  9  1  1  0  0  0  0
  9  7  1  0  0  0  0
 10  1  2  0  0  0  0
 11 10  1  0  0  0  0
 14 12  2  0  0  0  0
 14 10  1  0  0  0  0
 15  5  2  0  0  0  0
 15 14  1  0  0  0  0
 16 22  1  6  0  0  0
 16 19  1  0  0  0  0
 17 16  1  0  0  0  0
 18 17  1  6  0  0  0
 18 19  1  0  0  0  0
 21 22  1  0  0  0  0
 22 20  1  0  0  0  0
 23 28  1  0  0  0  0
 23 25  1  0  0  0  0
 24 23  2  0  0  0  0
 25 26  1  0  0  0  0
 27 28  1  0  0  0  0
 29 15  1  0  0  0  0
 30 31  1  0  0  0  0
 30 29  1  0  0  0  0
M  END
>  <MODEL>
7

>  <REMARK>
 VINA RESULT:      -7.2      2.381      6.454
  Name = 
  7 active torsions:
  status: ('A' for Active; 'I' for Inactive)
    1  A    between atoms: C_1  and  O_12
    2  A    between atoms: C_1  and  C_31
    3  A    between atoms: C_3  and  C_5
    4  A    between atoms: C_3  and  O_27
    5  A    between atoms: N_6  and  C_9
    6  A    between atoms: N_16  and  C_23
    7  A    between atoms: N_19  and  C_20
                            x       y       z     vdW  Elec       q    Type
                         _______ _______ _______ _____ _____    ______ ____

>  <TORSDO>
F 7

$$$$
=
 OpenBabel11042410503D

 31 34  0  0  1  0  0  0  0  0999 V2000
  184.7470  178.7110  141.1330 C   0  0  0  0  0  0  0  0  0  0  0  0
  184.8570  178.0610  138.4520 C   0  0  0  0  0  2  0  0  0  0  0  0
  186.1470  178.0430  138.4290 C   0  0  2  0  0  3  0  0  0  0  0  0
  184.8910  178.7700  146.7880 N   0  0  0  0  0  1  0  0  0  0  0  0
  184.8410  178.7170  145.3650 C   0  0  0  0  0  0  0  0  0  0  0  0
  183.6310  179.0500  140.1480 C   0  0  0  0  0  2  0  0  0  0  0  0
  186.8060  178.4410  139.6660 N   0  0  0  0  0  0  0  0  0  0  0  0
  183.6960  178.9320  144.7650 N   0  0  0  0  0  0  0  0  0  0  0  0
  186.0860  178.5250  140.9370 C   0  0  0  0  0  0  0  0  0  0  0  0
  184.5850  178.7220  142.5700 C   0  0  2  0  0  3  0  0  0  0  0  0
  183.5240  178.9350  143.3350 C   0  0  0  0  0  3  0  0  0  0  0  0
  186.7780  178.3950  142.1920 N   0  0  0  0  0  0  0  0  0  0  0  0
  183.6630  178.2310  138.8960 C   0  0  0  0  0  2  0  0  0  0  0  0
  185.8870  178.5070  143.1190 C   0  0  0  0  0  0  0  0  0  0  0  0
  186.1240  178.4220  144.5980 C   0  0  0  0  0  0  0  0  0  0  0  0
  189.7230  177.2010  140.3270 C   0  0  1  0  0  3  0  0  0  0  0  0
  188.8420  178.1950  141.0800 C   0  0  0  0  0  2  0  0  0  0  0  0
  188.2560  178.6690  139.7650 C   0  0  1  0  0  3  0  0  0  0  0  0
  189.0800  177.6410  139.0140 C   0  0  0  0  0  2  0  0  0  0  0  0
  191.8700  176.7910  139.4410 C   0  0  0  0  0  1  0  0  0  0  0  0
  191.6400  177.2730  141.6960 C   0  0  0  0  0  1  0  0  0  0  0  0
  191.1240  177.6150  140.3800 N   0  0  0  0  0  0  0  0  0  0  0  0
  186.9650  176.7370  136.4820 C   0  0  0  0  0  0  0  0  0  0  0  0
  186.8910  177.8180  137.2130 N   0  0  0  0  0  0  0  0  0  0  0  0
  186.2910  175.4590  136.8650 C   0  0  0  0  0  2  0  0  0  0  0  0
  187.2520  174.4960  137.1670 O   0  0  0  0  0  1  0  0  0  0  0  0
  188.9710  177.4170  135.2090 C   0  0  0  0  0  1  0  0  0  0  0  0
  187.7300  176.7320  135.3130 O   0  0  0  0  0  0  0  0  0  0  0  0
  186.6320  177.0360  144.9720 C   0  0  0  0  0  2  0  0  0  0  0  0
  188.0250  177.0380  145.0500 O   0  0  0  0  0  0  0  0  0  0  0  0
  188.3030  177.4770  146.3440 C   0  0  0  0  0  1  0  0  0  0  0  0
  1 10  1  0  0  0  0
  2 13  1  0  0  0  0
  3 24  1  6  0  0  0
  3  2  1  0  0  0  0
  3  7  1  0  0  0  0
  5  4  1  0  0  0  0
  6  1  1  0  0  0  0
  7 18  1  0  0  0  0
  7  9  1  0  0  0  0
  8  5  1  0  0  0  0
  9  1  2  0  0  0  0
  9 12  1  0  0  0  0
 10 14  1  0  0  0  0
 10 11  1  1  0  0  0
 11  8  2  0  0  0  0
 12 14  2  0  0  0  0
 13  6  1  0  0  0  0
 14 15  1  0  0  0  0
 15 29  1  0  0  0  0
 15  5  2  0  0  0  0
 16 22  1  6  0  0  0
 16 17  1  0  0  0  0
 18 19  1  6  0  0  0
 18 17  1  0  0  0  0
 19 16  1  0  0  0  0
 20 22  1  0  0  0  0
 22 21  1  0  0  0  0
 23 25  1  0  0  0  0
 23 24  2  0  0  0  0
 25 26  1  0  0  0  0
 27 28  1  0  0  0  0
 28 23  1  0  0  0  0
 29 30  1  0  0  0  0
 30 31  1  0  0  0  0
M  END
>  <MODEL>
8

>  <REMARK>
 VINA RESULT:      -7.2      2.569      6.674
  Name = 
  7 active torsions:
  status: ('A' for Active; 'I' for Inactive)
    1  A    between atoms: C_1  and  O_12
    2  A    between atoms: C_1  and  C_31
    3  A    between atoms: C_3  and  C_5
    4  A    between atoms: C_3  and  O_27
    5  A    between atoms: N_6  and  C_9
    6  A    between atoms: N_16  and  C_23
    7  A    between atoms: N_19  and  C_20
                            x       y       z     vdW  Elec       q    Type
                         _______ _______ _______ _____ _____    ______ ____

>  <TORSDO>
F 7

$$$$
=
 OpenBabel11042410503D

 31 34  0  0  1  0  0  0  0  0999 V2000
  189.4020  177.3440  143.7970 C   0  0  0  0  0  0  0  0  0  0  0  0
  191.6760  177.5170  142.2420 C   0  0  0  0  0  2  0  0  0  0  0  0
  191.0170  177.4740  141.1330 C   0  0  2  0  0  3  0  0  0  0  0  0
  184.5690  178.2540  146.5920 N   0  0  0  0  0  1  0  0  0  0  0  0
  185.7970  178.0630  145.8960 C   0  0  0  0  0  0  0  0  0  0  0  0
  190.7770  176.8890  144.2800 C   0  0  0  0  0  2  0  0  0  0  0  0
  189.5800  177.2670  141.2620 N   0  0  0  0  0  0  0  0  0  0  0  0
  186.8790  177.7970  146.5850 N   0  0  0  0  0  0  0  0  0  0  0  0
  188.8830  177.4350  142.5370 C   0  0  0  0  0  0  0  0  0  0  0  0
  188.2800  177.5880  144.6760 C   0  0  0  0  0  0  0  0  0  0  0  0
  188.1710  177.5560  145.9950 C   0  0  0  0  0  3  0  0  0  0  0  0
  187.4790  177.7490  142.5790 N   0  0  0  0  0  0  0  0  0  0  0  0
  191.9140  177.4780  143.5040 C   0  0  0  0  0  2  0  0  0  0  0  0
  187.1570  177.8380  143.8260 C   0  0  0  0  0  0  0  0  0  0  0  0
  185.8000  178.1660  144.3750 C   0  0  2  0  0  3  0  0  0  0  0  0
  188.9840  177.7430  138.1160 C   0  0  1  0  0  3  0  0  0  0  0  0
  188.2890  178.2550  139.3750 C   0  0  0  0  0  2  0  0  0  0  0  0
  188.7030  176.9970  140.1120 C   0  0  1  0  0  3  0  0  0  0  0  0
  189.4500  176.5110  138.8860 C   0  0  0  0  0  2  0  0  0  0  0  0
  188.7060  176.7340  136.0020 C   0  0  0  0  0  1  0  0  0  0  0  0
  187.4490  178.6030  136.5470 C   0  0  0  0  0  1  0  0  0  0  0  0
  187.9980  177.3740  137.1000 N   0  0  0  0  0  0  0  0  0  0  0  0
  192.9040  177.1220  139.5590 C   0  0  0  0  0  0  0  0  0  0  0  0
  191.6730  177.4540  139.8490 N   0  0  0  0  0  0  0  0  0  0  0  0
  193.9050  176.7530  140.6050 C   0  0  0  0  0  2  0  0  0  0  0  0
  194.9460  176.0310  140.0220 O   0  0  0  0  0  1  0  0  0  0  0  0
  192.7300  176.3700  137.2120 C   0  0  0  0  0  1  0  0  0  0  0  0
  193.3420  177.1460  138.2320 O   0  0  0  0  0  0  0  0  0  0  0  0
  185.3890  179.5720  143.9600 C   0  0  0  0  0  2  0  0  0  0  0  0
  184.6910  179.5330  142.7530 O   0  0  0  0  0  0  0  0  0  0  0  0
  183.5530  178.7750  143.0310 C   0  0  0  0  0  1  0  0  0  0  0  0
  1  6  1  0  0  0  0
  1 10  1  0  0  0  0
  2 13  1  0  0  0  0
  3 24  1  6  0  0  0
  3  7  1  0  0  0  0
  3  2  1  0  0  0  0
  5  8  2  0  0  0  0
  5  4  1  0  0  0  0
  7  9  1  0  0  0  0
  9 12  1  0  0  0  0
  9  1  2  0  0  0  0
 10 11  2  0  0  0  0
 11  8  1  0  0  0  0
 12 14  2  0  0  0  0
 13  6  1  0  0  0  0
 14 15  1  0  0  0  0
 14 10  1  0  0  0  0
 15 29  1  1  0  0  0
 15  5  1  0  0  0  0
 16 22  1  6  0  0  0
 16 19  1  0  0  0  0
 16 17  1  0  0  0  0
 17 18  1  0  0  0  0
 18 19  1  6  0  0  0
 18  7  1  0  0  0  0
 20 22  1  0  0  0  0
 21 22  1  0  0  0  0
 23 24  2  0  0  0  0
 23 25  1  0  0  0  0
 26 25  1  0  0  0  0
 27 28  1  0  0  0  0
 28 23  1  0  0  0  0
 30 31  1  0  0  0  0
 30 29  1  0  0  0  0
M  END
>  <MODEL>
9

>  <REMARK>
 VINA RESULT:      -7.1      3.046      6.155
  Name = 
  7 active torsions:
  status: ('A' for Active; 'I' for Inactive)
    1  A    between atoms: C_1  and  O_12
    2  A    between atoms: C_1  and  C_31
    3  A    between atoms: C_3  and  C_5
    4  A    between atoms: C_3  and  O_27
    5  A    between atoms: N_6  and  C_9
    6  A    between atoms: N_16  and  C_23
    7  A    between atoms: N_19  and  C_20
                            x       y       z     vdW  Elec       q    Type
                         _______ _______ _______ _____ _____    ______ ____

>  <TORSDO>
F 7

$$$$
