=
 OpenBabel11042412423D

 43 46  0  0  1  0  0  0  0  0999 V2000
  185.4250  178.6910  141.8080 C   0  0  2  0  0  3  0  0  0  0  0  0
  186.6210  178.8700  140.8880 C   0  0  0  0  0  2  0  0  0  0  0  0
  185.8020  177.7470  142.8630 N   0  0  0  0  0  0  0  0  0  0  0  0
  187.7870  178.5230  141.7730 C   0  0  1  0  0  3  0  0  0  0  0  0
  187.2300  177.4640  142.6940 C   0  0  0  0  0  2  0  0  0  0  0  0
  182.0730  179.0620  139.9360 C   0  0  2  0  0  0  0  0  0  0  0  0
  182.2900  178.9560  142.4880 C   0  0  0  0  0  1  0  0  0  0  0  0
  183.0140  179.1630  141.1580 C   0  0  1  0  0  3  0  0  0  0  0  0
  180.8260  177.5990  138.4950 C   0  0  0  0  0  2  0  0  0  0  0  0
  184.5430  177.7290  139.6100 C   0  0  0  0  0  2  0  0  0  0  0  0
  182.0070  177.6170  139.4370 C   0  0  2  0  0  0  0  0  0  0  0  0
  181.7220  176.7470  140.4820 F   0  0  0  0  0  0  0  0  0  0  0  0
  182.6000  180.0230  138.8640 C   0  0  0  0  0  1  0  0  0  0  0  0
  183.3340  177.1910  138.8080 C   0  0  0  0  0  2  0  0  0  0  0  0
  179.8370  178.5890  139.1140 C   0  0  2  0  0  3  0  0  0  0  0  0
  184.1990  178.1700  141.0550 C   0  0  1  0  0  3  0  0  0  0  0  0
  179.3470  179.4340  138.1140 O   0  0  0  0  0  1  0  0  0  0  0  0
  180.6070  179.4120  140.1590 C   0  0  0  0  0  2  0  0  0  0  0  0
  188.9110  177.9940  140.9990 C   0  0  0  0  0  0  0  0  0  0  0  0
  189.8080  177.5220  140.3500 C   0  0  0  0  0  0  0  0  0  0  0  0
  190.8640  176.9120  139.5360 C   0  0  0  0  0  2  0  0  0  0  0  0
  190.7870  174.9160  138.2560 O   0  0  0  0  0  0  0  0  0  0  0  0
  190.2570  176.0330  138.4910 C   0  0  0  0  0  0  0  0  0  0  0  0
  189.0600  176.4480  137.7320 C   0  0  0  0  0  0  0  0  0  0  0  0
  187.5610  178.2150  136.7710 C   0  0  0  0  0  0  0  0  0  0  0  0
  186.6150  177.1390  136.4530 C   0  0  0  0  0  0  0  0  0  0  0  0
  186.9150  175.8860  136.7720 C   0  0  0  0  0  3  0  0  0  0  0  0
  187.2530  179.4200  136.5380 O   0  0  0  0  0  0  0  0  0  0  0  0
  185.3140  177.4310  135.7880 C   0  0  0  0  0  1  0  0  0  0  0  0
  188.1410  175.5680  137.4420 N   0  0  0  0  0  0  0  0  0  0  0  0
  188.9190  177.8950  137.3240 C   0  0  0  0  0  2  0  0  0  0  0  0
  184.1400  178.1830  144.4710 O   0  0  0  0  0  1  0  0  0  0  0  0
  185.5000  178.3240  144.1850 C   0  0  1  0  0  3  0  0  0  0  0  0
  186.1330  176.6740  145.7610 O   0  0  0  0  0  0  0  0  0  0  0  0
  186.3530  177.7900  145.3160 C   0  0  0  0  0  0  0  0  0  0  0  0
  187.4530  178.6160  145.9210 C   0  0  0  0  0  2  0  0  0  0  0  0
  189.0550  177.4480  147.4750 C   0  0  0  0  0  0  0  0  0  0  0  0
  188.2580  177.8640  148.6680 C   0  0  0  0  0  1  0  0  0  0  0  0
  188.6550  177.8200  146.1470 N   0  0  0  0  0  0  0  0  0  0  0  0
  190.0960  176.7610  147.6530 O   0  0  0  0  0  0  0  0  0  0  0  0
  189.4430  177.3950  144.9950 C   0  0  0  0  0  2  0  0  0  0  0  0
  190.3240  178.5430  144.5190 C   0  0  0  0  0  2  0  0  0  0  0  0
  191.4950  177.9830  143.7380 C   0  0  0  0  0  1  0  0  0  0  0  0
  1  2  1  6  0  0  0
  1  3  1  0  0  0  0
  2  4  1  0  0  0  0
  3 33  1  0  0  0  0
  4 19  1  6  0  0  0
  4  5  1  0  0  0  0
  5  3  1  0  0  0  0
  6 13  1  6  0  0  0
  6 18  1  0  0  0  0
  6  8  1  0  0  0  0
  8  7  1  1  0  0  0
  9 15  1  0  0  0  0
  9 11  1  0  0  0  0
 11  6  1  0  0  0  0
 11 12  1  1  0  0  0
 14 11  1  0  0  0  0
 14 10  1  0  0  0  0
 15 17  1  6  0  0  0
 15 18  1  0  0  0  0
 16 10  1  6  0  0  0
 16  8  1  0  0  0  0
 16  1  1  0  0  0  0
 20 19  3  0  0  0  0
 21 20  1  0  0  0  0
 22 23  2  0  0  0  0
 23 21  1  0  0  0  0
 24 23  1  0  0  0  0
 25 31  1  0  0  0  0
 26 25  1  0  0  0  0
 26 27  2  0  0  0  0
 27 30  1  0  0  0  0
 28 25  2  0  0  0  0
 29 26  1  0  0  0  0
 30 24  2  0  0  0  0
 31 24  1  0  0  0  0
 33 32  1  1  0  0  0
 33 35  1  0  0  0  0
 35 34  2  0  0  0  0
 35 36  1  0  0  0  0
 36 39  1  0  0  0  0
 37 40  2  0  0  0  0
 37 38  1  0  0  0  0
 39 37  1  0  0  0  0
 41 39  1  0  0  0  0
 42 41  1  0  0  0  0
 43 42  1  0  0  0  0
M  END
>  <MODEL>
1

>  <REMARK>
 VINA RESULT:      -7.4      0.000      0.000
  Name = 
  11 active torsions:
  status: ('A' for Active; 'I' for Inactive)
    1  A    between atoms: C_1  and  C_38
    2  A    between atoms: C_4  and  C_33
    3  A    between atoms: C_5  and  C_35
    4  A    between atoms: C_5  and  C_38
    5  A    between atoms: C_9  and  C_30
    6  A    between atoms: N_20  and  C_37
    7  A    between atoms: C_22  and  C_37
    8  A    between atoms: C_22  and  C_40
    9  A    between atoms: C_24  and  N_27
   10  A    between atoms: C_24  and  C_29
   11  A    between atoms: N_27  and  C_40
                            x       y       z     vdW  Elec       q    Type
                         _______ _______ _______ _____ _____    ______ ____

>  <TORSDO>
F 11

$$$$
=
 OpenBabel11042412423D

 43 46  0  0  1  0  0  0  0  0999 V2000
  185.7390  178.9330  140.3330 C   0  0  2  0  0  3  0  0  0  0  0  0
  186.3110  179.1090  141.7300 C   0  0  0  0  0  2  0  0  0  0  0  0
  184.3990  178.3530  140.4610 N   0  0  0  0  0  0  0  0  0  0  0  0
  185.0810  179.2060  142.5910 C   0  0  1  0  0  3  0  0  0  0  0  0
  184.0860  178.3110  141.8920 C   0  0  0  0  0  2  0  0  0  0  0  0
  187.8540  178.0780  137.2220 C   0  0  2  0  0  0  0  0  0  0  0  0
  185.3030  177.8520  137.3320 C   0  0  0  0  0  1  0  0  0  0  0  0
  186.5560  178.4460  137.9750 C   0  0  1  0  0  3  0  0  0  0  0  0
  189.4730  176.3650  136.7570 C   0  0  0  0  0  2  0  0  0  0  0  0
  188.0520  177.8880  140.0340 C   0  0  0  0  0  2  0  0  0  0  0  0
  188.4390  176.7780  137.7770 C   0  0  2  0  0  0  0  0  0  0  0  0
  187.4720  175.7810  137.8190 F   0  0  0  0  0  0  0  0  0  0  0  0
  188.8230  179.2570  137.3650 C   0  0  0  0  0  1  0  0  0  0  0  0
  188.9800  176.9770  139.1930 C   0  0  0  0  0  2  0  0  0  0  0  0
  188.8810  176.8150  135.4200 C   0  0  2  0  0  3  0  0  0  0  0  0
  186.6180  178.0270  139.4660 C   0  0  1  0  0  3  0  0  0  0  0  0
  189.8680  177.4730  134.6790 O   0  0  0  0  0  1  0  0  0  0  0  0
  187.7320  177.7870  135.7310 C   0  0  0  0  0  2  0  0  0  0  0  0
  185.3380  178.7290  143.9510 C   0  0  0  0  0  0  0  0  0  0  0  0
  185.5340  178.2930  145.0550 C   0  0  0  0  0  0  0  0  0  0  0  0
  185.7680  177.7100  146.3800 C   0  0  0  0  0  2  0  0  0  0  0  0
  187.3020  178.7700  147.8470 O   0  0  0  0  0  0  0  0  0  0  0  0
  187.1530  178.0300  146.8400 C   0  0  0  0  0  0  0  0  0  0  0  0
  188.3410  177.5030  146.1390 C   0  0  0  0  0  0  0  0  0  0  0  0
  190.7820  176.9300  146.0610 C   0  0  0  0  0  0  0  0  0  0  0  0
  190.6060  176.6800  144.6260 C   0  0  0  0  0  0  0  0  0  0  0  0
  189.4110  176.8490  144.0740 C   0  0  0  0  0  3  0  0  0  0  0  0
  191.9320  176.8440  146.5840 O   0  0  0  0  0  0  0  0  0  0  0  0
  191.7490  176.2510  143.7740 C   0  0  0  0  0  1  0  0  0  0  0  0
  188.2930  177.2910  144.8520 N   0  0  0  0  0  0  0  0  0  0  0  0
  189.5990  177.2370  146.9320 C   0  0  0  0  0  2  0  0  0  0  0  0
  184.0770  180.2280  139.0740 O   0  0  0  0  0  1  0  0  0  0  0  0
  183.4280  179.1610  139.7000 C   0  0  1  0  0  3  0  0  0  0  0  0
  182.0860  178.9520  137.7620 O   0  0  0  0  0  0  0  0  0  0  0  0
  182.5910  178.3760  138.7130 C   0  0  0  0  0  0  0  0  0  0  0  0
  182.3500  176.9040  138.8900 C   0  0  0  0  0  2  0  0  0  0  0  0
  180.1610  176.1270  137.9170 C   0  0  0  0  0  0  0  0  0  0  0  0
  180.7890  175.9150  136.5790 C   0  0  0  0  0  1  0  0  0  0  0  0
  180.9280  176.6080  139.0310 N   0  0  0  0  0  0  0  0  0  0  0  0
  178.9340  175.8760  138.0560 O   0  0  0  0  0  0  0  0  0  0  0  0
  180.2980  176.7990  140.3320 C   0  0  0  0  0  2  0  0  0  0  0  0
  179.7120  178.2010  140.4240 C   0  0  0  0  0  2  0  0  0  0  0  0
  180.2660  178.8970  141.6510 C   0  0  0  0  0  1  0  0  0  0  0  0
  1  3  1  0  0  0  0
  1  2  1  1  0  0  0
  2  4  1  0  0  0  0
  3  5  1  0  0  0  0
  4 19  1  1  0  0  0
  5  4  1  0  0  0  0
  6 13  1  1  0  0  0
  6 11  1  0  0  0  0
  6  8  1  0  0  0  0
  8  7  1  6  0  0  0
  8 16  1  0  0  0  0
  9 11  1  0  0  0  0
 11 12  1  1  0  0  0
 11 14  1  0  0  0  0
 14 10  1  0  0  0  0
 15 17  1  6  0  0  0
 15 18  1  0  0  0  0
 15  9  1  0  0  0  0
 16 10  1  1  0  0  0
 16  1  1  0  0  0  0
 18  6  1  0  0  0  0
 19 20  3  0  0  0  0
 20 21  1  0  0  0  0
 21 23  1  0  0  0  0
 23 22  2  0  0  0  0
 24 23  1  0  0  0  0
 24 31  1  0  0  0  0
 25 28  2  0  0  0  0
 25 31  1  0  0  0  0
 26 25  1  0  0  0  0
 27 26  2  0  0  0  0
 27 30  1  0  0  0  0
 29 26  1  0  0  0  0
 30 24  2  0  0  0  0
 33 32  1  6  0  0  0
 33  3  1  0  0  0  0
 34 35  2  0  0  0  0
 35 36  1  0  0  0  0
 35 33  1  0  0  0  0
 36 39  1  0  0  0  0
 37 40  2  0  0  0  0
 37 39  1  0  0  0  0
 38 37  1  0  0  0  0
 39 41  1  0  0  0  0
 41 42  1  0  0  0  0
 42 43  1  0  0  0  0
M  END
>  <MODEL>
2

>  <REMARK>
 VINA RESULT:      -7.3      2.313      8.470
  Name = 
  11 active torsions:
  status: ('A' for Active; 'I' for Inactive)
    1  A    between atoms: C_1  and  C_38
    2  A    between atoms: C_4  and  C_33
    3  A    between atoms: C_5  and  C_35
    4  A    between atoms: C_5  and  C_38
    5  A    between atoms: C_9  and  C_30
    6  A    between atoms: N_20  and  C_37
    7  A    between atoms: C_22  and  C_37
    8  A    between atoms: C_22  and  C_40
    9  A    between atoms: C_24  and  N_27
   10  A    between atoms: C_24  and  C_29
   11  A    between atoms: N_27  and  C_40
                            x       y       z     vdW  Elec       q    Type
                         _______ _______ _______ _____ _____    ______ ____

>  <TORSDO>
F 11

$$$$
=
 OpenBabel11042412423D

 43 46  0  0  1  0  0  0  0  0999 V2000
  191.5560  176.5700  137.2190 C   0  0  2  0  0  3  0  0  0  0  0  0
  191.8580  176.7200  138.7010 C   0  0  0  0  0  2  0  0  0  0  0  0
  190.1260  176.2880  137.0740 N   0  0  0  0  0  0  0  0  0  0  0  0
  190.5300  177.1250  139.2790 C   0  0  1  0  0  3  0  0  0  0  0  0
  189.5280  176.4080  138.4070 C   0  0  0  0  0  2  0  0  0  0  0  0
  194.6820  174.3490  136.7980 C   0  0  2  0  0  0  0  0  0  0  0  0
  194.4040  176.6590  135.7190 C   0  0  0  0  0  1  0  0  0  0  0  0
  193.8960  175.6800  136.7780 C   0  0  1  0  0  3  0  0  0  0  0  0
  195.0660  172.2440  135.7060 C   0  0  0  0  0  2  0  0  0  0  0  0
  191.8810  174.0440  137.0090 C   0  0  0  0  0  2  0  0  0  0  0  0
  194.0340  173.3380  135.8510 C   0  0  2  0  0  0  0  0  0  0  0  0
  193.8370  173.8950  134.5940 F   0  0  0  0  0  0  0  0  0  0  0  0
  194.7140  173.8510  138.2460 C   0  0  0  0  0  1  0  0  0  0  0  0
  192.6790  172.8730  136.3850 C   0  0  0  0  0  2  0  0  0  0  0  0
  196.4050  172.9810  135.7700 C   0  0  2  0  0  3  0  0  0  0  0  0
  192.3760  175.4470  136.5800 C   0  0  1  0  0  3  0  0  0  0  0  0
  197.2630  172.3000  136.6380 O   0  0  0  0  0  1  0  0  0  0  0  0
  196.1270  174.3910  136.3140 C   0  0  0  0  0  2  0  0  0  0  0  0
  190.3980  176.6990  140.6740 C   0  0  0  0  0  0  0  0  0  0  0  0
  190.3380  176.3490  141.8230 C   0  0  0  0  0  0  0  0  0  0  0  0
  190.3190  175.9330  143.2290 C   0  0  0  0  0  2  0  0  0  0  0  0
  190.9800  177.9190  144.3470 O   0  0  0  0  0  0  0  0  0  0  0  0
  190.0450  177.1120  144.1060 C   0  0  0  0  0  0  0  0  0  0  0  0
  188.7100  177.3450  144.6910 C   0  0  0  0  0  0  0  0  0  0  0  0
  186.2650  177.8630  144.4710 C   0  0  0  0  0  0  0  0  0  0  0  0
  186.2340  178.0000  145.9320 C   0  0  0  0  0  0  0  0  0  0  0  0
  187.3500  177.8250  146.6290 C   0  0  0  0  0  3  0  0  0  0  0  0
  185.2250  178.1000  143.7900 O   0  0  0  0  0  0  0  0  0  0  0  0
  184.9740  178.3450  146.6450 C   0  0  0  0  0  1  0  0  0  0  0  0
  188.5900  177.5240  145.9780 N   0  0  0  0  0  0  0  0  0  0  0  0
  187.5090  177.3910  143.7770 C   0  0  0  0  0  2  0  0  0  0  0  0
  190.0720  177.0200  134.8380 O   0  0  0  0  0  1  0  0  0  0  0  0
  189.5250  177.2240  136.1060 C   0  0  1  0  0  3  0  0  0  0  0  0
  187.3760  178.0540  136.6540 O   0  0  0  0  0  0  0  0  0  0  0  0
  188.0120  177.1970  136.0590 C   0  0  0  0  0  0  0  0  0  0  0  0
  187.2730  176.1240  135.3120 C   0  0  0  0  0  2  0  0  0  0  0  0
  184.8960  175.7670  136.0640 C   0  0  0  0  0  0  0  0  0  0  0  0
  184.3960  176.7830  135.0900 C   0  0  0  0  0  1  0  0  0  0  0  0
  186.2940  175.4560  136.1640 N   0  0  0  0  0  0  0  0  0  0  0  0
  184.0640  175.1810  136.8080 O   0  0  0  0  0  0  0  0  0  0  0  0
  186.7600  174.4530  137.1150 C   0  0  0  0  0  2  0  0  0  0  0  0
  187.6340  173.4300  136.4020 C   0  0  0  0  0  2  0  0  0  0  0  0
  186.7500  172.4360  135.6750 C   0  0  0  0  0  1  0  0  0  0  0  0
  1  2  1  1  0  0  0
  2  4  1  0  0  0  0
  3  1  1  0  0  0  0
  3  5  1  0  0  0  0
  4 19  1  1  0  0  0
  5  4  1  0  0  0  0
  6 13  1  1  0  0  0
  8  7  1  6  0  0  0
  8  6  1  0  0  0  0
  9 15  1  0  0  0  0
  9 11  1  0  0  0  0
 11 12  1  6  0  0  0
 11 14  1  0  0  0  0
 11  6  1  0  0  0  0
 14 10  1  0  0  0  0
 15 18  1  0  0  0  0
 15 17  1  1  0  0  0
 16  8  1  0  0  0  0
 16 10  1  1  0  0  0
 16  1  1  0  0  0  0
 18  6  1  0  0  0  0
 19 20  3  0  0  0  0
 20 21  1  0  0  0  0
 21 23  1  0  0  0  0
 23 22  2  0  0  0  0
 23 24  1  0  0  0  0
 24 30  2  0  0  0  0
 25 26  1  0  0  0  0
 26 27  2  0  0  0  0
 26 29  1  0  0  0  0
 28 25  2  0  0  0  0
 30 27  1  0  0  0  0
 31 25  1  0  0  0  0
 31 24  1  0  0  0  0
 33 32  1  6  0  0  0
 33  3  1  0  0  0  0
 35 33  1  0  0  0  0
 35 34  2  0  0  0  0
 36 35  1  0  0  0  0
 36 39  1  0  0  0  0
 37 39  1  0  0  0  0
 37 40  2  0  0  0  0
 38 37  1  0  0  0  0
 39 41  1  0  0  0  0
 42 41  1  0  0  0  0
 43 42  1  0  0  0  0
M  END
>  <MODEL>
3

>  <REMARK>
 VINA RESULT:      -7.2      3.950     10.672
  Name = 
  11 active torsions:
  status: ('A' for Active; 'I' for Inactive)
    1  A    between atoms: C_1  and  C_38
    2  A    between atoms: C_4  and  C_33
    3  A    between atoms: C_5  and  C_35
    4  A    between atoms: C_5  and  C_38
    5  A    between atoms: C_9  and  C_30
    6  A    between atoms: N_20  and  C_37
    7  A    between atoms: C_22  and  C_37
    8  A    between atoms: C_22  and  C_40
    9  A    between atoms: C_24  and  N_27
   10  A    between atoms: C_24  and  C_29
   11  A    between atoms: N_27  and  C_40
                            x       y       z     vdW  Elec       q    Type
                         _______ _______ _______ _____ _____    ______ ____

>  <TORSDO>
F 11

$$$$
=
 OpenBabel11042412423D

 43 46  0  0  1  0  0  0  0  0999 V2000
  189.4540  176.7830  139.6080 C   0  0  2  0  0  3  0  0  0  0  0  0
  190.5530  175.9800  138.9310 C   0  0  0  0  0  2  0  0  0  0  0  0
  189.0590  177.8640  138.7020 N   0  0  0  0  0  0  0  0  0  0  0  0
  190.3130  176.2410  137.4690 C   0  0  1  0  0  3  0  0  0  0  0  0
  189.7780  177.6520  137.4430 C   0  0  0  0  0  2  0  0  0  0  0  0
  189.9370  176.7560  143.4360 C   0  0  2  0  0  0  0  0  0  0  0  0
  187.7790  177.4930  142.2640 C   0  0  0  0  0  1  0  0  0  0  0  0
  189.1140  176.7610  142.1270 C   0  0  1  0  0  3  0  0  0  0  0  0
  191.3220  178.0340  144.9250 C   0  0  0  0  0  2  0  0  0  0  0  0
  191.4540  177.2990  141.1150 C   0  0  0  0  0  2  0  0  0  0  0  0
  190.8510  177.9810  143.4910 C   0  0  2  0  0  0  0  0  0  0  0  0
  190.1330  179.1440  143.2430 F   0  0  0  0  0  0  0  0  0  0  0  0
  190.7240  175.4420  143.4830 C   0  0  0  0  0  1  0  0  0  0  0  0
  191.9700  177.8810  142.4540 C   0  0  0  0  0  2  0  0  0  0  0  0
  190.1260  177.5250  145.7320 C   0  0  2  0  0  3  0  0  0  0  0  0
  189.9150  177.3660  140.9460 C   0  0  1  0  0  3  0  0  0  0  0  0
  190.5700  176.5880  146.6700 O   0  0  0  0  0  1  0  0  0  0  0  0
  189.1600  176.8520  144.7430 C   0  0  0  0  0  2  0  0  0  0  0  0
  191.5520  176.1450  136.6950 C   0  0  0  0  0  0  0  0  0  0  0  0
  192.5600  176.0190  136.0510 C   0  0  0  0  0  0  0  0  0  0  0  0
  193.7710  175.8160  135.2490 C   0  0  0  0  0  2  0  0  0  0  0  0
  193.9410  173.4540  135.0990 O   0  0  0  0  0  0  0  0  0  0  0  0
  194.4040  174.5100  135.6030 C   0  0  0  0  0  0  0  0  0  0  0  0
  195.5520  174.4340  136.5300 C   0  0  0  0  0  0  0  0  0  0  0  0
  196.5330  174.5160  138.8370 C   0  0  0  0  0  0  0  0  0  0  0  0
  197.8550  174.4960  138.2000 C   0  0  0  0  0  0  0  0  0  0  0  0
  197.9430  174.4580  136.8760 C   0  0  0  0  0  3  0  0  0  0  0  0
  196.4370  174.6270  140.0940 O   0  0  0  0  0  0  0  0  0  0  0  0
  199.1010  174.5310  139.0140 C   0  0  0  0  0  1  0  0  0  0  0  0
  196.7680  174.4560  136.0570 N   0  0  0  0  0  0  0  0  0  0  0  0
  195.2880  174.3520  138.0140 C   0  0  0  0  0  2  0  0  0  0  0  0
  186.9830  178.6250  139.5090 O   0  0  0  0  0  1  0  0  0  0  0  0
  187.5960  177.8540  138.5180 C   0  0  1  0  0  3  0  0  0  0  0  0
  187.1260  179.4530  136.8370 O   0  0  0  0  0  0  0  0  0  0  0  0
  187.1310  178.2700  137.1390 C   0  0  0  0  0  0  0  0  0  0  0  0
  186.6520  177.2560  136.1380 C   0  0  0  0  0  2  0  0  0  0  0  0
  184.6600  176.1350  137.1950 C   0  0  0  0  0  0  0  0  0  0  0  0
  183.8100  177.3400  136.9600 C   0  0  0  0  0  1  0  0  0  0  0  0
  186.0380  176.1060  136.7940 N   0  0  0  0  0  0  0  0  0  0  0  0
  184.1450  175.1330  137.7610 O   0  0  0  0  0  0  0  0  0  0  0  0
  186.8480  174.9160  137.0250 C   0  0  0  0  0  2  0  0  0  0  0  0
  187.3060  174.3340  135.6940 C   0  0  0  0  0  2  0  0  0  0  0  0
  187.4340  172.8300  135.8220 C   0  0  0  0  0  1  0  0  0  0  0  0
  1  2  1  6  0  0  0
  1 16  1  0  0  0  0
  3  1  1  0  0  0  0
  4 19  1  6  0  0  0
  4  2  1  0  0  0  0
  5  4  1  0  0  0  0
  5  3  1  0  0  0  0
  6 13  1  1  0  0  0
  6 11  1  0  0  0  0
  6 18  1  0  0  0  0
  8  7  1  1  0  0  0
  8  6  1  0  0  0  0
  9 15  1  0  0  0  0
 10 14  1  0  0  0  0
 11 12  1  6  0  0  0
 11  9  1  0  0  0  0
 14 11  1  0  0  0  0
 15 17  1  1  0  0  0
 16 10  1  1  0  0  0
 16  8  1  0  0  0  0
 18 15  1  0  0  0  0
 20 19  3  0  0  0  0
 21 23  1  0  0  0  0
 21 20  1  0  0  0  0
 22 23  2  0  0  0  0
 23 24  1  0  0  0  0
 24 31  1  0  0  0  0
 25 28  2  0  0  0  0
 26 25  1  0  0  0  0
 26 29  1  0  0  0  0
 27 26  2  0  0  0  0
 30 24  2  0  0  0  0
 30 27  1  0  0  0  0
 31 25  1  0  0  0  0
 33  3  1  0  0  0  0
 33 32  1  1  0  0  0
 34 35  2  0  0  0  0
 35 33  1  0  0  0  0
 36 39  1  0  0  0  0
 36 35  1  0  0  0  0
 37 40  2  0  0  0  0
 38 37  1  0  0  0  0
 39 41  1  0  0  0  0
 39 37  1  0  0  0  0
 42 43  1  0  0  0  0
 42 41  1  0  0  0  0
M  END
>  <MODEL>
4

>  <REMARK>
 VINA RESULT:      -7.1      3.994      9.020
  Name = 
  11 active torsions:
  status: ('A' for Active; 'I' for Inactive)
    1  A    between atoms: C_1  and  C_38
    2  A    between atoms: C_4  and  C_33
    3  A    between atoms: C_5  and  C_35
    4  A    between atoms: C_5  and  C_38
    5  A    between atoms: C_9  and  C_30
    6  A    between atoms: N_20  and  C_37
    7  A    between atoms: C_22  and  C_37
    8  A    between atoms: C_22  and  C_40
    9  A    between atoms: C_24  and  N_27
   10  A    between atoms: C_24  and  C_29
   11  A    between atoms: N_27  and  C_40
                            x       y       z     vdW  Elec       q    Type
                         _______ _______ _______ _____ _____    ______ ____

>  <TORSDO>
F 11

$$$$
=
 OpenBabel11042412423D

 43 46  0  0  1  0  0  0  0  0999 V2000
  191.8630  175.8290  136.5830 C   0  0  2  0  0  3  0  0  0  0  0  0
  192.1530  176.6590  137.8230 C   0  0  0  0  0  2  0  0  0  0  0  0
  190.6270  175.0780  136.8190 N   0  0  0  0  0  0  0  0  0  0  0  0
  190.7940  176.8250  138.4460 C   0  0  1  0  0  3  0  0  0  0  0  0
  190.0840  175.5390  138.1000 C   0  0  0  0  0  2  0  0  0  0  0  0
  195.4230  174.3960  136.9760 C   0  0  2  0  0  0  0  0  0  0  0  0
  194.8370  176.4060  135.4950 C   0  0  0  0  0  1  0  0  0  0  0  0
  194.3810  175.4820  136.6240 C   0  0  1  0  0  3  0  0  0  0  0  0
  196.4400  172.3210  136.3200 C   0  0  0  0  0  2  0  0  0  0  0  0
  192.7630  173.4520  136.8510 C   0  0  0  0  0  2  0  0  0  0  0  0
  195.1850  173.1410  136.1350 C   0  0  2  0  0  0  0  0  0  0  0  0
  195.0910  173.4620  134.7860 F   0  0  0  0  0  0  0  0  0  0  0  0
  195.3130  174.1170  138.4790 C   0  0  0  0  0  1  0  0  0  0  0  0
  193.8930  172.4370  136.5490 C   0  0  0  0  0  2  0  0  0  0  0  0
  197.5540  173.3630  136.4410 C   0  0  2  0  0  3  0  0  0  0  0  0
  193.0060  174.8640  136.2620 C   0  0  1  0  0  3  0  0  0  0  0  0
  198.3770  173.0310  137.5210 O   0  0  0  0  0  1  0  0  0  0  0  0
  196.8850  174.7230  136.6950 C   0  0  0  0  0  2  0  0  0  0  0  0
  190.8850  176.9890  139.8980 C   0  0  0  0  0  0  0  0  0  0  0  0
  190.9900  177.1610  141.0850 C   0  0  0  0  0  0  0  0  0  0  0  0
  191.1430  177.4190  142.5200 C   0  0  0  0  0  2  0  0  0  0  0  0
  190.6620  175.2090  143.2370 O   0  0  0  0  0  0  0  0  0  0  0  0
  190.3480  176.4260  143.3040 C   0  0  0  0  0  0  0  0  0  0  0  0
  189.2080  176.8410  144.1460 C   0  0  0  0  0  0  0  0  0  0  0  0
  186.8430  177.6260  144.4240 C   0  0  0  0  0  0  0  0  0  0  0  0
  187.1530  177.8380  145.8420 C   0  0  0  0  0  0  0  0  0  0  0  0
  188.3730  177.5700  146.2920 C   0  0  0  0  0  3  0  0  0  0  0  0
  185.7060  177.9470  143.9690 O   0  0  0  0  0  0  0  0  0  0  0  0
  186.1260  178.3620  146.7840 C   0  0  0  0  0  1  0  0  0  0  0  0
  189.3980  177.0960  145.4120 N   0  0  0  0  0  0  0  0  0  0  0  0
  187.8450  176.9790  143.5130 C   0  0  0  0  0  2  0  0  0  0  0  0
  190.0780  174.5430  134.5940 O   0  0  0  0  0  1  0  0  0  0  0  0
  189.6870  175.2950  135.7040 C   0  0  1  0  0  3  0  0  0  0  0  0
  187.9400  174.1110  136.7760 O   0  0  0  0  0  0  0  0  0  0  0  0
  188.2340  175.0460  136.0460 C   0  0  0  0  0  0  0  0  0  0  0  0
  187.1410  175.9120  135.4880 C   0  0  0  0  0  2  0  0  0  0  0  0
  185.0350  175.8270  136.8680 C   0  0  0  0  0  0  0  0  0  0  0  0
  184.5560  174.6200  136.1310 C   0  0  0  0  0  1  0  0  0  0  0  0
  186.2900  176.4470  136.5460 N   0  0  0  0  0  0  0  0  0  0  0  0
  184.3120  176.3030  137.7850 O   0  0  0  0  0  0  0  0  0  0  0  0
  186.7430  177.6200  137.2850 C   0  0  0  0  0  2  0  0  0  0  0  0
  187.5980  178.5010  136.3840 C   0  0  0  0  0  2  0  0  0  0  0  0
  188.7300  179.0970  137.1950 C   0  0  0  0  0  1  0  0  0  0  0  0
  1  3  1  0  0  0  0
  1  2  1  1  0  0  0
  2  4  1  0  0  0  0
  3  5  1  0  0  0  0
  4 19  1  1  0  0  0
  5  4  1  0  0  0  0
  6 13  1  1  0  0  0
  8  7  1  6  0  0  0
  8  6  1  0  0  0  0
  9 15  1  0  0  0  0
 11 12  1  6  0  0  0
 11  9  1  0  0  0  0
 11 14  1  0  0  0  0
 11  6  1  0  0  0  0
 14 10  1  0  0  0  0
 15 18  1  0  0  0  0
 15 17  1  1  0  0  0
 16  1  1  0  0  0  0
 16  8  1  0  0  0  0
 16 10  1  1  0  0  0
 18  6  1  0  0  0  0
 19 20  3  0  0  0  0
 20 21  1  0  0  0  0
 21 23  1  0  0  0  0
 22 23  2  0  0  0  0
 23 24  1  0  0  0  0
 24 30  2  0  0  0  0
 25 26  1  0  0  0  0
 26 27  2  0  0  0  0
 26 29  1  0  0  0  0
 28 25  2  0  0  0  0
 30 27  1  0  0  0  0
 31 24  1  0  0  0  0
 31 25  1  0  0  0  0
 33 32  1  6  0  0  0
 33 35  1  0  0  0  0
 33  3  1  0  0  0  0
 35 34  2  0  0  0  0
 36 35  1  0  0  0  0
 36 39  1  0  0  0  0
 37 40  2  0  0  0  0
 38 37  1  0  0  0  0
 39 37  1  0  0  0  0
 39 41  1  0  0  0  0
 42 43  1  0  0  0  0
 42 41  1  0  0  0  0
M  END
>  <MODEL>
5

>  <REMARK>
 VINA RESULT:      -7.0      4.310     10.836
  Name = 
  11 active torsions:
  status: ('A' for Active; 'I' for Inactive)
    1  A    between atoms: C_1  and  C_38
    2  A    between atoms: C_4  and  C_33
    3  A    between atoms: C_5  and  C_35
    4  A    between atoms: C_5  and  C_38
    5  A    between atoms: C_9  and  C_30
    6  A    between atoms: N_20  and  C_37
    7  A    between atoms: C_22  and  C_37
    8  A    between atoms: C_22  and  C_40
    9  A    between atoms: C_24  and  N_27
   10  A    between atoms: C_24  and  C_29
   11  A    between atoms: N_27  and  C_40
                            x       y       z     vdW  Elec       q    Type
                         _______ _______ _______ _____ _____    ______ ____

>  <TORSDO>
F 11

$$$$
=
 OpenBabel11042412423D

 43 46  0  0  1  0  0  0  0  0999 V2000
  185.5190  178.3340  137.6510 C   0  0  2  0  0  3  0  0  0  0  0  0
  186.9610  178.2100  137.1880 C   0  0  0  0  0  2  0  0  0  0  0  0
  185.4880  178.1180  139.0990 N   0  0  0  0  0  0  0  0  0  0  0  0
  187.7460  178.5400  138.4280 C   0  0  1  0  0  3  0  0  0  0  0  0
  186.8790  178.0150  139.5470 C   0  0  0  0  0  2  0  0  0  0  0  0
  183.4840  175.0650  137.4140 C   0  0  2  0  0  0  0  0  0  0  0  0
  186.0000  175.2300  136.9440 C   0  0  0  0  0  1  0  0  0  0  0  0
  184.7730  175.9060  137.5590 C   0  0  1  0  0  3  0  0  0  0  0  0
  181.7490  174.3150  135.9330 C   0  0  0  0  0  2  0  0  0  0  0  0
  183.1400  177.8160  136.8710 C   0  0  0  0  0  2  0  0  0  0  0  0
  182.7660  175.4170  136.1110 C   0  0  2  0  0  0  0  0  0  0  0  0
  183.6410  175.3550  135.0330 F   0  0  0  0  0  0  0  0  0  0  0  0
  182.6150  175.3340  138.6470 C   0  0  0  0  0  1  0  0  0  0  0  0
  182.1780  176.8270  136.1690 C   0  0  0  0  0  2  0  0  0  0  0  0
  182.4380  173.0730  136.5010 C   0  0  2  0  0  3  0  0  0  0  0  0
  184.6070  177.3220  136.9530 C   0  0  1  0  0  3  0  0  0  0  0  0
  181.5470  172.3950  137.3390 O   0  0  0  0  0  1  0  0  0  0  0  0
  183.6510  173.5530  137.3140 C   0  0  0  0  0  2  0  0  0  0  0  0
  189.0510  177.8760  138.4310 C   0  0  0  0  0  0  0  0  0  0  0  0
  190.1070  177.3020  138.4690 C   0  0  0  0  0  0  0  0  0  0  0  0
  191.3710  176.5620  138.5470 C   0  0  0  0  0  2  0  0  0  0  0  0
  193.3550  177.2970  139.6220 O   0  0  0  0  0  0  0  0  0  0  0  0
  192.1410  176.9940  139.7530 C   0  0  0  0  0  0  0  0  0  0  0  0
  191.5090  177.0690  141.0860 C   0  0  0  0  0  0  0  0  0  0  0  0
  191.4410  177.9040  143.4500 C   0  0  0  0  0  0  0  0  0  0  0  0
  190.3360  176.9650  143.6760 C   0  0  0  0  0  0  0  0  0  0  0  0
  189.9220  176.1900  142.6810 C   0  0  0  0  0  3  0  0  0  0  0  0
  191.8920  178.5940  144.4100 O   0  0  0  0  0  0  0  0  0  0  0  0
  189.6800  176.8550  145.0090 C   0  0  0  0  0  1  0  0  0  0  0  0
  190.5480  176.2420  141.3940 N   0  0  0  0  0  0  0  0  0  0  0  0
  192.0070  178.0960  142.0740 C   0  0  0  0  0  2  0  0  0  0  0  0
  184.5030  180.2390  138.8340 O   0  0  0  0  0  1  0  0  0  0  0  0
  184.7700  179.2260  139.7570 C   0  0  1  0  0  3  0  0  0  0  0  0
  182.4330  179.2470  140.1280 O   0  0  0  0  0  0  0  0  0  0  0  0
  183.5140  178.8140  140.4940 C   0  0  0  0  0  0  0  0  0  0  0  0
  183.5720  177.9010  141.6850 C   0  0  0  0  0  2  0  0  0  0  0  0
  183.0190  178.9660  143.9000 C   0  0  0  0  0  0  0  0  0  0  0  0
  181.5760  178.6100  143.7520 C   0  0  0  0  0  1  0  0  0  0  0  0
  183.9780  178.6170  142.8900 N   0  0  0  0  0  0  0  0  0  0  0  0
  183.3860  179.5850  144.9340 O   0  0  0  0  0  0  0  0  0  0  0  0
  185.3840  178.9650  143.0590 C   0  0  0  0  0  2  0  0  0  0  0  0
  186.1800  177.7280  143.4510 C   0  0  0  0  0  2  0  0  0  0  0  0
  186.2970  177.6650  144.9610 C   0  0  0  0  0  1  0  0  0  0  0  0
  1  2  1  6  0  0  0
  1  3  1  0  0  0  0
  2  4  1  0  0  0  0
  3  5  1  0  0  0  0
  3 33  1  0  0  0  0
  4 19  1  6  0  0  0
  4  5  1  0  0  0  0
  6  8  1  0  0  0  0
  6 13  1  1  0  0  0
  8  7  1  6  0  0  0
  9 11  1  0  0  0  0
  9 15  1  0  0  0  0
 11 12  1  6  0  0  0
 11 14  1  0  0  0  0
 11  6  1  0  0  0  0
 14 10  1  0  0  0  0
 15 18  1  0  0  0  0
 15 17  1  1  0  0  0
 16 10  1  1  0  0  0
 16  8  1  0  0  0  0
 16  1  1  0  0  0  0
 18  6  1  0  0  0  0
 19 20  3  0  0  0  0
 20 21  1  0  0  0  0
 21 23  1  0  0  0  0
 22 23  2  0  0  0  0
 23 24  1  0  0  0  0
 24 30  2  0  0  0  0
 24 31  1  0  0  0  0
 25 26  1  0  0  0  0
 25 28  2  0  0  0  0
 26 29  1  0  0  0  0
 27 26  2  0  0  0  0
 30 27  1  0  0  0  0
 31 25  1  0  0  0  0
 33 32  1  6  0  0  0
 33 35  1  0  0  0  0
 34 35  2  0  0  0  0
 35 36  1  0  0  0  0
 36 39  1  0  0  0  0
 37 40  2  0  0  0  0
 38 37  1  0  0  0  0
 39 41  1  0  0  0  0
 39 37  1  0  0  0  0
 41 42  1  0  0  0  0
 42 43  1  0  0  0  0
M  END
>  <MODEL>
6

>  <REMARK>
 VINA RESULT:      -7.0      2.785      5.659
  Name = 
  11 active torsions:
  status: ('A' for Active; 'I' for Inactive)
    1  A    between atoms: C_1  and  C_38
    2  A    between atoms: C_4  and  C_33
    3  A    between atoms: C_5  and  C_35
    4  A    between atoms: C_5  and  C_38
    5  A    between atoms: C_9  and  C_30
    6  A    between atoms: N_20  and  C_37
    7  A    between atoms: C_22  and  C_37
    8  A    between atoms: C_22  and  C_40
    9  A    between atoms: C_24  and  N_27
   10  A    between atoms: C_24  and  C_29
   11  A    between atoms: N_27  and  C_40
                            x       y       z     vdW  Elec       q    Type
                         _______ _______ _______ _____ _____    ______ ____

>  <TORSDO>
F 11

$$$$
=
 OpenBabel11042412423D

 43 46  0  0  1  0  0  0  0  0999 V2000
  191.0280  176.1590  138.4180 C   0  0  2  0  0  3  0  0  0  0  0  0
  190.4920  176.3740  139.8240 C   0  0  0  0  0  2  0  0  0  0  0  0
  192.3590  176.7650  138.3420 N   0  0  0  0  0  0  0  0  0  0  0  0
  191.7430  176.5330  140.6430 C   0  0  1  0  0  3  0  0  0  0  0  0
  192.7060  177.2070  139.6960 C   0  0  0  0  0  2  0  0  0  0  0  0
  187.7380  176.5060  136.4320 C   0  0  2  0  0  0  0  0  0  0  0  0
  189.5900  174.8260  135.8640 C   0  0  0  0  0  1  0  0  0  0  0  0
  189.0150  175.7790  136.9120 C   0  0  1  0  0  3  0  0  0  0  0  0
  186.8380  178.2420  135.0370 C   0  0  0  0  0  2  0  0  0  0  0  0
  189.5790  178.1680  137.7860 C   0  0  0  0  0  2  0  0  0  0  0  0
  188.1060  177.8210  135.7410 C   0  0  2  0  0  0  0  0  0  0  0  0
  189.0740  177.6110  134.7670 F   0  0  0  0  0  0  0  0  0  0  0  0
  186.8410  176.7250  137.6550 C   0  0  0  0  0  1  0  0  0  0  0  0
  188.6500  178.8380  136.7440 C   0  0  0  0  0  2  0  0  0  0  0  0
  186.1910  176.9240  134.6080 C   0  0  2  0  0  3  0  0  0  0  0  0
  190.1130  176.7780  137.3580 C   0  0  1  0  0  3  0  0  0  0  0  0
  184.8320  176.9520  134.9350 O   0  0  0  0  0  1  0  0  0  0  0  0
  186.8890  175.7970  135.3850 C   0  0  0  0  0  2  0  0  0  0  0  0
  191.5110  177.3680  141.8230 C   0  0  0  0  0  0  0  0  0  0  0  0
  191.2840  178.0240  142.8060 C   0  0  0  0  0  0  0  0  0  0  0  0
  190.9740  178.7840  144.0210 C   0  0  0  0  0  2  0  0  0  0  0  0
  191.1010  177.1100  145.6990 O   0  0  0  0  0  0  0  0  0  0  0  0
  190.3570  177.8830  145.0410 C   0  0  0  0  0  0  0  0  0  0  0  0
  188.9000  177.8800  145.2880 C   0  0  0  0  0  0  0  0  0  0  0  0
  186.5270  177.9180  144.4790 C   0  0  0  0  0  0  0  0  0  0  0  0
  186.1260  178.0980  145.8790 C   0  0  0  0  0  0  0  0  0  0  0  0
  187.0570  178.1610  146.8230 C   0  0  0  0  0  3  0  0  0  0  0  0
  185.6540  177.9300  143.5630 O   0  0  0  0  0  0  0  0  0  0  0  0
  184.6920  178.2240  146.2580 C   0  0  0  0  0  1  0  0  0  0  0  0
  188.4490  178.0780  146.4960 N   0  0  0  0  0  0  0  0  0  0  0  0
  187.9630  177.6650  144.1240 C   0  0  0  0  0  2  0  0  0  0  0  0
  192.8550  174.4870  138.0120 O   0  0  0  0  0  1  0  0  0  0  0  0
  193.3260  175.7870  137.8100 C   0  0  1  0  0  3  0  0  0  0  0  0
  193.3790  177.0380  135.8010 O   0  0  0  0  0  0  0  0  0  0  0  0
  193.7140  176.0070  136.3640 C   0  0  0  0  0  0  0  0  0  0  0  0
  194.4870  174.9720  135.5960 C   0  0  0  0  0  2  0  0  0  0  0  0
  196.8740  175.7750  135.5920 C   0  0  0  0  0  0  0  0  0  0  0  0
  196.5530  176.8410  134.5970 C   0  0  0  0  0  1  0  0  0  0  0  0
  195.8640  174.8730  136.0690 N   0  0  0  0  0  0  0  0  0  0  0  0
  198.0590  175.6750  136.0110 O   0  0  0  0  0  0  0  0  0  0  0  0
  196.1970  173.8450  137.0480 C   0  0  0  0  0  2  0  0  0  0  0  0
  196.2350  172.4800  136.3740 C   0  0  0  0  0  2  0  0  0  0  0  0
  195.1210  171.6160  136.9300 C   0  0  0  0  0  1  0  0  0  0  0  0
  1  2  1  1  0  0  0
  2  4  1  0  0  0  0
  3  1  1  0  0  0  0
  3  5  1  0  0  0  0
  4 19  1  1  0  0  0
  5  4  1  0  0  0  0
  6  8  1  0  0  0  0
  6 13  1  1  0  0  0
  8  7  1  6  0  0  0
  8 16  1  0  0  0  0
  9 11  1  0  0  0  0
 11 12  1  6  0  0  0
 11  6  1  0  0  0  0
 11 14  1  0  0  0  0
 14 10  1  0  0  0  0
 15 17  1  1  0  0  0
 15  9  1  0  0  0  0
 15 18  1  0  0  0  0
 16 10  1  1  0  0  0
 16  1  1  0  0  0  0
 18  6  1  0  0  0  0
 19 20  3  0  0  0  0
 20 21  1  0  0  0  0
 21 23  1  0  0  0  0
 23 24  1  0  0  0  0
 23 22  2  0  0  0  0
 24 30  2  0  0  0  0
 25 26  1  0  0  0  0
 26 29  1  0  0  0  0
 26 27  2  0  0  0  0
 28 25  2  0  0  0  0
 30 27  1  0  0  0  0
 31 25  1  0  0  0  0
 31 24  1  0  0  0  0
 33 32  1  6  0  0  0
 33  3  1  0  0  0  0
 34 35  2  0  0  0  0
 35 33  1  0  0  0  0
 36 39  1  0  0  0  0
 36 35  1  0  0  0  0
 37 40  2  0  0  0  0
 37 39  1  0  0  0  0
 38 37  1  0  0  0  0
 39 41  1  0  0  0  0
 42 43  1  0  0  0  0
 42 41  1  0  0  0  0
M  END
>  <MODEL>
7

>  <REMARK>
 VINA RESULT:      -7.0      3.797      9.149
  Name = 
  11 active torsions:
  status: ('A' for Active; 'I' for Inactive)
    1  A    between atoms: C_1  and  C_38
    2  A    between atoms: C_4  and  C_33
    3  A    between atoms: C_5  and  C_35
    4  A    between atoms: C_5  and  C_38
    5  A    between atoms: C_9  and  C_30
    6  A    between atoms: N_20  and  C_37
    7  A    between atoms: C_22  and  C_37
    8  A    between atoms: C_22  and  C_40
    9  A    between atoms: C_24  and  N_27
   10  A    between atoms: C_24  and  C_29
   11  A    between atoms: N_27  and  C_40
                            x       y       z     vdW  Elec       q    Type
                         _______ _______ _______ _____ _____    ______ ____

>  <TORSDO>
F 11

$$$$
=
 OpenBabel11042412423D

 43 46  0  0  1  0  0  0  0  0999 V2000
  184.3930  177.3680  137.3010 C   0  0  2  0  0  3  0  0  0  0  0  0
  184.7250  178.2460  138.4960 C   0  0  0  0  0  2  0  0  0  0  0  0
  183.4370  176.3490  137.7390 N   0  0  0  0  0  0  0  0  0  0  0  0
  183.5170  178.0910  139.3780 C   0  0  1  0  0  3  0  0  0  0  0  0
  183.0680  176.6720  139.1200 C   0  0  0  0  0  2  0  0  0  0  0  0
  188.1950  176.8740  136.8630 C   0  0  2  0  0  0  0  0  0  0  0  0
  186.8100  178.5990  135.5660 C   0  0  0  0  0  1  0  0  0  0  0  0
  186.8620  177.6510  136.7650 C   0  0  1  0  0  3  0  0  0  0  0  0
  189.5260  175.0800  135.9810 C   0  0  0  0  0  2  0  0  0  0  0  0
  185.8970  175.3010  137.3430 C   0  0  0  0  0  2  0  0  0  0  0  0
  188.0980  175.5570  136.0910 C   0  0  2  0  0  0  0  0  0  0  0  0
  187.6290  175.7750  134.8020 F   0  0  0  0  0  0  0  0  0  0  0  0
  188.4940  176.6540  138.3500 C   0  0  0  0  0  1  0  0  0  0  0  0
  187.1490  174.5800  136.7860 C   0  0  0  0  0  2  0  0  0  0  0  0
  190.3430  176.3670  135.8500 C   0  0  2  0  0  3  0  0  0  0  0  0
  185.6420  176.6970  136.7220 C   0  0  1  0  0  3  0  0  0  0  0  0
  191.4410  176.3050  136.7120 O   0  0  0  0  0  1  0  0  0  0  0  0
  189.4280  177.5330  136.2580 C   0  0  0  0  0  2  0  0  0  0  0  0
  183.8540  178.2760  140.7900 C   0  0  0  0  0  0  0  0  0  0  0  0
  184.1580  178.3870  141.9490 C   0  0  0  0  0  0  0  0  0  0  0  0
  184.5660  178.4830  143.3540 C   0  0  0  0  0  2  0  0  0  0  0  0
  186.5680  177.5330  142.5050 O   0  0  0  0  0  0  0  0  0  0  0  0
  185.9650  177.9830  143.5140 C   0  0  0  0  0  0  0  0  0  0  0  0
  186.6490  178.0050  144.8230 C   0  0  0  0  0  0  0  0  0  0  0  0
  188.5930  177.4440  146.3050 C   0  0  0  0  0  0  0  0  0  0  0  0
  187.7750  177.9030  147.4330 C   0  0  0  0  0  0  0  0  0  0  0  0
  186.5420  178.3430  147.2130 C   0  0  0  0  0  3  0  0  0  0  0  0
  189.7420  176.9550  146.5120 O   0  0  0  0  0  0  0  0  0  0  0  0
  188.3010  177.8730  148.8270 C   0  0  0  0  0  1  0  0  0  0  0  0
  185.9880  178.3570  145.8920 N   0  0  0  0  0  0  0  0  0  0  0  0
  188.1010  177.5980  144.8960 C   0  0  0  0  0  2  0  0  0  0  0  0
  182.5190  177.1310  135.7170 O   0  0  0  0  0  1  0  0  0  0  0  0
  182.2700  176.3350  136.8380 C   0  0  1  0  0  3  0  0  0  0  0  0
  181.3200  174.7840  135.3230 O   0  0  0  0  0  0  0  0  0  0  0  0
  181.8020  174.9540  136.4320 C   0  0  0  0  0  0  0  0  0  0  0  0
  181.8970  173.7890  137.3760 C   0  0  0  0  0  2  0  0  0  0  0  0
  180.4860  171.7920  136.7700 C   0  0  0  0  0  0  0  0  0  0  0  0
  181.6030  171.1970  135.9770 C   0  0  0  0  0  1  0  0  0  0  0  0
  180.6400  173.0510  137.4430 N   0  0  0  0  0  0  0  0  0  0  0  0
  179.3940  171.1680  136.8380 O   0  0  0  0  0  0  0  0  0  0  0  0
  179.5390  173.6100  138.2200 C   0  0  0  0  0  2  0  0  0  0  0  0
  180.0870  174.5010  139.3270 C   0  0  0  0  0  2  0  0  0  0  0  0
  179.6550  173.9530  140.6720 C   0  0  0  0  0  1  0  0  0  0  0  0
  1  3  1  0  0  0  0
  1  2  1  1  0  0  0
  2  4  1  0  0  0  0
  3  5  1  0  0  0  0
  4 19  1  1  0  0  0
  5  4  1  0  0  0  0
  6 13  1  1  0  0  0
  8  7  1  6  0  0  0
  8  6  1  0  0  0  0
  9 11  1  0  0  0  0
 11 12  1  6  0  0  0
 11 14  1  0  0  0  0
 11  6  1  0  0  0  0
 14 10  1  0  0  0  0
 15  9  1  0  0  0  0
 15 18  1  0  0  0  0
 15 17  1  1  0  0  0
 16  8  1  0  0  0  0
 16  1  1  0  0  0  0
 16 10  1  1  0  0  0
 18  6  1  0  0  0  0
 19 20  3  0  0  0  0
 20 21  1  0  0  0  0
 21 23  1  0  0  0  0
 22 23  2  0  0  0  0
 23 24  1  0  0  0  0
 24 31  1  0  0  0  0
 24 30  2  0  0  0  0
 25 28  2  0  0  0  0
 25 26  1  0  0  0  0
 26 29  1  0  0  0  0
 27 26  2  0  0  0  0
 30 27  1  0  0  0  0
 31 25  1  0  0  0  0
 33 32  1  6  0  0  0
 33  3  1  0  0  0  0
 34 35  2  0  0  0  0
 35 33  1  0  0  0  0
 35 36  1  0  0  0  0
 36 39  1  0  0  0  0
 37 40  2  0  0  0  0
 37 39  1  0  0  0  0
 38 37  1  0  0  0  0
 39 41  1  0  0  0  0
 41 42  1  0  0  0  0
 42 43  1  0  0  0  0
M  END
>  <MODEL>
8

>  <REMARK>
 VINA RESULT:      -6.9      3.439      9.513
  Name = 
  11 active torsions:
  status: ('A' for Active; 'I' for Inactive)
    1  A    between atoms: C_1  and  C_38
    2  A    between atoms: C_4  and  C_33
    3  A    between atoms: C_5  and  C_35
    4  A    between atoms: C_5  and  C_38
    5  A    between atoms: C_9  and  C_30
    6  A    between atoms: N_20  and  C_37
    7  A    between atoms: C_22  and  C_37
    8  A    between atoms: C_22  and  C_40
    9  A    between atoms: C_24  and  N_27
   10  A    between atoms: C_24  and  C_29
   11  A    between atoms: N_27  and  C_40
                            x       y       z     vdW  Elec       q    Type
                         _______ _______ _______ _____ _____    ______ ____

>  <TORSDO>
F 11

$$$$
=
 OpenBabel11042412423D

 43 46  0  0  1  0  0  0  0  0999 V2000
  189.1850  177.1220  139.2280 C   0  0  2  0  0  3  0  0  0  0  0  0
  189.9870  175.9350  138.7200 C   0  0  0  0  0  2  0  0  0  0  0  0
  189.3040  178.2030  138.2480 N   0  0  0  0  0  0  0  0  0  0  0  0
  190.0140  176.1560  137.2320 C   0  0  1  0  0  3  0  0  0  0  0  0
  190.0290  177.6600  137.0960 C   0  0  0  0  0  2  0  0  0  0  0  0
  189.3330  177.0880  143.0830 C   0  0  2  0  0  0  0  0  0  0  0  0
  187.5600  178.3460  141.7240 C   0  0  0  0  0  1  0  0  0  0  0  0
  188.6510  177.2750  141.7090 C   0  0  1  0  0  3  0  0  0  0  0  0
  190.8920  177.9880  144.6740 C   0  0  0  0  0  2  0  0  0  0  0  0
  191.1220  177.1230  140.8960 C   0  0  0  0  0  2  0  0  0  0  0  0
  190.5410  178.0190  143.2060 C   0  0  2  0  0  0  0  0  0  0  0  0
  190.1910  179.3250  142.8870 F   0  0  0  0  0  0  0  0  0  0  0  0
  189.7240  175.6110  143.2100 C   0  0  0  0  0  1  0  0  0  0  0  0
  191.6690  177.5850  142.2690 C   0  0  0  0  0  2  0  0  0  0  0  0
  189.5410  177.8490  145.3800 C   0  0  2  0  0  3  0  0  0  0  0  0
  189.6790  177.6000  140.5960 C   0  0  1  0  0  3  0  0  0  0  0  0
  189.6350  176.8580  146.3610 O   0  0  0  0  0  1  0  0  0  0  0  0
  188.5100  177.4330  144.3180 C   0  0  0  0  0  2  0  0  0  0  0  0
  191.2100  175.5720  136.6230 C   0  0  0  0  0  0  0  0  0  0  0  0
  192.1900  175.1240  136.0870 C   0  0  0  0  0  0  0  0  0  0  0  0
  193.3840  174.6220  135.4000 C   0  0  0  0  0  2  0  0  0  0  0  0
  193.5330  172.4030  136.2280 O   0  0  0  0  0  0  0  0  0  0  0  0
  194.0350  173.5570  136.2220 C   0  0  0  0  0  0  0  0  0  0  0  0
  195.2460  173.8310  137.0230 C   0  0  0  0  0  0  0  0  0  0  0  0
  196.3740  174.7150  139.0810 C   0  0  0  0  0  0  0  0  0  0  0  0
  197.6490  174.5180  138.3820 C   0  0  0  0  0  0  0  0  0  0  0  0
  197.6490  174.0370  137.1440 C   0  0  0  0  0  3  0  0  0  0  0  0
  196.3570  175.2410  140.2320 O   0  0  0  0  0  0  0  0  0  0  0  0
  198.9440  174.8610  139.0320 C   0  0  0  0  0  1  0  0  0  0  0  0
  196.4240  173.7260  136.4720 N   0  0  0  0  0  0  0  0  0  0  0  0
  195.0870  174.2480  138.4650 C   0  0  0  0  0  2  0  0  0  0  0  0
  188.0730  179.7220  136.9370 O   0  0  0  0  0  1  0  0  0  0  0  0
  187.9650  178.6990  137.8810 C   0  0  1  0  0  3  0  0  0  0  0  0
  187.1180  177.1610  136.2950 O   0  0  0  0  0  0  0  0  0  0  0  0
  187.0010  177.6280  137.4170 C   0  0  0  0  0  0  0  0  0  0  0  0
  185.8880  177.1430  138.3010 C   0  0  0  0  0  2  0  0  0  0  0  0
  183.6390  177.3460  137.1840 C   0  0  0  0  0  0  0  0  0  0  0  0
  183.8190  176.0290  136.5010 C   0  0  0  0  0  1  0  0  0  0  0  0
  184.6510  177.8770  138.0530 N   0  0  0  0  0  0  0  0  0  0  0  0
  182.5770  177.9920  136.9810 O   0  0  0  0  0  0  0  0  0  0  0  0
  184.4510  179.1600  138.7180 C   0  0  0  0  0  2  0  0  0  0  0  0
  184.5360  178.9800  140.2280 C   0  0  0  0  0  2  0  0  0  0  0  0
  183.3120  178.2290  140.7120 C   0  0  0  0  0  1  0  0  0  0  0  0
  1  2  1  6  0  0  0
  1 16  1  0  0  0  0
  3  1  1  0  0  0  0
  4 19  1  1  0  0  0
  4  2  1  0  0  0  0
  5  4  1  0  0  0  0
  5  3  1  0  0  0  0
  6 11  1  0  0  0  0
  6 13  1  1  0  0  0
  6 18  1  0  0  0  0
  8  7  1  1  0  0  0
  8  6  1  0  0  0  0
  9 15  1  0  0  0  0
 10 14  1  0  0  0  0
 11 12  1  6  0  0  0
 11  9  1  0  0  0  0
 14 11  1  0  0  0  0
 15 17  1  1  0  0  0
 16 10  1  1  0  0  0
 16  8  1  0  0  0  0
 18 15  1  0  0  0  0
 20 19  3  0  0  0  0
 21 20  1  0  0  0  0
 21 23  1  0  0  0  0
 23 22  2  0  0  0  0
 23 24  1  0  0  0  0
 24 31  1  0  0  0  0
 25 28  2  0  0  0  0
 26 29  1  0  0  0  0
 26 25  1  0  0  0  0
 27 26  2  0  0  0  0
 30 24  2  0  0  0  0
 30 27  1  0  0  0  0
 31 25  1  0  0  0  0
 33 32  1  6  0  0  0
 33  3  1  0  0  0  0
 34 35  2  0  0  0  0
 35 33  1  0  0  0  0
 35 36  1  0  0  0  0
 37 39  1  0  0  0  0
 38 37  1  0  0  0  0
 39 36  1  0  0  0  0
 39 41  1  0  0  0  0
 40 37  2  0  0  0  0
 41 42  1  0  0  0  0
 42 43  1  0  0  0  0
M  END
>  <MODEL>
9

>  <REMARK>
 VINA RESULT:      -6.8      3.858      8.757
  Name = 
  11 active torsions:
  status: ('A' for Active; 'I' for Inactive)
    1  A    between atoms: C_1  and  C_38
    2  A    between atoms: C_4  and  C_33
    3  A    between atoms: C_5  and  C_35
    4  A    between atoms: C_5  and  C_38
    5  A    between atoms: C_9  and  C_30
    6  A    between atoms: N_20  and  C_37
    7  A    between atoms: C_22  and  C_37
    8  A    between atoms: C_22  and  C_40
    9  A    between atoms: C_24  and  N_27
   10  A    between atoms: C_24  and  C_29
   11  A    between atoms: N_27  and  C_40
                            x       y       z     vdW  Elec       q    Type
                         _______ _______ _______ _____ _____    ______ ____

>  <TORSDO>
F 11

$$$$
