=
 OpenBabel11032420173D

 28 31  0  0  1  0  0  0  0  0999 V2000
  189.8990  177.2050  147.2080 C   0  0  0  0  0  0  0  0  0  0  0  0
  188.7750  177.5600  143.6710 N   0  0  0  0  0  0  0  0  0  0  0  0
  187.7140  177.7610  142.9470 C   0  0  0  0  0  0  0  0  0  0  0  0
  184.3110  178.3300  142.1790 O   0  0  0  0  0  0  0  0  0  0  0  0
  188.7140  177.3560  147.8600 N   0  0  0  0  0  0  0  0  0  0  0  0
  186.2410  177.8830  145.0840 C   0  0  0  0  0  2  0  0  0  0  0  0
  187.5370  177.6450  145.8010 C   0  0  0  0  0  0  0  0  0  0  0  0
  185.3230  178.1380  142.8660 C   0  0  0  0  0  0  0  0  0  0  0  0
  189.9280  177.2720  145.8060 C   0  0  0  0  0  3  0  0  0  0  0  0
  188.7450  177.4920  145.1020 C   0  0  0  0  0  0  0  0  0  0  0  0
  187.5480  177.5720  147.1940 C   0  0  0  0  0  3  0  0  0  0  0  0
  187.8280  177.8160  141.5220 N   0  0  0  0  0  0  0  0  0  0  0  0
  186.3900  177.9350  143.5900 C   0  0  0  0  0  0  0  0  0  0  0  0
  188.1650  178.2600  138.6170 N   0  0  0  0  0  0  0  0  0  0  0  0
  190.3960  177.6850  138.9920 O   0  0  0  0  0  0  0  0  0  0  0  0
  186.9230  178.4700  139.1210 O   0  0  0  0  0  1  0  0  0  0  0  0
  189.0650  177.6550  140.8830 N   0  0  0  0  0  0  0  0  0  0  0  0
  189.2470  177.8620  139.4780 C   0  0  0  0  0  0  0  0  0  0  0  0
  188.4170  178.4420  137.1870 C   0  0  0  0  0  2  0  0  0  0  0  0
  185.8590  176.9010  134.6750 N   0  0  0  0  0  0  0  0  0  0  0  0
  186.7380  177.8660  135.4300 C   0  0  1  0  0  0  0  0  0  0  0  0
  185.6360  177.1240  136.0790 C   0  0  0  0  0  2  0  0  0  0  0  0
  186.3960  175.6540  134.5960 O   0  0  0  0  0  1  0  0  0  0  0  0
  187.8400  177.3080  136.3530 C   0  0  1  0  0  3  0  0  0  0  0  0
  188.1650  177.5280  134.9360 C   0  0  0  0  0  2  0  0  0  0  0  0
  191.0600  176.9860  147.9560 O   0  0  0  0  0  0  0  0  0  0  0  0
  192.8230  175.3000  147.2910 N   0  0  0  0  0  0  0  0  0  0  0  0
  192.0160  176.0720  147.5940 C   0  0  0  0  0  0  0  0  0  0  0  0
  1  5  2  0  0  0  0
  1 26  1  0  0  0  0
  2 10  1  0  0  0  0
  3 13  1  0  0  0  0
  3  2  2  0  0  0  0
  4  8  2  0  0  0  0
  6  7  1  0  0  0  0
  7 11  2  0  0  0  0
  8 13  2  0  0  0  0
  9  1  1  0  0  0  0
 10  7  1  0  0  0  0
 10  9  2  0  0  0  0
 11  5  1  0  0  0  0
 12  3  1  0  0  0  0
 13  6  1  0  0  0  0
 14 16  1  0  0  0  0
 14 18  1  0  0  0  0
 15 18  2  0  0  0  0
 17 12  2  0  0  0  0
 18 17  1  0  0  0  0
 19 14  1  0  0  0  0
 20 21  1  0  0  0  0
 20 22  1  0  0  0  0
 21 25  1  6  0  0  0
 21 22  1  0  0  0  0
 21 24  1  0  0  0  0
 23 20  1  0  0  0  0
 24 19  1  1  0  0  0
 25 24  1  0  0  0  0
 27 28  3  0  0  0  0
 28 26  1  0  0  0  0
M  END
>  <MODEL>
1

>  <REMARK>
 VINA RESULT:      -8.4      0.000      0.000
  Name = 
  5 active torsions:
  status: ('A' for Active; 'I' for Inactive)
    1  A    between atoms: N_1  and  C_14
    2  A    between atoms: C_2  and  O_19
    3  A    between atoms: C_14  and  C_23
    4  A    between atoms: C_15  and  O_19
    5  A    between atoms: N_24  and  N_25
                            x       y       z     vdW  Elec       q    Type
                         _______ _______ _______ _____ _____    ______ ____

>  <TORSDO>
F 5

$$$$
=
 OpenBabel11032420173D

 28 31  0  0  1  0  0  0  0  0999 V2000
  184.7500  178.6500  145.7770 C   0  0  0  0  0  0  0  0  0  0  0  0
  187.7060  177.5270  143.8010 N   0  0  0  0  0  0  0  0  0  0  0  0
  188.9510  177.1790  143.9270 C   0  0  0  0  0  0  0  0  0  0  0  0
  192.0300  176.4810  145.5170 O   0  0  0  0  0  0  0  0  0  0  0  0
  185.2790  178.6570  147.0300 N   0  0  0  0  0  0  0  0  0  0  0  0
  188.8260  177.5470  146.4960 C   0  0  0  0  0  2  0  0  0  0  0  0
  187.4030  177.9280  146.2140 C   0  0  0  0  0  0  0  0  0  0  0  0
  190.8440  176.8130  145.3930 C   0  0  0  0  0  0  0  0  0  0  0  0
  185.5550  178.2730  144.6900 C   0  0  0  0  0  3  0  0  0  0  0  0
  186.8840  177.9120  144.9100 C   0  0  0  0  0  0  0  0  0  0  0  0
  186.5720  178.3080  147.2690 C   0  0  0  0  0  3  0  0  0  0  0  0
  189.7050  176.8080  142.7690 N   0  0  0  0  0  2  0  0  0  0  0  0
  189.5940  177.1630  145.2630 C   0  0  0  0  0  0  0  0  0  0  0  0
  191.3150  177.2020  140.3190 N   0  0  0  0  0  0  0  0  0  0  0  0
  189.2800  177.0010  139.1920 O   0  0  0  0  0  0  0  0  0  0  0  0
  191.9930  177.1960  141.4940 O   0  0  0  0  0  1  0  0  0  0  0  0
  189.1280  176.8120  141.4920 N   0  0  0  0  0  2  0  0  0  0  0  0
  189.8900  177.0050  140.2940 C   0  0  0  0  0  0  0  0  0  0  0  0
  192.0310  177.4050  139.0590 C   0  0  0  0  0  2  0  0  0  0  0  0
  192.1170  174.5380  136.4130 N   0  0  0  0  0  0  0  0  0  0  0  0
  191.9310  175.8740  137.0890 C   0  0  1  0  0  0  0  0  0  0  0  0
  191.1660  174.6720  137.4840 C   0  0  0  0  0  2  0  0  0  0  0  0
  193.1460  173.8220  136.9400 O   0  0  0  0  0  1  0  0  0  0  0  0
  192.5570  176.1010  138.4790 C   0  0  1  0  0  3  0  0  0  0  0  0
  193.3760  176.3870  137.2930 C   0  0  0  0  0  2  0  0  0  0  0  0
  183.4120  179.0190  145.6040 O   0  0  0  0  0  0  0  0  0  0  0  0
  182.2650  179.0030  143.3510 N   0  0  0  0  0  0  0  0  0  0  0  0
  182.7910  179.0110  144.3820 C   0  0  0  0  0  0  0  0  0  0  0  0
  1  5  2  0  0  0  0
  2  3  2  0  0  0  0
  2 10  1  0  0  0  0
  3 13  1  0  0  0  0
  5 11  1  0  0  0  0
  7  6  1  0  0  0  0
  7 11  2  0  0  0  0
  8  4  2  0  0  0  0
  9 10  2  0  0  0  0
  9  1  1  0  0  0  0
 10  7  1  0  0  0  0
 12  3  1  0  0  0  0
 13  8  2  0  0  0  0
 13  6  1  0  0  0  0
 14 16  1  0  0  0  0
 15 18  2  0  0  0  0
 17 12  1  0  0  0  0
 18 14  1  0  0  0  0
 18 17  1  0  0  0  0
 19 14  1  0  0  0  0
 20 23  1  0  0  0  0
 20 21  1  0  0  0  0
 20 22  1  0  0  0  0
 21 25  1  6  0  0  0
 21 22  1  0  0  0  0
 21 24  1  0  0  0  0
 24 19  1  6  0  0  0
 25 24  1  0  0  0  0
 26  1  1  0  0  0  0
 27 28  3  0  0  0  0
 28 26  1  0  0  0  0
M  END
>  <MODEL>
2

>  <REMARK>
 VINA RESULT:      -8.3      3.367      5.463
  Name = 
  5 active torsions:
  status: ('A' for Active; 'I' for Inactive)
    1  A    between atoms: N_1  and  C_14
    2  A    between atoms: C_2  and  O_19
    3  A    between atoms: C_14  and  C_23
    4  A    between atoms: C_15  and  O_19
    5  A    between atoms: N_24  and  N_25
                            x       y       z     vdW  Elec       q    Type
                         _______ _______ _______ _____ _____    ______ ____

>  <TORSDO>
F 5

$$$$
=
 OpenBabel11032420173D

 28 31  0  0  1  0  0  0  0  0999 V2000
  190.3730  176.8080  146.3080 C   0  0  0  0  0  0  0  0  0  0  0  0
  187.6190  177.9120  144.0490 N   0  0  0  0  0  0  0  0  0  0  0  0
  186.3780  178.2970  144.0580 C   0  0  0  0  0  0  0  0  0  0  0  0
  183.2010  179.1400  145.3580 O   0  0  0  0  0  0  0  0  0  0  0  0
  189.7440  176.8710  147.5120 N   0  0  0  0  0  0  0  0  0  0  0  0
  186.2840  178.0420  146.6420 C   0  0  0  0  0  2  0  0  0  0  0  0
  187.7140  177.6140  146.4940 C   0  0  0  0  0  0  0  0  0  0  0  0
  184.3830  178.7740  145.3460 C   0  0  0  0  0  0  0  0  0  0  0  0
  189.6690  177.1550  145.1440 C   0  0  0  0  0  3  0  0  0  0  0  0
  188.3370  177.5580  145.2370 C   0  0  0  0  0  0  0  0  0  0  0  0
  188.4460  177.2610  147.6290 C   0  0  0  0  0  3  0  0  0  0  0  0
  185.7310  178.6330  142.8270 N   0  0  0  0  0  0  0  0  0  0  0  0
  185.6300  178.3880  145.3340 C   0  0  0  0  0  0  0  0  0  0  0  0
  184.3380  178.9520  140.2370 N   0  0  0  0  0  0  0  0  0  0  0  0
  186.4460  178.6130  139.2910 O   0  0  0  0  0  0  0  0  0  0  0  0
  183.5760  179.0700  141.3520 O   0  0  0  0  0  1  0  0  0  0  0  0
  186.4090  178.5570  141.6020 N   0  0  0  0  0  0  0  0  0  0  0  0
  185.7530  178.7050  140.3390 C   0  0  0  0  0  0  0  0  0  0  0  0
  183.7280  179.0810  138.9130 C   0  0  0  0  0  2  0  0  0  0  0  0
  181.6090  175.8470  138.3830 N   0  0  0  0  0  0  0  0  0  0  0  0
  182.0310  177.2610  138.6960 C   0  0  1  0  0  0  0  0  0  0  0  0
  182.5060  176.1000  139.4790 C   0  0  0  0  0  2  0  0  0  0  0  0
  182.3780  175.2690  137.4220 O   0  0  0  0  0  1  0  0  0  0  0  0
  183.4400  177.7280  138.2790 C   0  0  1  0  0  3  0  0  0  0  0  0
  182.3460  177.8660  137.3070 C   0  0  0  0  0  2  0  0  0  0  0  0
  191.7090  176.3980  146.2610 O   0  0  0  0  0  0  0  0  0  0  0  0
  192.9190  175.4420  148.2640 N   0  0  0  0  0  0  0  0  0  0  0  0
  192.3660  175.8790  147.3470 C   0  0  0  0  0  0  0  0  0  0  0  0
  1  5  2  0  0  0  0
  2  3  2  0  0  0  0
  2 10  1  0  0  0  0
  3 13  1  0  0  0  0
  5 11  1  0  0  0  0
  7  6  1  0  0  0  0
  7 11  2  0  0  0  0
  8  4  2  0  0  0  0
  9 10  2  0  0  0  0
  9  1  1  0  0  0  0
 10  7  1  0  0  0  0
 12  3  1  0  0  0  0
 13  8  2  0  0  0  0
 13  6  1  0  0  0  0
 14 18  1  0  0  0  0
 14 16  1  0  0  0  0
 15 18  2  0  0  0  0
 17 12  2  0  0  0  0
 18 17  1  0  0  0  0
 19 14  1  0  0  0  0
 20 21  1  0  0  0  0
 20 22  1  0  0  0  0
 21 25  1  1  0  0  0
 21 22  1  0  0  0  0
 23 20  1  0  0  0  0
 24 21  1  0  0  0  0
 24 19  1  1  0  0  0
 25 24  1  0  0  0  0
 26  1  1  0  0  0  0
 26 28  1  0  0  0  0
 28 27  3  0  0  0  0
M  END
>  <MODEL>
3

>  <REMARK>
 VINA RESULT:      -8.3      2.879      3.386
  Name = 
  5 active torsions:
  status: ('A' for Active; 'I' for Inactive)
    1  A    between atoms: N_1  and  C_14
    2  A    between atoms: C_2  and  O_19
    3  A    between atoms: C_14  and  C_23
    4  A    between atoms: C_15  and  O_19
    5  A    between atoms: N_24  and  N_25
                            x       y       z     vdW  Elec       q    Type
                         _______ _______ _______ _____ _____    ______ ____

>  <TORSDO>
F 5

$$$$
=
 OpenBabel11032420173D

 28 31  0  0  1  0  0  0  0  0999 V2000
  190.1390  176.8690  146.1550 C   0  0  0  0  0  0  0  0  0  0  0  0
  187.3970  177.9920  143.8910 N   0  0  0  0  0  0  0  0  0  0  0  0
  186.1550  178.3750  143.8960 C   0  0  0  0  0  0  0  0  0  0  0  0
  182.9700  179.2020  145.1850 O   0  0  0  0  0  0  0  0  0  0  0  0
  189.5030  176.9190  147.3560 N   0  0  0  0  0  0  0  0  0  0  0  0
  186.0470  178.0940  146.4770 C   0  0  0  0  0  2  0  0  0  0  0  0
  187.4780  177.6690  146.3330 C   0  0  0  0  0  0  0  0  0  0  0  0
  184.1530  178.8370  145.1770 C   0  0  0  0  0  0  0  0  0  0  0  0
  189.4410  177.2260  144.9900 C   0  0  0  0  0  3  0  0  0  0  0  0
  188.1090  177.6270  145.0800 C   0  0  0  0  0  0  0  0  0  0  0  0
  188.2040  177.3070  147.4690 C   0  0  0  0  0  3  0  0  0  0  0  0
  185.5160  178.7220  142.6640 N   0  0  0  0  0  0  0  0  0  0  0  0
  185.4000  178.4530  145.1690 C   0  0  0  0  0  0  0  0  0  0  0  0
  184.1130  178.8790  140.0650 N   0  0  0  0  0  0  0  0  0  0  0  0
  186.2410  178.6560  139.1310 O   0  0  0  0  0  0  0  0  0  0  0  0
  183.3410  178.9750  141.1750 O   0  0  0  0  0  1  0  0  0  0  0  0
  186.2010  178.6590  141.4440 N   0  0  0  0  0  0  0  0  0  0  0  0
  185.5400  178.7300  140.1750 C   0  0  0  0  0  0  0  0  0  0  0  0
  183.5000  178.9320  138.7370 C   0  0  0  0  0  2  0  0  0  0  0  0
  180.0830  180.6930  138.0630 N   0  0  0  0  0  0  0  0  0  0  0  0
  181.5190  180.2430  137.9640 C   0  0  1  0  0  0  0  0  0  0  0  0
  181.0100  181.0200  139.1140 C   0  0  0  0  0  2  0  0  0  0  0  0
  179.2690  179.7410  138.5910 O   0  0  0  0  0  1  0  0  0  0  0  0
  181.9840  179.0390  138.8080 C   0  0  1  0  0  3  0  0  0  0  0  0
  181.4120  178.7770  137.4790 C   0  0  0  0  0  2  0  0  0  0  0  0
  191.4760  176.4610  146.1120 O   0  0  0  0  0  0  0  0  0  0  0  0
  192.7270  175.6470  148.1530 N   0  0  0  0  0  0  0  0  0  0  0  0
  192.1540  176.0200  147.2190 C   0  0  0  0  0  0  0  0  0  0  0  0
  1  5  2  0  0  0  0
  2  3  2  0  0  0  0
  2 10  1  0  0  0  0
  3 13  1  0  0  0  0
  5 11  1  0  0  0  0
  7  6  1  0  0  0  0
  7 11  2  0  0  0  0
  8  4  2  0  0  0  0
  9 10  2  0  0  0  0
  9  1  1  0  0  0  0
 10  7  1  0  0  0  0
 12  3  1  0  0  0  0
 13  8  2  0  0  0  0
 13  6  1  0  0  0  0
 14 18  1  0  0  0  0
 14 16  1  0  0  0  0
 15 18  2  0  0  0  0
 17 12  2  0  0  0  0
 18 17  1  0  0  0  0
 19 14  1  0  0  0  0
 20 23  1  0  0  0  0
 20 22  1  0  0  0  0
 21 25  1  6  0  0  0
 21 20  1  0  0  0  0
 21 24  1  0  0  0  0
 21 22  1  0  0  0  0
 24 19  1  6  0  0  0
 25 24  1  0  0  0  0
 26  1  1  0  0  0  0
 26 28  1  0  0  0  0
 28 27  3  0  0  0  0
M  END
>  <MODEL>
4

>  <REMARK>
 VINA RESULT:      -8.3      3.282      4.131
  Name = 
  5 active torsions:
  status: ('A' for Active; 'I' for Inactive)
    1  A    between atoms: N_1  and  C_14
    2  A    between atoms: C_2  and  O_19
    3  A    between atoms: C_14  and  C_23
    4  A    between atoms: C_15  and  O_19
    5  A    between atoms: N_24  and  N_25
                            x       y       z     vdW  Elec       q    Type
                         _______ _______ _______ _____ _____    ______ ____

>  <TORSDO>
F 5

$$$$
=
 OpenBabel11032420173D

 28 31  0  0  1  0  0  0  0  0999 V2000
  184.5980  178.6410  145.2590 C   0  0  0  0  0  0  0  0  0  0  0  0
  187.3500  177.9310  142.8470 N   0  0  0  0  0  0  0  0  0  0  0  0
  188.5720  177.4910  142.7840 C   0  0  0  0  0  0  0  0  0  0  0  0
  191.6730  176.2160  143.9020 O   0  0  0  0  0  0  0  0  0  0  0  0
  185.1940  178.2780  146.4270 N   0  0  0  0  0  0  0  0  0  0  0  0
  188.6150  177.1550  145.3600 C   0  0  0  0  0  2  0  0  0  0  0  0
  187.2100  177.6790  145.2940 C   0  0  0  0  0  0  0  0  0  0  0  0
  190.5100  176.6350  143.9580 C   0  0  0  0  0  0  0  0  0  0  0  0
  185.3130  178.5280  144.0560 C   0  0  0  0  0  3  0  0  0  0  0  0
  186.6210  178.0460  144.0740 C   0  0  0  0  0  0  0  0  0  0  0  0
  186.4690  177.8050  146.4690 C   0  0  0  0  0  3  0  0  0  0  0  0
  189.2310  177.4060  141.5180 N   0  0  0  0  0  2  0  0  0  0  0  0
  189.2830  177.0780  144.0170 C   0  0  0  0  0  0  0  0  0  0  0  0
  190.0350  176.3420  138.8780 N   0  0  0  0  0  0  0  0  0  0  0  0
  188.3310  177.6990  138.0370 O   0  0  0  0  0  0  0  0  0  0  0  0
  190.7200  175.8760  139.9510 O   0  0  0  0  0  1  0  0  0  0  0  0
  188.5880  177.7890  140.3330 N   0  0  0  0  0  2  0  0  0  0  0  0
  188.9640  177.2890  139.0460 C   0  0  0  0  0  0  0  0  0  0  0  0
  190.3760  175.8800  137.5320 C   0  0  0  0  0  2  0  0  0  0  0  0
  194.2500  175.7000  137.0910 N   0  0  0  0  0  0  0  0  0  0  0  0
  192.7980  175.3290  137.2640 C   0  0  1  0  0  0  0  0  0  0  0  0
  193.5520  176.0800  138.2910 C   0  0  0  0  0  2  0  0  0  0  0  0
  194.4180  176.8560  136.3970 O   0  0  0  0  0  1  0  0  0  0  0  0
  191.7220  176.4150  137.0640 C   0  0  1  0  0  3  0  0  0  0  0  0
  192.1690  175.6550  135.8880 C   0  0  0  0  0  2  0  0  0  0  0  0
  183.2840  179.1190  145.2890 O   0  0  0  0  0  0  0  0  0  0  0  0
  181.7820  179.1280  143.2550 N   0  0  0  0  0  0  0  0  0  0  0  0
  182.4700  179.1230  144.1860 C   0  0  0  0  0  0  0  0  0  0  0  0
  1 26  1  0  0  0  0
  1  5  2  0  0  0  0
  2 10  1  0  0  0  0
  3  2  2  0  0  0  0
  3 13  1  0  0  0  0
  4  8  2  0  0  0  0
  5 11  1  0  0  0  0
  7  6  1  0  0  0  0
  7 11  2  0  0  0  0
  8 13  2  0  0  0  0
  9 10  2  0  0  0  0
  9  1  1  0  0  0  0
 10  7  1  0  0  0  0
 12  3  1  0  0  0  0
 13  6  1  0  0  0  0
 14 18  1  0  0  0  0
 14 16  1  0  0  0  0
 15 18  2  0  0  0  0
 17 12  1  0  0  0  0
 18 17  1  0  0  0  0
 19 14  1  0  0  0  0
 20 21  1  0  0  0  0
 20 22  1  0  0  0  0
 21 25  1  1  0  0  0
 21 22  1  0  0  0  0
 23 20  1  0  0  0  0
 24 21  1  0  0  0  0
 24 19  1  1  0  0  0
 25 24  1  0  0  0  0
 27 28  3  0  0  0  0
 28 26  1  0  0  0  0
M  END
>  <MODEL>
5

>  <REMARK>
 VINA RESULT:      -8.2      3.206      5.600
  Name = 
  5 active torsions:
  status: ('A' for Active; 'I' for Inactive)
    1  A    between atoms: N_1  and  C_14
    2  A    between atoms: C_2  and  O_19
    3  A    between atoms: C_14  and  C_23
    4  A    between atoms: C_15  and  O_19
    5  A    between atoms: N_24  and  N_25
                            x       y       z     vdW  Elec       q    Type
                         _______ _______ _______ _____ _____    ______ ____

>  <TORSDO>
F 5

$$$$
=
 OpenBabel11032420173D

 28 31  0  0  1  0  0  0  0  0999 V2000
  184.7420  178.5880  145.3470 C   0  0  0  0  0  0  0  0  0  0  0  0
  187.3230  177.9040  142.7450 N   0  0  0  0  0  0  0  0  0  0  0  0
  188.5420  177.4790  142.5960 C   0  0  0  0  0  0  0  0  0  0  0  0
  191.7300  176.2440  143.4930 O   0  0  0  0  0  0  0  0  0  0  0  0
  185.4240  178.2350  146.4700 N   0  0  0  0  0  0  0  0  0  0  0  0
  188.7730  177.1510  145.1630 C   0  0  0  0  0  2  0  0  0  0  0  0
  187.3610  177.6570  145.1970 C   0  0  0  0  0  0  0  0  0  0  0  0
  190.5700  176.6500  143.6310 C   0  0  0  0  0  0  0  0  0  0  0  0
  185.3700  178.4800  144.0960 C   0  0  0  0  0  3  0  0  0  0  0  0
  186.6820  178.0140  144.0210 C   0  0  0  0  0  0  0  0  0  0  0  0
  186.7040  177.7780  146.4220 C   0  0  0  0  0  3  0  0  0  0  0  0
  189.1100  177.3980  141.2860 N   0  0  0  0  0  2  0  0  0  0  0  0
  189.3450  177.0770  143.7760 C   0  0  0  0  0  0  0  0  0  0  0  0
  189.8280  176.4530  138.5770 N   0  0  0  0  0  0  0  0  0  0  0  0
  188.0000  177.7210  137.8690 O   0  0  0  0  0  0  0  0  0  0  0  0
  190.5990  176.0040  139.5970 O   0  0  0  0  0  1  0  0  0  0  0  0
  188.3790  177.7700  140.1500 N   0  0  0  0  0  2  0  0  0  0  0  0
  188.7120  177.3260  138.8300 C   0  0  0  0  0  0  0  0  0  0  0  0
  190.1210  176.0470  137.2020 C   0  0  0  0  0  2  0  0  0  0  0  0
  187.6030  173.5740  135.5350 N   0  0  0  0  0  0  0  0  0  0  0  0
  188.4510  174.7840  135.8390 C   0  0  1  0  0  0  0  0  0  0  0  0
  187.3810  174.3170  136.7480 C   0  0  0  0  0  2  0  0  0  0  0  0
  188.1840  172.4110  135.9340 O   0  0  0  0  0  1  0  0  0  0  0  0
  189.5790  174.6610  136.8830 C   0  0  1  0  0  3  0  0  0  0  0  0
  189.8860  174.3250  135.4850 C   0  0  0  0  0  2  0  0  0  0  0  0
  183.4270  179.0500  145.4690 O   0  0  0  0  0  0  0  0  0  0  0  0
  181.7710  178.9910  143.5600 N   0  0  0  0  0  0  0  0  0  0  0  0
  182.5290  179.0190  144.4340 C   0  0  0  0  0  0  0  0  0  0  0  0
  1 26  1  0  0  0  0
  1  5  2  0  0  0  0
  2 10  1  0  0  0  0
  3  2  2  0  0  0  0
  3 13  1  0  0  0  0
  4  8  2  0  0  0  0
  6  7  1  0  0  0  0
  7 11  2  0  0  0  0
  8 13  2  0  0  0  0
  9  1  1  0  0  0  0
 10  9  2  0  0  0  0
 10  7  1  0  0  0  0
 11  5  1  0  0  0  0
 12  3  1  0  0  0  0
 13  6  1  0  0  0  0
 14 18  1  0  0  0  0
 14 16  1  0  0  0  0
 15 18  2  0  0  0  0
 17 12  1  0  0  0  0
 18 17  1  0  0  0  0
 19 14  1  0  0  0  0
 20 21  1  0  0  0  0
 20 23  1  0  0  0  0
 20 22  1  0  0  0  0
 21 25  1  6  0  0  0
 21 22  1  0  0  0  0
 21 24  1  0  0  0  0
 24 19  1  6  0  0  0
 25 24  1  0  0  0  0
 27 28  3  0  0  0  0
 28 26  1  0  0  0  0
M  END
>  <MODEL>
6

>  <REMARK>
 VINA RESULT:      -7.8      2.806      4.783
  Name = 
  5 active torsions:
  status: ('A' for Active; 'I' for Inactive)
    1  A    between atoms: N_1  and  C_14
    2  A    between atoms: C_2  and  O_19
    3  A    between atoms: C_14  and  C_23
    4  A    between atoms: C_15  and  O_19
    5  A    between atoms: N_24  and  N_25
                            x       y       z     vdW  Elec       q    Type
                         _______ _______ _______ _____ _____    ______ ____

>  <TORSDO>
F 5

$$$$
=
 OpenBabel11032420173D

 28 31  0  0  1  0  0  0  0  0999 V2000
  189.3600  177.1300  145.3590 C   0  0  0  0  0  0  0  0  0  0  0  0
  186.8230  178.2160  142.8520 N   0  0  0  0  0  0  0  0  0  0  0  0
  185.5760  178.5650  142.7400 C   0  0  0  0  0  0  0  0  0  0  0  0
  182.2580  179.2840  143.7210 O   0  0  0  0  0  0  0  0  0  0  0  0
  188.6080  177.1420  146.4930 N   0  0  0  0  0  0  0  0  0  0  0  0
  185.2230  178.2390  145.2930 C   0  0  0  0  0  2  0  0  0  0  0  0
  186.6730  177.8550  145.2860 C   0  0  0  0  0  0  0  0  0  0  0  0
  183.4450  178.9520  143.8240 C   0  0  0  0  0  0  0  0  0  0  0  0
  188.7700  177.4880  144.1360 C   0  0  0  0  0  3  0  0  0  0  0  0
  187.4250  177.8510  144.1000 C   0  0  0  0  0  0  0  0  0  0  0  0
  187.2940  177.4930  146.4820 C   0  0  0  0  0  3  0  0  0  0  0  0
  185.0510  178.9160  141.4560 N   0  0  0  0  0  2  0  0  0  0  0  0
  184.6980  178.6010  143.9330 C   0  0  0  0  0  0  0  0  0  0  0  0
  183.9940  178.1040  138.8160 N   0  0  0  0  0  0  0  0  0  0  0  0
  186.1630  178.5010  138.0500 O   0  0  0  0  0  0  0  0  0  0  0  0
  183.1110  178.1070  139.8450 O   0  0  0  0  0  1  0  0  0  0  0  0
  185.8540  178.8920  140.3080 N   0  0  0  0  0  2  0  0  0  0  0  0
  185.3620  178.4980  139.0220 C   0  0  0  0  0  0  0  0  0  0  0  0
  183.5590  177.7010  137.4780 C   0  0  0  0  0  2  0  0  0  0  0  0
  181.4700  174.4260  137.1070 N   0  0  0  0  0  0  0  0  0  0  0  0
  181.9240  175.8630  137.0460 C   0  0  1  0  0  0  0  0  0  0  0  0
  181.6760  175.1640  138.3250 C   0  0  0  0  0  2  0  0  0  0  0  0
  182.5030  173.5440  137.0480 O   0  0  0  0  0  1  0  0  0  0  0  0
  183.3980  176.1930  137.3550 C   0  0  1  0  0  3  0  0  0  0  0  0
  183.0380  175.8490  135.9720 C   0  0  0  0  0  2  0  0  0  0  0  0
  190.7060  176.7590  145.4430 O   0  0  0  0  0  0  0  0  0  0  0  0
  191.9760  176.6930  147.6280 N   0  0  0  0  0  0  0  0  0  0  0  0
  191.3950  176.7230  146.6280 C   0  0  0  0  0  0  0  0  0  0  0  0
  1 26  1  0  0  0  0
  1  5  2  0  0  0  0
  2 10  1  0  0  0  0
  3  2  2  0  0  0  0
  3 13  1  0  0  0  0
  4  8  2  0  0  0  0
  7  6  1  0  0  0  0
  7 11  2  0  0  0  0
  8 13  2  0  0  0  0
  9  1  1  0  0  0  0
 10  9  2  0  0  0  0
 10  7  1  0  0  0  0
 11  5  1  0  0  0  0
 12  3  1  0  0  0  0
 13  6  1  0  0  0  0
 14 18  1  0  0  0  0
 14 16  1  0  0  0  0
 15 18  2  0  0  0  0
 17 12  1  0  0  0  0
 18 17  1  0  0  0  0
 19 14  1  0  0  0  0
 20 22  1  0  0  0  0
 21 25  1  6  0  0  0
 21 20  1  0  0  0  0
 21 24  1  0  0  0  0
 21 22  1  0  0  0  0
 23 20  1  0  0  0  0
 24 19  1  6  0  0  0
 25 24  1  0  0  0  0
 26 28  1  0  0  0  0
 28 27  3  0  0  0  0
M  END
>  <MODEL>
7

>  <REMARK>
 VINA RESULT:      -7.8      2.724      3.430
  Name = 
  5 active torsions:
  status: ('A' for Active; 'I' for Inactive)
    1  A    between atoms: N_1  and  C_14
    2  A    between atoms: C_2  and  O_19
    3  A    between atoms: C_14  and  C_23
    4  A    between atoms: C_15  and  O_19
    5  A    between atoms: N_24  and  N_25
                            x       y       z     vdW  Elec       q    Type
                         _______ _______ _______ _____ _____    ______ ____

>  <TORSDO>
F 5

$$$$
=
 OpenBabel11032420173D

 28 31  0  0  1  0  0  0  0  0999 V2000
  193.5080  175.3470  136.9320 C   0  0  0  0  0  0  0  0  0  0  0  0
  191.4210  176.8320  139.6410 N   0  0  0  0  0  0  0  0  0  0  0  0
  190.2510  177.3500  139.8670 C   0  0  0  0  0  0  0  0  0  0  0  0
  186.9720  178.4900  139.2050 O   0  0  0  0  0  0  0  0  0  0  0  0
  192.6480  175.4340  135.8820 N   0  0  0  0  0  0  0  0  0  0  0  0
  189.5860  177.0100  137.3790 C   0  0  0  0  0  2  0  0  0  0  0  0
  190.9650  176.4330  137.2520 C   0  0  0  0  0  0  0  0  0  0  0  0
  188.0870  177.9970  138.9930 C   0  0  0  0  0  0  0  0  0  0  0  0
  193.1060  175.8130  138.1940 C   0  0  0  0  0  3  0  0  0  0  0  0
  191.8320  176.3570  138.3540 C   0  0  0  0  0  0  0  0  0  0  0  0
  191.4000  175.9600  136.0140 C   0  0  0  0  0  3  0  0  0  0  0  0
  189.9180  177.8020  141.1830 N   0  0  0  0  0  2  0  0  0  0  0  0
  189.2630  177.4760  138.7700 C   0  0  0  0  0  0  0  0  0  0  0  0
  189.0460  177.2680  143.9590 N   0  0  0  0  0  0  0  0  0  0  0  0
  191.3190  177.3750  144.4800 O   0  0  0  0  0  0  0  0  0  0  0  0
  188.0700  177.3240  143.0190 O   0  0  0  0  0  1  0  0  0  0  0  0
  190.8290  177.6980  142.2430 N   0  0  0  0  0  2  0  0  0  0  0  0
  190.4270  177.4440  143.5930 C   0  0  0  0  0  0  0  0  0  0  0  0
  188.7030  177.0240  145.3600 C   0  0  0  0  0  2  0  0  0  0  0  0
  185.2680  178.3820  146.6210 N   0  0  0  0  0  0  0  0  0  0  0  0
  186.4180  177.4730  146.2640 C   0  0  1  0  0  0  0  0  0  0  0  0
  185.6670  178.2380  145.2460 C   0  0  0  0  0  2  0  0  0  0  0  0
  185.6740  179.6290  146.9790 O   0  0  0  0  0  1  0  0  0  0  0  0
  187.7850  178.0990  145.9240 C   0  0  1  0  0  3  0  0  0  0  0  0
  187.4890  177.8010  147.3330 C   0  0  0  0  0  2  0  0  0  0  0  0
  194.7760  174.7940  136.7250 O   0  0  0  0  0  0  0  0  0  0  0  0
  196.0980  173.6720  138.5650 N   0  0  0  0  0  0  0  0  0  0  0  0
  195.4930  174.1850  137.7230 C   0  0  0  0  0  0  0  0  0  0  0  0
  1  9  1  0  0  0  0
  2  3  2  0  0  0  0
  3 12  1  0  0  0  0
  5 11  1  0  0  0  0
  5  1  2  0  0  0  0
  6 13  1  0  0  0  0
  7  6  1  0  0  0  0
  7 10  1  0  0  0  0
  8  4  2  0  0  0  0
  9 10  2  0  0  0  0
 10  2  1  0  0  0  0
 11  7  2  0  0  0  0
 12 17  1  0  0  0  0
 13  8  2  0  0  0  0
 13  3  1  0  0  0  0
 14 19  1  0  0  0  0
 16 14  1  0  0  0  0
 17 18  1  0  0  0  0
 18 14  1  0  0  0  0
 18 15  2  0  0  0  0
 20 23  1  0  0  0  0
 21 22  1  6  0  0  0
 21 20  1  0  0  0  0
 21 25  1  0  0  0  0
 22 20  1  0  0  0  0
 24 19  1  6  0  0  0
 24 21  1  0  0  0  0
 24 25  1  0  0  0  0
 26  1  1  0  0  0  0
 26 28  1  0  0  0  0
 28 27  3  0  0  0  0
M  END
>  <MODEL>
8

>  <REMARK>
 VINA RESULT:      -7.8      3.676      8.679
  Name = 
  5 active torsions:
  status: ('A' for Active; 'I' for Inactive)
    1  A    between atoms: N_1  and  C_14
    2  A    between atoms: C_2  and  O_19
    3  A    between atoms: C_14  and  C_23
    4  A    between atoms: C_15  and  O_19
    5  A    between atoms: N_24  and  N_25
                            x       y       z     vdW  Elec       q    Type
                         _______ _______ _______ _____ _____    ______ ____

>  <TORSDO>
F 5

$$$$
=
 OpenBabel11032420173D

 28 31  0  0  1  0  0  0  0  0999 V2000
  190.5760  176.7970  146.0220 C   0  0  0  0  0  0  0  0  0  0  0  0
  187.6470  177.8110  143.9490 N   0  0  0  0  0  0  0  0  0  0  0  0
  187.2990  178.0730  142.7250 C   0  0  0  0  0  0  0  0  0  0  0  0
  187.6180  178.5020  139.2310 O   0  0  0  0  0  0  0  0  0  0  0  0
  191.5360  176.7020  145.0630 N   0  0  0  0  0  0  0  0  0  0  0  0
  189.7180  177.6030  141.9030 C   0  0  0  0  0  2  0  0  0  0  0  0
  189.9890  177.3270  143.3530 C   0  0  0  0  0  0  0  0  0  0  0  0
  187.9460  178.2530  140.3980 C   0  0  0  0  0  0  0  0  0  0  0  0
  189.2720  177.1670  145.6580 C   0  0  0  0  0  3  0  0  0  0  0  0
  188.9780  177.4330  144.3210 C   0  0  0  0  0  0  0  0  0  0  0  0
  191.2730  176.9560  143.7530 C   0  0  0  0  0  3  0  0  0  0  0  0
  185.9480  178.4440  142.4360 N   0  0  0  0  0  0  0  0  0  0  0  0
  188.2930  177.9900  141.6290 C   0  0  0  0  0  0  0  0  0  0  0  0
  183.0560  178.6280  141.8410 N   0  0  0  0  0  0  0  0  0  0  0  0
  182.7900  178.7090  144.1600 O   0  0  0  0  0  0  0  0  0  0  0  0
  183.8870  178.5240  140.7750 O   0  0  0  0  0  1  0  0  0  0  0  0
  184.9830  178.5320  143.4490 N   0  0  0  0  0  0  0  0  0  0  0  0
  183.5800  178.6260  143.1820 C   0  0  0  0  0  0  0  0  0  0  0  0
  181.6110  178.7390  141.6380 C   0  0  0  0  0  2  0  0  0  0  0  0
  180.2440  176.2270  138.9820 N   0  0  0  0  0  0  0  0  0  0  0  0
  180.5320  176.9420  140.2780 C   0  0  1  0  0  0  0  0  0  0  0  0
  181.5890  176.2680  139.4940 C   0  0  0  0  0  2  0  0  0  0  0  0
  180.2490  177.0610  137.9090 O   0  0  0  0  0  1  0  0  0  0  0  0
  181.1950  178.3340  140.2320 C   0  0  1  0  0  3  0  0  0  0  0  0
  179.7290  178.2600  140.1560 C   0  0  0  0  0  2  0  0  0  0  0  0
  190.9150  176.5210  147.3510 O   0  0  0  0  0  0  0  0  0  0  0  0
  193.1810  175.6280  148.0300 N   0  0  0  0  0  0  0  0  0  0  0  0
  192.1440  176.0370  147.7190 C   0  0  0  0  0  0  0  0  0  0  0  0
  1 26  1  0  0  0  0
  2 10  1  0  0  0  0
  3  2  2  0  0  0  0
  4  8  2  0  0  0  0
  5  1  2  0  0  0  0
  6  7  1  0  0  0  0
  7 11  2  0  0  0  0
  7 10  1  0  0  0  0
  8 13  2  0  0  0  0
  9  1  1  0  0  0  0
 10  9  2  0  0  0  0
 11  5  1  0  0  0  0
 12  3  1  0  0  0  0
 12 17  2  0  0  0  0
 13  6  1  0  0  0  0
 13  3  1  0  0  0  0
 14 18  1  0  0  0  0
 16 14  1  0  0  0  0
 18 17  1  0  0  0  0
 18 15  2  0  0  0  0
 19 14  1  0  0  0  0
 20 22  1  0  0  0  0
 20 21  1  0  0  0  0
 21 22  1  1  0  0  0
 23 20  1  0  0  0  0
 24 21  1  0  0  0  0
 24 19  1  1  0  0  0
 25 24  1  0  0  0  0
 25 21  1  0  0  0  0
 26 28  1  0  0  0  0
 28 27  3  0  0  0  0
M  END
>  <MODEL>
9

>  <REMARK>
 VINA RESULT:      -7.8      3.340      5.179
  Name = 
  5 active torsions:
  status: ('A' for Active; 'I' for Inactive)
    1  A    between atoms: N_1  and  C_14
    2  A    between atoms: C_2  and  O_19
    3  A    between atoms: C_14  and  C_23
    4  A    between atoms: C_15  and  O_19
    5  A    between atoms: N_24  and  N_25
                            x       y       z     vdW  Elec       q    Type
                         _______ _______ _______ _____ _____    ______ ____

>  <TORSDO>
F 5

$$$$
