=
 OpenBabel11042411443D

 40 43  0  0  1  0  0  0  0  0999 V2000
  191.1090  177.2010  142.4770 N   0  0  0  0  0  0  0  0  0  0  0  0
  190.3790  177.3230  141.4040 C   0  0  0  0  0  0  0  0  0  0  0  0
  191.3420  176.7060  144.7970 C   0  0  0  0  0  2  0  0  0  0  0  0
  188.9100  177.1640  141.4630 C   0  0  0  0  0  0  0  0  0  0  0  0
  189.0450  176.9120  143.9420 C   0  0  1  0  0  3  0  0  0  0  0  0
  188.2960  176.9510  142.6340 C   0  0  0  0  0  3  0  0  0  0  0  0
  190.5430  176.9370  143.7650 C   0  0  0  0  0  0  0  0  0  0  0  0
  188.5690  177.8660  144.8750 O   0  0  0  0  0  0  0  0  0  0  0  0
  186.3490  178.4590  147.3770 C   0  0  1  0  0  3  0  0  0  0  0  0
  187.7600  178.4900  147.9140 C   0  0  0  0  0  2  0  0  0  0  0  0
  185.8260  179.7500  147.3440 O   0  0  0  0  0  1  0  0  0  0  0  0
  188.4720  177.3580  147.2110 C   0  0  0  0  0  2  0  0  0  0  0  0
  187.7980  177.2160  145.8580 C   0  0  1  0  0  3  0  0  0  0  0  0
  186.4470  177.9050  145.9700 C   0  0  0  0  0  2  0  0  0  0  0  0
  190.9800  177.5910  140.1690 O   0  0  0  0  0  0  0  0  0  0  0  0
  192.2380  177.0460  139.7840 C   0  0  0  0  0  2  0  0  0  0  0  0
  191.1780  175.3280  138.4910 O   0  0  0  0  0  1  0  0  0  0  0  0
  192.1300  176.3500  138.4340 C   0  0  2  0  0  3  0  0  0  0  0  0
  193.9630  176.5590  136.8380 N   0  0  0  0  0  1  0  0  0  0  0  0
  193.4880  175.8120  137.9890 C   0  0  2  0  0  3  0  0  0  0  0  0
  193.4360  174.3310  137.6500 C   0  0  0  0  0  1  0  0  0  0  0  0
  188.1600  177.2160  140.2440 N   0  0  0  0  0  2  0  0  0  0  0  0
  186.8450  178.4790  138.6610 C   0  0  0  0  0  0  0  0  0  0  0  0
  185.7330  178.7040  139.3050 N   0  0  0  0  0  0  0  0  0  0  0  0
  186.3620  177.0650  136.7840 N   0  0  0  0  0  1  0  0  0  0  0  0
  188.5410  178.6120  136.6210 S   0  0  0  0  0  0  0  0  0  0  0  0
  186.8330  178.3790  137.1830 C   0  0  2  0  0  3  0  0  0  0  0  0
  189.2030  178.0760  138.2290 C   0  0  0  0  0  2  0  0  0  0  0  0
  188.1790  178.3440  139.3200 C   0  0  2  0  0  3  0  0  0  0  0  0
  186.4920  179.4790  141.3920 O   0  0  0  0  0  0  0  0  0  0  0  0
  185.5820  178.9290  140.7150 C   0  0  0  0  0  0  0  0  0  0  0  0
  184.3080  178.5390  141.3970 C   0  0  2  0  0  3  0  0  0  0  0  0
  183.7690  179.0470  143.7180 N   0  0  0  0  0  1  0  0  0  0  0  0
  184.5700  178.1980  142.8550 C   0  0  0  0  0  2  0  0  0  0  0  0
  183.7090  177.3910  140.7300 N   0  0  0  0  0  2  0  0  0  0  0  0
  181.1790  178.2740  140.6430 S   0  0  0  0  0  0  0  0  0  0  0  0
  182.4510  177.4270  140.0430 C   0  0  0  0  0  0  0  0  0  0  0  0
  183.4850  176.1710  138.3210 O   0  0  0  0  0  0  0  0  0  0  0  0
  182.2380  176.5400  138.8600 C   0  0  2  0  0  3  0  0  0  0  0  0
  182.7780  177.1720  137.6350 C   0  0  0  0  0  2  0  0  0  0  0  0
  1  7  1  0  0  0  0
  2  4  1  0  0  0  0
  2  1  2  0  0  0  0
  4  6  2  0  0  0  0
  5  8  1  1  0  0  0
  6  5  1  0  0  0  0
  7  5  1  0  0  0  0
  7  3  2  0  0  0  0
  9 11  1  6  0  0  0
  9 10  1  0  0  0  0
 12 10  1  0  0  0  0
 13  8  1  6  0  0  0
 13 14  1  0  0  0  0
 13 12  1  0  0  0  0
 14  9  1  0  0  0  0
 15  2  1  0  0  0  0
 16 15  1  0  0  0  0
 18 17  1  1  0  0  0
 18 16  1  0  0  0  0
 19 20  1  0  0  0  0
 20 21  1  6  0  0  0
 20 18  1  0  0  0  0
 22  4  1  0  0  0  0
 23 24  2  0  0  0  0
 23 29  1  0  0  0  0
 24 31  1  0  0  0  0
 26 27  1  0  0  0  0
 26 28  1  0  0  0  0
 27 25  1  1  0  0  0
 27 23  1  0  0  0  0
 28 29  1  0  0  0  0
 29 22  1  1  0  0  0
 31 30  2  0  0  0  0
 31 32  1  0  0  0  0
 32 34  1  1  0  0  0
 34 33  1  0  0  0  0
 35 32  1  0  0  0  0
 37 36  2  0  0  0  0
 37 35  1  0  0  0  0
 38 39  1  0  0  0  0
 39 37  1  1  0  0  0
 40 38  1  0  0  0  0
 40 39  1  0  0  0  0
M  END
>  <MODEL>
1

>  <REMARK>
 VINA RESULT:      -7.5      0.000      0.000
  Name = 
  14 active torsions:
  status: ('A' for Active; 'I' for Inactive)
    1  A    between atoms: N_4  and  C_22
    2  A    between atoms: C_6  and  O_31
    3  A    between atoms: C_14  and  C_34
    4  A    between atoms: C_16  and  C_35
    5  A    between atoms: O_17  and  C_32
    6  A    between atoms: O_17  and  C_33
    7  A    between atoms: C_18  and  N_36
    8  A    between atoms: C_22  and  C_27
    9  A    between atoms: C_23  and  C_27
   10  A    between atoms: C_26  and  O_31
   11  A    between atoms: C_26  and  C_35
   12  A    between atoms: C_27  and  N_39
   13  A    between atoms: C_29  and  N_36
   14  A    between atoms: C_34  and  N_39
                            x       y       z     vdW  Elec       q    Type
                         _______ _______ _______ _____ _____    ______ ____

>  <TORSDO>
F 14

$$$$
=
 OpenBabel11042411443D

 40 43  0  0  1  0  0  0  0  0999 V2000
  183.3780  178.8380  142.5340 N   0  0  0  0  0  0  0  0  0  0  0  0
  183.1360  178.5790  141.2800 C   0  0  0  0  0  0  0  0  0  0  0  0
  184.8920  179.3370  144.3070 C   0  0  0  0  0  2  0  0  0  0  0  0
  184.2410  178.4190  140.3100 C   0  0  0  0  0  0  0  0  0  0  0  0
  185.8920  178.6570  142.1660 C   0  0  1  0  0  3  0  0  0  0  0  0
  185.5150  178.4780  140.7170 C   0  0  0  0  0  3  0  0  0  0  0  0
  184.7080  178.9550  143.0510 C   0  0  0  0  0  0  0  0  0  0  0  0
  186.7130  177.6090  142.6520 O   0  0  0  0  0  0  0  0  0  0  0  0
  189.9240  176.5780  143.0550 C   0  0  1  0  0  3  0  0  0  0  0  0
  189.2400  176.6890  144.3970 C   0  0  0  0  0  2  0  0  0  0  0  0
  190.1090  175.2370  142.7270 O   0  0  0  0  0  1  0  0  0  0  0  0
  188.4060  177.9450  144.3090 C   0  0  0  0  0  2  0  0  0  0  0  0
  188.0210  178.0910  142.8470 C   0  0  1  0  0  3  0  0  0  0  0  0
  188.9940  177.2320  142.0540 C   0  0  0  0  0  2  0  0  0  0  0  0
  181.8170  178.4640  140.8250 O   0  0  0  0  0  0  0  0  0  0  0  0
  180.7910  177.8210  141.5750 C   0  0  0  0  0  2  0  0  0  0  0  0
  179.5450  179.5760  140.5200 O   0  0  0  0  0  1  0  0  0  0  0  0
  179.5220  178.6610  141.5760 C   0  0  2  0  0  3  0  0  0  0  0  0
  180.0580  180.6360  142.9050 N   0  0  0  0  0  1  0  0  0  0  0  0
  179.3400  179.3730  142.9140 C   0  0  2  0  0  3  0  0  0  0  0  0
  179.8120  178.5260  144.0850 C   0  0  0  0  0  1  0  0  0  0  0  0
  183.9230  178.2260  138.9270 N   0  0  0  0  0  2  0  0  0  0  0  0
  184.1740  177.0520  136.8320 C   0  0  0  0  0  0  0  0  0  0  0  0
  185.3230  177.4750  136.3850 N   0  0  0  0  0  0  0  0  0  0  0  0
  182.4540  177.8040  135.3360 N   0  0  0  0  0  1  0  0  0  0  0  0
  181.9320  175.6270  136.8060 S   0  0  0  0  0  0  0  0  0  0  0  0
  183.1220  176.6330  135.8770 C   0  0  2  0  0  3  0  0  0  0  0  0
  182.4080  176.4120  138.3770 C   0  0  0  0  0  2  0  0  0  0  0  0
  183.8380  176.9210  138.2820 C   0  0  2  0  0  3  0  0  0  0  0  0
  186.6770  179.0030  137.5520 O   0  0  0  0  0  0  0  0  0  0  0  0
  186.4790  177.8210  137.1640 C   0  0  0  0  0  0  0  0  0  0  0  0
  187.4550  176.7570  137.5590 C   0  0  2  0  0  3  0  0  0  0  0  0
  189.5850  177.6310  136.7610 N   0  0  0  0  0  1  0  0  0  0  0  0
  188.7870  177.3770  137.9480 C   0  0  0  0  0  2  0  0  0  0  0  0
  187.6580  175.8240  136.4580 N   0  0  0  0  0  2  0  0  0  0  0  0
  189.4370  173.8870  136.9780 S   0  0  0  0  0  0  0  0  0  0  0  0
  187.9260  174.4260  136.6280 C   0  0  0  0  0  0  0  0  0  0  0  0
  185.5980  174.0550  136.3990 O   0  0  0  0  0  0  0  0  0  0  0  0
  186.8580  173.4320  136.3100 C   0  0  2  0  0  3  0  0  0  0  0  0
  185.9690  173.2350  137.4780 C   0  0  0  0  0  2  0  0  0  0  0  0
  1  7  1  0  0  0  0
  2  1  2  0  0  0  0
  4  6  2  0  0  0  0
  4  2  1  0  0  0  0
  5  8  1  1  0  0  0
  5  7  1  0  0  0  0
  6  5  1  0  0  0  0
  7  3  2  0  0  0  0
  9 11  1  6  0  0  0
  9 10  1  0  0  0  0
 12 10  1  0  0  0  0
 13  8  1  1  0  0  0
 13 12  1  0  0  0  0
 14 13  1  0  0  0  0
 14  9  1  0  0  0  0
 15  2  1  0  0  0  0
 15 16  1  0  0  0  0
 16 18  1  0  0  0  0
 18 17  1  6  0  0  0
 18 20  1  0  0  0  0
 19 20  1  0  0  0  0
 20 21  1  1  0  0  0
 22  4  1  0  0  0  0
 23 29  1  0  0  0  0
 24 23  2  0  0  0  0
 24 31  1  0  0  0  0
 26 28  1  0  0  0  0
 27 25  1  1  0  0  0
 27 26  1  0  0  0  0
 27 23  1  0  0  0  0
 29 28  1  0  0  0  0
 29 22  1  1  0  0  0
 31 30  2  0  0  0  0
 31 32  1  0  0  0  0
 32 34  1  6  0  0  0
 33 34  1  0  0  0  0
 35 37  1  0  0  0  0
 35 32  1  0  0  0  0
 37 36  2  0  0  0  0
 38 40  1  0  0  0  0
 39 38  1  0  0  0  0
 39 37  1  1  0  0  0
 39 40  1  0  0  0  0
M  END
>  <MODEL>
2

>  <REMARK>
 VINA RESULT:      -7.0      3.013      7.668
  Name = 
  14 active torsions:
  status: ('A' for Active; 'I' for Inactive)
    1  A    between atoms: N_4  and  C_22
    2  A    between atoms: C_6  and  O_31
    3  A    between atoms: C_14  and  C_34
    4  A    between atoms: C_16  and  C_35
    5  A    between atoms: O_17  and  C_32
    6  A    between atoms: O_17  and  C_33
    7  A    between atoms: C_18  and  N_36
    8  A    between atoms: C_22  and  C_27
    9  A    between atoms: C_23  and  C_27
   10  A    between atoms: C_26  and  O_31
   11  A    between atoms: C_26  and  C_35
   12  A    between atoms: C_27  and  N_39
   13  A    between atoms: C_29  and  N_36
   14  A    between atoms: C_34  and  N_39
                            x       y       z     vdW  Elec       q    Type
                         _______ _______ _______ _____ _____    ______ ____

>  <TORSDO>
F 14

$$$$
=
 OpenBabel11042411443D

 40 43  0  0  1  0  0  0  0  0999 V2000
  190.5670  177.2170  141.3510 N   0  0  0  0  0  0  0  0  0  0  0  0
  189.5890  177.5900  142.1270 C   0  0  0  0  0  0  0  0  0  0  0  0
  191.5430  176.9870  139.1890 C   0  0  0  0  0  2  0  0  0  0  0  0
  188.3280  178.1170  141.5600 C   0  0  0  0  0  0  0  0  0  0  0  0
  189.1750  177.6450  139.2610 C   0  0  1  0  0  3  0  0  0  0  0  0
  188.1470  178.1640  140.2350 C   0  0  0  0  0  3  0  0  0  0  0  0
  190.4760  177.2660  139.9240 C   0  0  0  0  0  0  0  0  0  0  0  0
  188.6620  176.6400  138.4050 O   0  0  0  0  0  0  0  0  0  0  0  0
  186.6890  177.0140  135.6650 C   0  0  1  0  0  3  0  0  0  0  0  0
  187.3660  175.6650  135.6390 C   0  0  0  0  0  2  0  0  0  0  0  0
  185.3330  176.8590  135.9470 O   0  0  0  0  0  1  0  0  0  0  0  0
  188.7730  175.9230  136.1250 C   0  0  0  0  0  2  0  0  0  0  0  0
  188.6780  177.1030  137.0760 C   0  0  1  0  0  3  0  0  0  0  0  0
  187.3610  177.8000  136.7730 C   0  0  0  0  0  2  0  0  0  0  0  0
  189.7220  177.5140  143.5190 O   0  0  0  0  0  0  0  0  0  0  0  0
  190.8440  178.0430  144.2190 C   0  0  0  0  0  2  0  0  0  0  0  0
  191.7120  175.8090  144.1740 O   0  0  0  0  0  1  0  0  0  0  0  0
  191.5680  176.9410  144.9810 C   0  0  2  0  0  3  0  0  0  0  0  0
  189.9980  177.7180  146.6780 N   0  0  0  0  0  1  0  0  0  0  0  0
  190.8360  176.6030  146.2770 C   0  0  2  0  0  3  0  0  0  0  0  0
  191.7940  176.2520  147.4040 C   0  0  0  0  0  1  0  0  0  0  0  0
  187.3170  178.6000  142.4530 N   0  0  0  0  0  2  0  0  0  0  0  0
  185.1970  178.5140  143.6040 C   0  0  0  0  0  0  0  0  0  0  0  0
  184.3730  179.0690  142.7600 N   0  0  0  0  0  0  0  0  0  0  0  0
  185.3400  179.9070  145.5530 N   0  0  0  0  0  1  0  0  0  0  0  0
  185.9190  177.3110  145.8600 S   0  0  0  0  0  0  0  0  0  0  0  0
  184.9310  178.6040  145.0590 C   0  0  2  0  0  3  0  0  0  0  0  0
  187.0990  177.2760  144.4750 C   0  0  0  0  0  2  0  0  0  0  0  0
  186.4090  177.7390  143.2030 C   0  0  2  0  0  3  0  0  0  0  0  0
  185.2730  179.6470  140.6660 O   0  0  0  0  0  0  0  0  0  0  0  0
  184.4230  178.9930  141.3270 C   0  0  0  0  0  0  0  0  0  0  0  0
  183.4740  178.0940  140.5970 C   0  0  2  0  0  3  0  0  0  0  0  0
  183.2020  178.4580  138.2030 N   0  0  0  0  0  1  0  0  0  0  0  0
  184.0040  177.7800  139.2080 C   0  0  0  0  0  2  0  0  0  0  0  0
  182.1650  178.7250  140.4860 N   0  0  0  0  0  2  0  0  0  0  0  0
  180.3160  176.8000  140.2360 S   0  0  0  0  0  0  0  0  0  0  0  0
  180.9460  178.1330  140.9560 C   0  0  0  0  0  0  0  0  0  0  0  0
  180.9110  179.8880  142.5470 O   0  0  0  0  0  0  0  0  0  0  0  0
  180.1450  178.8400  142.0000 C   0  0  2  0  0  3  0  0  0  0  0  0
  180.7990  178.7220  143.3230 C   0  0  0  0  0  2  0  0  0  0  0  0
  1  2  2  0  0  0  0
  2 15  1  0  0  0  0
  3  7  2  0  0  0  0
  4  2  1  0  0  0  0
  4 22  1  0  0  0  0
  5  8  1  1  0  0  0
  5  7  1  0  0  0  0
  5  6  1  0  0  0  0
  6  4  2  0  0  0  0
  7  1  1  0  0  0  0
  9 11  1  1  0  0  0
  9 14  1  0  0  0  0
 10  9  1  0  0  0  0
 10 12  1  0  0  0  0
 12 13  1  0  0  0  0
 13  8  1  1  0  0  0
 14 13  1  0  0  0  0
 15 16  1  0  0  0  0
 16 18  1  0  0  0  0
 18 17  1  6  0  0  0
 18 20  1  0  0  0  0
 20 19  1  0  0  0  0
 20 21  1  1  0  0  0
 23 27  1  0  0  0  0
 24 23  2  0  0  0  0
 27 25  1  1  0  0  0
 27 26  1  0  0  0  0
 28 26  1  0  0  0  0
 29 22  1  1  0  0  0
 29 23  1  0  0  0  0
 29 28  1  0  0  0  0
 30 31  2  0  0  0  0
 31 24  1  0  0  0  0
 32 34  1  6  0  0  0
 32 31  1  0  0  0  0
 33 34  1  0  0  0  0
 35 32  1  0  0  0  0
 35 37  1  0  0  0  0
 36 37  2  0  0  0  0
 38 40  1  0  0  0  0
 39 37  1  6  0  0  0
 39 38  1  0  0  0  0
 39 40  1  0  0  0  0
M  END
>  <MODEL>
3

>  <REMARK>
 VINA RESULT:      -7.0      2.780      6.646
  Name = 
  14 active torsions:
  status: ('A' for Active; 'I' for Inactive)
    1  A    between atoms: N_4  and  C_22
    2  A    between atoms: C_6  and  O_31
    3  A    between atoms: C_14  and  C_34
    4  A    between atoms: C_16  and  C_35
    5  A    between atoms: O_17  and  C_32
    6  A    between atoms: O_17  and  C_33
    7  A    between atoms: C_18  and  N_36
    8  A    between atoms: C_22  and  C_27
    9  A    between atoms: C_23  and  C_27
   10  A    between atoms: C_26  and  O_31
   11  A    between atoms: C_26  and  C_35
   12  A    between atoms: C_27  and  N_39
   13  A    between atoms: C_29  and  N_36
   14  A    between atoms: C_34  and  N_39
                            x       y       z     vdW  Elec       q    Type
                         _______ _______ _______ _____ _____    ______ ____

>  <TORSDO>
F 14

$$$$
=
 OpenBabel11042411443D

 40 43  0  0  1  0  0  0  0  0999 V2000
  185.8710  178.2640  139.0790 N   0  0  0  0  0  0  0  0  0  0  0  0
  187.1550  178.0400  139.0810 C   0  0  0  0  0  0  0  0  0  0  0  0
  183.9130  179.1940  140.0710 C   0  0  0  0  0  2  0  0  0  0  0  0
  187.9940  178.4490  140.2280 C   0  0  0  0  0  0  0  0  0  0  0  0
  185.9490  179.1940  141.4490 C   0  0  1  0  0  3  0  0  0  0  0  0
  187.4400  179.0040  141.3130 C   0  0  0  0  0  3  0  0  0  0  0  0
  185.1980  178.8850  140.1790 C   0  0  0  0  0  0  0  0  0  0  0  0
  185.4170  178.5520  142.5940 O   0  0  0  0  0  0  0  0  0  0  0  0
  184.5580  178.9570  145.8550 C   0  0  1  0  0  3  0  0  0  0  0  0
  183.3380  178.6170  145.0330 C   0  0  0  0  0  2  0  0  0  0  0  0
  184.9140  177.8700  146.6500 O   0  0  0  0  0  1  0  0  0  0  0  0
  183.5000  179.3970  143.7500 C   0  0  0  0  0  2  0  0  0  0  0  0
  184.9960  179.5230  143.5230 C   0  0  1  0  0  3  0  0  0  0  0  0
  185.6630  179.2560  144.8630 C   0  0  0  0  0  2  0  0  0  0  0  0
  187.7660  177.4210  137.9850 O   0  0  0  0  0  0  0  0  0  0  0  0
  187.0400  176.6770  137.0110 C   0  0  0  0  0  2  0  0  0  0  0  0
  186.6770  177.4900  134.7850 O   0  0  0  0  0  1  0  0  0  0  0  0
  187.6250  176.8960  135.6230 C   0  0  2  0  0  3  0  0  0  0  0  0
  187.5510  174.4610  135.7440 N   0  0  0  0  0  1  0  0  0  0  0  0
  188.1350  175.5840  135.0330 C   0  0  2  0  0  3  0  0  0  0  0  0
  189.6520  175.4840  135.0770 C   0  0  0  0  0  1  0  0  0  0  0  0
  189.4130  178.2650  140.1460 N   0  0  0  0  0  2  0  0  0  0  0  0
  191.4360  177.0950  140.7510 C   0  0  0  0  0  0  0  0  0  0  0  0
  191.6690  177.5040  141.9670 N   0  0  0  0  0  0  0  0  0  0  0  0
  193.2100  177.8760  139.3350 N   0  0  0  0  0  1  0  0  0  0  0  0
  191.8700  175.7010  138.5320 S   0  0  0  0  0  0  0  0  0  0  0  0
  192.5660  176.6930  139.8810 C   0  0  2  0  0  3  0  0  0  0  0  0
  190.2350  176.4740  138.7310 C   0  0  0  0  0  2  0  0  0  0  0  0
  190.0700  176.9630  140.1600 C   0  0  2  0  0  3  0  0  0  0  0  0
  190.2390  179.0010  143.0820 O   0  0  0  0  0  0  0  0  0  0  0  0
  190.6940  177.8310  142.9700 C   0  0  0  0  0  0  0  0  0  0  0  0
  190.1770  176.7630  143.8810 C   0  0  2  0  0  3  0  0  0  0  0  0
  187.7670  176.4230  143.7760 N   0  0  0  0  0  1  0  0  0  0  0  0
  189.0400  176.0040  143.2160 C   0  0  0  0  0  2  0  0  0  0  0  0
  189.7060  177.3470  145.1290 N   0  0  0  0  0  2  0  0  0  0  0  0
  191.6800  176.3830  146.6650 S   0  0  0  0  0  0  0  0  0  0  0  0
  190.1540  176.9380  146.4280 C   0  0  0  0  0  0  0  0  0  0  0  0
  188.1010  177.7330  147.3030 O   0  0  0  0  0  0  0  0  0  0  0  0
  189.1680  176.8460  147.5470 C   0  0  2  0  0  3  0  0  0  0  0  0
  189.0560  178.1460  148.2470 C   0  0  0  0  0  2  0  0  0  0  0  0
  1  2  2  0  0  0  0
  1  7  1  0  0  0  0
  2  4  1  0  0  0  0
  3  7  2  0  0  0  0
  4  6  2  0  0  0  0
  5  8  1  1  0  0  0
  6  5  1  0  0  0  0
  7  5  1  0  0  0  0
  9 11  1  1  0  0  0
 10  9  1  0  0  0  0
 12 10  1  0  0  0  0
 13  8  1  6  0  0  0
 13 12  1  0  0  0  0
 13 14  1  0  0  0  0
 14  9  1  0  0  0  0
 15  2  1  0  0  0  0
 16 15  1  0  0  0  0
 18 17  1  6  0  0  0
 18 16  1  0  0  0  0
 20 21  1  1  0  0  0
 20 18  1  0  0  0  0
 20 19  1  0  0  0  0
 22  4  1  0  0  0  0
 23 24  2  0  0  0  0
 24 31  1  0  0  0  0
 26 28  1  0  0  0  0
 26 27  1  0  0  0  0
 27 25  1  6  0  0  0
 27 23  1  0  0  0  0
 28 29  1  0  0  0  0
 29 22  1  6  0  0  0
 29 23  1  0  0  0  0
 31 30  2  0  0  0  0
 31 32  1  0  0  0  0
 32 34  1  6  0  0  0
 32 35  1  0  0  0  0
 34 33  1  0  0  0  0
 35 37  1  0  0  0  0
 37 36  2  0  0  0  0
 38 39  1  0  0  0  0
 38 40  1  0  0  0  0
 39 37  1  6  0  0  0
 39 40  1  0  0  0  0
M  END
>  <MODEL>
4

>  <REMARK>
 VINA RESULT:      -6.9      2.950      6.304
  Name = 
  14 active torsions:
  status: ('A' for Active; 'I' for Inactive)
    1  A    between atoms: N_4  and  C_22
    2  A    between atoms: C_6  and  O_31
    3  A    between atoms: C_14  and  C_34
    4  A    between atoms: C_16  and  C_35
    5  A    between atoms: O_17  and  C_32
    6  A    between atoms: O_17  and  C_33
    7  A    between atoms: C_18  and  N_36
    8  A    between atoms: C_22  and  C_27
    9  A    between atoms: C_23  and  C_27
   10  A    between atoms: C_26  and  O_31
   11  A    between atoms: C_26  and  C_35
   12  A    between atoms: C_27  and  N_39
   13  A    between atoms: C_29  and  N_36
   14  A    between atoms: C_34  and  N_39
                            x       y       z     vdW  Elec       q    Type
                         _______ _______ _______ _____ _____    ______ ____

>  <TORSDO>
F 14

$$$$
=
 OpenBabel11042411443D

 40 43  0  0  1  0  0  0  0  0999 V2000
  186.5140  178.6380  140.5790 N   0  0  0  0  0  0  0  0  0  0  0  0
  185.3440  178.8660  140.0520 C   0  0  0  0  0  0  0  0  0  0  0  0
  187.8800  177.8610  142.3710 C   0  0  0  0  0  2  0  0  0  0  0  0
  184.1050  178.6410  140.8280 C   0  0  0  0  0  0  0  0  0  0  0  0
  185.4760  178.0800  142.8370 C   0  0  1  0  0  3  0  0  0  0  0  0
  184.1660  178.2540  142.1090 C   0  0  0  0  0  3  0  0  0  0  0  0
  186.6740  178.1890  141.9280 C   0  0  0  0  0  0  0  0  0  0  0  0
  185.5690  178.8870  143.9980 O   0  0  0  0  0  0  0  0  0  0  0  0
  185.7920  178.9000  147.3870 C   0  0  1  0  0  3  0  0  0  0  0  0
  187.0490  178.3200  146.7850 C   0  0  0  0  0  2  0  0  0  0  0  0
  186.0550  180.1640  147.9100 O   0  0  0  0  0  1  0  0  0  0  0  0
  186.5730  177.4620  145.6360 C   0  0  0  0  0  2  0  0  0  0  0  0
  185.2930  178.1050  145.1360 C   0  0  1  0  0  3  0  0  0  0  0  0
  184.7930  179.0060  146.2530 C   0  0  0  0  0  2  0  0  0  0  0  0
  185.2390  179.3140  138.7300 O   0  0  0  0  0  0  0  0  0  0  0  0
  185.3760  178.4500  137.6060 C   0  0  0  0  0  2  0  0  0  0  0  0
  187.3870  179.3090  136.6230 O   0  0  0  0  0  1  0  0  0  0  0  0
  186.8460  178.2080  137.2930 C   0  0  2  0  0  3  0  0  0  0  0  0
  187.9830  177.1520  135.4110 N   0  0  0  0  0  1  0  0  0  0  0  0
  187.0270  176.9280  136.4800 C   0  0  2  0  0  3  0  0  0  0  0  0
  185.7150  176.4290  135.8950 C   0  0  0  0  0  1  0  0  0  0  0  0
  182.8410  178.8160  140.1780 N   0  0  0  0  0  2  0  0  0  0  0  0
  180.7900  177.9580  139.2360 C   0  0  0  0  0  0  0  0  0  0  0  0
  180.1120  179.0360  138.9570 N   0  0  0  0  0  0  0  0  0  0  0  0
  179.6220  176.7480  140.9490 N   0  0  0  0  0  1  0  0  0  0  0  0
  181.2580  175.3460  139.3590 S   0  0  0  0  0  0  0  0  0  0  0  0
  180.0750  176.7040  139.5690 C   0  0  2  0  0  3  0  0  0  0  0  0
  182.6720  176.4640  139.6070 C   0  0  0  0  0  2  0  0  0  0  0  0
  182.2820  177.8780  139.2110 C   0  0  2  0  0  3  0  0  0  0  0  0
  181.6190  180.3600  137.7290 O   0  0  0  0  0  0  0  0  0  0  0  0
  180.6380  180.2980  138.5180 C   0  0  0  0  0  0  0  0  0  0  0  0
  179.9940  181.5700  138.9720 C   0  0  2  0  0  3  0  0  0  0  0  0
  179.6820  181.2540  141.3680 N   0  0  0  0  0  1  0  0  0  0  0  0
  178.9990  181.2930  140.0860 C   0  0  0  0  0  2  0  0  0  0  0  0
  179.3090  182.2150  137.8600 N   0  0  0  0  0  2  0  0  0  0  0  0
  180.2680  182.6430  135.3930 S   0  0  0  0  0  0  0  0  0  0  0  0
  179.9450  183.1070  136.9330 C   0  0  0  0  0  0  0  0  0  0  0  0
  181.3710  184.9410  136.4700 O   0  0  0  0  0  0  0  0  0  0  0  0
  180.4800  184.4120  137.4240 C   0  0  2  0  0  3  0  0  0  0  0  0
  181.9480  184.3360  137.5990 C   0  0  0  0  0  2  0  0  0  0  0  0
  1  7  1  0  0  0  0
  2  1  2  0  0  0  0
  2  4  1  0  0  0  0
  4  6  2  0  0  0  0
  5  8  1  1  0  0  0
  6  5  1  0  0  0  0
  7  3  2  0  0  0  0
  7  5  1  0  0  0  0
  9 11  1  6  0  0  0
 10  9  1  0  0  0  0
 12 10  1  0  0  0  0
 13  8  1  6  0  0  0
 13 12  1  0  0  0  0
 13 14  1  0  0  0  0
 14  9  1  0  0  0  0
 15  2  1  0  0  0  0
 16 15  1  0  0  0  0
 18 17  1  6  0  0  0
 18 16  1  0  0  0  0
 19 20  1  0  0  0  0
 20 21  1  6  0  0  0
 20 18  1  0  0  0  0
 22  4  1  0  0  0  0
 23 27  1  0  0  0  0
 24 23  2  0  0  0  0
 26 27  1  0  0  0  0
 26 28  1  0  0  0  0
 27 25  1  1  0  0  0
 29 23  1  0  0  0  0
 29 28  1  0  0  0  0
 29 22  1  1  0  0  0
 30 31  2  0  0  0  0
 31 24  1  0  0  0  0
 31 32  1  0  0  0  0
 32 34  1  1  0  0  0
 34 33  1  0  0  0  0
 35 32  1  0  0  0  0
 36 37  2  0  0  0  0
 37 35  1  0  0  0  0
 38 39  1  0  0  0  0
 38 40  1  0  0  0  0
 39 37  1  6  0  0  0
 39 40  1  0  0  0  0
M  END
>  <MODEL>
5

>  <REMARK>
 VINA RESULT:      -6.6      3.805      5.904
  Name = 
  14 active torsions:
  status: ('A' for Active; 'I' for Inactive)
    1  A    between atoms: N_4  and  C_22
    2  A    between atoms: C_6  and  O_31
    3  A    between atoms: C_14  and  C_34
    4  A    between atoms: C_16  and  C_35
    5  A    between atoms: O_17  and  C_32
    6  A    between atoms: O_17  and  C_33
    7  A    between atoms: C_18  and  N_36
    8  A    between atoms: C_22  and  C_27
    9  A    between atoms: C_23  and  C_27
   10  A    between atoms: C_26  and  O_31
   11  A    between atoms: C_26  and  C_35
   12  A    between atoms: C_27  and  N_39
   13  A    between atoms: C_29  and  N_36
   14  A    between atoms: C_34  and  N_39
                            x       y       z     vdW  Elec       q    Type
                         _______ _______ _______ _____ _____    ______ ____

>  <TORSDO>
F 14

$$$$
=
 OpenBabel11042411443D

 40 43  0  0  1  0  0  0  0  0999 V2000
  182.1330  178.9940  141.1700 N   0  0  0  0  0  0  0  0  0  0  0  0
  183.2390  178.5910  140.6100 C   0  0  0  0  0  0  0  0  0  0  0  0
  179.9400  179.9150  141.0320 C   0  0  0  0  0  2  0  0  0  0  0  0
  183.4580  178.7560  139.1570 C   0  0  0  0  0  0  0  0  0  0  0  0
  181.2910  179.9810  138.9780 C   0  0  1  0  0  3  0  0  0  0  0  0
  182.5460  179.3780  138.3990 C   0  0  0  0  0  3  0  0  0  0  0  0
  181.0890  179.6350  140.4320 C   0  0  0  0  0  0  0  0  0  0  0  0
  181.1690  181.3650  138.7020 O   0  0  0  0  0  0  0  0  0  0  0  0
  180.0750  183.4330  136.2390 C   0  0  1  0  0  3  0  0  0  0  0  0
  179.6070  183.9310  137.5850 C   0  0  0  0  0  2  0  0  0  0  0  0
  181.0760  184.2670  135.7460 O   0  0  0  0  0  1  0  0  0  0  0  0
  179.2090  182.6890  138.3470 C   0  0  0  0  0  2  0  0  0  0  0  0
  180.0920  181.5740  137.8190 C   0  0  1  0  0  3  0  0  0  0  0  0
  180.6300  182.0430  136.4770 C   0  0  0  0  0  2  0  0  0  0  0  0
  184.2360  177.9770  141.3770 O   0  0  0  0  0  0  0  0  0  0  0  0
  185.0180  178.6800  142.3380 C   0  0  0  0  0  2  0  0  0  0  0  0
  183.5250  179.0070  144.1850 O   0  0  0  0  0  1  0  0  0  0  0  0
  184.6280  178.2670  143.7500 C   0  0  2  0  0  3  0  0  0  0  0  0
  186.5020  177.1570  144.8490 N   0  0  0  0  0  1  0  0  0  0  0  0
  185.8070  178.4230  144.7080 C   0  0  2  0  0  3  0  0  0  0  0  0
  185.3720  178.9230  146.0770 C   0  0  0  0  0  1  0  0  0  0  0  0
  184.6490  178.2160  138.5710 N   0  0  0  0  0  2  0  0  0  0  0  0
  184.9730  177.0280  136.4950 C   0  0  0  0  0  0  0  0  0  0  0  0
  186.0200  177.6060  135.9760 N   0  0  0  0  0  0  0  0  0  0  0  0
  183.0860  177.4610  135.0760 N   0  0  0  0  0  1  0  0  0  0  0  0
  182.9780  175.2780  136.6230 S   0  0  0  0  0  0  0  0  0  0  0  0
  183.9510  176.4230  135.6080 C   0  0  2  0  0  3  0  0  0  0  0  0
  183.4050  176.1760  138.1470 C   0  0  0  0  0  2  0  0  0  0  0  0
  184.7330  176.8930  137.9630 C   0  0  2  0  0  3  0  0  0  0  0  0
  187.1740  179.3560  137.0430 O   0  0  0  0  0  0  0  0  0  0  0  0
  187.1460  178.1480  136.6840 C   0  0  0  0  0  0  0  0  0  0  0  0
  188.2980  177.2620  137.0380 C   0  0  2  0  0  3  0  0  0  0  0  0
  187.9550  174.8540  136.9020 N   0  0  0  0  0  1  0  0  0  0  0  0
  188.3190  176.0350  136.1400 C   0  0  0  0  0  2  0  0  0  0  0  0
  188.2040  176.8420  138.4300 N   0  0  0  0  0  2  0  0  0  0  0  0
  190.6330  177.0660  139.5430 S   0  0  0  0  0  0  0  0  0  0  0  0
  189.0210  177.3690  139.4850 C   0  0  0  0  0  0  0  0  0  0  0  0
  189.3340  178.3180  141.6330 O   0  0  0  0  0  0  0  0  0  0  0  0
  188.3690  178.0540  140.6410 C   0  0  2  0  0  3  0  0  0  0  0  0
  188.4810  177.2250  141.8640 C   0  0  0  0  0  2  0  0  0  0  0  0
  2  1  2  0  0  0  0
  2 15  1  0  0  0  0
  4  2  1  0  0  0  0
  5  8  1  1  0  0  0
  5  7  1  0  0  0  0
  6  5  1  0  0  0  0
  6  4  2  0  0  0  0
  7  3  2  0  0  0  0
  7  1  1  0  0  0  0
  9 11  1  1  0  0  0
  9 14  1  0  0  0  0
  9 10  1  0  0  0  0
 10 12  1  0  0  0  0
 13 12  1  0  0  0  0
 13  8  1  1  0  0  0
 14 13  1  0  0  0  0
 15 16  1  0  0  0  0
 16 18  1  0  0  0  0
 18 17  1  1  0  0  0
 18 20  1  0  0  0  0
 20 19  1  0  0  0  0
 20 21  1  1  0  0  0
 22  4  1  0  0  0  0
 23 29  1  0  0  0  0
 24 23  2  0  0  0  0
 24 31  1  0  0  0  0
 26 28  1  0  0  0  0
 27 25  1  1  0  0  0
 27 23  1  0  0  0  0
 27 26  1  0  0  0  0
 29 28  1  0  0  0  0
 29 22  1  1  0  0  0
 31 32  1  0  0  0  0
 31 30  2  0  0  0  0
 32 34  1  6  0  0  0
 32 35  1  0  0  0  0
 34 33  1  0  0  0  0
 35 37  1  0  0  0  0
 37 36  2  0  0  0  0
 38 40  1  0  0  0  0
 39 37  1  6  0  0  0
 39 38  1  0  0  0  0
 39 40  1  0  0  0  0
M  END
>  <MODEL>
6

>  <REMARK>
 VINA RESULT:      -6.6      3.635      8.827
  Name = 
  14 active torsions:
  status: ('A' for Active; 'I' for Inactive)
    1  A    between atoms: N_4  and  C_22
    2  A    between atoms: C_6  and  O_31
    3  A    between atoms: C_14  and  C_34
    4  A    between atoms: C_16  and  C_35
    5  A    between atoms: O_17  and  C_32
    6  A    between atoms: O_17  and  C_33
    7  A    between atoms: C_18  and  N_36
    8  A    between atoms: C_22  and  C_27
    9  A    between atoms: C_23  and  C_27
   10  A    between atoms: C_26  and  O_31
   11  A    between atoms: C_26  and  C_35
   12  A    between atoms: C_27  and  N_39
   13  A    between atoms: C_29  and  N_36
   14  A    between atoms: C_34  and  N_39
                            x       y       z     vdW  Elec       q    Type
                         _______ _______ _______ _____ _____    ______ ____

>  <TORSDO>
F 14

$$$$
=
 OpenBabel11042411443D

 40 43  0  0  1  0  0  0  0  0999 V2000
  188.6570  177.7740  141.2610 N   0  0  0  0  0  0  0  0  0  0  0  0
  187.6690  178.2110  140.5330 C   0  0  0  0  0  0  0  0  0  0  0  0
  189.5000  176.8000  143.2670 C   0  0  0  0  0  2  0  0  0  0  0  0
  186.2920  178.2590  141.0720 C   0  0  0  0  0  0  0  0  0  0  0  0
  187.1440  177.5040  143.2930 C   0  0  1  0  0  3  0  0  0  0  0  0
  186.0460  177.9100  142.3400 C   0  0  0  0  0  3  0  0  0  0  0  0
  188.4820  177.3450  142.6150 C   0  0  0  0  0  0  0  0  0  0  0  0
  187.1890  178.3130  144.4540 O   0  0  0  0  0  0  0  0  0  0  0  0
  186.0630  178.7820  147.6250 C   0  0  1  0  0  3  0  0  0  0  0  0
  187.4760  178.2500  147.6470 C   0  0  0  0  0  2  0  0  0  0  0  0
  186.0540  180.1220  148.0060 O   0  0  0  0  0  1  0  0  0  0  0  0
  187.5210  177.2100  146.5510 C   0  0  0  0  0  2  0  0  0  0  0  0
  186.5170  177.6610  145.5060 C   0  0  1  0  0  3  0  0  0  0  0  0
  185.5860  178.6480  146.1930 C   0  0  0  0  0  2  0  0  0  0  0  0
  187.8930  178.6280  139.2160 O   0  0  0  0  0  0  0  0  0  0  0  0
  189.1790  178.6090  138.6050 C   0  0  0  0  0  2  0  0  0  0  0  0
  187.9010  179.4790  136.7730 O   0  0  0  0  0  1  0  0  0  0  0  0
  189.0570  178.7640  137.0950 C   0  0  2  0  0  3  0  0  0  0  0  0
  189.9870  176.5080  137.0920 N   0  0  0  0  0  1  0  0  0  0  0  0
  189.0710  177.4020  136.4050 C   0  0  2  0  0  3  0  0  0  0  0  0
  189.4590  177.5040  134.9390 C   0  0  0  0  0  1  0  0  0  0  0  0
  185.2250  178.6600  140.2050 N   0  0  0  0  0  2  0  0  0  0  0  0
  183.1100  178.4630  139.0570 C   0  0  0  0  0  0  0  0  0  0  0  0
  183.4420  177.9800  137.8920 N   0  0  0  0  0  0  0  0  0  0  0  0
  182.2160  180.6670  138.7380 N   0  0  0  0  0  1  0  0  0  0  0  0
  181.4550  179.3450  140.9380 S   0  0  0  0  0  0  0  0  0  0  0  0
  181.9070  179.3200  139.1830 C   0  0  2  0  0  3  0  0  0  0  0  0
  183.1550  178.9370  141.4410 C   0  0  0  0  0  2  0  0  0  0  0  0
  183.8520  178.1800  140.3220 C   0  0  2  0  0  3  0  0  0  0  0  0
  185.6830  177.4620  137.4020 O   0  0  0  0  0  0  0  0  0  0  0  0
  184.5080  177.0590  137.6110 C   0  0  0  0  0  0  0  0  0  0  0  0
  184.2340  175.5880  137.6000 C   0  0  2  0  0  3  0  0  0  0  0  0
  185.6580  173.6110  137.5880 N   0  0  0  0  0  1  0  0  0  0  0  0
  185.3530  174.8460  136.8870 C   0  0  0  0  0  2  0  0  0  0  0  0
  182.9680  175.3150  136.9310 N   0  0  0  0  0  2  0  0  0  0  0  0
  182.0260  172.8220  136.6380 S   0  0  0  0  0  0  0  0  0  0  0  0
  182.0420  174.3020  137.3470 C   0  0  0  0  0  0  0  0  0  0  0  0
  179.7430  174.8010  137.6240 O   0  0  0  0  0  0  0  0  0  0  0  0
  180.9610  174.6540  138.3160 C   0  0  2  0  0  3  0  0  0  0  0  0
  180.3960  175.9860  138.0010 C   0  0  0  0  0  2  0  0  0  0  0  0
  1  7  1  0  0  0  0
  2  4  1  0  0  0  0
  2  1  2  0  0  0  0
  4  6  2  0  0  0  0
  5  8  1  1  0  0  0
  6  5  1  0  0  0  0
  7  3  2  0  0  0  0
  7  5  1  0  0  0  0
  9 10  1  0  0  0  0
  9 11  1  6  0  0  0
 12 10  1  0  0  0  0
 13  8  1  6  0  0  0
 13 14  1  0  0  0  0
 13 12  1  0  0  0  0
 14  9  1  0  0  0  0
 15  2  1  0  0  0  0
 16 15  1  0  0  0  0
 18 17  1  1  0  0  0
 18 16  1  0  0  0  0
 20 21  1  6  0  0  0
 20 19  1  0  0  0  0
 20 18  1  0  0  0  0
 22  4  1  0  0  0  0
 23 27  1  0  0  0  0
 23 29  1  0  0  0  0
 24 23  2  0  0  0  0
 26 28  1  0  0  0  0
 27 25  1  1  0  0  0
 27 26  1  0  0  0  0
 29 22  1  6  0  0  0
 29 28  1  0  0  0  0
 30 31  2  0  0  0  0
 31 24  1  0  0  0  0
 32 34  1  6  0  0  0
 32 31  1  0  0  0  0
 34 33  1  0  0  0  0
 35 37  1  0  0  0  0
 35 32  1  0  0  0  0
 36 37  2  0  0  0  0
 38 40  1  0  0  0  0
 38 39  1  0  0  0  0
 39 37  1  6  0  0  0
 40 39  1  0  0  0  0
M  END
>  <MODEL>
7

>  <REMARK>
 VINA RESULT:      -6.5      2.750      4.248
  Name = 
  14 active torsions:
  status: ('A' for Active; 'I' for Inactive)
    1  A    between atoms: N_4  and  C_22
    2  A    between atoms: C_6  and  O_31
    3  A    between atoms: C_14  and  C_34
    4  A    between atoms: C_16  and  C_35
    5  A    between atoms: O_17  and  C_32
    6  A    between atoms: O_17  and  C_33
    7  A    between atoms: C_18  and  N_36
    8  A    between atoms: C_22  and  C_27
    9  A    between atoms: C_23  and  C_27
   10  A    between atoms: C_26  and  O_31
   11  A    between atoms: C_26  and  C_35
   12  A    between atoms: C_27  and  N_39
   13  A    between atoms: C_29  and  N_36
   14  A    between atoms: C_34  and  N_39
                            x       y       z     vdW  Elec       q    Type
                         _______ _______ _______ _____ _____    ______ ____

>  <TORSDO>
F 14

$$$$
=
 OpenBabel11042411443D

 40 43  0  0  1  0  0  0  0  0999 V2000
  186.8990  178.3850  140.5840 N   0  0  0  0  0  0  0  0  0  0  0  0
  185.7470  178.6290  140.0250 C   0  0  0  0  0  0  0  0  0  0  0  0
  188.2040  177.6130  142.4220 C   0  0  0  0  0  2  0  0  0  0  0  0
  184.4850  178.4490  140.7760 C   0  0  0  0  0  0  0  0  0  0  0  0
  185.7950  177.8970  142.8280 C   0  0  1  0  0  3  0  0  0  0  0  0
  184.5080  178.0880  142.0650 C   0  0  0  0  0  2  0  0  0  0  0  0
  187.0170  177.9600  141.9450 C   0  0  0  0  0  0  0  0  0  0  0  0
  185.8820  178.7250  143.9740 O   0  0  0  0  0  0  0  0  0  0  0  0
  185.8830  178.8680  147.3680 C   0  0  1  0  0  3  0  0  0  0  0  0
  187.2010  178.3260  146.8680 C   0  0  0  0  0  2  0  0  0  0  0  0
  186.0560  180.1610  147.8570 O   0  0  0  0  0  1  0  0  0  0  0  0
  186.8390  177.4070  145.7260 C   0  0  0  0  0  2  0  0  0  0  0  0
  185.5670  177.9720  145.1210 C   0  0  1  0  0  3  0  0  0  0  0  0
  184.9560  178.8880  146.1690 C   0  0  0  0  0  2  0  0  0  0  0  0
  185.6830  179.0530  138.6930 O   0  0  0  0  0  0  0  0  0  0  0  0
  185.9210  178.1820  137.5910 C   0  0  0  0  0  2  0  0  0  0  0  0
  186.9800  178.2270  135.4410 O   0  0  0  0  0  1  0  0  0  0  0  0
  187.0940  178.6790  136.7580 C   0  0  2  0  0  3  0  0  0  0  0  0
  189.0560  179.3750  138.0290 N   0  0  0  0  0  1  0  0  0  0  0  0
  188.4220  178.2460  137.3740 C   0  0  2  0  0  3  0  0  0  0  0  0
  189.3690  177.6560  136.3410 C   0  0  0  0  0  1  0  0  0  0  0  0
  183.2410  178.6410  140.0930 N   0  0  0  0  0  0  0  0  0  0  0  0
  180.8560  178.7770  139.7440 C   0  0  0  0  0  0  0  0  0  0  0  0
  180.7080  178.3810  138.5110 N   0  0  0  0  0  0  0  0  0  0  0  0
  180.2030  181.0820  139.8860 N   0  0  0  0  0  1  0  0  0  0  0  0
  180.0650  179.6310  142.1320 S   0  0  0  0  0  0  0  0  0  0  0  0
  179.8900  179.7350  140.3310 C   0  0  2  0  0  3  0  0  0  0  0  0
  181.7670  179.0030  141.9870 C   0  0  0  0  0  2  0  0  0  0  0  0
  181.9390  178.2950  140.6530 C   0  0  2  0  0  3  0  0  0  0  0  0
  182.5900  177.6770  137.2890 O   0  0  0  0  0  0  0  0  0  0  0  0
  181.4860  177.3890  137.8230 C   0  0  0  0  0  0  0  0  0  0  0  0
  181.0020  175.9740  137.7650 C   0  0  2  0  0  3  0  0  0  0  0  0
  180.3210  175.0650  139.9210 N   0  0  0  0  0  1  0  0  0  0  0  0
  179.8520  175.7670  138.7380 C   0  0  0  0  0  2  0  0  0  0  0  0
  182.0850  175.0550  138.0920 N   0  0  0  0  0  2  0  0  0  0  0  0
  181.4680  172.9710  136.5230 S   0  0  0  0  0  0  0  0  0  0  0  0
  182.5330  174.0020  137.2280 C   0  0  0  0  0  0  0  0  0  0  0  0
  184.7200  174.8590  137.5290 O   0  0  0  0  0  0  0  0  0  0  0  0
  183.9960  173.7270  137.1080 C   0  0  2  0  0  3  0  0  0  0  0  0
  184.6200  174.6590  136.1420 C   0  0  0  0  0  2  0  0  0  0  0  0
  1  7  1  0  0  0  0
  2  1  2  0  0  0  0
  2  4  1  0  0  0  0
  4  6  1  0  0  0  0
  5  8  1  1  0  0  0
  6  5  1  0  0  0  0
  7  3  2  0  0  0  0
  7  5  1  0  0  0  0
  9 11  1  6  0  0  0
 10  9  1  0  0  0  0
 12 10  1  0  0  0  0
 13  8  1  6  0  0  0
 13 12  1  0  0  0  0
 13 14  1  0  0  0  0
 14  9  1  0  0  0  0
 15  2  1  0  0  0  0
 16 15  1  0  0  0  0
 18 17  1  6  0  0  0
 18 20  1  0  0  0  0
 18 16  1  0  0  0  0
 20 21  1  6  0  0  0
 20 19  1  0  0  0  0
 22  4  2  0  0  0  0
 23 27  1  0  0  0  0
 23 29  1  0  0  0  0
 24 23  2  0  0  0  0
 27 25  1  6  0  0  0
 27 26  1  0  0  0  0
 28 26  1  0  0  0  0
 29 22  1  6  0  0  0
 29 28  1  0  0  0  0
 30 31  2  0  0  0  0
 31 24  1  0  0  0  0
 32 31  1  0  0  0  0
 32 35  1  0  0  0  0
 32 34  1  1  0  0  0
 34 33  1  0  0  0  0
 36 37  2  0  0  0  0
 37 35  1  0  0  0  0
 39 37  1  6  0  0  0
 39 38  1  0  0  0  0
 40 39  1  0  0  0  0
 40 38  1  0  0  0  0
M  END
>  <MODEL>
8

>  <REMARK>
 VINA RESULT:      -6.5      3.204      5.283
  Name = 
  14 active torsions:
  status: ('A' for Active; 'I' for Inactive)
    1  A    between atoms: N_4  and  C_22
    2  A    between atoms: C_6  and  O_31
    3  A    between atoms: C_14  and  C_34
    4  A    between atoms: C_16  and  C_35
    5  A    between atoms: O_17  and  C_32
    6  A    between atoms: O_17  and  C_33
    7  A    between atoms: C_18  and  N_36
    8  A    between atoms: C_22  and  C_27
    9  A    between atoms: C_23  and  C_27
   10  A    between atoms: C_26  and  O_31
   11  A    between atoms: C_26  and  C_35
   12  A    between atoms: C_27  and  N_39
   13  A    between atoms: C_29  and  N_36
   14  A    between atoms: C_34  and  N_39
                            x       y       z     vdW  Elec       q    Type
                         _______ _______ _______ _____ _____    ______ ____

>  <TORSDO>
F 14

$$$$
=
 OpenBabel11042411443D

 40 43  0  0  1  0  0  0  0  0999 V2000
  191.8080  177.5550  141.2380 N   0  0  0  0  0  0  0  0  0  0  0  0
  191.3750  177.2030  140.0610 C   0  0  0  0  0  0  0  0  0  0  0  0
  191.5590  177.6680  143.6060 C   0  0  0  0  0  2  0  0  0  0  0  0
  190.0380  176.5920  139.8950 C   0  0  0  0  0  0  0  0  0  0  0  0
  189.5920  176.9310  142.3270 C   0  0  1  0  0  3  0  0  0  0  0  0
  189.2240  176.4450  140.9470 C   0  0  0  0  0  3  0  0  0  0  0  0
  191.0220  177.4020  142.4230 C   0  0  0  0  0  0  0  0  0  0  0  0
  188.6540  177.8540  142.8520 O   0  0  0  0  0  0  0  0  0  0  0  0
  185.5480  178.3310  144.1420 C   0  0  1  0  0  3  0  0  0  0  0  0
  186.5680  178.2540  145.2530 C   0  0  0  0  0  2  0  0  0  0  0  0
  185.0970  179.6420  144.0020 O   0  0  0  0  0  1  0  0  0  0  0  0
  187.5180  177.1550  144.8370 C   0  0  0  0  0  2  0  0  0  0  0  0
  187.5230  177.1580  143.3200 C   0  0  1  0  0  3  0  0  0  0  0  0
  186.2670  177.8940  142.8810 C   0  0  0  0  0  2  0  0  0  0  0  0
  192.1790  177.3820  138.9290 O   0  0  0  0  0  0  0  0  0  0  0  0
  193.3030  176.5560  138.6380 C   0  0  0  0  0  2  0  0  0  0  0  0
  192.1070  176.2110  136.5890 O   0  0  0  0  0  1  0  0  0  0  0  0
  193.3880  176.2750  137.1440 C   0  0  2  0  0  3  0  0  0  0  0  0
  193.2680  173.9540  136.4050 N   0  0  0  0  0  1  0  0  0  0  0  0
  194.1690  174.9910  136.8750 C   0  0  2  0  0  3  0  0  0  0  0  0
  194.9140  174.5020  138.1070 C   0  0  0  0  0  1  0  0  0  0  0  0
  189.6430  176.1370  138.5960 N   0  0  0  0  0  2  0  0  0  0  0  0
  188.4450  176.1980  136.5000 C   0  0  0  0  0  0  0  0  0  0  0  0
  188.6810  175.0240  135.9840 N   0  0  0  0  0  0  0  0  0  0  0  0
  189.4610  177.8610  135.1000 N   0  0  0  0  0  1  0  0  0  0  0  0
  187.3930  178.6340  136.6150 S   0  0  0  0  0  0  0  0  0  0  0  0
  188.1980  177.3570  135.6110 C   0  0  2  0  0  3  0  0  0  0  0  0
  188.0910  177.9490  138.1490 C   0  0  0  0  0  2  0  0  0  0  0  0
  188.3670  176.4660  137.9680 C   0  0  2  0  0  3  0  0  0  0  0  0
  189.9060  173.5130  137.3050 O   0  0  0  0  0  0  0  0  0  0  0  0
  188.8390  173.7850  136.6920 C   0  0  0  0  0  0  0  0  0  0  0  0
  187.7080  172.8060  136.7390 C   0  0  2  0  0  3  0  0  0  0  0  0
  186.9680  170.9570  135.3360 N   0  0  0  0  0  1  0  0  0  0  0  0
  188.1030  171.5060  136.0580 C   0  0  0  0  0  2  0  0  0  0  0  0
  186.5320  173.3610  136.0800 N   0  0  0  0  0  2  0  0  0  0  0  0
  184.8970  175.3500  136.8280 S   0  0  0  0  0  0  0  0  0  0  0  0
  185.3440  173.7710  136.7700 C   0  0  0  0  0  0  0  0  0  0  0  0
  184.2600  171.6660  136.7980 O   0  0  0  0  0  0  0  0  0  0  0  0
  184.5970  172.7760  137.5960 C   0  0  2  0  0  3  0  0  0  0  0  0
  183.2290  172.5830  137.0630 C   0  0  0  0  0  2  0  0  0  0  0  0
  1  7  1  0  0  0  0
  2  1  2  0  0  0  0
  4  2  1  0  0  0  0
  4  6  2  0  0  0  0
  5  7  1  0  0  0  0
  5  8  1  6  0  0  0
  6  5  1  0  0  0  0
  7  3  2  0  0  0  0
  9 11  1  6  0  0  0
  9 10  1  0  0  0  0
 12 10  1  0  0  0  0
 13  8  1  1  0  0  0
 13 12  1  0  0  0  0
 14 13  1  0  0  0  0
 14  9  1  0  0  0  0
 15  2  1  0  0  0  0
 16 15  1  0  0  0  0
 18 17  1  1  0  0  0
 18 16  1  0  0  0  0
 19 20  1  0  0  0  0
 20 18  1  0  0  0  0
 20 21  1  1  0  0  0
 22  4  1  0  0  0  0
 23 29  1  0  0  0  0
 24 23  2  0  0  0  0
 24 31  1  0  0  0  0
 26 28  1  0  0  0  0
 27 25  1  1  0  0  0
 27 23  1  0  0  0  0
 27 26  1  0  0  0  0
 29 28  1  0  0  0  0
 29 22  1  1  0  0  0
 31 32  1  0  0  0  0
 31 30  2  0  0  0  0
 32 34  1  6  0  0  0
 33 34  1  0  0  0  0
 35 32  1  0  0  0  0
 35 37  1  0  0  0  0
 37 36  2  0  0  0  0
 38 40  1  0  0  0  0
 38 39  1  0  0  0  0
 39 37  1  6  0  0  0
 40 39  1  0  0  0  0
M  END
>  <MODEL>
9

>  <REMARK>
 VINA RESULT:      -6.5      3.059      4.465
  Name = 
  14 active torsions:
  status: ('A' for Active; 'I' for Inactive)
    1  A    between atoms: N_4  and  C_22
    2  A    between atoms: C_6  and  O_31
    3  A    between atoms: C_14  and  C_34
    4  A    between atoms: C_16  and  C_35
    5  A    between atoms: O_17  and  C_32
    6  A    between atoms: O_17  and  C_33
    7  A    between atoms: C_18  and  N_36
    8  A    between atoms: C_22  and  C_27
    9  A    between atoms: C_23  and  C_27
   10  A    between atoms: C_26  and  O_31
   11  A    between atoms: C_26  and  C_35
   12  A    between atoms: C_27  and  N_39
   13  A    between atoms: C_29  and  N_36
   14  A    between atoms: C_34  and  N_39
                            x       y       z     vdW  Elec       q    Type
                         _______ _______ _______ _____ _____    ______ ____

>  <TORSDO>
F 14

$$$$
