=
 OpenBabel11042410563D

 56 61  0  0  1  0  0  0  0  0999 V2000
  187.7210  178.2020  138.0620 C   0  0  2  0  0  3  0  0  0  0  0  0
  188.6830  178.5770  136.9510 C   0  0  0  0  0  2  0  0  0  0  0  0
  188.3820  177.7480  135.7160 C   0  0  0  0  0  2  0  0  0  0  0  0
  189.5730  177.1600  135.2070 O   0  0  0  0  0  0  0  0  0  0  0  0
  191.5020  173.8490  136.9230 C   0  0  0  0  0  3  0  0  0  0  0  0
  191.5850  176.0140  135.8530 C   0  0  0  0  0  3  0  0  0  0  0  0
  190.1060  173.8700  136.8560 C   0  0  0  0  0  3  0  0  0  0  0  0
  189.4510  174.9640  136.2860 C   0  0  0  0  0  3  0  0  0  0  0  0
  192.2590  174.9260  136.4260 C   0  0  0  0  0  0  0  0  0  0  0  0
  190.1910  176.0450  135.7800 C   0  0  0  0  0  0  0  0  0  0  0  0
  194.4280  175.9070  135.9190 C   0  0  0  0  0  2  0  0  0  0  0  0
  193.7450  174.8970  136.4600 C   0  0  0  0  0  0  0  0  0  0  0  0
  195.5310  172.5140  138.7420 N   0  0  2  0  0  0  0  0  0  0  0  0
  194.8990  173.8230  138.4710 C   0  0  2  0  0  3  0  0  0  0  0  0
  194.4640  173.8140  137.0880 N   0  0  0  0  0  0  0  0  0  0  0  0
  196.3540  173.7230  138.5560 C   0  0  0  0  0  2  0  0  0  0  0  0
  195.5250  171.7740  137.4770 C   0  0  0  0  0  2  0  0  0  0  0  0
  194.6840  172.5270  136.4690 C   0  0  0  0  0  2  0  0  0  0  0  0
  188.4820  178.0370  139.3640 C   0  0  0  0  0  2  0  0  0  0  0  0
  189.8750  178.0630  139.0900 O   0  0  0  0  0  0  0  0  0  0  0  0
  190.5850  175.9310  139.5340 O   0  0  0  0  0  0  0  0  0  0  0  0
  190.7590  177.1650  139.6980 C   0  0  0  0  0  0  0  0  0  0  0  0
  191.9650  177.6510  140.4460 C   0  0  2  0  0  3  0  0  0  0  0  0
  193.2050  177.3690  139.6010 C   0  0  0  0  0  1  0  0  0  0  0  0
  192.0450  177.0010  141.6860 O   0  0  0  0  0  0  0  0  0  0  0  0
  191.1840  177.6810  142.5590 C   0  0  0  0  0  2  0  0  0  0  0  0
  190.8230  177.2590  145.7740 C   0  0  1  0  0  3  0  0  0  0  0  0
  187.0690  177.6090  145.2320 C   0  0  2  0  0  3  0  0  0  0  0  0
  189.4640  178.2470  147.4980 O   0  0  0  0  0  1  0  0  0  0  0  0
  190.8760  176.2200  144.6310 C   0  0  0  0  0  2  0  0  0  0  0  0
  189.4190  177.3810  146.4010 C   0  0  1  0  0  3  0  0  0  0  0  0
  188.7940  177.0820  143.2170 C   0  0  0  0  0  2  0  0  0  0  0  0
  190.2890  176.6770  143.2700 C   0  0  1  0  0  3  0  0  0  0  0  0
  188.5280  177.9720  145.3410 C   0  0  1  0  0  3  0  0  0  0  0  0
  188.1200  176.7530  144.5340 C   0  0  1  0  0  3  0  0  0  0  0  0
  191.7500  176.9030  146.7580 O   0  0  0  0  0  0  0  0  0  0  0  0
  191.9660  175.5370  146.5700 C   0  0  0  0  0  1  0  0  0  0  0  0
  186.3880  178.5900  144.2900 C   0  0  0  0  0  2  0  0  0  0  0  0
  185.1860  177.9670  143.6070 C   0  0  0  0  0  2  0  0  0  0  0  0
  184.7720  178.8020  142.4940 N   0  0  0  0  0  2  0  0  0  0  0  0
  183.3280  178.6770  142.3850 C   0  0  0  0  0  2  0  0  0  0  0  0
  182.7110  178.7770  143.7660 C   0  0  0  0  0  2  0  0  0  0  0  0
  180.8010  180.1450  142.9250 O   0  0  0  0  0  0  0  0  0  0  0  0
  181.2530  179.0500  143.6510 C   0  0  0  0  0  0  0  0  0  0  0  0
  180.4250  178.2770  144.2020 O   0  0  0  0  0  1  0  0  0  0  0  0
  187.0460  176.9900  137.7240 O   0  0  0  0  0  0  0  0  0  0  0  0
  185.6880  176.9370  137.3980 C   0  0  0  0  0  0  0  0  0  0  0  0
  182.9490  176.8600  136.8110 C   0  0  0  0  0  3  0  0  0  0  0  0
  183.8230  175.9700  136.1840 C   0  0  0  0  0  3  0  0  0  0  0  0
  185.1870  176.0060  136.4770 C   0  0  0  0  0  3  0  0  0  0  0  0
  184.8090  177.8320  138.0170 C   0  0  0  0  0  3  0  0  0  0  0  0
  183.4340  177.7980  137.7300 C   0  0  0  0  0  0  0  0  0  0  0  0
  182.5330  178.6630  138.3560 O   0  0  0  0  0  0  0  0  0  0  0  0
  181.1510  178.3610  138.4950 C   0  0  0  0  0  2  0  0  0  0  0  0
  179.6280  177.6800  140.3550 C   0  0  0  0  0  1  0  0  0  0  0  0
  180.6920  178.6670  139.9110 C   0  0  0  0  0  2  0  0  0  0  0  0
  1  2  1  6  0  0  0
  1 19  1  0  0  0  0
  3  2  1  0  0  0  0
  4  3  1  0  0  0  0
  4 10  1  0  0  0  0
  6  9  1  0  0  0  0
  7  5  1  0  0  0  0
  8  7  2  0  0  0  0
  9 12  1  0  0  0  0
  9  5  2  0  0  0  0
 10  6  2  0  0  0  0
 10  8  1  0  0  0  0
 11 12  2  0  0  0  0
 12 15  1  0  0  0  0
 13 17  1  6  0  0  0
 14 16  1  6  0  0  0
 14 13  1  0  0  0  0
 15 14  1  0  0  0  0
 16 13  1  0  0  0  0
 18 15  1  0  0  0  0
 18 17  1  0  0  0  0
 20 19  1  0  0  0  0
 20 22  1  0  0  0  0
 21 22  2  0  0  0  0
 22 23  1  0  0  0  0
 23 24  1  6  0  0  0
 23 25  1  0  0  0  0
 25 26  1  0  0  0  0
 27 31  1  0  0  0  0
 27 36  1  1  0  0  0
 28 38  1  6  0  0  0
 28 34  1  0  0  0  0
 30 27  1  0  0  0  0
 31 29  1  1  0  0  0
 32 33  1  0  0  0  0
 32 35  1  0  0  0  0
 33 26  1  1  0  0  0
 33 30  1  0  0  0  0
 34 31  1  0  0  0  0
 35 28  1  0  0  0  0
 35 34  1  0  0  0  0
 37 36  1  0  0  0  0
 39 38  1  0  0  0  0
 40 39  1  0  0  0  0
 41 40  1  0  0  0  0
 41 42  1  0  0  0  0
 43 44  2  0  0  0  0
 44 42  1  0  0  0  0
 44 45  1  0  0  0  0
 46  1  1  0  0  0  0
 47 46  1  0  0  0  0
 47 51  1  0  0  0  0
 48 52  1  0  0  0  0
 49 50  1  0  0  0  0
 49 48  2  0  0  0  0
 50 47  2  0  0  0  0
 52 51  2  0  0  0  0
 52 53  1  0  0  0  0
 53 54  1  0  0  0  0
 54 56  1  0  0  0  0
 56 55  1  0  0  0  0
M  END
>  <MODEL>
1

>  <REMARK>
 VINA RESULT:      -6.9      0.000      0.000
  Name = 
  25 active torsions:
  status: ('A' for Active; 'I' for Inactive)
    1  A    between atoms: C_1  and  O_5
    2  A    between atoms: C_3  and  C_30
    3  A    between atoms: C_6  and  C_28
    4  A    between atoms: C_6  and  C_45
    5  A    between atoms: O_8  and  C_18
    6  A    between atoms: O_8  and  C_51
    7  A    between atoms: C_9  and  O_22
    8  A    between atoms: C_11  and  C_30
    9  A    between atoms: C_11  and  N_43
   10  A    between atoms: C_13  and  O_33
   11  A    between atoms: C_13  and  C_45
   12  A    between atoms: C_15  and  C_25
   13  A    between atoms: O_16  and  C_28
   14  A    between atoms: O_16  and  C_47
   15  A    between atoms: C_18  and  C_49
   16  A    between atoms: C_21  and  O_27
   17  A    between atoms: C_21  and  C_55
   18  A    between atoms: O_22  and  C_45
   19  A    between atoms: C_25  and  C_29
   20  A    between atoms: N_26  and  C_44
   21  A    between atoms: O_27  and  C_37
   22  A    between atoms: C_29  and  N_43
   23  A    between atoms: O_33  and  C_55
   24  A    between atoms: C_37  and  C_41
   25  A    between atoms: C_40  and  C_44
                            x       y       z     vdW  Elec       q    Type
                         _______ _______ _______ _____ _____    ______ ____

>  <TORSDO>
F 25

$$$$
=
 OpenBabel11042410563D

 56 61  0  0  1  0  0  0  0  0999 V2000
  187.2570  178.2810  137.6520 C   0  0  2  0  0  3  0  0  0  0  0  0
  187.8630  178.7430  136.3420 C   0  0  0  0  0  2  0  0  0  0  0  0
  188.3530  177.5410  135.5550 C   0  0  0  0  0  2  0  0  0  0  0  0
  189.7270  177.2940  135.8240 O   0  0  0  0  0  0  0  0  0  0  0  0
  191.3670  173.5100  136.6110 C   0  0  0  0  0  3  0  0  0  0  0  0
  191.6250  175.8270  135.9750 C   0  0  0  0  0  3  0  0  0  0  0  0
  189.9860  173.6970  136.7280 C   0  0  0  0  0  3  0  0  0  0  0  0
  189.4270  174.9500  136.4680 C   0  0  0  0  0  3  0  0  0  0  0  0
  192.2040  174.5770  136.2370 C   0  0  0  0  0  0  0  0  0  0  0  0
  190.2480  176.0240  136.0890 C   0  0  0  0  0  0  0  0  0  0  0  0
  194.3420  175.1640  135.2310 C   0  0  0  0  0  2  0  0  0  0  0  0
  193.6680  174.3790  136.0740 C   0  0  0  0  0  0  0  0  0  0  0  0
  195.4250  172.2660  138.6280 N   0  0  2  0  0  0  0  0  0  0  0  0
  194.7900  173.5330  138.2090 C   0  0  2  0  0  3  0  0  0  0  0  0
  194.3830  173.3750  136.8260 N   0  0  0  0  0  0  0  0  0  0  0  0
  196.2430  173.4560  138.3320 C   0  0  0  0  0  2  0  0  0  0  0  0
  195.4490  171.3970  137.4490 C   0  0  0  0  0  2  0  0  0  0  0  0
  194.6230  172.0320  136.3510 C   0  0  0  0  0  2  0  0  0  0  0  0
  188.2860  178.4010  138.7610 C   0  0  0  0  0  2  0  0  0  0  0  0
  188.7840  177.1080  139.0710 O   0  0  0  0  0  0  0  0  0  0  0  0
  190.6940  175.9380  139.5500 O   0  0  0  0  0  0  0  0  0  0  0  0
  189.9640  176.9310  139.8010 C   0  0  0  0  0  0  0  0  0  0  0  0
  190.4240  177.9560  140.7940 C   0  0  2  0  0  3  0  0  0  0  0  0
  191.8360  177.5940  141.2470 C   0  0  0  0  0  1  0  0  0  0  0  0
  189.5410  177.9880  141.8840 O   0  0  0  0  0  0  0  0  0  0  0  0
  190.3110  177.7980  143.0390 C   0  0  0  0  0  2  0  0  0  0  0  0
  190.8330  177.2700  146.2170 C   0  0  1  0  0  3  0  0  0  0  0  0
  187.0740  177.6300  146.7250 C   0  0  2  0  0  3  0  0  0  0  0  0
  189.9980  178.1990  148.2750 O   0  0  0  0  0  1  0  0  0  0  0  0
  190.5660  176.2690  145.0690 C   0  0  0  0  0  2  0  0  0  0  0  0
  189.6510  177.3690  147.2040 C   0  0  1  0  0  3  0  0  0  0  0  0
  188.1850  177.1730  144.3010 C   0  0  0  0  0  2  0  0  0  0  0  0
  189.6360  176.7690  143.9340 C   0  0  1  0  0  3  0  0  0  0  0  0
  188.5110  177.9920  146.4450 C   0  0  1  0  0  3  0  0  0  0  0  0
  187.8910  176.8000  145.7410 C   0  0  1  0  0  3  0  0  0  0  0  0
  191.9890  176.8840  146.9000 O   0  0  0  0  0  0  0  0  0  0  0  0
  191.8330  175.5160  147.1260 C   0  0  0  0  0  1  0  0  0  0  0  0
  186.1700  178.6410  146.0340 C   0  0  0  0  0  2  0  0  0  0  0  0
  184.7050  178.2930  146.2140 C   0  0  0  0  0  2  0  0  0  0  0  0
  183.8860  179.2630  145.5090 N   0  0  0  0  0  2  0  0  0  0  0  0
  183.6290  178.7200  144.1860 C   0  0  0  0  0  2  0  0  0  0  0  0
  184.4010  179.5210  143.1570 C   0  0  0  0  0  2  0  0  0  0  0  0
  186.1330  178.7740  141.5230 O   0  0  0  0  0  0  0  0  0  0  0  0
  184.8590  178.6280  142.0580 C   0  0  0  0  0  0  0  0  0  0  0  0
  184.0950  177.7270  141.6230 O   0  0  0  0  0  1  0  0  0  0  0  0
  186.8170  176.9290  137.5270 O   0  0  0  0  0  0  0  0  0  0  0  0
  185.4770  176.5760  137.3370 C   0  0  0  0  0  0  0  0  0  0  0  0
  182.8150  175.8200  136.9060 C   0  0  0  0  0  3  0  0  0  0  0  0
  183.1090  177.1010  137.3770 C   0  0  0  0  0  3  0  0  0  0  0  0
  184.4350  177.4790  137.5900 C   0  0  0  0  0  3  0  0  0  0  0  0
  185.1760  175.2920  136.8740 C   0  0  0  0  0  3  0  0  0  0  0  0
  183.8440  174.9050  136.6520 C   0  0  0  0  0  0  0  0  0  0  0  0
  183.5190  173.6370  136.1640 O   0  0  0  0  0  0  0  0  0  0  0  0
  184.4900  172.7560  135.6160 C   0  0  0  0  0  2  0  0  0  0  0  0
  182.9280  171.1950  136.7860 C   0  0  0  0  0  1  0  0  0  0  0  0
  184.3210  171.3660  136.2080 C   0  0  0  0  0  2  0  0  0  0  0  0
  1  2  1  6  0  0  0
  1 19  1  0  0  0  0
  3  4  1  0  0  0  0
  3  2  1  0  0  0  0
  4 10  1  0  0  0  0
  5  7  1  0  0  0  0
  6 10  2  0  0  0  0
  6  9  1  0  0  0  0
  8  7  2  0  0  0  0
  9  5  2  0  0  0  0
 10  8  1  0  0  0  0
 11 12  2  0  0  0  0
 12  9  1  0  0  0  0
 12 15  1  0  0  0  0
 13 17  1  6  0  0  0
 14 16  1  6  0  0  0
 14 13  1  0  0  0  0
 15 14  1  0  0  0  0
 16 13  1  0  0  0  0
 18 15  1  0  0  0  0
 18 17  1  0  0  0  0
 19 20  1  0  0  0  0
 20 22  1  0  0  0  0
 21 22  2  0  0  0  0
 22 23  1  0  0  0  0
 23 24  1  1  0  0  0
 23 25  1  0  0  0  0
 25 26  1  0  0  0  0
 27 36  1  1  0  0  0
 27 31  1  0  0  0  0
 28 38  1  6  0  0  0
 30 27  1  0  0  0  0
 31 29  1  1  0  0  0
 32 35  1  0  0  0  0
 33 26  1  1  0  0  0
 33 32  1  0  0  0  0
 33 30  1  0  0  0  0
 34 28  1  0  0  0  0
 34 31  1  0  0  0  0
 35 34  1  0  0  0  0
 35 28  1  0  0  0  0
 36 37  1  0  0  0  0
 38 39  1  0  0  0  0
 40 39  1  0  0  0  0
 41 40  1  0  0  0  0
 42 41  1  0  0  0  0
 43 44  2  0  0  0  0
 44 42  1  0  0  0  0
 45 44  1  0  0  0  0
 46  1  1  0  0  0  0
 47 46  1  0  0  0  0
 47 50  1  0  0  0  0
 48 49  1  0  0  0  0
 49 50  2  0  0  0  0
 51 47  2  0  0  0  0
 52 51  1  0  0  0  0
 52 48  2  0  0  0  0
 53 52  1  0  0  0  0
 54 53  1  0  0  0  0
 54 56  1  0  0  0  0
 56 55  1  0  0  0  0
M  END
>  <MODEL>
2

>  <REMARK>
 VINA RESULT:      -6.7      1.754      2.617
  Name = 
  25 active torsions:
  status: ('A' for Active; 'I' for Inactive)
    1  A    between atoms: C_1  and  O_5
    2  A    between atoms: C_3  and  C_30
    3  A    between atoms: C_6  and  C_28
    4  A    between atoms: C_6  and  C_45
    5  A    between atoms: O_8  and  C_18
    6  A    between atoms: O_8  and  C_51
    7  A    between atoms: C_9  and  O_22
    8  A    between atoms: C_11  and  C_30
    9  A    between atoms: C_11  and  N_43
   10  A    between atoms: C_13  and  O_33
   11  A    between atoms: C_13  and  C_45
   12  A    between atoms: C_15  and  C_25
   13  A    between atoms: O_16  and  C_28
   14  A    between atoms: O_16  and  C_47
   15  A    between atoms: C_18  and  C_49
   16  A    between atoms: C_21  and  O_27
   17  A    between atoms: C_21  and  C_55
   18  A    between atoms: O_22  and  C_45
   19  A    between atoms: C_25  and  C_29
   20  A    between atoms: N_26  and  C_44
   21  A    between atoms: O_27  and  C_37
   22  A    between atoms: C_29  and  N_43
   23  A    between atoms: O_33  and  C_55
   24  A    between atoms: C_37  and  C_41
   25  A    between atoms: C_40  and  C_44
                            x       y       z     vdW  Elec       q    Type
                         _______ _______ _______ _____ _____    ______ ____

>  <TORSDO>
F 25

$$$$
=
 OpenBabel11042410563D

 56 61  0  0  1  0  0  0  0  0999 V2000
  190.4330  176.7950  138.8820 C   0  0  2  0  0  3  0  0  0  0  0  0
  189.0520  177.4190  138.8580 C   0  0  0  0  0  2  0  0  0  0  0  0
  188.8340  178.1240  137.5310 C   0  0  0  0  0  2  0  0  0  0  0  0
  188.4810  177.1890  136.5200 O   0  0  0  0  0  0  0  0  0  0  0  0
  185.2040  174.5820  136.8210 C   0  0  0  0  0  3  0  0  0  0  0  0
  186.1140  176.7820  136.4130 C   0  0  0  0  0  3  0  0  0  0  0  0
  186.4940  174.0890  137.0390 C   0  0  0  0  0  3  0  0  0  0  0  0
  187.5930  174.9450  136.9440 C   0  0  0  0  0  3  0  0  0  0  0  0
  185.0000  175.9360  136.5000 C   0  0  0  0  0  0  0  0  0  0  0  0
  187.4070  176.3010  136.6290 C   0  0  0  0  0  0  0  0  0  0  0  0
  183.3760  177.2340  135.2330 C   0  0  0  0  0  2  0  0  0  0  0  0
  183.6290  176.4770  136.3030 C   0  0  0  0  0  0  0  0  0  0  0  0
  181.1000  176.3510  139.0710 N   0  0  2  0  0  0  0  0  0  0  0  0
  182.3170  176.9160  138.4520 C   0  0  2  0  0  3  0  0  0  0  0  0
  182.5600  176.1800  137.2260 N   0  0  0  0  0  0  0  0  0  0  0  0
  182.4340  176.0390  139.6130 C   0  0  0  0  0  2  0  0  0  0  0  0
  180.6820  175.2280  138.2280 C   0  0  0  0  0  2  0  0  0  0  0  0
  181.5030  175.2320  136.9570 C   0  0  0  0  0  2  0  0  0  0  0  0
  191.2640  177.4340  139.9790 C   0  0  0  0  0  2  0  0  0  0  0  0
  190.4630  177.5700  141.1440 O   0  0  0  0  0  0  0  0  0  0  0  0
  189.9790  175.5890  142.1860 O   0  0  0  0  0  0  0  0  0  0  0  0
  190.5840  176.6900  142.2250 C   0  0  0  0  0  0  0  0  0  0  0  0
  191.5040  176.9910  143.3710 C   0  0  2  0  0  3  0  0  0  0  0  0
  191.9070  175.6730  144.0280 C   0  0  0  0  0  1  0  0  0  0  0  0
  190.8570  177.8320  144.2880 O   0  0  0  0  0  0  0  0  0  0  0  0
  189.5480  178.0150  143.8210 C   0  0  0  0  0  2  0  0  0  0  0  0
  189.0500  177.8650  147.0420 C   0  0  1  0  0  3  0  0  0  0  0  0
  185.3270  178.2220  146.3160 C   0  0  2  0  0  3  0  0  0  0  0  0
  187.6380  179.0110  148.6200 O   0  0  0  0  0  1  0  0  0  0  0  0
  189.1300  176.7340  145.9900 C   0  0  0  0  0  2  0  0  0  0  0  0
  187.6230  178.0580  147.5960 C   0  0  1  0  0  3  0  0  0  0  0  0
  187.1230  177.5060  144.4240 C   0  0  0  0  0  2  0  0  0  0  0  0
  188.6070  177.0860  144.5730 C   0  0  1  0  0  3  0  0  0  0  0  0
  186.7860  178.5720  146.4550 C   0  0  1  0  0  3  0  0  0  0  0  0
  186.3900  177.2970  145.7350 C   0  0  1  0  0  3  0  0  0  0  0  0
  189.9290  177.5770  148.0890 O   0  0  0  0  0  0  0  0  0  0  0  0
  190.9140  176.7700  147.5190 C   0  0  0  0  0  1  0  0  0  0  0  0
  184.7020  179.1320  145.2680 C   0  0  0  0  0  2  0  0  0  0  0  0
  183.2380  178.8050  145.0460 C   0  0  0  0  0  2  0  0  0  0  0  0
  182.8910  179.0520  143.6580 N   0  0  0  0  0  2  0  0  0  0  0  0
  184.1400  179.1810  142.9260 C   0  0  0  0  0  2  0  0  0  0  0  0
  183.9630  178.6110  141.5320 C   0  0  0  0  0  2  0  0  0  0  0  0
  186.3670  179.0170  141.0020 O   0  0  0  0  0  1  0  0  0  0  0  0
  185.0320  179.1260  140.6340 C   0  0  0  0  0  0  0  0  0  0  0  0
  184.7250  179.6490  139.5300 O   0  0  0  0  0  0  0  0  0  0  0  0
  191.0630  176.9740  137.6140 O   0  0  0  0  0  0  0  0  0  0  0  0
  191.9530  176.0460  137.0650 C   0  0  0  0  0  0  0  0  0  0  0  0
  193.7910  174.2340  135.9740 C   0  0  0  0  0  3  0  0  0  0  0  0
  192.4410  174.1550  135.6260 C   0  0  0  0  0  3  0  0  0  0  0  0
  191.5250  175.0570  136.1670 C   0  0  0  0  0  3  0  0  0  0  0  0
  193.3050  176.1160  137.4160 C   0  0  0  0  0  3  0  0  0  0  0  0
  194.2330  175.2130  136.8720 C   0  0  0  0  0  0  0  0  0  0  0  0
  195.5930  175.2800  137.1870 O   0  0  0  0  0  0  0  0  0  0  0  0
  196.6120  174.9280  136.2610 C   0  0  0  0  0  2  0  0  0  0  0  0
  198.1080  173.1230  137.1250 C   0  0  0  0  0  1  0  0  0  0  0  0
  197.9030  174.6220  137.0020 C   0  0  0  0  0  2  0  0  0  0  0  0
  1  2  1  6  0  0  0
  1 19  1  0  0  0  0
  3  2  1  0  0  0  0
  4 10  1  0  0  0  0
  4  3  1  0  0  0  0
  5  7  1  0  0  0  0
  6  9  1  0  0  0  0
  6 10  2  0  0  0  0
  8  7  2  0  0  0  0
  9  5  2  0  0  0  0
 10  8  1  0  0  0  0
 11 12  2  0  0  0  0
 12  9  1  0  0  0  0
 12 15  1  0  0  0  0
 13 17  1  6  0  0  0
 13 16  1  0  0  0  0
 14 13  1  0  0  0  0
 14 16  1  1  0  0  0
 15 14  1  0  0  0  0
 18 15  1  0  0  0  0
 18 17  1  0  0  0  0
 19 20  1  0  0  0  0
 20 22  1  0  0  0  0
 21 22  2  0  0  0  0
 22 23  1  0  0  0  0
 23 24  1  1  0  0  0
 23 25  1  0  0  0  0
 26 25  1  0  0  0  0
 27 31  1  0  0  0  0
 27 36  1  1  0  0  0
 28 38  1  6  0  0  0
 28 34  1  0  0  0  0
 30 27  1  0  0  0  0
 31 29  1  1  0  0  0
 32 33  1  0  0  0  0
 32 35  1  0  0  0  0
 33 26  1  1  0  0  0
 33 30  1  0  0  0  0
 34 31  1  0  0  0  0
 35 28  1  0  0  0  0
 35 34  1  0  0  0  0
 37 36  1  0  0  0  0
 39 38  1  0  0  0  0
 40 39  1  0  0  0  0
 41 40  1  0  0  0  0
 42 41  1  0  0  0  0
 44 43  1  0  0  0  0
 44 42  1  0  0  0  0
 45 44  2  0  0  0  0
 46  1  1  0  0  0  0
 47 51  1  0  0  0  0
 47 46  1  0  0  0  0
 48 52  1  0  0  0  0
 49 48  2  0  0  0  0
 49 50  1  0  0  0  0
 50 47  2  0  0  0  0
 52 53  1  0  0  0  0
 52 51  2  0  0  0  0
 54 56  1  0  0  0  0
 54 53  1  0  0  0  0
 56 55  1  0  0  0  0
M  END
>  <MODEL>
3

>  <REMARK>
 VINA RESULT:      -6.6      3.140      7.836
  Name = 
  25 active torsions:
  status: ('A' for Active; 'I' for Inactive)
    1  A    between atoms: C_1  and  O_5
    2  A    between atoms: C_3  and  C_30
    3  A    between atoms: C_6  and  C_28
    4  A    between atoms: C_6  and  C_45
    5  A    between atoms: O_8  and  C_18
    6  A    between atoms: O_8  and  C_51
    7  A    between atoms: C_9  and  O_22
    8  A    between atoms: C_11  and  C_30
    9  A    between atoms: C_11  and  N_43
   10  A    between atoms: C_13  and  O_33
   11  A    between atoms: C_13  and  C_45
   12  A    between atoms: C_15  and  C_25
   13  A    between atoms: O_16  and  C_28
   14  A    between atoms: O_16  and  C_47
   15  A    between atoms: C_18  and  C_49
   16  A    between atoms: C_21  and  O_27
   17  A    between atoms: C_21  and  C_55
   18  A    between atoms: O_22  and  C_45
   19  A    between atoms: C_25  and  C_29
   20  A    between atoms: N_26  and  C_44
   21  A    between atoms: O_27  and  C_37
   22  A    between atoms: C_29  and  N_43
   23  A    between atoms: O_33  and  C_55
   24  A    between atoms: C_37  and  C_41
   25  A    between atoms: C_40  and  C_44
                            x       y       z     vdW  Elec       q    Type
                         _______ _______ _______ _____ _____    ______ ____

>  <TORSDO>
F 25

$$$$
=
 OpenBabel11042410563D

 56 61  0  0  1  0  0  0  0  0999 V2000
  190.4450  176.5860  138.5010 C   0  0  2  0  0  3  0  0  0  0  0  0
  189.0100  176.6600  138.0170 C   0  0  0  0  0  2  0  0  0  0  0  0
  188.3750  177.9500  138.5030 C   0  0  0  0  0  2  0  0  0  0  0  0
  187.3980  178.4070  137.5760 O   0  0  0  0  0  0  0  0  0  0  0  0
  184.9680  175.8110  135.3450 C   0  0  0  0  0  3  0  0  0  0  0  0
  185.8240  176.5940  137.4640 C   0  0  0  0  0  3  0  0  0  0  0  0
  185.7400  176.7670  134.6800 C   0  0  0  0  0  3  0  0  0  0  0  0
  186.5550  177.6360  135.4090 C   0  0  0  0  0  3  0  0  0  0  0  0
  184.9980  175.7160  136.7480 C   0  0  0  0  0  0  0  0  0  0  0  0
  186.6000  177.5520  136.8100 C   0  0  0  0  0  0  0  0  0  0  0  0
  184.7590  173.4850  137.6930 C   0  0  0  0  0  2  0  0  0  0  0  0
  184.2080  174.6780  137.4620 C   0  0  0  0  0  0  0  0  0  0  0  0
  180.5350  174.7570  138.2210 N   0  0  2  0  0  0  0  0  0  0  0  0
  181.6870  174.2590  137.4410 C   0  0  2  0  0  3  0  0  0  0  0  0
  182.8690  174.9400  137.9330 N   0  0  0  0  0  0  0  0  0  0  0  0
  180.7570  175.2080  136.8360 C   0  0  0  0  0  2  0  0  0  0  0  0
  181.0520  175.7920  139.1210 C   0  0  0  0  0  2  0  0  0  0  0  0
  182.5640  175.7810  139.0680 C   0  0  0  0  0  2  0  0  0  0  0  0
  190.6780  177.6340  139.5730 C   0  0  0  0  0  2  0  0  0  0  0  0
  190.4290  177.0550  140.8450 O   0  0  0  0  0  0  0  0  0  0  0  0
  192.3220  176.9620  142.1320 O   0  0  0  0  0  0  0  0  0  0  0  0
  191.1630  177.4250  141.9770 C   0  0  0  0  0  0  0  0  0  0  0  0
  190.6370  178.4430  142.9450 C   0  0  2  0  0  3  0  0  0  0  0  0
  191.5790  178.5050  144.1440 C   0  0  0  0  0  1  0  0  0  0  0  0
  189.3390  178.0900  143.3430 O   0  0  0  0  0  0  0  0  0  0  0  0
  189.4360  177.5840  144.6470 C   0  0  0  0  0  2  0  0  0  0  0  0
  187.5500  178.1980  147.2370 C   0  0  1  0  0  3  0  0  0  0  0  0
  184.6370  178.5980  144.8140 C   0  0  2  0  0  3  0  0  0  0  0  0
  185.7850  179.7520  147.7520 O   0  0  0  0  0  1  0  0  0  0  0  0
  187.9090  176.8560  146.5590 C   0  0  0  0  0  2  0  0  0  0  0  0
  186.0740  178.5950  147.0220 C   0  0  1  0  0  3  0  0  0  0  0  0
  186.9480  177.3680  144.1320 C   0  0  0  0  0  2  0  0  0  0  0  0
  188.1280  176.9070  145.0250 C   0  0  1  0  0  3  0  0  0  0  0  0
  185.9200  178.8850  145.5530 C   0  0  1  0  0  3  0  0  0  0  0  0
  185.6890  177.5050  144.9660 C   0  0  1  0  0  3  0  0  0  0  0  0
  187.8190  178.1040  148.6050 O   0  0  0  0  0  0  0  0  0  0  0  0
  189.1680  178.4410  148.7290 C   0  0  0  0  0  1  0  0  0  0  0  0
  184.6900  179.2820  143.4560 C   0  0  0  0  0  2  0  0  0  0  0  0
  183.3290  179.3020  142.7870 C   0  0  0  0  0  2  0  0  0  0  0  0
  182.2900  179.2720  143.8010 N   0  0  0  0  0  2  0  0  0  0  0  0
  181.1460  178.5930  143.2150 C   0  0  0  0  0  2  0  0  0  0  0  0
  179.9920  179.5700  143.0970 C   0  0  0  0  0  2  0  0  0  0  0  0
  179.6190  181.3700  141.4090 O   0  0  0  0  0  1  0  0  0  0  0  0
  179.8600  180.0300  141.6870 C   0  0  0  0  0  0  0  0  0  0  0  0
  179.9820  179.2040  140.7450 O   0  0  0  0  0  0  0  0  0  0  0  0
  191.3330  176.7920  137.4030 O   0  0  0  0  0  0  0  0  0  0  0  0
  192.2690  175.8390  136.9870 C   0  0  0  0  0  0  0  0  0  0  0  0
  194.1860  173.9500  136.2120 C   0  0  0  0  0  3  0  0  0  0  0  0
  193.3170  174.4920  135.2640 C   0  0  0  0  0  3  0  0  0  0  0  0
  192.3630  175.4350  135.6480 C   0  0  0  0  0  3  0  0  0  0  0  0
  193.1360  175.2870  137.9350 C   0  0  0  0  0  3  0  0  0  0  0  0
  194.1020  174.3400  137.5540 C   0  0  0  0  0  0  0  0  0  0  0  0
  194.9980  173.7950  138.4770 O   0  0  0  0  0  0  0  0  0  0  0  0
  195.7490  174.5940  139.3800 C   0  0  0  0  0  2  0  0  0  0  0  0
  198.0630  175.1620  140.1330 C   0  0  0  0  0  1  0  0  0  0  0  0
  197.2300  174.4950  139.0530 C   0  0  0  0  0  2  0  0  0  0  0  0
  1  2  1  6  0  0  0
  1 19  1  0  0  0  0
  2  3  1  0  0  0  0
  4  3  1  0  0  0  0
  5  9  1  0  0  0  0
  7  5  2  0  0  0  0
  7  8  1  0  0  0  0
  8 10  2  0  0  0  0
  9 12  1  0  0  0  0
  9  6  2  0  0  0  0
 10  6  1  0  0  0  0
 10  4  1  0  0  0  0
 12 11  2  0  0  0  0
 12 15  1  0  0  0  0
 13 16  1  6  0  0  0
 13 17  1  0  0  0  0
 14 16  1  6  0  0  0
 14 15  1  0  0  0  0
 14 13  1  0  0  0  0
 15 18  1  0  0  0  0
 18 17  1  0  0  0  0
 19 20  1  0  0  0  0
 20 22  1  0  0  0  0
 22 21  2  0  0  0  0
 22 23  1  0  0  0  0
 23 25  1  0  0  0  0
 23 24  1  1  0  0  0
 25 26  1  0  0  0  0
 27 36  1  1  0  0  0
 28 38  1  6  0  0  0
 28 35  1  0  0  0  0
 28 34  1  0  0  0  0
 30 27  1  0  0  0  0
 31 27  1  0  0  0  0
 31 29  1  1  0  0  0
 32 35  1  0  0  0  0
 32 33  1  0  0  0  0
 33 26  1  1  0  0  0
 33 30  1  0  0  0  0
 34 31  1  0  0  0  0
 35 34  1  0  0  0  0
 36 37  1  0  0  0  0
 39 38  1  0  0  0  0
 39 40  1  0  0  0  0
 41 40  1  0  0  0  0
 42 41  1  0  0  0  0
 43 44  1  0  0  0  0
 44 42  1  0  0  0  0
 45 44  2  0  0  0  0
 46  1  1  0  0  0  0
 47 46  1  0  0  0  0
 47 51  1  0  0  0  0
 48 52  1  0  0  0  0
 49 50  1  0  0  0  0
 49 48  2  0  0  0  0
 50 47  2  0  0  0  0
 52 51  2  0  0  0  0
 52 53  1  0  0  0  0
 53 54  1  0  0  0  0
 56 54  1  0  0  0  0
 56 55  1  0  0  0  0
M  END
>  <MODEL>
4

>  <REMARK>
 VINA RESULT:      -6.3      3.050      7.873
  Name = 
  25 active torsions:
  status: ('A' for Active; 'I' for Inactive)
    1  A    between atoms: C_1  and  O_5
    2  A    between atoms: C_3  and  C_30
    3  A    between atoms: C_6  and  C_28
    4  A    between atoms: C_6  and  C_45
    5  A    between atoms: O_8  and  C_18
    6  A    between atoms: O_8  and  C_51
    7  A    between atoms: C_9  and  O_22
    8  A    between atoms: C_11  and  C_30
    9  A    between atoms: C_11  and  N_43
   10  A    between atoms: C_13  and  O_33
   11  A    between atoms: C_13  and  C_45
   12  A    between atoms: C_15  and  C_25
   13  A    between atoms: O_16  and  C_28
   14  A    between atoms: O_16  and  C_47
   15  A    between atoms: C_18  and  C_49
   16  A    between atoms: C_21  and  O_27
   17  A    between atoms: C_21  and  C_55
   18  A    between atoms: O_22  and  C_45
   19  A    between atoms: C_25  and  C_29
   20  A    between atoms: N_26  and  C_44
   21  A    between atoms: O_27  and  C_37
   22  A    between atoms: C_29  and  N_43
   23  A    between atoms: O_33  and  C_55
   24  A    between atoms: C_37  and  C_41
   25  A    between atoms: C_40  and  C_44
                            x       y       z     vdW  Elec       q    Type
                         _______ _______ _______ _____ _____    ______ ____

>  <TORSDO>
F 25

$$$$
=
 OpenBabel11042410563D

 56 61  0  0  1  0  0  0  0  0999 V2000
  190.8680  176.9080  139.5810 C   0  0  2  0  0  3  0  0  0  0  0  0
  189.5720  177.6820  139.4430 C   0  0  0  0  0  2  0  0  0  0  0  0
  189.0070  177.4850  138.0480 C   0  0  0  0  0  2  0  0  0  0  0  0
  187.5850  177.4820  138.0810 O   0  0  0  0  0  0  0  0  0  0  0  0
  185.1940  175.5750  135.2060 C   0  0  0  0  0  3  0  0  0  0  0  0
  186.4610  175.5220  137.2620 C   0  0  0  0  0  3  0  0  0  0  0  0
  185.5170  176.9250  135.0420 C   0  0  0  0  0  3  0  0  0  0  0  0
  186.3140  177.5720  135.9890 C   0  0  0  0  0  3  0  0  0  0  0  0
  185.6600  174.8580  136.3230 C   0  0  0  0  0  0  0  0  0  0  0  0
  186.7900  176.8700  137.1080 C   0  0  0  0  0  0  0  0  0  0  0  0
  186.3560  172.5390  136.5750 C   0  0  0  0  0  2  0  0  0  0  0  0
  185.3510  173.4130  136.4870 C   0  0  0  0  0  0  0  0  0  0  0  0
  181.6420  172.8600  136.3900 N   0  0  2  0  0  0  0  0  0  0  0  0
  182.8290  173.7240  136.2200 C   0  0  2  0  0  3  0  0  0  0  0  0
  183.9910  172.9370  136.5800 N   0  0  0  0  0  0  0  0  0  0  0  0
  181.9540  173.9120  137.3740 C   0  0  0  0  0  2  0  0  0  0  0  0
  182.1240  171.5840  136.9260 C   0  0  0  0  0  2  0  0  0  0  0  0
  183.6360  171.5680  136.8760 C   0  0  0  0  0  2  0  0  0  0  0  0
  191.6440  177.4180  140.7820 C   0  0  0  0  0  2  0  0  0  0  0  0
  190.7590  177.5390  141.8850 O   0  0  0  0  0  0  0  0  0  0  0  0
  190.3920  175.4450  142.7380 O   0  0  0  0  0  0  0  0  0  0  0  0
  190.7760  176.6250  142.9440 C   0  0  0  0  0  0  0  0  0  0  0  0
  191.3440  176.9970  144.2810 C   0  0  2  0  0  3  0  0  0  0  0  0
  191.7550  175.7180  145.0070 C   0  0  0  0  0  1  0  0  0  0  0  0
  190.3870  177.7080  145.0200 O   0  0  0  0  0  0  0  0  0  0  0  0
  189.2910  177.9190  144.1710 C   0  0  0  0  0  2  0  0  0  0  0  0
  187.5750  178.5000  146.8850 C   0  0  1  0  0  3  0  0  0  0  0  0
  184.4470  178.4960  144.7100 C   0  0  2  0  0  3  0  0  0  0  0  0
  185.7170  179.9120  147.4770 O   0  0  0  0  0  1  0  0  0  0  0  0
  188.0040  177.1610  146.2430 C   0  0  0  0  0  2  0  0  0  0  0  0
  186.0560  178.7480  146.7810 C   0  0  1  0  0  3  0  0  0  0  0  0
  186.8010  177.4470  143.8870 C   0  0  0  0  0  2  0  0  0  0  0  0
  188.0900  177.1460  144.6940 C   0  0  1  0  0  3  0  0  0  0  0  0
  185.7530  178.9390  145.3190 C   0  0  1  0  0  3  0  0  0  0  0  0
  185.6080  177.5140  144.8210 C   0  0  1  0  0  3  0  0  0  0  0  0
  187.9650  178.5080  148.2270 O   0  0  0  0  0  0  0  0  0  0  0  0
  188.4300  177.2170  148.4740 C   0  0  0  0  0  1  0  0  0  0  0  0
  184.3210  179.1050  143.3210 C   0  0  0  0  0  2  0  0  0  0  0  0
  182.8950  179.0430  142.8110 C   0  0  0  0  0  2  0  0  0  0  0  0
  182.9020  178.8140  141.3770 N   0  0  0  0  0  2  0  0  0  0  0  0
  184.2430  178.3820  141.0230 C   0  0  0  0  0  2  0  0  0  0  0  0
  184.5270  178.7600  139.5830 C   0  0  0  0  0  2  0  0  0  0  0  0
  182.4250  179.0500  138.2700 O   0  0  0  0  0  0  0  0  0  0  0  0
  183.4570  178.2240  138.6980 C   0  0  0  0  0  0  0  0  0  0  0  0
  183.4960  177.0220  138.3250 O   0  0  0  0  0  1  0  0  0  0  0  0
  191.6430  177.0520  138.3910 O   0  0  0  0  0  0  0  0  0  0  0  0
  192.3690  176.0030  137.8200 C   0  0  0  0  0  0  0  0  0  0  0  0
  193.8720  173.9490  136.6480 C   0  0  0  0  0  3  0  0  0  0  0  0
  192.5110  173.7640  136.8980 C   0  0  0  0  0  3  0  0  0  0  0  0
  191.7610  174.7860  137.4800 C   0  0  0  0  0  3  0  0  0  0  0  0
  193.7340  176.1810  137.5750 C   0  0  0  0  0  3  0  0  0  0  0  0
  194.4940  175.1570  136.9850 C   0  0  0  0  0  0  0  0  0  0  0  0
  195.8530  175.3210  136.7050 O   0  0  0  0  0  0  0  0  0  0  0  0
  196.4570  174.8220  135.5200 C   0  0  0  0  0  2  0  0  0  0  0  0
  198.8400  174.9480  134.7790 C   0  0  0  0  0  1  0  0  0  0  0  0
  197.8820  174.3790  135.8090 C   0  0  0  0  0  2  0  0  0  0  0  0
  1  2  1  6  0  0  0
  1 19  1  0  0  0  0
  3  4  1  0  0  0  0
  3  2  1  0  0  0  0
  5  9  1  0  0  0  0
  7  5  2  0  0  0  0
  7  8  1  0  0  0  0
  8 10  2  0  0  0  0
  9 12  1  0  0  0  0
  9  6  2  0  0  0  0
 10  6  1  0  0  0  0
 10  4  1  0  0  0  0
 12 11  2  0  0  0  0
 12 15  1  0  0  0  0
 13 17  1  1  0  0  0
 13 16  1  0  0  0  0
 14 13  1  0  0  0  0
 14 15  1  0  0  0  0
 14 16  1  1  0  0  0
 15 18  1  0  0  0  0
 18 17  1  0  0  0  0
 19 20  1  0  0  0  0
 20 22  1  0  0  0  0
 21 22  2  0  0  0  0
 22 23  1  0  0  0  0
 23 24  1  1  0  0  0
 23 25  1  0  0  0  0
 26 25  1  0  0  0  0
 27 36  1  1  0  0  0
 28 38  1  6  0  0  0
 28 35  1  0  0  0  0
 28 34  1  0  0  0  0
 30 27  1  0  0  0  0
 31 27  1  0  0  0  0
 31 29  1  1  0  0  0
 32 33  1  0  0  0  0
 32 35  1  0  0  0  0
 33 26  1  1  0  0  0
 33 30  1  0  0  0  0
 34 31  1  0  0  0  0
 35 34  1  0  0  0  0
 36 37  1  0  0  0  0
 39 38  1  0  0  0  0
 40 39  1  0  0  0  0
 41 40  1  0  0  0  0
 42 41  1  0  0  0  0
 43 44  2  0  0  0  0
 44 42  1  0  0  0  0
 45 44  1  0  0  0  0
 46  1  1  0  0  0  0
 47 46  1  0  0  0  0
 48 49  2  0  0  0  0
 48 52  1  0  0  0  0
 49 50  1  0  0  0  0
 50 47  2  0  0  0  0
 51 47  1  0  0  0  0
 52 51  2  0  0  0  0
 53 52  1  0  0  0  0
 54 56  1  0  0  0  0
 54 53  1  0  0  0  0
 55 56  1  0  0  0  0
M  END
>  <MODEL>
5

>  <REMARK>
 VINA RESULT:      -6.1      2.945      7.845
  Name = 
  25 active torsions:
  status: ('A' for Active; 'I' for Inactive)
    1  A    between atoms: C_1  and  O_5
    2  A    between atoms: C_3  and  C_30
    3  A    between atoms: C_6  and  C_28
    4  A    between atoms: C_6  and  C_45
    5  A    between atoms: O_8  and  C_18
    6  A    between atoms: O_8  and  C_51
    7  A    between atoms: C_9  and  O_22
    8  A    between atoms: C_11  and  C_30
    9  A    between atoms: C_11  and  N_43
   10  A    between atoms: C_13  and  O_33
   11  A    between atoms: C_13  and  C_45
   12  A    between atoms: C_15  and  C_25
   13  A    between atoms: O_16  and  C_28
   14  A    between atoms: O_16  and  C_47
   15  A    between atoms: C_18  and  C_49
   16  A    between atoms: C_21  and  O_27
   17  A    between atoms: C_21  and  C_55
   18  A    between atoms: O_22  and  C_45
   19  A    between atoms: C_25  and  C_29
   20  A    between atoms: N_26  and  C_44
   21  A    between atoms: O_27  and  C_37
   22  A    between atoms: C_29  and  N_43
   23  A    between atoms: O_33  and  C_55
   24  A    between atoms: C_37  and  C_41
   25  A    between atoms: C_40  and  C_44
                            x       y       z     vdW  Elec       q    Type
                         _______ _______ _______ _____ _____    ______ ____

>  <TORSDO>
F 25

$$$$
=
 OpenBabel11042410563D

 56 61  0  0  1  0  0  0  0  0999 V2000
  187.4870  178.4230  141.9070 C   0  0  2  0  0  3  0  0  0  0  0  0
  186.9540  178.6160  140.5010 C   0  0  0  0  0  2  0  0  0  0  0  0
  185.4960  179.0360  140.5620 C   0  0  0  0  0  2  0  0  0  0  0  0
  184.7720  178.4860  139.4690 O   0  0  0  0  0  0  0  0  0  0  0  0
  180.5860  178.4980  139.1480 C   0  0  0  0  0  3  0  0  0  0  0  0
  182.7720  178.9060  138.2040 C   0  0  0  0  0  3  0  0  0  0  0  0
  181.1810  178.0720  140.3390 C   0  0  0  0  0  3  0  0  0  0  0  0
  182.5720  178.0650  140.4610 C   0  0  0  0  0  3  0  0  0  0  0  0
  181.3770  178.9160  138.0630 C   0  0  0  0  0  0  0  0  0  0  0  0
  183.3770  178.4830  139.3890 C   0  0  0  0  0  0  0  0  0  0  0  0
  180.1960  178.5250  135.9700 C   0  0  0  0  0  2  0  0  0  0  0  0
  180.7530  179.4040  136.8050 C   0  0  0  0  0  0  0  0  0  0  0  0
  180.8650  183.1530  136.7050 N   0  0  2  0  0  0  0  0  0  0  0  0
  180.9160  181.8730  137.4430 C   0  0  2  0  0  3  0  0  0  0  0  0
  180.7120  180.8100  136.4790 N   0  0  0  0  0  0  0  0  0  0  0  0
  179.7290  182.7200  137.5380 C   0  0  0  0  0  2  0  0  0  0  0  0
  180.5540  182.8220  135.3120 C   0  0  0  0  0  2  0  0  0  0  0  0
  180.6360  181.3220  135.1310 C   0  0  0  0  0  2  0  0  0  0  0  0
  188.8500  177.7590  141.8510 C   0  0  0  0  0  2  0  0  0  0  0  0
  189.0040  177.1300  140.5870 O   0  0  0  0  0  0  0  0  0  0  0  0
  191.2830  177.3550  140.6130 O   0  0  0  0  0  0  0  0  0  0  0  0
  190.2560  177.0080  139.9750 C   0  0  0  0  0  0  0  0  0  0  0  0
  190.4020  176.3740  138.6240 C   0  0  2  0  0  3  0  0  0  0  0  0
  191.8610  176.4860  138.1900 C   0  0  0  0  0  1  0  0  0  0  0  0
  189.5550  177.0150  137.7080 O   0  0  0  0  0  0  0  0  0  0  0  0
  188.3190  176.3560  137.7640 C   0  0  0  0  0  2  0  0  0  0  0  0
  189.1020  174.3750  135.2920 C   0  0  1  0  0  3  0  0  0  0  0  0
  185.4090  173.4660  135.0680 C   0  0  2  0  0  3  0  0  0  0  0  0
  188.4660  172.1600  134.5940 O   0  0  0  0  0  1  0  0  0  0  0  0
  188.7180  175.8720  135.2890 C   0  0  0  0  0  2  0  0  0  0  0  0
  188.0120  173.4810  134.6640 C   0  0  1  0  0  3  0  0  0  0  0  0
  186.2970  175.6630  136.3730 C   0  0  0  0  0  2  0  0  0  0  0  0
  187.7030  176.3160  136.3740 C   0  0  1  0  0  3  0  0  0  0  0  0
  186.8230  173.5470  135.5850 C   0  0  1  0  0  3  0  0  0  0  0  0
  186.1210  174.8130  135.1300 C   0  0  1  0  0  3  0  0  0  0  0  0
  190.3050  174.2100  134.6000 O   0  0  0  0  0  0  0  0  0  0  0  0
  191.1200  175.2510  135.0450 C   0  0  0  0  0  1  0  0  0  0  0  0
  184.4680  173.2430  136.2430 C   0  0  0  0  0  2  0  0  0  0  0  0
  183.3250  172.3170  135.8760 C   0  0  0  0  0  2  0  0  0  0  0  0
  182.3340  173.0500  135.1100 N   0  0  0  0  0  2  0  0  0  0  0  0
  181.3480  173.5440  136.0570 C   0  0  0  0  0  2  0  0  0  0  0  0
  181.7350  174.9420  136.4980 C   0  0  0  0  0  2  0  0  0  0  0  0
  180.3310  175.0280  138.5590 O   0  0  0  0  0  0  0  0  0  0  0  0
  181.5900  175.0660  137.9740 C   0  0  0  0  0  0  0  0  0  0  0  0
  182.6150  175.1910  138.6960 O   0  0  0  0  0  1  0  0  0  0  0  0
  186.5750  177.6240  142.6610 O   0  0  0  0  0  0  0  0  0  0  0  0
  186.1900  177.9330  143.9690 C   0  0  0  0  0  0  0  0  0  0  0  0
  185.4550  178.4940  146.6140 C   0  0  0  0  0  3  0  0  0  0  0  0
  184.6420  178.9130  145.5590 C   0  0  0  0  0  3  0  0  0  0  0  0
  185.0060  178.6330  144.2420 C   0  0  0  0  0  3  0  0  0  0  0  0
  187.0050  177.5230  145.0280 C   0  0  0  0  0  3  0  0  0  0  0  0
  186.6420  177.7970  146.3580 C   0  0  0  0  0  0  0  0  0  0  0  0
  187.4260  177.3730  147.4340 O   0  0  0  0  0  0  0  0  0  0  0  0
  188.0830  178.2810  148.3080 C   0  0  0  0  0  2  0  0  0  0  0  0
  189.9230  176.8860  147.3530 C   0  0  0  0  0  1  0  0  0  0  0  0
  189.5720  177.9780  148.3470 C   0  0  0  0  0  2  0  0  0  0  0  0
  1  2  1  6  0  0  0
  1 46  1  0  0  0  0
  2  3  1  0  0  0  0
  4  3  1  0  0  0  0
  5  7  1  0  0  0  0
  6 10  2  0  0  0  0
  7  8  2  0  0  0  0
  9  6  1  0  0  0  0
  9  5  2  0  0  0  0
 10  4  1  0  0  0  0
 10  8  1  0  0  0  0
 11 12  2  0  0  0  0
 12  9  1  0  0  0  0
 13 17  1  6  0  0  0
 13 14  1  0  0  0  0
 13 16  1  0  0  0  0
 14 16  1  1  0  0  0
 15 12  1  0  0  0  0
 15 14  1  0  0  0  0
 18 17  1  0  0  0  0
 18 15  1  0  0  0  0
 19  1  1  0  0  0  0
 20 19  1  0  0  0  0
 22 20  1  0  0  0  0
 22 21  2  0  0  0  0
 23 24  1  6  0  0  0
 23 22  1  0  0  0  0
 25 26  1  0  0  0  0
 25 23  1  0  0  0  0
 27 36  1  6  0  0  0
 28 35  1  0  0  0  0
 28 34  1  0  0  0  0
 28 38  1  1  0  0  0
 30 27  1  0  0  0  0
 30 33  1  0  0  0  0
 31 29  1  1  0  0  0
 31 27  1  0  0  0  0
 31 34  1  0  0  0  0
 32 33  1  0  0  0  0
 33 26  1  1  0  0  0
 35 34  1  0  0  0  0
 35 32  1  0  0  0  0
 36 37  1  0  0  0  0
 39 38  1  0  0  0  0
 40 39  1  0  0  0  0
 40 41  1  0  0  0  0
 41 42  1  0  0  0  0
 42 44  1  0  0  0  0
 44 43  2  0  0  0  0
 44 45  1  0  0  0  0
 46 47  1  0  0  0  0
 47 50  2  0  0  0  0
 47 51  1  0  0  0  0
 49 48  2  0  0  0  0
 50 49  1  0  0  0  0
 51 52  2  0  0  0  0
 52 48  1  0  0  0  0
 52 53  1  0  0  0  0
 53 54  1  0  0  0  0
 54 56  1  0  0  0  0
 55 56  1  0  0  0  0
M  END
>  <MODEL>
6

>  <REMARK>
 VINA RESULT:      -6.1      3.714     10.297
  Name = 
  25 active torsions:
  status: ('A' for Active; 'I' for Inactive)
    1  A    between atoms: C_1  and  O_5
    2  A    between atoms: C_3  and  C_30
    3  A    between atoms: C_6  and  C_28
    4  A    between atoms: C_6  and  C_45
    5  A    between atoms: O_8  and  C_18
    6  A    between atoms: O_8  and  C_51
    7  A    between atoms: C_9  and  O_22
    8  A    between atoms: C_11  and  C_30
    9  A    between atoms: C_11  and  N_43
   10  A    between atoms: C_13  and  O_33
   11  A    between atoms: C_13  and  C_45
   12  A    between atoms: C_15  and  C_25
   13  A    between atoms: O_16  and  C_28
   14  A    between atoms: O_16  and  C_47
   15  A    between atoms: C_18  and  C_49
   16  A    between atoms: C_21  and  O_27
   17  A    between atoms: C_21  and  C_55
   18  A    between atoms: O_22  and  C_45
   19  A    between atoms: C_25  and  C_29
   20  A    between atoms: N_26  and  C_44
   21  A    between atoms: O_27  and  C_37
   22  A    between atoms: C_29  and  N_43
   23  A    between atoms: O_33  and  C_55
   24  A    between atoms: C_37  and  C_41
   25  A    between atoms: C_40  and  C_44
                            x       y       z     vdW  Elec       q    Type
                         _______ _______ _______ _____ _____    ______ ____

>  <TORSDO>
F 25

$$$$
=
 OpenBabel11042410563D

 56 61  0  0  1  0  0  0  0  0999 V2000
  187.8010  178.3240  136.9930 C   0  0  2  0  0  3  0  0  0  0  0  0
  188.1020  178.2760  135.5080 C   0  0  0  0  0  2  0  0  0  0  0  0
  187.9850  176.8460  135.0100 C   0  0  0  0  0  2  0  0  0  0  0  0
  189.2550  176.3550  134.6010 O   0  0  0  0  0  0  0  0  0  0  0  0
  191.5060  173.5810  136.8060 C   0  0  0  0  0  3  0  0  0  0  0  0
  191.1230  175.8340  136.0210 C   0  0  0  0  0  3  0  0  0  0  0  0
  190.3720  173.1470  136.1130 C   0  0  0  0  0  3  0  0  0  0  0  0
  189.6150  174.0580  135.3740 C   0  0  0  0  0  3  0  0  0  0  0  0
  191.8920  174.9340  136.7710 C   0  0  0  0  0  0  0  0  0  0  0  0
  189.9890  175.4110  135.3250 C   0  0  0  0  0  0  0  0  0  0  0  0
  193.0320  176.4310  138.3150 C   0  0  0  0  0  2  0  0  0  0  0  0
  193.1170  175.3980  137.4750 C   0  0  0  0  0  0  0  0  0  0  0  0
  196.2350  173.3210  137.6670 N   0  0  2  0  0  0  0  0  0  0  0  0
  194.9790  173.8310  138.2550 C   0  0  2  0  0  3  0  0  0  0  0  0
  194.3880  174.7390  137.2920 N   0  0  0  0  0  0  0  0  0  0  0  0
  196.2620  174.3430  138.7290 C   0  0  0  0  0  2  0  0  0  0  0  0
  196.4050  174.0030  136.3810 C   0  0  0  0  0  2  0  0  0  0  0  0
  195.1400  174.7690  136.0580 C   0  0  0  0  0  2  0  0  0  0  0  0
  189.0990  178.2920  137.7780 C   0  0  0  0  0  2  0  0  0  0  0  0
  188.8490  178.7410  139.1020 O   0  0  0  0  0  0  0  0  0  0  0  0
  190.2820  177.3010  140.1590 O   0  0  0  0  0  0  0  0  0  0  0  0
  189.2310  177.9880  140.2170 C   0  0  0  0  0  0  0  0  0  0  0  0
  188.4700  178.0710  141.5070 C   0  0  2  0  0  3  0  0  0  0  0  0
  187.0560  178.5610  141.2060 C   0  0  0  0  0  1  0  0  0  0  0  0
  189.1270  178.9440  142.3870 O   0  0  0  0  0  0  0  0  0  0  0  0
  189.9320  178.1540  143.2200 C   0  0  0  0  0  2  0  0  0  0  0  0
  190.0260  177.5030  146.4160 C   0  0  1  0  0  3  0  0  0  0  0  0
  186.2910  178.2470  146.5110 C   0  0  2  0  0  3  0  0  0  0  0  0
  189.0590  178.4680  148.3990 O   0  0  0  0  0  1  0  0  0  0  0  0
  189.7920  176.5620  145.2120 C   0  0  0  0  0  2  0  0  0  0  0  0
  188.7550  177.7040  147.2670 C   0  0  1  0  0  3  0  0  0  0  0  0
  187.6210  177.7290  144.2120 C   0  0  0  0  0  2  0  0  0  0  0  0
  189.0550  177.1830  143.9970 C   0  0  1  0  0  3  0  0  0  0  0  0
  187.7800  178.4610  146.4060 C   0  0  1  0  0  3  0  0  0  0  0  0
  187.1260  177.3580  145.5970 C   0  0  1  0  0  3  0  0  0  0  0  0
  191.0500  176.9800  147.2110 O   0  0  0  0  0  0  0  0  0  0  0  0
  191.6120  175.9570  146.4470 C   0  0  0  0  0  1  0  0  0  0  0  0
  185.5810  179.3630  145.7580 C   0  0  0  0  0  2  0  0  0  0  0  0
  184.1400  179.0030  145.4540 C   0  0  0  0  0  2  0  0  0  0  0  0
  184.0770  178.2700  144.2020 N   0  0  0  0  0  2  0  0  0  0  0  0
  183.0830  178.9320  143.3730 C   0  0  0  0  0  2  0  0  0  0  0  0
  181.7430  178.9060  144.0820 C   0  0  0  0  0  2  0  0  0  0  0  0
  180.7230  179.2650  141.8340 O   0  0  0  0  0  0  0  0  0  0  0  0
  180.6520  178.6860  143.0940 C   0  0  0  0  0  0  0  0  0  0  0  0
  179.6680  177.9610  143.3980 O   0  0  0  0  0  1  0  0  0  0  0  0
  186.9760  177.2160  137.3520 O   0  0  0  0  0  0  0  0  0  0  0  0
  185.6120  177.3390  137.6340 C   0  0  0  0  0  0  0  0  0  0  0  0
  182.8640  177.5490  138.1370 C   0  0  0  0  0  3  0  0  0  0  0  0
  183.7460  178.4910  138.6700 C   0  0  0  0  0  3  0  0  0  0  0  0
  185.1140  178.3890  138.4190 C   0  0  0  0  0  3  0  0  0  0  0  0
  184.7260  176.3930  137.1090 C   0  0  0  0  0  3  0  0  0  0  0  0
  183.3460  176.4930  137.3550 C   0  0  0  0  0  0  0  0  0  0  0  0
  182.4380  175.5760  136.8190 O   0  0  0  0  0  0  0  0  0  0  0  0
  181.8050  174.5760  137.6040 C   0  0  0  0  0  2  0  0  0  0  0  0
  179.6560  173.3060  137.7150 C   0  0  0  0  0  1  0  0  0  0  0  0
  180.7100  173.8970  136.7970 C   0  0  0  0  0  2  0  0  0  0  0  0
  1  2  1  6  0  0  0
  1 46  1  0  0  0  0
  1 19  1  0  0  0  0
  3  2  1  0  0  0  0
  4  3  1  0  0  0  0
  4 10  1  0  0  0  0
  6  9  2  0  0  0  0
  7  5  2  0  0  0  0
  8  7  1  0  0  0  0
  9  5  1  0  0  0  0
  9 12  1  0  0  0  0
 10  8  2  0  0  0  0
 10  6  1  0  0  0  0
 12 11  2  0  0  0  0
 13 17  1  6  0  0  0
 13 14  1  0  0  0  0
 13 16  1  0  0  0  0
 14 16  1  1  0  0  0
 15 12  1  0  0  0  0
 15 14  1  0  0  0  0
 18 17  1  0  0  0  0
 18 15  1  0  0  0  0
 19 20  1  0  0  0  0
 20 22  1  0  0  0  0
 21 22  2  0  0  0  0
 22 23  1  0  0  0  0
 23 24  1  6  0  0  0
 23 25  1  0  0  0  0
 25 26  1  0  0  0  0
 27 36  1  1  0  0  0
 27 31  1  0  0  0  0
 28 38  1  6  0  0  0
 30 27  1  0  0  0  0
 31 29  1  1  0  0  0
 32 35  1  0  0  0  0
 33 26  1  1  0  0  0
 33 32  1  0  0  0  0
 33 30  1  0  0  0  0
 34 28  1  0  0  0  0
 34 31  1  0  0  0  0
 35 34  1  0  0  0  0
 35 28  1  0  0  0  0
 37 36  1  0  0  0  0
 39 38  1  0  0  0  0
 40 39  1  0  0  0  0
 41 42  1  0  0  0  0
 41 40  1  0  0  0  0
 43 44  2  0  0  0  0
 44 45  1  0  0  0  0
 44 42  1  0  0  0  0
 46 47  1  0  0  0  0
 47 50  1  0  0  0  0
 48 49  1  0  0  0  0
 50 49  2  0  0  0  0
 51 52  1  0  0  0  0
 51 47  2  0  0  0  0
 52 48  2  0  0  0  0
 53 52  1  0  0  0  0
 53 54  1  0  0  0  0
 56 54  1  0  0  0  0
 56 55  1  0  0  0  0
M  END
>  <MODEL>
7

>  <REMARK>
 VINA RESULT:      -6.0      1.597      2.192
  Name = 
  25 active torsions:
  status: ('A' for Active; 'I' for Inactive)
    1  A    between atoms: C_1  and  O_5
    2  A    between atoms: C_3  and  C_30
    3  A    between atoms: C_6  and  C_28
    4  A    between atoms: C_6  and  C_45
    5  A    between atoms: O_8  and  C_18
    6  A    between atoms: O_8  and  C_51
    7  A    between atoms: C_9  and  O_22
    8  A    between atoms: C_11  and  C_30
    9  A    between atoms: C_11  and  N_43
   10  A    between atoms: C_13  and  O_33
   11  A    between atoms: C_13  and  C_45
   12  A    between atoms: C_15  and  C_25
   13  A    between atoms: O_16  and  C_28
   14  A    between atoms: O_16  and  C_47
   15  A    between atoms: C_18  and  C_49
   16  A    between atoms: C_21  and  O_27
   17  A    between atoms: C_21  and  C_55
   18  A    between atoms: O_22  and  C_45
   19  A    between atoms: C_25  and  C_29
   20  A    between atoms: N_26  and  C_44
   21  A    between atoms: O_27  and  C_37
   22  A    between atoms: C_29  and  N_43
   23  A    between atoms: O_33  and  C_55
   24  A    between atoms: C_37  and  C_41
   25  A    between atoms: C_40  and  C_44
                            x       y       z     vdW  Elec       q    Type
                         _______ _______ _______ _____ _____    ______ ____

>  <TORSDO>
F 25

$$$$
=
 OpenBabel11042410563D

 56 61  0  0  1  0  0  0  0  0999 V2000
  187.6120  177.9610  142.8850 C   0  0  2  0  0  3  0  0  0  0  0  0
  187.0880  178.1090  141.4700 C   0  0  0  0  0  2  0  0  0  0  0  0
  185.6550  178.6090  141.5070 C   0  0  0  0  0  2  0  0  0  0  0  0
  185.3710  179.3970  140.3580 O   0  0  0  0  0  0  0  0  0  0  0  0
  182.5330  178.3660  137.4410 C   0  0  0  0  0  3  0  0  0  0  0  0
  183.2510  179.7540  139.2840 C   0  0  0  0  0  3  0  0  0  0  0  0
  183.7220  177.6360  137.5280 C   0  0  0  0  0  3  0  0  0  0  0  0
  184.6740  177.9660  138.4950 C   0  0  0  0  0  3  0  0  0  0  0  0
  182.2860  179.4390  138.3170 C   0  0  0  0  0  0  0  0  0  0  0  0
  184.4410  179.0320  139.3800 C   0  0  0  0  0  0  0  0  0  0  0  0
  180.0600  179.9500  139.1600 C   0  0  0  0  0  2  0  0  0  0  0  0
  181.0090  180.1980  138.2550 C   0  0  0  0  0  0  0  0  0  0  0  0
  180.5630  183.3350  136.2470 N   0  0  2  0  0  0  0  0  0  0  0  0
  180.7470  182.6360  137.5360 C   0  0  2  0  0  3  0  0  0  0  0  0
  180.7820  181.2140  137.2550 N   0  0  0  0  0  0  0  0  0  0  0  0
  179.4430  183.1980  137.1950 C   0  0  0  0  0  2  0  0  0  0  0  0
  180.4160  182.2970  135.2230 C   0  0  0  0  0  2  0  0  0  0  0  0
  180.7370  180.9510  135.8350 C   0  0  0  0  0  2  0  0  0  0  0  0
  188.2150  176.5800  143.0650 C   0  0  0  0  0  2  0  0  0  0  0  0
  189.1220  176.3310  142.0020 O   0  0  0  0  0  0  0  0  0  0  0  0
  190.7030  177.8080  142.7530 O   0  0  0  0  0  0  0  0  0  0  0  0
  190.2470  177.1360  141.7940 C   0  0  0  0  0  0  0  0  0  0  0  0
  190.9760  177.1260  140.4830 C   0  0  2  0  0  3  0  0  0  0  0  0
  192.4350  177.4950  140.7370 C   0  0  0  0  0  1  0  0  0  0  0  0
  190.3740  178.0350  139.6010 O   0  0  0  0  0  0  0  0  0  0  0  0
  189.2620  177.3880  139.0440 C   0  0  0  0  0  2  0  0  0  0  0  0
  190.4580  174.9580  137.2250 C   0  0  1  0  0  3  0  0  0  0  0  0
  187.2490  175.1310  135.1790 C   0  0  2  0  0  3  0  0  0  0  0  0
  189.5700  172.9480  136.2390 O   0  0  0  0  0  1  0  0  0  0  0  0
  190.6170  176.4880  137.0750 C   0  0  0  0  0  2  0  0  0  0  0  0
  189.5810  174.3420  136.1150 C   0  0  1  0  0  3  0  0  0  0  0  0
  188.0490  177.1310  136.8160 C   0  0  0  0  0  2  0  0  0  0  0  0
  189.4070  177.3450  137.5300 C   0  0  1  0  0  3  0  0  0  0  0  0
  188.1870  174.8690  136.3290 C   0  0  1  0  0  3  0  0  0  0  0  0
  188.2280  176.2110  135.6240 C   0  0  1  0  0  3  0  0  0  0  0  0
  191.7230  174.3640  137.2130 O   0  0  0  0  0  0  0  0  0  0  0  0
  192.5970  175.3890  136.8530 C   0  0  0  0  0  1  0  0  0  0  0  0
  185.8460  175.3460  135.7290 C   0  0  0  0  0  2  0  0  0  0  0  0
  185.4010  174.1810  136.5920 C   0  0  0  0  0  2  0  0  0  0  0  0
  184.1710  173.6230  136.0580 N   0  0  0  0  0  2  0  0  0  0  0  0
  183.2420  173.5050  137.1680 C   0  0  0  0  0  2  0  0  0  0  0  0
  182.0330  174.3800  136.9040 C   0  0  0  0  0  2  0  0  0  0  0  0
  179.9990  173.7410  135.6070 O   0  0  0  0  0  0  0  0  0  0  0  0
  180.8260  173.5320  136.7030 C   0  0  0  0  0  0  0  0  0  0  0  0
  180.5640  172.6120  137.5220 O   0  0  0  0  0  1  0  0  0  0  0  0
  186.5480  178.1640  143.8150 O   0  0  0  0  0  0  0  0  0  0  0  0
  186.7350  178.1730  145.2010 C   0  0  0  0  0  0  0  0  0  0  0  0
  187.1510  178.1300  147.9710 C   0  0  0  0  0  3  0  0  0  0  0  0
  186.0280  178.7690  147.4430 C   0  0  0  0  0  3  0  0  0  0  0  0
  185.8180  178.7900  146.0640 C   0  0  0  0  0  3  0  0  0  0  0  0
  187.8630  177.5410  145.7340 C   0  0  0  0  0  3  0  0  0  0  0  0
  188.0780  177.5130  147.1220 C   0  0  0  0  0  0  0  0  0  0  0  0
  189.1820  176.8640  147.6810 O   0  0  0  0  0  0  0  0  0  0  0  0
  190.4820  177.4370  147.6910 C   0  0  0  0  0  2  0  0  0  0  0  0
  192.0330  175.6110  146.9790 C   0  0  0  0  0  1  0  0  0  0  0  0
  191.3070  176.8720  146.5460 C   0  0  0  0  0  2  0  0  0  0  0  0
  1  2  1  6  0  0  0
  1 19  1  0  0  0  0
  1 46  1  0  0  0  0
  2  3  1  0  0  0  0
  4  3  1  0  0  0  0
  5  7  2  0  0  0  0
  5  9  1  0  0  0  0
  6 10  1  0  0  0  0
  7  8  1  0  0  0  0
  8 10  2  0  0  0  0
  9  6  2  0  0  0  0
 10  4  1  0  0  0  0
 12  9  1  0  0  0  0
 12 11  2  0  0  0  0
 13 17  1  6  0  0  0
 13 16  1  0  0  0  0
 13 14  1  0  0  0  0
 14 16  1  1  0  0  0
 15 14  1  0  0  0  0
 15 12  1  0  0  0  0
 17 18  1  0  0  0  0
 18 15  1  0  0  0  0
 20 19  1  0  0  0  0
 22 20  1  0  0  0  0
 22 21  2  0  0  0  0
 23 24  1  1  0  0  0
 23 22  1  0  0  0  0
 25 23  1  0  0  0  0
 26 25  1  0  0  0  0
 27 36  1  6  0  0  0
 28 35  1  0  0  0  0
 28 38  1  1  0  0  0
 28 34  1  0  0  0  0
 30 27  1  0  0  0  0
 30 33  1  0  0  0  0
 31 29  1  1  0  0  0
 31 34  1  0  0  0  0
 31 27  1  0  0  0  0
 32 33  1  0  0  0  0
 33 26  1  1  0  0  0
 35 34  1  0  0  0  0
 35 32  1  0  0  0  0
 37 36  1  0  0  0  0
 38 39  1  0  0  0  0
 40 39  1  0  0  0  0
 40 41  1  0  0  0  0
 42 41  1  0  0  0  0
 43 44  2  0  0  0  0
 44 42  1  0  0  0  0
 44 45  1  0  0  0  0
 46 47  1  0  0  0  0
 47 51  2  0  0  0  0
 47 50  1  0  0  0  0
 49 48  1  0  0  0  0
 50 49  2  0  0  0  0
 51 52  1  0  0  0  0
 52 53  1  0  0  0  0
 52 48  2  0  0  0  0
 53 54  1  0  0  0  0
 56 55  1  0  0  0  0
 56 54  1  0  0  0  0
M  END
>  <MODEL>
8

>  <REMARK>
 VINA RESULT:      -6.0      3.275     10.206
  Name = 
  25 active torsions:
  status: ('A' for Active; 'I' for Inactive)
    1  A    between atoms: C_1  and  O_5
    2  A    between atoms: C_3  and  C_30
    3  A    between atoms: C_6  and  C_28
    4  A    between atoms: C_6  and  C_45
    5  A    between atoms: O_8  and  C_18
    6  A    between atoms: O_8  and  C_51
    7  A    between atoms: C_9  and  O_22
    8  A    between atoms: C_11  and  C_30
    9  A    between atoms: C_11  and  N_43
   10  A    between atoms: C_13  and  O_33
   11  A    between atoms: C_13  and  C_45
   12  A    between atoms: C_15  and  C_25
   13  A    between atoms: O_16  and  C_28
   14  A    between atoms: O_16  and  C_47
   15  A    between atoms: C_18  and  C_49
   16  A    between atoms: C_21  and  O_27
   17  A    between atoms: C_21  and  C_55
   18  A    between atoms: O_22  and  C_45
   19  A    between atoms: C_25  and  C_29
   20  A    between atoms: N_26  and  C_44
   21  A    between atoms: O_27  and  C_37
   22  A    between atoms: C_29  and  N_43
   23  A    between atoms: O_33  and  C_55
   24  A    between atoms: C_37  and  C_41
   25  A    between atoms: C_40  and  C_44
                            x       y       z     vdW  Elec       q    Type
                         _______ _______ _______ _____ _____    ______ ____

>  <TORSDO>
F 25

$$$$
=
 OpenBabel11042410563D

 56 61  0  0  1  0  0  0  0  0999 V2000
  183.7430  179.3470  143.1660 C   0  0  2  0  0  3  0  0  0  0  0  0
  182.6560  178.6310  143.9440 C   0  0  0  0  0  2  0  0  0  0  0  0
  181.3990  178.5420  143.0980 C   0  0  0  0  0  2  0  0  0  0  0  0
  181.5090  179.3730  141.9500 O   0  0  0  0  0  0  0  0  0  0  0  0
  181.4260  177.8490  138.0400 C   0  0  0  0  0  3  0  0  0  0  0  0
  181.0610  177.5810  140.4130 C   0  0  0  0  0  3  0  0  0  0  0  0
  181.8600  179.1600  138.2550 C   0  0  0  0  0  3  0  0  0  0  0  0
  181.8950  179.6800  139.5510 C   0  0  0  0  0  3  0  0  0  0  0  0
  181.0160  177.0440  139.1190 C   0  0  0  0  0  0  0  0  0  0  0  0
  181.4930  178.8890  140.6400 C   0  0  0  0  0  0  0  0  0  0  0  0
  179.7220  175.0830  139.7540 C   0  0  0  0  0  2  0  0  0  0  0  0
  180.5880  175.6370  138.9040 C   0  0  0  0  0  0  0  0  0  0  0  0
  182.5340  173.7520  136.3100 N   0  0  2  0  0  0  0  0  0  0  0  0
  182.4680  174.6410  137.4880 C   0  0  2  0  0  3  0  0  0  0  0  0
  181.0660  174.8650  137.7810 N   0  0  0  0  0  0  0  0  0  0  0  0
  182.8170  175.1920  136.1810 C   0  0  0  0  0  2  0  0  0  0  0  0
  181.1530  173.5230  135.8770 C   0  0  0  0  0  2  0  0  0  0  0  0
  180.2100  174.0820  136.9200 C   0  0  0  0  0  2  0  0  0  0  0  0
  184.4070  178.3780  142.2060 C   0  0  0  0  0  2  0  0  0  0  0  0
  185.4700  179.0430  141.5410 O   0  0  0  0  0  0  0  0  0  0  0  0
  185.2600  178.4930  139.3270 O   0  0  0  0  0  0  0  0  0  0  0  0
  186.0020  178.5600  140.3400 C   0  0  0  0  0  0  0  0  0  0  0  0
  187.4590  178.2280  140.2150 C   0  0  2  0  0  3  0  0  0  0  0  0
  188.2160  178.9340  141.3370 C   0  0  0  0  0  1  0  0  0  0  0  0
  187.9300  178.6340  138.9580 O   0  0  0  0  0  0  0  0  0  0  0  0
  189.3020  178.3470  138.9240 C   0  0  0  0  0  2  0  0  0  0  0  0
  188.7540  176.2350  136.4980 C   0  0  1  0  0  3  0  0  0  0  0  0
  192.3130  174.9770  137.0110 C   0  0  2  0  0  3  0  0  0  0  0  0
  190.0070  175.4190  134.6100 O   0  0  0  0  0  1  0  0  0  0  0  0
  188.5030  176.0970  138.0170 C   0  0  0  0  0  2  0  0  0  0  0  0
  189.9060  175.3360  136.0030 C   0  0  1  0  0  3  0  0  0  0  0  0
  191.0000  176.4460  138.8640 C   0  0  0  0  0  2  0  0  0  0  0  0
  189.5030  176.8390  138.9410 C   0  0  1  0  0  3  0  0  0  0  0  0
  191.1670  175.8760  136.6240 C   0  0  1  0  0  3  0  0  0  0  0  0
  191.1700  175.2180  137.9910 C   0  0  1  0  0  3  0  0  0  0  0  0
  187.5790  175.9200  135.8100 O   0  0  0  0  0  0  0  0  0  0  0  0
  186.7910  177.0670  135.9000 C   0  0  0  0  0  1  0  0  0  0  0  0
  193.5330  175.8370  137.3050 C   0  0  0  0  0  2  0  0  0  0  0  0
  194.8030  175.2090  136.7630 C   0  0  0  0  0  2  0  0  0  0  0  0
  195.0260  173.9290  137.4110 N   0  0  0  0  0  2  0  0  0  0  0  0
  195.6580  174.2060  138.6900 C   0  0  0  0  0  2  0  0  0  0  0  0
  197.1500  174.3830  138.4830 C   0  0  0  0  0  2  0  0  0  0  0  0
  199.1400  175.1090  139.8000 O   0  0  0  0  0  0  0  0  0  0  0  0
  197.7600  175.0040  139.6900 C   0  0  0  0  0  0  0  0  0  0  0  0
  197.0200  175.4500  140.6070 O   0  0  0  0  0  1  0  0  0  0  0  0
  184.7050  179.8870  144.0720 O   0  0  0  0  0  0  0  0  0  0  0  0
  185.4400  179.0990  144.9640 C   0  0  0  0  0  0  0  0  0  0  0  0
  186.9360  177.4810  146.6940 C   0  0  0  0  0  3  0  0  0  0  0  0
  185.8200  178.1700  147.1720 C   0  0  0  0  0  3  0  0  0  0  0  0
  185.0730  178.9750  146.3110 C   0  0  0  0  0  3  0  0  0  0  0  0
  186.5640  178.4140  144.4920 C   0  0  0  0  0  3  0  0  0  0  0  0
  187.3180  177.5980  145.3520 C   0  0  0  0  0  0  0  0  0  0  0  0
  188.4280  176.8820  144.8980 O   0  0  0  0  0  0  0  0  0  0  0  0
  189.7410  177.4260  144.8910 C   0  0  0  0  0  2  0  0  0  0  0  0
  189.9060  175.8790  142.9360 C   0  0  0  0  0  1  0  0  0  0  0  0
  190.3980  177.1810  143.5420 C   0  0  0  0  0  2  0  0  0  0  0  0
  1 19  1  6  0  0  0
  1  2  1  0  0  0  0
  1 46  1  0  0  0  0
  3  2  1  0  0  0  0
  4  3  1  0  0  0  0
  5  7  2  0  0  0  0
  5  9  1  0  0  0  0
  6 10  1  0  0  0  0
  7  8  1  0  0  0  0
  8 10  2  0  0  0  0
  9  6  2  0  0  0  0
 10  4  1  0  0  0  0
 12  9  1  0  0  0  0
 12 11  2  0  0  0  0
 13 17  1  6  0  0  0
 13 14  1  0  0  0  0
 14 16  1  6  0  0  0
 14 15  1  0  0  0  0
 15 12  1  0  0  0  0
 16 13  1  0  0  0  0
 17 18  1  0  0  0  0
 18 15  1  0  0  0  0
 20 19  1  0  0  0  0
 21 22  2  0  0  0  0
 22 20  1  0  0  0  0
 23 22  1  0  0  0  0
 23 24  1  1  0  0  0
 25 23  1  0  0  0  0
 26 25  1  0  0  0  0
 27 36  1  6  0  0  0
 27 30  1  0  0  0  0
 28 38  1  1  0  0  0
 28 35  1  0  0  0  0
 30 33  1  0  0  0  0
 31 29  1  6  0  0  0
 31 27  1  0  0  0  0
 31 34  1  0  0  0  0
 32 33  1  0  0  0  0
 33 26  1  6  0  0  0
 34 28  1  0  0  0  0
 34 35  1  0  0  0  0
 35 32  1  0  0  0  0
 36 37  1  0  0  0  0
 39 38  1  0  0  0  0
 39 40  1  0  0  0  0
 40 41  1  0  0  0  0
 42 41  1  0  0  0  0
 42 44  1  0  0  0  0
 44 43  2  0  0  0  0
 44 45  1  0  0  0  0
 46 47  1  0  0  0  0
 47 50  1  0  0  0  0
 48 49  1  0  0  0  0
 50 49  2  0  0  0  0
 51 47  2  0  0  0  0
 51 52  1  0  0  0  0
 52 48  2  0  0  0  0
 53 52  1  0  0  0  0
 54 53  1  0  0  0  0
 55 56  1  0  0  0  0
 56 54  1  0  0  0  0
M  END
>  <MODEL>
9

>  <REMARK>
 VINA RESULT:      -5.8      2.667     10.860
  Name = 
  25 active torsions:
  status: ('A' for Active; 'I' for Inactive)
    1  A    between atoms: C_1  and  O_5
    2  A    between atoms: C_3  and  C_30
    3  A    between atoms: C_6  and  C_28
    4  A    between atoms: C_6  and  C_45
    5  A    between atoms: O_8  and  C_18
    6  A    between atoms: O_8  and  C_51
    7  A    between atoms: C_9  and  O_22
    8  A    between atoms: C_11  and  C_30
    9  A    between atoms: C_11  and  N_43
   10  A    between atoms: C_13  and  O_33
   11  A    between atoms: C_13  and  C_45
   12  A    between atoms: C_15  and  C_25
   13  A    between atoms: O_16  and  C_28
   14  A    between atoms: O_16  and  C_47
   15  A    between atoms: C_18  and  C_49
   16  A    between atoms: C_21  and  O_27
   17  A    between atoms: C_21  and  C_55
   18  A    between atoms: O_22  and  C_45
   19  A    between atoms: C_25  and  C_29
   20  A    between atoms: N_26  and  C_44
   21  A    between atoms: O_27  and  C_37
   22  A    between atoms: C_29  and  N_43
   23  A    between atoms: O_33  and  C_55
   24  A    between atoms: C_37  and  C_41
   25  A    between atoms: C_40  and  C_44
                            x       y       z     vdW  Elec       q    Type
                         _______ _______ _______ _____ _____    ______ ____

>  <TORSDO>
F 25

$$$$
