=
 OpenBabel11042413093D

 32 34  0  0  1  0  0  0  0  0999 V2000
  188.3950  178.4530  139.9830 C   0  0  2  0  0  3  0  0  0  0  0  0
  188.9270  179.5200  137.9290 O   0  0  0  0  0  0  0  0  0  0  0  0
  188.5740  178.4550  138.4990 C   0  0  0  0  0  0  0  0  0  0  0  0
  188.3500  177.2520  137.7470 N   0  0  0  0  0  2  0  0  0  0  0  0
  187.6020  177.3450  135.4500 C   0  0  0  0  0  2  0  0  0  0  0  0
  188.5500  177.0650  136.3390 C   0  0  0  0  0  0  0  0  0  0  0  0
  189.9040  176.6950  135.8480 C   0  0  0  0  0  2  0  0  0  0  0  0
  190.6850  176.2460  136.9120 O   0  0  0  0  0  1  0  0  0  0  0  0
  189.1320  177.2810  140.6300 C   0  0  0  0  0  2  0  0  0  0  0  0
  190.3220  177.7240  141.2750 O   0  0  0  0  0  0  0  0  0  0  0  0
  190.1630  178.2680  143.6530 C   0  0  0  0  0  3  0  0  0  0  0  0
  190.4640  177.9540  144.9810 C   0  0  0  0  0  3  0  0  0  0  0  0
  191.6540  175.9820  144.2440 C   0  0  0  0  0  3  0  0  0  0  0  0
  190.6050  177.4380  142.6120 C   0  0  0  0  0  0  0  0  0  0  0  0
  191.2120  176.8090  145.2850 C   0  0  0  0  0  0  0  0  0  0  0  0
  191.3510  176.2950  142.9150 C   0  0  0  0  0  3  0  0  0  0  0  0
  191.5240  176.4890  146.6500 N   0  0  0  0  0  0  0  0  0  0  0  0
  190.9190  177.1600  147.6600 O   0  0  0  0  0  1  0  0  0  0  0  0
  192.5010  175.5930  146.9440 O   0  0  0  0  0  0  0  0  0  0  0  0
  192.7370  175.7390  148.3140 C   0  0  0  0  0  1  0  0  0  0  0  0
  186.9160  178.4730  140.3560 C   0  0  0  0  0  2  0  0  0  0  0  0
  186.7180  178.8330  141.8230 C   0  0  0  0  0  2  0  0  0  0  0  0
  184.2710  178.4140  142.1120 C   0  0  0  0  0  3  0  0  0  0  0  0
  185.7140  178.0750  143.9660 C   0  0  0  0  0  0  0  0  0  0  0  0
  186.7340  177.7370  144.8570 C   0  0  0  0  0  3  0  0  0  0  0  0
  187.5410  177.6270  147.1640 N   0  0  0  0  0  1  0  0  0  0  0  0
  185.2990  178.4900  146.6800 C   0  0  0  0  0  3  0  0  0  0  0  0
  185.6880  177.9240  142.4850 C   0  0  2  0  0  3  0  0  0  0  0  0
  186.5200  177.9540  146.2290 C   0  0  0  0  0  0  0  0  0  0  0  0
  183.6200  178.8240  143.3560 N   0  0  0  0  0  0  0  0  0  0  0  0
  184.5270  178.5870  144.4090 C   0  0  0  0  0  0  0  0  0  0  0  0
  184.2840  178.8110  145.7640 C   0  0  0  0  0  3  0  0  0  0  0  0
  1 21  1  6  0  0  0
  1  9  1  0  0  0  0
  2  3  2  0  0  0  0
  3  1  1  0  0  0  0
  4  3  1  0  0  0  0
  5  6  2  0  0  0  0
  6  4  1  0  0  0  0
  7  6  1  0  0  0  0
  7  8  1  0  0  0  0
  9 10  1  0  0  0  0
 10 14  1  0  0  0  0
 11 12  1  0  0  0  0
 12 15  2  0  0  0  0
 13 15  1  0  0  0  0
 14 16  1  0  0  0  0
 14 11  2  0  0  0  0
 15 17  1  0  0  0  0
 16 13  2  0  0  0  0
 17 19  1  0  0  0  0
 17 18  1  0  0  0  0
 19 20  1  0  0  0  0
 21 22  1  0  0  0  0
 23 28  1  0  0  0  0
 23 30  2  0  0  0  0
 24 31  2  0  0  0  0
 24 25  1  0  0  0  0
 25 29  2  0  0  0  0
 28 22  1  6  0  0  0
 28 24  1  0  0  0  0
 29 27  1  0  0  0  0
 29 26  1  0  0  0  0
 30 31  1  0  0  0  0
 31 32  1  0  0  0  0
 32 27  2  0  0  0  0
M  END
>  <MODEL>
1

>  <REMARK>
 VINA RESULT:      -8.3      0.000      0.000
  Name = 
  11 active torsions:
  status: ('A' for Active; 'I' for Inactive)
    1  A    between atoms: O_7  and  C_12
    2  A    between atoms: O_7  and  C_19
    3  A    between atoms: C_9  and  C_13
    4  A    between atoms: N_11  and  O_24
    5  A    between atoms: N_11  and  C_26
    6  A    between atoms: C_12  and  C_13
    7  A    between atoms: C_13  and  C_18
    8  A    between atoms: C_15  and  C_16
    9  A    between atoms: C_15  and  C_18
   10  A    between atoms: N_17  and  CA_31
   11  A    between atoms: C_25  and  CA_31
                            x       y       z     vdW  Elec       q    Type
                         _______ _______ _______ _____ _____    ______ ____

>  <TORSDO>
F 11

$$$$
=
 OpenBabel11042413093D

 32 34  0  0  1  0  0  0  0  0999 V2000
  189.0790  177.0990  140.9080 C   0  0  2  0  0  3  0  0  0  0  0  0
  189.8920  178.0770  138.9010 O   0  0  0  0  0  0  0  0  0  0  0  0
  189.9100  177.0760  139.6660 C   0  0  0  0  0  0  0  0  0  0  0  0
  190.7160  175.9280  139.3610 N   0  0  0  0  0  2  0  0  0  0  0  0
  192.7520  176.4710  138.1750 C   0  0  0  0  0  2  0  0  0  0  0  0
  191.6220  175.7760  138.2590 C   0  0  0  0  0  0  0  0  0  0  0  0
  191.3680  174.7010  137.2630 C   0  0  0  0  0  2  0  0  0  0  0  0
  190.2830  173.9270  137.6720 O   0  0  0  0  0  1  0  0  0  0  0  0
  188.4360  178.4690  141.1210 C   0  0  0  0  0  2  0  0  0  0  0  0
  187.1970  178.5620  140.4260 O   0  0  0  0  0  0  0  0  0  0  0  0
  185.8720  178.5370  142.4800 C   0  0  0  0  0  3  0  0  0  0  0  0
  184.6260  178.6120  143.1080 C   0  0  0  0  0  3  0  0  0  0  0  0
  183.5580  178.8750  140.9540 C   0  0  0  0  0  3  0  0  0  0  0  0
  185.9670  178.6330  141.0840 C   0  0  0  0  0  0  0  0  0  0  0  0
  183.4600  178.7800  142.3490 C   0  0  0  0  0  0  0  0  0  0  0  0
  184.8050  178.8020  140.3260 C   0  0  0  0  0  3  0  0  0  0  0  0
  182.1790  178.8550  142.9950 N   0  0  0  0  0  0  0  0  0  0  0  0
  182.0720  178.5940  144.3200 O   0  0  0  0  0  1  0  0  0  0  0  0
  181.0520  179.0760  142.2710 O   0  0  0  0  0  0  0  0  0  0  0  0
  179.9950  178.7280  143.1160 C   0  0  0  0  0  1  0  0  0  0  0  0
  189.8930  176.6560  142.1190 C   0  0  0  0  0  2  0  0  0  0  0  0
  189.0510  176.6650  143.3880 C   0  0  0  0  0  2  0  0  0  0  0  0
  190.9070  177.1980  144.9740 C   0  0  0  0  0  3  0  0  0  0  0  0
  188.6850  177.7570  145.5900 C   0  0  0  0  0  0  0  0  0  0  0  0
  187.3600  178.1880  145.6750 C   0  0  0  0  0  3  0  0  0  0  0  0
  185.3830  178.6070  147.0540 N   0  0  0  0  0  1  0  0  0  0  0  0
  187.4410  177.7530  148.0730 C   0  0  0  0  0  3  0  0  0  0  0  0
  189.5640  177.6920  144.3910 C   0  0  2  0  0  3  0  0  0  0  0  0
  186.7340  178.1800  146.9320 C   0  0  0  0  0  0  0  0  0  0  0  0
  190.7020  176.9930  146.4070 N   0  0  0  0  0  0  0  0  0  0  0  0
  189.3690  177.3520  146.7010 C   0  0  0  0  0  0  0  0  0  0  0  0
  188.7770  177.3350  147.9640 C   0  0  0  0  0  3  0  0  0  0  0  0
  1  9  1  1  0  0  0
  1 21  1  0  0  0  0
  2  3  2  0  0  0  0
  3  1  1  0  0  0  0
  4  3  1  0  0  0  0
  5  6  2  0  0  0  0
  6  4  1  0  0  0  0
  7  8  1  0  0  0  0
  7  6  1  0  0  0  0
 10 14  1  0  0  0  0
 10  9  1  0  0  0  0
 11 12  1  0  0  0  0
 13 15  1  0  0  0  0
 14 11  2  0  0  0  0
 15 17  1  0  0  0  0
 15 12  2  0  0  0  0
 16 13  2  0  0  0  0
 16 14  1  0  0  0  0
 17 18  1  0  0  0  0
 19 17  1  0  0  0  0
 19 20  1  0  0  0  0
 21 22  1  0  0  0  0
 23 30  2  0  0  0  0
 24 25  2  0  0  0  0
 24 31  1  0  0  0  0
 25 29  1  0  0  0  0
 28 22  1  6  0  0  0
 28 23  1  0  0  0  0
 28 24  1  0  0  0  0
 29 26  1  0  0  0  0
 29 27  2  0  0  0  0
 30 31  1  0  0  0  0
 31 32  2  0  0  0  0
 32 27  1  0  0  0  0
M  END
>  <MODEL>
2

>  <REMARK>
 VINA RESULT:      -8.1      3.011      6.132
  Name = 
  11 active torsions:
  status: ('A' for Active; 'I' for Inactive)
    1  A    between atoms: O_7  and  C_12
    2  A    between atoms: O_7  and  C_19
    3  A    between atoms: C_9  and  C_13
    4  A    between atoms: N_11  and  O_24
    5  A    between atoms: N_11  and  C_26
    6  A    between atoms: C_12  and  C_13
    7  A    between atoms: C_13  and  C_18
    8  A    between atoms: C_15  and  C_16
    9  A    between atoms: C_15  and  C_18
   10  A    between atoms: N_17  and  CA_31
   11  A    between atoms: C_25  and  CA_31
                            x       y       z     vdW  Elec       q    Type
                         _______ _______ _______ _____ _____    ______ ____

>  <TORSDO>
F 11

$$$$
=
 OpenBabel11042413093D

 32 34  0  0  1  0  0  0  0  0999 V2000
  188.2210  177.5740  141.2760 C   0  0  2  0  0  3  0  0  0  0  0  0
  189.2300  176.8110  139.2650 O   0  0  0  0  0  0  0  0  0  0  0  0
  188.3140  177.5010  139.7870 C   0  0  0  0  0  0  0  0  0  0  0  0
  187.3650  178.2060  138.9720 N   0  0  0  0  0  2  0  0  0  0  0  0
  186.2070  177.6790  136.9160 C   0  0  0  0  0  2  0  0  0  0  0  0
  187.2670  178.1800  137.5410 C   0  0  0  0  0  0  0  0  0  0  0  0
  188.3090  178.8740  136.7370 C   0  0  0  0  0  2  0  0  0  0  0  0
  188.9340  179.8480  137.5150 O   0  0  0  0  0  1  0  0  0  0  0  0
  187.2130  178.6330  141.7190 C   0  0  0  0  0  2  0  0  0  0  0  0
  186.3560  178.1250  142.7350 O   0  0  0  0  0  0  0  0  0  0  0  0
  184.3190  178.6710  143.9730 C   0  0  0  0  0  3  0  0  0  0  0  0
  182.9460  178.9340  143.9730 C   0  0  0  0  0  3  0  0  0  0  0  0
  182.8920  178.6430  141.5720 C   0  0  0  0  0  3  0  0  0  0  0  0
  184.9860  178.3930  142.7700 C   0  0  0  0  0  0  0  0  0  0  0  0
  182.2230  178.9210  142.7720 C   0  0  0  0  0  0  0  0  0  0  0  0
  184.2650  178.3810  141.5720 C   0  0  0  0  0  3  0  0  0  0  0  0
  180.8130  179.1900  142.7730 N   0  0  0  0  0  0  0  0  0  0  0  0
  179.9290  178.1740  142.6130 O   0  0  0  0  0  1  0  0  0  0  0  0
  180.3520  180.4660  142.8230 O   0  0  0  0  0  0  0  0  0  0  0  0
  179.6090  180.6370  141.6510 C   0  0  0  0  0  1  0  0  0  0  0  0
  189.5950  177.7970  141.9010 C   0  0  0  0  0  2  0  0  0  0  0  0
  189.7570  176.9980  143.1870 C   0  0  0  0  0  2  0  0  0  0  0  0
  191.5640  177.3680  144.8740 C   0  0  0  0  0  3  0  0  0  0  0  0
  189.3100  177.7370  145.5170 C   0  0  0  0  0  0  0  0  0  0  0  0
  187.9650  178.0960  145.6350 C   0  0  0  0  0  3  0  0  0  0  0  0
  185.9510  178.2230  147.0170 N   0  0  0  0  0  1  0  0  0  0  0  0
  188.0290  177.3140  147.9450 C   0  0  0  0  0  3  0  0  0  0  0  0
  190.2100  177.8870  144.3410 C   0  0  2  0  0  3  0  0  0  0  0  0
  187.3210  177.8750  146.8640 C   0  0  0  0  0  0  0  0  0  0  0  0
  191.3450  176.9450  146.2570 N   0  0  0  0  0  0  0  0  0  0  0  0
  189.9940  177.2010  146.5710 C   0  0  0  0  0  0  0  0  0  0  0  0
  189.3840  176.9730  147.8040 C   0  0  0  0  0  3  0  0  0  0  0  0
  1  9  1  6  0  0  0
  1 21  1  0  0  0  0
  2  3  2  0  0  0  0
  3  1  1  0  0  0  0
  4  3  1  0  0  0  0
  5  6  2  0  0  0  0
  6  4  1  0  0  0  0
  7  8  1  0  0  0  0
  7  6  1  0  0  0  0
  9 10  1  0  0  0  0
 10 14  1  0  0  0  0
 12 11  1  0  0  0  0
 13 16  2  0  0  0  0
 13 15  1  0  0  0  0
 14 11  2  0  0  0  0
 15 17  1  0  0  0  0
 15 12  2  0  0  0  0
 16 14  1  0  0  0  0
 17 19  1  0  0  0  0
 18 17  1  0  0  0  0
 20 19  1  0  0  0  0
 21 22  1  0  0  0  0
 23 30  2  0  0  0  0
 24 25  2  0  0  0  0
 24 31  1  0  0  0  0
 25 29  1  0  0  0  0
 28 22  1  6  0  0  0
 28 23  1  0  0  0  0
 28 24  1  0  0  0  0
 29 26  1  0  0  0  0
 29 27  2  0  0  0  0
 30 31  1  0  0  0  0
 31 32  2  0  0  0  0
 32 27  1  0  0  0  0
M  END
>  <MODEL>
3

>  <REMARK>
 VINA RESULT:      -8.1      3.168      6.702
  Name = 
  11 active torsions:
  status: ('A' for Active; 'I' for Inactive)
    1  A    between atoms: O_7  and  C_12
    2  A    between atoms: O_7  and  C_19
    3  A    between atoms: C_9  and  C_13
    4  A    between atoms: N_11  and  O_24
    5  A    between atoms: N_11  and  C_26
    6  A    between atoms: C_12  and  C_13
    7  A    between atoms: C_13  and  C_18
    8  A    between atoms: C_15  and  C_16
    9  A    between atoms: C_15  and  C_18
   10  A    between atoms: N_17  and  CA_31
   11  A    between atoms: C_25  and  CA_31
                            x       y       z     vdW  Elec       q    Type
                         _______ _______ _______ _____ _____    ______ ____

>  <TORSDO>
F 11

$$$$
=
 OpenBabel11042413093D

 32 34  0  0  1  0  0  0  0  0999 V2000
  185.3830  179.2370  141.3800 C   0  0  2  0  0  3  0  0  0  0  0  0
  184.5390  180.1270  139.3460 O   0  0  0  0  0  0  0  0  0  0  0  0
  184.6720  179.1060  140.0720 C   0  0  0  0  0  0  0  0  0  0  0  0
  184.1570  177.8310  139.6580 N   0  0  0  0  0  2  0  0  0  0  0  0
  182.2220  177.7140  138.2140 C   0  0  0  0  0  2  0  0  0  0  0  0
  183.5220  177.5200  138.4100 C   0  0  0  0  0  0  0  0  0  0  0  0
  184.3680  177.1190  137.2540 C   0  0  0  0  0  2  0  0  0  0  0  0
  185.6970  177.0060  137.6590 O   0  0  0  0  0  1  0  0  0  0  0  0
  186.7790  178.6200  141.3180 C   0  0  0  0  0  2  0  0  0  0  0  0
  187.2790  178.6310  139.9850 O   0  0  0  0  0  0  0  0  0  0  0  0
  188.9790  178.0820  138.3150 C   0  0  0  0  0  3  0  0  0  0  0  0
  190.2210  177.5230  138.0020 C   0  0  0  0  0  3  0  0  0  0  0  0
  190.5500  176.9540  140.3300 C   0  0  0  0  0  3  0  0  0  0  0  0
  188.5160  178.0810  139.6390 C   0  0  0  0  0  0  0  0  0  0  0  0
  191.0150  176.9550  139.0070 C   0  0  0  0  0  0  0  0  0  0  0  0
  189.3080  177.5150  140.6430 C   0  0  0  0  0  3  0  0  0  0  0  0
  192.2900  176.3780  138.6850 N   0  0  0  0  0  0  0  0  0  0  0  0
  193.4320  177.0240  139.0270 O   0  0  0  0  0  1  0  0  0  0  0  0
  192.3680  175.2440  137.9440 O   0  0  0  0  0  0  0  0  0  0  0  0
  193.5520  175.3620  137.2100 C   0  0  0  0  0  1  0  0  0  0  0  0
  184.5510  178.6520  142.5170 C   0  0  0  0  0  2  0  0  0  0  0  0
  184.9820  179.2120  143.8670 C   0  0  0  0  0  2  0  0  0  0  0  0
  184.5170  178.6230  146.2500 C   0  0  0  0  0  3  0  0  0  0  0  0
  186.5240  177.8430  145.2530 C   0  0  0  0  0  0  0  0  0  0  0  0
  187.5280  177.3150  144.4390 C   0  0  0  0  0  3  0  0  0  0  0  0
  189.8540  176.6010  144.1860 N   0  0  0  0  0  1  0  0  0  0  0  0
  189.0540  177.4670  146.3350 C   0  0  0  0  0  3  0  0  0  0  0  0
  185.1000  178.1100  144.9150 C   0  0  2  0  0  3  0  0  0  0  0  0
  188.8070  177.1310  144.9900 C   0  0  0  0  0  0  0  0  0  0  0  0
  185.6150  178.6420  147.2170 N   0  0  0  0  0  0  0  0  0  0  0  0
  186.7670  178.1600  146.5600 C   0  0  0  0  0  0  0  0  0  0  0  0
  188.0250  177.9860  147.1370 C   0  0  0  0  0  3  0  0  0  0  0  0
  1  9  1  6  0  0  0
  1 21  1  0  0  0  0
  2  3  2  0  0  0  0
  3  1  1  0  0  0  0
  4  3  1  0  0  0  0
  5  6  2  0  0  0  0
  6  4  1  0  0  0  0
  7  8  1  0  0  0  0
  7  6  1  0  0  0  0
 10  9  1  0  0  0  0
 11 14  1  0  0  0  0
 12 11  2  0  0  0  0
 12 15  1  0  0  0  0
 13 16  1  0  0  0  0
 14 10  1  0  0  0  0
 14 16  2  0  0  0  0
 15 13  2  0  0  0  0
 17 15  1  0  0  0  0
 17 18  1  0  0  0  0
 19 17  1  0  0  0  0
 20 19  1  0  0  0  0
 21 22  1  0  0  0  0
 23 30  2  0  0  0  0
 24 31  1  0  0  0  0
 25 29  1  0  0  0  0
 25 24  2  0  0  0  0
 26 29  1  0  0  0  0
 27 32  1  0  0  0  0
 28 22  1  6  0  0  0
 28 24  1  0  0  0  0
 28 23  1  0  0  0  0
 29 27  2  0  0  0  0
 31 32  2  0  0  0  0
 31 30  1  0  0  0  0
M  END
>  <MODEL>
4

>  <REMARK>
 VINA RESULT:      -7.8      3.046      5.172
  Name = 
  11 active torsions:
  status: ('A' for Active; 'I' for Inactive)
    1  A    between atoms: O_7  and  C_12
    2  A    between atoms: O_7  and  C_19
    3  A    between atoms: C_9  and  C_13
    4  A    between atoms: N_11  and  O_24
    5  A    between atoms: N_11  and  C_26
    6  A    between atoms: C_12  and  C_13
    7  A    between atoms: C_13  and  C_18
    8  A    between atoms: C_15  and  C_16
    9  A    between atoms: C_15  and  C_18
   10  A    between atoms: N_17  and  CA_31
   11  A    between atoms: C_25  and  CA_31
                            x       y       z     vdW  Elec       q    Type
                         _______ _______ _______ _____ _____    ______ ____

>  <TORSDO>
F 11

$$$$
=
 OpenBabel11042413093D

 32 34  0  0  1  0  0  0  0  0999 V2000
  184.8360  178.8410  141.9980 C   0  0  2  0  0  3  0  0  0  0  0  0
  183.0030  177.7890  140.9140 O   0  0  0  0  0  0  0  0  0  0  0  0
  183.3790  178.5470  141.8470 C   0  0  0  0  0  0  0  0  0  0  0  0
  182.4310  179.1200  142.7620 N   0  0  0  0  0  2  0  0  0  0  0  0
  180.4430  178.2290  143.8090 C   0  0  0  0  0  2  0  0  0  0  0  0
  181.0170  178.8800  142.8030 C   0  0  0  0  0  0  0  0  0  0  0  0
  180.1510  179.5130  141.7730 C   0  0  0  0  0  2  0  0  0  0  0  0
  179.9210  180.8480  142.1050 O   0  0  0  0  0  1  0  0  0  0  0  0
  185.5500  178.8180  140.6480 C   0  0  0  0  0  2  0  0  0  0  0  0
  186.9410  179.0740  140.8050 O   0  0  0  0  0  0  0  0  0  0  0  0
  187.8480  178.0300  138.7880 C   0  0  0  0  0  3  0  0  0  0  0  0
  188.8480  177.2730  138.1720 C   0  0  0  0  0  3  0  0  0  0  0  0
  190.0090  177.0890  140.2860 C   0  0  0  0  0  3  0  0  0  0  0  0
  187.9250  178.3210  140.1580 C   0  0  0  0  0  0  0  0  0  0  0  0
  189.9350  176.7970  138.9170 C   0  0  0  0  0  0  0  0  0  0  0  0
  189.0100  177.8470  140.9020 C   0  0  0  0  0  3  0  0  0  0  0  0
  190.9610  176.0170  138.2830 N   0  0  0  0  0  0  0  0  0  0  0  0
  190.8390  174.6690  138.2070 O   0  0  0  0  0  1  0  0  0  0  0  0
  192.1090  176.6020  137.8550 O   0  0  0  0  0  0  0  0  0  0  0  0
  193.0110  175.5520  137.6630 C   0  0  0  0  0  1  0  0  0  0  0  0
  185.4850  177.8950  143.0040 C   0  0  0  0  0  2  0  0  0  0  0  0
  185.9730  178.6450  144.2370 C   0  0  0  0  0  2  0  0  0  0  0  0
  184.9130  178.4420  146.4910 C   0  0  0  0  0  3  0  0  0  0  0  0
  187.1730  177.7690  146.2280 C   0  0  0  0  0  0  0  0  0  0  0  0
  188.4010  177.2390  145.8290 C   0  0  0  0  0  3  0  0  0  0  0  0
  190.7550  176.8070  146.3370 N   0  0  0  0  0  1  0  0  0  0  0  0
  189.3240  177.9350  147.9760 C   0  0  0  0  0  3  0  0  0  0  0  0
  185.8820  177.7780  145.4880 C   0  0  2  0  0  3  0  0  0  0  0  0
  189.4870  177.3300  146.7150 C   0  0  0  0  0  0  0  0  0  0  0  0
  185.6940  178.7820  147.6800 N   0  0  0  0  0  0  0  0  0  0  0  0
  187.0180  178.3460  147.4570 C   0  0  0  0  0  0  0  0  0  0  0  0
  188.0750  178.4490  148.3600 C   0  0  0  0  0  3  0  0  0  0  0  0
  1  9  1  6  0  0  0
  1 21  1  0  0  0  0
  2  3  2  0  0  0  0
  3  1  1  0  0  0  0
  3  4  1  0  0  0  0
  4  6  1  0  0  0  0
  6  5  2  0  0  0  0
  7  8  1  0  0  0  0
  7  6  1  0  0  0  0
  9 10  1  0  0  0  0
 11 14  1  0  0  0  0
 12 11  2  0  0  0  0
 12 15  1  0  0  0  0
 13 16  1  0  0  0  0
 14 10  1  0  0  0  0
 14 16  2  0  0  0  0
 15 13  2  0  0  0  0
 17 15  1  0  0  0  0
 18 17  1  0  0  0  0
 19 17  1  0  0  0  0
 20 19  1  0  0  0  0
 21 22  1  0  0  0  0
 23 30  2  0  0  0  0
 24 31  1  0  0  0  0
 25 24  2  0  0  0  0
 25 29  1  0  0  0  0
 26 29  1  0  0  0  0
 27 32  1  0  0  0  0
 28 22  1  6  0  0  0
 28 24  1  0  0  0  0
 28 23  1  0  0  0  0
 29 27  2  0  0  0  0
 31 30  1  0  0  0  0
 31 32  2  0  0  0  0
M  END
>  <MODEL>
5

>  <REMARK>
 VINA RESULT:      -7.8      2.988      6.626
  Name = 
  11 active torsions:
  status: ('A' for Active; 'I' for Inactive)
    1  A    between atoms: O_7  and  C_12
    2  A    between atoms: O_7  and  C_19
    3  A    between atoms: C_9  and  C_13
    4  A    between atoms: N_11  and  O_24
    5  A    between atoms: N_11  and  C_26
    6  A    between atoms: C_12  and  C_13
    7  A    between atoms: C_13  and  C_18
    8  A    between atoms: C_15  and  C_16
    9  A    between atoms: C_15  and  C_18
   10  A    between atoms: N_17  and  CA_31
   11  A    between atoms: C_25  and  CA_31
                            x       y       z     vdW  Elec       q    Type
                         _______ _______ _______ _____ _____    ______ ____

>  <TORSDO>
F 11

$$$$
=
 OpenBabel11042413093D

 32 34  0  0  1  0  0  0  0  0999 V2000
  183.5300  179.2070  143.4290 C   0  0  2  0  0  3  0  0  0  0  0  0
  181.2960  178.7040  144.0580 O   0  0  0  0  0  0  0  0  0  0  0  0
  182.1010  178.9110  143.1120 C   0  0  0  0  0  0  0  0  0  0  0  0
  181.6610  178.8730  141.7450 N   0  0  0  0  0  2  0  0  0  0  0  0
  179.4880  179.6990  141.0830 C   0  0  0  0  0  2  0  0  0  0  0  0
  180.3190  178.6800  141.2740 C   0  0  0  0  0  0  0  0  0  0  0  0
  179.8980  177.3210  140.8410 C   0  0  0  0  0  2  0  0  0  0  0  0
  179.2150  176.6860  141.8770 O   0  0  0  0  0  1  0  0  0  0  0  0
  184.4750  178.4280  142.5150 C   0  0  0  0  0  2  0  0  0  0  0  0
  184.9270  179.2440  141.4390 O   0  0  0  0  0  0  0  0  0  0  0  0
  187.2300  178.6230  140.9030 C   0  0  0  0  0  3  0  0  0  0  0  0
  188.1740  178.1970  139.9640 C   0  0  0  0  0  3  0  0  0  0  0  0
  186.4570  178.1590  138.2600 C   0  0  0  0  0  3  0  0  0  0  0  0
  185.8940  178.8180  140.5250 C   0  0  0  0  0  0  0  0  0  0  0  0
  187.7930  177.9630  138.6350 C   0  0  0  0  0  0  0  0  0  0  0  0
  185.5130  178.5840  139.2000 C   0  0  0  0  0  3  0  0  0  0  0  0
  188.7630  177.5270  137.6700 N   0  0  0  0  0  0  0  0  0  0  0  0
  188.9350  178.2240  136.5200 O   0  0  0  0  0  1  0  0  0  0  0  0
  189.4350  176.3610  137.8440 O   0  0  0  0  0  0  0  0  0  0  0  0
  190.7900  176.6980  137.7600 C   0  0  0  0  0  1  0  0  0  0  0  0
  183.8280  178.9550  144.9040 C   0  0  0  0  0  2  0  0  0  0  0  0
  185.3070  179.1460  145.2130 C   0  0  0  0  0  2  0  0  0  0  0  0
  186.1560  178.4250  147.4500 C   0  0  0  0  0  3  0  0  0  0  0  0
  187.2140  177.5790  145.5020 C   0  0  0  0  0  0  0  0  0  0  0  0
  187.5570  177.0400  144.2600 C   0  0  0  0  0  3  0  0  0  0  0  0
  189.2910  176.1840  142.7620 N   0  0  0  0  0  1  0  0  0  0  0  0
  189.8740  176.9510  145.0150 C   0  0  0  0  0  3  0  0  0  0  0  0
  185.8670  177.9680  146.0030 C   0  0  2  0  0  3  0  0  0  0  0  0
  188.9050  176.7280  144.0180 C   0  0  0  0  0  0  0  0  0  0  0  0
  187.5990  178.2980  147.6590 N   0  0  0  0  0  0  0  0  0  0  0  0
  188.1560  177.7850  146.4690 C   0  0  0  0  0  0  0  0  0  0  0  0
  189.5020  177.4830  146.2600 C   0  0  0  0  0  3  0  0  0  0  0  0
  1  9  1  6  0  0  0
  1 21  1  0  0  0  0
  3  1  1  0  0  0  0
  3  2  2  0  0  0  0
  4  3  1  0  0  0  0
  5  6  2  0  0  0  0
  6  4  1  0  0  0  0
  7  6  1  0  0  0  0
  7  8  1  0  0  0  0
 10  9  1  0  0  0  0
 12 11  2  0  0  0  0
 13 15  2  0  0  0  0
 13 16  1  0  0  0  0
 14 11  1  0  0  0  0
 14 10  1  0  0  0  0
 15 12  1  0  0  0  0
 16 14  2  0  0  0  0
 17 19  1  0  0  0  0
 17 15  1  0  0  0  0
 18 17  1  0  0  0  0
 20 19  1  0  0  0  0
 21 22  1  0  0  0  0
 23 30  2  0  0  0  0
 24 28  1  0  0  0  0
 24 31  1  0  0  0  0
 25 24  2  0  0  0  0
 26 29  1  0  0  0  0
 27 32  1  0  0  0  0
 28 22  1  6  0  0  0
 28 23  1  0  0  0  0
 29 25  1  0  0  0  0
 29 27  2  0  0  0  0
 31 30  1  0  0  0  0
 32 31  2  0  0  0  0
M  END
>  <MODEL>
6

>  <REMARK>
 VINA RESULT:      -7.7      3.423      7.325
  Name = 
  11 active torsions:
  status: ('A' for Active; 'I' for Inactive)
    1  A    between atoms: O_7  and  C_12
    2  A    between atoms: O_7  and  C_19
    3  A    between atoms: C_9  and  C_13
    4  A    between atoms: N_11  and  O_24
    5  A    between atoms: N_11  and  C_26
    6  A    between atoms: C_12  and  C_13
    7  A    between atoms: C_13  and  C_18
    8  A    between atoms: C_15  and  C_16
    9  A    between atoms: C_15  and  C_18
   10  A    between atoms: N_17  and  CA_31
   11  A    between atoms: C_25  and  CA_31
                            x       y       z     vdW  Elec       q    Type
                         _______ _______ _______ _____ _____    ______ ____

>  <TORSDO>
F 11

$$$$
=
 OpenBabel11042413093D

 32 34  0  0  1  0  0  0  0  0999 V2000
  190.9950  176.7570  143.1310 C   0  0  2  0  0  3  0  0  0  0  0  0
  191.9730  178.2590  144.6890 O   0  0  0  0  0  0  0  0  0  0  0  0
  191.4320  177.1360  144.5080 C   0  0  0  0  0  0  0  0  0  0  0  0
  191.2280  176.2290  145.6020 N   0  0  0  0  0  2  0  0  0  0  0  0
  190.8040  177.3160  147.7200 C   0  0  0  0  0  2  0  0  0  0  0  0
  191.5170  176.4670  146.9870 C   0  0  0  0  0  0  0  0  0  0  0  0
  192.5420  175.6260  147.6620 C   0  0  0  0  0  2  0  0  0  0  0  0
  193.1800  176.3680  148.6550 O   0  0  0  0  0  1  0  0  0  0  0  0
  191.2730  177.8780  142.1310 C   0  0  0  0  0  2  0  0  0  0  0  0
  191.7470  177.3510  140.8960 O   0  0  0  0  0  0  0  0  0  0  0  0
  191.2860  176.3530  138.7120 C   0  0  0  0  0  3  0  0  0  0  0  0
  190.4380  176.2080  137.6110 C   0  0  0  0  0  3  0  0  0  0  0  0
  188.8540  177.7250  138.6330 C   0  0  0  0  0  3  0  0  0  0  0  0
  190.9210  177.1850  139.7810 C   0  0  0  0  0  0  0  0  0  0  0  0
  189.2160  176.8940  137.5640 C   0  0  0  0  0  0  0  0  0  0  0  0
  189.7030  177.8680  139.7360 C   0  0  0  0  0  3  0  0  0  0  0  0
  188.3460  176.7470  136.4310 N   0  0  0  0  0  0  0  0  0  0  0  0
  188.1210  175.5190  135.9030 O   0  0  0  0  0  1  0  0  0  0  0  0
  187.8280  177.8380  135.8110 O   0  0  0  0  0  0  0  0  0  0  0  0
  186.5040  177.5020  135.5140 C   0  0  0  0  0  1  0  0  0  0  0  0
  189.5300  176.3320  143.1180 C   0  0  0  0  0  2  0  0  0  0  0  0
  188.6010  177.5340  143.2290 C   0  0  0  0  0  2  0  0  0  0  0  0
  186.1480  177.7850  142.8270 C   0  0  0  0  0  3  0  0  0  0  0  0
  186.9350  177.7110  145.0640 C   0  0  0  0  0  0  0  0  0  0  0  0
  187.5620  177.4400  146.2820 C   0  0  0  0  0  3  0  0  0  0  0  0
  187.7250  177.8580  148.6870 N   0  0  0  0  0  1  0  0  0  0  0  0
  186.0320  179.0150  147.3440 C   0  0  0  0  0  3  0  0  0  0  0  0
  187.2180  177.1260  143.7250 C   0  0  2  0  0  3  0  0  0  0  0  0
  187.1040  178.1060  147.4310 C   0  0  0  0  0  0  0  0  0  0  0  0
  185.3740  178.6900  143.6770 N   0  0  0  0  0  0  0  0  0  0  0  0
  185.8900  178.5870  144.9860 C   0  0  0  0  0  0  0  0  0  0  0  0
  185.4100  179.2610  146.1090 C   0  0  0  0  0  3  0  0  0  0  0  0
  1  9  1  6  0  0  0
  1  3  1  0  0  0  0
  3  2  2  0  0  0  0
  3  4  1  0  0  0  0
  4  6  1  0  0  0  0
  6  7  1  0  0  0  0
  6  5  2  0  0  0  0
  7  8  1  0  0  0  0
 10  9  1  0  0  0  0
 11 14  1  0  0  0  0
 12 11  2  0  0  0  0
 13 16  1  0  0  0  0
 14 10  1  0  0  0  0
 15 12  1  0  0  0  0
 15 13  2  0  0  0  0
 16 14  2  0  0  0  0
 17 15  1  0  0  0  0
 18 17  1  0  0  0  0
 19 17  1  0  0  0  0
 20 19  1  0  0  0  0
 21  1  1  0  0  0  0
 21 22  1  0  0  0  0
 23 30  2  0  0  0  0
 23 28  1  0  0  0  0
 24 25  1  0  0  0  0
 25 29  2  0  0  0  0
 27 29  1  0  0  0  0
 28 22  1  6  0  0  0
 28 24  1  0  0  0  0
 29 26  1  0  0  0  0
 30 31  1  0  0  0  0
 31 24  2  0  0  0  0
 31 32  1  0  0  0  0
 32 27  2  0  0  0  0
M  END
>  <MODEL>
7

>  <REMARK>
 VINA RESULT:      -7.6      1.693      7.218
  Name = 
  11 active torsions:
  status: ('A' for Active; 'I' for Inactive)
    1  A    between atoms: O_7  and  C_12
    2  A    between atoms: O_7  and  C_19
    3  A    between atoms: C_9  and  C_13
    4  A    between atoms: N_11  and  O_24
    5  A    between atoms: N_11  and  C_26
    6  A    between atoms: C_12  and  C_13
    7  A    between atoms: C_13  and  C_18
    8  A    between atoms: C_15  and  C_16
    9  A    between atoms: C_15  and  C_18
   10  A    between atoms: N_17  and  CA_31
   11  A    between atoms: C_25  and  CA_31
                            x       y       z     vdW  Elec       q    Type
                         _______ _______ _______ _____ _____    ______ ____

>  <TORSDO>
F 11

$$$$
=
 OpenBabel11042413093D

 32 34  0  0  1  0  0  0  0  0999 V2000
  186.3160  178.9850  141.4470 C   0  0  2  0  0  3  0  0  0  0  0  0
  184.7540  179.7470  139.8280 O   0  0  0  0  0  0  0  0  0  0  0  0
  184.9590  179.0010  140.8220 C   0  0  0  0  0  0  0  0  0  0  0  0
  183.9140  178.1710  141.3510 N   0  0  0  0  0  2  0  0  0  0  0  0
  182.3200  177.1730  139.8310 C   0  0  0  0  0  2  0  0  0  0  0  0
  182.5880  178.0120  140.8260 C   0  0  0  0  0  0  0  0  0  0  0  0
  181.4560  178.6880  141.5160 C   0  0  0  0  0  2  0  0  0  0  0  0
  181.8220  179.0020  142.8240 O   0  0  0  0  0  1  0  0  0  0  0  0
  187.3970  178.6590  140.4190 C   0  0  0  0  0  2  0  0  0  0  0  0
  188.3390  177.7310  140.9490 O   0  0  0  0  0  0  0  0  0  0  0  0
  190.7640  177.4950  140.7530 C   0  0  0  0  0  3  0  0  0  0  0  0
  191.8760  177.0700  140.0190 C   0  0  0  0  0  3  0  0  0  0  0  0
  190.4130  176.2900  138.2570 C   0  0  0  0  0  3  0  0  0  0  0  0
  189.4700  177.3180  140.2410 C   0  0  0  0  0  0  0  0  0  0  0  0
  191.7080  176.4660  138.7660 C   0  0  0  0  0  0  0  0  0  0  0  0
  189.3020  176.7130  138.9920 C   0  0  0  0  0  3  0  0  0  0  0  0
  192.8500  176.0320  138.0120 N   0  0  0  0  0  0  0  0  0  0  0  0
  193.7370  176.9420  137.5410 O   0  0  0  0  0  1  0  0  0  0  0  0
  192.9960  174.7260  137.6690 O   0  0  0  0  0  0  0  0  0  0  0  0
  194.3250  174.4120  137.9670 C   0  0  0  0  0  1  0  0  0  0  0  0
  186.3580  178.0350  142.6400 C   0  0  0  0  0  2  0  0  0  0  0  0
  186.2390  178.7910  143.9570 C   0  0  0  0  0  2  0  0  0  0  0  0
  184.9360  178.4470  146.0610 C   0  0  0  0  0  3  0  0  0  0  0  0
  187.2070  177.7640  146.0020 C   0  0  0  0  0  0  0  0  0  0  0  0
  188.4700  177.2470  145.7030 C   0  0  0  0  0  3  0  0  0  0  0  0
  190.7500  176.7510  146.4360 N   0  0  0  0  0  1  0  0  0  0  0  0
  189.1530  177.7800  147.9830 C   0  0  0  0  0  3  0  0  0  0  0  0
  186.0060  177.8410  145.1270 C   0  0  2  0  0  3  0  0  0  0  0  0
  189.4520  177.2630  146.7080 C   0  0  0  0  0  0  0  0  0  0  0  0
  185.5830  178.6930  147.3500 N   0  0  0  0  0  0  0  0  0  0  0  0
  186.9200  178.2570  147.2430 C   0  0  0  0  0  0  0  0  0  0  0  0
  187.8720  178.2830  148.2620 C   0  0  0  0  0  3  0  0  0  0  0  0
  1  9  1  6  0  0  0
  1 21  1  0  0  0  0
  2  3  2  0  0  0  0
  3  4  1  0  0  0  0
  3  1  1  0  0  0  0
  5  6  2  0  0  0  0
  6  4  1  0  0  0  0
  6  7  1  0  0  0  0
  7  8  1  0  0  0  0
  9 10  1  0  0  0  0
 12 11  2  0  0  0  0
 13 15  2  0  0  0  0
 13 16  1  0  0  0  0
 14 11  1  0  0  0  0
 14 10  1  0  0  0  0
 15 12  1  0  0  0  0
 16 14  2  0  0  0  0
 17 15  1  0  0  0  0
 18 17  1  0  0  0  0
 19 20  1  0  0  0  0
 19 17  1  0  0  0  0
 21 22  1  0  0  0  0
 23 30  2  0  0  0  0
 24 31  1  0  0  0  0
 25 24  2  0  0  0  0
 25 29  1  0  0  0  0
 26 29  1  0  0  0  0
 27 32  1  0  0  0  0
 28 22  1  6  0  0  0
 28 24  1  0  0  0  0
 28 23  1  0  0  0  0
 29 27  2  0  0  0  0
 31 30  1  0  0  0  0
 31 32  2  0  0  0  0
M  END
>  <MODEL>
8

>  <REMARK>
 VINA RESULT:      -7.6      2.892      5.825
  Name = 
  11 active torsions:
  status: ('A' for Active; 'I' for Inactive)
    1  A    between atoms: O_7  and  C_12
    2  A    between atoms: O_7  and  C_19
    3  A    between atoms: C_9  and  C_13
    4  A    between atoms: N_11  and  O_24
    5  A    between atoms: N_11  and  C_26
    6  A    between atoms: C_12  and  C_13
    7  A    between atoms: C_13  and  C_18
    8  A    between atoms: C_15  and  C_16
    9  A    between atoms: C_15  and  C_18
   10  A    between atoms: N_17  and  CA_31
   11  A    between atoms: C_25  and  CA_31
                            x       y       z     vdW  Elec       q    Type
                         _______ _______ _______ _____ _____    ______ ____

>  <TORSDO>
F 11

$$$$
=
 OpenBabel11042413093D

 32 34  0  0  1  0  0  0  0  0999 V2000
  187.3930  178.2120  141.8990 C   0  0  2  0  0  3  0  0  0  0  0  0
  185.6940  179.7520  141.2790 O   0  0  0  0  0  0  0  0  0  0  0  0
  186.0460  178.8360  142.0700 C   0  0  0  0  0  0  0  0  0  0  0  0
  185.1730  178.3890  143.1180 N   0  0  0  0  0  2  0  0  0  0  0  0
  182.8500  178.6270  142.4960 C   0  0  0  0  0  2  0  0  0  0  0  0
  183.8300  178.8260  143.3700 C   0  0  0  0  0  0  0  0  0  0  0  0
  183.4930  179.3760  144.7100 C   0  0  0  0  0  2  0  0  0  0  0  0
  184.1790  178.6690  145.6960 O   0  0  0  0  0  1  0  0  0  0  0  0
  187.6480  177.8300  140.4420 C   0  0  0  0  0  2  0  0  0  0  0  0
  188.8020  178.4930  139.9390 O   0  0  0  0  0  0  0  0  0  0  0  0
  189.8110  177.4240  137.9840 C   0  0  0  0  0  3  0  0  0  0  0  0
  190.8860  176.7400  137.4080 C   0  0  0  0  0  3  0  0  0  0  0  0
  192.0660  176.8190  139.5190 C   0  0  0  0  0  3  0  0  0  0  0  0
  189.8600  177.8090  139.3320 C   0  0  0  0  0  0  0  0  0  0  0  0
  192.0200  176.4330  138.1720 C   0  0  0  0  0  0  0  0  0  0  0  0
  190.9910  177.5040  140.0940 C   0  0  0  0  0  3  0  0  0  0  0  0
  193.1230  175.7300  137.5800 N   0  0  0  0  0  0  0  0  0  0  0  0
  194.1110  176.4170  136.9570 O   0  0  0  0  0  1  0  0  0  0  0  0
  193.1350  174.3730  137.5390 O   0  0  0  0  0  0  0  0  0  0  0  0
  194.4150  174.0010  137.9620 C   0  0  0  0  0  1  0  0  0  0  0  0
  187.5680  177.0230  142.8400 C   0  0  0  0  0  2  0  0  0  0  0  0
  189.0260  176.5890  142.9210 C   0  0  0  0  0  2  0  0  0  0  0  0
  191.3110  177.0590  143.8160 C   0  0  0  0  0  3  0  0  0  0  0  0
  189.4310  177.5420  145.1790 C   0  0  0  0  0  0  0  0  0  0  0  0
  188.2140  177.9450  145.7330 C   0  0  0  0  0  3  0  0  0  0  0  0
  186.8210  178.2460  147.7220 N   0  0  0  0  0  1  0  0  0  0  0  0
  189.1000  177.3690  147.9310 C   0  0  0  0  0  3  0  0  0  0  0  0
  189.8530  177.5640  143.7520 C   0  0  2  0  0  3  0  0  0  0  0  0
  188.0500  177.8510  147.1250 C   0  0  0  0  0  0  0  0  0  0  0  0
  191.6020  176.7660  145.2190 N   0  0  0  0  0  0  0  0  0  0  0  0
  190.4490  177.0840  145.9670 C   0  0  0  0  0  0  0  0  0  0  0  0
  190.3180  176.9820  147.3510 C   0  0  0  0  0  3  0  0  0  0  0  0
  1  9  1  6  0  0  0
  1  3  1  0  0  0  0
  1 21  1  0  0  0  0
  2  3  2  0  0  0  0
  3  4  1  0  0  0  0
  4  6  1  0  0  0  0
  5  6  2  0  0  0  0
  6  7  1  0  0  0  0
  7  8  1  0  0  0  0
 10  9  1  0  0  0  0
 11 14  1  0  0  0  0
 12 11  2  0  0  0  0
 12 15  1  0  0  0  0
 13 16  1  0  0  0  0
 14 10  1  0  0  0  0
 14 16  2  0  0  0  0
 15 13  2  0  0  0  0
 17 15  1  0  0  0  0
 18 17  1  0  0  0  0
 19 17  1  0  0  0  0
 19 20  1  0  0  0  0
 21 22  1  0  0  0  0
 23 30  2  0  0  0  0
 24 25  2  0  0  0  0
 24 31  1  0  0  0  0
 25 29  1  0  0  0  0
 28 22  1  6  0  0  0
 28 23  1  0  0  0  0
 28 24  1  0  0  0  0
 29 26  1  0  0  0  0
 29 27  2  0  0  0  0
 30 31  1  0  0  0  0
 31 32  2  0  0  0  0
 32 27  1  0  0  0  0
M  END
>  <MODEL>
9

>  <REMARK>
 VINA RESULT:      -7.6      2.748      6.574
  Name = 
  11 active torsions:
  status: ('A' for Active; 'I' for Inactive)
    1  A    between atoms: O_7  and  C_12
    2  A    between atoms: O_7  and  C_19
    3  A    between atoms: C_9  and  C_13
    4  A    between atoms: N_11  and  O_24
    5  A    between atoms: N_11  and  C_26
    6  A    between atoms: C_12  and  C_13
    7  A    between atoms: C_13  and  C_18
    8  A    between atoms: C_15  and  C_16
    9  A    between atoms: C_15  and  C_18
   10  A    between atoms: N_17  and  CA_31
   11  A    between atoms: C_25  and  CA_31
                            x       y       z     vdW  Elec       q    Type
                         _______ _______ _______ _____ _____    ______ ____

>  <TORSDO>
F 11

$$$$
