=
 OpenBabel11042409543D

 66 74  0  0  1  0  0  0  0  0999 V2000
  187.4680  178.1850  138.3410 C   0  0  0  0  0  0  0  0  0  0  0  0
  188.2590  177.5340  139.1790 C   0  0  0  0  0  0  0  0  0  0  0  0
  189.4730  177.7530  137.2730 N   0  0  0  0  0  0  0  0  0  0  0  0
  189.5000  177.2750  138.4770 C   0  0  0  0  0  0  0  0  0  0  0  0
  186.1690  178.6030  138.6120 O   0  0  0  0  0  1  0  0  0  0  0  0
  188.1950  178.4260  137.0540 C   0  0  1  0  0  3  0  0  0  0  0  0
  187.6360  178.3260  134.7450 O   0  0  0  0  0  0  0  0  0  0  0  0
  187.4520  177.8660  135.8610 C   0  0  0  0  0  0  0  0  0  0  0  0
  186.4790  176.7300  136.0300 C   0  0  0  0  0  2  0  0  0  0  0  0
  187.2150  175.3940  135.9950 C   0  0  2  0  0  3  0  0  0  0  0  0
  186.9230  174.7160  134.6680 C   0  0  0  0  0  2  0  0  0  0  0  0
  186.3310  174.1400  135.9360 C   0  0  2  0  0  3  0  0  0  0  0  0
  184.0650  173.6030  135.5290 N   0  0  0  0  0  0  0  0  0  0  0  0
  184.9080  174.4430  135.9890 N   0  0  0  0  0  0  0  0  0  0  0  0
  180.0950  173.0860  138.0790 C   0  0  0  0  0  3  0  0  0  0  0  0
  181.5810  174.9400  137.9250 N   0  0  0  0  0  0  0  0  0  0  0  0
  181.7310  173.1770  136.2660 N   0  0  0  0  0  2  0  0  0  0  0  0
  180.0360  174.8460  139.7390 C   0  0  0  0  0  3  0  0  0  0  0  0
  182.6690  173.9120  135.4760 C   0  0  0  0  0  0  0  0  0  0  0  0
  181.1240  173.7610  137.4240 C   0  0  0  0  0  0  0  0  0  0  0  0
  182.2820  174.9060  134.8130 O   0  0  0  0  0  0  0  0  0  0  0  0
  179.5470  173.6370  139.2410 C   0  0  0  0  0  3  0  0  0  0  0  0
  181.0650  175.4970  139.0610 C   0  0  0  0  0  0  0  0  0  0  0  0
  179.8100  178.4780  137.8280 C   0  0  0  0  0  3  0  0  0  0  0  0
  182.6020  178.5550  138.0920 C   0  0  1  0  0  3  0  0  0  0  0  0
  180.6100  177.7520  140.0400 N   0  0  0  0  0  2  0  0  0  0  0  0
  181.9540  178.2520  136.7280 C   0  0  0  0  0  2  0  0  0  0  0  0
  181.7910  179.4980  138.8530 N   0  0  0  0  0  2  0  0  0  0  0  0
  182.8780  177.3030  138.9200 C   0  0  0  0  0  2  0  0  0  0  0  0
  181.6340  176.7630  139.6430 C   0  0  2  0  0  3  0  0  0  0  0  0
  180.5030  178.1700  136.7860 N   0  0  0  0  0  0  0  0  0  0  0  0
  180.4830  178.8870  139.1140 C   0  0  1  0  0  3  0  0  0  0  0  0
  187.9520  177.1210  140.5210 N   0  0  0  0  0  2  0  0  0  0  0  0
  189.3770  175.4660  143.5330 C   0  0  0  0  0  2  0  0  0  0  0  0
  189.3220  178.6120  141.8710 C   0  0  0  0  0  2  0  0  0  0  0  0
  188.3570  176.3840  142.8470 C   0  0  2  0  0  3  0  0  0  0  0  0
  188.9040  177.1570  141.6230 C   0  0  1  0  0  3  0  0  0  0  0  0
  190.4150  178.7900  142.8800 C   0  0  0  0  0  0  0  0  0  0  0  0
  190.6350  176.1950  143.9760 C   0  0  0  0  0  2  0  0  0  0  0  0
  190.3210  179.7100  143.6810 O   0  0  0  0  0  0  0  0  0  0  0  0
  191.4050  176.5400  142.8560 O   0  0  0  0  0  0  0  0  0  0  0  0
  191.6650  177.9300  142.8760 C   0  0  2  0  0  3  0  0  0  0  0  0
  183.9660  177.6130  144.4780 O   0  0  0  0  0  0  0  0  0  0  0  0
  187.4750  177.1310  143.8170 C   0  0  0  0  0  0  0  0  0  0  0  0
  185.2770  178.1440  144.4810 C   0  0  1  0  0  0  0  0  0  0  0  0
  182.7780  178.6830  142.7000 C   0  0  0  0  0  2  0  0  0  0  0  0
  186.1650  177.2990  143.5780 C   0  0  0  0  0  3  0  0  0  0  0  0
  187.3170  178.2820  145.9640 C   0  0  0  0  0  3  0  0  0  0  0  0
  188.0860  177.7840  144.9880 C   0  0  0  0  0  3  0  0  0  0  0  0
  185.1420  179.7400  142.4840 C   0  0  0  0  0  2  0  0  0  0  0  0
  183.7520  179.5260  141.8520 C   0  0  0  0  0  2  0  0  0  0  0  0
  185.1800  179.6120  144.0280 C   0  0  1  0  0  3  0  0  0  0  0  0
  183.8280  179.9650  144.5660 C   0  0  0  0  0  2  0  0  0  0  0  0
  185.8230  178.0870  145.9250 C   0  0  0  0  0  2  0  0  0  0  0  0
  183.0960  178.6880  144.2050 C   0  0  2  0  0  3  0  0  0  0  0  0
  192.5280  178.2700  143.9230 O   0  0  0  0  0  0  0  0  0  0  0  0
  191.8330  177.9310  145.0840 C   0  0  0  0  0  1  0  0  0  0  0  0
  190.6490  176.4810  139.0080 C   0  0  0  0  0  2  0  0  0  0  0  0
  190.7000  175.1570  138.3930 N   0  0  0  0  0  2  0  0  0  0  0  0
  191.6270  175.2290  137.2750 C   0  0  2  0  0  3  0  0  0  0  0  0
  190.9810  174.6470  136.0340 C   0  0  0  0  0  2  0  0  0  0  0  0
  191.6420  175.1360  134.9000 O   0  0  0  0  0  1  0  0  0  0  0  0
  192.9150  174.4840  137.5990 C   0  0  0  0  0  2  0  0  0  0  0  0
  194.0900  175.4080  137.5260 C   0  0  0  0  0  0  0  0  0  0  0  0
  193.9440  176.5940  137.1240 O   0  0  0  0  0  0  0  0  0  0  0  0
  195.3440  174.9520  137.9140 O   0  0  0  0  0  1  0  0  0  0  0  0
  1  5  1  0  0  0  0
  1  2  2  0  0  0  0
  2 33  1  0  0  0  0
  3  4  2  0  0  0  0
  4 58  1  0  0  0  0
  4  2  1  0  0  0  0
  6  8  1  6  0  0  0
  6  3  1  0  0  0  0
  6  1  1  0  0  0  0
  7  8  2  0  0  0  0
  8  9  1  0  0  0  0
 10  9  1  6  0  0  0
 11 12  1  0  0  0  0
 11 10  1  0  0  0  0
 12 14  1  6  0  0  0
 12 10  1  0  0  0  0
 13 14  2  0  0  0  0
 15 22  2  0  0  0  0
 16 23  1  0  0  0  0
 17 20  1  0  0  0  0
 19 13  1  0  0  0  0
 19 17  1  0  0  0  0
 20 16  2  0  0  0  0
 20 15  1  0  0  0  0
 21 19  2  0  0  0  0
 22 18  1  0  0  0  0
 23 18  2  0  0  0  0
 25 27  1  6  0  0  0
 25 28  1  0  0  0  0
 25 29  1  0  0  0  0
 27 31  1  0  0  0  0
 28 32  1  0  0  0  0
 29 30  1  0  0  0  0
 30 23  1  6  0  0  0
 30 26  1  0  0  0  0
 31 24  2  0  0  0  0
 32 24  1  6  0  0  0
 32 26  1  0  0  0  0
 34 39  1  0  0  0  0
 35 38  1  0  0  0  0
 36 34  1  0  0  0  0
 36 44  1  1  0  0  0
 37 33  1  6  0  0  0
 37 35  1  0  0  0  0
 37 36  1  0  0  0  0
 38 40  2  0  0  0  0
 41 42  1  0  0  0  0
 41 39  1  0  0  0  0
 42 38  1  0  0  0  0
 42 56  1  1  0  0  0
 43 45  1  0  0  0  0
 44 49  1  0  0  0  0
 45 47  1  6  0  0  0
 45 54  1  0  0  0  0
 47 44  2  0  0  0  0
 49 48  2  0  0  0  0
 51 50  1  0  0  0  0
 51 46  1  0  0  0  0
 52 50  1  6  0  0  0
 52 45  1  0  0  0  0
 52 53  1  0  0  0  0
 54 48  1  0  0  0  0
 55 46  1  6  0  0  0
 55 43  1  0  0  0  0
 55 53  1  0  0  0  0
 56 57  1  0  0  0  0
 59 58  1  0  0  0  0
 60 61  1  6  0  0  0
 60 63  1  0  0  0  0
 60 59  1  0  0  0  0
 62 61  1  0  0  0  0
 64 63  1  0  0  0  0
 64 66  1  0  0  0  0
 65 64  2  0  0  0  0
M  END
>  <MODEL>
1

>  <REMARK>
 VINA RESULT:      -6.2      0.000      0.000
  Name = 
  16 active torsions:
  status: ('A' for Active; 'I' for Inactive)
    1  A    between atoms: CA_3  and  C_12
    2  A    between atoms: CA_3  and  CB_35
    3  A    between atoms: CA_3  and  N_49
    4  A    between atoms: C_7  and  C_11
    5  A    between atoms: C_7  and  C_20
    6  A    between atoms: C_8  and  N_49
    7  A    between atoms: C_8  and  C_51
    8  A    between atoms: O_13  and  C_60
    9  A    between atoms: C_16  and  C_17
   10  A    between atoms: C_18  and  N_52
   11  A    between atoms: C_20  and  C_66
   12  A    between atoms: C_21  and  N_41
   13  A    between atoms: CG_24  and  CB_35
   14  A    between atoms: C_42  and  N_52
   15  A    between atoms: C_48  and  N_50
   16  A    between atoms: C_61  and  C_63
                            x       y       z     vdW  Elec       q    Type
                         _______ _______ _______ _____ _____    ______ ____

>  <TORSDO>
F 16

$$$$
=
 OpenBabel11042409543D

 66 74  0  0  1  0  0  0  0  0999 V2000
  185.6900  178.4240  139.7870 C   0  0  0  0  0  0  0  0  0  0  0  0
  185.1730  178.5360  138.5740 C   0  0  0  0  0  0  0  0  0  0  0  0
  187.1590  177.4780  138.2720 N   0  0  0  0  0  0  0  0  0  0  0  0
  186.1200  177.9400  137.6530 C   0  0  0  0  0  0  0  0  0  0  0  0
  185.1100  178.8920  140.9610 O   0  0  0  0  0  1  0  0  0  0  0  0
  186.9940  177.6910  139.7090 C   0  0  1  0  0  3  0  0  0  0  0  0
  187.9210  179.3430  141.1460 O   0  0  0  0  0  0  0  0  0  0  0  0
  188.1360  178.4860  140.3030 C   0  0  0  0  0  0  0  0  0  0  0  0
  189.5540  178.2300  139.8700 C   0  0  0  0  0  2  0  0  0  0  0  0
  190.2150  177.2130  140.7950 C   0  0  2  0  0  3  0  0  0  0  0  0
  191.6970  177.5350  140.8870 C   0  0  0  0  0  2  0  0  0  0  0  0
  191.2570  176.2910  140.1470 C   0  0  2  0  0  3  0  0  0  0  0  0
  191.9610  175.6160  137.9930 N   0  0  0  0  0  0  0  0  0  0  0  0
  191.3940  176.5040  138.7140 N   0  0  0  0  0  0  0  0  0  0  0  0
  195.2730  177.3530  135.0700 C   0  0  0  0  0  3  0  0  0  0  0  0
  194.8260  175.1020  135.7070 N   0  0  0  0  0  0  0  0  0  0  0  0
  193.1610  176.8040  136.1720 N   0  0  0  0  0  2  0  0  0  0  0  0
  196.9200  175.6200  134.6900 C   0  0  0  0  0  3  0  0  0  0  0  0
  192.1990  175.8380  136.6000 C   0  0  0  0  0  0  0  0  0  0  0  0
  194.4240  176.3990  135.6290 C   0  0  0  0  0  0  0  0  0  0  0  0
  191.6360  175.1010  135.7530 O   0  0  0  0  0  0  0  0  0  0  0  0
  196.5260  176.9570  134.5940 C   0  0  0  0  0  3  0  0  0  0  0  0
  196.0470  174.6910  135.2530 C   0  0  0  0  0  0  0  0  0  0  0  0
  195.5330  173.2360  138.3510 C   0  0  0  0  0  3  0  0  0  0  0  0
  198.0830  172.6520  137.3390 C   0  0  1  0  0  3  0  0  0  0  0  0
  195.5030  172.3810  136.0430 N   0  0  0  0  0  2  0  0  0  0  0  0
  197.8880  173.7930  138.3560 C   0  0  0  0  0  2  0  0  0  0  0  0
  197.1570  171.5580  137.6040 N   0  0  0  0  0  2  0  0  0  0  0  0
  197.9630  173.1100  135.8880 C   0  0  0  0  0  2  0  0  0  0  0  0
  196.5070  173.2670  135.4170 C   0  0  2  0  0  3  0  0  0  0  0  0
  196.4950  174.0130  138.7130 N   0  0  0  0  0  0  0  0  0  0  0  0
  195.7850  172.0550  137.4480 C   0  0  1  0  0  3  0  0  0  0  0  0
  183.9290  179.1580  138.2130 N   0  0  0  0  0  2  0  0  0  0  0  0
  181.0390  176.8720  138.7230 C   0  0  0  0  0  2  0  0  0  0  0  0
  182.0640  180.2190  139.3630 C   0  0  0  0  0  2  0  0  0  0  0  0
  181.7470  178.0160  137.9850 C   0  0  2  0  0  3  0  0  0  0  0  0
  182.6600  178.8910  138.8770 C   0  0  1  0  0  3  0  0  0  0  0  0
  180.8280  180.0850  140.2000 C   0  0  0  0  0  0  0  0  0  0  0  0
  180.2080  177.3450  139.9050 C   0  0  0  0  0  2  0  0  0  0  0  0
  179.9110  180.8720  140.0080 O   0  0  0  0  0  0  0  0  0  0  0  0
  181.0540  177.7540  140.9460 O   0  0  0  0  0  0  0  0  0  0  0  0
  180.7220  179.0750  141.3270 C   0  0  2  0  0  3  0  0  0  0  0  0
  180.9830  181.5890  134.8090 O   0  0  0  0  0  0  0  0  0  0  0  0
  180.8690  178.7140  136.9770 C   0  0  0  0  0  0  0  0  0  0  0  0
  180.2170  180.7270  135.6280 C   0  0  1  0  0  0  0  0  0  0  0  0
  181.1710  183.6740  135.9650 C   0  0  0  0  0  2  0  0  0  0  0  0
  181.1460  179.9590  136.5570 C   0  0  0  0  0  3  0  0  0  0  0  0
  178.9310  178.5570  135.5000 C   0  0  0  0  0  3  0  0  0  0  0  0
  179.6250  178.0610  136.5310 C   0  0  0  0  0  3  0  0  0  0  0  0
  179.8070  182.2420  137.6500 C   0  0  0  0  0  2  0  0  0  0  0  0
  180.6110  183.5330  137.3950 C   0  0  0  0  0  2  0  0  0  0  0  0
  179.1950  181.5960  136.3820 C   0  0  1  0  0  3  0  0  0  0  0  0
  178.9650  182.6730  135.3670 C   0  0  0  0  0  2  0  0  0  0  0  0
  179.4690  179.7280  134.7180 C   0  0  0  0  0  2  0  0  0  0  0  0
  180.3950  182.8670  134.9090 C   0  0  2  0  0  3  0  0  0  0  0  0
  179.4700  179.1250  141.9470 O   0  0  0  0  0  0  0  0  0  0  0  0
  179.6170  180.0570  142.9740 C   0  0  0  0  0  1  0  0  0  0  0  0
  185.9910  177.9270  136.1640 C   0  0  0  0  0  2  0  0  0  0  0  0
  184.9720  176.9730  135.7350 N   0  0  0  0  0  2  0  0  0  0  0  0
  185.4400  175.6410  136.0870 C   0  0  2  0  0  3  0  0  0  0  0  0
  186.6800  175.3040  135.2830 C   0  0  0  0  0  2  0  0  0  0  0  0
  187.4220  174.3350  135.9710 O   0  0  0  0  0  1  0  0  0  0  0  0
  184.3500  174.6090  135.8380 C   0  0  0  0  0  2  0  0  0  0  0  0
  183.9090  173.9860  137.1260 C   0  0  0  0  0  0  0  0  0  0  0  0
  184.7540  173.4570  137.9000 O   0  0  0  0  0  1  0  0  0  0  0  0
  182.5630  174.0040  137.4690 O   0  0  0  0  0  0  0  0  0  0  0  0
  1  5  1  0  0  0  0
  2  1  2  0  0  0  0
  3  6  1  0  0  0  0
  4  3  2  0  0  0  0
  4  2  1  0  0  0  0
  6  1  1  0  0  0  0
  6  8  1  6  0  0  0
  8  7  2  0  0  0  0
  9  8  1  0  0  0  0
 10  9  1  6  0  0  0
 10 11  1  0  0  0  0
 12 14  1  6  0  0  0
 12 10  1  0  0  0  0
 12 11  1  0  0  0  0
 13 14  2  0  0  0  0
 15 20  1  0  0  0  0
 17 19  1  0  0  0  0
 18 23  2  0  0  0  0
 19 13  1  0  0  0  0
 20 16  2  0  0  0  0
 20 17  1  0  0  0  0
 21 19  2  0  0  0  0
 22 18  1  0  0  0  0
 22 15  2  0  0  0  0
 23 16  1  0  0  0  0
 24 31  2  0  0  0  0
 25 29  1  6  0  0  0
 25 28  1  0  0  0  0
 25 27  1  0  0  0  0
 26 32  1  0  0  0  0
 27 31  1  0  0  0  0
 30 23  1  1  0  0  0
 30 29  1  0  0  0  0
 30 26  1  0  0  0  0
 32 28  1  0  0  0  0
 32 24  1  1  0  0  0
 33  2  1  0  0  0  0
 34 39  1  0  0  0  0
 35 38  1  0  0  0  0
 36 44  1  1  0  0  0
 36 34  1  0  0  0  0
 36 37  1  0  0  0  0
 37 33  1  6  0  0  0
 37 35  1  0  0  0  0
 38 42  1  0  0  0  0
 39 41  1  0  0  0  0
 40 38  2  0  0  0  0
 41 42  1  0  0  0  0
 42 56  1  6  0  0  0
 43 55  1  0  0  0  0
 43 45  1  0  0  0  0
 45 54  1  6  0  0  0
 45 52  1  0  0  0  0
 45 47  1  0  0  0  0
 46 51  1  0  0  0  0
 47 44  2  0  0  0  0
 48 49  2  0  0  0  0
 49 44  1  0  0  0  0
 51 50  1  0  0  0  0
 52 53  1  6  0  0  0
 52 50  1  0  0  0  0
 54 48  1  0  0  0  0
 55 53  1  1  0  0  0
 55 46  1  0  0  0  0
 56 57  1  0  0  0  0
 58  4  1  0  0  0  0
 59 60  1  0  0  0  0
 59 58  1  0  0  0  0
 60 61  1  6  0  0  0
 61 62  1  0  0  0  0
 63 60  1  0  0  0  0
 63 64  1  0  0  0  0
 64 66  2  0  0  0  0
 64 65  1  0  0  0  0
M  END
>  <MODEL>
2

>  <REMARK>
 VINA RESULT:      -5.7      3.453     10.952
  Name = 
  16 active torsions:
  status: ('A' for Active; 'I' for Inactive)
    1  A    between atoms: CA_3  and  C_12
    2  A    between atoms: CA_3  and  CB_35
    3  A    between atoms: CA_3  and  N_49
    4  A    between atoms: C_7  and  C_11
    5  A    between atoms: C_7  and  C_20
    6  A    between atoms: C_8  and  N_49
    7  A    between atoms: C_8  and  C_51
    8  A    between atoms: O_13  and  C_60
    9  A    between atoms: C_16  and  C_17
   10  A    between atoms: C_18  and  N_52
   11  A    between atoms: C_20  and  C_66
   12  A    between atoms: C_21  and  N_41
   13  A    between atoms: CG_24  and  CB_35
   14  A    between atoms: C_42  and  N_52
   15  A    between atoms: C_48  and  N_50
   16  A    between atoms: C_61  and  C_63
                            x       y       z     vdW  Elec       q    Type
                         _______ _______ _______ _____ _____    ______ ____

>  <TORSDO>
F 16

$$$$
=
 OpenBabel11042409543D

 66 74  0  0  1  0  0  0  0  0999 V2000
  185.9140  178.5240  141.7130 C   0  0  0  0  0  0  0  0  0  0  0  0
  185.8830  178.7860  140.4150 C   0  0  0  0  0  0  0  0  0  0  0  0
  187.7080  177.4680  140.7060 N   0  0  0  0  0  0  0  0  0  0  0  0
  187.0210  178.1150  139.8200 C   0  0  0  0  0  0  0  0  0  0  0  0
  185.0100  178.9990  142.6560 O   0  0  0  0  0  1  0  0  0  0  0  0
  187.0650  177.6130  142.0100 C   0  0  1  0  0  3  0  0  0  0  0  0
  187.6360  178.3310  144.2040 O   0  0  0  0  0  0  0  0  0  0  0  0
  188.0020  178.1930  143.0470 C   0  0  0  0  0  0  0  0  0  0  0  0
  189.4010  178.6010  142.6720 C   0  0  0  0  0  2  0  0  0  0  0  0
  190.4200  177.7480  143.4200 C   0  0  2  0  0  3  0  0  0  0  0  0
  191.8130  178.2480  143.0770 C   0  0  0  0  0  2  0  0  0  0  0  0
  191.3610  176.9040  142.5490 C   0  0  2  0  0  3  0  0  0  0  0  0
  191.2470  176.0050  140.3650 N   0  0  0  0  0  0  0  0  0  0  0  0
  191.0720  177.0150  141.1260 N   0  0  0  0  0  0  0  0  0  0  0  0
  193.7180  176.8740  136.4070 C   0  0  0  0  0  3  0  0  0  0  0  0
  193.0890  174.7990  137.3910 N   0  0  0  0  0  0  0  0  0  0  0  0
  192.0030  176.8310  138.1480 N   0  0  0  0  0  2  0  0  0  0  0  0
  194.8080  174.8190  135.7380 C   0  0  0  0  0  3  0  0  0  0  0  0
  191.0660  176.1090  138.9500 C   0  0  0  0  0  0  0  0  0  0  0  0
  192.9300  176.1460  137.2970 C   0  0  0  0  0  0  0  0  0  0  0  0
  190.1370  175.4680  138.3980 O   0  0  0  0  0  0  0  0  0  0  0  0
  194.6590  176.2030  135.6200 C   0  0  0  0  0  3  0  0  0  0  0  0
  194.0040  174.1200  136.6370 C   0  0  0  0  0  0  0  0  0  0  0  0
  197.1870  173.1090  137.5430 C   0  0  0  0  0  3  0  0  0  0  0  0
  196.1110  171.4750  135.5320 C   0  0  1  0  0  3  0  0  0  0  0  0
  194.9270  172.2790  138.0550 N   0  0  0  0  0  2  0  0  0  0  0  0
  197.0770  172.6210  135.1750 C   0  0  0  0  0  2  0  0  0  0  0  0
  196.4650  170.8810  136.8160 N   0  0  0  0  0  2  0  0  0  0  0  0
  194.6450  171.8980  135.5290 C   0  0  0  0  0  2  0  0  0  0  0  0
  194.2210  172.6410  136.8080 C   0  0  2  0  0  3  0  0  0  0  0  0
  197.4740  173.4180  136.3260 N   0  0  0  0  0  0  0  0  0  0  0  0
  196.3350  171.9050  137.8590 C   0  0  1  0  0  3  0  0  0  0  0  0
  184.9320  179.6060  139.7160 N   0  0  0  0  0  2  0  0  0  0  0  0
  182.0740  177.3620  140.5110 C   0  0  0  0  0  2  0  0  0  0  0  0
  182.8180  180.3930  138.8020 C   0  0  0  0  0  2  0  0  0  0  0  0
  183.1420  177.9070  139.5540 C   0  0  2  0  0  3  0  0  0  0  0  0
  183.4900  179.4010  139.7600 C   0  0  1  0  0  3  0  0  0  0  0  0
  181.3200  180.4000  138.8540 C   0  0  0  0  0  0  0  0  0  0  0  0
  180.7730  178.1460  140.4660 C   0  0  0  0  0  2  0  0  0  0  0  0
  180.7040  180.4750  137.7990 O   0  0  0  0  0  0  0  0  0  0  0  0
  180.9520  179.3990  141.0680 O   0  0  0  0  0  0  0  0  0  0  0  0
  180.5580  180.4140  140.1650 C   0  0  2  0  0  3  0  0  0  0  0  0
  180.3690  176.4420  135.8660 O   0  0  0  0  0  0  0  0  0  0  0  0
  182.9920  177.4060  138.1390 C   0  0  0  0  0  0  0  0  0  0  0  0
  181.6940  176.2580  136.3240 C   0  0  1  0  0  0  0  0  0  0  0  0
  179.1070  174.5420  136.5840 C   0  0  0  0  0  2  0  0  0  0  0  0
  181.8370  176.8730  137.7090 C   0  0  0  0  0  3  0  0  0  0  0  0
  184.0260  177.1520  135.9420 C   0  0  0  0  0  3  0  0  0  0  0  0
  184.1670  177.4010  137.2500 C   0  0  0  0  0  3  0  0  0  0  0  0
  181.4560  174.0380  137.5750 C   0  0  0  0  0  2  0  0  0  0  0  0
  179.9560  173.6800  137.5410 C   0  0  0  0  0  2  0  0  0  0  0  0
  181.9830  174.7470  136.3020 C   0  0  1  0  0  3  0  0  0  0  0  0
  181.1320  174.3320  135.1420 C   0  0  0  0  0  2  0  0  0  0  0  0
  182.6510  176.9790  135.3480 C   0  0  0  0  0  2  0  0  0  0  0  0
  179.9110  175.1780  135.4380 C   0  0  2  0  0  3  0  0  0  0  0  0
  179.1750  180.3990  139.9580 O   0  0  0  0  0  0  0  0  0  0  0  0
  178.9310  179.2190  139.2560 C   0  0  0  0  0  1  0  0  0  0  0  0
  187.4340  178.2130  138.3870 C   0  0  0  0  0  2  0  0  0  0  0  0
  187.5970  176.8880  137.7960 N   0  0  0  0  0  2  0  0  0  0  0  0
  188.0310  177.0700  136.4200 C   0  0  2  0  0  3  0  0  0  0  0  0
  187.7630  178.4960  135.9820 C   0  0  0  0  0  2  0  0  0  0  0  0
  186.9550  178.4800  134.8380 O   0  0  0  0  0  1  0  0  0  0  0  0
  187.3160  176.0910  135.5000 C   0  0  0  0  0  2  0  0  0  0  0  0
  187.5590  174.6810  135.9390 C   0  0  0  0  0  0  0  0  0  0  0  0
  188.6930  174.1510  135.7810 O   0  0  0  0  0  0  0  0  0  0  0  0
  186.5290  173.9610  136.5330 O   0  0  0  0  0  1  0  0  0  0  0  0
  1  6  1  0  0  0  0
  1  5  1  0  0  0  0
  2  1  2  0  0  0  0
  3  6  1  0  0  0  0
  4  2  1  0  0  0  0
  4  3  2  0  0  0  0
  6  8  1  1  0  0  0
  8  7  2  0  0  0  0
  9  8  1  0  0  0  0
 10  9  1  6  0  0  0
 11 10  1  0  0  0  0
 12 14  1  6  0  0  0
 12 11  1  0  0  0  0
 12 10  1  0  0  0  0
 13 14  2  0  0  0  0
 15 20  1  0  0  0  0
 17 19  1  0  0  0  0
 18 23  2  0  0  0  0
 19 13  1  0  0  0  0
 20 16  2  0  0  0  0
 20 17  1  0  0  0  0
 21 19  2  0  0  0  0
 22 18  1  0  0  0  0
 22 15  2  0  0  0  0
 23 16  1  0  0  0  0
 25 27  1  1  0  0  0
 25 28  1  0  0  0  0
 27 31  1  0  0  0  0
 28 32  1  0  0  0  0
 29 25  1  0  0  0  0
 29 30  1  0  0  0  0
 30 23  1  6  0  0  0
 30 26  1  0  0  0  0
 31 24  2  0  0  0  0
 32 24  1  6  0  0  0
 32 26  1  0  0  0  0
 33  2  1  0  0  0  0
 35 38  1  0  0  0  0
 35 37  1  0  0  0  0
 36 44  1  6  0  0  0
 36 37  1  0  0  0  0
 36 34  1  0  0  0  0
 37 33  1  6  0  0  0
 38 42  1  0  0  0  0
 39 34  1  0  0  0  0
 39 41  1  0  0  0  0
 40 38  2  0  0  0  0
 42 56  1  6  0  0  0
 42 41  1  0  0  0  0
 43 45  1  0  0  0  0
 45 54  1  6  0  0  0
 45 47  1  0  0  0  0
 46 51  1  0  0  0  0
 47 44  2  0  0  0  0
 48 49  2  0  0  0  0
 49 44  1  0  0  0  0
 51 50  1  0  0  0  0
 52 53  1  6  0  0  0
 52 45  1  0  0  0  0
 52 50  1  0  0  0  0
 54 48  1  0  0  0  0
 55 53  1  1  0  0  0
 55 43  1  0  0  0  0
 55 46  1  0  0  0  0
 57 56  1  0  0  0  0
 58  4  1  0  0  0  0
 59 58  1  0  0  0  0
 60 63  1  6  0  0  0
 60 59  1  0  0  0  0
 61 60  1  0  0  0  0
 62 61  1  0  0  0  0
 63 64  1  0  0  0  0
 64 66  1  0  0  0  0
 65 64  2  0  0  0  0
M  END
>  <MODEL>
3

>  <REMARK>
 VINA RESULT:      -5.1      2.897     10.365
  Name = 
  16 active torsions:
  status: ('A' for Active; 'I' for Inactive)
    1  A    between atoms: CA_3  and  C_12
    2  A    between atoms: CA_3  and  CB_35
    3  A    between atoms: CA_3  and  N_49
    4  A    between atoms: C_7  and  C_11
    5  A    between atoms: C_7  and  C_20
    6  A    between atoms: C_8  and  N_49
    7  A    between atoms: C_8  and  C_51
    8  A    between atoms: O_13  and  C_60
    9  A    between atoms: C_16  and  C_17
   10  A    between atoms: C_18  and  N_52
   11  A    between atoms: C_20  and  C_66
   12  A    between atoms: C_21  and  N_41
   13  A    between atoms: CG_24  and  CB_35
   14  A    between atoms: C_42  and  N_52
   15  A    between atoms: C_48  and  N_50
   16  A    between atoms: C_61  and  C_63
                            x       y       z     vdW  Elec       q    Type
                         _______ _______ _______ _____ _____    ______ ____

>  <TORSDO>
F 16

$$$$
=
 OpenBabel11042409543D

 66 74  0  0  1  0  0  0  0  0999 V2000
  184.1510  178.6810  140.6890 C   0  0  1  0  0  3  0  0  0  0  0  0
  184.5340  178.5230  139.4320 C   0  0  0  0  0  0  0  0  0  0  0  0
  186.4080  178.1780  140.6660 N   0  0  0  0  0  0  0  0  0  0  0  0
  185.9500  178.2160  139.4550 C   0  0  0  0  0  0  0  0  0  0  0  0
  182.8660  179.0110  141.1080 O   0  0  0  0  0  1  0  0  0  0  0  0
  185.3120  178.4270  141.6000 C   0  0  1  0  0  3  0  0  0  0  0  0
  186.6340  180.2320  142.4050 O   0  0  0  0  0  0  0  0  0  0  0  0
  185.5940  179.6010  142.5120 C   0  0  0  0  0  0  0  0  0  0  0  0
  184.5950  180.0150  143.5580 C   0  0  0  0  0  2  0  0  0  0  0  0
  183.6290  178.8710  143.8500 C   0  0  2  0  0  3  0  0  0  0  0  0
  182.8140  179.2280  145.0810 C   0  0  0  0  0  2  0  0  0  0  0  0
  183.8470  178.1270  145.1750 C   0  0  2  0  0  3  0  0  0  0  0  0
  185.7850  177.7730  146.4830 N   0  0  0  0  0  0  0  0  0  0  0  0
  185.0050  178.6080  145.9150 N   0  0  0  0  0  0  0  0  0  0  0  0
  190.0830  176.3800  147.9360 C   0  0  0  0  0  3  0  0  0  0  0  0
  189.4700  177.8200  146.1410 N   0  0  0  0  0  0  0  0  0  0  0  0
  187.8130  177.2790  147.8290 N   0  0  0  0  0  2  0  0  0  0  0  0
  191.6730  176.9080  146.1880 C   0  0  0  0  0  3  0  0  0  0  0  0
  186.8730  178.2160  147.2980 C   0  0  0  0  0  0  0  0  0  0  0  0
  189.1400  177.1830  147.2960 C   0  0  0  0  0  0  0  0  0  0  0  0
  187.0620  179.4480  147.4580 O   0  0  0  0  0  0  0  0  0  0  0  0
  191.3580  176.2480  147.3780 C   0  0  0  0  0  3  0  0  0  0  0  0
  190.7070  177.7040  145.5740 C   0  0  0  0  0  0  0  0  0  0  0  0
  188.5970  176.9880  142.9260 C   0  0  0  0  0  3  0  0  0  0  0  0
  191.2940  176.9120  142.1560 C   0  0  1  0  0  3  0  0  0  0  0  0
  189.8680  178.9860  143.5970 N   0  0  0  0  0  2  0  0  0  0  0  0
  190.5440  175.6130  142.5040 C   0  0  0  0  0  2  0  0  0  0  0  0
  190.4000  177.8710  141.5180 N   0  0  0  0  0  2  0  0  0  0  0  0
  191.9860  177.5500  143.3570 C   0  0  0  0  0  2  0  0  0  0  0  0
  191.0310  178.3540  144.2560 C   0  0  2  0  0  3  0  0  0  0  0  0
  189.1810  175.8400  142.9610 N   0  0  0  0  0  0  0  0  0  0  0  0
  189.3330  178.2200  142.4630 C   0  0  1  0  0  3  0  0  0  0  0  0
  183.7250  178.6620  138.2520 N   0  0  0  0  0  0  0  0  0  0  0  0
  180.2110  178.1540  139.3620 C   0  0  0  0  0  2  0  0  0  0  0  0
  182.1370  180.0780  137.0700 C   0  0  0  0  0  2  0  0  0  0  0  0
  181.3610  177.9420  138.3690 C   0  0  2  0  0  3  0  0  0  0  0  0
  182.3460  179.1320  138.2590 C   0  0  1  0  0  3  0  0  0  0  0  0
  180.8020  180.7590  137.0350 C   0  0  0  0  0  0  0  0  0  0  0  0
  179.3920  179.4020  139.0720 C   0  0  0  0  0  2  0  0  0  0  0  0
  180.2330  180.8620  135.9570 O   0  0  0  0  0  0  0  0  0  0  0  0
  180.1380  180.5450  139.3910 O   0  0  0  0  0  0  0  0  0  0  0  0
  180.1910  181.4000  138.2660 C   0  0  2  0  0  3  0  0  0  0  0  0
  178.9980  174.4020  136.0610 O   0  0  0  0  0  0  0  0  0  0  0  0
  180.9360  177.2590  137.0940 C   0  0  0  0  0  0  0  0  0  0  0  0
  180.0960  175.2620  135.8260 C   0  0  1  0  0  0  0  0  0  0  0  0
  179.8890  172.3060  136.7890 C   0  0  0  0  0  2  0  0  0  0  0  0
  180.4270  176.0160  137.1070 C   0  0  0  0  0  3  0  0  0  0  0  0
  180.6490  177.4420  134.6760 C   0  0  0  0  0  3  0  0  0  0  0  0
  181.1860  177.9240  135.8030 C   0  0  0  0  0  3  0  0  0  0  0  0
  182.0400  173.7330  136.4850 C   0  0  0  0  0  2  0  0  0  0  0  0
  181.4060  172.4390  137.0350 C   0  0  0  0  0  2  0  0  0  0  0  0
  181.2610  174.3930  135.3200 C   0  0  1  0  0  3  0  0  0  0  0  0
  180.4990  173.3270  134.5950 C   0  0  0  0  0  2  0  0  0  0  0  0
  179.6960  176.2750  134.7310 C   0  0  0  0  0  2  0  0  0  0  0  0
  179.3770  173.1270  135.5940 C   0  0  2  0  0  3  0  0  0  0  0  0
  178.9370  181.9530  137.9900 O   0  0  0  0  0  0  0  0  0  0  0  0
  179.0900  183.3200  138.2170 C   0  0  0  0  0  1  0  0  0  0  0  0
  186.8230  178.0520  138.2530 C   0  0  0  0  0  2  0  0  0  0  0  0
  187.6300  176.8390  138.3540 N   0  0  0  0  0  2  0  0  0  0  0  0
  188.5710  176.8450  137.2450 C   0  0  2  0  0  3  0  0  0  0  0  0
  188.4880  178.1660  136.5080 C   0  0  0  0  0  2  0  0  0  0  0  0
  188.6890  177.9420  135.1400 O   0  0  0  0  0  1  0  0  0  0  0  0
  188.2850  175.6900  136.2950 C   0  0  0  0  0  2  0  0  0  0  0  0
  189.4800  174.7950  136.1790 C   0  0  0  0  0  0  0  0  0  0  0  0
  189.9500  174.2240  137.2010 O   0  0  0  0  0  1  0  0  0  0  0  0
  190.0620  174.5890  134.9340 O   0  0  0  0  0  0  0  0  0  0  0  0
  1  5  1  1  0  0  0
  1  6  1  0  0  0  0
  2  4  1  0  0  0  0
  2  1  1  0  0  0  0
  3  6  1  0  0  0  0
  4  3  2  0  0  0  0
  6  8  1  6  0  0  0
  7  8  2  0  0  0  0
  8  9  1  0  0  0  0
 10  9  1  1  0  0  0
 10 11  1  0  0  0  0
 10 12  1  0  0  0  0
 11 12  1  0  0  0  0
 12 14  1  1  0  0  0
 13 19  1  0  0  0  0
 14 13  2  0  0  0  0
 16 20  2  0  0  0  0
 18 22  1  0  0  0  0
 19 21  2  0  0  0  0
 19 17  1  0  0  0  0
 20 17  1  0  0  0  0
 20 15  1  0  0  0  0
 22 15  2  0  0  0  0
 23 16  1  0  0  0  0
 23 18  2  0  0  0  0
 24 31  2  0  0  0  0
 25 27  1  1  0  0  0
 25 29  1  0  0  0  0
 26 30  1  0  0  0  0
 27 31  1  0  0  0  0
 28 25  1  0  0  0  0
 28 32  1  0  0  0  0
 29 30  1  0  0  0  0
 30 23  1  1  0  0  0
 32 24  1  1  0  0  0
 32 26  1  0  0  0  0
 33  2  2  0  0  0  0
 35 37  1  0  0  0  0
 36 44  1  6  0  0  0
 36 34  1  0  0  0  0
 37 33  1  6  0  0  0
 37 36  1  0  0  0  0
 38 35  1  0  0  0  0
 38 42  1  0  0  0  0
 39 34  1  0  0  0  0
 39 41  1  0  0  0  0
 40 38  2  0  0  0  0
 42 56  1  6  0  0  0
 42 41  1  0  0  0  0
 44 47  2  0  0  0  0
 45 54  1  6  0  0  0
 45 43  1  0  0  0  0
 45 47  1  0  0  0  0
 46 51  1  0  0  0  0
 48 54  1  0  0  0  0
 48 49  2  0  0  0  0
 49 44  1  0  0  0  0
 50 51  1  0  0  0  0
 52 53  1  6  0  0  0
 52 45  1  0  0  0  0
 52 50  1  0  0  0  0
 55 53  1  6  0  0  0
 55 43  1  0  0  0  0
 55 46  1  0  0  0  0
 56 57  1  0  0  0  0
 58 59  1  0  0  0  0
 58  4  1  0  0  0  0
 60 63  1  6  0  0  0
 60 59  1  0  0  0  0
 61 60  1  0  0  0  0
 62 61  1  0  0  0  0
 64 63  1  0  0  0  0
 64 65  1  0  0  0  0
 66 64  2  0  0  0  0
M  END
>  <MODEL>
4

>  <REMARK>
 VINA RESULT:      -4.8      3.020     10.071
  Name = 
  16 active torsions:
  status: ('A' for Active; 'I' for Inactive)
    1  A    between atoms: CA_3  and  C_12
    2  A    between atoms: CA_3  and  CB_35
    3  A    between atoms: CA_3  and  N_49
    4  A    between atoms: C_7  and  C_11
    5  A    between atoms: C_7  and  C_20
    6  A    between atoms: C_8  and  N_49
    7  A    between atoms: C_8  and  C_51
    8  A    between atoms: O_13  and  C_60
    9  A    between atoms: C_16  and  C_17
   10  A    between atoms: C_18  and  N_52
   11  A    between atoms: C_20  and  C_66
   12  A    between atoms: C_21  and  N_41
   13  A    between atoms: CG_24  and  CB_35
   14  A    between atoms: C_42  and  N_52
   15  A    between atoms: C_48  and  N_50
   16  A    between atoms: C_61  and  C_63
                            x       y       z     vdW  Elec       q    Type
                         _______ _______ _______ _____ _____    ______ ____

>  <TORSDO>
F 16

$$$$
=
 OpenBabel11042409543D

 66 74  0  0  1  0  0  0  0  0999 V2000
  186.4130  178.2930  138.3450 C   0  0  1  0  0  3  0  0  0  0  0  0
  185.1400  178.3490  138.7030 C   0  0  0  0  0  0  0  0  0  0  0  0
  186.3040  178.8460  140.5880 N   0  0  0  0  0  0  0  0  0  0  0  0
  185.1100  178.6910  140.1110 C   0  0  0  0  0  0  0  0  0  0  0  0
  186.8840  177.9710  137.0760 O   0  0  0  0  0  1  0  0  0  0  0  0
  187.2770  178.6540  139.5140 C   0  0  1  0  0  3  0  0  0  0  0  0
  188.4590  177.2200  140.9970 O   0  0  0  0  0  0  0  0  0  0  0  0
  188.2820  177.5710  139.8410 C   0  0  0  0  0  0  0  0  0  0  0  0
  189.0730  176.9060  138.7480 C   0  0  0  0  0  2  0  0  0  0  0  0
  190.4290  177.5880  138.5860 C   0  0  2  0  0  3  0  0  0  0  0  0
  191.4710  176.5250  138.2870 C   0  0  0  0  0  2  0  0  0  0  0  0
  191.4940  177.2240  139.6290 C   0  0  2  0  0  3  0  0  0  0  0  0
  191.2800  176.5390  141.8820 N   0  0  0  0  0  0  0  0  0  0  0  0
  191.0000  176.3180  140.6570 N   0  0  0  0  0  0  0  0  0  0  0  0
  192.4920  175.2180  146.2760 C   0  0  0  0  0  3  0  0  0  0  0  0
  190.8060  176.7330  145.5480 N   0  0  0  0  0  0  0  0  0  0  0  0
  191.8170  175.2370  143.9280 N   0  0  0  0  0  2  0  0  0  0  0  0
  191.4900  176.7790  147.8320 C   0  0  0  0  0  3  0  0  0  0  0  0
  190.8940  175.6170  142.9050 C   0  0  0  0  0  0  0  0  0  0  0  0
  191.6800  175.7300  145.2660 C   0  0  0  0  0  0  0  0  0  0  0  0
  189.7020  175.2240  142.9630 O   0  0  0  0  0  0  0  0  0  0  0  0
  192.3900  175.7440  147.5680 C   0  0  0  0  0  3  0  0  0  0  0  0
  190.6910  177.2680  146.8000 C   0  0  0  0  0  0  0  0  0  0  0  0
  187.8600  176.6020  148.6760 C   0  0  0  0  0  3  0  0  0  0  0  0
  187.2890  178.2590  146.4850 C   0  0  1  0  0  3  0  0  0  0  0  0
  189.3630  178.5420  148.4930 N   0  0  0  0  0  2  0  0  0  0  0  0
  187.0320  176.7420  146.4070 C   0  0  0  0  0  2  0  0  0  0  0  0
  187.0450  178.7560  147.8340 N   0  0  0  0  0  2  0  0  0  0  0  0
  188.6850  178.6590  146.0160 C   0  0  0  0  0  2  0  0  0  0  0  0
  189.7750  178.4290  147.0770 C   0  0  2  0  0  3  0  0  0  0  0  0
  187.4590  176.0230  147.5970 N   0  0  0  0  0  0  0  0  0  0  0  0
  187.9850  178.1030  148.7530 C   0  0  1  0  0  3  0  0  0  0  0  0
  183.9920  178.0890  137.8780 N   0  0  0  0  0  0  0  0  0  0  0  0
  181.0000  176.9600  139.7780 C   0  0  0  0  0  2  0  0  0  0  0  0
  181.9780  179.3320  137.3130 C   0  0  0  0  0  2  0  0  0  0  0  0
  181.8590  177.0070  138.5070 C   0  0  2  0  0  3  0  0  0  0  0  0
  182.6180  178.3380  138.2900 C   0  0  1  0  0  3  0  0  0  0  0  0
  180.6080  179.8010  137.6980 C   0  0  0  0  0  0  0  0  0  0  0  0
  179.9810  178.0850  139.8530 C   0  0  0  0  0  2  0  0  0  0  0  0
  179.7610  179.9000  136.8200 O   0  0  0  0  0  0  0  0  0  0  0  0
  180.6330  179.3010  140.1040 O   0  0  0  0  0  0  0  0  0  0  0  0
  180.2720  180.2400  139.1110 C   0  0  2  0  0  3  0  0  0  0  0  0
  178.9320  173.6640  136.5840 O   0  0  0  0  0  0  0  0  0  0  0  0
  181.1970  176.3700  137.3110 C   0  0  0  0  0  0  0  0  0  0  0  0
  180.0380  174.4500  136.1850 C   0  0  1  0  0  0  0  0  0  0  0  0
  179.7770  171.5030  137.1630 C   0  0  0  0  0  2  0  0  0  0  0  0
  180.6120  175.1640  137.4000 C   0  0  0  0  0  3  0  0  0  0  0  0
  180.5580  176.6000  134.9660 C   0  0  0  0  0  3  0  0  0  0  0  0
  181.2930  177.0320  135.9980 C   0  0  0  0  0  3  0  0  0  0  0  0
  181.9490  172.7840  136.5360 C   0  0  0  0  0  2  0  0  0  0  0  0
  181.3190  171.5290  137.1740 C   0  0  0  0  0  2  0  0  0  0  0  0
  181.0490  173.5100  135.5040 C   0  0  1  0  0  3  0  0  0  0  0  0
  180.1130  172.5070  134.9040 C   0  0  0  0  0  2  0  0  0  0  0  0
  179.5460  175.5000  135.1650 C   0  0  0  0  0  2  0  0  0  0  0  0
  179.1460  172.3720  136.0620 C   0  0  2  0  0  3  0  0  0  0  0  0
  178.9310  180.6140  139.2300 O   0  0  0  0  0  0  0  0  0  0  0  0
  178.9540  181.8080  139.9490 C   0  0  0  0  0  1  0  0  0  0  0  0
  183.8820  178.7700  140.9590 C   0  0  0  0  0  2  0  0  0  0  0  0
  184.1540  178.3170  142.3200 N   0  0  0  0  0  2  0  0  0  0  0  0
  183.1980  178.9710  143.2000 C   0  0  2  0  0  3  0  0  0  0  0  0
  183.8270  179.2040  144.5590 C   0  0  0  0  0  2  0  0  0  0  0  0
  185.0330  179.8960  144.3930 O   0  0  0  0  0  1  0  0  0  0  0  0
  181.9370  178.1300  143.3370 C   0  0  0  0  0  2  0  0  0  0  0  0
  180.7420  179.0040  143.5580 C   0  0  0  0  0  0  0  0  0  0  0  0
  179.7240  178.5540  144.1510 O   0  0  0  0  0  1  0  0  0  0  0  0
  180.7650  180.3210  143.1120 O   0  0  0  0  0  0  0  0  0  0  0  0
  1  5  1  6  0  0  0
  1  2  1  0  0  0  0
  1  6  1  0  0  0  0
  2  4  1  0  0  0  0
  4  3  2  0  0  0  0
  4 58  1  0  0  0  0
  6  8  1  1  0  0  0
  6  3  1  0  0  0  0
  8  7  2  0  0  0  0
  9  8  1  0  0  0  0
 10  9  1  1  0  0  0
 10 12  1  0  0  0  0
 11 10  1  0  0  0  0
 11 12  1  0  0  0  0
 12 14  1  1  0  0  0
 13 19  1  0  0  0  0
 14 13  2  0  0  0  0
 15 22  2  0  0  0  0
 16 23  1  0  0  0  0
 17 20  1  0  0  0  0
 19 21  2  0  0  0  0
 19 17  1  0  0  0  0
 20 16  2  0  0  0  0
 20 15  1  0  0  0  0
 22 18  1  0  0  0  0
 23 18  2  0  0  0  0
 25 29  1  1  0  0  0
 25 28  1  0  0  0  0
 26 32  1  0  0  0  0
 27 25  1  0  0  0  0
 27 31  1  0  0  0  0
 28 32  1  0  0  0  0
 29 30  1  0  0  0  0
 30 23  1  1  0  0  0
 30 26  1  0  0  0  0
 31 24  2  0  0  0  0
 32 24  1  6  0  0  0
 33  2  2  0  0  0  0
 34 39  1  0  0  0  0
 35 38  1  0  0  0  0
 35 37  1  0  0  0  0
 36 44  1  6  0  0  0
 36 34  1  0  0  0  0
 37 33  1  6  0  0  0
 37 36  1  0  0  0  0
 38 42  1  0  0  0  0
 39 41  1  0  0  0  0
 40 38  2  0  0  0  0
 42 56  1  6  0  0  0
 42 41  1  0  0  0  0
 44 47  2  0  0  0  0
 45 54  1  6  0  0  0
 45 43  1  0  0  0  0
 45 47  1  0  0  0  0
 46 51  1  0  0  0  0
 48 54  1  0  0  0  0
 48 49  2  0  0  0  0
 49 44  1  0  0  0  0
 50 51  1  0  0  0  0
 52 53  1  1  0  0  0
 52 45  1  0  0  0  0
 52 50  1  0  0  0  0
 55 53  1  6  0  0  0
 55 43  1  0  0  0  0
 55 46  1  0  0  0  0
 56 57  1  0  0  0  0
 58 59  1  0  0  0  0
 59 60  1  0  0  0  0
 60 63  1  1  0  0  0
 60 61  1  0  0  0  0
 62 61  1  0  0  0  0
 63 64  1  0  0  0  0
 64 65  1  0  0  0  0
 66 64  2  0  0  0  0
M  END
>  <MODEL>
5

>  <REMARK>
 VINA RESULT:      -4.8      3.194     10.695
  Name = 
  16 active torsions:
  status: ('A' for Active; 'I' for Inactive)
    1  A    between atoms: CA_3  and  C_12
    2  A    between atoms: CA_3  and  CB_35
    3  A    between atoms: CA_3  and  N_49
    4  A    between atoms: C_7  and  C_11
    5  A    between atoms: C_7  and  C_20
    6  A    between atoms: C_8  and  N_49
    7  A    between atoms: C_8  and  C_51
    8  A    between atoms: O_13  and  C_60
    9  A    between atoms: C_16  and  C_17
   10  A    between atoms: C_18  and  N_52
   11  A    between atoms: C_20  and  C_66
   12  A    between atoms: C_21  and  N_41
   13  A    between atoms: CG_24  and  CB_35
   14  A    between atoms: C_42  and  N_52
   15  A    between atoms: C_48  and  N_50
   16  A    between atoms: C_61  and  C_63
                            x       y       z     vdW  Elec       q    Type
                         _______ _______ _______ _____ _____    ______ ____

>  <TORSDO>
F 16

$$$$
=
 OpenBabel11042409543D

 66 74  0  0  1  0  0  0  0  0999 V2000
  185.7620  178.7180  138.8010 C   0  0  0  0  0  0  0  0  0  0  0  0
  184.5010  178.3830  139.0240 C   0  0  0  0  0  0  0  0  0  0  0  0
  185.2810  179.1090  141.0290 N   0  0  0  0  0  0  0  0  0  0  0  0
  184.2370  178.6340  140.4260 C   0  0  0  0  0  0  0  0  0  0  0  0
  186.4260  178.6080  137.5830 O   0  0  0  0  0  1  0  0  0  0  0  0
  186.3650  179.2590  140.0600 C   0  0  1  0  0  3  0  0  0  0  0  0
  188.2060  178.8040  141.4950 O   0  0  0  0  0  0  0  0  0  0  0  0
  187.6090  178.5030  140.4730 C   0  0  0  0  0  0  0  0  0  0  0  0
  188.1260  177.3650  139.6350 C   0  0  0  0  0  2  0  0  0  0  0  0
  189.3750  177.7950  138.8720 C   0  0  2  0  0  3  0  0  0  0  0  0
  190.0220  176.5590  138.2700 C   0  0  0  0  0  2  0  0  0  0  0  0
  190.7100  177.2670  139.4160 C   0  0  2  0  0  3  0  0  0  0  0  0
  191.0150  176.9320  141.7370 N   0  0  0  0  0  0  0  0  0  0  0  0
  190.5600  176.4820  140.6330 N   0  0  0  0  0  0  0  0  0  0  0  0
  190.5030  177.4100  146.4310 C   0  0  0  0  0  3  0  0  0  0  0  0
  188.8880  176.8730  144.7650 N   0  0  0  0  0  0  0  0  0  0  0  0
  191.2440  176.7350  144.2020 N   0  0  0  0  0  2  0  0  0  0  0  0
  188.1370  177.5880  146.9120 C   0  0  0  0  0  3  0  0  0  0  0  0
  190.9710  176.1440  142.9300 C   0  0  0  0  0  0  0  0  0  0  0  0
  190.1900  176.9870  145.1410 C   0  0  0  0  0  0  0  0  0  0  0  0
  190.5840  174.9510  142.8660 O   0  0  0  0  0  0  0  0  0  0  0  0
  189.4670  177.7070  147.3220 C   0  0  0  0  0  3  0  0  0  0  0  0
  187.8580  177.1620  145.6150 C   0  0  0  0  0  0  0  0  0  0  0  0
  186.0450  180.1030  145.8120 C   0  0  0  0  0  3  0  0  0  0  0  0
  184.5610  177.9040  146.7240 C   0  0  1  0  0  3  0  0  0  0  0  0
  186.0420  178.2020  144.2480 N   0  0  0  0  0  2  0  0  0  0  0  0
  185.2870  178.8250  147.7220 C   0  0  0  0  0  2  0  0  0  0  0  0
  184.0740  178.6630  145.5780 N   0  0  0  0  0  2  0  0  0  0  0  0
  185.4150  176.7280  146.2580 C   0  0  0  0  0  2  0  0  0  0  0  0
  186.4250  177.1040  145.1610 C   0  0  2  0  0  3  0  0  0  0  0  0
  186.0740  179.8650  147.0780 N   0  0  0  0  0  0  0  0  0  0  0  0
  185.2240  179.2480  144.8790 C   0  0  1  0  0  3  0  0  0  0  0  0
  183.5660  177.8380  138.0780 N   0  0  0  0  0  2  0  0  0  0  0  0
  183.7850  176.5290  134.6030 C   0  0  0  0  0  2  0  0  0  0  0  0
  183.7600  175.4140  137.9820 C   0  0  0  0  0  2  0  0  0  0  0  0
  183.0120  176.8090  135.8980 C   0  0  2  0  0  3  0  0  0  0  0  0
  183.8620  176.7230  137.1890 C   0  0  1  0  0  3  0  0  0  0  0  0
  184.1870  174.1880  137.2310 C   0  0  0  0  0  0  0  0  0  0  0  0
  184.4830  175.1780  134.6020 C   0  0  0  0  0  2  0  0  0  0  0  0
  183.5180  173.1710  137.3560 O   0  0  0  0  0  0  0  0  0  0  0  0
  185.5770  175.2080  135.4790 O   0  0  0  0  0  0  0  0  0  0  0  0
  185.4610  174.1490  136.4090 C   0  0  2  0  0  3  0  0  0  0  0  0
  179.8710  173.5390  137.5970 O   0  0  0  0  0  0  0  0  0  0  0  0
  181.6340  176.1960  135.9190 C   0  0  0  0  0  0  0  0  0  0  0  0
  180.0590  174.3090  136.4250 C   0  0  1  0  0  0  0  0  0  0  0  0
  180.7450  171.3580  137.1530 C   0  0  0  0  0  2  0  0  0  0  0  0
  181.4140  175.0010  136.4890 C   0  0  0  0  0  3  0  0  0  0  0  0
  179.2710  176.4620  135.3650 C   0  0  0  0  0  3  0  0  0  0  0  0
  180.5360  176.8690  135.2030 C   0  0  0  0  0  3  0  0  0  0  0  0
  181.2470  172.6050  134.9290 C   0  0  0  0  0  2  0  0  0  0  0  0
  181.4880  171.3560  135.8010 C   0  0  0  0  0  2  0  0  0  0  0  0
  179.9250  173.3570  135.2230 C   0  0  1  0  0  3  0  0  0  0  0  0
  178.9340  172.3770  135.7720 C   0  0  0  0  0  2  0  0  0  0  0  0
  178.9460  175.3780  136.3620 C   0  0  0  0  0  2  0  0  0  0  0  0
  179.4910  172.2480  137.1750 C   0  0  2  0  0  3  0  0  0  0  0  0
  185.6350  172.9080  135.7880 O   0  0  0  0  0  0  0  0  0  0  0  0
  186.9560  172.9120  135.3430 C   0  0  0  0  0  1  0  0  0  0  0  0
  182.9650  178.3110  141.1410 C   0  0  0  0  0  2  0  0  0  0  0  0
  181.9580  179.3430  140.9110 N   0  0  0  0  0  2  0  0  0  0  0  0
  180.7430  178.6800  140.4640 C   0  0  2  0  0  3  0  0  0  0  0  0
  180.9260  177.1770  140.5270 C   0  0  0  0  0  2  0  0  0  0  0  0
  180.1890  176.5820  139.4960 O   0  0  0  0  0  1  0  0  0  0  0  0
  180.3880  179.1110  139.0490 C   0  0  0  0  0  2  0  0  0  0  0  0
  180.6730  180.5680  138.8540 C   0  0  0  0  0  0  0  0  0  0  0  0
  181.4640  180.9470  137.9470 O   0  0  0  0  0  0  0  0  0  0  0  0
  180.0520  181.5020  139.6740 O   0  0  0  0  0  1  0  0  0  0  0  0
  1  2  2  0  0  0  0
  1  6  1  0  0  0  0
  2  4  1  0  0  0  0
  4  3  2  0  0  0  0
  4 58  1  0  0  0  0
  5  1  1  0  0  0  0
  6  8  1  1  0  0  0
  6  3  1  0  0  0  0
  8  7  2  0  0  0  0
  9  8  1  0  0  0  0
 10 12  1  0  0  0  0
 10  9  1  1  0  0  0
 11 10  1  0  0  0  0
 11 12  1  0  0  0  0
 12 14  1  1  0  0  0
 13 19  1  0  0  0  0
 14 13  2  0  0  0  0
 15 22  2  0  0  0  0
 16 20  2  0  0  0  0
 16 23  1  0  0  0  0
 17 20  1  0  0  0  0
 18 22  1  0  0  0  0
 19 17  1  0  0  0  0
 20 15  1  0  0  0  0
 21 19  2  0  0  0  0
 23 18  2  0  0  0  0
 24 31  2  0  0  0  0
 25 29  1  6  0  0  0
 25 27  1  0  0  0  0
 26 32  1  0  0  0  0
 26 30  1  0  0  0  0
 28 25  1  0  0  0  0
 30 23  1  1  0  0  0
 30 29  1  0  0  0  0
 31 27  1  0  0  0  0
 32 28  1  0  0  0  0
 32 24  1  1  0  0  0
 33  2  1  0  0  0  0
 34 36  1  0  0  0  0
 36 44  1  1  0  0  0
 36 37  1  0  0  0  0
 37 35  1  0  0  0  0
 37 33  1  1  0  0  0
 38 40  2  0  0  0  0
 38 35  1  0  0  0  0
 39 34  1  0  0  0  0
 39 41  1  0  0  0  0
 41 42  1  0  0  0  0
 42 56  1  6  0  0  0
 42 38  1  0  0  0  0
 44 47  2  0  0  0  0
 45 54  1  6  0  0  0
 45 47  1  0  0  0  0
 45 43  1  0  0  0  0
 46 55  1  0  0  0  0
 48 54  1  0  0  0  0
 49 48  2  0  0  0  0
 49 44  1  0  0  0  0
 50 51  1  0  0  0  0
 51 46  1  0  0  0  0
 52 50  1  1  0  0  0
 52 53  1  0  0  0  0
 52 45  1  0  0  0  0
 55 53  1  6  0  0  0
 55 43  1  0  0  0  0
 57 56  1  0  0  0  0
 59 58  1  0  0  0  0
 60 63  1  6  0  0  0
 60 61  1  0  0  0  0
 60 59  1  0  0  0  0
 62 61  1  0  0  0  0
 64 63  1  0  0  0  0
 64 66  1  0  0  0  0
 65 64  2  0  0  0  0
M  END
>  <MODEL>
6

>  <REMARK>
 VINA RESULT:      -4.8      2.853      9.976
  Name = 
  16 active torsions:
  status: ('A' for Active; 'I' for Inactive)
    1  A    between atoms: CA_3  and  C_12
    2  A    between atoms: CA_3  and  CB_35
    3  A    between atoms: CA_3  and  N_49
    4  A    between atoms: C_7  and  C_11
    5  A    between atoms: C_7  and  C_20
    6  A    between atoms: C_8  and  N_49
    7  A    between atoms: C_8  and  C_51
    8  A    between atoms: O_13  and  C_60
    9  A    between atoms: C_16  and  C_17
   10  A    between atoms: C_18  and  N_52
   11  A    between atoms: C_20  and  C_66
   12  A    between atoms: C_21  and  N_41
   13  A    between atoms: CG_24  and  CB_35
   14  A    between atoms: C_42  and  N_52
   15  A    between atoms: C_48  and  N_50
   16  A    between atoms: C_61  and  C_63
                            x       y       z     vdW  Elec       q    Type
                         _______ _______ _______ _____ _____    ______ ____

>  <TORSDO>
F 16

$$$$
=
 OpenBabel11042409543D

 66 74  0  0  1  0  0  0  0  0999 V2000
  185.8300  178.6280  138.8660 C   0  0  0  0  0  0  0  0  0  0  0  0
  184.5800  178.2670  139.1130 C   0  0  0  0  0  0  0  0  0  0  0  0
  185.4480  178.8080  141.1400 N   0  0  0  0  0  0  0  0  0  0  0  0
  184.3790  178.3850  140.5440 C   0  0  0  0  0  0  0  0  0  0  0  0
  186.4380  178.6350  137.6160 O   0  0  0  0  0  1  0  0  0  0  0  0
  186.4880  179.0540  140.1430 C   0  0  1  0  0  3  0  0  0  0  0  0
  188.2800  178.3270  141.5260 O   0  0  0  0  0  0  0  0  0  0  0  0
  187.7490  178.2690  140.4270 C   0  0  0  0  0  0  0  0  0  0  0  0
  188.3670  177.4010  139.3650 C   0  0  0  0  0  2  0  0  0  0  0  0
  189.7270  177.9560  138.9530 C   0  0  2  0  0  3  0  0  0  0  0  0
  190.5430  176.8300  138.3410 C   0  0  0  0  0  2  0  0  0  0  0  0
  190.9420  177.3790  139.6940 C   0  0  2  0  0  3  0  0  0  0  0  0
  190.8970  176.6580  141.9450 N   0  0  0  0  0  0  0  0  0  0  0  0
  190.5760  176.4250  140.7320 N   0  0  0  0  0  0  0  0  0  0  0  0
  192.5420  175.2920  146.1830 C   0  0  0  0  0  3  0  0  0  0  0  0
  190.7380  176.7490  145.6410 N   0  0  0  0  0  0  0  0  0  0  0  0
  191.6640  175.3350  143.9020 N   0  0  0  0  0  2  0  0  0  0  0  0
  191.6150  176.7730  147.8590 C   0  0  0  0  0  3  0  0  0  0  0  0
  190.6400  175.6970  142.9730 C   0  0  0  0  0  0  0  0  0  0  0  0
  191.6240  175.7910  145.2600 C   0  0  0  0  0  0  0  0  0  0  0  0
  189.4750  175.2510  143.1230 O   0  0  0  0  0  0  0  0  0  0  0  0
  192.5310  175.7850  147.4910 C   0  0  0  0  0  3  0  0  0  0  0  0
  190.7100  177.2500  146.9120 C   0  0  0  0  0  0  0  0  0  0  0  0
  187.8300  176.3460  148.6050 C   0  0  0  0  0  3  0  0  0  0  0  0
  187.3100  178.2510  146.6120 C   0  0  1  0  0  3  0  0  0  0  0  0
  189.3180  178.3040  148.7030 N   0  0  0  0  0  2  0  0  0  0  0  0
  187.0700  176.7530  146.3440 C   0  0  0  0  0  2  0  0  0  0  0  0
  187.0200  178.5810  148.0020 N   0  0  0  0  0  2  0  0  0  0  0  0
  188.7160  178.7120  146.2380 C   0  0  0  0  0  2  0  0  0  0  0  0
  189.7740  178.3640  147.2980 C   0  0  2  0  0  3  0  0  0  0  0  0
  187.4670  175.8990  147.4520 N   0  0  0  0  0  0  0  0  0  0  0  0
  187.9370  177.8280  148.8650 C   0  0  1  0  0  3  0  0  0  0  0  0
  183.6040  177.8060  138.1640 N   0  0  0  0  0  2  0  0  0  0  0  0
  183.0280  176.3160  134.8040 C   0  0  0  0  0  2  0  0  0  0  0  0
  184.1880  175.4460  138.0540 C   0  0  0  0  0  2  0  0  0  0  0  0
  182.6290  176.5540  136.2670 C   0  0  2  0  0  3  0  0  0  0  0  0
  183.8200  176.6970  137.2450 C   0  0  1  0  0  3  0  0  0  0  0  0
  184.5880  174.2590  137.2300 C   0  0  0  0  0  0  0  0  0  0  0  0
  183.9230  175.1020  134.6170 C   0  0  0  0  0  2  0  0  0  0  0  0
  184.1760  173.1570  137.5660 O   0  0  0  0  0  0  0  0  0  0  0  0
  185.2010  175.3710  135.1260 O   0  0  0  0  0  0  0  0  0  0  0  0
  185.5520  174.3730  136.0650 C   0  0  2  0  0  3  0  0  0  0  0  0
  180.7420  172.3510  137.7570 O   0  0  0  0  0  0  0  0  0  0  0  0
  181.4490  175.7260  136.7090 C   0  0  0  0  0  0  0  0  0  0  0  0
  180.3100  173.5220  137.0900 C   0  0  1  0  0  0  0  0  0  0  0  0
  181.1660  170.7010  136.0790 C   0  0  0  0  0  2  0  0  0  0  0  0
  181.5190  174.3850  136.7570 C   0  0  0  0  0  3  0  0  0  0  0  0
  179.1630  175.7210  137.5660 C   0  0  0  0  0  3  0  0  0  0  0  0
  180.1650  176.3930  136.9860 C   0  0  0  0  0  3  0  0  0  0  0  0
  180.4610  172.7560  134.6520 C   0  0  0  0  0  2  0  0  0  0  0  0
  181.0800  171.3440  134.6790 C   0  0  0  0  0  2  0  0  0  0  0  0
  179.5240  173.0780  135.8440 C   0  0  1  0  0  3  0  0  0  0  0  0
  178.9380  171.7940  136.3450 C   0  0  0  0  0  2  0  0  0  0  0  0
  179.3740  174.3040  138.0370 C   0  0  0  0  0  2  0  0  0  0  0  0
  180.1480  171.2630  137.0860 C   0  0  2  0  0  3  0  0  0  0  0  0
  185.7540  173.1380  135.4410 O   0  0  0  0  0  0  0  0  0  0  0  0
  186.9800  173.2620  134.7890 C   0  0  0  0  0  1  0  0  0  0  0  0
  183.1410  177.9910  141.2810 C   0  0  0  0  0  2  0  0  0  0  0  0
  182.3170  179.1570  141.5850 N   0  0  0  0  0  2  0  0  0  0  0  0
  181.6650  178.9140  142.8620 C   0  0  2  0  0  3  0  0  0  0  0  0
  180.1730  179.1440  142.7280 C   0  0  0  0  0  2  0  0  0  0  0  0
  179.9070  180.5140  142.8450 O   0  0  0  0  0  1  0  0  0  0  0  0
  182.2450  179.8190  143.9400 C   0  0  0  0  0  2  0  0  0  0  0  0
  183.4280  179.1730  144.5900 C   0  0  0  0  0  0  0  0  0  0  0  0
  183.3210  178.6540  145.7350 O   0  0  0  0  0  1  0  0  0  0  0  0
  184.6450  179.1400  143.9200 O   0  0  0  0  0  0  0  0  0  0  0  0
  1  2  2  0  0  0  0
  1  6  1  0  0  0  0
  2  4  1  0  0  0  0
  4  3  2  0  0  0  0
  4 58  1  0  0  0  0
  5  1  1  0  0  0  0
  6  8  1  1  0  0  0
  6  3  1  0  0  0  0
  8  7  2  0  0  0  0
  9  8  1  0  0  0  0
 10  9  1  1  0  0  0
 10 12  1  0  0  0  0
 11 10  1  0  0  0  0
 11 12  1  0  0  0  0
 12 14  1  1  0  0  0
 13 19  1  0  0  0  0
 14 13  2  0  0  0  0
 15 22  2  0  0  0  0
 16 23  1  0  0  0  0
 17 20  1  0  0  0  0
 19 21  2  0  0  0  0
 19 17  1  0  0  0  0
 20 16  2  0  0  0  0
 20 15  1  0  0  0  0
 22 18  1  0  0  0  0
 23 18  2  0  0  0  0
 25 29  1  1  0  0  0
 25 28  1  0  0  0  0
 26 32  1  0  0  0  0
 27 25  1  0  0  0  0
 27 31  1  0  0  0  0
 28 32  1  0  0  0  0
 29 30  1  0  0  0  0
 30 23  1  6  0  0  0
 30 26  1  0  0  0  0
 31 24  2  0  0  0  0
 32 24  1  6  0  0  0
 33  2  1  0  0  0  0
 34 36  1  0  0  0  0
 36 44  1  1  0  0  0
 36 37  1  0  0  0  0
 37 35  1  0  0  0  0
 37 33  1  1  0  0  0
 38 40  2  0  0  0  0
 38 35  1  0  0  0  0
 39 34  1  0  0  0  0
 39 41  1  0  0  0  0
 41 42  1  0  0  0  0
 42 56  1  6  0  0  0
 42 38  1  0  0  0  0
 44 47  2  0  0  0  0
 44 49  1  0  0  0  0
 45 47  1  6  0  0  0
 45 43  1  0  0  0  0
 45 54  1  0  0  0  0
 48 54  1  0  0  0  0
 49 48  2  0  0  0  0
 50 51  1  0  0  0  0
 51 46  1  0  0  0  0
 52 50  1  6  0  0  0
 52 53  1  0  0  0  0
 52 45  1  0  0  0  0
 53 55  1  0  0  0  0
 55 46  1  6  0  0  0
 55 43  1  0  0  0  0
 57 56  1  0  0  0  0
 58 59  1  0  0  0  0
 59 60  1  0  0  0  0
 60 61  1  6  0  0  0
 60 63  1  0  0  0  0
 61 62  1  0  0  0  0
 63 64  1  0  0  0  0
 64 65  1  0  0  0  0
 66 64  2  0  0  0  0
M  END
>  <MODEL>
7

>  <REMARK>
 VINA RESULT:      -4.7      2.986     10.510
  Name = 
  16 active torsions:
  status: ('A' for Active; 'I' for Inactive)
    1  A    between atoms: CA_3  and  C_12
    2  A    between atoms: CA_3  and  CB_35
    3  A    between atoms: CA_3  and  N_49
    4  A    between atoms: C_7  and  C_11
    5  A    between atoms: C_7  and  C_20
    6  A    between atoms: C_8  and  N_49
    7  A    between atoms: C_8  and  C_51
    8  A    between atoms: O_13  and  C_60
    9  A    between atoms: C_16  and  C_17
   10  A    between atoms: C_18  and  N_52
   11  A    between atoms: C_20  and  C_66
   12  A    between atoms: C_21  and  N_41
   13  A    between atoms: CG_24  and  CB_35
   14  A    between atoms: C_42  and  N_52
   15  A    between atoms: C_48  and  N_50
   16  A    between atoms: C_61  and  C_63
                            x       y       z     vdW  Elec       q    Type
                         _______ _______ _______ _____ _____    ______ ____

>  <TORSDO>
F 16

$$$$
=
 OpenBabel11042409543D

 66 74  0  0  1  0  0  0  0  0999 V2000
  191.2930  177.6240  141.2330 C   0  0  0  0  0  0  0  0  0  0  0  0
  191.0660  177.4430  139.9410 C   0  0  0  0  0  0  0  0  0  0  0  0
  189.0450  177.9790  140.8250 N   0  0  0  0  0  0  0  0  0  0  0  0
  189.6510  177.6670  139.7240 C   0  0  0  0  0  0  0  0  0  0  0  0
  192.5240  177.4820  141.8660 O   0  0  0  0  0  1  0  0  0  0  0  0
  190.0220  178.0320  141.9110 C   0  0  1  0  0  3  0  0  0  0  0  0
  189.9330  175.9190  142.9970 O   0  0  0  0  0  0  0  0  0  0  0  0
  189.6580  177.1070  143.0520 C   0  0  0  0  0  0  0  0  0  0  0  0
  188.9580  177.6370  144.2730 C   0  0  0  0  0  2  0  0  0  0  0  0
  188.1700  176.5240  144.9570 C   0  0  2  0  0  3  0  0  0  0  0  0
  187.2770  175.8590  143.9240 C   0  0  0  0  0  2  0  0  0  0  0  0
  186.6470  176.7090  145.0050 C   0  0  2  0  0  3  0  0  0  0  0  0
  185.0400  178.0690  143.9270 N   0  0  0  0  0  0  0  0  0  0  0  0
  186.2080  177.9750  144.4340 N   0  0  0  0  0  0  0  0  0  0  0  0
  184.1450  179.7490  139.5800 C   0  0  0  0  0  3  0  0  0  0  0  0
  182.6540  178.8690  141.2140 N   0  0  0  0  0  0  0  0  0  0  0  0
  184.9030  179.4790  141.8870 N   0  0  0  0  0  2  0  0  0  0  0  0
  181.9080  179.0630  138.9570 C   0  0  0  0  0  3  0  0  0  0  0  0
  184.6150  179.2670  143.2710 C   0  0  0  0  0  0  0  0  0  0  0  0
  183.8740  179.3780  140.8950 C   0  0  0  0  0  0  0  0  0  0  0  0
  183.8920  180.0860  143.8910 O   0  0  0  0  0  0  0  0  0  0  0  0
  183.1520  179.5940  138.6070 C   0  0  0  0  0  3  0  0  0  0  0  0
  181.6680  178.7030  140.2820 C   0  0  0  0  0  0  0  0  0  0  0  0
  181.3840  175.3000  139.7240 C   0  0  0  0  0  3  0  0  0  0  0  0
  179.0930  176.6850  138.8850 C   0  0  1  0  0  3  0  0  0  0  0  0
  180.4790  176.8270  141.4290 N   0  0  0  0  0  2  0  0  0  0  0  0
  180.1850  176.2930  137.8710 C   0  0  0  0  0  2  0  0  0  0  0  0
  178.9700  175.6750  139.9290 N   0  0  0  0  0  2  0  0  0  0  0  0
  179.3120  178.0640  139.5030 C   0  0  0  0  0  2  0  0  0  0  0  0
  180.3510  178.0680  140.6360 C   0  0  2  0  0  3  0  0  0  0  0  0
  181.3380  175.6540  138.4860 N   0  0  0  0  0  0  0  0  0  0  0  0
  180.2400  175.5970  140.6600 C   0  0  1  0  0  3  0  0  0  0  0  0
  192.0190  177.0610  138.9360 N   0  0  0  0  0  2  0  0  0  0  0  0
  193.0150  173.5850  138.0610 C   0  0  0  0  0  2  0  0  0  0  0  0
  191.2520  176.3750  136.7300 C   0  0  0  0  0  2  0  0  0  0  0  0
  193.1820  175.1070  137.9620 C   0  0  2  0  0  3  0  0  0  0  0  0
  191.8620  175.9090  138.0590 C   0  0  1  0  0  3  0  0  0  0  0  0
  190.8920  175.2720  135.7810 C   0  0  0  0  0  0  0  0  0  0  0  0
  192.0590  173.0190  137.0240 C   0  0  0  0  0  2  0  0  0  0  0  0
  191.1410  175.4260  134.5940 O   0  0  0  0  0  0  0  0  0  0  0  0
  190.7420  173.3810  137.3440 O   0  0  0  0  0  0  0  0  0  0  0  0
  190.1510  174.0280  136.2340 C   0  0  2  0  0  3  0  0  0  0  0  0
  196.5660  174.0330  134.6690 O   0  0  0  0  0  0  0  0  0  0  0  0
  194.1920  175.5340  136.9260 C   0  0  0  0  0  0  0  0  0  0  0  0
  196.2220  175.1170  135.5100 C   0  0  1  0  0  0  0  0  0  0  0  0
  198.3180  172.8260  135.7600 C   0  0  0  0  0  2  0  0  0  0  0  0
  195.1220  174.6810  136.4690 C   0  0  0  0  0  3  0  0  0  0  0  0
  194.9700  177.3100  135.4430 C   0  0  0  0  0  3  0  0  0  0  0  0
  194.2270  176.9430  136.4940 C   0  0  0  0  0  3  0  0  0  0  0  0
  197.8010  174.7030  137.4810 C   0  0  0  0  0  2  0  0  0  0  0  0
  198.5160  173.3680  137.1910 C   0  0  0  0  0  2  0  0  0  0  0  0
  197.5060  175.5670  136.2300 C   0  0  1  0  0  3  0  0  0  0  0  0
  198.5230  175.2440  135.1800 C   0  0  0  0  0  2  0  0  0  0  0  0
  195.6960  176.2710  134.6270 C   0  0  0  0  0  2  0  0  0  0  0  0
  197.9690  173.9090  134.7260 C   0  0  2  0  0  3  0  0  0  0  0  0
  189.9470  173.1370  135.1760 O   0  0  0  0  0  0  0  0  0  0  0  0
  188.7260  172.5240  135.4560 C   0  0  0  0  0  1  0  0  0  0  0  0
  188.9310  177.4780  138.4280 C   0  0  0  0  0  2  0  0  0  0  0  0
  187.5270  177.1450  138.6520 N   0  0  0  0  0  2  0  0  0  0  0  0
  186.8710  177.1120  137.3540 C   0  0  2  0  0  3  0  0  0  0  0  0
  187.3250  178.2930  136.5200 C   0  0  0  0  0  2  0  0  0  0  0  0
  186.9340  179.4800  137.1530 O   0  0  0  0  0  1  0  0  0  0  0  0
  185.3580  177.1310  137.5190 C   0  0  0  0  0  2  0  0  0  0  0  0
  184.7460  175.9090  136.9090 C   0  0  0  0  0  0  0  0  0  0  0  0
  184.3970  174.9400  137.6370 O   0  0  0  0  0  1  0  0  0  0  0  0
  184.5560  175.8520  135.5330 O   0  0  0  0  0  0  0  0  0  0  0  0
  1  5  1  0  0  0  0
  1  6  1  0  0  0  0
  2  1  2  0  0  0  0
  3  6  1  0  0  0  0
  4  2  1  0  0  0  0
  4  3  2  0  0  0  0
  6  8  1  1  0  0  0
  7  8  2  0  0  0  0
  8  9  1  0  0  0  0
 10  9  1  6  0  0  0
 10 12  1  0  0  0  0
 11 10  1  0  0  0  0
 11 12  1  0  0  0  0
 12 14  1  6  0  0  0
 13 14  2  0  0  0  0
 15 20  1  0  0  0  0
 17 19  1  0  0  0  0
 18 23  2  0  0  0  0
 19 21  2  0  0  0  0
 19 13  1  0  0  0  0
 20 16  2  0  0  0  0
 20 17  1  0  0  0  0
 22 18  1  0  0  0  0
 22 15  2  0  0  0  0
 23 16  1  0  0  0  0
 25 27  1  6  0  0  0
 25 29  1  0  0  0  0
 25 28  1  0  0  0  0
 27 31  1  0  0  0  0
 28 32  1  0  0  0  0
 29 30  1  0  0  0  0
 30 23  1  6  0  0  0
 30 26  1  0  0  0  0
 31 24  2  0  0  0  0
 32 24  1  6  0  0  0
 32 26  1  0  0  0  0
 33  2  1  0  0  0  0
 35 37  1  0  0  0  0
 36 44  1  6  0  0  0
 36 37  1  0  0  0  0
 36 34  1  0  0  0  0
 37 33  1  1  0  0  0
 38 42  1  0  0  0  0
 38 35  1  0  0  0  0
 39 41  1  0  0  0  0
 39 34  1  0  0  0  0
 40 38  2  0  0  0  0
 42 56  1  6  0  0  0
 42 41  1  0  0  0  0
 43 55  1  0  0  0  0
 43 45  1  0  0  0  0
 45 54  1  6  0  0  0
 45 52  1  0  0  0  0
 45 47  1  0  0  0  0
 46 51  1  0  0  0  0
 47 44  2  0  0  0  0
 48 49  2  0  0  0  0
 49 44  1  0  0  0  0
 51 50  1  0  0  0  0
 52 53  1  6  0  0  0
 52 50  1  0  0  0  0
 54 48  1  0  0  0  0
 55 53  1  1  0  0  0
 55 46  1  0  0  0  0
 56 57  1  0  0  0  0
 58 59  1  0  0  0  0
 58  4  1  0  0  0  0
 60 61  1  6  0  0  0
 60 63  1  0  0  0  0
 60 59  1  0  0  0  0
 61 62  1  0  0  0  0
 64 63  1  0  0  0  0
 64 65  1  0  0  0  0
 66 64  2  0  0  0  0
M  END
>  <MODEL>
8

>  <REMARK>
 VINA RESULT:      -4.7      2.429      9.162
  Name = 
  16 active torsions:
  status: ('A' for Active; 'I' for Inactive)
    1  A    between atoms: CA_3  and  C_12
    2  A    between atoms: CA_3  and  CB_35
    3  A    between atoms: CA_3  and  N_49
    4  A    between atoms: C_7  and  C_11
    5  A    between atoms: C_7  and  C_20
    6  A    between atoms: C_8  and  N_49
    7  A    between atoms: C_8  and  C_51
    8  A    between atoms: O_13  and  C_60
    9  A    between atoms: C_16  and  C_17
   10  A    between atoms: C_18  and  N_52
   11  A    between atoms: C_20  and  C_66
   12  A    between atoms: C_21  and  N_41
   13  A    between atoms: CG_24  and  CB_35
   14  A    between atoms: C_42  and  N_52
   15  A    between atoms: C_48  and  N_50
   16  A    between atoms: C_61  and  C_63
                            x       y       z     vdW  Elec       q    Type
                         _______ _______ _______ _____ _____    ______ ____

>  <TORSDO>
F 16

$$$$
=
 OpenBabel11042409543D

 66 74  0  0  1  0  0  0  0  0999 V2000
  187.3260  178.6060  140.1610 C   0  0  0  0  0  0  0  0  0  0  0  0
  186.1460  178.5270  139.5660 C   0  0  0  0  0  0  0  0  0  0  0  0
  185.6780  178.8970  141.7570 N   0  0  0  0  0  0  0  0  0  0  0  0
  185.1410  178.7070  140.5940 C   0  0  0  0  0  0  0  0  0  0  0  0
  188.5600  178.4630  139.5350 O   0  0  0  0  0  1  0  0  0  0  0  0
  187.1330  178.8980  141.6170 C   0  0  1  0  0  3  0  0  0  0  0  0
  187.1160  177.1060  143.1800 O   0  0  0  0  0  0  0  0  0  0  0  0
  187.7930  177.8640  142.5030 C   0  0  0  0  0  0  0  0  0  0  0  0
  189.2920  177.7470  142.5570 C   0  0  0  0  0  2  0  0  0  0  0  0
  189.7080  176.7820  143.6640 C   0  0  2  0  0  3  0  0  0  0  0  0
  190.6170  177.5200  144.6310 C   0  0  0  0  0  2  0  0  0  0  0  0
  191.2040  176.4490  143.7380 C   0  0  2  0  0  3  0  0  0  0  0  0
  192.4910  176.3510  141.7570 N   0  0  0  0  0  0  0  0  0  0  0  0
  191.9810  177.0740  142.6770 N   0  0  0  0  0  0  0  0  0  0  0  0
  197.0380  176.3950  140.3970 C   0  0  0  0  0  3  0  0  0  0  0  0
  195.2170  175.0850  139.5980 N   0  0  0  0  0  0  0  0  0  0  0  0
  194.7490  177.0270  140.9730 N   0  0  0  0  0  2  0  0  0  0  0  0
  197.4430  174.4090  139.0720 C   0  0  0  0  0  3  0  0  0  0  0  0
  193.3400  176.9210  140.7560 C   0  0  0  0  0  0  0  0  0  0  0  0
  195.6680  176.1630  140.2940 C   0  0  0  0  0  0  0  0  0  0  0  0
  192.8550  177.2290  139.6390 O   0  0  0  0  0  0  0  0  0  0  0  0
  197.9290  175.5140  139.7770 C   0  0  0  0  0  3  0  0  0  0  0  0
  196.0670  174.2060  138.9870 C   0  0  0  0  0  0  0  0  0  0  0  0
  197.1050  173.7330  135.7190 C   0  0  0  0  0  3  0  0  0  0  0  0
  194.3680  173.1990  136.0280 C   0  0  1  0  0  3  0  0  0  0  0  0
  196.6050  172.2070  137.5850 N   0  0  0  0  0  2  0  0  0  0  0  0
  194.8430  174.5640  135.4950 C   0  0  0  0  0  2  0  0  0  0  0  0
  195.2540  172.1320  135.5800 N   0  0  0  0  0  2  0  0  0  0  0  0
  194.2200  173.1640  137.5470 C   0  0  0  0  0  2  0  0  0  0  0  0
  195.5560  172.9770  138.2860 C   0  0  2  0  0  3  0  0  0  0  0  0
  196.2910  174.7020  135.4750 N   0  0  0  0  0  0  0  0  0  0  0  0
  196.5950  172.3730  136.1240 C   0  0  1  0  0  3  0  0  0  0  0  0
  185.8890  178.2740  138.1750 N   0  0  0  0  0  2  0  0  0  0  0  0
  187.1450  177.9030  134.6930 C   0  0  0  0  0  2  0  0  0  0  0  0
  187.4550  176.4290  137.9170 C   0  0  0  0  0  2  0  0  0  0  0  0
  186.2350  177.4860  135.8560 C   0  0  2  0  0  3  0  0  0  0  0  0
  186.8550  177.6800  137.2620 C   0  0  1  0  0  3  0  0  0  0  0  0
  188.5780  175.7950  137.1540 C   0  0  0  0  0  0  0  0  0  0  0  0
  188.4910  177.1960  134.7020 C   0  0  0  0  0  2  0  0  0  0  0  0
  188.6110  174.5750  137.0800 O   0  0  0  0  0  0  0  0  0  0  0  0
  189.2790  177.6880  135.7520 O   0  0  0  0  0  0  0  0  0  0  0  0
  189.7110  176.6100  136.5590 C   0  0  2  0  0  3  0  0  0  0  0  0
  182.0520  175.0800  135.4650 O   0  0  0  0  0  0  0  0  0  0  0  0
  185.4700  176.2130  135.5930 C   0  0  0  0  0  0  0  0  0  0  0  0
  183.4050  174.7970  135.7650 C   0  0  1  0  0  0  0  0  0  0  0  0
  180.8900  175.2510  137.5470 C   0  0  0  0  0  2  0  0  0  0  0  0
  184.1710  176.1040  135.9150 C   0  0  0  0  0  3  0  0  0  0  0  0
  185.5120  173.9620  134.6500 C   0  0  0  0  0  3  0  0  0  0  0  0
  186.1890  175.0350  135.0780 C   0  0  0  0  0  3  0  0  0  0  0  0
  183.3290  174.8030  138.3240 C   0  0  0  0  0  2  0  0  0  0  0  0
  181.8990  175.2280  138.7140 C   0  0  0  0  0  2  0  0  0  0  0  0
  183.4230  173.9380  137.0420 C   0  0  1  0  0  3  0  0  0  0  0  0
  182.1340  173.1940  136.8770 C   0  0  0  0  0  2  0  0  0  0  0  0
  184.0060  173.9890  134.5940 C   0  0  0  0  0  2  0  0  0  0  0  0
  181.2730  174.3340  136.3730 C   0  0  2  0  0  3  0  0  0  0  0  0
  190.6250  175.8010  135.8780 O   0  0  0  0  0  0  0  0  0  0  0  0
  191.8540  176.0630  136.4830 C   0  0  0  0  0  1  0  0  0  0  0  0
  183.6640  178.5990  140.3910 C   0  0  0  0  0  2  0  0  0  0  0  0
  183.1410  179.7790  139.7080 N   0  0  0  0  0  2  0  0  0  0  0  0
  181.6900  179.7100  139.7590 C   0  0  2  0  0  3  0  0  0  0  0  0
  181.2430  179.3210  141.1540 C   0  0  0  0  0  2  0  0  0  0  0  0
  180.7510  180.4560  141.8120 O   0  0  0  0  0  1  0  0  0  0  0  0
  181.1660  178.7110  138.7370 C   0  0  0  0  0  2  0  0  0  0  0  0
  181.1740  179.3070  137.3650 C   0  0  0  0  0  0  0  0  0  0  0  0
  181.4730  178.6000  136.3640 O   0  0  0  0  0  0  0  0  0  0  0  0
  180.8390  180.6460  137.1980 O   0  0  0  0  0  1  0  0  0  0  0  0
  1  6  1  0  0  0  0
  2  1  2  0  0  0  0
  2  4  1  0  0  0  0
  4  3  2  0  0  0  0
  5  1  1  0  0  0  0
  6  3  1  0  0  0  0
  6  8  1  1  0  0  0
  8  9  1  0  0  0  0
  8  7  2  0  0  0  0
 10  9  1  6  0  0  0
 10 12  1  0  0  0  0
 10 11  1  0  0  0  0
 12 14  1  6  0  0  0
 12 11  1  0  0  0  0
 13 14  2  0  0  0  0
 16 20  2  0  0  0  0
 18 22  1  0  0  0  0
 19 17  1  0  0  0  0
 19 13  1  0  0  0  0
 20 15  1  0  0  0  0
 20 17  1  0  0  0  0
 21 19  2  0  0  0  0
 22 15  2  0  0  0  0
 23 18  2  0  0  0  0
 23 16  1  0  0  0  0
 25 27  1  1  0  0  0
 25 29  1  0  0  0  0
 26 30  1  0  0  0  0
 28 25  1  0  0  0  0
 28 32  1  0  0  0  0
 29 30  1  0  0  0  0
 30 23  1  6  0  0  0
 31 27  1  0  0  0  0
 31 24  2  0  0  0  0
 32 24  1  1  0  0  0
 32 26  1  0  0  0  0
 33  2  1  0  0  0  0
 34 39  1  0  0  0  0
 34 36  1  0  0  0  0
 36 44  1  6  0  0  0
 36 37  1  0  0  0  0
 37 35  1  0  0  0  0
 37 33  1  1  0  0  0
 38 35  1  0  0  0  0
 39 41  1  0  0  0  0
 40 38  2  0  0  0  0
 41 42  1  0  0  0  0
 42 56  1  6  0  0  0
 42 38  1  0  0  0  0
 43 45  1  0  0  0  0
 43 55  1  0  0  0  0
 44 47  2  0  0  0  0
 45 54  1  6  0  0  0
 45 47  1  0  0  0  0
 45 52  1  0  0  0  0
 46 51  1  0  0  0  0
 48 49  2  0  0  0  0
 49 44  1  0  0  0  0
 50 51  1  0  0  0  0
 52 53  1  6  0  0  0
 52 50  1  0  0  0  0
 54 48  1  0  0  0  0
 55 53  1  1  0  0  0
 55 46  1  0  0  0  0
 56 57  1  0  0  0  0
 58  4  1  0  0  0  0
 59 60  1  0  0  0  0
 59 58  1  0  0  0  0
 60 63  1  6  0  0  0
 60 61  1  0  0  0  0
 61 62  1  0  0  0  0
 64 63  1  0  0  0  0
 65 64  2  0  0  0  0
 66 64  1  0  0  0  0
M  END
>  <MODEL>
9

>  <REMARK>
 VINA RESULT:      -4.6      2.952     11.097
  Name = 
  16 active torsions:
  status: ('A' for Active; 'I' for Inactive)
    1  A    between atoms: CA_3  and  C_12
    2  A    between atoms: CA_3  and  CB_35
    3  A    between atoms: CA_3  and  N_49
    4  A    between atoms: C_7  and  C_11
    5  A    between atoms: C_7  and  C_20
    6  A    between atoms: C_8  and  N_49
    7  A    between atoms: C_8  and  C_51
    8  A    between atoms: O_13  and  C_60
    9  A    between atoms: C_16  and  C_17
   10  A    between atoms: C_18  and  N_52
   11  A    between atoms: C_20  and  C_66
   12  A    between atoms: C_21  and  N_41
   13  A    between atoms: CG_24  and  CB_35
   14  A    between atoms: C_42  and  N_52
   15  A    between atoms: C_48  and  N_50
   16  A    between atoms: C_61  and  C_63
                            x       y       z     vdW  Elec       q    Type
                         _______ _______ _______ _____ _____    ______ ____

>  <TORSDO>
F 16

$$$$
