=
 OpenBabel11042413213D

 40 45  0  0  1  0  0  0  0  0999 V2000
  187.0820  178.2060  139.4360 C   0  0  0  0  0  0  0  0  0  0  0  0
  187.9440  176.7430  137.6620 C   0  0  0  0  0  3  0  0  0  0  0  0
  186.0580  178.9370  139.9460 N   0  0  0  0  0  0  0  0  0  0  0  0
  191.1920  176.3300  139.1600 C   0  0  0  0  0  3  0  0  0  0  0  0
  189.3260  177.3710  139.5440 C   0  0  0  0  0  0  0  0  0  0  0  0
  189.1510  176.6990  138.3620 C   0  0  0  0  0  0  0  0  0  0  0  0
  188.3090  178.1380  140.1170 C   0  0  0  0  0  3  0  0  0  0  0  0
  190.5630  177.1600  140.0280 N   0  0  0  0  0  0  0  0  0  0  0  0
  185.6700  177.6010  137.5730 C   0  0  0  0  0  3  0  0  0  0  0  0
  190.3360  176.0320  138.1000 C   0  0  0  0  0  0  0  0  0  0  0  0
  184.8640  179.0100  139.3000 C   0  0  0  0  0  0  0  0  0  0  0  0
  184.6780  178.3460  138.1270 N   0  0  0  0  0  0  0  0  0  0  0  0
  183.8050  179.7820  139.8520 N   0  0  0  0  0  1  0  0  0  0  0  0
  186.9040  177.5090  138.2110 C   0  0  0  0  0  0  0  0  0  0  0  0
  194.2490  174.1090  134.8260 C   0  0  1  0  0  3  0  0  0  0  0  0
  194.3060  173.2280  136.4130 S   0  0  0  0  0  0  0  0  0  0  0  0
  191.2280  174.0150  137.1440 N   0  0  0  0  0  2  0  0  0  0  0  0
  193.1070  175.1070  134.8660 C   0  0  0  0  0  2  0  0  0  0  0  0
  192.7380  172.3700  136.0690 C   0  0  0  0  0  2  0  0  0  0  0  0
  190.4900  175.6670  135.2470 S   0  0  0  0  0  0  0  0  0  0  0  0
  191.7410  174.4160  134.8280 C   0  0  2  0  0  3  0  0  0  0  0  0
  195.5530  174.8520  134.6240 C   0  0  0  0  0  1  0  0  0  0  0  0
  191.5690  173.3400  135.9070 C   0  0  2  0  0  3  0  0  0  0  0  0
  190.6630  175.1600  136.9590 C   0  0  2  0  0  3  0  0  0  0  0  0
  192.6100  177.6510  141.3120 C   0  0  0  0  0  1  0  0  0  0  0  0
  191.0890  177.6580  141.3020 C   0  0  2  0  0  3  0  0  0  0  0  0
  190.5410  176.9020  142.4830 C   0  0  0  0  0  0  0  0  0  0  0  0
  190.2160  175.7340  142.3400 O   0  0  0  0  0  0  0  0  0  0  0  0
  190.4210  177.5370  143.8400 C   0  0  0  0  0  2  0  0  0  0  0  0
  189.4630  176.7830  144.7670 C   0  0  1  0  0  3  0  0  0  0  0  0
  189.9720  176.7080  146.0530 F   0  0  0  0  0  0  0  0  0  0  0  0
  185.4610  178.3800  144.7550 C   0  0  0  0  0  0  0  0  0  0  0  0
  186.1930  178.2920  145.9480 C   0  0  0  0  0  3  0  0  0  0  0  0
  188.0770  177.3490  144.7490 C   0  0  0  0  0  0  0  0  0  0  0  0
  187.3460  177.4270  143.5550 C   0  0  0  0  0  3  0  0  0  0  0  0
  186.0470  177.9420  143.5590 C   0  0  0  0  0  3  0  0  0  0  0  0
  187.4930  177.7790  145.9450 C   0  0  0  0  0  3  0  0  0  0  0  0
  184.0930  178.9260  144.7570 C   0  0  0  0  0  0  0  0  0  0  0  0
  183.4630  179.2980  143.5340 N   0  0  0  0  0  1  0  0  0  0  0  0
  183.4700  179.0750  145.8410 O   0  0  0  0  0  0  0  0  0  0  0  0
  1  3  1  0  0  0  0
  1  7  1  0  0  0  0
  2 14  1  0  0  0  0
  2  6  2  0  0  0  0
  4  8  1  0  0  0  0
  5  8  1  0  0  0  0
  5  7  2  0  0  0  0
  6  5  1  0  0  0  0
  8 26  1  0  0  0  0
  9 12  2  0  0  0  0
  9 14  1  0  0  0  0
 10  6  1  0  0  0  0
 10  4  2  0  0  0  0
 11 13  1  0  0  0  0
 11  3  2  0  0  0  0
 12 11  1  0  0  0  0
 14  1  2  0  0  0  0
 15 22  1  1  0  0  0
 15 18  1  0  0  0  0
 15 16  1  0  0  0  0
 19 16  1  0  0  0  0
 20 24  1  0  0  0  0
 21 18  1  1  0  0  0
 21 20  1  0  0  0  0
 21 23  1  0  0  0  0
 23 19  1  1  0  0  0
 23 17  1  0  0  0  0
 24 17  1  0  0  0  0
 24 10  1  1  0  0  0
 26 25  1  6  0  0  0
 26 27  1  0  0  0  0
 27 29  1  0  0  0  0
 28 27  2  0  0  0  0
 29 30  1  0  0  0  0
 30 31  1  1  0  0  0
 32 38  1  0  0  0  0
 32 33  1  0  0  0  0
 34 30  1  0  0  0  0
 34 37  1  0  0  0  0
 35 36  1  0  0  0  0
 35 34  2  0  0  0  0
 36 32  2  0  0  0  0
 37 33  2  0  0  0  0
 38 40  2  0  0  0  0
 39 38  1  0  0  0  0
M  END
>  <MODEL>
1

>  <REMARK>
 VINA RESULT:      -9.4      0.000      0.000
  Name = 
  7 active torsions:
  status: ('A' for Active; 'I' for Inactive)
    1  A    between atoms: C_1  and  C_5
    2  A    between atoms: C_7  and  C_21
    3  A    between atoms: C_7  and  C_23
    4  A    between atoms: C_14  and  N_20
    5  A    between atoms: C_14  and  C_23
    6  A    between atoms: C_16  and  C_21
    7  A    between atoms: C_27  and  C_40
                            x       y       z     vdW  Elec       q    Type
                         _______ _______ _______ _____ _____    ______ ____

>  <TORSDO>
F 7

$$$$
=
 OpenBabel11042413213D

 40 45  0  0  1  0  0  0  0  0999 V2000
  185.2550  178.7510  142.6700 C   0  0  0  0  0  0  0  0  0  0  0  0
  183.7180  178.2800  140.8120 C   0  0  0  0  0  3  0  0  0  0  0  0
  185.4430  178.9670  143.9960 N   0  0  0  0  0  0  0  0  0  0  0  0
  186.2930  178.2100  138.2960 C   0  0  0  0  0  3  0  0  0  0  0  0
  186.0920  178.5350  140.4340 C   0  0  0  0  0  0  0  0  0  0  0  0
  184.8260  178.3020  139.9630 C   0  0  0  0  0  0  0  0  0  0  0  0
  186.3490  178.7620  141.7880 C   0  0  0  0  0  3  0  0  0  0  0  0
  186.9840  178.4900  139.4290 N   0  0  0  0  0  0  0  0  0  0  0  0
  182.8890  178.5030  143.0880 C   0  0  0  0  0  3  0  0  0  0  0  0
  184.9360  178.0980  138.5990 C   0  0  0  0  0  0  0  0  0  0  0  0
  184.3950  178.9550  144.8610 C   0  0  0  0  0  0  0  0  0  0  0  0
  183.1340  178.7240  144.4060 N   0  0  0  0  0  0  0  0  0  0  0  0
  184.6170  179.1840  146.2470 N   0  0  0  0  0  1  0  0  0  0  0  0
  183.9430  178.5100  142.1780 C   0  0  0  0  0  0  0  0  0  0  0  0
  180.0170  175.8900  137.7890 C   0  0  1  0  0  3  0  0  0  0  0  0
  179.8230  177.5260  138.5530 S   0  0  0  0  0  0  0  0  0  0  0  0
  182.7850  178.4990  137.6020 N   0  0  0  0  0  2  0  0  0  0  0  0
  181.4950  175.6280  137.5730 C   0  0  0  0  0  2  0  0  0  0  0  0
  180.3750  178.3730  137.0390 C   0  0  0  0  0  2  0  0  0  0  0  0
  183.8870  176.3650  136.5510 S   0  0  0  0  0  0  0  0  0  0  0  0
  182.0760  176.5030  136.4600 C   0  0  2  0  0  3  0  0  0  0  0  0
  179.4540  174.8380  138.7210 C   0  0  0  0  0  1  0  0  0  0  0  0
  181.8070  178.0010  136.6560 C   0  0  2  0  0  3  0  0  0  0  0  0
  183.8690  177.7990  137.6280 C   0  0  2  0  0  3  0  0  0  0  0  0
  189.0980  178.8170  138.2000 C   0  0  0  0  0  1  0  0  0  0  0  0
  188.4380  178.6220  139.5570 C   0  0  2  0  0  3  0  0  0  0  0  0
  189.0570  177.4630  140.2930 C   0  0  0  0  0  0  0  0  0  0  0  0
  189.0740  176.3650  139.7600 O   0  0  0  0  0  0  0  0  0  0  0  0
  189.6880  177.6320  141.6460 C   0  0  0  0  0  2  0  0  0  0  0  0
  189.4490  176.4350  142.5680 C   0  0  1  0  0  3  0  0  0  0  0  0
  190.4170  175.4620  142.3820 F   0  0  0  0  0  0  0  0  0  0  0  0
  189.1270  177.5290  146.7240 C   0  0  0  0  0  0  0  0  0  0  0  0
  190.3800  177.2800  146.1440 C   0  0  0  0  0  3  0  0  0  0  0  0
  189.3270  176.8290  144.0080 C   0  0  0  0  0  0  0  0  0  0  0  0
  188.0720  177.0690  144.5860 C   0  0  0  0  0  3  0  0  0  0  0  0
  187.9740  177.4190  145.9350 C   0  0  0  0  0  3  0  0  0  0  0  0
  190.4780  176.9310  144.7940 C   0  0  0  0  0  3  0  0  0  0  0  0
  189.0230  177.9020  148.1450 C   0  0  0  0  0  0  0  0  0  0  0  0
  187.7610  177.8800  148.8060 N   0  0  0  0  0  1  0  0  0  0  0  0
  190.0490  178.2500  148.7870 O   0  0  0  0  0  0  0  0  0  0  0  0
  1  3  1  0  0  0  0
  2 14  2  0  0  0  0
  3 11  2  0  0  0  0
  4 10  2  0  0  0  0
  4  8  1  0  0  0  0
  5  7  1  0  0  0  0
  6  5  2  0  0  0  0
  6  2  1  0  0  0  0
  7  1  2  0  0  0  0
  8 26  1  0  0  0  0
  8  5  1  0  0  0  0
  9 12  2  0  0  0  0
 10  6  1  0  0  0  0
 11 13  1  0  0  0  0
 12 11  1  0  0  0  0
 14  1  1  0  0  0  0
 14  9  1  0  0  0  0
 15 16  1  0  0  0  0
 15 22  1  1  0  0  0
 17 24  1  0  0  0  0
 18 15  1  0  0  0  0
 19 16  1  0  0  0  0
 20 24  1  0  0  0  0
 21 20  1  0  0  0  0
 21 23  1  0  0  0  0
 21 18  1  1  0  0  0
 23 19  1  1  0  0  0
 23 17  1  0  0  0  0
 24 10  1  1  0  0  0
 26 25  1  6  0  0  0
 26 27  1  0  0  0  0
 27 29  1  0  0  0  0
 28 27  2  0  0  0  0
 29 30  1  0  0  0  0
 30 31  1  1  0  0  0
 30 34  1  0  0  0  0
 32 38  1  0  0  0  0
 33 32  1  0  0  0  0
 34 35  2  0  0  0  0
 34 37  1  0  0  0  0
 35 36  1  0  0  0  0
 36 32  2  0  0  0  0
 37 33  2  0  0  0  0
 38 40  2  0  0  0  0
 38 39  1  0  0  0  0
M  END
>  <MODEL>
2

>  <REMARK>
 VINA RESULT:      -9.0      4.162      7.246
  Name = 
  7 active torsions:
  status: ('A' for Active; 'I' for Inactive)
    1  A    between atoms: C_1  and  C_5
    2  A    between atoms: C_7  and  C_21
    3  A    between atoms: C_7  and  C_23
    4  A    between atoms: C_14  and  N_20
    5  A    between atoms: C_14  and  C_23
    6  A    between atoms: C_16  and  C_21
    7  A    between atoms: C_27  and  C_40
                            x       y       z     vdW  Elec       q    Type
                         _______ _______ _______ _____ _____    ______ ____

>  <TORSDO>
F 7

$$$$
=
 OpenBabel11042413213D

 40 45  0  0  1  0  0  0  0  0999 V2000
  184.8990  178.8330  141.9330 C   0  0  0  0  0  0  0  0  0  0  0  0
  183.6050  178.0960  139.9790 C   0  0  0  0  0  3  0  0  0  0  0  0
  184.9270  179.1840  143.2430 N   0  0  0  0  0  0  0  0  0  0  0  0
  186.4450  177.9520  137.7700 C   0  0  0  0  0  3  0  0  0  0  0  0
  185.9910  178.4620  139.8320 C   0  0  0  0  0  0  0  0  0  0  0  0
  184.7980  178.1080  139.2540 C   0  0  0  0  0  0  0  0  0  0  0  0
  186.0830  178.8310  141.1750 C   0  0  0  0  0  3  0  0  0  0  0  0
  186.9910  178.3790  138.9360 N   0  0  0  0  0  0  0  0  0  0  0  0
  182.5170  178.4780  142.1200 C   0  0  0  0  0  3  0  0  0  0  0  0
  185.0710  177.7840  137.9370 C   0  0  0  0  0  0  0  0  0  0  0  0
  183.7910  179.1880  143.9900 C   0  0  0  0  0  0  0  0  0  0  0  0
  182.6020  178.8370  143.4280 N   0  0  0  0  0  0  0  0  0  0  0  0
  183.8450  179.5590  145.3610 N   0  0  0  0  0  1  0  0  0  0  0  0
  183.6650  178.4670  141.3320 C   0  0  0  0  0  0  0  0  0  0  0  0
  180.7660  174.6600  136.7390 C   0  0  1  0  0  3  0  0  0  0  0  0
  180.1980  176.1710  137.5700 S   0  0  0  0  0  0  0  0  0  0  0  0
  182.9310  177.7910  136.8380 N   0  0  0  0  0  2  0  0  0  0  0  0
  182.2740  174.7220  136.5960 C   0  0  0  0  0  2  0  0  0  0  0  0
  180.6300  177.2030  136.1340 C   0  0  0  0  0  2  0  0  0  0  0  0
  184.5030  175.9970  135.7500 S   0  0  0  0  0  0  0  0  0  0  0  0
  182.7100  175.7640  135.5620 C   0  0  2  0  0  3  0  0  0  0  0  0
  180.3930  173.4600  137.5850 C   0  0  0  0  0  1  0  0  0  0  0  0
  182.1240  177.1590  135.8150 C   0  0  2  0  0  3  0  0  0  0  0  0
  184.1360  177.3300  136.8930 C   0  0  2  0  0  3  0  0  0  0  0  0
  189.1760  178.9040  137.9210 C   0  0  0  0  0  1  0  0  0  0  0  0
  188.4120  178.6140  139.2030 C   0  0  2  0  0  3  0  0  0  0  0  0
  189.0480  177.4780  139.9610 C   0  0  0  0  0  0  0  0  0  0  0  0
  189.1590  176.3910  139.4160 O   0  0  0  0  0  0  0  0  0  0  0  0
  189.5850  177.6590  141.3530 C   0  0  0  0  0  2  0  0  0  0  0  0
  189.3010  176.4600  142.2610 C   0  0  1  0  0  3  0  0  0  0  0  0
  190.4030  175.6240  142.3380 F   0  0  0  0  0  0  0  0  0  0  0  0
  187.8630  177.6550  146.1430 C   0  0  0  0  0  0  0  0  0  0  0  0
  186.9700  177.2170  145.1530 C   0  0  0  0  0  3  0  0  0  0  0  0
  188.8130  176.8640  143.6180 C   0  0  0  0  0  0  0  0  0  0  0  0
  189.7080  177.3090  144.6020 C   0  0  0  0  0  3  0  0  0  0  0  0
  189.2350  177.6990  145.8570 C   0  0  0  0  0  3  0  0  0  0  0  0
  187.4440  176.8260  143.8970 C   0  0  0  0  0  3  0  0  0  0  0  0
  187.3660  178.0630  147.4680 C   0  0  0  0  0  0  0  0  0  0  0  0
  188.1160  177.7670  148.6430 N   0  0  0  0  0  1  0  0  0  0  0  0
  186.2690  178.6720  147.5750 O   0  0  0  0  0  0  0  0  0  0  0  0
  1  3  1  0  0  0  0
  2 14  2  0  0  0  0
  3 11  2  0  0  0  0
  4 10  2  0  0  0  0
  4  8  1  0  0  0  0
  5  7  1  0  0  0  0
  6  5  2  0  0  0  0
  6  2  1  0  0  0  0
  7  1  2  0  0  0  0
  8 26  1  0  0  0  0
  8  5  1  0  0  0  0
  9 12  2  0  0  0  0
 10  6  1  0  0  0  0
 11 13  1  0  0  0  0
 12 11  1  0  0  0  0
 14  1  1  0  0  0  0
 14  9  1  0  0  0  0
 15 16  1  0  0  0  0
 15 22  1  1  0  0  0
 17 24  1  0  0  0  0
 18 15  1  0  0  0  0
 19 16  1  0  0  0  0
 20 24  1  0  0  0  0
 21 20  1  0  0  0  0
 21 23  1  0  0  0  0
 21 18  1  1  0  0  0
 23 19  1  1  0  0  0
 23 17  1  0  0  0  0
 24 10  1  1  0  0  0
 26 25  1  6  0  0  0
 26 27  1  0  0  0  0
 27 29  1  0  0  0  0
 28 27  2  0  0  0  0
 29 30  1  0  0  0  0
 30 31  1  1  0  0  0
 30 34  1  0  0  0  0
 32 38  1  0  0  0  0
 33 32  2  0  0  0  0
 34 37  2  0  0  0  0
 34 35  1  0  0  0  0
 35 36  2  0  0  0  0
 36 32  1  0  0  0  0
 37 33  1  0  0  0  0
 38 40  2  0  0  0  0
 38 39  1  0  0  0  0
M  END
>  <MODEL>
3

>  <REMARK>
 VINA RESULT:      -9.0      3.935      6.685
  Name = 
  7 active torsions:
  status: ('A' for Active; 'I' for Inactive)
    1  A    between atoms: C_1  and  C_5
    2  A    between atoms: C_7  and  C_21
    3  A    between atoms: C_7  and  C_23
    4  A    between atoms: C_14  and  N_20
    5  A    between atoms: C_14  and  C_23
    6  A    between atoms: C_16  and  C_21
    7  A    between atoms: C_27  and  C_40
                            x       y       z     vdW  Elec       q    Type
                         _______ _______ _______ _____ _____    ______ ____

>  <TORSDO>
F 7

$$$$
=
 OpenBabel11042413213D

 40 45  0  0  1  0  0  0  0  0999 V2000
  190.7350  174.9790  137.5810 C   0  0  0  0  0  0  0  0  0  0  0  0
  188.5090  175.9280  137.1560 C   0  0  0  0  0  3  0  0  0  0  0  0
  191.7230  174.1250  137.2160 N   0  0  0  0  0  0  0  0  0  0  0  0
  188.5820  178.1570  139.9830 C   0  0  0  0  0  3  0  0  0  0  0  0
  189.8330  176.6480  139.0470 C   0  0  0  0  0  0  0  0  0  0  0  0
  188.6890  176.7160  138.2940 C   0  0  0  0  0  0  0  0  0  0  0  0
  190.8850  175.7890  138.7200 C   0  0  0  0  0  3  0  0  0  0  0  0
  189.7710  177.5110  140.0760 N   0  0  0  0  0  0  0  0  0  0  0  0
  189.4440  174.2340  135.6810 C   0  0  0  0  0  3  0  0  0  0  0  0
  187.8780  177.6720  138.8810 C   0  0  0  0  0  0  0  0  0  0  0  0
  191.5940  173.3370  136.1150 C   0  0  0  0  0  0  0  0  0  0  0  0
  190.4640  173.3970  135.3600 N   0  0  0  0  0  0  0  0  0  0  0  0
  192.6440  172.4490  135.7520 N   0  0  0  0  0  1  0  0  0  0  0  0
  189.5480  175.0510  136.8040 C   0  0  0  0  0  0  0  0  0  0  0  0
  182.5020  176.7740  139.0250 C   0  0  1  0  0  3  0  0  0  0  0  0
  183.0270  177.5290  140.5900 S   0  0  0  0  0  0  0  0  0  0  0  0
  185.7570  178.7330  139.2790 N   0  0  0  0  0  2  0  0  0  0  0  0
  183.7130  176.6390  138.1210 C   0  0  0  0  0  2  0  0  0  0  0  0
  183.3630  179.1260  139.7840 C   0  0  0  0  0  2  0  0  0  0  0  0
  185.8330  177.7380  136.8540 S   0  0  0  0  0  0  0  0  0  0  0  0
  184.1960  177.9960  137.6040 C   0  0  2  0  0  3  0  0  0  0  0  0
  181.9320  175.3990  139.3050 C   0  0  0  0  0  1  0  0  0  0  0  0
  184.4520  179.0190  138.7170 C   0  0  2  0  0  3  0  0  0  0  0  0
  186.5450  178.1300  138.4540 C   0  0  2  0  0  3  0  0  0  0  0  0
  192.2070  177.5000  140.4600 C   0  0  0  0  0  1  0  0  0  0  0  0
  190.8330  177.7680  141.0530 C   0  0  2  0  0  3  0  0  0  0  0  0
  190.6380  176.9930  142.3290 C   0  0  0  0  0  0  0  0  0  0  0  0
  190.5500  175.7760  142.2750 O   0  0  0  0  0  0  0  0  0  0  0  0
  190.5890  177.6730  143.6680 C   0  0  0  0  0  2  0  0  0  0  0  0
  189.7950  176.8810  144.7100 C   0  0  1  0  0  3  0  0  0  0  0  0
  190.4390  176.8880  145.9360 F   0  0  0  0  0  0  0  0  0  0  0  0
  185.7150  178.2350  145.0050 C   0  0  0  0  0  0  0  0  0  0  0  0
  186.2790  177.9300  143.7570 C   0  0  0  0  0  3  0  0  0  0  0  0
  188.3740  177.3390  144.8250 C   0  0  0  0  0  0  0  0  0  0  0  0
  187.8170  177.6520  146.0730 C   0  0  0  0  0  3  0  0  0  0  0  0
  186.4940  178.0950  146.1610 C   0  0  0  0  0  3  0  0  0  0  0  0
  187.6010  177.4850  143.6690 C   0  0  0  0  0  3  0  0  0  0  0  0
  184.3200  178.6990  145.0990 C   0  0  0  0  0  0  0  0  0  0  0  0
  183.5170  178.8140  143.9280 N   0  0  0  0  0  1  0  0  0  0  0  0
  183.8260  179.0040  146.2170 O   0  0  0  0  0  0  0  0  0  0  0  0
  1  7  1  0  0  0  0
  2  6  2  0  0  0  0
  3  1  1  0  0  0  0
  4  8  1  0  0  0  0
  5  8  1  0  0  0  0
  6 10  1  0  0  0  0
  6  5  1  0  0  0  0
  7  5  2  0  0  0  0
  8 26  1  0  0  0  0
  9 14  1  0  0  0  0
 10  4  2  0  0  0  0
 11  3  2  0  0  0  0
 12  9  2  0  0  0  0
 12 11  1  0  0  0  0
 13 11  1  0  0  0  0
 14  2  1  0  0  0  0
 14  1  2  0  0  0  0
 15 22  1  1  0  0  0
 15 16  1  0  0  0  0
 18 15  1  0  0  0  0
 19 16  1  0  0  0  0
 20 21  1  0  0  0  0
 20 24  1  0  0  0  0
 21 18  1  1  0  0  0
 21 23  1  0  0  0  0
 23 17  1  0  0  0  0
 23 19  1  1  0  0  0
 24 10  1  1  0  0  0
 24 17  1  0  0  0  0
 26 25  1  6  0  0  0
 26 27  1  0  0  0  0
 27 29  1  0  0  0  0
 28 27  2  0  0  0  0
 29 30  1  0  0  0  0
 30 34  1  0  0  0  0
 30 31  1  1  0  0  0
 32 38  1  0  0  0  0
 32 36  1  0  0  0  0
 33 32  2  0  0  0  0
 34 35  1  0  0  0  0
 35 36  2  0  0  0  0
 37 33  1  0  0  0  0
 37 34  2  0  0  0  0
 38 40  2  0  0  0  0
 39 38  1  0  0  0  0
M  END
>  <MODEL>
4

>  <REMARK>
 VINA RESULT:      -8.7      2.150      6.253
  Name = 
  7 active torsions:
  status: ('A' for Active; 'I' for Inactive)
    1  A    between atoms: C_1  and  C_5
    2  A    between atoms: C_7  and  C_21
    3  A    between atoms: C_7  and  C_23
    4  A    between atoms: C_14  and  N_20
    5  A    between atoms: C_14  and  C_23
    6  A    between atoms: C_16  and  C_21
    7  A    between atoms: C_27  and  C_40
                            x       y       z     vdW  Elec       q    Type
                         _______ _______ _______ _____ _____    ______ ____

>  <TORSDO>
F 7

$$$$
=
 OpenBabel11042413213D

 40 45  0  0  1  0  0  0  0  0999 V2000
  181.9900  174.9920  137.8550 C   0  0  0  0  0  0  0  0  0  0  0  0
  184.0640  174.9790  136.5390 C   0  0  0  0  0  3  0  0  0  0  0  0
  180.8130  174.3970  138.1750 N   0  0  0  0  0  0  0  0  0  0  0  0
  185.3440  178.0310  137.9580 C   0  0  0  0  0  3  0  0  0  0  0  0
  183.5890  176.7590  138.1040 C   0  0  0  0  0  0  0  0  0  0  0  0
  184.4070  176.1750  137.1720 C   0  0  0  0  0  0  0  0  0  0  0  0
  182.3680  176.1940  138.4760 C   0  0  0  0  0  3  0  0  0  0  0  0
  184.1460  177.8890  138.5770 N   0  0  0  0  0  0  0  0  0  0  0  0
  182.4290  173.1950  136.3020 C   0  0  0  0  0  3  0  0  0  0  0  0
  185.5300  176.9770  137.0640 C   0  0  0  0  0  0  0  0  0  0  0  0
  180.4360  173.2320  137.5850 C   0  0  0  0  0  0  0  0  0  0  0  0
  181.2400  172.6420  136.6600 N   0  0  0  0  0  0  0  0  0  0  0  0
  179.1980  172.6270  137.9370 N   0  0  0  0  0  1  0  0  0  0  0  0
  182.8390  174.3890  136.8890 C   0  0  0  0  0  0  0  0  0  0  0  0
  190.9000  176.0500  136.8730 C   0  0  1  0  0  3  0  0  0  0  0  0
  190.0330  174.4930  137.2180 S   0  0  0  0  0  0  0  0  0  0  0  0
  187.2140  175.6110  136.0240 N   0  0  0  0  0  2  0  0  0  0  0  0
  189.8710  177.1520  136.7100 C   0  0  0  0  0  2  0  0  0  0  0  0
  189.3370  174.4300  135.5370 C   0  0  0  0  0  2  0  0  0  0  0  0
  187.6590  178.1430  135.5120 S   0  0  0  0  0  0  0  0  0  0  0  0
  189.0750  177.0060  135.4110 C   0  0  2  0  0  3  0  0  0  0  0  0
  191.8060  176.3820  138.0390 C   0  0  0  0  0  1  0  0  0  0  0  0
  188.4320  175.6240  135.2390 C   0  0  2  0  0  3  0  0  0  0  0  0
  186.7140  176.7860  136.2070 C   0  0  2  0  0  3  0  0  0  0  0  0
  183.2250  180.1180  139.0940 C   0  0  0  0  0  1  0  0  0  0  0  0
  183.5990  178.7450  139.6330 C   0  0  2  0  0  3  0  0  0  0  0  0
  184.5280  178.8670  140.8110 C   0  0  0  0  0  0  0  0  0  0  0  0
  185.3720  179.7510  140.8120 O   0  0  0  0  0  0  0  0  0  0  0  0
  184.4190  177.9570  142.0020 C   0  0  0  0  0  2  0  0  0  0  0  0
  184.1840  178.7140  143.3110 C   0  0  1  0  0  3  0  0  0  0  0  0
  182.9130  178.4710  143.8050 F   0  0  0  0  0  0  0  0  0  0  0  0
  187.2260  177.8730  146.2450 C   0  0  0  0  0  0  0  0  0  0  0  0
  187.3860  177.4660  144.9120 C   0  0  0  0  0  3  0  0  0  0  0  0
  185.2420  178.4390  144.3360 C   0  0  0  0  0  0  0  0  0  0  0  0
  185.0740  178.8390  145.6690 C   0  0  0  0  0  3  0  0  0  0  0  0
  186.0620  178.5600  146.6160 C   0  0  0  0  0  3  0  0  0  0  0  0
  186.3980  177.7480  143.9640 C   0  0  0  0  0  3  0  0  0  0  0  0
  188.2690  177.5820  147.2440 C   0  0  0  0  0  0  0  0  0  0  0  0
  188.2280  178.1950  148.5290 N   0  0  0  0  0  1  0  0  0  0  0  0
  189.2110  176.7930  146.9680 O   0  0  0  0  0  0  0  0  0  0  0  0
  1  3  1  0  0  0  0
  1  7  1  0  0  0  0
  2 14  1  0  0  0  0
  2  6  2  0  0  0  0
  4  8  1  0  0  0  0
  5  7  2  0  0  0  0
  5  8  1  0  0  0  0
  6  5  1  0  0  0  0
  8 26  1  0  0  0  0
  9 12  2  0  0  0  0
  9 14  1  0  0  0  0
 10  6  1  0  0  0  0
 10  4  2  0  0  0  0
 11 13  1  0  0  0  0
 11  3  2  0  0  0  0
 12 11  1  0  0  0  0
 14  1  2  0  0  0  0
 15 16  1  0  0  0  0
 15 22  1  1  0  0  0
 17 24  1  0  0  0  0
 18 15  1  0  0  0  0
 19 16  1  0  0  0  0
 20 24  1  0  0  0  0
 21 20  1  0  0  0  0
 21 18  1  1  0  0  0
 23 21  1  0  0  0  0
 23 19  1  1  0  0  0
 23 17  1  0  0  0  0
 24 10  1  1  0  0  0
 26 25  1  6  0  0  0
 26 27  1  0  0  0  0
 27 28  2  0  0  0  0
 27 29  1  0  0  0  0
 29 30  1  0  0  0  0
 30 31  1  1  0  0  0
 30 34  1  0  0  0  0
 32 36  1  0  0  0  0
 32 38  1  0  0  0  0
 33 32  2  0  0  0  0
 34 35  1  0  0  0  0
 35 36  2  0  0  0  0
 37 34  2  0  0  0  0
 37 33  1  0  0  0  0
 38 39  1  0  0  0  0
 40 38  2  0  0  0  0
M  END
>  <MODEL>
5

>  <REMARK>
 VINA RESULT:      -8.7      3.668      5.644
  Name = 
  7 active torsions:
  status: ('A' for Active; 'I' for Inactive)
    1  A    between atoms: C_1  and  C_5
    2  A    between atoms: C_7  and  C_21
    3  A    between atoms: C_7  and  C_23
    4  A    between atoms: C_14  and  N_20
    5  A    between atoms: C_14  and  C_23
    6  A    between atoms: C_16  and  C_21
    7  A    between atoms: C_27  and  C_40
                            x       y       z     vdW  Elec       q    Type
                         _______ _______ _______ _____ _____    ______ ____

>  <TORSDO>
F 7

$$$$
=
 OpenBabel11042413213D

 40 45  0  0  1  0  0  0  0  0999 V2000
  182.2250  177.7570  138.8310 C   0  0  0  0  0  0  0  0  0  0  0  0
  184.5910  177.9570  138.2000 C   0  0  0  0  0  3  0  0  0  0  0  0
  180.9380  177.5360  138.4620 N   0  0  0  0  0  0  0  0  0  0  0  0
  185.7480  178.5860  141.5510 C   0  0  0  0  0  3  0  0  0  0  0  0
  183.8840  178.2260  140.4960 C   0  0  0  0  0  0  0  0  0  0  0  0
  184.8710  178.2030  139.5450 C   0  0  0  0  0  0  0  0  0  0  0  0
  182.5430  178.0050  140.1780 C   0  0  0  0  0  3  0  0  0  0  0  0
  184.4070  178.4670  141.7120 N   0  0  0  0  0  0  0  0  0  0  0  0
  182.8910  177.4810  136.5260 C   0  0  0  0  0  3  0  0  0  0  0  0
  186.0670  178.4360  140.2020 C   0  0  0  0  0  0  0  0  0  0  0  0
  180.6160  177.2920  137.1640 C   0  0  0  0  0  0  0  0  0  0  0  0
  181.5870  177.2660  136.2110 N   0  0  0  0  0  0  0  0  0  0  0  0
  179.2600  177.0630  136.8010 N   0  0  0  0  0  1  0  0  0  0  0  0
  183.2500  177.7350  137.8470 C   0  0  0  0  0  0  0  0  0  0  0  0
  189.8900  175.8930  137.2610 C   0  0  1  0  0  3  0  0  0  0  0  0
  188.6390  176.5890  136.1450 S   0  0  0  0  0  0  0  0  0  0  0  0
  187.6080  178.7290  138.3780 N   0  0  0  0  0  2  0  0  0  0  0  0
  189.5190  176.2470  138.6880 C   0  0  0  0  0  2  0  0  0  0  0  0
  189.1700  178.2930  136.5050 C   0  0  0  0  0  2  0  0  0  0  0  0
  188.9040  178.0920  140.5660 S   0  0  0  0  0  0  0  0  0  0  0  0
  189.7160  177.7370  138.9780 C   0  0  2  0  0  3  0  0  0  0  0  0
  189.9050  174.3860  137.1090 C   0  0  0  0  0  1  0  0  0  0  0  0
  188.9990  178.6550  137.9800 C   0  0  2  0  0  3  0  0  0  0  0  0
  187.4260  178.5000  139.6350 C   0  0  2  0  0  3  0  0  0  0  0  0
  182.4280  179.3660  142.8770 C   0  0  0  0  0  1  0  0  0  0  0  0
  183.6710  178.4970  142.9790 C   0  0  2  0  0  3  0  0  0  0  0  0
  184.5350  178.9290  144.1340 C   0  0  0  0  0  0  0  0  0  0  0  0
  184.5820  180.1130  144.4270 O   0  0  0  0  0  0  0  0  0  0  0  0
  185.3090  177.9380  144.9570 C   0  0  0  0  0  2  0  0  0  0  0  0
  185.9950  178.5760  146.1670 C   0  0  1  0  0  3  0  0  0  0  0  0
  185.2200  178.4410  147.3070 F   0  0  0  0  0  0  0  0  0  0  0  0
  190.0100  177.1470  146.8040 C   0  0  0  0  0  0  0  0  0  0  0  0
  189.1810  177.4590  147.8920 C   0  0  0  0  0  3  0  0  0  0  0  0
  187.3880  178.0650  146.3780 C   0  0  0  0  0  0  0  0  0  0  0  0
  188.2160  177.7630  145.2880 C   0  0  0  0  0  3  0  0  0  0  0  0
  189.5190  177.3040  145.5010 C   0  0  0  0  0  3  0  0  0  0  0  0
  187.8770  177.9160  147.6790 C   0  0  0  0  0  3  0  0  0  0  0  0
  191.3830  176.6590  147.0280 C   0  0  0  0  0  0  0  0  0  0  0  0
  192.0180  175.8250  146.0640 N   0  0  0  0  0  1  0  0  0  0  0  0
  192.0040  176.9710  148.0780 O   0  0  0  0  0  0  0  0  0  0  0  0
  1  7  1  0  0  0  0
  2  6  2  0  0  0  0
  3  1  1  0  0  0  0
  4  8  1  0  0  0  0
  5  8  1  0  0  0  0
  6 10  1  0  0  0  0
  6  5  1  0  0  0  0
  7  5  2  0  0  0  0
  8 26  1  0  0  0  0
  9 14  1  0  0  0  0
 10  4  2  0  0  0  0
 11  3  2  0  0  0  0
 12  9  2  0  0  0  0
 12 11  1  0  0  0  0
 13 11  1  0  0  0  0
 14  2  1  0  0  0  0
 14  1  2  0  0  0  0
 15 22  1  1  0  0  0
 15 18  1  0  0  0  0
 16 19  1  0  0  0  0
 16 15  1  0  0  0  0
 17 24  1  0  0  0  0
 21 18  1  6  0  0  0
 21 20  1  0  0  0  0
 23 19  1  6  0  0  0
 23 17  1  0  0  0  0
 23 21  1  0  0  0  0
 24 10  1  6  0  0  0
 24 20  1  0  0  0  0
 26 25  1  6  0  0  0
 26 27  1  0  0  0  0
 27 28  2  0  0  0  0
 27 29  1  0  0  0  0
 29 30  1  0  0  0  0
 30 34  1  0  0  0  0
 30 31  1  1  0  0  0
 32 38  1  0  0  0  0
 32 33  1  0  0  0  0
 34 37  1  0  0  0  0
 35 36  1  0  0  0  0
 35 34  2  0  0  0  0
 36 32  2  0  0  0  0
 37 33  2  0  0  0  0
 38 40  2  0  0  0  0
 39 38  1  0  0  0  0
M  END
>  <MODEL>
6

>  <REMARK>
 VINA RESULT:      -8.6      2.996      5.847
  Name = 
  7 active torsions:
  status: ('A' for Active; 'I' for Inactive)
    1  A    between atoms: C_1  and  C_5
    2  A    between atoms: C_7  and  C_21
    3  A    between atoms: C_7  and  C_23
    4  A    between atoms: C_14  and  N_20
    5  A    between atoms: C_14  and  C_23
    6  A    between atoms: C_16  and  C_21
    7  A    between atoms: C_27  and  C_40
                            x       y       z     vdW  Elec       q    Type
                         _______ _______ _______ _____ _____    ______ ____

>  <TORSDO>
F 7

$$$$
=
 OpenBabel11042413213D

 40 45  0  0  1  0  0  0  0  0999 V2000
  185.9800  178.4480  139.9020 C   0  0  0  0  0  0  0  0  0  0  0  0
  183.8610  178.8250  138.7190 C   0  0  0  0  0  3  0  0  0  0  0  0
  187.3280  178.2990  139.8540 N   0  0  0  0  0  0  0  0  0  0  0  0
  181.8350  178.7670  141.6950 C   0  0  0  0  0  3  0  0  0  0  0  0
  183.9180  178.5500  141.1200 C   0  0  0  0  0  0  0  0  0  0  0  0
  183.2220  178.7600  139.9580 C   0  0  0  0  0  0  0  0  0  0  0  0
  185.3050  178.3910  141.1340 C   0  0  0  0  0  3  0  0  0  0  0  0
  183.0830  178.5430  142.1750 N   0  0  0  0  0  0  0  0  0  0  0  0
  185.9650  178.7190  137.5020 C   0  0  0  0  0  3  0  0  0  0  0  0
  181.8890  178.8950  140.3070 C   0  0  0  0  0  0  0  0  0  0  0  0
  187.9950  178.3550  138.6710 C   0  0  0  0  0  0  0  0  0  0  0  0
  187.3150  178.5640  137.5110 N   0  0  0  0  0  0  0  0  0  0  0  0
  189.4080  178.1960  138.6450 N   0  0  0  0  0  1  0  0  0  0  0  0
  185.2560  178.6650  138.6990 C   0  0  0  0  0  0  0  0  0  0  0  0
  180.1760  180.6680  135.4440 C   0  0  1  0  0  3  0  0  0  0  0  0
  180.8240  178.9810  135.2740 S   0  0  0  0  0  0  0  0  0  0  0  0
  180.4610  178.3490  138.4510 N   0  0  0  0  0  2  0  0  0  0  0  0
  180.2750  181.0820  136.9000 C   0  0  0  0  0  2  0  0  0  0  0  0
  179.4250  178.2780  136.2010 C   0  0  0  0  0  2  0  0  0  0  0  0
  179.7350  180.6340  139.5110 S   0  0  0  0  0  0  0  0  0  0  0  0
  179.2720  180.3300  137.7790 C   0  0  2  0  0  3  0  0  0  0  0  0
  181.0110  181.6080  134.6000 C   0  0  0  0  0  1  0  0  0  0  0  0
  179.3540  178.8050  137.6340 C   0  0  2  0  0  3  0  0  0  0  0  0
  180.7330  179.1460  139.4290 C   0  0  2  0  0  3  0  0  0  0  0  0
  182.3590  178.8880  144.5070 C   0  0  0  0  0  1  0  0  0  0  0  0
  183.4700  178.4160  143.5820 C   0  0  2  0  0  3  0  0  0  0  0  0
  184.7610  179.1280  143.8890 C   0  0  0  0  0  0  0  0  0  0  0  0
  184.7910  180.3480  143.8410 O   0  0  0  0  0  0  0  0  0  0  0  0
  186.0010  178.3790  144.2900 C   0  0  0  0  0  2  0  0  0  0  0  0
  186.2660  178.4310  145.7970 C   0  0  1  0  0  3  0  0  0  0  0  0
  185.2710  177.7720  146.4990 F   0  0  0  0  0  0  0  0  0  0  0  0
  190.1960  177.0300  146.8750 C   0  0  0  0  0  0  0  0  0  0  0  0
  189.2780  177.4160  147.8630 C   0  0  0  0  0  3  0  0  0  0  0  0
  187.6300  177.9290  146.1610 C   0  0  0  0  0  0  0  0  0  0  0  0
  188.5470  177.5530  145.1700 C   0  0  0  0  0  3  0  0  0  0  0  0
  189.8210  177.1030  145.5260 C   0  0  0  0  0  3  0  0  0  0  0  0
  188.0030  177.8640  147.5070 C   0  0  0  0  0  3  0  0  0  0  0  0
  191.5390  176.5530  147.2490 C   0  0  0  0  0  0  0  0  0  0  0  0
  192.1950  175.5590  146.4680 N   0  0  0  0  0  1  0  0  0  0  0  0
  192.1160  177.0150  148.2690 O   0  0  0  0  0  0  0  0  0  0  0  0
  1  7  1  0  0  0  0
  2  6  2  0  0  0  0
  3  1  1  0  0  0  0
  4  8  1  0  0  0  0
  5  7  2  0  0  0  0
  5  8  1  0  0  0  0
  6 10  1  0  0  0  0
  6  5  1  0  0  0  0
  8 26  1  0  0  0  0
  9 12  2  0  0  0  0
  9 14  1  0  0  0  0
 10  4  2  0  0  0  0
 11  3  2  0  0  0  0
 12 11  1  0  0  0  0
 13 11  1  0  0  0  0
 14  2  1  0  0  0  0
 14  1  2  0  0  0  0
 15 22  1  6  0  0  0
 15 18  1  0  0  0  0
 16 15  1  0  0  0  0
 16 19  1  0  0  0  0
 17 24  1  0  0  0  0
 21 18  1  6  0  0  0
 21 20  1  0  0  0  0
 23 19  1  6  0  0  0
 23 21  1  0  0  0  0
 23 17  1  0  0  0  0
 24 20  1  0  0  0  0
 24 10  1  6  0  0  0
 26 27  1  0  0  0  0
 26 25  1  1  0  0  0
 27 29  1  0  0  0  0
 28 27  2  0  0  0  0
 29 30  1  0  0  0  0
 30 34  1  0  0  0  0
 30 31  1  1  0  0  0
 32 38  1  0  0  0  0
 32 33  1  0  0  0  0
 34 37  1  0  0  0  0
 35 36  1  0  0  0  0
 35 34  2  0  0  0  0
 36 32  2  0  0  0  0
 37 33  2  0  0  0  0
 38 40  2  0  0  0  0
 39 38  1  0  0  0  0
M  END
>  <MODEL>
7

>  <REMARK>
 VINA RESULT:      -8.6      4.823      8.658
  Name = 
  7 active torsions:
  status: ('A' for Active; 'I' for Inactive)
    1  A    between atoms: C_1  and  C_5
    2  A    between atoms: C_7  and  C_21
    3  A    between atoms: C_7  and  C_23
    4  A    between atoms: C_14  and  N_20
    5  A    between atoms: C_14  and  C_23
    6  A    between atoms: C_16  and  C_21
    7  A    between atoms: C_27  and  C_40
                            x       y       z     vdW  Elec       q    Type
                         _______ _______ _______ _____ _____    ______ ____

>  <TORSDO>
F 7

$$$$
=
 OpenBabel11042413213D

 40 45  0  0  1  0  0  0  0  0999 V2000
  187.9560  177.9270  139.2910 C   0  0  0  0  0  0  0  0  0  0  0  0
  189.8340  177.1480  137.9120 C   0  0  0  0  0  3  0  0  0  0  0  0
  186.6480  178.2770  139.3830 N   0  0  0  0  0  0  0  0  0  0  0  0
  192.2020  177.0990  140.6240 C   0  0  0  0  0  3  0  0  0  0  0  0
  190.1170  177.5930  140.2720 C   0  0  0  0  0  0  0  0  0  0  0  0
  190.6250  177.2000  139.0600 C   0  0  0  0  0  0  0  0  0  0  0  0
  188.7800  177.9630  140.4290 C   0  0  0  0  0  3  0  0  0  0  0  0
  191.0690  177.5430  141.2210 N   0  0  0  0  0  0  0  0  0  0  0  0
  187.6320  177.4930  136.9370 C   0  0  0  0  0  3  0  0  0  0  0  0
  191.9570  176.8860  139.2680 C   0  0  0  0  0  0  0  0  0  0  0  0
  185.8380  178.2430  138.2920 C   0  0  0  0  0  0  0  0  0  0  0  0
  186.3300  177.8540  137.0850 N   0  0  0  0  0  0  0  0  0  0  0  0
  184.4700  178.6150  138.4120 N   0  0  0  0  0  1  0  0  0  0  0  0
  188.4850  177.5200  138.0370 C   0  0  0  0  0  0  0  0  0  0  0  0
  193.1150  173.2030  135.4170 C   0  0  1  0  0  3  0  0  0  0  0  0
  192.0170  174.4710  134.7240 S   0  0  0  0  0  0  0  0  0  0  0  0
  192.8010  176.6380  137.0290 N   0  0  0  0  0  2  0  0  0  0  0  0
  193.4130  173.5550  136.8620 C   0  0  0  0  0  2  0  0  0  0  0  0
  193.3270  175.7340  134.7830 C   0  0  0  0  0  2  0  0  0  0  0  0
  194.3040  175.3090  138.7160 S   0  0  0  0  0  0  0  0  0  0  0  0
  194.3260  174.7780  136.9770 C   0  0  2  0  0  3  0  0  0  0  0  0
  192.4170  171.8600  135.3650 C   0  0  0  0  0  1  0  0  0  0  0  0
  193.8100  176.0010  136.2070 C   0  0  2  0  0  3  0  0  0  0  0  0
  192.9470  176.4010  138.2890 C   0  0  2  0  0  3  0  0  0  0  0  0
  192.0370  178.6430  143.2050 C   0  0  0  0  0  1  0  0  0  0  0  0
  190.8830  177.8240  142.6470 C   0  0  2  0  0  3  0  0  0  0  0  0
  190.6730  176.5720  143.4560 C   0  0  0  0  0  0  0  0  0  0  0  0
  191.6420  175.8930  143.7580 O   0  0  0  0  0  0  0  0  0  0  0  0
  189.3100  176.1580  143.9340 C   0  0  0  0  0  2  0  0  0  0  0  0
  188.7070  177.1420  144.9380 C   0  0  1  0  0  3  0  0  0  0  0  0
  189.5680  178.2000  145.1760 F   0  0  0  0  0  0  0  0  0  0  0  0
  184.8050  178.5270  143.7440 C   0  0  0  0  0  0  0  0  0  0  0  0
  185.6650  177.9240  142.8150 C   0  0  0  0  0  3  0  0  0  0  0  0
  187.3430  177.6150  144.5370 C   0  0  0  0  0  0  0  0  0  0  0  0
  186.4900  178.2240  145.4670 C   0  0  0  0  0  3  0  0  0  0  0  0
  185.2270  178.6750  145.0730 C   0  0  0  0  0  3  0  0  0  0  0  0
  186.9270  177.4720  143.2100 C   0  0  0  0  0  3  0  0  0  0  0  0
  183.4720  179.0000  143.3300 C   0  0  0  0  0  0  0  0  0  0  0  0
  182.9320  178.6200  142.0680 N   0  0  0  0  0  1  0  0  0  0  0  0
  182.8010  179.7500  144.0870 O   0  0  0  0  0  0  0  0  0  0  0  0
  1  3  1  0  0  0  0
  1  7  1  0  0  0  0
  2 14  1  0  0  0  0
  2  6  2  0  0  0  0
  4  8  1  0  0  0  0
  5  7  2  0  0  0  0
  5  8  1  0  0  0  0
  6 10  1  0  0  0  0
  6  5  1  0  0  0  0
  8 26  1  0  0  0  0
  9 12  2  0  0  0  0
  9 14  1  0  0  0  0
 10  4  2  0  0  0  0
 11 13  1  0  0  0  0
 11  3  2  0  0  0  0
 12 11  1  0  0  0  0
 14  1  2  0  0  0  0
 15 22  1  1  0  0  0
 15 18  1  0  0  0  0
 16 19  1  0  0  0  0
 16 15  1  0  0  0  0
 17 24  1  0  0  0  0
 21 18  1  1  0  0  0
 21 20  1  0  0  0  0
 23 19  1  6  0  0  0
 23 21  1  0  0  0  0
 23 17  1  0  0  0  0
 24 20  1  0  0  0  0
 24 10  1  6  0  0  0
 26 25  1  1  0  0  0
 26 27  1  0  0  0  0
 27 28  2  0  0  0  0
 27 29  1  0  0  0  0
 29 30  1  0  0  0  0
 30 31  1  6  0  0  0
 32 36  1  0  0  0  0
 33 37  1  0  0  0  0
 33 32  2  0  0  0  0
 34 30  1  0  0  0  0
 34 35  1  0  0  0  0
 36 35  2  0  0  0  0
 37 34  2  0  0  0  0
 38 32  1  0  0  0  0
 38 40  2  0  0  0  0
 39 38  1  0  0  0  0
M  END
>  <MODEL>
8

>  <REMARK>
 VINA RESULT:      -8.5      1.484      2.315
  Name = 
  7 active torsions:
  status: ('A' for Active; 'I' for Inactive)
    1  A    between atoms: C_1  and  C_5
    2  A    between atoms: C_7  and  C_21
    3  A    between atoms: C_7  and  C_23
    4  A    between atoms: C_14  and  N_20
    5  A    between atoms: C_14  and  C_23
    6  A    between atoms: C_16  and  C_21
    7  A    between atoms: C_27  and  C_40
                            x       y       z     vdW  Elec       q    Type
                         _______ _______ _______ _____ _____    ______ ____

>  <TORSDO>
F 7

$$$$
=
 OpenBabel11042413213D

 40 45  0  0  1  0  0  0  0  0999 V2000
  189.0440  178.0020  141.4760 C   0  0  0  0  0  0  0  0  0  0  0  0
  189.6040  177.2090  139.2200 C   0  0  0  0  0  3  0  0  0  0  0  0
  189.4420  178.2800  142.7430 N   0  0  0  0  0  0  0  0  0  0  0  0
  186.2810  177.6560  137.9060 C   0  0  0  0  0  3  0  0  0  0  0  0
  187.3570  177.9060  139.7760 C   0  0  0  0  0  0  0  0  0  0  0  0
  188.2690  177.4240  138.8730 C   0  0  0  0  0  0  0  0  0  0  0  0
  187.7080  178.2100  141.0930 C   0  0  0  0  0  3  0  0  0  0  0  0
  186.1490  178.0390  139.2000 N   0  0  0  0  0  0  0  0  0  0  0  0
  191.3010  177.3160  140.9590 C   0  0  0  0  0  3  0  0  0  0  0  0
  187.5970  177.2550  137.6750 C   0  0  0  0  0  0  0  0  0  0  0  0
  190.7320  178.0870  143.1270 C   0  0  0  0  0  0  0  0  0  0  0  0
  191.6470  177.6100  142.2400 N   0  0  0  0  0  0  0  0  0  0  0  0
  191.1270  178.3850  144.4610 N   0  0  0  0  0  1  0  0  0  0  0  0
  189.9870  177.5020  140.5380 C   0  0  0  0  0  0  0  0  0  0  0  0
  191.6270  174.6130  135.1240 C   0  0  1  0  0  3  0  0  0  0  0  0
  190.5270  173.4070  135.9180 S   0  0  0  0  0  0  0  0  0  0  0  0
  188.0520  175.5230  136.0690 N   0  0  0  0  0  2  0  0  0  0  0  0
  191.0850  176.0060  135.3800 C   0  0  0  0  0  2  0  0  0  0  0  0
  189.1810  173.7600  134.7440 C   0  0  0  0  0  2  0  0  0  0  0  0
  189.0670  177.8010  135.2590 S   0  0  0  0  0  0  0  0  0  0  0  0
  189.7990  176.2740  134.5950 C   0  0  2  0  0  3  0  0  0  0  0  0
  193.0100  174.4960  135.7290 C   0  0  0  0  0  1  0  0  0  0  0  0
  188.7140  175.2130  134.8180 C   0  0  2  0  0  3  0  0  0  0  0  0
  188.1270  176.7710  136.3880 C   0  0  2  0  0  3  0  0  0  0  0  0
  184.4520  179.8270  139.0990 C   0  0  0  0  0  1  0  0  0  0  0  0
  184.9460  178.5890  139.8310 C   0  0  2  0  0  3  0  0  0  0  0  0
  185.1470  178.8760  141.2950 C   0  0  0  0  0  0  0  0  0  0  0  0
  185.6770  179.9250  141.6260 O   0  0  0  0  0  0  0  0  0  0  0  0
  184.6770  177.9250  142.3600 C   0  0  0  0  0  2  0  0  0  0  0  0
  184.3710  178.6210  143.6880 C   0  0  1  0  0  3  0  0  0  0  0  0
  183.1010  178.2990  144.1370 F   0  0  0  0  0  0  0  0  0  0  0  0
  187.3660  177.8190  146.6810 C   0  0  0  0  0  0  0  0  0  0  0  0
  187.4620  177.2510  145.4020 C   0  0  0  0  0  3  0  0  0  0  0  0
  185.4140  178.3600  144.7310 C   0  0  0  0  0  0  0  0  0  0  0  0
  185.3090  178.9240  146.0110 C   0  0  0  0  0  3  0  0  0  0  0  0
  186.2810  178.6570  146.9780 C   0  0  0  0  0  3  0  0  0  0  0  0
  186.4910  177.5200  144.4340 C   0  0  0  0  0  3  0  0  0  0  0  0
  188.3920  177.5410  147.7010 C   0  0  0  0  0  0  0  0  0  0  0  0
  189.6030  176.8820  147.3440 N   0  0  0  0  0  1  0  0  0  0  0  0
  188.2050  177.8790  148.9000 O   0  0  0  0  0  0  0  0  0  0  0  0
  1  3  1  0  0  0  0
  2 14  1  0  0  0  0
  3 11  2  0  0  0  0
  4  8  1  0  0  0  0
  5  7  2  0  0  0  0
  6  2  2  0  0  0  0
  6  5  1  0  0  0  0
  7  1  1  0  0  0  0
  8  5  1  0  0  0  0
  8 26  1  0  0  0  0
  9 12  2  0  0  0  0
 10  4  2  0  0  0  0
 10  6  1  0  0  0  0
 11 13  1  0  0  0  0
 12 11  1  0  0  0  0
 14  9  1  0  0  0  0
 14  1  2  0  0  0  0
 15 18  1  0  0  0  0
 15 22  1  1  0  0  0
 15 16  1  0  0  0  0
 17 24  1  0  0  0  0
 19 16  1  0  0  0  0
 20 24  1  0  0  0  0
 21 23  1  0  0  0  0
 21 20  1  0  0  0  0
 21 18  1  1  0  0  0
 23 19  1  1  0  0  0
 23 17  1  0  0  0  0
 24 10  1  1  0  0  0
 26 25  1  6  0  0  0
 26 27  1  0  0  0  0
 27 28  2  0  0  0  0
 27 29  1  0  0  0  0
 29 30  1  0  0  0  0
 30 31  1  1  0  0  0
 30 34  1  0  0  0  0
 32 36  1  0  0  0  0
 32 38  1  0  0  0  0
 33 32  2  0  0  0  0
 34 35  1  0  0  0  0
 35 36  2  0  0  0  0
 37 34  2  0  0  0  0
 37 33  1  0  0  0  0
 38 40  2  0  0  0  0
 39 38  1  0  0  0  0
M  END
>  <MODEL>
9

>  <REMARK>
 VINA RESULT:      -8.5      2.674      4.811
  Name = 
  7 active torsions:
  status: ('A' for Active; 'I' for Inactive)
    1  A    between atoms: C_1  and  C_5
    2  A    between atoms: C_7  and  C_21
    3  A    between atoms: C_7  and  C_23
    4  A    between atoms: C_14  and  N_20
    5  A    between atoms: C_14  and  C_23
    6  A    between atoms: C_16  and  C_21
    7  A    between atoms: C_27  and  C_40
                            x       y       z     vdW  Elec       q    Type
                         _______ _______ _______ _____ _____    ______ ____

>  <TORSDO>
F 7

$$$$
