=
 OpenBabel11032419223D

 51 54  0  0  1  0  0  0  0  0999 V2000
  184.3180  178.8720  140.3000 C   0  0  0  0  0  0  0  0  0  0  0  0
  186.0420  178.1210  141.9220 C   0  0  0  0  0  0  0  0  0  0  0  0
  184.3690  178.3270  141.8870 S   0  0  0  0  0  0  0  0  0  0  0  0
  185.5960  178.9100  139.7620 C   0  0  0  0  0  2  0  0  0  0  0  0
  183.2360  179.2410  139.6740 C   0  0  0  0  0  0  0  0  0  0  0  0
  186.5650  178.4790  140.6800 C   0  0  0  0  0  0  0  0  0  0  0  0
  182.1510  179.6120  139.0520 C   0  0  0  0  0  3  0  0  0  0  0  0
  186.7560  177.6890  142.9620 C   0  0  0  0  0  2  0  0  0  0  0  0
  180.8720  178.8750  139.2560 C   0  0  2  0  0  3  0  0  0  0  0  0
  179.9760  179.2110  138.2580 F   0  0  0  0  0  0  0  0  0  0  0  0
  180.2750  179.2340  140.6020 C   0  0  0  0  0  2  0  0  0  0  0  0
  180.8460  178.4370  141.6090 O   0  0  0  0  0  0  0  0  0  0  0  0
  179.7870  180.3120  142.7220 C   0  0  0  0  0  1  0  0  0  0  0  0
  179.6270  178.0950  143.4860 F   0  0  0  0  0  0  0  0  0  0  0  0
  180.4990  178.9710  142.8690 C   0  0  0  0  0  0  0  0  0  0  0  0
  181.6120  179.1130  143.6870 F   0  0  0  0  0  0  0  0  0  0  0  0
  186.1350  177.3190  144.2670 C   0  0  0  0  0  2  0  0  0  0  0  0
  185.8520  178.0380  146.6130 C   0  0  1  0  0  3  0  0  0  0  0  0
  184.7860  178.7250  145.7800 C   0  0  0  0  0  2  0  0  0  0  0  0
  186.1660  178.5090  145.2020 C   0  0  2  0  0  3  0  0  0  0  0  0
  186.3990  178.9970  147.6300 C   0  0  0  0  0  0  0  0  0  0  0  0
  187.5160  178.6440  148.4480 N   0  0  0  0  0  2  0  0  0  0  0  0
  185.9020  180.1510  147.7380 O   0  0  0  0  0  0  0  0  0  0  0  0
  188.1720  177.3460  148.3680 C   0  0  0  0  0  2  0  0  0  0  0  0
  189.6380  177.5170  148.0090 C   0  0  0  0  0  2  0  0  0  0  0  0
  190.8080  178.0950  144.6880 C   0  0  2  0  0  3  0  0  0  0  0  0
  191.6210  176.9040  145.1580 C   0  0  0  0  0  2  0  0  0  0  0  0
  191.2950  176.6550  146.4980 O   0  0  0  0  0  0  0  0  0  0  0  0
  189.9330  176.9840  146.6160 C   0  0  2  0  0  3  0  0  0  0  0  0
  189.6030  178.0470  145.5930 C   0  0  0  0  0  2  0  0  0  0  0  0
  191.4960  177.2910  141.2390 C   0  0  0  0  0  2  0  0  0  0  0  0
  190.0840  176.5480  143.0370 C   0  0  0  0  0  2  0  0  0  0  0  0
  190.4200  177.9480  143.2810 N   0  0  0  0  0  0  0  0  0  0  0  0
  191.5960  178.1890  142.4500 C   0  0  0  0  0  2  0  0  0  0  0  0
  190.5310  176.2020  141.6330 C   0  0  0  0  0  2  0  0  0  0  0  0
  188.0250  178.4670  140.3510 C   0  0  0  0  0  2  0  0  0  0  0  0
  188.2360  178.3810  138.8500 C   0  0  0  0  0  2  0  0  0  0  0  0
  189.2040  177.3370  138.5470 N   0  0  0  0  0  2  0  0  0  0  0  0
  189.5730  176.9540  137.2190 C   0  0  0  0  0  0  0  0  0  0  0  0
  188.4970  177.0460  135.9860 S   0  0  0  0  0  0  0  0  0  0  0  0
  190.8950  176.4830  136.9390 N   0  0  0  0  0  2  0  0  0  0  0  0
  191.4310  175.2200  137.3440 C   0  0  0  0  0  0  0  0  0  0  0  0
  190.7340  174.3980  138.0010 O   0  0  0  0  0  0  0  0  0  0  0  0
  192.8410  174.8800  136.9790 C   0  0  2  0  0  3  0  0  0  0  0  0
  192.9020  173.4410  136.4900 C   0  0  0  0  0  1  0  0  0  0  0  0
  193.7960  175.1100  138.1560 C   0  0  2  0  0  3  0  0  0  0  0  0
  193.7530  176.4460  138.5660 O   0  0  0  0  0  1  0  0  0  0  0  0
  195.7230  175.2270  136.8130 O   0  0  0  0  0  0  0  0  0  0  0  0
  195.2090  174.7440  137.8070 C   0  0  0  0  0  0  0  0  0  0  0  0
  195.9810  173.7840  138.6520 C   0  0  0  0  0  2  0  0  0  0  0  0
  196.9450  173.1400  137.8760 O   0  0  0  0  0  1  0  0  0  0  0  0
  1  3  1  0  0  0  0
  2  8  1  0  0  0  0
  3  2  1  0  0  0  0
  4  1  1  0  0  0  0
  4  6  1  0  0  0  0
  5  1  2  0  0  0  0
  6  2  2  0  0  0  0
  7  9  1  0  0  0  0
  7  5  2  0  0  0  0
  8 17  1  0  0  0  0
  9 10  1  6  0  0  0
  9 11  1  0  0  0  0
 11 12  1  0  0  0  0
 12 15  1  0  0  0  0
 13 15  1  0  0  0  0
 15 14  1  0  0  0  0
 15 16  1  0  0  0  0
 18 21  1  1  0  0  0
 19 18  1  0  0  0  0
 20 17  1  6  0  0  0
 20 19  1  0  0  0  0
 20 18  1  0  0  0  0
 21 23  2  0  0  0  0
 21 22  1  0  0  0  0
 24 22  1  0  0  0  0
 25 24  1  0  0  0  0
 26 33  1  6  0  0  0
 26 27  1  0  0  0  0
 26 30  1  0  0  0  0
 27 28  1  0  0  0  0
 28 29  1  0  0  0  0
 29 25  1  1  0  0  0
 30 29  1  0  0  0  0
 31 35  1  0  0  0  0
 31 34  1  0  0  0  0
 32 33  1  0  0  0  0
 34 33  1  0  0  0  0
 35 32  1  0  0  0  0
 36  6  1  0  0  0  0
 37 36  1  0  0  0  0
 38 37  1  0  0  0  0
 39 38  1  0  0  0  0
 40 39  2  0  0  0  0
 41 39  1  0  0  0  0
 41 42  1  0  0  0  0
 42 43  2  0  0  0  0
 44 45  1  1  0  0  0
 44 42  1  0  0  0  0
 44 46  1  0  0  0  0
 46 47  1  6  0  0  0
 48 49  2  0  0  0  0
 49 46  1  0  0  0  0
 49 50  1  0  0  0  0
 51 50  1  0  0  0  0
M  END
>  <MODEL>
1

>  <REMARK>
 VINA RESULT:      -7.6      0.000      0.000
  Name = 
  20 active torsions:
  status: ('A' for Active; 'I' for Inactive)
    1  A    between atoms: C_1  and  N_30
    2  A    between atoms: C_1  and  C_40
    3  A    between atoms: C_4  and  N_8
    4  A    between atoms: C_4  and  N_30
    5  A    between atoms: C_5  and  C_23
    6  A    between atoms: C_5  and  C_44
    7  A    between atoms: C_6  and  C_9
    8  A    between atoms: N_12  and  C_38
    9  A    between atoms: C_13  and  N_18
   10  A    between atoms: C_14  and  C_15
   11  A    between atoms: C_14  and  C_24
   12  A    between atoms: C_15  and  C_17
   13  A    between atoms: C_17  and  C_25
   14  A    between atoms: C_19  and  C_46
   15  A    between atoms: C_19  and  C_49
   16  A    between atoms: C_23  and  O_35
   17  A    between atoms: C_32  and  C_36
   18  A    between atoms: C_32  and  C_38
   19  A    between atoms: C_33  and  O_35
   20  A    between atoms: C_39  and  C_40
                            x       y       z     vdW  Elec       q    Type
                         _______ _______ _______ _____ _____    ______ ____

>  <TORSDO>
F 20

$$$$
=
 OpenBabel11032419223D

 51 54  0  0  1  0  0  0  0  0999 V2000
  190.2800  177.1800  141.2180 C   0  0  0  0  0  0  0  0  0  0  0  0
  188.6730  177.5840  139.3670 C   0  0  0  0  0  0  0  0  0  0  0  0
  188.6960  177.7110  141.0490 S   0  0  0  0  0  0  0  0  0  0  0  0
  190.8260  176.8890  139.9770 C   0  0  0  0  0  3  0  0  0  0  0  0
  190.8960  177.0290  142.3560 C   0  0  0  0  0  0  0  0  0  0  0  0
  189.9170  177.1250  138.9340 C   0  0  0  0  0  0  0  0  0  0  0  0
  191.5090  176.8760  143.4980 C   0  0  0  0  0  3  0  0  0  0  0  0
  187.6400  177.8700  138.5740 C   0  0  0  0  0  3  0  0  0  0  0  0
  191.3000  177.8520  144.6050 C   0  0  2  0  0  3  0  0  0  0  0  0
  192.0430  177.4710  145.7080 F   0  0  0  0  0  0  0  0  0  0  0  0
  189.8340  177.9010  144.9850 C   0  0  0  0  0  2  0  0  0  0  0  0
  189.5360  176.8670  145.8890 O   0  0  0  0  0  0  0  0  0  0  0  0
  188.1260  176.7230  147.8550 C   0  0  0  0  0  1  0  0  0  0  0  0
  190.4150  177.2490  147.9400 F   0  0  0  0  0  0  0  0  0  0  0  0
  189.2880  177.4270  147.1610 C   0  0  0  0  0  0  0  0  0  0  0  0
  189.0350  178.7890  147.0770 F   0  0  0  0  0  0  0  0  0  0  0  0
  186.3330  178.3600  139.1010 C   0  0  0  0  0  2  0  0  0  0  0  0
  184.1240  177.5690  138.3310 C   0  0  1  0  0  3  0  0  0  0  0  0
  185.1700  177.0610  137.3550 C   0  0  0  0  0  2  0  0  0  0  0  0
  185.3240  178.4310  137.9750 C   0  0  2  0  0  3  0  0  0  0  0  0
  182.9030  178.0160  137.5800 C   0  0  0  0  0  0  0  0  0  0  0  0
  182.0120  178.9840  138.1350 N   0  0  0  0  0  2  0  0  0  0  0  0
  182.6800  177.5710  136.4210 O   0  0  0  0  0  0  0  0  0  0  0  0
  182.2100  179.5740  139.4520 C   0  0  0  0  0  2  0  0  0  0  0  0
  181.0020  179.3100  140.3350 C   0  0  0  0  0  2  0  0  0  0  0  0
  183.1920  179.1580  143.1470 C   0  0  2  0  0  3  0  0  0  0  0  0
  181.8090  179.2040  143.7660 C   0  0  0  0  0  2  0  0  0  0  0  0
  180.8740  179.3580  142.7330 O   0  0  0  0  0  0  0  0  0  0  0  0
  181.4050  178.6480  141.6430 C   0  0  2  0  0  3  0  0  0  0  0  0
  182.9130  178.6440  141.7570 C   0  0  0  0  0  2  0  0  0  0  0  0
  186.4290  178.0310  144.2750 C   0  0  0  0  0  2  0  0  0  0  0  0
  184.3540  178.8240  145.1920 C   0  0  0  0  0  2  0  0  0  0  0  0
  184.0700  178.2420  143.8830 N   0  0  0  0  0  0  0  0  0  0  0  0
  185.3670  178.2070  143.2140 C   0  0  0  0  0  2  0  0  0  0  0  0
  185.7760  178.4630  145.5630 C   0  0  0  0  0  2  0  0  0  0  0  0
  190.2550  176.8480  137.5030 C   0  0  0  0  0  2  0  0  0  0  0  0
  191.2080  175.6700  137.3970 C   0  0  0  0  0  2  0  0  0  0  0  0
  192.5840  176.1440  137.4400 N   0  0  0  0  0  2  0  0  0  0  0  0
  193.5460  175.8920  136.4110 C   0  0  0  0  0  0  0  0  0  0  0  0
  193.1260  175.9650  134.8280 S   0  0  0  0  0  0  0  0  0  0  0  0
  194.9000  175.5710  136.7450 N   0  0  0  0  0  2  0  0  0  0  0  0
  195.4460  174.2510  136.8260 C   0  0  0  0  0  0  0  0  0  0  0  0
  194.7340  173.2370  136.5890 O   0  0  0  0  0  0  0  0  0  0  0  0
  196.8850  174.0840  137.1980 C   0  0  2  0  0  3  0  0  0  0  0  0
  197.4770  172.9230  136.4150 C   0  0  0  0  0  1  0  0  0  0  0  0
  197.0530  173.8810  138.7090 C   0  0  2  0  0  3  0  0  0  0  0  0
  195.8040  173.8050  139.3330 O   0  0  0  0  0  1  0  0  0  0  0  0
  198.6770  175.5820  138.6620 O   0  0  0  0  0  0  0  0  0  0  0  0
  197.8530  174.9860  139.3340 C   0  0  0  0  0  0  0  0  0  0  0  0
  197.6640  175.3480  140.7710 C   0  0  0  0  0  2  0  0  0  0  0  0
  196.9490  176.5410  140.8690 O   0  0  0  0  0  1  0  0  0  0  0  0
  1  5  2  0  0  0  0
  2  3  1  0  0  0  0
  3  1  1  0  0  0  0
  4  1  1  0  0  0  0
  5  7  2  0  0  0  0
  6  2  1  0  0  0  0
  6  4  2  0  0  0  0
  7  9  1  0  0  0  0
  8 17  1  0  0  0  0
  8  2  2  0  0  0  0
  9 11  1  0  0  0  0
  9 10  1  1  0  0  0
 11 12  1  0  0  0  0
 12 15  1  0  0  0  0
 15 13  1  0  0  0  0
 15 14  1  0  0  0  0
 16 15  1  0  0  0  0
 18 21  1  6  0  0  0
 19 20  1  0  0  0  0
 19 18  1  0  0  0  0
 20 18  1  0  0  0  0
 20 17  1  1  0  0  0
 21 22  1  0  0  0  0
 22 24  1  0  0  0  0
 23 21  2  0  0  0  0
 24 25  1  0  0  0  0
 26 30  1  6  0  0  0
 26 27  1  0  0  0  0
 26 33  1  0  0  0  0
 28 27  1  0  0  0  0
 29 25  1  6  0  0  0
 29 30  1  0  0  0  0
 29 28  1  0  0  0  0
 31 35  1  0  0  0  0
 32 35  1  0  0  0  0
 33 32  1  0  0  0  0
 34 33  1  0  0  0  0
 34 31  1  0  0  0  0
 36  6  1  0  0  0  0
 37 38  1  0  0  0  0
 37 36  1  0  0  0  0
 39 41  1  0  0  0  0
 39 38  1  0  0  0  0
 40 39  2  0  0  0  0
 41 42  1  0  0  0  0
 42 44  1  0  0  0  0
 43 42  2  0  0  0  0
 44 45  1  6  0  0  0
 44 46  1  0  0  0  0
 46 47  1  1  0  0  0
 46 49  1  0  0  0  0
 48 49  2  0  0  0  0
 49 50  1  0  0  0  0
 50 51  1  0  0  0  0
M  END
>  <MODEL>
2

>  <REMARK>
 VINA RESULT:      -7.4      3.420      7.772
  Name = 
  20 active torsions:
  status: ('A' for Active; 'I' for Inactive)
    1  A    between atoms: C_1  and  N_30
    2  A    between atoms: C_1  and  C_40
    3  A    between atoms: C_4  and  N_8
    4  A    between atoms: C_4  and  N_30
    5  A    between atoms: C_5  and  C_23
    6  A    between atoms: C_5  and  C_44
    7  A    between atoms: C_6  and  C_9
    8  A    between atoms: N_12  and  C_38
    9  A    between atoms: C_13  and  N_18
   10  A    between atoms: C_14  and  C_15
   11  A    between atoms: C_14  and  C_24
   12  A    between atoms: C_15  and  C_17
   13  A    between atoms: C_17  and  C_25
   14  A    between atoms: C_19  and  C_46
   15  A    between atoms: C_19  and  C_49
   16  A    between atoms: C_23  and  O_35
   17  A    between atoms: C_32  and  C_36
   18  A    between atoms: C_32  and  C_38
   19  A    between atoms: C_33  and  O_35
   20  A    between atoms: C_39  and  C_40
                            x       y       z     vdW  Elec       q    Type
                         _______ _______ _______ _____ _____    ______ ____

>  <TORSDO>
F 20

$$$$
=
 OpenBabel11032419223D

 51 54  0  0  1  0  0  0  0  0999 V2000
  189.7520  177.2780  143.5020 C   0  0  0  0  0  0  0  0  0  0  0  0
  187.6780  177.9710  142.3230 C   0  0  0  0  0  0  0  0  0  0  0  0
  188.1170  177.4290  143.8580 S   0  0  0  0  0  0  0  0  0  0  0  0
  189.9940  177.6410  142.1860 C   0  0  0  0  0  2  0  0  0  0  0  0
  190.6570  176.8470  144.3340 C   0  0  0  0  0  0  0  0  0  0  0  0
  188.8210  178.0380  141.5260 C   0  0  0  0  0  0  0  0  0  0  0  0
  191.5610  176.4120  145.1680 C   0  0  0  0  0  3  0  0  0  0  0  0
  186.4440  178.2850  141.9270 C   0  0  0  0  0  2  0  0  0  0  0  0
  191.5060  176.7910  146.6080 C   0  0  2  0  0  3  0  0  0  0  0  0
  192.3690  175.9910  147.3350 F   0  0  0  0  0  0  0  0  0  0  0  0
  190.0970  176.6120  147.1380 C   0  0  0  0  0  2  0  0  0  0  0  0
  189.6280  177.8230  147.6750 O   0  0  0  0  0  0  0  0  0  0  0  0
  187.2600  178.1620  147.2810 C   0  0  0  0  0  1  0  0  0  0  0  0
  188.1360  176.2580  148.3450 F   0  0  0  0  0  0  0  0  0  0  0  0
  188.3390  177.6180  148.2130 C   0  0  0  0  0  0  0  0  0  0  0  0
  188.2130  178.1930  149.4700 F   0  0  0  0  0  0  0  0  0  0  0  0
  185.2610  178.1940  142.8320 C   0  0  0  0  0  2  0  0  0  0  0  0
  183.1410  178.0260  141.5750 C   0  0  1  0  0  3  0  0  0  0  0  0
  184.1170  178.8390  140.7430 C   0  0  0  0  0  2  0  0  0  0  0  0
  184.1100  178.9850  142.2480 C   0  0  2  0  0  3  0  0  0  0  0  0
  181.7700  178.6300  141.4840 C   0  0  0  0  0  0  0  0  0  0  0  0
  180.8850  178.2870  140.4160 N   0  0  0  0  0  2  0  0  0  0  0  0
  181.3670  179.4150  142.3850 O   0  0  0  0  0  0  0  0  0  0  0  0
  181.2550  177.3660  139.3510 C   0  0  0  0  0  2  0  0  0  0  0  0
  181.5880  178.1320  138.0820 C   0  0  0  0  0  2  0  0  0  0  0  0
  180.7320  181.1410  136.3660 C   0  0  2  0  0  3  0  0  0  0  0  0
  179.5230  180.2480  136.1600 C   0  0  0  0  0  2  0  0  0  0  0  0
  179.8040  178.9970  136.7270 O   0  0  0  0  0  0  0  0  0  0  0  0
  180.6050  179.2690  137.8480 C   0  0  2  0  0  3  0  0  0  0  0  0
  181.3720  180.5480  137.5960 C   0  0  0  0  0  2  0  0  0  0  0  0
  181.4120  184.5740  137.2430 C   0  0  0  0  0  2  0  0  0  0  0  0
  180.5860  183.2980  135.3810 C   0  0  0  0  0  2  0  0  0  0  0  0
  180.3280  182.5320  136.5970 N   0  0  0  0  0  0  0  0  0  0  0  0
  181.2260  183.1150  137.5900 C   0  0  0  0  0  2  0  0  0  0  0  0
  181.0220  184.6880  135.7910 C   0  0  0  0  0  2  0  0  0  0  0  0
  188.8130  178.4370  140.0840 C   0  0  0  0  0  2  0  0  0  0  0  0
  189.4970  177.3830  139.2320 C   0  0  0  0  0  2  0  0  0  0  0  0
  189.5480  177.8250  137.8470 N   0  0  0  0  0  2  0  0  0  0  0  0
  189.7110  176.9420  136.7340 C   0  0  0  0  0  0  0  0  0  0  0  0
  188.4490  176.5810  135.7520 S   0  0  0  0  0  0  0  0  0  0  0  0
  190.9850  176.3530  136.4520 N   0  0  0  0  0  2  0  0  0  0  0  0
  191.4810  175.1340  137.0140 C   0  0  0  0  0  0  0  0  0  0  0  0
  190.7880  174.4640  137.8270 O   0  0  0  0  0  0  0  0  0  0  0  0
  192.8430  174.6580  136.6220 C   0  0  2  0  0  3  0  0  0  0  0  0
  192.7590  173.2090  136.1680 C   0  0  0  0  0  1  0  0  0  0  0  0
  193.8460  174.8250  137.7700 C   0  0  2  0  0  3  0  0  0  0  0  0
  193.7130  176.0870  138.3550 O   0  0  0  0  0  1  0  0  0  0  0  0
  195.5750  175.0100  136.1860 O   0  0  0  0  0  0  0  0  0  0  0  0
  195.2610  174.6410  137.3050 C   0  0  0  0  0  0  0  0  0  0  0  0
  196.2790  173.9960  138.1880 C   0  0  0  0  0  2  0  0  0  0  0  0
  195.6580  173.0750  139.0320 O   0  0  0  0  0  1  0  0  0  0  0  0
  1  3  1  0  0  0  0
  1  5  2  0  0  0  0
  2  3  1  0  0  0  0
  4  1  1  0  0  0  0
  5  7  2  0  0  0  0
  6  4  1  0  0  0  0
  6  2  2  0  0  0  0
  7  9  1  0  0  0  0
  8  2  1  0  0  0  0
  8 17  1  0  0  0  0
  9 11  1  0  0  0  0
  9 10  1  1  0  0  0
 11 12  1  0  0  0  0
 12 15  1  0  0  0  0
 13 15  1  0  0  0  0
 15 14  1  0  0  0  0
 15 16  1  0  0  0  0
 18 21  1  6  0  0  0
 18 20  1  0  0  0  0
 19 18  1  0  0  0  0
 19 20  1  0  0  0  0
 20 17  1  1  0  0  0
 21 23  2  0  0  0  0
 22 21  1  0  0  0  0
 24 22  1  0  0  0  0
 25 24  1  0  0  0  0
 26 27  1  1  0  0  0
 26 33  1  0  0  0  0
 26 30  1  0  0  0  0
 27 28  1  0  0  0  0
 28 29  1  0  0  0  0
 29 25  1  6  0  0  0
 30 29  1  0  0  0  0
 31 34  1  0  0  0  0
 32 35  1  0  0  0  0
 32 33  1  0  0  0  0
 33 34  1  0  0  0  0
 35 31  1  0  0  0  0
 36  6  1  0  0  0  0
 37 36  1  0  0  0  0
 38 37  1  0  0  0  0
 39 38  1  0  0  0  0
 40 39  2  0  0  0  0
 41 39  1  0  0  0  0
 41 42  1  0  0  0  0
 42 43  2  0  0  0  0
 44 45  1  1  0  0  0
 44 42  1  0  0  0  0
 44 46  1  0  0  0  0
 46 47  1  6  0  0  0
 48 49  2  0  0  0  0
 49 46  1  0  0  0  0
 49 50  1  0  0  0  0
 50 51  1  0  0  0  0
M  END
>  <MODEL>
3

>  <REMARK>
 VINA RESULT:      -7.4      3.719      8.615
  Name = 
  20 active torsions:
  status: ('A' for Active; 'I' for Inactive)
    1  A    between atoms: C_1  and  N_30
    2  A    between atoms: C_1  and  C_40
    3  A    between atoms: C_4  and  N_8
    4  A    between atoms: C_4  and  N_30
    5  A    between atoms: C_5  and  C_23
    6  A    between atoms: C_5  and  C_44
    7  A    between atoms: C_6  and  C_9
    8  A    between atoms: N_12  and  C_38
    9  A    between atoms: C_13  and  N_18
   10  A    between atoms: C_14  and  C_15
   11  A    between atoms: C_14  and  C_24
   12  A    between atoms: C_15  and  C_17
   13  A    between atoms: C_17  and  C_25
   14  A    between atoms: C_19  and  C_46
   15  A    between atoms: C_19  and  C_49
   16  A    between atoms: C_23  and  O_35
   17  A    between atoms: C_32  and  C_36
   18  A    between atoms: C_32  and  C_38
   19  A    between atoms: C_33  and  O_35
   20  A    between atoms: C_39  and  C_40
                            x       y       z     vdW  Elec       q    Type
                         _______ _______ _______ _____ _____    ______ ____

>  <TORSDO>
F 20

$$$$
=
 OpenBabel11032419223D

 51 54  0  0  1  0  0  0  0  0999 V2000
  186.1920  178.5570  141.7000 C   0  0  0  0  0  0  0  0  0  0  0  0
  183.8490  178.8050  142.4880 C   0  0  0  0  0  0  0  0  0  0  0  0
  184.6750  178.7860  141.0180 S   0  0  0  0  0  0  0  0  0  0  0  0
  186.0950  178.4930  143.0820 C   0  0  0  0  0  3  0  0  0  0  0  0
  187.3070  178.4860  141.0290 C   0  0  0  0  0  0  0  0  0  0  0  0
  184.7690  178.6270  143.5220 C   0  0  0  0  0  0  0  0  0  0  0  0
  188.4210  178.4180  140.3540 C   0  0  0  0  0  3  0  0  0  0  0  0
  182.5350  178.9640  142.6460 C   0  0  0  0  0  3  0  0  0  0  0  0
  188.4690  177.7130  139.0420 C   0  0  2  0  0  3  0  0  0  0  0  0
  189.6280  178.0550  138.3700 F   0  0  0  0  0  0  0  0  0  0  0  0
  187.2710  178.1020  138.1990 C   0  0  0  0  0  2  0  0  0  0  0  0
  186.8910  177.0270  137.3780 O   0  0  0  0  0  0  0  0  0  0  0  0
  186.3520  176.8380  135.0220 C   0  0  0  0  0  1  0  0  0  0  0  0
  187.6130  178.6040  135.9240 F   0  0  0  0  0  0  0  0  0  0  0  0
  187.3790  177.2510  136.0720 C   0  0  0  0  0  0  0  0  0  0  0  0
  188.5760  176.5830  135.8530 F   0  0  0  0  0  0  0  0  0  0  0  0
  181.6030  179.1490  141.4960 C   0  0  0  0  0  2  0  0  0  0  0  0
  179.9850  178.0360  139.9980 C   0  0  1  0  0  3  0  0  0  0  0  0
  179.4990  177.8620  141.4250 C   0  0  0  0  0  2  0  0  0  0  0  0
  180.9800  177.8190  141.1270 C   0  0  2  0  0  3  0  0  0  0  0  0
  179.7660  176.7660  139.2290 C   0  0  0  0  0  0  0  0  0  0  0  0
  180.4790  176.5060  138.0180 N   0  0  0  0  0  2  0  0  0  0  0  0
  178.9770  175.8880  139.6750 O   0  0  0  0  0  0  0  0  0  0  0  0
  181.4310  177.4490  137.4480 C   0  0  0  0  0  2  0  0  0  0  0  0
  182.8270  177.1780  137.9840 C   0  0  0  0  0  2  0  0  0  0  0  0
  182.9250  173.7300  137.0740 C   0  0  2  0  0  3  0  0  0  0  0  0
  182.9850  174.4580  135.7460 C   0  0  0  0  0  2  0  0  0  0  0  0
  182.8600  175.8320  135.9960 O   0  0  0  0  0  0  0  0  0  0  0  0
  183.5020  176.0450  137.2270 C   0  0  2  0  0  3  0  0  0  0  0  0
  183.4130  174.7760  138.0450 C   0  0  0  0  0  2  0  0  0  0  0  0
  183.7640  170.3500  136.1310 C   0  0  0  0  0  2  0  0  0  0  0  0
  184.6120  172.5820  135.8570 C   0  0  0  0  0  2  0  0  0  0  0  0
  183.8050  172.5560  137.0740 N   0  0  0  0  0  0  0  0  0  0  0  0
  182.9800  171.3590  136.9370 C   0  0  0  0  0  2  0  0  0  0  0  0
  184.8110  171.1530  135.4020 C   0  0  0  0  0  2  0  0  0  0  0  0
  184.4070  178.6320  144.9740 C   0  0  0  0  0  2  0  0  0  0  0  0
  185.6130  178.9880  145.8250 C   0  0  0  0  0  2  0  0  0  0  0  0
  186.1060  177.7990  146.5030 N   0  0  0  0  0  2  0  0  0  0  0  0
  187.4300  177.6750  147.0330 C   0  0  0  0  0  0  0  0  0  0  0  0
  187.7640  178.1140  148.5760 S   0  0  0  0  0  0  0  0  0  0  0  0
  188.4920  177.1610  146.2220 N   0  0  0  0  0  2  0  0  0  0  0  0
  189.8690  177.0890  146.6050 C   0  0  0  0  0  0  0  0  0  0  0  0
  190.2510  177.4870  147.7390 O   0  0  0  0  0  0  0  0  0  0  0  0
  190.8610  176.5320  145.6340 C   0  0  2  0  0  3  0  0  0  0  0  0
  192.0890  176.0490  146.3910 C   0  0  0  0  0  1  0  0  0  0  0  0
  191.2370  177.5630  144.5630 C   0  0  2  0  0  3  0  0  0  0  0  0
  190.4900  178.7330  144.7280 O   0  0  0  0  0  1  0  0  0  0  0  0
  191.4930  177.6310  142.2260 O   0  0  0  0  0  0  0  0  0  0  0  0
  191.0220  177.0300  143.1770 C   0  0  0  0  0  0  0  0  0  0  0  0
  190.2260  175.7860  142.9500 C   0  0  0  0  0  2  0  0  0  0  0  0
  188.8630  176.0850  142.9850 O   0  0  0  0  0  1  0  0  0  0  0  0
  1  4  1  0  0  0  0
  2  8  2  0  0  0  0
  2  6  1  0  0  0  0
  3  1  1  0  0  0  0
  3  2  1  0  0  0  0
  4  6  2  0  0  0  0
  5  1  2  0  0  0  0
  6 36  1  0  0  0  0
  7  5  2  0  0  0  0
  9 10  1  6  0  0  0
  9  7  1  0  0  0  0
 11  9  1  0  0  0  0
 12 11  1  0  0  0  0
 13 15  1  0  0  0  0
 14 15  1  0  0  0  0
 15 12  1  0  0  0  0
 16 15  1  0  0  0  0
 17  8  1  0  0  0  0
 18 21  1  6  0  0  0
 18 20  1  0  0  0  0
 18 19  1  0  0  0  0
 20 19  1  0  0  0  0
 20 17  1  1  0  0  0
 21 23  2  0  0  0  0
 22 21  1  0  0  0  0
 24 25  1  0  0  0  0
 24 22  1  0  0  0  0
 26 27  1  6  0  0  0
 26 30  1  0  0  0  0
 27 28  1  0  0  0  0
 28 29  1  0  0  0  0
 29 25  1  1  0  0  0
 29 30  1  0  0  0  0
 31 34  1  0  0  0  0
 32 33  1  0  0  0  0
 33 26  1  0  0  0  0
 34 33  1  0  0  0  0
 35 32  1  0  0  0  0
 35 31  1  0  0  0  0
 36 37  1  0  0  0  0
 37 38  1  0  0  0  0
 38 39  1  0  0  0  0
 39 40  2  0  0  0  0
 41 42  1  0  0  0  0
 41 39  1  0  0  0  0
 42 43  2  0  0  0  0
 44 45  1  1  0  0  0
 44 42  1  0  0  0  0
 46 47  1  1  0  0  0
 46 44  1  0  0  0  0
 48 49  2  0  0  0  0
 49 46  1  0  0  0  0
 50 51  1  0  0  0  0
 50 49  1  0  0  0  0
M  END
>  <MODEL>
4

>  <REMARK>
 VINA RESULT:      -6.9      4.458      9.229
  Name = 
  20 active torsions:
  status: ('A' for Active; 'I' for Inactive)
    1  A    between atoms: C_1  and  N_30
    2  A    between atoms: C_1  and  C_40
    3  A    between atoms: C_4  and  N_8
    4  A    between atoms: C_4  and  N_30
    5  A    between atoms: C_5  and  C_23
    6  A    between atoms: C_5  and  C_44
    7  A    between atoms: C_6  and  C_9
    8  A    between atoms: N_12  and  C_38
    9  A    between atoms: C_13  and  N_18
   10  A    between atoms: C_14  and  C_15
   11  A    between atoms: C_14  and  C_24
   12  A    between atoms: C_15  and  C_17
   13  A    between atoms: C_17  and  C_25
   14  A    between atoms: C_19  and  C_46
   15  A    between atoms: C_19  and  C_49
   16  A    between atoms: C_23  and  O_35
   17  A    between atoms: C_32  and  C_36
   18  A    between atoms: C_32  and  C_38
   19  A    between atoms: C_33  and  O_35
   20  A    between atoms: C_39  and  C_40
                            x       y       z     vdW  Elec       q    Type
                         _______ _______ _______ _____ _____    ______ ____

>  <TORSDO>
F 20

$$$$
=
 OpenBabel11032419223D

 51 54  0  0  1  0  0  0  0  0999 V2000
  189.8100  177.3000  142.7740 C   0  0  0  0  0  0  0  0  0  0  0  0
  187.8700  178.1800  141.4980 C   0  0  0  0  0  0  0  0  0  0  0  0
  188.2140  177.7210  143.0830 S   0  0  0  0  0  0  0  0  0  0  0  0
  190.1120  177.5020  141.4360 C   0  0  0  0  0  2  0  0  0  0  0  0
  190.6370  176.8180  143.6580 C   0  0  0  0  0  0  0  0  0  0  0  0
  189.0140  178.0050  140.7200 C   0  0  0  0  0  0  0  0  0  0  0  0
  191.4610  176.3330  144.5460 C   0  0  0  0  0  3  0  0  0  0  0  0
  186.6980  178.6350  141.0510 C   0  0  0  0  0  2  0  0  0  0  0  0
  191.4530  176.8450  145.9450 C   0  0  2  0  0  3  0  0  0  0  0  0
  192.4040  176.1750  146.6930 F   0  0  0  0  0  0  0  0  0  0  0  0
  190.0890  176.6310  146.5690 C   0  0  0  0  0  2  0  0  0  0  0  0
  189.4290  177.8630  146.7180 O   0  0  0  0  0  0  0  0  0  0  0  0
  187.1130  178.2480  147.3210 C   0  0  0  0  0  1  0  0  0  0  0  0
  188.3680  176.4230  148.1050 F   0  0  0  0  0  0  0  0  0  0  0  0
  188.4870  177.7560  147.7640 C   0  0  0  0  0  0  0  0  0  0  0  0
  188.8980  178.4520  148.8930 F   0  0  0  0  0  0  0  0  0  0  0  0
  185.5100  178.8010  141.9360 C   0  0  0  0  0  2  0  0  0  0  0  0
  183.5000  177.7840  140.9240 C   0  0  1  0  0  3  0  0  0  0  0  0
  184.3800  178.3020  139.8010 C   0  0  0  0  0  2  0  0  0  0  0  0
  184.2810  179.0760  141.0950 C   0  0  2  0  0  3  0  0  0  0  0  0
  182.0590  178.0680  140.6130 C   0  0  0  0  0  0  0  0  0  0  0  0
  181.2460  177.1030  139.9430 N   0  0  0  0  0  2  0  0  0  0  0  0
  181.5370  179.1530  140.9880 O   0  0  0  0  0  0  0  0  0  0  0  0
  181.7580  175.8120  139.5030 C   0  0  0  0  0  2  0  0  0  0  0  0
  181.6700  175.6980  137.9900 C   0  0  0  0  0  2  0  0  0  0  0  0
  184.2990  174.3540  135.9870 C   0  0  2  0  0  3  0  0  0  0  0  0
  183.9860  175.6850  135.3310 C   0  0  0  0  0  2  0  0  0  0  0  0
  182.8930  176.2540  135.9990 O   0  0  0  0  0  0  0  0  0  0  0  0
  183.0350  175.8660  137.3420 C   0  0  2  0  0  3  0  0  0  0  0  0
  183.7760  174.5470  137.3880 C   0  0  0  0  0  2  0  0  0  0  0  0
  187.2440  172.6370  137.1700 C   0  0  0  0  0  2  0  0  0  0  0  0
  186.0110  172.9460  135.1300 C   0  0  0  0  0  2  0  0  0  0  0  0
  185.7430  174.0940  135.9930 N   0  0  0  0  0  0  0  0  0  0  0  0
  186.1250  173.6410  137.3270 C   0  0  0  0  0  2  0  0  0  0  0  0
  187.1500  172.1610  135.7420 C   0  0  0  0  0  2  0  0  0  0  0  0
  189.0750  178.2680  139.2490 C   0  0  0  0  0  2  0  0  0  0  0  0
  189.3360  176.9820  138.4850 C   0  0  0  0  0  2  0  0  0  0  0  0
  189.7740  177.2920  137.1320 N   0  0  0  0  0  2  0  0  0  0  0  0
  190.1160  176.3020  136.1580 C   0  0  0  0  0  0  0  0  0  0  0  0
  188.9950  175.7350  135.1040 S   0  0  0  0  0  0  0  0  0  0  0  0
  191.4480  175.7840  136.0830 N   0  0  0  0  0  2  0  0  0  0  0  0
  191.9800  174.7360  136.8990 C   0  0  0  0  0  0  0  0  0  0  0  0
  191.2710  174.1700  137.7740 O   0  0  0  0  0  0  0  0  0  0  0  0
  193.4020  174.3160  136.7010 C   0  0  2  0  0  3  0  0  0  0  0  0
  193.4470  172.8320  136.3700 C   0  0  0  0  0  1  0  0  0  0  0  0
  194.2580  174.6390  137.9310 C   0  0  2  0  0  3  0  0  0  0  0  0
  194.0660  175.9660  138.3250 O   0  0  0  0  0  1  0  0  0  0  0  0
  196.3840  173.8080  138.4990 O   0  0  0  0  0  0  0  0  0  0  0  0
  195.7170  174.4060  137.6710 C   0  0  0  0  0  0  0  0  0  0  0  0
  196.3630  174.9130  136.4230 C   0  0  0  0  0  2  0  0  0  0  0  0
  197.4790  175.6850  136.7480 O   0  0  0  0  0  1  0  0  0  0  0  0
  1  3  1  0  0  0  0
  1  5  2  0  0  0  0
  2  3  1  0  0  0  0
  4  1  1  0  0  0  0
  5  7  2  0  0  0  0
  6  4  1  0  0  0  0
  6  2  2  0  0  0  0
  7  9  1  0  0  0  0
  8  2  1  0  0  0  0
  8 17  1  0  0  0  0
  9 11  1  0  0  0  0
  9 10  1  1  0  0  0
 11 12  1  0  0  0  0
 12 15  1  0  0  0  0
 13 15  1  0  0  0  0
 15 14  1  0  0  0  0
 15 16  1  0  0  0  0
 18 21  1  6  0  0  0
 18 20  1  0  0  0  0
 19 18  1  0  0  0  0
 19 20  1  0  0  0  0
 20 17  1  1  0  0  0
 21 23  2  0  0  0  0
 22 21  1  0  0  0  0
 24 22  1  0  0  0  0
 25 24  1  0  0  0  0
 26 27  1  6  0  0  0
 26 33  1  0  0  0  0
 26 30  1  0  0  0  0
 27 28  1  0  0  0  0
 28 29  1  0  0  0  0
 29 30  1  0  0  0  0
 29 25  1  6  0  0  0
 31 34  1  0  0  0  0
 32 35  1  0  0  0  0
 32 33  1  0  0  0  0
 33 34  1  0  0  0  0
 35 31  1  0  0  0  0
 36  6  1  0  0  0  0
 37 36  1  0  0  0  0
 38 37  1  0  0  0  0
 39 38  1  0  0  0  0
 40 39  2  0  0  0  0
 41 39  1  0  0  0  0
 41 42  1  0  0  0  0
 42 43  2  0  0  0  0
 44 45  1  1  0  0  0
 44 42  1  0  0  0  0
 44 46  1  0  0  0  0
 46 47  1  6  0  0  0
 49 46  1  0  0  0  0
 49 48  2  0  0  0  0
 50 51  1  0  0  0  0
 50 49  1  0  0  0  0
M  END
>  <MODEL>
5

>  <REMARK>
 VINA RESULT:      -6.9      3.783      7.741
  Name = 
  20 active torsions:
  status: ('A' for Active; 'I' for Inactive)
    1  A    between atoms: C_1  and  N_30
    2  A    between atoms: C_1  and  C_40
    3  A    between atoms: C_4  and  N_8
    4  A    between atoms: C_4  and  N_30
    5  A    between atoms: C_5  and  C_23
    6  A    between atoms: C_5  and  C_44
    7  A    between atoms: C_6  and  C_9
    8  A    between atoms: N_12  and  C_38
    9  A    between atoms: C_13  and  N_18
   10  A    between atoms: C_14  and  C_15
   11  A    between atoms: C_14  and  C_24
   12  A    between atoms: C_15  and  C_17
   13  A    between atoms: C_17  and  C_25
   14  A    between atoms: C_19  and  C_46
   15  A    between atoms: C_19  and  C_49
   16  A    between atoms: C_23  and  O_35
   17  A    between atoms: C_32  and  C_36
   18  A    between atoms: C_32  and  C_38
   19  A    between atoms: C_33  and  O_35
   20  A    between atoms: C_39  and  C_40
                            x       y       z     vdW  Elec       q    Type
                         _______ _______ _______ _____ _____    ______ ____

>  <TORSDO>
F 20

$$$$
=
 OpenBabel11032419223D

 51 54  0  0  1  0  0  0  0  0999 V2000
  183.7190  178.9400  140.5240 C   0  0  0  0  0  0  0  0  0  0  0  0
  185.6390  178.2540  141.9440 C   0  0  0  0  0  0  0  0  0  0  0  0
  183.9670  178.4130  142.1000 S   0  0  0  0  0  0  0  0  0  0  0  0
  184.9260  179.0090  139.8430 C   0  0  0  0  0  2  0  0  0  0  0  0
  182.5630  179.2710  140.0240 C   0  0  0  0  0  0  0  0  0  0  0  0
  186.0060  178.6140  140.6470 C   0  0  0  0  0  0  0  0  0  0  0  0
  181.4030  179.6060  139.5280 C   0  0  0  0  0  3  0  0  0  0  0  0
  186.4800  177.8540  142.8990 C   0  0  0  0  0  2  0  0  0  0  0  0
  180.1780  178.8350  139.8830 C   0  0  2  0  0  3  0  0  0  0  0  0
  180.2720  178.3820  141.1860 F   0  0  0  0  0  0  0  0  0  0  0  0
  180.0250  177.6470  138.9540 C   0  0  0  0  0  2  0  0  0  0  0  0
  180.6880  176.5290  139.4880 O   0  0  0  0  0  0  0  0  0  0  0  0
  181.5720  176.8060  137.2490 C   0  0  0  0  0  1  0  0  0  0  0  0
  182.6830  175.6120  138.9400 F   0  0  0  0  0  0  0  0  0  0  0  0
  181.4180  175.8940  138.4610 C   0  0  0  0  0  0  0  0  0  0  0  0
  180.8280  174.6960  138.0820 F   0  0  0  0  0  0  0  0  0  0  0  0
  186.0230  177.4800  144.2680 C   0  0  0  0  0  2  0  0  0  0  0  0
  185.7900  178.2370  146.6080 C   0  0  1  0  0  3  0  0  0  0  0  0
  184.9210  179.1270  145.7380 C   0  0  0  0  0  2  0  0  0  0  0  0
  186.2520  178.6380  145.2160 C   0  0  2  0  0  3  0  0  0  0  0  0
  186.4750  179.0650  147.6560 C   0  0  0  0  0  0  0  0  0  0  0  0
  187.6280  178.5750  148.3430 N   0  0  0  0  0  2  0  0  0  0  0  0
  186.0620  180.2300  147.9080 O   0  0  0  0  0  0  0  0  0  0  0  0
  188.1920  177.2560  148.0940 C   0  0  0  0  0  2  0  0  0  0  0  0
  189.6650  177.3700  147.7430 C   0  0  0  0  0  2  0  0  0  0  0  0
  191.1270  178.0980  144.5700 C   0  0  2  0  0  3  0  0  0  0  0  0
  191.6400  176.7090  144.8970 C   0  0  0  0  0  2  0  0  0  0  0  0
  191.1900  176.3680  146.1800 O   0  0  0  0  0  0  0  0  0  0  0  0
  189.9240  176.9670  146.3000 C   0  0  2  0  0  3  0  0  0  0  0  0
  189.8860  178.1980  145.4220 C   0  0  0  0  0  2  0  0  0  0  0  0
  191.5420  177.2060  141.0990 C   0  0  0  0  0  2  0  0  0  0  0  0
  189.8420  177.1720  142.7980 C   0  0  0  0  0  2  0  0  0  0  0  0
  190.8010  178.2190  143.1450 N   0  0  0  0  0  0  0  0  0  0  0  0
  191.9930  177.8900  142.3690 C   0  0  0  0  0  2  0  0  0  0  0  0
  190.1470  176.7120  141.3900 C   0  0  0  0  0  2  0  0  0  0  0  0
  187.4180  178.6400  140.1540 C   0  0  0  0  0  2  0  0  0  0  0  0
  187.4730  178.3290  138.6690 C   0  0  0  0  0  2  0  0  0  0  0  0
  188.0770  177.0220  138.4610 N   0  0  0  0  0  2  0  0  0  0  0  0
  187.9060  176.2440  137.2720 C   0  0  0  0  0  0  0  0  0  0  0  0
  186.5030  176.2980  136.4250 S   0  0  0  0  0  0  0  0  0  0  0  0
  188.9600  175.4010  136.7960 N   0  0  0  0  0  2  0  0  0  0  0  0
  189.9480  175.7710  135.8290 C   0  0  0  0  0  0  0  0  0  0  0  0
  189.9560  176.9230  135.3150 O   0  0  0  0  0  0  0  0  0  0  0  0
  190.9810  174.7660  135.4290 C   0  0  2  0  0  3  0  0  0  0  0  0
  190.2910  173.5020  134.9390 C   0  0  0  0  0  1  0  0  0  0  0  0
  191.9450  174.4640  136.5830 C   0  0  2  0  0  3  0  0  0  0  0  0
  191.2340  174.0980  137.7290 O   0  0  0  0  0  1  0  0  0  0  0  0
  192.4390  176.4730  137.7010 O   0  0  0  0  0  0  0  0  0  0  0  0
  192.8230  175.6390  136.8980 C   0  0  0  0  0  0  0  0  0  0  0  0
  194.1470  175.8070  136.2270 C   0  0  0  0  0  2  0  0  0  0  0  0
  195.1540  175.2640  137.0260 O   0  0  0  0  0  1  0  0  0  0  0  0
  1  3  1  0  0  0  0
  2  3  1  0  0  0  0
  2  8  1  0  0  0  0
  4  1  1  0  0  0  0
  4  6  1  0  0  0  0
  5  1  2  0  0  0  0
  6  2  2  0  0  0  0
  7  9  1  0  0  0  0
  7  5  2  0  0  0  0
  8 17  1  0  0  0  0
  9 10  1  1  0  0  0
 11 12  1  0  0  0  0
 11  9  1  0  0  0  0
 13 15  1  0  0  0  0
 15 14  1  0  0  0  0
 15 12  1  0  0  0  0
 16 15  1  0  0  0  0
 18 21  1  1  0  0  0
 19 18  1  0  0  0  0
 20 17  1  6  0  0  0
 20 19  1  0  0  0  0
 20 18  1  0  0  0  0
 21 23  2  0  0  0  0
 21 22  1  0  0  0  0
 24 22  1  0  0  0  0
 25 24  1  0  0  0  0
 26 33  1  6  0  0  0
 26 27  1  0  0  0  0
 26 30  1  0  0  0  0
 27 28  1  0  0  0  0
 28 29  1  0  0  0  0
 29 25  1  1  0  0  0
 30 29  1  0  0  0  0
 31 35  1  0  0  0  0
 31 34  1  0  0  0  0
 32 33  1  0  0  0  0
 34 33  1  0  0  0  0
 35 32  1  0  0  0  0
 36  6  1  0  0  0  0
 37 36  1  0  0  0  0
 38 37  1  0  0  0  0
 39 38  1  0  0  0  0
 40 39  2  0  0  0  0
 41 39  1  0  0  0  0
 42 41  1  0  0  0  0
 43 42  2  0  0  0  0
 44 45  1  1  0  0  0
 44 42  1  0  0  0  0
 44 46  1  0  0  0  0
 46 49  1  0  0  0  0
 46 47  1  1  0  0  0
 49 48  2  0  0  0  0
 50 49  1  0  0  0  0
 50 51  1  0  0  0  0
M  END
>  <MODEL>
6

>  <REMARK>
 VINA RESULT:      -6.7      1.643      2.437
  Name = 
  20 active torsions:
  status: ('A' for Active; 'I' for Inactive)
    1  A    between atoms: C_1  and  N_30
    2  A    between atoms: C_1  and  C_40
    3  A    between atoms: C_4  and  N_8
    4  A    between atoms: C_4  and  N_30
    5  A    between atoms: C_5  and  C_23
    6  A    between atoms: C_5  and  C_44
    7  A    between atoms: C_6  and  C_9
    8  A    between atoms: N_12  and  C_38
    9  A    between atoms: C_13  and  N_18
   10  A    between atoms: C_14  and  C_15
   11  A    between atoms: C_14  and  C_24
   12  A    between atoms: C_15  and  C_17
   13  A    between atoms: C_17  and  C_25
   14  A    between atoms: C_19  and  C_46
   15  A    between atoms: C_19  and  C_49
   16  A    between atoms: C_23  and  O_35
   17  A    between atoms: C_32  and  C_36
   18  A    between atoms: C_32  and  C_38
   19  A    between atoms: C_33  and  O_35
   20  A    between atoms: C_39  and  C_40
                            x       y       z     vdW  Elec       q    Type
                         _______ _______ _______ _____ _____    ______ ____

>  <TORSDO>
F 20

$$$$
=
 OpenBabel11032419223D

 51 54  0  0  1  0  0  0  0  0999 V2000
  190.0060  177.1790  140.6530 C   0  0  0  0  0  0  0  0  0  0  0  0
  189.4290  177.6060  138.2750 C   0  0  0  0  0  0  0  0  0  0  0  0
  188.7370  177.8620  139.7920 S   0  0  0  0  0  0  0  0  0  0  0  0
  190.9930  176.7340  139.7870 C   0  0  0  0  0  3  0  0  0  0  0  0
  190.0420  177.0530  141.9500 C   0  0  0  0  0  0  0  0  0  0  0  0
  190.6660  176.9840  138.4450 C   0  0  0  0  0  0  0  0  0  0  0  0
  190.0730  176.9250  143.2480 C   0  0  0  0  0  3  0  0  0  0  0  0
  188.8900  177.9390  137.1020 C   0  0  0  0  0  3  0  0  0  0  0  0
  189.5340  178.0010  144.1270 C   0  0  2  0  0  3  0  0  0  0  0  0
  190.5660  178.8180  144.5490 F   0  0  0  0  0  0  0  0  0  0  0  0
  188.8550  177.3910  145.3370 C   0  0  0  0  0  2  0  0  0  0  0  0
  188.9700  178.2550  146.4390 O   0  0  0  0  0  0  0  0  0  0  0  0
  187.9270  177.4590  148.4770 C   0  0  0  0  0  1  0  0  0  0  0  0
  189.4560  176.1880  147.2240 F   0  0  0  0  0  0  0  0  0  0  0  0
  189.1780  177.4860  147.6050 C   0  0  0  0  0  0  0  0  0  0  0  0
  190.2580  177.9560  148.3400 F   0  0  0  0  0  0  0  0  0  0  0  0
  187.5610  178.6060  136.9880 C   0  0  0  0  0  2  0  0  0  0  0  0
  185.4930  177.3540  137.4940 C   0  0  1  0  0  3  0  0  0  0  0  0
  186.5980  176.3480  137.2320 C   0  0  0  0  0  2  0  0  0  0  0  0
  186.5450  177.6300  136.4330 C   0  0  2  0  0  3  0  0  0  0  0  0
  184.2140  176.8800  136.8670 C   0  0  0  0  0  0  0  0  0  0  0  0
  183.0110  176.7820  137.6320 N   0  0  0  0  0  2  0  0  0  0  0  0
  184.1800  176.6070  135.6360 O   0  0  0  0  0  0  0  0  0  0  0  0
  182.9520  177.1070  139.0500 C   0  0  0  0  0  2  0  0  0  0  0  0
  182.4130  178.5150  139.2470 C   0  0  0  0  0  2  0  0  0  0  0  0
  184.6660  178.5540  142.0130 C   0  0  2  0  0  3  0  0  0  0  0  0
  185.3790  179.3710  140.9520 C   0  0  0  0  0  2  0  0  0  0  0  0
  184.6050  179.3370  139.7840 O   0  0  0  0  0  0  0  0  0  0  0  0
  183.2710  179.3050  140.2220 C   0  0  2  0  0  3  0  0  0  0  0  0
  183.2240  178.6400  141.5800 C   0  0  0  0  0  2  0  0  0  0  0  0
  183.7970  178.9550  145.4920 C   0  0  0  0  0  2  0  0  0  0  0  0
  185.6480  178.2130  144.1500 C   0  0  0  0  0  2  0  0  0  0  0  0
  184.8550  179.1390  143.3450 N   0  0  0  0  0  0  0  0  0  0  0  0
  183.5590  179.1850  144.0170 C   0  0  0  0  0  2  0  0  0  0  0  0
  185.1490  178.2930  145.5760 C   0  0  0  0  0  2  0  0  0  0  0  0
  191.5520  176.5600  137.3160 C   0  0  0  0  0  2  0  0  0  0  0  0
  191.2370  175.1360  136.8930 C   0  0  0  0  0  2  0  0  0  0  0  0
  192.4700  174.3740  136.7720 N   0  0  0  0  0  2  0  0  0  0  0  0
  193.7410  174.9570  136.4700 C   0  0  0  0  0  0  0  0  0  0  0  0
  194.0220  175.6580  135.0150 S   0  0  0  0  0  0  0  0  0  0  0  0
  194.7970  174.9410  137.4360 N   0  0  0  0  0  2  0  0  0  0  0  0
  195.6690  173.8370  137.6970 C   0  0  0  0  0  0  0  0  0  0  0  0
  195.5610  172.7570  137.0550 O   0  0  0  0  0  0  0  0  0  0  0  0
  196.7210  173.9790  138.7510 C   0  0  2  0  0  3  0  0  0  0  0  0
  196.2040  174.8810  139.8610 C   0  0  0  0  0  1  0  0  0  0  0  0
  198.0340  174.5120  138.1640 C   0  0  2  0  0  3  0  0  0  0  0  0
  198.4850  175.6120  138.8990 O   0  0  0  0  0  1  0  0  0  0  0  0
  197.4090  175.9970  136.4500 O   0  0  0  0  0  0  0  0  0  0  0  0
  197.8810  174.9070  136.7250 C   0  0  0  0  0  0  0  0  0  0  0  0
  198.2840  173.9740  135.6290 C   0  0  0  0  0  2  0  0  0  0  0  0
  197.2940  173.9430  134.6470 O   0  0  0  0  0  1  0  0  0  0  0  0
  1  5  2  0  0  0  0
  2  6  1  0  0  0  0
  2  3  1  0  0  0  0
  3  1  1  0  0  0  0
  4  1  1  0  0  0  0
  5  7  2  0  0  0  0
  6  4  2  0  0  0  0
  7  9  1  0  0  0  0
  8  2  2  0  0  0  0
  9 10  1  1  0  0  0
  9 11  1  0  0  0  0
 11 12  1  0  0  0  0
 12 15  1  0  0  0  0
 14 15  1  0  0  0  0
 15 16  1  0  0  0  0
 15 13  1  0  0  0  0
 17  8  1  0  0  0  0
 18 21  1  6  0  0  0
 19 18  1  0  0  0  0
 20 17  1  1  0  0  0
 20 19  1  0  0  0  0
 20 18  1  0  0  0  0
 21 22  1  0  0  0  0
 22 24  1  0  0  0  0
 23 21  2  0  0  0  0
 24 25  1  0  0  0  0
 26 27  1  6  0  0  0
 26 33  1  0  0  0  0
 28 29  1  0  0  0  0
 28 27  1  0  0  0  0
 29 25  1  6  0  0  0
 29 30  1  0  0  0  0
 30 26  1  0  0  0  0
 31 35  1  0  0  0  0
 32 35  1  0  0  0  0
 33 34  1  0  0  0  0
 33 32  1  0  0  0  0
 34 31  1  0  0  0  0
 36  6  1  0  0  0  0
 37 36  1  0  0  0  0
 38 37  1  0  0  0  0
 39 38  1  0  0  0  0
 39 41  1  0  0  0  0
 40 39  2  0  0  0  0
 41 42  1  0  0  0  0
 42 44  1  0  0  0  0
 43 42  2  0  0  0  0
 44 45  1  1  0  0  0
 46 44  1  0  0  0  0
 46 47  1  1  0  0  0
 48 49  2  0  0  0  0
 49 46  1  0  0  0  0
 50 49  1  0  0  0  0
 51 50  1  0  0  0  0
M  END
>  <MODEL>
7

>  <REMARK>
 VINA RESULT:      -6.6      3.616      7.766
  Name = 
  20 active torsions:
  status: ('A' for Active; 'I' for Inactive)
    1  A    between atoms: C_1  and  N_30
    2  A    between atoms: C_1  and  C_40
    3  A    between atoms: C_4  and  N_8
    4  A    between atoms: C_4  and  N_30
    5  A    between atoms: C_5  and  C_23
    6  A    between atoms: C_5  and  C_44
    7  A    between atoms: C_6  and  C_9
    8  A    between atoms: N_12  and  C_38
    9  A    between atoms: C_13  and  N_18
   10  A    between atoms: C_14  and  C_15
   11  A    between atoms: C_14  and  C_24
   12  A    between atoms: C_15  and  C_17
   13  A    between atoms: C_17  and  C_25
   14  A    between atoms: C_19  and  C_46
   15  A    between atoms: C_19  and  C_49
   16  A    between atoms: C_23  and  O_35
   17  A    between atoms: C_32  and  C_36
   18  A    between atoms: C_32  and  C_38
   19  A    between atoms: C_33  and  O_35
   20  A    between atoms: C_39  and  C_40
                            x       y       z     vdW  Elec       q    Type
                         _______ _______ _______ _____ _____    ______ ____

>  <TORSDO>
F 20

$$$$
=
 OpenBabel11032419223D

 51 54  0  0  1  0  0  0  0  0999 V2000
  185.9260  178.6060  141.7200 C   0  0  0  0  0  0  0  0  0  0  0  0
  183.5030  178.6430  142.2670 C   0  0  0  0  0  0  0  0  0  0  0  0
  184.4700  178.6370  140.8850 S   0  0  0  0  0  0  0  0  0  0  0  0
  185.6980  178.6040  143.0880 C   0  0  0  0  0  3  0  0  0  0  0  0
  187.1040  178.6200  141.1630 C   0  0  0  0  0  0  0  0  0  0  0  0
  184.3280  178.6180  143.3920 C   0  0  0  0  0  0  0  0  0  0  0  0
  188.2810  178.6360  140.6010 C   0  0  0  0  0  3  0  0  0  0  0  0
  182.1700  178.6690  142.2900 C   0  0  0  0  0  3  0  0  0  0  0  0
  188.5320  177.8730  139.3460 C   0  0  2  0  0  3  0  0  0  0  0  0
  188.3550  176.5210  139.5790 F   0  0  0  0  0  0  0  0  0  0  0  0
  189.9490  178.1140  138.8660 C   0  0  0  0  0  2  0  0  0  0  0  0
  190.2410  177.2660  137.7840 O   0  0  0  0  0  0  0  0  0  0  0  0
  192.3640  176.4040  136.9930 C   0  0  0  0  0  1  0  0  0  0  0  0
  191.9610  176.9970  139.2310 F   0  0  0  0  0  0  0  0  0  0  0  0
  191.3410  176.4500  138.1240 C   0  0  0  0  0  0  0  0  0  0  0  0
  190.9390  175.1620  138.4520 F   0  0  0  0  0  0  0  0  0  0  0  0
  181.3450  178.6930  141.0480 C   0  0  0  0  0  2  0  0  0  0  0  0
  180.0550  177.3290  139.4430 C   0  0  1  0  0  3  0  0  0  0  0  0
  179.4450  177.1360  140.8190 C   0  0  0  0  0  2  0  0  0  0  0  0
  180.9420  177.2820  140.6760 C   0  0  2  0  0  3  0  0  0  0  0  0
  180.0850  176.0190  138.7120 C   0  0  0  0  0  0  0  0  0  0  0  0
  181.0840  175.7490  137.7260 N   0  0  0  0  0  2  0  0  0  0  0  0
  179.2510  175.1180  139.0000 O   0  0  0  0  0  0  0  0  0  0  0  0
  182.1040  176.7190  137.3540 C   0  0  0  0  0  2  0  0  0  0  0  0
  183.4400  176.3420  137.9720 C   0  0  0  0  0  2  0  0  0  0  0  0
  186.3800  174.4540  137.2470 C   0  0  2  0  0  3  0  0  0  0  0  0
  185.3400  173.3980  137.5700 C   0  0  0  0  0  2  0  0  0  0  0  0
  184.1620  174.0510  137.9600 O   0  0  0  0  0  0  0  0  0  0  0  0
  184.1180  175.2270  137.1920 C   0  0  2  0  0  3  0  0  0  0  0  0
  185.5340  175.6400  136.8570 C   0  0  0  0  0  2  0  0  0  0  0  0
  189.5570  174.2310  135.5530 C   0  0  0  0  0  2  0  0  0  0  0  0
  187.8980  172.7810  136.5130 C   0  0  0  0  0  2  0  0  0  0  0  0
  187.2380  174.0280  136.1360 N   0  0  0  0  0  0  0  0  0  0  0  0
  188.3290  174.9890  136.0010 C   0  0  0  0  0  2  0  0  0  0  0  0
  189.2880  172.7920  135.9150 C   0  0  0  0  0  2  0  0  0  0  0  0
  183.8230  178.6600  144.8000 C   0  0  0  0  0  2  0  0  0  0  0  0
  184.9660  178.8980  145.7710 C   0  0  0  0  0  2  0  0  0  0  0  0
  185.8530  177.7450  145.7810 N   0  0  0  0  0  2  0  0  0  0  0  0
  187.0820  177.6910  146.5120 C   0  0  0  0  0  0  0  0  0  0  0  0
  187.1760  178.2650  148.0450 S   0  0  0  0  0  0  0  0  0  0  0  0
  188.2580  177.1330  145.9180 N   0  0  0  0  0  2  0  0  0  0  0  0
  189.5830  177.2280  146.4490 C   0  0  0  0  0  0  0  0  0  0  0  0
  189.8090  177.8360  147.5310 O   0  0  0  0  0  0  0  0  0  0  0  0
  190.7110  176.5950  145.6980 C   0  0  2  0  0  3  0  0  0  0  0  0
  191.8120  176.2090  146.6740 C   0  0  0  0  0  1  0  0  0  0  0  0
  191.2410  177.5210  144.5970 C   0  0  2  0  0  3  0  0  0  0  0  0
  190.6060  178.7640  144.6570 O   0  0  0  0  0  1  0  0  0  0  0  0
  191.5420  177.4850  142.2640 O   0  0  0  0  0  0  0  0  0  0  0  0
  191.0470  176.9300  143.2310 C   0  0  0  0  0  0  0  0  0  0  0  0
  190.2420  175.6870  143.0420 C   0  0  0  0  0  2  0  0  0  0  0  0
  188.9030  176.0180  142.8300 O   0  0  0  0  0  1  0  0  0  0  0  0
  1  4  1  0  0  0  0
  2  8  2  0  0  0  0
  2  6  1  0  0  0  0
  3  1  1  0  0  0  0
  3  2  1  0  0  0  0
  4  6  2  0  0  0  0
  5  1  2  0  0  0  0
  6 36  1  0  0  0  0
  7  5  2  0  0  0  0
  9 10  1  1  0  0  0
  9  7  1  0  0  0  0
 11  9  1  0  0  0  0
 12 15  1  0  0  0  0
 12 11  1  0  0  0  0
 13 15  1  0  0  0  0
 15 16  1  0  0  0  0
 15 14  1  0  0  0  0
 17  8  1  0  0  0  0
 18 21  1  6  0  0  0
 18 20  1  0  0  0  0
 18 19  1  0  0  0  0
 20 19  1  0  0  0  0
 20 17  1  1  0  0  0
 21 23  2  0  0  0  0
 22 21  1  0  0  0  0
 24 22  1  0  0  0  0
 24 25  1  0  0  0  0
 26 33  1  6  0  0  0
 26 27  1  0  0  0  0
 27 28  1  0  0  0  0
 29 28  1  0  0  0  0
 29 25  1  1  0  0  0
 30 29  1  0  0  0  0
 30 26  1  0  0  0  0
 31 35  1  0  0  0  0
 31 34  1  0  0  0  0
 33 32  1  0  0  0  0
 34 33  1  0  0  0  0
 35 32  1  0  0  0  0
 36 37  1  0  0  0  0
 37 38  1  0  0  0  0
 38 39  1  0  0  0  0
 39 40  2  0  0  0  0
 41 42  1  0  0  0  0
 41 39  1  0  0  0  0
 42 43  2  0  0  0  0
 44 42  1  0  0  0  0
 44 45  1  1  0  0  0
 46 47  1  6  0  0  0
 46 44  1  0  0  0  0
 48 49  2  0  0  0  0
 49 46  1  0  0  0  0
 50 49  1  0  0  0  0
 51 50  1  0  0  0  0
M  END
>  <MODEL>
8

>  <REMARK>
 VINA RESULT:      -6.6      4.016      9.035
  Name = 
  20 active torsions:
  status: ('A' for Active; 'I' for Inactive)
    1  A    between atoms: C_1  and  N_30
    2  A    between atoms: C_1  and  C_40
    3  A    between atoms: C_4  and  N_8
    4  A    between atoms: C_4  and  N_30
    5  A    between atoms: C_5  and  C_23
    6  A    between atoms: C_5  and  C_44
    7  A    between atoms: C_6  and  C_9
    8  A    between atoms: N_12  and  C_38
    9  A    between atoms: C_13  and  N_18
   10  A    between atoms: C_14  and  C_15
   11  A    between atoms: C_14  and  C_24
   12  A    between atoms: C_15  and  C_17
   13  A    between atoms: C_17  and  C_25
   14  A    between atoms: C_19  and  C_46
   15  A    between atoms: C_19  and  C_49
   16  A    between atoms: C_23  and  O_35
   17  A    between atoms: C_32  and  C_36
   18  A    between atoms: C_32  and  C_38
   19  A    between atoms: C_33  and  O_35
   20  A    between atoms: C_39  and  C_40
                            x       y       z     vdW  Elec       q    Type
                         _______ _______ _______ _____ _____    ______ ____

>  <TORSDO>
F 20

$$$$
=
 OpenBabel11032419223D

 51 54  0  0  1  0  0  0  0  0999 V2000
  183.4240  178.6670  139.0680 C   0  0  0  0  0  0  0  0  0  0  0  0
  185.8950  178.4420  139.1920 C   0  0  0  0  0  0  0  0  0  0  0  0
  184.6810  178.2430  138.0380 S   0  0  0  0  0  0  0  0  0  0  0  0
  183.9140  178.9690  140.3300 C   0  0  0  0  0  3  0  0  0  0  0  0
  182.1630  178.6760  138.7390 C   0  0  0  0  0  0  0  0  0  0  0  0
  185.3110  178.8460  140.3930 C   0  0  0  0  0  0  0  0  0  0  0  0
  180.9020  178.6810  138.4060 C   0  0  0  0  0  3  0  0  0  0  0  0
  187.1990  178.2450  138.9990 C   0  0  0  0  0  3  0  0  0  0  0  0
  180.4770  179.1460  137.0550 C   0  0  2  0  0  3  0  0  0  0  0  0
  181.5500  179.0900  136.1840 F   0  0  0  0  0  0  0  0  0  0  0  0
  179.9720  180.5720  137.1320 C   0  0  0  0  0  2  0  0  0  0  0  0
  180.9620  181.4590  136.6780 O   0  0  0  0  0  0  0  0  0  0  0  0
  181.1720  183.8610  136.9270 C   0  0  0  0  0  1  0  0  0  0  0  0
  180.0030  182.5000  138.4450 F   0  0  0  0  0  0  0  0  0  0  0  0
  181.1100  182.5030  137.6180 C   0  0  0  0  0  0  0  0  0  0  0  0
  182.2360  182.3210  138.4090 F   0  0  0  0  0  0  0  0  0  0  0  0
  187.7610  177.8130  137.6860 C   0  0  0  0  0  2  0  0  0  0  0  0
  189.5240  176.3870  138.6650 C   0  0  1  0  0  3  0  0  0  0  0  0
  189.6610  177.7760  139.2590 C   0  0  0  0  0  2  0  0  0  0  0  0
  189.2570  177.6160  137.8120 C   0  0  2  0  0  3  0  0  0  0  0  0
  190.8840  175.8210  138.3760 C   0  0  0  0  0  0  0  0  0  0  0  0
  191.0350  174.6220  137.6130 N   0  0  0  0  0  2  0  0  0  0  0  0
  191.9160  176.4320  138.7660 O   0  0  0  0  0  0  0  0  0  0  0  0
  189.9000  173.8700  137.0960 C   0  0  0  0  0  2  0  0  0  0  0  0
  189.5730  174.3150  135.6810 C   0  0  0  0  0  2  0  0  0  0  0  0
  186.2200  174.9030  136.7500 C   0  0  2  0  0  3  0  0  0  0  0  0
  186.2880  175.5620  135.3860 C   0  0  0  0  0  2  0  0  0  0  0  0
  187.6050  175.4630  134.9180 O   0  0  0  0  0  0  0  0  0  0  0  0
  188.0800  174.2330  135.4050 C   0  0  2  0  0  3  0  0  0  0  0  0
  187.3510  173.9080  136.6900 C   0  0  0  0  0  2  0  0  0  0  0  0
  183.7050  172.4700  135.8710 C   0  0  0  0  0  2  0  0  0  0  0  0
  185.1630  173.0020  137.7060 C   0  0  0  0  0  2  0  0  0  0  0  0
  184.9320  174.2290  136.9480 N   0  0  0  0  0  0  0  0  0  0  0  0
  184.4480  173.7680  135.6500 C   0  0  0  0  0  2  0  0  0  0  0  0
  184.1950  171.9560  137.2010 C   0  0  0  0  0  2  0  0  0  0  0  0
  186.0750  179.0790  141.6580 C   0  0  0  0  0  2  0  0  0  0  0  0
  185.1290  179.3570  142.8130 C   0  0  0  0  0  2  0  0  0  0  0  0
  185.1390  178.2350  143.7400 N   0  0  0  0  0  2  0  0  0  0  0  0
  185.6140  178.3190  145.0870 C   0  0  0  0  0  0  0  0  0  0  0  0
  184.5790  178.5910  146.3290 S   0  0  0  0  0  0  0  0  0  0  0  0
  187.0070  178.1650  145.3780 N   0  0  0  0  0  2  0  0  0  0  0  0
  187.8770  177.1960  144.7880 C   0  0  0  0  0  0  0  0  0  0  0  0
  187.4530  176.3790  143.9260 O   0  0  0  0  0  0  0  0  0  0  0  0
  189.3120  177.1600  145.2090 C   0  0  2  0  0  3  0  0  0  0  0  0
  189.4130  177.5170  146.6850 C   0  0  0  0  0  1  0  0  0  0  0  0
  190.1720  178.0940  144.3500 C   0  0  2  0  0  3  0  0  0  0  0  0
  189.3670  178.8410  143.4850 O   0  0  0  0  0  1  0  0  0  0  0  0
  192.1330  177.9330  143.0600 O   0  0  0  0  0  0  0  0  0  0  0  0
  191.1890  177.3350  143.5480 C   0  0  0  0  0  0  0  0  0  0  0  0
  191.0460  175.8640  143.3270 C   0  0  0  0  0  2  0  0  0  0  0  0
  190.4340  175.6280  142.0960 O   0  0  0  0  0  1  0  0  0  0  0  0
  1  4  1  0  0  0  0
  2  6  1  0  0  0  0
  3  1  1  0  0  0  0
  3  2  1  0  0  0  0
  4  6  2  0  0  0  0
  5  1  2  0  0  0  0
  6 36  1  0  0  0  0
  7  5  2  0  0  0  0
  8  2  2  0  0  0  0
  9 10  1  6  0  0  0
  9 11  1  0  0  0  0
  9  7  1  0  0  0  0
 12 11  1  0  0  0  0
 12 15  1  0  0  0  0
 13 15  1  0  0  0  0
 15 16  1  0  0  0  0
 15 14  1  0  0  0  0
 17  8  1  0  0  0  0
 18 21  1  6  0  0  0
 18 19  1  0  0  0  0
 20 17  1  1  0  0  0
 20 18  1  0  0  0  0
 20 19  1  0  0  0  0
 21 23  2  0  0  0  0
 22 21  1  0  0  0  0
 24 22  1  0  0  0  0
 25 24  1  0  0  0  0
 26 27  1  6  0  0  0
 26 33  1  0  0  0  0
 28 27  1  0  0  0  0
 28 29  1  0  0  0  0
 29 25  1  1  0  0  0
 29 30  1  0  0  0  0
 30 26  1  0  0  0  0
 31 35  1  0  0  0  0
 33 32  1  0  0  0  0
 34 31  1  0  0  0  0
 34 33  1  0  0  0  0
 35 32  1  0  0  0  0
 36 37  1  0  0  0  0
 37 38  1  0  0  0  0
 38 39  1  0  0  0  0
 39 41  1  0  0  0  0
 39 40  2  0  0  0  0
 42 44  1  0  0  0  0
 42 41  1  0  0  0  0
 43 42  2  0  0  0  0
 44 45  1  1  0  0  0
 46 47  1  6  0  0  0
 46 44  1  0  0  0  0
 48 49  2  0  0  0  0
 49 46  1  0  0  0  0
 50 49  1  0  0  0  0
 51 50  1  0  0  0  0
M  END
>  <MODEL>
9

>  <REMARK>
 VINA RESULT:      -6.6      3.428      8.107
  Name = 
  20 active torsions:
  status: ('A' for Active; 'I' for Inactive)
    1  A    between atoms: C_1  and  N_30
    2  A    between atoms: C_1  and  C_40
    3  A    between atoms: C_4  and  N_8
    4  A    between atoms: C_4  and  N_30
    5  A    between atoms: C_5  and  C_23
    6  A    between atoms: C_5  and  C_44
    7  A    between atoms: C_6  and  C_9
    8  A    between atoms: N_12  and  C_38
    9  A    between atoms: C_13  and  N_18
   10  A    between atoms: C_14  and  C_15
   11  A    between atoms: C_14  and  C_24
   12  A    between atoms: C_15  and  C_17
   13  A    between atoms: C_17  and  C_25
   14  A    between atoms: C_19  and  C_46
   15  A    between atoms: C_19  and  C_49
   16  A    between atoms: C_23  and  O_35
   17  A    between atoms: C_32  and  C_36
   18  A    between atoms: C_32  and  C_38
   19  A    between atoms: C_33  and  O_35
   20  A    between atoms: C_39  and  C_40
                            x       y       z     vdW  Elec       q    Type
                         _______ _______ _______ _____ _____    ______ ____

>  <TORSDO>
F 20

$$$$
