=
 OpenBabel11032420283D

 33 36  0  0  1  0  0  0  0  0999 V2000
  186.7250  176.9610  137.1760 C   0  0  0  0  0  2  0  0  0  0  0  0
  185.3350  177.5790  134.5950 O   0  0  0  0  0  0  0  0  0  0  0  0
  180.7330  179.0060  137.2440 C   0  0  0  0  0  0  0  0  0  0  0  0
  182.6280  179.6740  138.6190 C   0  0  0  0  0  0  0  0  0  0  0  0
  186.2950  178.6180  139.0550 C   0  0  0  0  0  2  0  0  0  0  0  0
  185.3950  174.8460  135.3950 N   0  0  0  0  0  1  0  0  0  0  0  0
  184.3980  177.0600  135.1870 C   0  0  0  0  0  0  0  0  0  0  0  0
  184.4340  177.0310  138.3500 C   0  0  0  0  0  2  0  0  0  0  0  0
  184.6480  175.8820  136.0970 C   0  0  2  0  0  3  0  0  0  0  0  0
  187.2410  177.5470  138.4880 C   0  0  0  0  0  2  0  0  0  0  0  0
  180.8300  177.4470  135.2760 C   0  0  0  0  0  2  0  0  0  0  0  0
  184.8610  178.4970  138.5260 C   0  0  1  0  0  3  0  0  0  0  0  0
  180.2240  180.3130  137.3180 C   0  0  0  0  0  0  0  0  0  0  0  0
  185.3670  176.2640  137.4030 C   0  0  1  0  0  3  0  0  0  0  0  0
  182.1020  180.9710  138.7110 C   0  0  0  0  0  3  0  0  0  0  0  0
  179.6800  176.8720  137.3110 O   0  0  0  0  0  1  0  0  0  0  0  0
  182.0490  176.8830  135.6800 O   0  0  0  0  0  0  0  0  0  0  0  0
  179.0400  180.6490  136.6700 O   0  0  0  0  0  1  0  0  0  0  0  0
  183.8800  179.3270  139.3700 C   0  0  2  0  0  3  0  0  0  0  0  0
  183.0210  177.6210  134.9850 C   0  0  0  0  0  2  0  0  0  0  0  0
  180.0150  177.9380  136.4740 C   0  0  1  0  0  3  0  0  0  0  0  0
  181.9240  178.6980  137.9080 C   0  0  0  0  0  3  0  0  0  0  0  0
  180.9060  181.2880  138.0560 C   0  0  0  0  0  3  0  0  0  0  0  0
  183.5810  177.1410  140.9800 O   0  0  0  0  0  0  0  0  0  0  0  0
  183.5140  178.6410  140.9960 S   0  0  0  0  0  0  0  0  0  0  0  0
  182.1370  179.0540  141.4390 O   0  0  0  0  0  0  0  0  0  0  0  0
  184.6960  179.2590  142.1810 C   0  0  0  0  0  2  0  0  0  0  0  0
  186.8050  177.1310  144.5790 C   0  0  0  0  0  2  0  0  0  0  0  0
  184.9730  178.2500  143.2900 C   0  0  2  0  0  3  0  0  0  0  0  0
  184.4810  178.7750  144.6210 C   0  0  0  0  0  3  0  0  0  0  0  0
  185.1680  178.6270  145.7680 C   0  0  0  0  0  3  0  0  0  0  0  0
  186.5380  177.9970  145.8100 C   0  0  0  0  0  2  0  0  0  0  0  0
  186.4700  177.9230  143.3200 C   0  0  0  0  0  2  0  0  0  0  0  0
  1 10  1  0  0  0  0
  2  7  2  0  0  0  0
  3 13  2  0  0  0  0
  3 22  1  0  0  0  0
  4 15  1  0  0  0  0
  4 19  1  0  0  0  0
  7  9  1  0  0  0  0
  9  6  1  6  0  0  0
  9 14  1  0  0  0  0
 10  5  1  0  0  0  0
 11 17  1  0  0  0  0
 11 21  1  0  0  0  0
 12  8  1  1  0  0  0
 12  5  1  0  0  0  0
 12 19  1  0  0  0  0
 13 23  1  0  0  0  0
 14  1  1  6  0  0  0
 14  8  1  0  0  0  0
 18 13  1  0  0  0  0
 19 25  1  1  0  0  0
 20  7  1  0  0  0  0
 20 17  1  0  0  0  0
 21  3  1  0  0  0  0
 21 16  1  1  0  0  0
 22  4  2  0  0  0  0
 23 15  2  0  0  0  0
 24 25  2  0  0  0  0
 25 26  2  0  0  0  0
 25 27  1  0  0  0  0
 28 32  1  0  0  0  0
 29 27  1  6  0  0  0
 29 33  1  0  0  0  0
 29 30  1  0  0  0  0
 30 31  2  0  0  0  0
 31 32  1  0  0  0  0
 33 28  1  0  0  0  0
M  END
>  <MODEL>
1

>  <REMARK>
 VINA RESULT:      -6.7      0.000      0.000
  Name = 
  3 active torsions:
  status: ('A' for Active; 'I' for Inactive)
    1  A    between atoms: C_3  and  C_31
    2  A    between atoms: S_7  and  C_27
    3  A    between atoms: S_7  and  C_31
                            x       y       z     vdW  Elec       q    Type
                         _______ _______ _______ _____ _____    ______ ____

>  <TORSDO>
F 3

$$$$
=
 OpenBabel11032420283D

 33 36  0  0  1  0  0  0  0  0999 V2000
  184.4740  178.1360  142.1930 C   0  0  0  0  0  2  0  0  0  0  0  0
  183.9500  177.1290  139.4200 O   0  0  0  0  0  0  0  0  0  0  0  0
  189.2070  177.8750  137.9960 C   0  0  0  0  0  0  0  0  0  0  0  0
  189.1530  177.1960  140.3340 C   0  0  0  0  0  0  0  0  0  0  0  0
  186.6450  177.3290  143.2400 C   0  0  0  0  0  2  0  0  0  0  0  0
  183.3110  179.8570  139.9340 N   0  0  0  0  0  1  0  0  0  0  0  0
  184.7230  178.0360  139.1420 C   0  0  0  0  0  0  0  0  0  0  0  0
  186.7360  179.0460  141.3630 C   0  0  0  0  0  2  0  0  0  0  0  0
  184.6700  179.3300  139.9170 C   0  0  2  0  0  3  0  0  0  0  0  0
  185.2310  177.8780  143.4930 C   0  0  0  0  0  2  0  0  0  0  0  0
  187.2340  178.6520  136.6510 C   0  0  0  0  0  2  0  0  0  0  0  0
  187.1750  177.6520  141.8380 C   0  0  1  0  0  3  0  0  0  0  0  0
  190.1170  176.8400  137.7220 C   0  0  0  0  0  0  0  0  0  0  0  0
  185.2090  179.2020  141.3520 C   0  0  1  0  0  3  0  0  0  0  0  0
  190.0810  176.1810  140.0590 C   0  0  0  0  0  3  0  0  0  0  0  0
  189.0550  180.1200  137.2190 O   0  0  0  0  0  1  0  0  0  0  0  0
  186.4810  178.9720  137.7900 O   0  0  0  0  0  0  0  0  0  0  0  0
  190.5960  176.6420  136.4310 O   0  0  0  0  0  1  0  0  0  0  0  0
  188.6920  177.4180  141.7450 C   0  0  2  0  0  3  0  0  0  0  0  0
  185.7070  177.8240  138.0290 C   0  0  0  0  0  2  0  0  0  0  0  0
  188.7340  178.7950  136.9120 C   0  0  1  0  0  3  0  0  0  0  0  0
  188.7460  178.0490  139.3030 C   0  0  0  0  0  3  0  0  0  0  0  0
  190.5560  176.0030  138.7550 C   0  0  0  0  0  3  0  0  0  0  0  0
  189.4310  180.0300  142.0560 O   0  0  0  0  0  0  0  0  0  0  0  0
  189.7000  178.6510  142.5890 S   0  0  0  0  0  0  0  0  0  0  0  0
  191.1610  178.3440  142.4070 O   0  0  0  0  0  0  0  0  0  0  0  0
  189.3310  178.6250  144.3350 C   0  0  0  0  0  2  0  0  0  0  0  0
  191.7480  176.1870  146.0490 C   0  0  0  0  0  2  0  0  0  0  0  0
  189.7840  177.3290  144.9940 C   0  0  2  0  0  3  0  0  0  0  0  0
  189.0740  177.1280  146.3160 C   0  0  0  0  0  3  0  0  0  0  0  0
  189.6890  176.6620  147.4170 C   0  0  0  0  0  3  0  0  0  0  0  0
  191.1700  176.3780  147.4520 C   0  0  0  0  0  2  0  0  0  0  0  0
  191.3080  177.3450  145.1600 C   0  0  0  0  0  2  0  0  0  0  0  0
  1 10  1  0  0  0  0
  3 22  1  0  0  0  0
  4 19  1  0  0  0  0
  5 10  1  0  0  0  0
  7  2  2  0  0  0  0
  7  9  1  0  0  0  0
  9  6  1  1  0  0  0
  9 14  1  0  0  0  0
 11 21  1  0  0  0  0
 11 17  1  0  0  0  0
 12  8  1  1  0  0  0
 12  5  1  0  0  0  0
 13  3  2  0  0  0  0
 13 23  1  0  0  0  0
 14  8  1  6  0  0  0
 14  1  1  0  0  0  0
 15  4  1  0  0  0  0
 17 20  1  0  0  0  0
 18 13  1  0  0  0  0
 19 12  1  0  0  0  0
 19 25  1  6  0  0  0
 20  7  1  0  0  0  0
 21 16  1  1  0  0  0
 21  3  1  0  0  0  0
 22  4  2  0  0  0  0
 23 15  2  0  0  0  0
 24 25  2  0  0  0  0
 25 27  1  0  0  0  0
 26 25  2  0  0  0  0
 28 32  1  0  0  0  0
 29 27  1  1  0  0  0
 29 33  1  0  0  0  0
 29 30  1  0  0  0  0
 30 31  2  0  0  0  0
 31 32  1  0  0  0  0
 33 28  1  0  0  0  0
M  END
>  <MODEL>
2

>  <REMARK>
 VINA RESULT:      -6.5      3.757      6.866
  Name = 
  3 active torsions:
  status: ('A' for Active; 'I' for Inactive)
    1  A    between atoms: C_3  and  C_31
    2  A    between atoms: S_7  and  C_27
    3  A    between atoms: S_7  and  C_31
                            x       y       z     vdW  Elec       q    Type
                         _______ _______ _______ _____ _____    ______ ____

>  <TORSDO>
F 3

$$$$
=
 OpenBabel11032420283D

 33 36  0  0  1  0  0  0  0  0999 V2000
  193.6980  175.0810  137.2610 C   0  0  0  0  0  2  0  0  0  0  0  0
  192.3410  174.9210  134.5940 O   0  0  0  0  0  0  0  0  0  0  0  0
  187.5610  176.5550  136.7630 C   0  0  0  0  0  0  0  0  0  0  0  0
  189.3520  177.7030  137.9470 C   0  0  0  0  0  0  0  0  0  0  0  0
  193.0780  177.1060  138.6650 C   0  0  0  0  0  2  0  0  0  0  0  0
  192.5980  172.4850  136.0480 N   0  0  0  0  0  1  0  0  0  0  0  0
  191.4320  174.4850  135.2870 C   0  0  0  0  0  0  0  0  0  0  0  0
  191.3740  175.2400  138.3590 C   0  0  0  0  0  2  0  0  0  0  0  0
  191.7490  173.5940  136.4640 C   0  0  2  0  0  3  0  0  0  0  0  0
  194.1240  176.0140  138.3910 C   0  0  0  0  0  2  0  0  0  0  0  0
  187.8430  174.5740  135.2450 C   0  0  0  0  0  2  0  0  0  0  0  0
  191.6750  176.7350  138.1700 C   0  0  1  0  0  3  0  0  0  0  0  0
  186.9450  177.7910  136.5050 C   0  0  0  0  0  0  0  0  0  0  0  0
  192.3950  174.3460  137.6410 C   0  0  1  0  0  3  0  0  0  0  0  0
  188.7200  178.9320  137.7090 C   0  0  0  0  0  3  0  0  0  0  0  0
  186.6820  174.4210  137.3480 O   0  0  0  0  0  1  0  0  0  0  0  0
  189.0910  174.2330  135.7880 O   0  0  0  0  0  0  0  0  0  0  0  0
  185.7580  177.8540  135.7830 O   0  0  0  0  0  1  0  0  0  0  0  0
  190.6050  177.6600  138.7720 C   0  0  2  0  0  3  0  0  0  0  0  0
  190.0210  174.8590  134.9400 C   0  0  0  0  0  2  0  0  0  0  0  0
  186.9550  175.2730  136.2760 C   0  0  1  0  0  3  0  0  0  0  0  0
  188.7520  176.5240  137.4940 C   0  0  0  0  0  3  0  0  0  0  0  0
  187.5230  178.9730  136.9850 C   0  0  0  0  0  3  0  0  0  0  0  0
  191.4280  177.7090  141.3760 O   0  0  0  0  0  0  0  0  0  0  0  0
  190.2470  177.3670  140.5140 S   0  0  0  0  0  0  0  0  0  0  0  0
  189.8930  175.9220  140.7380 O   0  0  0  0  0  0  0  0  0  0  0  0
  188.8590  178.3710  141.0120 C   0  0  0  0  0  2  0  0  0  0  0  0
  187.4440  177.0320  144.3180 C   0  0  0  0  0  2  0  0  0  0  0  0
  187.9040  177.6130  141.9250 C   0  0  2  0  0  3  0  0  0  0  0  0
  186.5340  178.2550  141.9140 C   0  0  0  0  0  3  0  0  0  0  0  0
  185.7850  178.4080  143.0200 C   0  0  0  0  0  3  0  0  0  0  0  0
  186.2860  178.0280  144.3900 C   0  0  0  0  0  2  0  0  0  0  0  0
  188.4930  177.5460  143.3390 C   0  0  0  0  0  2  0  0  0  0  0  0
  1 10  1  0  0  0  0
  2  7  2  0  0  0  0
  3 22  1  0  0  0  0
  4 19  1  0  0  0  0
  7  9  1  0  0  0  0
  9  6  1  6  0  0  0
  9 14  1  0  0  0  0
 10  5  1  0  0  0  0
 11 17  1  0  0  0  0
 11 21  1  0  0  0  0
 12  8  1  1  0  0  0
 12  5  1  0  0  0  0
 12 19  1  0  0  0  0
 13  3  2  0  0  0  0
 13 23  1  0  0  0  0
 14  1  1  6  0  0  0
 14  8  1  0  0  0  0
 15  4  1  0  0  0  0
 18 13  1  0  0  0  0
 19 25  1  1  0  0  0
 20  7  1  0  0  0  0
 20 17  1  0  0  0  0
 21  3  1  0  0  0  0
 21 16  1  1  0  0  0
 22  4  2  0  0  0  0
 23 15  2  0  0  0  0
 25 26  2  0  0  0  0
 25 27  1  0  0  0  0
 25 24  2  0  0  0  0
 28 32  1  0  0  0  0
 29 27  1  6  0  0  0
 29 33  1  0  0  0  0
 30 29  1  0  0  0  0
 30 31  2  0  0  0  0
 31 32  1  0  0  0  0
 33 28  1  0  0  0  0
M  END
>  <MODEL>
3

>  <REMARK>
 VINA RESULT:      -6.5      4.636      6.641
  Name = 
  3 active torsions:
  status: ('A' for Active; 'I' for Inactive)
    1  A    between atoms: C_3  and  C_31
    2  A    between atoms: S_7  and  C_27
    3  A    between atoms: S_7  and  C_31
                            x       y       z     vdW  Elec       q    Type
                         _______ _______ _______ _____ _____    ______ ____

>  <TORSDO>
F 3

$$$$
=
 OpenBabel11032420283D

 33 36  0  0  1  0  0  0  0  0999 V2000
  181.4090  178.9390  143.5870 C   0  0  0  0  0  2  0  0  0  0  0  0
  178.9970  177.6920  142.3190 O   0  0  0  0  0  0  0  0  0  0  0  0
  181.4170  177.6770  137.3820 C   0  0  0  0  0  0  0  0  0  0  0  0
  183.1350  177.2760  139.0600 C   0  0  0  0  0  0  0  0  0  0  0  0
  183.6400  178.0150  142.7950 C   0  0  0  0  0  2  0  0  0  0  0  0
  178.9310  180.5150  142.6950 N   0  0  0  0  0  1  0  0  0  0  0  0
  179.2930  178.4690  141.4210 C   0  0  0  0  0  0  0  0  0  0  0  0
  182.2820  179.4890  141.2270 C   0  0  0  0  0  2  0  0  0  0  0  0
  179.8260  179.8390  141.7620 C   0  0  2  0  0  3  0  0  0  0  0  0
  182.8860  178.7440  143.9190 C   0  0  0  0  0  2  0  0  0  0  0  0
  179.0930  178.5150  137.8370 C   0  0  0  0  0  2  0  0  0  0  0  0
  182.9410  178.1170  141.4340 C   0  0  1  0  0  3  0  0  0  0  0  0
  181.8250  176.5220  136.6940 C   0  0  0  0  0  0  0  0  0  0  0  0
  181.2580  179.8140  142.3240 C   0  0  1  0  0  3  0  0  0  0  0  0
  183.5550  176.1380  138.3550 C   0  0  0  0  0  3  0  0  0  0  0  0
  180.7130  179.8230  136.6290 O   0  0  0  0  0  1  0  0  0  0  0  0
  179.4410  179.0440  139.0890 O   0  0  0  0  0  0  0  0  0  0  0  0
  181.1800  176.1280  135.5270 O   0  0  0  0  0  1  0  0  0  0  0  0
  183.8810  177.7050  140.2900 C   0  0  2  0  0  3  0  0  0  0  0  0
  179.1180  178.0240  139.9990 C   0  0  0  0  0  2  0  0  0  0  0  0
  180.2830  178.5170  136.8760 C   0  0  1  0  0  3  0  0  0  0  0  0
  182.0850  178.0480  138.5520 C   0  0  0  0  0  3  0  0  0  0  0  0
  182.8970  175.7620  137.1790 C   0  0  0  0  0  3  0  0  0  0  0  0
  184.5830  180.1720  139.3490 O   0  0  0  0  0  0  0  0  0  0  0  0
  185.1700  178.9040  139.9020 S   0  0  0  0  0  0  0  0  0  0  0  0
  186.1230  178.3350  138.8860 O   0  0  0  0  0  0  0  0  0  0  0  0
  186.0870  179.2900  141.3820 C   0  0  0  0  0  2  0  0  0  0  0  0
  189.5250  177.7070  142.0160 C   0  0  0  0  0  2  0  0  0  0  0  0
  187.0840  178.1940  141.7380 C   0  0  2  0  0  3  0  0  0  0  0  0
  186.9320  177.7870  143.1880 C   0  0  0  0  0  3  0  0  0  0  0  0
  187.9780  177.5310  143.9930 C   0  0  0  0  0  3  0  0  0  0  0  0
  189.4050  177.7130  143.5400 C   0  0  0  0  0  2  0  0  0  0  0  0
  188.5050  178.6740  141.4240 C   0  0  0  0  0  2  0  0  0  0  0  0
  1 10  1  0  0  0  0
  3 22  1  0  0  0  0
  4 19  1  0  0  0  0
  5 10  1  0  0  0  0
  7  9  1  0  0  0  0
  7  2  2  0  0  0  0
  9 14  1  0  0  0  0
  9  6  1  1  0  0  0
 11 17  1  0  0  0  0
 12  8  1  6  0  0  0
 12  5  1  0  0  0  0
 13 23  1  0  0  0  0
 13  3  2  0  0  0  0
 14  8  1  6  0  0  0
 14  1  1  0  0  0  0
 15  4  1  0  0  0  0
 17 20  1  0  0  0  0
 18 13  1  0  0  0  0
 19 25  1  6  0  0  0
 19 12  1  0  0  0  0
 20  7  1  0  0  0  0
 21 16  1  1  0  0  0
 21  3  1  0  0  0  0
 21 11  1  0  0  0  0
 22  4  2  0  0  0  0
 23 15  2  0  0  0  0
 24 25  2  0  0  0  0
 25 27  1  0  0  0  0
 26 25  2  0  0  0  0
 28 32  1  0  0  0  0
 29 27  1  1  0  0  0
 29 30  1  0  0  0  0
 30 31  2  0  0  0  0
 32 31  1  0  0  0  0
 33 29  1  0  0  0  0
 33 28  1  0  0  0  0
M  END
>  <MODEL>
4

>  <REMARK>
 VINA RESULT:      -6.5      3.124      5.232
  Name = 
  3 active torsions:
  status: ('A' for Active; 'I' for Inactive)
    1  A    between atoms: C_3  and  C_31
    2  A    between atoms: S_7  and  C_27
    3  A    between atoms: S_7  and  C_31
                            x       y       z     vdW  Elec       q    Type
                         _______ _______ _______ _____ _____    ______ ____

>  <TORSDO>
F 3

$$$$
=
 OpenBabel11032420283D

 33 36  0  0  1  0  0  0  0  0999 V2000
  181.6990  179.0150  143.3200 C   0  0  0  0  0  2  0  0  0  0  0  0
  179.3100  177.4240  142.4600 O   0  0  0  0  0  0  0  0  0  0  0  0
  181.2800  176.9540  137.3480 C   0  0  0  0  0  0  0  0  0  0  0  0
  183.1680  176.9150  138.8850 C   0  0  0  0  0  0  0  0  0  0  0  0
  183.9280  178.1760  142.4320 C   0  0  0  0  0  2  0  0  0  0  0  0
  179.0190  180.2580  142.4890 N   0  0  0  0  0  1  0  0  0  0  0  0
  179.4550  178.0980  141.4480 C   0  0  0  0  0  0  0  0  0  0  0  0
  182.3090  179.3190  140.8360 C   0  0  0  0  0  2  0  0  0  0  0  0
  179.8870  179.5390  141.5640 C   0  0  2  0  0  3  0  0  0  0  0  0
  183.2110  178.9840  143.5260 C   0  0  0  0  0  2  0  0  0  0  0  0
  178.9370  177.6570  137.9230 C   0  0  0  0  0  2  0  0  0  0  0  0
  183.1070  178.0420  141.1450 C   0  0  1  0  0  3  0  0  0  0  0  0
  181.7310  175.7550  136.7700 C   0  0  0  0  0  0  0  0  0  0  0  0
  181.3590  179.7020  141.9800 C   0  0  1  0  0  3  0  0  0  0  0  0
  183.6270  175.7320  138.2880 C   0  0  0  0  0  3  0  0  0  0  0  0
  180.3190  178.9200  136.4090 O   0  0  0  0  0  1  0  0  0  0  0  0
  179.3450  178.3710  139.0590 O   0  0  0  0  0  0  0  0  0  0  0  0
  181.0250  175.1610  135.7300 O   0  0  0  0  0  1  0  0  0  0  0  0
  183.9760  177.5600  139.9720 C   0  0  2  0  0  3  0  0  0  0  0  0
  179.1970  177.4570  140.1160 C   0  0  0  0  0  2  0  0  0  0  0  0
  180.0340  177.6280  136.8560 C   0  0  1  0  0  3  0  0  0  0  0  0
  182.0120  177.5280  138.3910 C   0  0  0  0  0  3  0  0  0  0  0  0
  182.9060  175.1540  137.2370 C   0  0  0  0  0  3  0  0  0  0  0  0
  186.2660  179.0240  140.2480 O   0  0  0  0  0  0  0  0  0  0  0  0
  185.1110  178.7970  139.3150 S   0  0  0  0  0  0  0  0  0  0  0  0
  184.3960  180.1050  139.1100 O   0  0  0  0  0  0  0  0  0  0  0  0
  185.7410  178.2470  137.7390 C   0  0  0  0  0  2  0  0  0  0  0  0
  188.6530  175.8270  137.1110 C   0  0  0  0  0  2  0  0  0  0  0  0
  187.1570  177.6940  137.8520 C   0  0  2  0  0  3  0  0  0  0  0  0
  188.1470  178.6280  137.1900 C   0  0  0  0  0  3  0  0  0  0  0  0
  189.1750  178.1960  136.4400 C   0  0  0  0  0  3  0  0  0  0  0  0
  189.3810  176.7360  136.1200 C   0  0  0  0  0  2  0  0  0  0  0  0
  187.2060  176.2860  137.2490 C   0  0  0  0  0  2  0  0  0  0  0  0
  1 10  1  0  0  0  0
  3 22  1  0  0  0  0
  4 19  1  0  0  0  0
  5 10  1  0  0  0  0
  7  9  1  0  0  0  0
  7  2  2  0  0  0  0
  9 14  1  0  0  0  0
  9  6  1  1  0  0  0
 11 17  1  0  0  0  0
 12  8  1  6  0  0  0
 12  5  1  0  0  0  0
 13 23  1  0  0  0  0
 13  3  2  0  0  0  0
 14  8  1  6  0  0  0
 14  1  1  0  0  0  0
 15  4  1  0  0  0  0
 17 20  1  0  0  0  0
 18 13  1  0  0  0  0
 19 25  1  6  0  0  0
 19 12  1  0  0  0  0
 20  7  1  0  0  0  0
 21 16  1  1  0  0  0
 21  3  1  0  0  0  0
 21 11  1  0  0  0  0
 22  4  2  0  0  0  0
 23 15  2  0  0  0  0
 25 24  2  0  0  0  0
 26 25  2  0  0  0  0
 27 25  1  0  0  0  0
 28 33  1  0  0  0  0
 29 27  1  6  0  0  0
 30 29  1  0  0  0  0
 31 30  2  0  0  0  0
 32 31  1  0  0  0  0
 32 28  1  0  0  0  0
 33 29  1  0  0  0  0
M  END
>  <MODEL>
5

>  <REMARK>
 VINA RESULT:      -6.4      3.113      6.129
  Name = 
  3 active torsions:
  status: ('A' for Active; 'I' for Inactive)
    1  A    between atoms: C_3  and  C_31
    2  A    between atoms: S_7  and  C_27
    3  A    between atoms: S_7  and  C_31
                            x       y       z     vdW  Elec       q    Type
                         _______ _______ _______ _____ _____    ______ ____

>  <TORSDO>
F 3

$$$$
=
 OpenBabel11032420283D

 33 36  0  0  1  0  0  0  0  0999 V2000
  182.5430  179.0570  139.1050 C   0  0  0  0  0  2  0  0  0  0  0  0
  180.7600  176.9150  140.2060 O   0  0  0  0  0  0  0  0  0  0  0  0
  182.6780  173.2510  136.5830 C   0  0  0  0  0  0  0  0  0  0  0  0
  184.5110  174.7320  137.1930 C   0  0  0  0  0  0  0  0  0  0  0  0
  184.9050  178.3070  138.5400 C   0  0  0  0  0  2  0  0  0  0  0  0
  179.5920  178.7160  138.3320 N   0  0  0  0  0  1  0  0  0  0  0  0
  180.6650  176.6380  139.0170 C   0  0  0  0  0  0  0  0  0  0  0  0
  182.9770  177.5520  137.0600 C   0  0  0  0  0  2  0  0  0  0  0  0
  180.6240  177.7440  137.9910 C   0  0  2  0  0  3  0  0  0  0  0  0
  183.9910  179.4910  138.8970 C   0  0  0  0  0  2  0  0  0  0  0  0
  180.2450  173.6600  137.0570 C   0  0  0  0  0  2  0  0  0  0  0  0
  184.1420  177.1100  137.9600 C   0  0  1  0  0  3  0  0  0  0  0  0
  183.4720  172.1390  136.9120 C   0  0  0  0  0  0  0  0  0  0  0  0
  181.9780  178.4500  137.8020 C   0  0  1  0  0  3  0  0  0  0  0  0
  185.3080  173.6180  137.4960 C   0  0  0  0  0  3  0  0  0  0  0  0
  181.1300  173.6440  134.8180 O   0  0  0  0  0  1  0  0  0  0  0  0
  180.4290  175.0390  137.2340 O   0  0  0  0  0  0  0  0  0  0  0  0
  182.9690  170.8480  136.7900 O   0  0  0  0  0  1  0  0  0  0  0  0
  185.0970  176.1110  137.2870 C   0  0  2  0  0  3  0  0  0  0  0  0
  180.5960  175.1930  138.6200 C   0  0  0  0  0  2  0  0  0  0  0  0
  181.2740  173.0770  136.0860 C   0  0  1  0  0  3  0  0  0  0  0  0
  183.2120  174.5350  136.7150 C   0  0  0  0  0  3  0  0  0  0  0  0
  184.7860  172.3270  137.3600 C   0  0  0  0  0  3  0  0  0  0  0  0
  184.8660  177.6560  135.0460 O   0  0  0  0  0  0  0  0  0  0  0  0
  185.7720  176.6570  135.7070 S   0  0  0  0  0  0  0  0  0  0  0  0
  185.9470  175.4840  134.7810 O   0  0  0  0  0  0  0  0  0  0  0  0
  187.3670  177.4100  135.9710 C   0  0  0  0  0  2  0  0  0  0  0  0
  190.1820  175.5820  137.8310 C   0  0  0  0  0  2  0  0  0  0  0  0
  188.0980  176.7970  137.1590 C   0  0  2  0  0  3  0  0  0  0  0  0
  188.5200  177.8730  138.1360 C   0  0  0  0  0  3  0  0  0  0  0  0
  189.7120  177.8740  138.7580 C   0  0  0  0  0  3  0  0  0  0  0  0
  190.7720  176.8410  138.4680 C   0  0  0  0  0  2  0  0  0  0  0  0
  189.2920  175.9780  136.6580 C   0  0  0  0  0  2  0  0  0  0  0  0
  3 22  2  0  0  0  0
  3 13  1  0  0  0  0
  4 19  1  0  0  0  0
  4 15  2  0  0  0  0
  5 10  1  0  0  0  0
  7  2  2  0  0  0  0
  9  6  1  1  0  0  0
  9  7  1  0  0  0  0
 10  1  1  0  0  0  0
 11 17  1  0  0  0  0
 12  8  1  6  0  0  0
 12  5  1  0  0  0  0
 13 23  2  0  0  0  0
 14  8  1  1  0  0  0
 14  9  1  0  0  0  0
 14  1  1  0  0  0  0
 17 20  1  0  0  0  0
 18 13  1  0  0  0  0
 19 25  1  6  0  0  0
 19 12  1  0  0  0  0
 20  7  1  0  0  0  0
 21 16  1  6  0  0  0
 21  3  1  0  0  0  0
 21 11  1  0  0  0  0
 22  4  1  0  0  0  0
 23 15  1  0  0  0  0
 24 25  2  0  0  0  0
 25 27  1  0  0  0  0
 26 25  2  0  0  0  0
 28 32  1  0  0  0  0
 29 27  1  6  0  0  0
 29 30  1  0  0  0  0
 30 31  2  0  0  0  0
 32 31  1  0  0  0  0
 33 29  1  0  0  0  0
 33 28  1  0  0  0  0
M  END
>  <MODEL>
6

>  <REMARK>
 VINA RESULT:      -5.9      3.663      6.373
  Name = 
  3 active torsions:
  status: ('A' for Active; 'I' for Inactive)
    1  A    between atoms: C_3  and  C_31
    2  A    between atoms: S_7  and  C_27
    3  A    between atoms: S_7  and  C_31
                            x       y       z     vdW  Elec       q    Type
                         _______ _______ _______ _____ _____    ______ ____

>  <TORSDO>
F 3

$$$$
=
 OpenBabel11032420283D

 33 36  0  0  1  0  0  0  0  0999 V2000
  189.8050  177.5350  136.8750 C   0  0  0  0  0  2  0  0  0  0  0  0
  189.4690  175.2380  134.9810 O   0  0  0  0  0  0  0  0  0  0  0  0
  184.2490  174.5160  136.5500 C   0  0  0  0  0  0  0  0  0  0  0  0
  184.7290  176.9020  136.6180 C   0  0  0  0  0  0  0  0  0  0  0  0
  187.8320  179.1330  136.9910 C   0  0  0  0  0  2  0  0  0  0  0  0
  190.6960  174.6620  137.4870 N   0  0  0  0  0  1  0  0  0  0  0  0
  188.8300  174.7910  135.9240 C   0  0  0  0  0  0  0  0  0  0  0  0
  187.6150  176.8190  138.0270 C   0  0  0  0  0  2  0  0  0  0  0  0
  189.2980  175.0500  137.3360 C   0  0  2  0  0  3  0  0  0  0  0  0
  189.3410  178.9480  137.2190 C   0  0  0  0  0  2  0  0  0  0  0  0
  185.9580  172.6830  136.3670 C   0  0  0  0  0  2  0  0  0  0  0  0
  187.0540  177.8130  136.9970 C   0  0  1  0  0  3  0  0  0  0  0  0
  183.1280  174.7680  135.7430 C   0  0  0  0  0  0  0  0  0  0  0  0
  189.0990  176.5080  137.7860 C   0  0  1  0  0  3  0  0  0  0  0  0
  183.5940  177.1500  135.8330 C   0  0  0  0  0  3  0  0  0  0  0  0
  184.6190  172.9940  138.3440 O   0  0  0  0  0  1  0  0  0  0  0  0
  187.0030  173.5030  136.8170 O   0  0  0  0  0  0  0  0  0  0  0  0
  182.3300  173.7230  135.2910 O   0  0  0  0  0  1  0  0  0  0  0  0
  185.5420  178.0530  137.1330 C   0  0  2  0  0  3  0  0  0  0  0  0
  187.5890  173.9970  135.6390 C   0  0  0  0  0  2  0  0  0  0  0  0
  184.6130  173.1180  136.9520 C   0  0  1  0  0  3  0  0  0  0  0  0
  185.0300  175.5880  136.9900 C   0  0  0  0  0  3  0  0  0  0  0  0
  182.8000  176.0840  135.3940 C   0  0  0  0  0  3  0  0  0  0  0  0
  184.3570  179.9240  138.7320 O   0  0  0  0  0  0  0  0  0  0  0  0
  185.0030  178.5690  138.7740 S   0  0  0  0  0  0  0  0  0  0  0  0
  186.1770  178.6280  139.7140 O   0  0  0  0  0  0  0  0  0  0  0  0
  183.8280  177.3880  139.4120 C   0  0  0  0  0  2  0  0  0  0  0  0
  180.0000  177.2980  139.1690 C   0  0  0  0  0  2  0  0  0  0  0  0
  182.4080  177.9400  139.4140 C   0  0  2  0  0  3  0  0  0  0  0  0
  182.0370  178.4490  140.7900 C   0  0  0  0  0  3  0  0  0  0  0  0
  180.8290  178.2530  141.3450 C   0  0  0  0  0  3  0  0  0  0  0  0
  179.7590  177.4280  140.6730 C   0  0  0  0  0  2  0  0  0  0  0  0
  181.4390  176.8590  138.9230 C   0  0  0  0  0  2  0  0  0  0  0  0
  1 10  1  0  0  0  0
  2  7  2  0  0  0  0
  3 21  1  0  0  0  0
  3 22  1  0  0  0  0
  4 22  2  0  0  0  0
  4 19  1  0  0  0  0
  5 10  1  0  0  0  0
  7  9  1  0  0  0  0
  9  6  1  6  0  0  0
  9 14  1  0  0  0  0
 11 17  1  0  0  0  0
 11 21  1  0  0  0  0
 12  5  1  1  0  0  0
 12 19  1  0  0  0  0
 12  8  1  0  0  0  0
 13  3  2  0  0  0  0
 14  1  1  6  0  0  0
 14  8  1  0  0  0  0
 15  4  1  0  0  0  0
 18 13  1  0  0  0  0
 19 25  1  1  0  0  0
 20  7  1  0  0  0  0
 20 17  1  0  0  0  0
 21 16  1  1  0  0  0
 23 13  1  0  0  0  0
 23 15  2  0  0  0  0
 24 25  2  0  0  0  0
 25 27  1  0  0  0  0
 25 26  2  0  0  0  0
 28 32  1  0  0  0  0
 29 27  1  1  0  0  0
 29 30  1  0  0  0  0
 30 31  2  0  0  0  0
 32 31  1  0  0  0  0
 33 28  1  0  0  0  0
 33 29  1  0  0  0  0
M  END
>  <MODEL>
7

>  <REMARK>
 VINA RESULT:      -5.8      3.556      5.334
  Name = 
  3 active torsions:
  status: ('A' for Active; 'I' for Inactive)
    1  A    between atoms: C_3  and  C_31
    2  A    between atoms: S_7  and  C_27
    3  A    between atoms: S_7  and  C_31
                            x       y       z     vdW  Elec       q    Type
                         _______ _______ _______ _____ _____    ______ ____

>  <TORSDO>
F 3

$$$$
=
 OpenBabel11032420283D

 33 36  0  0  1  0  0  0  0  0999 V2000
  189.6190  177.6730  136.9280 C   0  0  0  0  0  2  0  0  0  0  0  0
  189.4340  175.4700  134.9060 O   0  0  0  0  0  0  0  0  0  0  0  0
  184.1930  174.4830  136.2440 C   0  0  0  0  0  0  0  0  0  0  0  0
  184.5820  176.8780  136.4530 C   0  0  0  0  0  0  0  0  0  0  0  0
  187.5860  179.1930  137.0540 C   0  0  0  0  0  2  0  0  0  0  0  0
  190.5930  174.8050  137.4220 N   0  0  0  0  0  1  0  0  0  0  0  0
  188.7790  174.9510  135.8010 C   0  0  0  0  0  0  0  0  0  0  0  0
  187.4180  176.8210  137.9600 C   0  0  0  0  0  2  0  0  0  0  0  0
  189.1890  175.1510  137.2400 C   0  0  2  0  0  3  0  0  0  0  0  0
  189.0920  179.0490  137.3270 C   0  0  0  0  0  2  0  0  0  0  0  0
  185.9730  172.7240  136.0290 C   0  0  0  0  0  2  0  0  0  0  0  0
  186.8580  177.8480  136.9630 C   0  0  1  0  0  3  0  0  0  0  0  0
  183.0920  174.7390  135.4110 C   0  0  0  0  0  0  0  0  0  0  0  0
  188.9210  176.5750  137.7580 C   0  0  1  0  0  3  0  0  0  0  0  0
  183.4660  177.1280  135.6410 C   0  0  0  0  0  3  0  0  0  0  0  0
  184.5560  172.8820  137.9690 O   0  0  0  0  0  1  0  0  0  0  0  0
  186.9710  173.5540  136.5590 O   0  0  0  0  0  0  0  0  0  0  0  0
  182.3490  173.6910  134.8760 O   0  0  0  0  0  1  0  0  0  0  0  0
  185.3340  178.0280  137.0560 C   0  0  2  0  0  3  0  0  0  0  0  0
  187.5790  174.1300  135.4300 C   0  0  0  0  0  2  0  0  0  0  0  0
  184.5930  173.0800  136.5860 C   0  0  1  0  0  3  0  0  0  0  0  0
  184.9180  175.5570  136.7670 C   0  0  0  0  0  3  0  0  0  0  0  0
  182.7280  176.0600  135.1190 C   0  0  0  0  0  3  0  0  0  0  0  0
  183.3930  177.7820  138.9630 O   0  0  0  0  0  0  0  0  0  0  0  0
  184.7200  178.4370  138.7010 S   0  0  0  0  0  0  0  0  0  0  0  0
  184.5550  179.9250  138.8410 O   0  0  0  0  0  0  0  0  0  0  0  0
  185.8900  177.8810  139.9270 C   0  0  0  0  0  2  0  0  0  0  0  0
  184.3780  179.0100  143.2690 C   0  0  0  0  0  2  0  0  0  0  0  0
  185.7830  178.6770  141.2220 C   0  0  2  0  0  3  0  0  0  0  0  0
  186.9090  178.3140  142.1650 C   0  0  0  0  0  3  0  0  0  0  0  0
  186.7370  178.1590  143.4890 C   0  0  0  0  0  3  0  0  0  0  0  0
  185.3790  178.2510  144.1410 C   0  0  0  0  0  2  0  0  0  0  0  0
  184.4070  178.4410  141.8540 C   0  0  0  0  0  2  0  0  0  0  0  0
  1 10  1  0  0  0  0
  2  7  2  0  0  0  0
  3 21  1  0  0  0  0
  3 22  1  0  0  0  0
  4 22  2  0  0  0  0
  4 19  1  0  0  0  0
  5 10  1  0  0  0  0
  7  9  1  0  0  0  0
  9  6  1  6  0  0  0
  9 14  1  0  0  0  0
 11 17  1  0  0  0  0
 11 21  1  0  0  0  0
 12  5  1  1  0  0  0
 12 19  1  0  0  0  0
 12  8  1  0  0  0  0
 13  3  2  0  0  0  0
 14  1  1  6  0  0  0
 14  8  1  0  0  0  0
 15  4  1  0  0  0  0
 18 13  1  0  0  0  0
 19 25  1  1  0  0  0
 20  7  1  0  0  0  0
 20 17  1  0  0  0  0
 21 16  1  1  0  0  0
 23 13  1  0  0  0  0
 23 15  2  0  0  0  0
 25 26  2  0  0  0  0
 25 24  2  0  0  0  0
 25 27  1  0  0  0  0
 28 32  1  0  0  0  0
 29 27  1  6  0  0  0
 29 33  1  0  0  0  0
 29 30  1  0  0  0  0
 30 31  2  0  0  0  0
 31 32  1  0  0  0  0
 33 28  1  0  0  0  0
M  END
>  <MODEL>
8

>  <REMARK>
 VINA RESULT:      -5.8      2.988      4.550
  Name = 
  3 active torsions:
  status: ('A' for Active; 'I' for Inactive)
    1  A    between atoms: C_3  and  C_31
    2  A    between atoms: S_7  and  C_27
    3  A    between atoms: S_7  and  C_31
                            x       y       z     vdW  Elec       q    Type
                         _______ _______ _______ _____ _____    ______ ____

>  <TORSDO>
F 3

$$$$
=
 OpenBabel11032420283D

 33 36  0  0  1  0  0  0  0  0999 V2000
  190.3530  176.9110  140.7890 C   0  0  0  0  0  2  0  0  0  0  0  0
  187.9980  176.5930  142.6150 O   0  0  0  0  0  0  0  0  0  0  0  0
  184.5260  178.1580  138.6490 C   0  0  0  0  0  0  0  0  0  0  0  0
  186.3380  176.9090  137.6090 C   0  0  0  0  0  0  0  0  0  0  0  0
  189.9980  176.0700  138.4170 C   0  0  0  0  0  2  0  0  0  0  0  0
  189.4560  179.0320  142.8180 N   0  0  0  0  0  1  0  0  0  0  0  0
  187.6410  177.6090  142.0320 C   0  0  0  0  0  0  0  0  0  0  0  0
  188.8330  178.2060  139.1630 C   0  0  0  0  0  2  0  0  0  0  0  0
  188.6630  178.6540  141.6550 C   0  0  2  0  0  3  0  0  0  0  0  0
  191.0220  176.4040  139.5150 C   0  0  0  0  0  2  0  0  0  0  0  0
  184.5280  179.0640  140.9920 C   0  0  0  0  0  2  0  0  0  0  0  0
  188.6550  176.7840  138.6080 C   0  0  1  0  0  3  0  0  0  0  0  0
  183.5920  177.3150  138.0240 C   0  0  0  0  0  0  0  0  0  0  0  0
  189.5830  178.2180  140.5020 C   0  0  1  0  0  3  0  0  0  0  0  0
  185.4010  176.0860  136.9670 C   0  0  0  0  0  3  0  0  0  0  0  0
  184.5400  180.5030  139.0620 O   0  0  0  0  0  1  0  0  0  0  0  0
  185.9260  179.0150  141.0960 O   0  0  0  0  0  0  0  0  0  0  0  0
  182.2280  177.4950  138.2280 O   0  0  0  0  0  1  0  0  0  0  0  0
  187.8010  176.7230  137.3310 C   0  0  2  0  0  3  0  0  0  0  0  0
  186.1860  177.7770  141.7080 C   0  0  0  0  0  2  0  0  0  0  0  0
  184.0810  179.2750  139.5440 C   0  0  1  0  0  3  0  0  0  0  0  0
  185.8890  177.9530  138.4240 C   0  0  0  0  0  3  0  0  0  0  0  0
  184.0320  176.2880  137.1800 C   0  0  0  0  0  3  0  0  0  0  0  0
  189.3050  178.8470  136.5010 O   0  0  0  0  0  0  0  0  0  0  0  0
  188.3660  177.7910  135.9930 S   0  0  0  0  0  0  0  0  0  0  0  0
  187.1940  178.4670  135.3350 O   0  0  0  0  0  0  0  0  0  0  0  0
  189.2120  176.8090  134.7660 C   0  0  0  0  0  2  0  0  0  0  0  0
  190.5200  173.2540  135.3830 C   0  0  0  0  0  2  0  0  0  0  0  0
  190.0660  175.7170  135.3990 C   0  0  2  0  0  3  0  0  0  0  0  0
  191.5210  175.8950  135.0220 C   0  0  0  0  0  3  0  0  0  0  0  0
  192.3280  174.8680  134.7040 C   0  0  0  0  0  3  0  0  0  0  0  0
  191.8260  173.4480  134.6110 C   0  0  0  0  0  2  0  0  0  0  0  0
  189.5300  174.3430  134.9830 C   0  0  0  0  0  2  0  0  0  0  0  0
  3 21  1  0  0  0  0
  4 22  2  0  0  0  0
  5 10  1  0  0  0  0
  7  2  2  0  0  0  0
  9  7  1  0  0  0  0
  9  6  1  1  0  0  0
 10  1  1  0  0  0  0
 11 17  1  0  0  0  0
 12  5  1  6  0  0  0
 12  8  1  0  0  0  0
 13 18  1  0  0  0  0
 13  3  2  0  0  0  0
 14  8  1  6  0  0  0
 14  1  1  0  0  0  0
 14  9  1  0  0  0  0
 15 23  2  0  0  0  0
 15  4  1  0  0  0  0
 17 20  1  0  0  0  0
 19 25  1  6  0  0  0
 19  4  1  0  0  0  0
 19 12  1  0  0  0  0
 20  7  1  0  0  0  0
 21 16  1  6  0  0  0
 21 11  1  0  0  0  0
 22  3  1  0  0  0  0
 23 13  1  0  0  0  0
 25 24  2  0  0  0  0
 26 25  2  0  0  0  0
 27 25  1  0  0  0  0
 29 27  1  6  0  0  0
 30 29  1  0  0  0  0
 31 30  2  0  0  0  0
 32 31  1  0  0  0  0
 32 28  1  0  0  0  0
 33 28  1  0  0  0  0
 33 29  1  0  0  0  0
M  END
>  <MODEL>
9

>  <REMARK>
 VINA RESULT:      -5.7      3.852      7.564
  Name = 
  3 active torsions:
  status: ('A' for Active; 'I' for Inactive)
    1  A    between atoms: C_3  and  C_31
    2  A    between atoms: S_7  and  C_27
    3  A    between atoms: S_7  and  C_31
                            x       y       z     vdW  Elec       q    Type
                         _______ _______ _______ _____ _____    ______ ____

>  <TORSDO>
F 3

$$$$
