=
 OpenBabel11042410063D

 29 31  0  0  1  0  0  0  0  0999 V2000
  189.9590  176.9540  144.8220 C   0  0  0  0  0  0  0  0  0  0  0  0
  192.0750  176.8770  147.8340 N   0  0  0  0  0  1  0  0  0  0  0  0
  189.6610  177.1240  147.5950 C   0  0  0  0  0  3  0  0  0  0  0  0
  191.0350  176.8740  145.6630 N   0  0  0  0  0  0  0  0  0  0  0  0
  188.6680  177.1110  145.3860 C   0  0  0  0  0  0  0  0  0  0  0  0
  190.9170  176.9630  147.0120 C   0  0  0  0  0  0  0  0  0  0  0  0
  188.5360  177.1930  146.7740 C   0  0  0  0  0  3  0  0  0  0  0  0
  189.6540  175.5830  142.8950 O   0  0  0  0  0  1  0  0  0  0  0  0
  190.1730  176.8100  143.3230 C   0  0  2  0  0  0  0  0  0  0  0  0
  191.6520  176.8600  143.0520 C   0  0  0  0  0  3  0  0  0  0  0  0
  192.0910  177.3050  142.0020 O   0  0  0  0  0  0  0  0  0  0  0  0
  189.4600  177.9410  142.5630 C   0  0  0  0  0  2  0  0  0  0  0  0
  187.8390  178.4720  140.8900 C   0  0  0  0  0  2  0  0  0  0  0  0
  188.8650  177.6340  140.2080 N   0  0  0  0  0  0  0  0  0  0  0  0
  188.3890  177.4310  141.6080 C   0  0  1  0  0  3  0  0  0  0  0  0
  189.6890  177.3010  139.0970 C   0  0  0  0  0  0  0  0  0  0  0  0
  190.5210  176.3620  139.1910 O   0  0  0  0  0  0  0  0  0  0  0  0
  189.5540  178.0520  137.8200 C   0  0  0  0  0  2  0  0  0  0  0  0
  189.0830  179.3390  138.0820 O   0  0  0  0  0  1  0  0  0  0  0  0
  187.4260  177.1250  144.5540 C   0  0  0  0  0  2  0  0  0  0  0  0
  186.5780  178.2380  144.9550 N   0  0  0  0  0  2  0  0  0  0  0  0
  182.9320  178.9940  144.7110 C   0  0  0  0  0  3  0  0  0  0  0  0
  185.0700  178.3990  143.0110 C   0  0  0  0  0  3  0  0  0  0  0  0
  182.7270  178.9170  143.3300 C   0  0  0  0  0  3  0  0  0  0  0  0
  184.3910  178.8440  146.6210 O   0  0  0  0  0  1  0  0  0  0  0  0
  183.7960  178.6200  142.4810 C   0  0  0  0  0  0  0  0  0  0  0  0
  183.5760  178.5250  141.0140 C   0  0  0  0  0  1  0  0  0  0  0  0
  184.2050  178.7750  145.2460 C   0  0  0  0  0  0  0  0  0  0  0  0
  185.2820  178.4730  144.3970 C   0  0  0  0  0  0  0  0  0  0  0  0
  1  5  2  0  0  0  0
  1  4  1  0  0  0  0
  4  6  2  0  0  0  0
  5  7  1  0  0  0  0
  6  3  1  0  0  0  0
  6  2  1  0  0  0  0
  7  3  2  0  0  0  0
  9  8  1  6  0  0  0
  9  1  1  0  0  0  0
 10  9  1  0  0  0  0
 11 10  2  0  0  0  0
 12  9  1  0  0  0  0
 13 15  1  0  0  0  0
 14 13  1  0  0  0  0
 14 15  1  0  0  0  0
 15 12  1  1  0  0  0
 16 17  2  0  0  0  0
 16 14  1  0  0  0  0
 18 19  1  0  0  0  0
 18 16  1  0  0  0  0
 20 21  1  0  0  0  0
 20  5  1  0  0  0  0
 22 28  1  0  0  0  0
 23 29  1  0  0  0  0
 24 22  2  0  0  0  0
 26 23  2  0  0  0  0
 26 24  1  0  0  0  0
 27 26  1  0  0  0  0
 28 25  1  0  0  0  0
 29 21  1  0  0  0  0
 29 28  2  0  0  0  0
M  END
>  <MODEL>
1

>  <REMARK>
 VINA RESULT:      -9.3      0.000      0.000
  Name = 
  8 active torsions:
  status: ('A' for Active; 'I' for Inactive)
    1  A    between atoms: C_2  and  C_25
    2  A    between atoms: C_8  and  C_25
    3  A    between atoms: C_11  and  C_17
    4  A    between atoms: C_12  and  C_27
    5  A    between atoms: C_14  and  C_22
    6  A    between atoms: C_21  and  N_24
    7  A    between atoms: C_22  and  C_25
    8  A    between atoms: N_24  and  C_27
                            x       y       z     vdW  Elec       q    Type
                         _______ _______ _______ _____ _____    ______ ____

>  <TORSDO>
F 8

$$$$
=
 OpenBabel11042410063D

 29 31  0  0  1  0  0  0  0  0999 V2000
  187.0330  177.9530  143.2540 C   0  0  0  0  0  0  0  0  0  0  0  0
  183.5310  178.5830  144.2000 N   0  0  0  0  0  1  0  0  0  0  0  0
  184.7110  179.0020  142.1070 C   0  0  0  0  0  3  0  0  0  0  0  0
  185.8590  178.0220  143.9520 N   0  0  0  0  0  0  0  0  0  0  0  0
  187.0520  178.4150  141.9130 C   0  0  0  0  0  0  0  0  0  0  0  0
  184.7200  178.5350  143.4200 C   0  0  0  0  0  0  0  0  0  0  0  0
  185.8820  178.9360  141.3540 C   0  0  0  0  0  3  0  0  0  0  0  0
  189.3570  178.1790  143.7370 O   0  0  0  0  0  1  0  0  0  0  0  0
  188.2560  177.3320  143.9110 C   0  0  2  0  0  0  0  0  0  0  0  0
  188.5230  176.0080  143.2500 C   0  0  0  0  0  3  0  0  0  0  0  0
  189.6550  175.6730  142.9330 O   0  0  0  0  0  0  0  0  0  0  0  0
  188.0190  177.1320  145.4170 C   0  0  0  0  0  2  0  0  0  0  0  0
  189.0060  177.4600  147.5680 C   0  0  0  0  0  2  0  0  0  0  0  0
  190.1290  177.0970  146.6580 N   0  0  0  0  0  0  0  0  0  0  0  0
  188.9660  177.9550  146.2810 C   0  0  1  0  0  3  0  0  0  0  0  0
  191.3490  176.4270  146.3620 C   0  0  0  0  0  0  0  0  0  0  0  0
  191.8300  176.4820  145.2010 O   0  0  0  0  0  0  0  0  0  0  0  0
  192.0630  175.6760  147.4290 C   0  0  0  0  0  2  0  0  0  0  0  0
  192.6220  176.5740  148.3390 O   0  0  0  0  0  1  0  0  0  0  0  0
  188.2640  178.3050  141.0450 C   0  0  0  0  0  2  0  0  0  0  0  0
  187.8990  178.5460  139.6570 N   0  0  0  0  0  2  0  0  0  0  0  0
  188.9770  177.8350  136.1560 C   0  0  0  0  0  3  0  0  0  0  0  0
  189.6540  177.0670  138.7570 C   0  0  0  0  0  3  0  0  0  0  0  0
  190.0050  176.9110  136.3670 C   0  0  0  0  0  3  0  0  0  0  0  0
  187.2600  179.2880  137.0170 O   0  0  0  0  0  1  0  0  0  0  0  0
  190.3430  176.5280  137.6680 C   0  0  0  0  0  0  0  0  0  0  0  0
  191.4260  175.5350  137.8920 C   0  0  0  0  0  1  0  0  0  0  0  0
  188.2860  178.3780  137.2440 C   0  0  0  0  0  0  0  0  0  0  0  0
  188.6200  177.9950  138.5520 C   0  0  0  0  0  0  0  0  0  0  0  0
  1  9  1  0  0  0  0
  1  4  1  0  0  0  0
  3  6  1  0  0  0  0
  5  1  2  0  0  0  0
  6  4  2  0  0  0  0
  6  2  1  0  0  0  0
  7  5  1  0  0  0  0
  7  3  2  0  0  0  0
  9  8  1  6  0  0  0
  9 12  1  0  0  0  0
 10  9  1  0  0  0  0
 11 10  2  0  0  0  0
 14 13  1  0  0  0  0
 15 12  1  6  0  0  0
 15 14  1  0  0  0  0
 15 13  1  0  0  0  0
 16 14  1  0  0  0  0
 16 18  1  0  0  0  0
 17 16  2  0  0  0  0
 18 19  1  0  0  0  0
 20  5  1  0  0  0  0
 21 20  1  0  0  0  0
 22 24  2  0  0  0  0
 22 28  1  0  0  0  0
 24 26  1  0  0  0  0
 25 28  1  0  0  0  0
 26 27  1  0  0  0  0
 26 23  2  0  0  0  0
 28 29  2  0  0  0  0
 29 23  1  0  0  0  0
 29 21  1  0  0  0  0
M  END
>  <MODEL>
2

>  <REMARK>
 VINA RESULT:      -8.5      2.033      7.093
  Name = 
  8 active torsions:
  status: ('A' for Active; 'I' for Inactive)
    1  A    between atoms: C_2  and  C_25
    2  A    between atoms: C_8  and  C_25
    3  A    between atoms: C_11  and  C_17
    4  A    between atoms: C_12  and  C_27
    5  A    between atoms: C_14  and  C_22
    6  A    between atoms: C_21  and  N_24
    7  A    between atoms: C_22  and  C_25
    8  A    between atoms: N_24  and  C_27
                            x       y       z     vdW  Elec       q    Type
                         _______ _______ _______ _____ _____    ______ ____

>  <TORSDO>
F 8

$$$$
=
 OpenBabel11042410063D

 29 31  0  0  1  0  0  0  0  0999 V2000
  189.5110  177.2060  141.2200 C   0  0  0  0  0  0  0  0  0  0  0  0
  190.7190  175.5610  138.1560 N   0  0  0  0  0  1  0  0  0  0  0  0
  188.7980  177.0170  138.5260 C   0  0  0  0  0  3  0  0  0  0  0  0
  190.2470  176.4650  140.3370 N   0  0  0  0  0  0  0  0  0  0  0  0
  188.3730  177.9000  140.7390 C   0  0  0  0  0  0  0  0  0  0  0  0
  189.9160  176.3500  139.0250 C   0  0  0  0  0  0  0  0  0  0  0  0
  188.0300  177.7960  139.3890 C   0  0  0  0  0  3  0  0  0  0  0  0
  190.3050  178.6400  142.9530 O   0  0  0  0  0  1  0  0  0  0  0  0
  189.9700  177.3110  142.6670 C   0  0  2  0  0  0  0  0  0  0  0  0
  191.1780  176.4330  142.8420 C   0  0  0  0  0  3  0  0  0  0  0  0
  191.0920  175.3310  143.3620 O   0  0  0  0  0  0  0  0  0  0  0  0
  188.8510  176.8660  143.6240 C   0  0  0  0  0  2  0  0  0  0  0  0
  188.2560  177.0050  145.9340 C   0  0  0  0  0  2  0  0  0  0  0  0
  189.7310  177.2070  145.8830 N   0  0  0  0  0  0  0  0  0  0  0  0
  188.7620  177.7310  144.8750 C   0  0  1  0  0  3  0  0  0  0  0  0
  191.0500  177.0200  146.3840 C   0  0  0  0  0  0  0  0  0  0  0  0
  192.0350  177.4690  145.7420 O   0  0  0  0  0  0  0  0  0  0  0  0
  191.2610  176.3090  147.6730 C   0  0  0  0  0  2  0  0  0  0  0  0
  192.5030  175.6730  147.6580 O   0  0  0  0  0  1  0  0  0  0  0  0
  187.5550  178.8000  141.6100 C   0  0  0  0  0  2  0  0  0  0  0  0
  186.1390  178.5390  141.3960 N   0  0  0  0  0  2  0  0  0  0  0  0
  182.8470  178.8960  143.1150 C   0  0  0  0  0  3  0  0  0  0  0  0
  185.5390  178.5600  143.7870 C   0  0  0  0  0  3  0  0  0  0  0  0
  183.2290  178.8290  144.4580 C   0  0  0  0  0  3  0  0  0  0  0  0
  183.4140  178.8740  140.7740 O   0  0  0  0  0  1  0  0  0  0  0  0
  184.5750  178.6600  144.7930 C   0  0  0  0  0  0  0  0  0  0  0  0
  184.9830  178.6020  146.2210 C   0  0  0  0  0  1  0  0  0  0  0  0
  183.8080  178.7950  142.1040 C   0  0  0  0  0  0  0  0  0  0  0  0
  185.1620  178.6290  142.4360 C   0  0  0  0  0  0  0  0  0  0  0  0
  1  9  1  0  0  0  0
  2  6  1  0  0  0  0
  3  6  2  0  0  0  0
  3  7  1  0  0  0  0
  4  1  2  0  0  0  0
  5  1  1  0  0  0  0
  5 20  1  0  0  0  0
  6  4  1  0  0  0  0
  7  5  2  0  0  0  0
  9 10  1  0  0  0  0
  9  8  1  1  0  0  0
  9 12  1  0  0  0  0
 10 11  2  0  0  0  0
 14 13  1  0  0  0  0
 14 16  1  0  0  0  0
 15 12  1  6  0  0  0
 15 14  1  0  0  0  0
 15 13  1  0  0  0  0
 16 18  1  0  0  0  0
 17 16  2  0  0  0  0
 19 18  1  0  0  0  0
 21 20  1  0  0  0  0
 21 29  1  0  0  0  0
 22 24  1  0  0  0  0
 23 26  1  0  0  0  0
 24 26  2  0  0  0  0
 25 28  1  0  0  0  0
 26 27  1  0  0  0  0
 28 29  1  0  0  0  0
 28 22  2  0  0  0  0
 29 23  2  0  0  0  0
M  END
>  <MODEL>
3

>  <REMARK>
 VINA RESULT:      -8.4      2.142      5.547
  Name = 
  8 active torsions:
  status: ('A' for Active; 'I' for Inactive)
    1  A    between atoms: C_2  and  C_25
    2  A    between atoms: C_8  and  C_25
    3  A    between atoms: C_11  and  C_17
    4  A    between atoms: C_12  and  C_27
    5  A    between atoms: C_14  and  C_22
    6  A    between atoms: C_21  and  N_24
    7  A    between atoms: C_22  and  C_25
    8  A    between atoms: N_24  and  C_27
                            x       y       z     vdW  Elec       q    Type
                         _______ _______ _______ _____ _____    ______ ____

>  <TORSDO>
F 8

$$$$
=
 OpenBabel11042410063D

 29 31  0  0  1  0  0  0  0  0999 V2000
  184.0660  178.8240  142.3400 C   0  0  0  0  0  0  0  0  0  0  0  0
  180.4530  178.4380  141.7500 N   0  0  0  0  0  1  0  0  0  0  0  0
  181.7010  178.7370  143.8240 C   0  0  0  0  0  3  0  0  0  0  0  0
  182.8500  178.6650  141.7370 N   0  0  0  0  0  0  0  0  0  0  0  0
  184.1100  178.9630  143.7500 C   0  0  0  0  0  0  0  0  0  0  0  0
  181.6880  178.6100  142.4360 C   0  0  0  0  0  0  0  0  0  0  0  0
  182.9190  178.9180  144.4780 C   0  0  0  0  0  3  0  0  0  0  0  0
  185.9620  180.1310  141.7170 O   0  0  0  0  0  1  0  0  0  0  0  0
  185.3190  178.9100  141.4810 C   0  0  2  0  0  0  0  0  0  0  0  0
  184.9060  178.8230  140.0370 C   0  0  0  0  0  3  0  0  0  0  0  0
  184.8170  179.8230  139.3410 O   0  0  0  0  0  0  0  0  0  0  0  0
  186.2890  177.7660  141.8220 C   0  0  0  0  0  2  0  0  0  0  0  0
  188.5840  177.1370  142.0370 C   0  0  0  0  0  2  0  0  0  0  0  0
  188.4470  177.7090  140.6670 N   0  0  0  0  0  0  0  0  0  0  0  0
  187.7420  178.2180  141.8810 C   0  0  1  0  0  3  0  0  0  0  0  0
  188.7350  177.7340  139.2740 C   0  0  0  0  0  0  0  0  0  0  0  0
  188.1610  178.5690  138.5290 O   0  0  0  0  0  0  0  0  0  0  0  0
  189.7290  176.7850  138.7030 C   0  0  0  0  0  2  0  0  0  0  0  0
  190.5320  176.2780  139.7260 O   0  0  0  0  0  1  0  0  0  0  0  0
  185.3830  179.2240  144.4910 C   0  0  0  0  0  2  0  0  0  0  0  0
  185.9010  177.9760  145.0340 N   0  0  0  0  0  2  0  0  0  0  0  0
  187.7400  178.3200  148.2620 C   0  0  0  0  0  3  0  0  0  0  0  0
  188.2270  177.4440  145.6530 C   0  0  0  0  0  3  0  0  0  0  0  0
  189.0070  177.8450  147.9080 C   0  0  0  0  0  3  0  0  0  0  0  0
  185.4630  178.8430  147.6760 O   0  0  0  0  0  1  0  0  0  0  0  0
  189.2490  177.4060  146.6040 C   0  0  0  0  0  0  0  0  0  0  0  0
  190.5990  176.9140  146.2240 C   0  0  0  0  0  1  0  0  0  0  0  0
  186.7140  178.3580  147.3130 C   0  0  0  0  0  0  0  0  0  0  0  0
  186.9530  177.9220  146.0000 C   0  0  0  0  0  0  0  0  0  0  0  0
  1  5  1  0  0  0  0
  2  6  1  0  0  0  0
  3  7  1  0  0  0  0
  4  1  2  0  0  0  0
  4  6  1  0  0  0  0
  5  7  2  0  0  0  0
  5 20  1  0  0  0  0
  6  3  2  0  0  0  0
  9  8  1  1  0  0  0
  9 12  1  0  0  0  0
  9  1  1  0  0  0  0
 10  9  1  0  0  0  0
 11 10  2  0  0  0  0
 14 15  1  0  0  0  0
 14 13  1  0  0  0  0
 15 12  1  6  0  0  0
 15 13  1  0  0  0  0
 16 14  1  0  0  0  0
 17 16  2  0  0  0  0
 18 16  1  0  0  0  0
 18 19  1  0  0  0  0
 20 21  1  0  0  0  0
 21 29  1  0  0  0  0
 23 29  2  0  0  0  0
 23 26  1  0  0  0  0
 24 22  1  0  0  0  0
 26 24  2  0  0  0  0
 27 26  1  0  0  0  0
 28 25  1  0  0  0  0
 28 22  2  0  0  0  0
 29 28  1  0  0  0  0
M  END
>  <MODEL>
4

>  <REMARK>
 VINA RESULT:      -8.3      2.299      6.066
  Name = 
  8 active torsions:
  status: ('A' for Active; 'I' for Inactive)
    1  A    between atoms: C_2  and  C_25
    2  A    between atoms: C_8  and  C_25
    3  A    between atoms: C_11  and  C_17
    4  A    between atoms: C_12  and  C_27
    5  A    between atoms: C_14  and  C_22
    6  A    between atoms: C_21  and  N_24
    7  A    between atoms: C_22  and  C_25
    8  A    between atoms: N_24  and  C_27
                            x       y       z     vdW  Elec       q    Type
                         _______ _______ _______ _____ _____    ______ ____

>  <TORSDO>
F 8

$$$$
=
 OpenBabel11042410063D

 29 31  0  0  1  0  0  0  0  0999 V2000
  190.5170  177.2230  144.8400 C   0  0  0  0  0  0  0  0  0  0  0  0
  192.8040  175.2200  146.9180 N   0  0  0  0  0  1  0  0  0  0  0  0
  190.8230  176.5080  147.5240 C   0  0  0  0  0  3  0  0  0  0  0  0
  191.5400  176.4150  145.2530 N   0  0  0  0  0  0  0  0  0  0  0  0
  189.5900  177.6880  145.8070 C   0  0  0  0  0  0  0  0  0  0  0  0
  191.7160  176.0610  146.5510 C   0  0  0  0  0  0  0  0  0  0  0  0
  189.7560  177.3210  147.1440 C   0  0  0  0  0  3  0  0  0  0  0  0
  190.3530  178.9330  143.1870 O   0  0  0  0  0  1  0  0  0  0  0  0
  190.3710  177.5440  143.3610 C   0  0  2  0  0  0  0  0  0  0  0  0
  189.0750  176.9550  142.8770 C   0  0  0  0  0  3  0  0  0  0  0  0
  188.8450  175.7590  142.9760 O   0  0  0  0  0  0  0  0  0  0  0  0
  191.5470  176.9610  142.5600 C   0  0  0  0  0  2  0  0  0  0  0  0
  192.7380  177.0840  140.4920 C   0  0  0  0  0  2  0  0  0  0  0  0
  191.2930  177.1250  140.1310 N   0  0  0  0  0  0  0  0  0  0  0  0
  191.8930  177.7860  141.3270 C   0  0  1  0  0  3  0  0  0  0  0  0
  190.1870  176.7780  139.3060 C   0  0  0  0  0  0  0  0  0  0  0  0
  189.0250  177.1380  139.6280 O   0  0  0  0  0  0  0  0  0  0  0  0
  190.4070  176.0040  138.0540 C   0  0  0  0  0  2  0  0  0  0  0  0
  191.2610  174.9320  138.3120 O   0  0  0  0  0  1  0  0  0  0  0  0
  188.3940  178.5070  145.4400 C   0  0  0  0  0  2  0  0  0  0  0  0
  187.1880  177.6990  145.5610 N   0  0  0  0  0  2  0  0  0  0  0  0
  183.6790  178.9410  145.3060 C   0  0  0  0  0  3  0  0  0  0  0  0
  185.6900  177.9760  143.6230 C   0  0  0  0  0  3  0  0  0  0  0  0
  183.4460  178.8280  143.9320 C   0  0  0  0  0  3  0  0  0  0  0  0
  185.1300  178.6810  147.2110 O   0  0  0  0  0  1  0  0  0  0  0  0
  184.4520  178.3460  143.0910 C   0  0  0  0  0  0  0  0  0  0  0  0
  184.2010  178.2120  141.6320 C   0  0  0  0  0  1  0  0  0  0  0  0
  184.9170  178.5730  145.8420 C   0  0  0  0  0  0  0  0  0  0  0  0
  185.9300  178.0850  145.0020 C   0  0  0  0  0  0  0  0  0  0  0  0
  1  4  2  0  0  0  0
  1  5  1  0  0  0  0
  4  6  1  0  0  0  0
  5  7  2  0  0  0  0
  6  2  1  0  0  0  0
  6  3  2  0  0  0  0
  7  3  1  0  0  0  0
  9  8  1  6  0  0  0
  9  1  1  0  0  0  0
 10 11  2  0  0  0  0
 10  9  1  0  0  0  0
 12  9  1  0  0  0  0
 13 15  1  0  0  0  0
 14 13  1  0  0  0  0
 14 15  1  0  0  0  0
 15 12  1  1  0  0  0
 16 17  2  0  0  0  0
 16 14  1  0  0  0  0
 18 19  1  0  0  0  0
 18 16  1  0  0  0  0
 20 21  1  0  0  0  0
 20  5  1  0  0  0  0
 22 28  1  0  0  0  0
 23 29  1  0  0  0  0
 24 22  2  0  0  0  0
 26 23  2  0  0  0  0
 26 24  1  0  0  0  0
 27 26  1  0  0  0  0
 28 25  1  0  0  0  0
 29 21  1  0  0  0  0
 29 28  2  0  0  0  0
M  END
>  <MODEL>
5

>  <REMARK>
 VINA RESULT:      -8.2      1.444      2.191
  Name = 
  8 active torsions:
  status: ('A' for Active; 'I' for Inactive)
    1  A    between atoms: C_2  and  C_25
    2  A    between atoms: C_8  and  C_25
    3  A    between atoms: C_11  and  C_17
    4  A    between atoms: C_12  and  C_27
    5  A    between atoms: C_14  and  C_22
    6  A    between atoms: C_21  and  N_24
    7  A    between atoms: C_22  and  C_25
    8  A    between atoms: N_24  and  C_27
                            x       y       z     vdW  Elec       q    Type
                         _______ _______ _______ _____ _____    ______ ____

>  <TORSDO>
F 8

$$$$
=
 OpenBabel11042410063D

 29 31  0  0  1  0  0  0  0  0999 V2000
  187.0890  178.2380  141.3160 C   0  0  0  0  0  0  0  0  0  0  0  0
  184.3640  179.8470  139.4360 N   0  0  0  0  0  1  0  0  0  0  0  0
  184.3740  178.8080  141.6420 C   0  0  0  0  0  3  0  0  0  0  0  0
  186.3750  178.8900  140.3490 N   0  0  0  0  0  0  0  0  0  0  0  0
  186.4260  177.8630  142.5120 C   0  0  0  0  0  0  0  0  0  0  0  0
  185.0530  179.1700  140.4800 C   0  0  0  0  0  0  0  0  0  0  0  0
  185.0690  178.1560  142.6600 C   0  0  0  0  0  3  0  0  0  0  0  0
  188.8170  176.6140  141.0620 O   0  0  0  0  0  1  0  0  0  0  0  0
  188.5760  177.9920  141.1060 C   0  0  2  0  0  0  0  0  0  0  0  0
  189.3210  178.6030  142.2610 C   0  0  0  0  0  3  0  0  0  0  0  0
  190.3350  178.0860  142.7070 O   0  0  0  0  0  0  0  0  0  0  0  0
  189.0480  178.6190  139.7830 C   0  0  0  0  0  2  0  0  0  0  0  0
  189.2660  178.3110  137.4240 C   0  0  0  0  0  2  0  0  0  0  0  0
  190.0630  177.2190  138.0510 N   0  0  0  0  0  0  0  0  0  0  0  0
  188.7650  177.7380  138.5740 C   0  0  1  0  0  3  0  0  0  0  0  0
  191.1990  176.3650  138.1210 C   0  0  0  0  0  0  0  0  0  0  0  0
  191.3270  175.5680  139.0860 O   0  0  0  0  0  0  0  0  0  0  0  0
  192.2240  176.4000  137.0430 C   0  0  0  0  0  2  0  0  0  0  0  0
  193.4600  176.7530  137.5860 O   0  0  0  0  0  1  0  0  0  0  0  0
  187.1420  177.2210  143.6570 C   0  0  0  0  0  2  0  0  0  0  0  0
  186.6420  177.7600  144.9140 N   0  0  0  0  0  2  0  0  0  0  0  0
  187.6480  178.4490  148.4400 C   0  0  0  0  0  3  0  0  0  0  0  0
  188.7240  177.2770  146.1430 C   0  0  0  0  0  3  0  0  0  0  0  0
  188.9430  177.9230  148.4650 C   0  0  0  0  0  3  0  0  0  0  0  0
  185.6050  178.9270  147.2570 O   0  0  0  0  0  1  0  0  0  0  0  0
  189.4800  177.3360  147.3160 C   0  0  0  0  0  0  0  0  0  0  0  0
  190.8620  176.7890  147.3370 C   0  0  0  0  0  1  0  0  0  0  0  0
  186.8870  178.3900  147.2680 C   0  0  0  0  0  0  0  0  0  0  0  0
  187.4230  177.8050  146.1110 C   0  0  0  0  0  0  0  0  0  0  0  0
  1  5  1  0  0  0  0
  2  6  1  0  0  0  0
  3  7  1  0  0  0  0
  4  6  1  0  0  0  0
  4  1  2  0  0  0  0
  5  7  2  0  0  0  0
  5 20  1  0  0  0  0
  6  3  2  0  0  0  0
  9  8  1  6  0  0  0
  9  1  1  0  0  0  0
  9 10  1  0  0  0  0
 10 11  2  0  0  0  0
 12  9  1  0  0  0  0
 13 14  1  0  0  0  0
 13 15  1  0  0  0  0
 14 16  1  0  0  0  0
 14 15  1  0  0  0  0
 15 12  1  1  0  0  0
 16 17  2  0  0  0  0
 18 19  1  0  0  0  0
 18 16  1  0  0  0  0
 20 21  1  0  0  0  0
 21 29  1  0  0  0  0
 22 24  1  0  0  0  0
 23 26  1  0  0  0  0
 25 28  1  0  0  0  0
 26 27  1  0  0  0  0
 26 24  2  0  0  0  0
 28 22  2  0  0  0  0
 29 23  2  0  0  0  0
 29 28  1  0  0  0  0
M  END
>  <MODEL>
6

>  <REMARK>
 VINA RESULT:      -8.1      2.248      5.307
  Name = 
  8 active torsions:
  status: ('A' for Active; 'I' for Inactive)
    1  A    between atoms: C_2  and  C_25
    2  A    between atoms: C_8  and  C_25
    3  A    between atoms: C_11  and  C_17
    4  A    between atoms: C_12  and  C_27
    5  A    between atoms: C_14  and  C_22
    6  A    between atoms: C_21  and  N_24
    7  A    between atoms: C_22  and  C_25
    8  A    between atoms: N_24  and  C_27
                            x       y       z     vdW  Elec       q    Type
                         _______ _______ _______ _____ _____    ______ ____

>  <TORSDO>
F 8

$$$$
=
 OpenBabel11042410063D

 29 31  0  0  1  0  0  0  0  0999 V2000
  185.0390  178.5430  144.8930 C   0  0  0  0  0  0  0  0  0  0  0  0
  181.7220  179.0570  143.3800 N   0  0  0  0  0  1  0  0  0  0  0  0
  183.8690  178.5180  142.3560 C   0  0  0  0  0  3  0  0  0  0  0  0
  183.7050  178.7880  144.7190 N   0  0  0  0  0  0  0  0  0  0  0  0
  185.8300  178.2560  143.7520 C   0  0  0  0  0  0  0  0  0  0  0  0
  183.1150  178.7900  143.4960 C   0  0  0  0  0  0  0  0  0  0  0  0
  185.2300  178.2470  142.4910 C   0  0  0  0  0  3  0  0  0  0  0  0
  184.6100  178.1740  147.2100 O   0  0  0  0  0  1  0  0  0  0  0  0
  185.6150  178.5250  146.3010 C   0  0  2  0  0  0  0  0  0  0  0  0
  186.1280  179.9030  146.6170 C   0  0  0  0  0  3  0  0  0  0  0  0
  186.0090  180.3850  147.7330 O   0  0  0  0  0  0  0  0  0  0  0  0
  186.7570  177.5000  146.4060 C   0  0  0  0  0  2  0  0  0  0  0  0
  188.3030  176.7690  148.0750 C   0  0  0  0  0  2  0  0  0  0  0  0
  189.1320  177.3610  146.9860 N   0  0  0  0  0  0  0  0  0  0  0  0
  187.8100  177.8880  147.4370 C   0  0  1  0  0  3  0  0  0  0  0  0
  190.2780  177.3870  146.1440 C   0  0  0  0  0  0  0  0  0  0  0  0
  190.3700  178.2530  145.2360 O   0  0  0  0  0  0  0  0  0  0  0  0
  191.3730  176.4010  146.3470 C   0  0  0  0  0  2  0  0  0  0  0  0
  192.0560  176.6990  147.5270 O   0  0  0  0  0  1  0  0  0  0  0  0
  187.2770  177.8950  143.8510 C   0  0  0  0  0  2  0  0  0  0  0  0
  187.6070  176.8990  142.8420 N   0  0  0  0  0  2  0  0  0  0  0  0
  190.8640  176.7180  141.0310 C   0  0  0  0  0  3  0  0  0  0  0  0
  188.3460  177.8860  140.7070 C   0  0  0  0  0  3  0  0  0  0  0  0
  190.5960  177.5020  139.9040 C   0  0  0  0  0  3  0  0  0  0  0  0
  190.1580  175.7430  143.1170 O   0  0  0  0  0  1  0  0  0  0  0  0
  189.3370  178.0850  139.7420 C   0  0  0  0  0  0  0  0  0  0  0  0
  189.0560  178.9290  138.5520 C   0  0  0  0  0  1  0  0  0  0  0  0
  189.8740  176.5150  141.9980 C   0  0  0  0  0  0  0  0  0  0  0  0
  188.6080  177.1020  141.8410 C   0  0  0  0  0  0  0  0  0  0  0  0
  1  9  1  0  0  0  0
  2  6  1  0  0  0  0
  3  7  2  0  0  0  0
  3  6  1  0  0  0  0
  4  1  1  0  0  0  0
  5 20  1  0  0  0  0
  5  1  2  0  0  0  0
  6  4  2  0  0  0  0
  7  5  1  0  0  0  0
  9 12  1  0  0  0  0
  9 10  1  0  0  0  0
  9  8  1  1  0  0  0
 10 11  2  0  0  0  0
 14 15  1  0  0  0  0
 14 13  1  0  0  0  0
 15 12  1  6  0  0  0
 15 13  1  0  0  0  0
 16 18  1  0  0  0  0
 16 14  1  0  0  0  0
 17 16  2  0  0  0  0
 18 19  1  0  0  0  0
 21 20  1  0  0  0  0
 22 28  1  0  0  0  0
 23 29  1  0  0  0  0
 24 22  2  0  0  0  0
 26 24  1  0  0  0  0
 26 23  2  0  0  0  0
 27 26  1  0  0  0  0
 28 25  1  0  0  0  0
 29 28  2  0  0  0  0
 29 21  1  0  0  0  0
M  END
>  <MODEL>
7

>  <REMARK>
 VINA RESULT:      -7.8      2.124      7.009
  Name = 
  8 active torsions:
  status: ('A' for Active; 'I' for Inactive)
    1  A    between atoms: C_2  and  C_25
    2  A    between atoms: C_8  and  C_25
    3  A    between atoms: C_11  and  C_17
    4  A    between atoms: C_12  and  C_27
    5  A    between atoms: C_14  and  C_22
    6  A    between atoms: C_21  and  N_24
    7  A    between atoms: C_22  and  C_25
    8  A    between atoms: N_24  and  C_27
                            x       y       z     vdW  Elec       q    Type
                         _______ _______ _______ _____ _____    ______ ____

>  <TORSDO>
F 8

$$$$
=
 OpenBabel11042410063D

 29 31  0  0  1  0  0  0  0  0999 V2000
  189.3170  177.8430  141.8760 C   0  0  0  0  0  0  0  0  0  0  0  0
  185.9590  179.2260  141.2720 N   0  0  0  0  0  1  0  0  0  0  0  0
  187.5770  178.2530  139.7290 C   0  0  0  0  0  3  0  0  0  0  0  0
  188.0850  178.4100  142.0530 N   0  0  0  0  0  0  0  0  0  0  0  0
  189.6990  177.4460  140.5700 C   0  0  0  0  0  0  0  0  0  0  0  0
  187.2260  178.6280  141.0250 C   0  0  0  0  0  0  0  0  0  0  0  0
  188.8180  177.6570  139.5080 C   0  0  0  0  0  3  0  0  0  0  0  0
  191.4590  178.1870  142.8660 O   0  0  0  0  0  1  0  0  0  0  0  0
  190.2070  177.6020  143.0860 C   0  0  2  0  0  0  0  0  0  0  0  0
  190.3640  176.1170  143.2660 C   0  0  0  0  0  3  0  0  0  0  0  0
  191.4340  175.6270  143.5960 O   0  0  0  0  0  0  0  0  0  0  0  0
  189.5860  178.2230  144.3490 C   0  0  0  0  0  2  0  0  0  0  0  0
  188.8690  177.6570  146.5560 C   0  0  0  0  0  2  0  0  0  0  0  0
  187.6280  177.7310  145.7340 N   0  0  0  0  0  0  0  0  0  0  0  0
  188.9360  177.1900  145.2600 C   0  0  1  0  0  3  0  0  0  0  0  0
  186.2630  178.0790  145.5360 C   0  0  0  0  0  0  0  0  0  0  0  0
  185.7280  177.9080  144.4100 O   0  0  0  0  0  0  0  0  0  0  0  0
  185.4640  178.6280  146.6650 C   0  0  0  0  0  2  0  0  0  0  0  0
  184.1770  178.9330  146.2220 O   0  0  0  0  0  1  0  0  0  0  0  0
  190.9900  176.7440  140.2910 C   0  0  0  0  0  2  0  0  0  0  0  0
  191.3060  176.8390  138.8730 N   0  0  0  0  0  2  0  0  0  0  0  0
  193.0790  174.2220  136.8910 C   0  0  0  0  0  3  0  0  0  0  0  0
  190.4600  174.9340  137.5560 C   0  0  0  0  0  3  0  0  0  0  0  0
  192.0050  173.4700  136.4060 C   0  0  0  0  0  3  0  0  0  0  0  0
  193.9240  176.0760  138.1760 O   0  0  0  0  0  1  0  0  0  0  0  0
  190.6960  173.8260  136.7390 C   0  0  0  0  0  0  0  0  0  0  0  0
  189.5530  173.0350  136.2120 C   0  0  0  0  0  1  0  0  0  0  0  0
  192.8470  175.3320  137.7100 C   0  0  0  0  0  0  0  0  0  0  0  0
  191.5330  175.6950  138.0460 C   0  0  0  0  0  0  0  0  0  0  0  0
  1  4  1  0  0  0  0
  1  9  1  0  0  0  0
  3  6  1  0  0  0  0
  5  1  2  0  0  0  0
  6  2  1  0  0  0  0
  6  4  2  0  0  0  0
  7  3  2  0  0  0  0
  7  5  1  0  0  0  0
  9  8  1  6  0  0  0
  9 10  1  0  0  0  0
  9 12  1  0  0  0  0
 10 11  2  0  0  0  0
 14 13  1  0  0  0  0
 15 12  1  6  0  0  0
 15 14  1  0  0  0  0
 15 13  1  0  0  0  0
 16 14  1  0  0  0  0
 16 18  1  0  0  0  0
 17 16  2  0  0  0  0
 19 18  1  0  0  0  0
 20  5  1  0  0  0  0
 21 20  1  0  0  0  0
 22 28  1  0  0  0  0
 23 29  1  0  0  0  0
 24 26  1  0  0  0  0
 24 22  2  0  0  0  0
 26 23  2  0  0  0  0
 27 26  1  0  0  0  0
 28 29  2  0  0  0  0
 28 25  1  0  0  0  0
 29 21  1  0  0  0  0
M  END
>  <MODEL>
8

>  <REMARK>
 VINA RESULT:      -7.7      2.637      7.917
  Name = 
  8 active torsions:
  status: ('A' for Active; 'I' for Inactive)
    1  A    between atoms: C_2  and  C_25
    2  A    between atoms: C_8  and  C_25
    3  A    between atoms: C_11  and  C_17
    4  A    between atoms: C_12  and  C_27
    5  A    between atoms: C_14  and  C_22
    6  A    between atoms: C_21  and  N_24
    7  A    between atoms: C_22  and  C_25
    8  A    between atoms: N_24  and  C_27
                            x       y       z     vdW  Elec       q    Type
                         _______ _______ _______ _____ _____    ______ ____

>  <TORSDO>
F 8

$$$$
=
 OpenBabel11042410063D

 29 31  0  0  1  0  0  0  0  0999 V2000
  187.1750  178.3690  139.9220 C   0  0  0  0  0  0  0  0  0  0  0  0
  183.5940  179.1380  140.2930 N   0  0  0  0  0  1  0  0  0  0  0  0
  185.3110  178.7140  141.9730 C   0  0  0  0  0  3  0  0  0  0  0  0
  185.8680  178.6680  139.6560 N   0  0  0  0  0  0  0  0  0  0  0  0
  187.5820  178.2490  141.2750 C   0  0  0  0  0  0  0  0  0  0  0  0
  184.9410  178.8320  140.6340 C   0  0  0  0  0  0  0  0  0  0  0  0
  186.6370  178.4260  142.2890 C   0  0  0  0  0  3  0  0  0  0  0  0
  189.1070  179.2620  138.8460 O   0  0  0  0  0  1  0  0  0  0  0  0
  188.1590  178.2350  138.7690 C   0  0  2  0  0  0  0  0  0  0  0  0
  187.3910  178.3480  137.4810 C   0  0  0  0  0  3  0  0  0  0  0  0
  187.5080  179.3240  136.7540 O   0  0  0  0  0  0  0  0  0  0  0  0
  188.8880  176.8820  138.8320 C   0  0  0  0  0  2  0  0  0  0  0  0
  190.8890  175.7060  138.2660 C   0  0  0  0  0  2  0  0  0  0  0  0
  190.4260  176.3490  137.0040 N   0  0  0  0  0  0  0  0  0  0  0  0
  190.3340  176.9650  138.3610 C   0  0  1  0  0  3  0  0  0  0  0  0
  190.2080  176.3590  135.5980 C   0  0  0  0  0  0  0  0  0  0  0  0
  189.6300  177.3380  135.0590 O   0  0  0  0  0  0  0  0  0  0  0  0
  190.6790  175.2210  134.7640 C   0  0  0  0  0  2  0  0  0  0  0  0
  191.9640  174.8500  135.1630 O   0  0  0  0  0  1  0  0  0  0  0  0
  189.0040  178.0060  141.6660 C   0  0  0  0  0  2  0  0  0  0  0  0
  189.0820  176.8470  142.5430 N   0  0  0  0  0  2  0  0  0  0  0  0
  191.4560  176.7960  145.4220 C   0  0  0  0  0  3  0  0  0  0  0  0
  188.7180  177.1280  144.9650 C   0  0  0  0  0  3  0  0  0  0  0  0
  190.5880  177.0110  146.4970 C   0  0  0  0  0  3  0  0  0  0  0  0
  191.8310  176.5230  143.0580 O   0  0  0  0  0  1  0  0  0  0  0  0
  189.2200  177.1770  146.2680 C   0  0  0  0  0  0  0  0  0  0  0  0
  188.2960  177.3920  147.4120 C   0  0  0  0  0  1  0  0  0  0  0  0
  190.9580  176.7470  144.1150 C   0  0  0  0  0  0  0  0  0  0  0  0
  189.5830  176.9110  143.8800 C   0  0  0  0  0  0  0  0  0  0  0  0
  1  5  1  0  0  0  0
  2  6  1  0  0  0  0
  3  7  1  0  0  0  0
  4  1  2  0  0  0  0
  4  6  1  0  0  0  0
  5 20  1  0  0  0  0
  5  7  2  0  0  0  0
  6  3  2  0  0  0  0
  9 12  1  0  0  0  0
  9  8  1  1  0  0  0
  9  1  1  0  0  0  0
 10  9  1  0  0  0  0
 11 10  2  0  0  0  0
 13 15  1  0  0  0  0
 14 13  1  0  0  0  0
 14 15  1  0  0  0  0
 15 12  1  1  0  0  0
 16 14  1  0  0  0  0
 17 16  2  0  0  0  0
 18 19  1  0  0  0  0
 18 16  1  0  0  0  0
 20 21  1  0  0  0  0
 21 29  1  0  0  0  0
 22 24  1  0  0  0  0
 23 26  1  0  0  0  0
 25 28  1  0  0  0  0
 26 24  2  0  0  0  0
 26 27  1  0  0  0  0
 28 22  2  0  0  0  0
 29 28  1  0  0  0  0
 29 23  2  0  0  0  0
M  END
>  <MODEL>
9

>  <REMARK>
 VINA RESULT:      -7.7      2.763      6.384
  Name = 
  8 active torsions:
  status: ('A' for Active; 'I' for Inactive)
    1  A    between atoms: C_2  and  C_25
    2  A    between atoms: C_8  and  C_25
    3  A    between atoms: C_11  and  C_17
    4  A    between atoms: C_12  and  C_27
    5  A    between atoms: C_14  and  C_22
    6  A    between atoms: C_21  and  N_24
    7  A    between atoms: C_22  and  C_25
    8  A    between atoms: N_24  and  C_27
                            x       y       z     vdW  Elec       q    Type
                         _______ _______ _______ _____ _____    ______ ____

>  <TORSDO>
F 8

$$$$
