=
 OpenBabel11042411243D

 57 59  0  0  1  0  0  0  0  0999 V2000
  190.8090  175.6530  143.0850 C   0  0  0  0  0  2  0  0  0  0  0  0
  190.7600  177.2600  145.0500 C   0  0  1  0  0  3  0  0  0  0  0  0
  189.4050  177.7450  142.9070 C   0  0  2  0  0  3  0  0  0  0  0  0
  190.5890  175.8050  144.5970 C   0  0  0  0  0  2  0  0  0  0  0  0
  190.5420  176.6550  140.7990 C   0  0  1  0  0  3  0  0  0  0  0  0
  189.0920  179.0050  142.1150 C   0  0  0  0  0  2  0  0  0  0  0  0
  188.0460  178.7510  141.0290 C   0  0  1  0  0  3  0  0  0  0  0  0
  188.5950  177.9720  139.8330 C   0  0  0  0  0  2  0  0  0  0  0  0
  189.6760  178.1260  144.3750 C   0  0  0  0  0  2  0  0  0  0  0  0
  190.5790  176.9540  142.3100 C   0  0  2  0  0  3  0  0  0  0  0  0
  189.1310  176.5860  140.2000 C   0  0  0  0  0  2  0  0  0  0  0  0
  185.5540  178.6870  141.4520 C   0  0  0  0  0  0  0  0  0  0  0  0
  185.4130  179.8210  140.9140 O   0  0  0  0  0  0  0  0  0  0  0  0
  186.8560  178.1100  141.5810 N   0  0  0  0  0  2  0  0  0  0  0  0
  184.4430  177.9840  141.9280 O   0  0  0  0  0  0  0  0  0  0  0  0
  181.0510  178.3480  140.7580 O   0  0  0  0  0  0  0  0  0  0  0  0
  183.1470  178.4360  141.7660 N   0  0  0  0  0  2  0  0  0  0  0  0
  182.2510  177.9700  140.7430 C   0  0  0  0  0  0  0  0  0  0  0  0
  182.7350  177.1250  139.6080 C   0  0  0  0  0  2  0  0  0  0  0  0
  181.9630  177.9600  136.9660 O   0  0  0  0  0  0  0  0  0  0  0  0
  184.4890  177.7680  137.6200 O   0  0  0  0  0  1  0  0  0  0  0  0
  183.1360  178.1630  138.1700 P   0  0  0  0  0  0  0  0  0  0  0  0
  183.1720  179.7880  138.6430 O   0  0  0  0  0  1  0  0  0  0  0  0
  190.6990  177.3600  146.5170 N   0  0  0  0  0  0  0  0  0  0  0  0
  191.6780  176.4410  147.0930 C   0  0  0  0  0  2  0  0  0  0  0  0
  192.1990  176.9860  148.2670 O   0  0  0  0  0  1  0  0  0  0  0  0
  189.3970  176.8550  146.9490 C   0  0  0  0  0  2  0  0  0  0  0  0
  188.4950  178.0090  147.3600 C   0  0  2  0  0  3  0  0  0  0  0  0
  189.0320  178.6300  148.4780 F   0  0  0  0  0  0  0  0  0  0  0  0
  187.2240  177.5210  147.6680 O   0  0  0  0  0  0  0  0  0  0  0  0
  186.4230  178.5210  145.2210 O   0  0  0  0  0  0  0  0  0  0  0  0
  186.3010  179.9690  147.3860 O   0  0  0  0  0  1  0  0  0  0  0  0
  186.1270  178.5530  146.8850 P   0  0  0  0  0  0  0  0  0  0  0  0
  184.5370  178.0390  147.1790 O   0  0  0  0  0  1  0  0  0  0  0  0
  191.3660  177.5240  140.0590 O   0  0  0  0  0  0  0  0  0  0  0  0
  192.4210  176.7470  139.5600 C   0  0  0  0  0  2  0  0  0  0  0  0
  192.5870  176.9330  138.0580 C   0  0  1  0  0  3  0  0  0  0  0  0
  193.9400  177.1570  137.7930 O   0  0  0  0  0  1  0  0  0  0  0  0
  192.1020  175.6610  137.3440 C   0  0  1  0  0  3  0  0  0  0  0  0
  191.0360  175.9760  136.3010 C   0  0  0  0  0  2  0  0  0  0  0  0
  190.0190  176.8460  136.8630 N   0  0  0  0  0  2  0  0  0  0  0  0
  189.3710  176.3090  134.5960 C   0  0  0  0  0  1  0  0  0  0  0  0
  188.9410  176.9700  135.8910 C   0  0  1  0  0  3  0  0  0  0  0  0
  187.6870  176.2760  136.4140 C   0  0  0  0  0  2  0  0  0  0  0  0
  187.7100  174.9010  136.0580 O   0  0  0  0  0  0  0  0  0  0  0  0
  185.8930  174.2540  137.4260 N   0  0  0  0  0  0  0  0  0  0  0  0
  186.7040  174.0210  136.4540 C   0  0  0  0  0  0  0  0  0  0  0  0
  185.3490  172.1300  136.6170 N   0  0  0  0  0  0  0  0  0  0  0  0
  186.4570  172.6950  135.8300 C   0  0  0  0  0  3  0  0  0  0  0  0
  185.0520  173.1500  137.5450 N   0  0  0  0  0  2  0  0  0  0  0  0
  193.2010  174.9660  136.6820 N   0  0  0  0  0  2  0  0  0  0  0  0
  192.7740  172.6580  136.5240 O   0  0  0  0  0  1  0  0  0  0  0  0
  193.3710  173.6540  137.3120 C   0  0  1  0  0  3  0  0  0  0  0  0
  194.8470  173.3290  137.5190 C   0  0  1  0  0  3  0  0  0  0  0  0
  195.4060  174.0780  138.7220 C   0  0  0  0  0  1  0  0  0  0  0  0
  195.0570  171.8320  137.6690 C   0  0  0  0  0  2  0  0  0  0  0  0
  196.5120  171.4780  137.4470 C   0  0  0  0  0  1  0  0  0  0  0  0
  1  4  1  0  0  0  0
  2 24  1  1  0  0  0
  3  6  1  6  0  0  0
  3  9  1  0  0  0  0
  4  2  1  0  0  0  0
  5 35  1  6  0  0  0
  5 10  1  0  0  0  0
  7 14  1  1  0  0  0
  7  6  1  0  0  0  0
  8 11  1  0  0  0  0
  8  7  1  0  0  0  0
  9  2  1  0  0  0  0
 10  3  1  0  0  0  0
 10  1  1  1  0  0  0
 11  5  1  0  0  0  0
 12 14  1  0  0  0  0
 12 15  1  0  0  0  0
 13 12  2  0  0  0  0
 17 15  1  0  0  0  0
 18 16  2  0  0  0  0
 18 17  1  0  0  0  0
 19 18  1  0  0  0  0
 20 22  2  0  0  0  0
 21 22  1  0  0  0  0
 22 23  1  0  0  0  0
 22 19  1  0  0  0  0
 24 27  1  0  0  0  0
 24 25  1  0  0  0  0
 25 26  1  0  0  0  0
 27 28  1  0  0  0  0
 28 30  1  0  0  0  0
 28 29  1  1  0  0  0
 31 33  2  0  0  0  0
 33 34  1  0  0  0  0
 33 32  1  0  0  0  0
 33 30  1  0  0  0  0
 36 35  1  0  0  0  0
 37 38  1  1  0  0  0
 37 36  1  0  0  0  0
 39 40  1  6  0  0  0
 39 37  1  0  0  0  0
 40 41  1  0  0  0  0
 43 42  1  6  0  0  0
 43 44  1  0  0  0  0
 43 41  1  0  0  0  0
 45 44  1  0  0  0  0
 45 47  1  0  0  0  0
 46 50  1  0  0  0  0
 47 46  2  0  0  0  0
 48 50  1  0  0  0  0
 49 47  1  0  0  0  0
 49 48  2  0  0  0  0
 51 53  1  0  0  0  0
 51 39  1  0  0  0  0
 53 52  1  6  0  0  0
 53 54  1  0  0  0  0
 54 56  1  0  0  0  0
 54 55  1  1  0  0  0
 57 56  1  0  0  0  0
M  END
>  <MODEL>
1

>  <REMARK>
 VINA RESULT:      -6.0      0.000      0.000
  Name = 
  25 active torsions:
  status: ('A' for Active; 'I' for Inactive)
    1  A    between atoms: C_1  and  C_47
    2  A    between atoms: C_1  and  O_52
    3  A    between atoms: C_2  and  P_48
    4  A    between atoms: C_2  and  C_56
    5  A    between atoms: C_5  and  C_24
    6  A    between atoms: C_5  and  C_43
    7  A    between atoms: C_6  and  N_57
    8  A    between atoms: C_7  and  N_57
    9  A    between atoms: N_9  and  C_15
   10  A    between atoms: N_9  and  C_37
   11  A    between atoms: N_11  and  O_22
   12  A    between atoms: C_15  and  C_21
   13  A    between atoms: N_16  and  C_17
   14  A    between atoms: N_16  and  C_43
   15  A    between atoms: C_17  and  C_18
   16  A    between atoms: C_17  and  C_37
   17  A    between atoms: C_18  and  C_45
   18  A    between atoms: C_21  and  O_39
   19  A    between atoms: O_22  and  C_31
   20  A    between atoms: O_26  and  C_28
   21  A    between atoms: O_26  and  C_45
   22  A    between atoms: C_29  and  O_39
   23  A    between atoms: C_33  and  N_53
   24  A    between atoms: P_34  and  O_52
   25  A    between atoms: C_47  and  N_57
                            x       y       z     vdW  Elec       q    Type
                         _______ _______ _______ _____ _____    ______ ____

>  <TORSDO>
F 25

$$$$
=
 OpenBabel11042411243D

 57 59  0  0  1  0  0  0  0  0999 V2000
  190.7900  175.6740  142.9470 C   0  0  0  0  0  2  0  0  0  0  0  0
  190.6140  177.2920  144.8950 C   0  0  1  0  0  3  0  0  0  0  0  0
  189.3210  177.7130  142.7010 C   0  0  2  0  0  3  0  0  0  0  0  0
  190.5110  175.8290  144.4490 C   0  0  0  0  0  2  0  0  0  0  0  0
  190.5710  176.6490  140.6430 C   0  0  1  0  0  3  0  0  0  0  0  0
  188.9920  178.9560  141.8860 C   0  0  0  0  0  2  0  0  0  0  0  0
  187.9960  178.6560  140.7660 C   0  0  1  0  0  3  0  0  0  0  0  0
  188.6150  177.8880  139.5970 C   0  0  0  0  0  2  0  0  0  0  0  0
  189.5250  178.1140  144.1740 C   0  0  0  0  0  2  0  0  0  0  0  0
  190.5430  176.9600  142.1530 C   0  0  2  0  0  3  0  0  0  0  0  0
  189.1860  176.5260  139.9960 C   0  0  0  0  0  2  0  0  0  0  0  0
  185.7120  178.6950  141.8510 C   0  0  0  0  0  0  0  0  0  0  0  0
  185.7780  179.9480  141.9930 O   0  0  0  0  0  0  0  0  0  0  0  0
  186.8100  177.9780  141.2810 N   0  0  0  0  0  2  0  0  0  0  0  0
  184.5690  177.9950  142.2490 O   0  0  0  0  0  0  0  0  0  0  0  0
  181.4140  179.2030  143.5100 O   0  0  0  0  0  0  0  0  0  0  0  0
  183.6020  178.5460  143.0680 N   0  0  0  0  0  2  0  0  0  0  0  0
  182.2540  178.8210  142.6540 C   0  0  0  0  0  0  0  0  0  0  0  0
  181.8510  178.7580  141.2160 C   0  0  0  0  0  2  0  0  0  0  0  0
  179.7760  179.4700  139.3550 O   0  0  0  0  0  0  0  0  0  0  0  0
  180.0460  180.7650  141.6130 O   0  0  0  0  0  1  0  0  0  0  0  0
  180.1570  179.3850  141.0030 P   0  0  0  0  0  0  0  0  0  0  0  0
  179.0700  178.3390  141.7720 O   0  0  0  0  0  1  0  0  0  0  0  0
  190.4970  177.4020  146.3570 N   0  0  0  0  0  0  0  0  0  0  0  0
  191.4290  176.4610  146.9750 C   0  0  0  0  0  2  0  0  0  0  0  0
  192.0720  177.0760  148.0510 O   0  0  0  0  0  1  0  0  0  0  0  0
  189.1660  176.9310  146.7380 C   0  0  0  0  0  2  0  0  0  0  0  0
  188.4010  178.0370  147.4480 C   0  0  2  0  0  3  0  0  0  0  0  0
  189.0690  178.3780  148.6150 F   0  0  0  0  0  0  0  0  0  0  0  0
  187.1180  177.5880  147.7640 O   0  0  0  0  0  0  0  0  0  0  0  0
  186.1520  180.1720  147.6300 O   0  0  0  0  0  1  0  0  0  0  0  0
  184.6290  178.1240  147.0990 O   0  0  0  0  0  1  0  0  0  0  0  0
  186.0470  178.6270  146.9530 P   0  0  0  0  0  0  0  0  0  0  0  0
  186.4530  178.7100  145.3090 O   0  0  0  0  0  0  0  0  0  0  0  0
  191.3890  177.5420  139.9260 O   0  0  0  0  0  0  0  0  0  0  0  0
  192.4890  176.7980  139.4720 C   0  0  0  0  0  2  0  0  0  0  0  0
  192.4970  176.6880  137.9540 C   0  0  1  0  0  3  0  0  0  0  0  0
  193.7370  177.1330  137.4900 O   0  0  0  0  0  1  0  0  0  0  0  0
  192.2700  175.2200  137.5610 C   0  0  1  0  0  3  0  0  0  0  0  0
  190.9890  175.0470  136.7540 C   0  0  0  0  0  2  0  0  0  0  0  0
  190.1610  176.2350  136.8560 N   0  0  0  0  0  2  0  0  0  0  0  0
  190.1230  177.0980  134.5980 C   0  0  0  0  0  1  0  0  0  0  0  0
  189.3490  176.3280  135.6500 C   0  0  1  0  0  3  0  0  0  0  0  0
  189.0420  174.9300  135.1210 C   0  0  0  0  0  2  0  0  0  0  0  0
  187.6360  174.7520  135.0150 O   0  0  0  0  0  0  0  0  0  0  0  0
  186.1440  176.5860  135.0660 N   0  0  0  0  0  0  0  0  0  0  0  0
  186.7360  175.6050  135.6530 C   0  0  0  0  0  0  0  0  0  0  0  0
  185.4480  176.6420  137.2960 N   0  0  0  0  0  0  0  0  0  0  0  0
  186.3660  175.5110  137.0890 C   0  0  0  0  0  3  0  0  0  0  0  0
  185.3480  177.2230  136.0160 N   0  0  0  0  0  2  0  0  0  0  0  0
  193.3820  174.6970  136.7750 N   0  0  0  0  0  2  0  0  0  0  0  0
  193.0830  172.4350  136.2020 O   0  0  0  0  0  1  0  0  0  0  0  0
  193.6170  173.3050  137.1650 C   0  0  1  0  0  3  0  0  0  0  0  0
  195.1060  173.0250  137.3390 C   0  0  1  0  0  3  0  0  0  0  0  0
  195.9430  173.9980  136.5170 C   0  0  0  0  0  1  0  0  0  0  0  0
  195.5010  173.0770  138.8050 C   0  0  0  0  0  2  0  0  0  0  0  0
  196.3230  174.3170  139.0860 C   0  0  0  0  0  1  0  0  0  0  0  0
  1  4  1  0  0  0  0
  2 24  1  1  0  0  0
  3  6  1  6  0  0  0
  3  9  1  0  0  0  0
  4  2  1  0  0  0  0
  5 35  1  6  0  0  0
  5 10  1  0  0  0  0
  7 14  1  1  0  0  0
  7  6  1  0  0  0  0
  8 11  1  0  0  0  0
  8  7  1  0  0  0  0
  9  2  1  0  0  0  0
 10  3  1  0  0  0  0
 10  1  1  1  0  0  0
 11  5  1  0  0  0  0
 12 13  2  0  0  0  0
 12 15  1  0  0  0  0
 14 12  1  0  0  0  0
 15 17  1  0  0  0  0
 18 17  1  0  0  0  0
 18 16  2  0  0  0  0
 19 18  1  0  0  0  0
 20 22  2  0  0  0  0
 22 19  1  0  0  0  0
 22 21  1  0  0  0  0
 22 23  1  0  0  0  0
 24 27  1  0  0  0  0
 24 25  1  0  0  0  0
 25 26  1  0  0  0  0
 27 28  1  0  0  0  0
 28 30  1  0  0  0  0
 28 29  1  1  0  0  0
 33 32  1  0  0  0  0
 33 31  1  0  0  0  0
 33 30  1  0  0  0  0
 34 33  2  0  0  0  0
 36 35  1  0  0  0  0
 37 38  1  1  0  0  0
 37 36  1  0  0  0  0
 39 40  1  6  0  0  0
 39 37  1  0  0  0  0
 40 41  1  0  0  0  0
 43 42  1  6  0  0  0
 43 41  1  0  0  0  0
 44 43  1  0  0  0  0
 45 44  1  0  0  0  0
 45 47  1  0  0  0  0
 46 47  2  0  0  0  0
 46 50  1  0  0  0  0
 47 49  1  0  0  0  0
 49 48  2  0  0  0  0
 50 48  1  0  0  0  0
 51 53  1  0  0  0  0
 51 39  1  0  0  0  0
 53 52  1  6  0  0  0
 53 54  1  0  0  0  0
 54 55  1  6  0  0  0
 54 56  1  0  0  0  0
 56 57  1  0  0  0  0
M  END
>  <MODEL>
2

>  <REMARK>
 VINA RESULT:      -5.9      1.603      2.069
  Name = 
  25 active torsions:
  status: ('A' for Active; 'I' for Inactive)
    1  A    between atoms: C_1  and  C_47
    2  A    between atoms: C_1  and  O_52
    3  A    between atoms: C_2  and  P_48
    4  A    between atoms: C_2  and  C_56
    5  A    between atoms: C_5  and  C_24
    6  A    between atoms: C_5  and  C_43
    7  A    between atoms: C_6  and  N_57
    8  A    between atoms: C_7  and  N_57
    9  A    between atoms: N_9  and  C_15
   10  A    between atoms: N_9  and  C_37
   11  A    between atoms: N_11  and  O_22
   12  A    between atoms: C_15  and  C_21
   13  A    between atoms: N_16  and  C_17
   14  A    between atoms: N_16  and  C_43
   15  A    between atoms: C_17  and  C_18
   16  A    between atoms: C_17  and  C_37
   17  A    between atoms: C_18  and  C_45
   18  A    between atoms: C_21  and  O_39
   19  A    between atoms: O_22  and  C_31
   20  A    between atoms: O_26  and  C_28
   21  A    between atoms: O_26  and  C_45
   22  A    between atoms: C_29  and  O_39
   23  A    between atoms: C_33  and  N_53
   24  A    between atoms: P_34  and  O_52
   25  A    between atoms: C_47  and  N_57
                            x       y       z     vdW  Elec       q    Type
                         _______ _______ _______ _____ _____    ______ ____

>  <TORSDO>
F 25

$$$$
=
 OpenBabel11042411243D

 57 59  0  0  1  0  0  0  0  0999 V2000
  190.3270  175.7100  142.7950 C   0  0  0  0  0  2  0  0  0  0  0  0
  190.3430  177.4740  144.6200 C   0  0  1  0  0  3  0  0  0  0  0  0
  189.0500  177.8550  142.4190 C   0  0  2  0  0  3  0  0  0  0  0  0
  190.0940  175.9980  144.2850 C   0  0  0  0  0  2  0  0  0  0  0  0
  190.1530  176.5310  140.4290 C   0  0  1  0  0  3  0  0  0  0  0  0
  188.8230  179.0620  141.5190 C   0  0  0  0  0  2  0  0  0  0  0  0
  187.7800  178.7770  140.4380 C   0  0  1  0  0  3  0  0  0  0  0  0
  188.3010  177.8720  139.3200 C   0  0  0  0  0  2  0  0  0  0  0  0
  189.3210  178.3410  143.8550 C   0  0  0  0  0  2  0  0  0  0  0  0
  190.1850  176.9520  141.9120 C   0  0  2  0  0  3  0  0  0  0  0  0
  188.7490  176.4930  139.8110 C   0  0  0  0  0  2  0  0  0  0  0  0
  185.2570  178.6750  140.5650 C   0  0  0  0  0  0  0  0  0  0  0  0
  185.1550  179.5810  139.6920 O   0  0  0  0  0  0  0  0  0  0  0  0
  186.5470  178.2540  141.0170 N   0  0  0  0  0  2  0  0  0  0  0  0
  184.1140  178.0740  141.1020 O   0  0  0  0  0  0  0  0  0  0  0  0
  182.1910  178.8980  144.0380 O   0  0  0  0  0  0  0  0  0  0  0  0
  183.7270  178.2450  142.4170 N   0  0  0  0  0  2  0  0  0  0  0  0
  182.5170  178.9060  142.8230 C   0  0  0  0  0  0  0  0  0  0  0  0
  181.6900  179.6850  141.8520 C   0  0  0  0  0  2  0  0  0  0  0  0
  178.9350  179.4560  141.0560 O   0  0  0  0  0  1  0  0  0  0  0  0
  180.2440  177.3730  141.9490 O   0  0  0  0  0  1  0  0  0  0  0  0
  180.4090  178.6250  141.1150 P   0  0  0  0  0  0  0  0  0  0  0  0
  180.8710  178.1980  139.5420 O   0  0  0  0  0  0  0  0  0  0  0  0
  190.2670  177.6990  146.0720 N   0  0  0  0  0  0  0  0  0  0  0  0
  191.3990  177.0340  146.7120 C   0  0  0  0  0  2  0  0  0  0  0  0
  191.1710  176.9360  148.0850 O   0  0  0  0  0  1  0  0  0  0  0  0
  189.0800  177.0060  146.5730 C   0  0  0  0  0  2  0  0  0  0  0  0
  188.0710  178.0110  147.1080 C   0  0  2  0  0  3  0  0  0  0  0  0
  188.4010  178.3370  148.4150 F   0  0  0  0  0  0  0  0  0  0  0  0
  186.7940  177.4500  147.0800 O   0  0  0  0  0  0  0  0  0  0  0  0
  186.0860  180.0930  147.4540 O   0  0  0  0  0  1  0  0  0  0  0  0
  184.3140  178.2890  146.8170 O   0  0  0  0  0  1  0  0  0  0  0  0
  185.7510  178.6910  146.5720 P   0  0  0  0  0  0  0  0  0  0  0  0
  185.9800  179.0010  144.9210 O   0  0  0  0  0  0  0  0  0  0  0  0
  191.0370  177.2880  139.6360 O   0  0  0  0  0  0  0  0  0  0  0  0
  191.9660  176.3840  139.1010 C   0  0  0  0  0  2  0  0  0  0  0  0
  192.3320  176.7460  137.6690 C   0  0  1  0  0  3  0  0  0  0  0  0
  193.7060  176.9940  137.6180 O   0  0  0  0  0  1  0  0  0  0  0  0
  191.9630  175.5720  136.7490 C   0  0  1  0  0  3  0  0  0  0  0  0
  193.1790  174.7160  136.4160 C   0  0  0  0  0  2  0  0  0  0  0  0
  193.2850  173.6030  137.3420 N   0  0  0  0  0  2  0  0  0  0  0  0
  194.8630  173.2380  135.5470 C   0  0  0  0  0  1  0  0  0  0  0  0
  194.2320  172.6440  136.7920 C   0  0  1  0  0  3  0  0  0  0  0  0
  195.3260  172.3480  137.8140 C   0  0  0  0  0  2  0  0  0  0  0  0
  196.4140  173.2440  137.6320 O   0  0  0  0  0  0  0  0  0  0  0  0
  196.0180  174.5680  139.5510 N   0  0  0  0  0  0  0  0  0  0  0  0
  196.8050  174.1370  138.6280 C   0  0  0  0  0  0  0  0  0  0  0  0
  198.0700  175.6330  139.8930 N   0  0  0  0  0  0  0  0  0  0  0  0
  198.1650  174.7270  138.7370 C   0  0  0  0  0  3  0  0  0  0  0  0
  196.7450  175.4550  140.3410 N   0  0  0  0  0  2  0  0  0  0  0  0
  190.9490  174.7150  137.3540 N   0  0  0  0  0  2  0  0  0  0  0  0
  189.9540  172.9790  136.1170 O   0  0  0  0  0  1  0  0  0  0  0  0
  189.9600  174.3660  136.3320 C   0  0  1  0  0  3  0  0  0  0  0  0
  188.5640  174.8270  136.7370 C   0  0  1  0  0  3  0  0  0  0  0  0
  188.1400  176.0500  135.9320 C   0  0  0  0  0  1  0  0  0  0  0  0
  187.5540  173.7020  136.5820 C   0  0  0  0  0  2  0  0  0  0  0  0
  186.2470  174.0690  137.2520 C   0  0  0  0  0  1  0  0  0  0  0  0
  1  4  1  0  0  0  0
  2 24  1  1  0  0  0
  3  6  1  6  0  0  0
  3  9  1  0  0  0  0
  4  2  1  0  0  0  0
  5 35  1  6  0  0  0
  5 10  1  0  0  0  0
  7 14  1  1  0  0  0
  7  6  1  0  0  0  0
  8 11  1  0  0  0  0
  8  7  1  0  0  0  0
  9  2  1  0  0  0  0
 10  3  1  0  0  0  0
 10  1  1  1  0  0  0
 11  5  1  0  0  0  0
 12 14  1  0  0  0  0
 12 15  1  0  0  0  0
 13 12  2  0  0  0  0
 15 17  1  0  0  0  0
 17 18  1  0  0  0  0
 18 16  2  0  0  0  0
 19 18  1  0  0  0  0
 20 22  1  0  0  0  0
 22 19  1  0  0  0  0
 22 21  1  0  0  0  0
 23 22  2  0  0  0  0
 24 27  1  0  0  0  0
 24 25  1  0  0  0  0
 25 26  1  0  0  0  0
 27 28  1  0  0  0  0
 28 29  1  1  0  0  0
 30 28  1  0  0  0  0
 33 32  1  0  0  0  0
 33 30  1  0  0  0  0
 33 31  1  0  0  0  0
 34 33  2  0  0  0  0
 36 35  1  0  0  0  0
 37 38  1  1  0  0  0
 37 36  1  0  0  0  0
 39 40  1  1  0  0  0
 39 51  1  0  0  0  0
 39 37  1  0  0  0  0
 40 41  1  0  0  0  0
 43 42  1  6  0  0  0
 43 41  1  0  0  0  0
 43 44  1  0  0  0  0
 45 44  1  0  0  0  0
 45 47  1  0  0  0  0
 46 50  1  0  0  0  0
 47 49  1  0  0  0  0
 47 46  2  0  0  0  0
 48 50  1  0  0  0  0
 49 48  2  0  0  0  0
 53 52  1  1  0  0  0
 53 54  1  0  0  0  0
 53 51  1  0  0  0  0
 54 55  1  6  0  0  0
 56 54  1  0  0  0  0
 56 57  1  0  0  0  0
M  END
>  <MODEL>
3

>  <REMARK>
 VINA RESULT:      -5.8      1.931      5.017
  Name = 
  25 active torsions:
  status: ('A' for Active; 'I' for Inactive)
    1  A    between atoms: C_1  and  C_47
    2  A    between atoms: C_1  and  O_52
    3  A    between atoms: C_2  and  P_48
    4  A    between atoms: C_2  and  C_56
    5  A    between atoms: C_5  and  C_24
    6  A    between atoms: C_5  and  C_43
    7  A    between atoms: C_6  and  N_57
    8  A    between atoms: C_7  and  N_57
    9  A    between atoms: N_9  and  C_15
   10  A    between atoms: N_9  and  C_37
   11  A    between atoms: N_11  and  O_22
   12  A    between atoms: C_15  and  C_21
   13  A    between atoms: N_16  and  C_17
   14  A    between atoms: N_16  and  C_43
   15  A    between atoms: C_17  and  C_18
   16  A    between atoms: C_17  and  C_37
   17  A    between atoms: C_18  and  C_45
   18  A    between atoms: C_21  and  O_39
   19  A    between atoms: O_22  and  C_31
   20  A    between atoms: O_26  and  C_28
   21  A    between atoms: O_26  and  C_45
   22  A    between atoms: C_29  and  O_39
   23  A    between atoms: C_33  and  N_53
   24  A    between atoms: P_34  and  O_52
   25  A    between atoms: C_47  and  N_57
                            x       y       z     vdW  Elec       q    Type
                         _______ _______ _______ _____ _____    ______ ____

>  <TORSDO>
F 25

$$$$
=
 OpenBabel11042411243D

 57 59  0  0  1  0  0  0  0  0999 V2000
  188.7210  178.9390  139.3080 C   0  0  0  0  0  2  0  0  0  0  0  0
  189.4990  177.0710  140.8410 C   0  0  1  0  0  3  0  0  0  0  0  0
  188.9460  176.6080  138.3620 C   0  0  2  0  0  3  0  0  0  0  0  0
  189.7890  178.4820  140.3130 C   0  0  0  0  0  2  0  0  0  0  0  0
  187.1460  178.3030  137.4600 C   0  0  1  0  0  3  0  0  0  0  0  0
  188.2700  175.4620  137.6240 C   0  0  0  0  0  2  0  0  0  0  0  0
  188.4000  175.6060  136.1080 C   0  0  1  0  0  3  0  0  0  0  0  0
  187.4970  176.6940  135.5250 C   0  0  0  0  0  2  0  0  0  0  0  0
  189.5660  176.0720  139.6660 C   0  0  0  0  0  2  0  0  0  0  0  0
  187.9850  177.7740  138.6400 C   0  0  2  0  0  3  0  0  0  0  0  0
  187.7850  178.0900  136.0820 C   0  0  0  0  0  2  0  0  0  0  0  0
  190.6580  174.7020  135.4180 C   0  0  0  0  0  0  0  0  0  0  0  0
  190.2530  173.5160  135.5690 O   0  0  0  0  0  0  0  0  0  0  0  0
  189.7920  175.8010  135.7130 N   0  0  0  0  0  2  0  0  0  0  0  0
  191.9560  174.9560  134.9630 O   0  0  0  0  0  0  0  0  0  0  0  0
  194.2440  177.0220  136.8340 O   0  0  0  0  0  0  0  0  0  0  0  0
  192.7020  176.0350  135.3970 N   0  0  0  0  0  2  0  0  0  0  0  0
  193.5000  176.0360  136.5920 C   0  0  0  0  0  0  0  0  0  0  0  0
  193.3940  174.9390  137.6030 C   0  0  0  0  0  2  0  0  0  0  0  0
  195.7050  175.1760  139.2990 O   0  0  0  0  0  1  0  0  0  0  0  0
  195.9490  174.4080  136.8090 O   0  0  0  0  0  0  0  0  0  0  0  0
  195.0430  174.2930  138.0150 P   0  0  0  0  0  0  0  0  0  0  0  0
  194.9110  172.6660  138.4680 O   0  0  0  0  0  1  0  0  0  0  0  0
  190.4410  176.7130  141.9130 N   0  0  0  0  0  0  0  0  0  0  0  0
  189.7500  175.8680  142.8840 C   0  0  0  0  0  2  0  0  0  0  0  0
  190.4610  174.6800  143.0630 O   0  0  0  0  0  1  0  0  0  0  0  0
  190.7810  177.9350  142.6400 C   0  0  0  0  0  2  0  0  0  0  0  0
  190.4490  177.7780  144.1170 C   0  0  2  0  0  3  0  0  0  0  0  0
  189.6640  178.8470  144.5230 F   0  0  0  0  0  0  0  0  0  0  0  0
  191.6280  177.7600  144.8610 O   0  0  0  0  0  0  0  0  0  0  0  0
  191.9190  177.3720  147.5800 O   0  0  0  0  0  1  0  0  0  0  0  0
  192.0940  175.3870  145.8980 O   0  0  0  0  0  0  0  0  0  0  0  0
  191.3540  176.6820  146.1450 P   0  0  0  0  0  0  0  0  0  0  0  0
  189.6940  176.3680  146.2920 O   0  0  0  0  0  1  0  0  0  0  0  0
  185.8220  177.8240  137.4850 O   0  0  0  0  0  0  0  0  0  0  0  0
  185.1850  178.4690  138.5560 C   0  0  0  0  0  2  0  0  0  0  0  0
  183.6700  178.4260  138.4080 C   0  0  1  0  0  3  0  0  0  0  0  0
  183.3690  177.9250  137.1400 O   0  0  0  0  0  1  0  0  0  0  0  0
  183.0900  177.5130  139.5000 C   0  0  1  0  0  3  0  0  0  0  0  0
  183.2370  178.1330  140.8850 C   0  0  0  0  0  2  0  0  0  0  0  0
  181.9520  178.6080  141.3660 N   0  0  0  0  0  2  0  0  0  0  0  0
  181.0880  178.6920  143.6230 C   0  0  0  0  0  1  0  0  0  0  0  0
  182.1540  179.2110  142.6760 C   0  0  1  0  0  3  0  0  0  0  0  0
  183.5290  178.8330  143.2170 C   0  0  0  0  0  2  0  0  0  0  0  0
  183.5210  178.8820  144.6370 O   0  0  0  0  0  0  0  0  0  0  0  0
  184.7600  178.8820  146.6520 N   0  0  0  0  0  0  0  0  0  0  0  0
  184.6730  178.6520  145.3880 C   0  0  0  0  0  0  0  0  0  0  0  0
  186.8650  178.1230  145.9800 N   0  0  0  0  0  0  0  0  0  0  0  0
  185.9510  178.1420  144.8270 C   0  0  0  0  0  3  0  0  0  0  0  0
  186.0560  178.5610  147.0480 N   0  0  0  0  0  2  0  0  0  0  0  0
  181.6770  177.2320  139.2690 N   0  0  0  0  0  2  0  0  0  0  0  0
  182.7650  175.1690  138.9620 O   0  0  0  0  0  1  0  0  0  0  0  0
  181.5440  175.8460  138.8160 C   0  0  1  0  0  3  0  0  0  0  0  0
  180.4560  175.1140  139.5950 C   0  0  1  0  0  3  0  0  0  0  0  0
  179.7380  176.0620  140.5480 C   0  0  0  0  0  1  0  0  0  0  0  0
  179.4700  174.4460  138.6520 C   0  0  0  0  0  2  0  0  0  0  0  0
  179.9680  173.0730  138.2540 C   0  0  0  0  0  1  0  0  0  0  0  0
  1  4  1  0  0  0  0
  2 24  1  1  0  0  0
  3  6  1  1  0  0  0
  3 10  1  0  0  0  0
  3  9  1  0  0  0  0
  4  2  1  0  0  0  0
  5 35  1  6  0  0  0
  5 10  1  0  0  0  0
  7 14  1  1  0  0  0
  7  6  1  0  0  0  0
  8 11  1  0  0  0  0
  8  7  1  0  0  0  0
  9  2  1  0  0  0  0
 10  1  1  6  0  0  0
 11  5  1  0  0  0  0
 12 13  2  0  0  0  0
 12 14  1  0  0  0  0
 15 17  1  0  0  0  0
 15 12  1  0  0  0  0
 17 18  1  0  0  0  0
 18 16  2  0  0  0  0
 18 19  1  0  0  0  0
 19 22  1  0  0  0  0
 21 22  2  0  0  0  0
 22 23  1  0  0  0  0
 22 20  1  0  0  0  0
 24 27  1  0  0  0  0
 24 25  1  0  0  0  0
 25 26  1  0  0  0  0
 27 28  1  0  0  0  0
 28 29  1  1  0  0  0
 28 30  1  0  0  0  0
 30 33  1  0  0  0  0
 32 33  2  0  0  0  0
 33 34  1  0  0  0  0
 33 31  1  0  0  0  0
 35 36  1  0  0  0  0
 37 38  1  6  0  0  0
 37 36  1  0  0  0  0
 37 39  1  0  0  0  0
 39 40  1  1  0  0  0
 40 41  1  0  0  0  0
 41 43  1  0  0  0  0
 43 44  1  0  0  0  0
 43 42  1  1  0  0  0
 44 45  1  0  0  0  0
 45 47  1  0  0  0  0
 46 50  1  0  0  0  0
 47 46  2  0  0  0  0
 48 50  1  0  0  0  0
 49 47  1  0  0  0  0
 49 48  2  0  0  0  0
 51 39  1  0  0  0  0
 53 52  1  1  0  0  0
 53 51  1  0  0  0  0
 53 54  1  0  0  0  0
 54 55  1  6  0  0  0
 56 54  1  0  0  0  0
 57 56  1  0  0  0  0
M  END
>  <MODEL>
4

>  <REMARK>
 VINA RESULT:      -5.8      3.206      9.522
  Name = 
  25 active torsions:
  status: ('A' for Active; 'I' for Inactive)
    1  A    between atoms: C_1  and  C_47
    2  A    between atoms: C_1  and  O_52
    3  A    between atoms: C_2  and  P_48
    4  A    between atoms: C_2  and  C_56
    5  A    between atoms: C_5  and  C_24
    6  A    between atoms: C_5  and  C_43
    7  A    between atoms: C_6  and  N_57
    8  A    between atoms: C_7  and  N_57
    9  A    between atoms: N_9  and  C_15
   10  A    between atoms: N_9  and  C_37
   11  A    between atoms: N_11  and  O_22
   12  A    between atoms: C_15  and  C_21
   13  A    between atoms: N_16  and  C_17
   14  A    between atoms: N_16  and  C_43
   15  A    between atoms: C_17  and  C_18
   16  A    between atoms: C_17  and  C_37
   17  A    between atoms: C_18  and  C_45
   18  A    between atoms: C_21  and  O_39
   19  A    between atoms: O_22  and  C_31
   20  A    between atoms: O_26  and  C_28
   21  A    between atoms: O_26  and  C_45
   22  A    between atoms: C_29  and  O_39
   23  A    between atoms: C_33  and  N_53
   24  A    between atoms: P_34  and  O_52
   25  A    between atoms: C_47  and  N_57
                            x       y       z     vdW  Elec       q    Type
                         _______ _______ _______ _____ _____    ______ ____

>  <TORSDO>
F 25

$$$$
=
 OpenBabel11042411243D

 57 59  0  0  1  0  0  0  0  0999 V2000
  187.6860  179.1010  140.9660 C   0  0  0  0  0  2  0  0  0  0  0  0
  185.5970  177.8900  141.7500 C   0  0  1  0  0  3  0  0  0  0  0  0
  187.9080  177.3400  142.7620 C   0  0  2  0  0  3  0  0  0  0  0  0
  186.2510  179.2530  141.4900 C   0  0  0  0  0  2  0  0  0  0  0  0
  189.8360  177.8070  141.0320 C   0  0  1  0  0  3  0  0  0  0  0  0
  188.5900  176.0550  143.2090 C   0  0  0  0  0  2  0  0  0  0  0  0
  189.8990  176.3330  143.9470 C   0  0  1  0  0  3  0  0  0  0  0  0
  191.0340  176.7720  143.0200 C   0  0  0  0  0  2  0  0  0  0  0  0
  186.3810  177.1620  142.8630 C   0  0  0  0  0  2  0  0  0  0  0  0
  188.3280  177.7640  141.3460 C   0  0  2  0  0  3  0  0  0  0  0  0
  190.7300  178.0610  142.2520 C   0  0  0  0  0  2  0  0  0  0  0  0
  190.3890  177.1660  146.2830 C   0  0  0  0  0  0  0  0  0  0  0  0
  191.1390  176.1740  146.5030 O   0  0  0  0  0  0  0  0  0  0  0  0
  189.7010  177.2850  145.0350 N   0  0  0  0  0  2  0  0  0  0  0  0
  190.2210  178.1570  147.2550 O   0  0  0  0  0  0  0  0  0  0  0  0
  187.3530  177.3780  149.2980 O   0  0  0  0  0  0  0  0  0  0  0  0
  189.3800  178.0040  148.3410 N   0  0  0  0  0  2  0  0  0  0  0  0
  188.0000  177.6160  148.2450 C   0  0  0  0  0  0  0  0  0  0  0  0
  187.2880  177.5830  146.9300 C   0  0  0  0  0  2  0  0  0  0  0  0
  185.8760  179.5180  145.3370 O   0  0  0  0  0  0  0  0  0  0  0  0
  186.2860  179.9320  147.8880 O   0  0  0  0  0  1  0  0  0  0  0  0
  185.9760  178.8410  146.8860 P   0  0  0  0  0  0  0  0  0  0  0  0
  184.4940  178.1210  147.2770 O   0  0  0  0  0  1  0  0  0  0  0  0
  184.1780  178.0510  142.1020 N   0  0  0  0  0  0  0  0  0  0  0  0
  183.4010  178.1900  140.8730 C   0  0  0  0  0  2  0  0  0  0  0  0
  183.0800  176.9270  140.3750 O   0  0  0  0  0  1  0  0  0  0  0  0
  184.0290  179.3280  142.7980 C   0  0  0  0  0  2  0  0  0  0  0  0
  182.7510  179.3320  143.6230 C   0  0  2  0  0  3  0  0  0  0  0  0
  183.0780  179.2830  144.9700 F   0  0  0  0  0  0  0  0  0  0  0  0
  181.9790  178.2180  143.2930 O   0  0  0  0  0  0  0  0  0  0  0  0
  179.8620  178.2110  141.5200 O   0  0  0  0  0  0  0  0  0  0  0  0
  180.4280  180.3160  142.9520 O   0  0  0  0  0  1  0  0  0  0  0  0
  180.4120  178.8040  143.0040 P   0  0  0  0  0  0  0  0  0  0  0  0
  179.3640  178.2900  144.2340 O   0  0  0  0  0  1  0  0  0  0  0  0
  190.2680  176.6760  140.3120 O   0  0  0  0  0  0  0  0  0  0  0  0
  191.0120  177.1560  139.2250 C   0  0  0  0  0  2  0  0  0  0  0  0
  190.9460  176.2010  138.0410 C   0  0  1  0  0  3  0  0  0  0  0  0
  191.0180  174.8950  138.5290 O   0  0  0  0  0  1  0  0  0  0  0  0
  189.6200  176.4250  137.2960 C   0  0  1  0  0  3  0  0  0  0  0  0
  188.6850  175.2310  137.4450 C   0  0  0  0  0  2  0  0  0  0  0  0
  188.4260  174.6250  136.1520 N   0  0  0  0  0  2  0  0  0  0  0  0
  187.9760  172.3850  136.9440 C   0  0  0  0  0  1  0  0  0  0  0  0
  187.3760  173.6300  136.3190 C   0  0  1  0  0  3  0  0  0  0  0  0
  186.2850  174.1730  137.2370 C   0  0  0  0  0  2  0  0  0  0  0  0
  185.4970  173.1030  137.7390 O   0  0  0  0  0  0  0  0  0  0  0  0
  183.2940  173.8620  137.3320 N   0  0  0  0  0  0  0  0  0  0  0  0
  184.1710  172.9190  137.3480 C   0  0  0  0  0  0  0  0  0  0  0  0
  182.1770  171.9190  136.6720 N   0  0  0  0  0  0  0  0  0  0  0  0
  183.5940  171.6160  136.9270 C   0  0  0  0  0  3  0  0  0  0  0  0
  182.0880  173.3050  136.9160 N   0  0  0  0  0  2  0  0  0  0  0  0
  188.9280  177.6150  137.7790 N   0  0  0  0  0  2  0  0  0  0  0  0
  189.1340  177.9260  135.4560 O   0  0  0  0  0  1  0  0  0  0  0  0
  188.5530  178.4380  136.6270 C   0  0  1  0  0  3  0  0  0  0  0  0
  187.0380  178.5000  136.4630 C   0  0  1  0  0  3  0  0  0  0  0  0
  186.5840  177.6610  135.2740 C   0  0  0  0  0  1  0  0  0  0  0  0
  186.3360  178.0580  137.7360 C   0  0  0  0  0  2  0  0  0  0  0  0
  184.8980  177.6840  137.4440 C   0  0  0  0  0  1  0  0  0  0  0  0
  1  4  1  0  0  0  0
  2 24  1  1  0  0  0
  2  9  1  0  0  0  0
  3  9  1  6  0  0  0
  3  6  1  0  0  0  0
  4  2  1  0  0  0  0
  5 35  1  1  0  0  0
  5 10  1  0  0  0  0
  5 11  1  0  0  0  0
  6  7  1  0  0  0  0
  7 14  1  1  0  0  0
  8  7  1  0  0  0  0
 10  1  1  1  0  0  0
 10  3  1  0  0  0  0
 11  8  1  0  0  0  0
 12 13  2  0  0  0  0
 12 15  1  0  0  0  0
 14 12  1  0  0  0  0
 15 17  1  0  0  0  0
 18 17  1  0  0  0  0
 18 16  2  0  0  0  0
 19 18  1  0  0  0  0
 20 22  2  0  0  0  0
 22 19  1  0  0  0  0
 22 23  1  0  0  0  0
 22 21  1  0  0  0  0
 24 27  1  0  0  0  0
 25 24  1  0  0  0  0
 26 25  1  0  0  0  0
 27 28  1  0  0  0  0
 28 29  1  1  0  0  0
 30 28  1  0  0  0  0
 31 33  2  0  0  0  0
 32 33  1  0  0  0  0
 33 30  1  0  0  0  0
 33 34  1  0  0  0  0
 36 35  1  0  0  0  0
 37 38  1  1  0  0  0
 37 36  1  0  0  0  0
 39 40  1  1  0  0  0
 39 51  1  0  0  0  0
 39 37  1  0  0  0  0
 41 43  1  0  0  0  0
 41 40  1  0  0  0  0
 43 42  1  1  0  0  0
 43 44  1  0  0  0  0
 44 45  1  0  0  0  0
 46 47  2  0  0  0  0
 47 45  1  0  0  0  0
 48 50  1  0  0  0  0
 48 49  2  0  0  0  0
 49 47  1  0  0  0  0
 50 46  1  0  0  0  0
 53 52  1  6  0  0  0
 53 51  1  0  0  0  0
 54 55  1  6  0  0  0
 54 53  1  0  0  0  0
 54 56  1  0  0  0  0
 57 56  1  0  0  0  0
M  END
>  <MODEL>
5

>  <REMARK>
 VINA RESULT:      -5.7      2.810      6.708
  Name = 
  25 active torsions:
  status: ('A' for Active; 'I' for Inactive)
    1  A    between atoms: C_1  and  C_47
    2  A    between atoms: C_1  and  O_52
    3  A    between atoms: C_2  and  P_48
    4  A    between atoms: C_2  and  C_56
    5  A    between atoms: C_5  and  C_24
    6  A    between atoms: C_5  and  C_43
    7  A    between atoms: C_6  and  N_57
    8  A    between atoms: C_7  and  N_57
    9  A    between atoms: N_9  and  C_15
   10  A    between atoms: N_9  and  C_37
   11  A    between atoms: N_11  and  O_22
   12  A    between atoms: C_15  and  C_21
   13  A    between atoms: N_16  and  C_17
   14  A    between atoms: N_16  and  C_43
   15  A    between atoms: C_17  and  C_18
   16  A    between atoms: C_17  and  C_37
   17  A    between atoms: C_18  and  C_45
   18  A    between atoms: C_21  and  O_39
   19  A    between atoms: O_22  and  C_31
   20  A    between atoms: O_26  and  C_28
   21  A    between atoms: O_26  and  C_45
   22  A    between atoms: C_29  and  O_39
   23  A    between atoms: C_33  and  N_53
   24  A    between atoms: P_34  and  O_52
   25  A    between atoms: C_47  and  N_57
                            x       y       z     vdW  Elec       q    Type
                         _______ _______ _______ _____ _____    ______ ____

>  <TORSDO>
F 25

$$$$
=
 OpenBabel11042411243D

 57 59  0  0  1  0  0  0  0  0999 V2000
  190.2240  175.8190  141.5690 C   0  0  0  0  0  2  0  0  0  0  0  0
  189.5630  177.8180  142.9860 C   0  0  1  0  0  3  0  0  0  0  0  0
  189.0460  177.7560  140.4570 C   0  0  2  0  0  3  0  0  0  0  0  0
  189.5040  176.2920  142.8390 C   0  0  0  0  0  2  0  0  0  0  0  0
  190.7980  176.2740  139.1670 C   0  0  1  0  0  3  0  0  0  0  0  0
  189.0720  178.7940  139.3450 C   0  0  0  0  0  2  0  0  0  0  0  0
  188.4550  178.2600  138.0530 C   0  0  1  0  0  3  0  0  0  0  0  0
  189.3530  177.2590  137.3240 C   0  0  0  0  0  2  0  0  0  0  0  0
  188.8100  178.4650  141.8040 C   0  0  0  0  0  2  0  0  0  0  0  0
  190.3240  176.9030  140.4920 C   0  0  2  0  0  3  0  0  0  0  0  0
  189.6770  176.0140  138.1530 C   0  0  0  0  0  2  0  0  0  0  0  0
  186.1960  177.4800  137.2280 C   0  0  0  0  0  0  0  0  0  0  0  0
  186.4820  177.8280  136.0490 O   0  0  0  0  0  0  0  0  0  0  0  0
  187.1250  177.7080  138.2910 N   0  0  0  0  0  2  0  0  0  0  0  0
  184.9690  176.8700  137.5090 O   0  0  0  0  0  0  0  0  0  0  0  0
  182.0020  176.5650  135.4820 O   0  0  0  0  0  0  0  0  0  0  0  0
  183.8100  177.1680  136.8170 N   0  0  0  0  0  2  0  0  0  0  0  0
  183.1170  176.2400  135.9660 C   0  0  0  0  0  0  0  0  0  0  0  0
  183.7350  174.9390  135.5640 C   0  0  0  0  0  2  0  0  0  0  0  0
  184.6140  173.3440  137.7900 O   0  0  0  0  0  1  0  0  0  0  0  0
  182.9590  172.3630  136.0160 O   0  0  0  0  0  0  0  0  0  0  0  0
  183.3050  173.6360  136.7570 P   0  0  0  0  0  0  0  0  0  0  0  0
  181.9720  174.1340  137.6750 O   0  0  0  0  0  1  0  0  0  0  0  0
  189.0050  178.2390  144.2810 N   0  0  0  0  0  0  0  0  0  0  0  0
  190.0820  178.2820  145.2660 C   0  0  0  0  0  2  0  0  0  0  0  0
  189.6630  177.6700  146.4480 O   0  0  0  0  0  1  0  0  0  0  0  0
  188.1010  177.1870  144.7440 C   0  0  0  0  0  2  0  0  0  0  0  0
  186.7920  177.7940  145.2260 C   0  0  2  0  0  3  0  0  0  0  0  0
  186.4000  177.1610  146.3970 F   0  0  0  0  0  0  0  0  0  0  0  0
  185.8090  177.6160  144.2530 O   0  0  0  0  0  0  0  0  0  0  0  0
  183.1870  178.4620  144.4540 O   0  0  0  0  0  1  0  0  0  0  0  0
  184.9620  179.8420  143.1320 O   0  0  0  0  0  0  0  0  0  0  0  0
  184.7950  178.9750  144.3600 P   0  0  0  0  0  0  0  0  0  0  0  0
  185.1760  179.8740  145.7460 O   0  0  0  0  0  1  0  0  0  0  0  0
  191.8580  176.9920  138.5810 O   0  0  0  0  0  0  0  0  0  0  0  0
  192.7300  176.0400  138.0340 C   0  0  0  0  0  2  0  0  0  0  0  0
  193.1320  176.4070  136.6120 C   0  0  1  0  0  3  0  0  0  0  0  0
  194.4680  176.8160  136.6280 O   0  0  0  0  0  1  0  0  0  0  0  0
  192.9590  175.1720  135.7130 C   0  0  1  0  0  3  0  0  0  0  0  0
  194.3010  174.5410  135.3620 C   0  0  0  0  0  2  0  0  0  0  0  0
  194.6590  173.5340  136.3450 N   0  0  0  0  0  2  0  0  0  0  0  0
  196.8050  174.2580  135.4980 C   0  0  0  0  0  1  0  0  0  0  0  0
  196.0180  173.0920  136.0660 C   0  0  1  0  0  3  0  0  0  0  0  0
  196.6860  172.6180  137.3540 C   0  0  0  0  0  2  0  0  0  0  0  0
  197.5610  173.6240  137.8440 O   0  0  0  0  0  0  0  0  0  0  0  0
  195.9970  174.6350  139.3020 N   0  0  0  0  0  0  0  0  0  0  0  0
  197.2100  174.4500  138.9110 C   0  0  0  0  0  0  0  0  0  0  0  0
  197.3360  175.9780  140.6670 N   0  0  0  0  0  0  0  0  0  0  0  0
  198.1790  175.2390  139.7140 C   0  0  0  0  0  3  0  0  0  0  0  0
  196.0320  175.5330  140.3650 N   0  0  0  0  0  2  0  0  0  0  0  0
  192.1250  174.1580  136.3490 N   0  0  0  0  0  2  0  0  0  0  0  0
  191.6720  172.1150  135.2750 O   0  0  0  0  0  1  0  0  0  0  0  0
  191.3430  173.4790  135.3130 C   0  0  1  0  0  3  0  0  0  0  0  0
  189.8470  173.6380  135.5590 C   0  0  1  0  0  3  0  0  0  0  0  0
  189.2410  174.6500  134.5940 C   0  0  0  0  0  1  0  0  0  0  0  0
  189.1340  172.3000  135.4570 C   0  0  0  0  0  2  0  0  0  0  0  0
  187.6830  172.4420  135.8650 C   0  0  0  0  0  1  0  0  0  0  0  0
  1  4  1  0  0  0  0
  2 24  1  1  0  0  0
  3  6  1  6  0  0  0
  3 10  1  0  0  0  0
  3  9  1  0  0  0  0
  4  2  1  0  0  0  0
  5 35  1  6  0  0  0
  5 10  1  0  0  0  0
  7 14  1  1  0  0  0
  7  6  1  0  0  0  0
  8  7  1  0  0  0  0
  8 11  1  0  0  0  0
  9  2  1  0  0  0  0
 10  1  1  1  0  0  0
 11  5  1  0  0  0  0
 12 15  1  0  0  0  0
 12 14  1  0  0  0  0
 13 12  2  0  0  0  0
 16 18  2  0  0  0  0
 17 15  1  0  0  0  0
 18 17  1  0  0  0  0
 19 18  1  0  0  0  0
 19 22  1  0  0  0  0
 21 22  2  0  0  0  0
 22 23  1  0  0  0  0
 22 20  1  0  0  0  0
 24 27  1  0  0  0  0
 24 25  1  0  0  0  0
 25 26  1  0  0  0  0
 27 28  1  0  0  0  0
 28 29  1  1  0  0  0
 30 33  1  0  0  0  0
 30 28  1  0  0  0  0
 32 33  2  0  0  0  0
 33 31  1  0  0  0  0
 33 34  1  0  0  0  0
 36 35  1  0  0  0  0
 37 38  1  1  0  0  0
 37 36  1  0  0  0  0
 39 40  1  1  0  0  0
 39 51  1  0  0  0  0
 39 37  1  0  0  0  0
 40 41  1  0  0  0  0
 43 42  1  1  0  0  0
 43 41  1  0  0  0  0
 43 44  1  0  0  0  0
 44 45  1  0  0  0  0
 45 47  1  0  0  0  0
 46 50  1  0  0  0  0
 47 46  2  0  0  0  0
 47 49  1  0  0  0  0
 49 48  2  0  0  0  0
 50 48  1  0  0  0  0
 53 52  1  1  0  0  0
 53 54  1  0  0  0  0
 53 51  1  0  0  0  0
 54 55  1  6  0  0  0
 56 54  1  0  0  0  0
 56 57  1  0  0  0  0
M  END
>  <MODEL>
6

>  <REMARK>
 VINA RESULT:      -5.7      2.683      5.583
  Name = 
  25 active torsions:
  status: ('A' for Active; 'I' for Inactive)
    1  A    between atoms: C_1  and  C_47
    2  A    between atoms: C_1  and  O_52
    3  A    between atoms: C_2  and  P_48
    4  A    between atoms: C_2  and  C_56
    5  A    between atoms: C_5  and  C_24
    6  A    between atoms: C_5  and  C_43
    7  A    between atoms: C_6  and  N_57
    8  A    between atoms: C_7  and  N_57
    9  A    between atoms: N_9  and  C_15
   10  A    between atoms: N_9  and  C_37
   11  A    between atoms: N_11  and  O_22
   12  A    between atoms: C_15  and  C_21
   13  A    between atoms: N_16  and  C_17
   14  A    between atoms: N_16  and  C_43
   15  A    between atoms: C_17  and  C_18
   16  A    between atoms: C_17  and  C_37
   17  A    between atoms: C_18  and  C_45
   18  A    between atoms: C_21  and  O_39
   19  A    between atoms: O_22  and  C_31
   20  A    between atoms: O_26  and  C_28
   21  A    between atoms: O_26  and  C_45
   22  A    between atoms: C_29  and  O_39
   23  A    between atoms: C_33  and  N_53
   24  A    between atoms: P_34  and  O_52
   25  A    between atoms: C_47  and  N_57
                            x       y       z     vdW  Elec       q    Type
                         _______ _______ _______ _____ _____    ______ ____

>  <TORSDO>
F 25

$$$$
=
 OpenBabel11042411243D

 57 59  0  0  1  0  0  0  0  0999 V2000
  189.6250  175.7240  142.4330 C   0  0  0  0  0  2  0  0  0  0  0  0
  189.1480  177.6600  144.0050 C   0  0  1  0  0  3  0  0  0  0  0  0
  188.7230  177.8770  141.4680 C   0  0  2  0  0  3  0  0  0  0  0  0
  188.9170  176.1710  143.7210 C   0  0  0  0  0  2  0  0  0  0  0  0
  190.3370  176.3120  140.0990 C   0  0  1  0  0  3  0  0  0  0  0  0
  188.9110  178.9960  140.4540 C   0  0  0  0  0  2  0  0  0  0  0  0
  188.2850  178.6520  139.1030 C   0  0  1  0  0  3  0  0  0  0  0  0
  189.0870  177.6170  138.3120 C   0  0  0  0  0  2  0  0  0  0  0  0
  188.5210  178.4910  142.8660 C   0  0  0  0  0  2  0  0  0  0  0  0
  189.8900  176.8780  141.4610 C   0  0  2  0  0  3  0  0  0  0  0  0
  189.2330  176.2760  139.0350 C   0  0  0  0  0  2  0  0  0  0  0  0
  185.9690  178.2760  138.1630 C   0  0  0  0  0  0  0  0  0  0  0  0
  186.3250  178.7370  137.0430 O   0  0  0  0  0  0  0  0  0  0  0  0
  186.8920  178.2440  139.2540 N   0  0  0  0  0  2  0  0  0  0  0  0
  184.6690  177.7930  138.3510 O   0  0  0  0  0  0  0  0  0  0  0  0
  182.6710  174.8990  137.5540 O   0  0  0  0  0  0  0  0  0  0  0  0
  184.2120  176.6310  137.7590 N   0  0  0  0  0  2  0  0  0  0  0  0
  183.0890  175.8700  138.2350 C   0  0  0  0  0  0  0  0  0  0  0  0
  182.4680  176.1460  139.5680 C   0  0  0  0  0  2  0  0  0  0  0  0
  181.2500  178.7510  139.6340 O   0  0  0  0  0  1  0  0  0  0  0  0
  179.9040  176.6280  140.3630 O   0  0  0  0  0  1  0  0  0  0  0  0
  180.9380  177.1080  139.3680 P   0  0  0  0  0  0  0  0  0  0  0  0
  180.3460  176.9010  137.7960 O   0  0  0  0  0  0  0  0  0  0  0  0
  188.5950  178.0320  145.3170 N   0  0  0  0  0  0  0  0  0  0  0  0
  189.3830  177.3830  146.3610 C   0  0  0  0  0  2  0  0  0  0  0  0
  188.9000  177.7580  147.6160 O   0  0  0  0  0  1  0  0  0  0  0  0
  187.2590  177.4480  145.4230 C   0  0  0  0  0  2  0  0  0  0  0  0
  186.1990  178.5070  145.1580 C   0  0  2  0  0  3  0  0  0  0  0  0
  186.1340  179.3680  146.2430 F   0  0  0  0  0  0  0  0  0  0  0  0
  184.9590  177.8920  144.9800 O   0  0  0  0  0  0  0  0  0  0  0  0
  184.5840  180.4180  143.9300 O   0  0  0  0  0  1  0  0  0  0  0  0
  182.6640  178.6530  143.9420 O   0  0  0  0  0  1  0  0  0  0  0  0
  184.1620  178.7890  143.7790 P   0  0  0  0  0  0  0  0  0  0  0  0
  184.6180  178.2340  142.2430 O   0  0  0  0  0  0  0  0  0  0  0  0
  191.4950  176.9460  139.6080 O   0  0  0  0  0  0  0  0  0  0  0  0
  192.1660  175.9970  138.8230 C   0  0  0  0  0  2  0  0  0  0  0  0
  192.5970  176.5870  137.4870 C   0  0  1  0  0  3  0  0  0  0  0  0
  193.9220  177.0130  137.6030 O   0  0  0  0  0  1  0  0  0  0  0  0
  192.4740  175.5040  136.4030 C   0  0  1  0  0  3  0  0  0  0  0  0
  193.8330  174.9190  136.0370 C   0  0  0  0  0  2  0  0  0  0  0  0
  194.0100  173.6200  136.6600 N   0  0  0  0  0  2  0  0  0  0  0  0
  195.8960  174.0110  135.1980 C   0  0  0  0  0  1  0  0  0  0  0  0
  195.1950  172.9990  136.0830 C   0  0  1  0  0  3  0  0  0  0  0  0
  196.1460  172.5620  137.1940 C   0  0  0  0  0  2  0  0  0  0  0  0
  197.2880  173.4070  137.2120 O   0  0  0  0  0  0  0  0  0  0  0  0
  198.4890  175.1620  138.2480 N   0  0  0  0  0  0  0  0  0  0  0  0
  197.4890  174.3520  138.2180 C   0  0  0  0  0  0  0  0  0  0  0  0
  197.2450  175.5880  140.1800 N   0  0  0  0  0  0  0  0  0  0  0  0
  196.5950  174.5290  139.3910 C   0  0  0  0  0  3  0  0  0  0  0  0
  198.3700  175.9320  139.4020 N   0  0  0  0  0  2  0  0  0  0  0  0
  191.6040  174.4130  136.8310 N   0  0  0  0  0  2  0  0  0  0  0  0
  190.9670  172.7080  135.3420 O   0  0  0  0  0  1  0  0  0  0  0  0
  190.7350  174.0410  135.7130 C   0  0  1  0  0  3  0  0  0  0  0  0
  189.2640  174.2240  136.0740 C   0  0  1  0  0  3  0  0  0  0  0  0
  188.6240  175.3090  135.2150 C   0  0  0  0  0  1  0  0  0  0  0  0
  188.5070  172.9140  135.9430 C   0  0  0  0  0  2  0  0  0  0  0  0
  187.4230  173.0330  134.8920 C   0  0  0  0  0  1  0  0  0  0  0  0
  1  4  1  0  0  0  0
  2 24  1  1  0  0  0
  3  6  1  6  0  0  0
  3  9  1  0  0  0  0
  4  2  1  0  0  0  0
  5 35  1  6  0  0  0
  5 10  1  0  0  0  0
  7 14  1  1  0  0  0
  7  6  1  0  0  0  0
  8 11  1  0  0  0  0
  8  7  1  0  0  0  0
  9  2  1  0  0  0  0
 10  3  1  0  0  0  0
 10  1  1  1  0  0  0
 11  5  1  0  0  0  0
 12 15  1  0  0  0  0
 12 14  1  0  0  0  0
 13 12  2  0  0  0  0
 16 18  2  0  0  0  0
 17 18  1  0  0  0  0
 17 15  1  0  0  0  0
 18 19  1  0  0  0  0
 22 19  1  0  0  0  0
 22 20  1  0  0  0  0
 22 21  1  0  0  0  0
 23 22  2  0  0  0  0
 24 27  1  0  0  0  0
 24 25  1  0  0  0  0
 25 26  1  0  0  0  0
 28 27  1  0  0  0  0
 28 29  1  1  0  0  0
 30 28  1  0  0  0  0
 33 31  1  0  0  0  0
 33 32  1  0  0  0  0
 33 30  1  0  0  0  0
 34 33  2  0  0  0  0
 36 35  1  0  0  0  0
 37 38  1  1  0  0  0
 37 36  1  0  0  0  0
 39 40  1  1  0  0  0
 39 51  1  0  0  0  0
 39 37  1  0  0  0  0
 40 41  1  0  0  0  0
 43 42  1  6  0  0  0
 43 41  1  0  0  0  0
 43 44  1  0  0  0  0
 44 45  1  0  0  0  0
 45 47  1  0  0  0  0
 46 50  1  0  0  0  0
 47 46  2  0  0  0  0
 47 49  1  0  0  0  0
 49 48  2  0  0  0  0
 50 48  1  0  0  0  0
 53 52  1  1  0  0  0
 53 54  1  0  0  0  0
 53 51  1  0  0  0  0
 54 55  1  6  0  0  0
 56 54  1  0  0  0  0
 57 56  1  0  0  0  0
M  END
>  <MODEL>
7

>  <REMARK>
 VINA RESULT:      -5.3      2.365      5.402
  Name = 
  25 active torsions:
  status: ('A' for Active; 'I' for Inactive)
    1  A    between atoms: C_1  and  C_47
    2  A    between atoms: C_1  and  O_52
    3  A    between atoms: C_2  and  P_48
    4  A    between atoms: C_2  and  C_56
    5  A    between atoms: C_5  and  C_24
    6  A    between atoms: C_5  and  C_43
    7  A    between atoms: C_6  and  N_57
    8  A    between atoms: C_7  and  N_57
    9  A    between atoms: N_9  and  C_15
   10  A    between atoms: N_9  and  C_37
   11  A    between atoms: N_11  and  O_22
   12  A    between atoms: C_15  and  C_21
   13  A    between atoms: N_16  and  C_17
   14  A    between atoms: N_16  and  C_43
   15  A    between atoms: C_17  and  C_18
   16  A    between atoms: C_17  and  C_37
   17  A    between atoms: C_18  and  C_45
   18  A    between atoms: C_21  and  O_39
   19  A    between atoms: O_22  and  C_31
   20  A    between atoms: O_26  and  C_28
   21  A    between atoms: O_26  and  C_45
   22  A    between atoms: C_29  and  O_39
   23  A    between atoms: C_33  and  N_53
   24  A    between atoms: P_34  and  O_52
   25  A    between atoms: C_47  and  N_57
                            x       y       z     vdW  Elec       q    Type
                         _______ _______ _______ _____ _____    ______ ____

>  <TORSDO>
F 25

$$$$
=
 OpenBabel11042411243D

 57 59  0  0  1  0  0  0  0  0999 V2000
  189.9760  175.9110  141.7650 C   0  0  0  0  0  2  0  0  0  0  0  0
  189.2510  177.8770  143.1970 C   0  0  1  0  0  3  0  0  0  0  0  0
  188.7770  177.8390  140.6590 C   0  0  2  0  0  3  0  0  0  0  0  0
  189.2240  176.3530  143.0290 C   0  0  0  0  0  2  0  0  0  0  0  0
  190.5790  176.4100  139.3800 C   0  0  1  0  0  3  0  0  0  0  0  0
  188.8000  178.8930  139.5620 C   0  0  0  0  0  2  0  0  0  0  0  0
  188.2160  178.3640  138.2520 C   0  0  1  0  0  3  0  0  0  0  0  0
  189.1450  177.3910  137.5250 C   0  0  0  0  0  2  0  0  0  0  0  0
  188.5040  178.5250  142.0110 C   0  0  0  0  0  2  0  0  0  0  0  0
  190.0710  177.0120  140.7050 C   0  0  2  0  0  3  0  0  0  0  0  0
  189.4810  176.1420  138.3430 C   0  0  0  0  0  2  0  0  0  0  0  0
  185.9390  177.6690  137.4020 C   0  0  0  0  0  0  0  0  0  0  0  0
  186.1950  178.1470  136.2620 O   0  0  0  0  0  0  0  0  0  0  0  0
  186.8930  177.7830  138.4610 N   0  0  0  0  0  2  0  0  0  0  0  0
  184.7200  177.0260  137.6450 O   0  0  0  0  0  0  0  0  0  0  0  0
  183.3620  173.7580  136.9540 O   0  0  0  0  0  0  0  0  0  0  0  0
  184.5680  175.6550  137.5530 N   0  0  0  0  0  2  0  0  0  0  0  0
  183.3600  175.0040  137.1270 C   0  0  0  0  0  0  0  0  0  0  0  0
  182.0770  175.7570  136.9800 C   0  0  0  0  0  2  0  0  0  0  0  0
  180.3090  174.2630  138.6880 O   0  0  0  0  0  1  0  0  0  0  0  0
  180.1490  176.8720  138.5560 O   0  0  0  0  0  0  0  0  0  0  0  0
  181.1420  175.7300  138.5390 P   0  0  0  0  0  0  0  0  0  0  0  0
  182.2140  175.8960  139.8400 O   0  0  0  0  0  1  0  0  0  0  0  0
  188.6630  178.2690  144.4870 N   0  0  0  0  0  0  0  0  0  0  0  0
  189.6830  178.1470  145.5260 C   0  0  0  0  0  2  0  0  0  0  0  0
  189.1560  177.4680  146.6250 O   0  0  0  0  0  1  0  0  0  0  0  0
  187.6410  177.2830  144.8350 C   0  0  0  0  0  2  0  0  0  0  0  0
  186.2640  177.9290  144.8330 C   0  0  2  0  0  3  0  0  0  0  0  0
  185.5630  177.5130  145.9550 F   0  0  0  0  0  0  0  0  0  0  0  0
  185.5700  177.5450  143.6850 O   0  0  0  0  0  0  0  0  0  0  0  0
  183.0270  178.6220  143.6770 O   0  0  0  0  0  1  0  0  0  0  0  0
  184.7040  179.0850  141.7350 O   0  0  0  0  0  0  0  0  0  0  0  0
  184.6360  178.8890  143.2330 P   0  0  0  0  0  0  0  0  0  0  0  0
  185.2070  180.2820  144.0140 O   0  0  0  0  0  1  0  0  0  0  0  0
  191.6340  177.1570  138.8200 O   0  0  0  0  0  0  0  0  0  0  0  0
  192.2250  176.3430  137.8430 C   0  0  0  0  0  2  0  0  0  0  0  0
  193.7320  176.2490  138.0340 C   0  0  1  0  0  3  0  0  0  0  0  0
  194.0370  176.6870  139.3250 O   0  0  0  0  0  1  0  0  0  0  0  0
  194.1670  174.7870  137.8450 C   0  0  1  0  0  3  0  0  0  0  0  0
  193.1270  173.9890  137.0690 C   0  0  0  0  0  2  0  0  0  0  0  0
  193.4770  173.9350  135.6610 N   0  0  0  0  0  2  0  0  0  0  0  0
  193.5380  171.5180  135.7240 C   0  0  0  0  0  1  0  0  0  0  0  0
  192.8840  172.7320  135.0920 C   0  0  1  0  0  3  0  0  0  0  0  0
  191.3870  172.7020  135.3840 C   0  0  0  0  0  2  0  0  0  0  0  0
  190.7370  173.7560  134.6880 O   0  0  0  0  0  0  0  0  0  0  0  0
  188.8980  175.2410  134.5940 N   0  0  0  0  0  0  0  0  0  0  0  0
  189.4250  174.1300  134.9770 C   0  0  0  0  0  0  0  0  0  0  0  0
  187.2650  174.1430  135.8540 N   0  0  0  0  0  0  0  0  0  0  0  0
  188.4800  173.3150  135.7820 C   0  0  0  0  0  3  0  0  0  0  0  0
  187.5960  175.2780  135.0860 N   0  0  0  0  0  2  0  0  0  0  0  0
  195.4400  174.6940  137.1400 N   0  0  0  0  0  2  0  0  0  0  0  0
  195.8160  173.6340  139.2060 O   0  0  0  0  0  1  0  0  0  0  0  0
  196.4390  174.1270  138.0490 C   0  0  1  0  0  3  0  0  0  0  0  0
  197.2260  173.0080  137.3750 C   0  0  1  0  0  3  0  0  0  0  0  0
  196.5460  171.6610  137.5850 C   0  0  0  0  0  1  0  0  0  0  0  0
  197.4150  173.2930  135.8940 C   0  0  0  0  0  2  0  0  0  0  0  0
  198.6400  174.1570  135.6750 C   0  0  0  0  0  1  0  0  0  0  0  0
  1  4  1  0  0  0  0
  2 24  1  1  0  0  0
  3  6  1  6  0  0  0
  3 10  1  0  0  0  0
  3  9  1  0  0  0  0
  4  2  1  0  0  0  0
  5 35  1  6  0  0  0
  5 10  1  0  0  0  0
  7 14  1  1  0  0  0
  7  6  1  0  0  0  0
  8  7  1  0  0  0  0
  8 11  1  0  0  0  0
  9  2  1  0  0  0  0
 10  1  1  1  0  0  0
 11  5  1  0  0  0  0
 12 15  1  0  0  0  0
 12 14  1  0  0  0  0
 13 12  2  0  0  0  0
 16 18  2  0  0  0  0
 17 15  1  0  0  0  0
 18 17  1  0  0  0  0
 19 18  1  0  0  0  0
 19 22  1  0  0  0  0
 22 21  2  0  0  0  0
 22 20  1  0  0  0  0
 22 23  1  0  0  0  0
 24 27  1  0  0  0  0
 24 25  1  0  0  0  0
 25 26  1  0  0  0  0
 28 27  1  0  0  0  0
 28 29  1  1  0  0  0
 30 28  1  0  0  0  0
 32 33  2  0  0  0  0
 33 31  1  0  0  0  0
 33 30  1  0  0  0  0
 33 34  1  0  0  0  0
 36 37  1  0  0  0  0
 36 35  1  0  0  0  0
 37 38  1  1  0  0  0
 39 40  1  6  0  0  0
 39 37  1  0  0  0  0
 41 40  1  0  0  0  0
 43 44  1  0  0  0  0
 43 41  1  0  0  0  0
 43 42  1  1  0  0  0
 45 47  1  0  0  0  0
 45 44  1  0  0  0  0
 46 47  2  0  0  0  0
 46 50  1  0  0  0  0
 47 49  1  0  0  0  0
 49 48  2  0  0  0  0
 50 48  1  0  0  0  0
 51 39  1  0  0  0  0
 51 53  1  0  0  0  0
 53 52  1  1  0  0  0
 54 55  1  6  0  0  0
 54 53  1  0  0  0  0
 56 54  1  0  0  0  0
 57 56  1  0  0  0  0
M  END
>  <MODEL>
8

>  <REMARK>
 VINA RESULT:      -5.3      2.408      3.638
  Name = 
  25 active torsions:
  status: ('A' for Active; 'I' for Inactive)
    1  A    between atoms: C_1  and  C_47
    2  A    between atoms: C_1  and  O_52
    3  A    between atoms: C_2  and  P_48
    4  A    between atoms: C_2  and  C_56
    5  A    between atoms: C_5  and  C_24
    6  A    between atoms: C_5  and  C_43
    7  A    between atoms: C_6  and  N_57
    8  A    between atoms: C_7  and  N_57
    9  A    between atoms: N_9  and  C_15
   10  A    between atoms: N_9  and  C_37
   11  A    between atoms: N_11  and  O_22
   12  A    between atoms: C_15  and  C_21
   13  A    between atoms: N_16  and  C_17
   14  A    between atoms: N_16  and  C_43
   15  A    between atoms: C_17  and  C_18
   16  A    between atoms: C_17  and  C_37
   17  A    between atoms: C_18  and  C_45
   18  A    between atoms: C_21  and  O_39
   19  A    between atoms: O_22  and  C_31
   20  A    between atoms: O_26  and  C_28
   21  A    between atoms: O_26  and  C_45
   22  A    between atoms: C_29  and  O_39
   23  A    between atoms: C_33  and  N_53
   24  A    between atoms: P_34  and  O_52
   25  A    between atoms: C_47  and  N_57
                            x       y       z     vdW  Elec       q    Type
                         _______ _______ _______ _____ _____    ______ ____

>  <TORSDO>
F 25

$$$$
=
 OpenBabel11042411243D

 57 59  0  0  1  0  0  0  0  0999 V2000
  190.1740  175.9660  141.4130 C   0  0  0  0  0  2  0  0  0  0  0  0
  188.9810  177.8820  142.5750 C   0  0  1  0  0  3  0  0  0  0  0  0
  188.8210  177.5780  140.0160 C   0  0  2  0  0  3  0  0  0  0  0  0
  189.2180  176.3670  142.5460 C   0  0  0  0  0  2  0  0  0  0  0  0
  190.9660  176.3840  139.0680 C   0  0  1  0  0  3  0  0  0  0  0  0
  188.8050  178.5370  138.8350 C   0  0  0  0  0  2  0  0  0  0  0  0
  188.4710  177.8220  137.5260 C   0  0  1  0  0  3  0  0  0  0  0  0
  189.6230  176.9690  136.9920 C   0  0  0  0  0  2  0  0  0  0  0  0
  188.2850  178.3050  141.2640 C   0  0  0  0  0  2  0  0  0  0  0  0
  190.2160  176.9860  140.2720 C   0  0  2  0  0  3  0  0  0  0  0  0
  190.0550  175.8580  137.9510 C   0  0  0  0  0  2  0  0  0  0  0  0
  185.9670  177.6600  137.8400 C   0  0  0  0  0  0  0  0  0  0  0  0
  185.8830  178.9110  137.9870 O   0  0  0  0  0  0  0  0  0  0  0  0
  187.2430  177.0430  137.6480 N   0  0  0  0  0  2  0  0  0  0  0  0
  184.8180  176.8640  137.8650 O   0  0  0  0  0  0  0  0  0  0  0  0
  181.8290  177.3950  139.8110 O   0  0  0  0  0  0  0  0  0  0  0  0
  183.9140  176.8890  138.9100 N   0  0  0  0  0  2  0  0  0  0  0  0
  182.6320  177.5380  138.8530 C   0  0  0  0  0  0  0  0  0  0  0  0
  182.2710  178.4560  137.7300 C   0  0  0  0  0  2  0  0  0  0  0  0
  181.1680  181.0510  137.1610 O   0  0  0  0  0  0  0  0  0  0  0  0
  183.2180  180.7950  138.7670 O   0  0  0  0  0  1  0  0  0  0  0  0
  181.9230  180.1250  138.3610 P   0  0  0  0  0  0  0  0  0  0  0  0
  180.8990  180.0150  139.7050 O   0  0  0  0  0  1  0  0  0  0  0  0
  188.1910  178.2630  143.7560 N   0  0  0  0  0  0  0  0  0  0  0  0
  188.9670  177.9670  144.9580 C   0  0  0  0  0  2  0  0  0  0  0  0
  190.1700  178.6740  144.9260 O   0  0  0  0  0  1  0  0  0  0  0  0
  187.0270  177.3800  143.8230 C   0  0  0  0  0  2  0  0  0  0  0  0
  185.7480  178.2000  143.9000 C   0  0  2  0  0  3  0  0  0  0  0  0
  185.4620  178.7170  142.6450 F   0  0  0  0  0  0  0  0  0  0  0  0
  185.9190  179.2480  144.8040 O   0  0  0  0  0  0  0  0  0  0  0  0
  183.6540  178.6360  146.2620 O   0  0  0  0  0  0  0  0  0  0  0  0
  185.7910  179.5960  147.4090 O   0  0  0  0  0  1  0  0  0  0  0  0
  185.3440  178.6750  146.2960 P   0  0  0  0  0  0  0  0  0  0  0  0
  185.9330  177.1110  146.5820 O   0  0  0  0  0  1  0  0  0  0  0  0
  191.9470  177.2550  138.5550 O   0  0  0  0  0  0  0  0  0  0  0  0
  193.1620  176.5560  138.5960 C   0  0  0  0  0  2  0  0  0  0  0  0
  193.4560  175.8740  137.2660 C   0  0  1  0  0  3  0  0  0  0  0  0
  194.3260  176.6900  136.5400 O   0  0  0  0  0  1  0  0  0  0  0  0
  194.1030  174.5070  137.5410 C   0  0  1  0  0  3  0  0  0  0  0  0
  193.3750  173.3850  136.8100 C   0  0  0  0  0  2  0  0  0  0  0  0
  192.2920  173.9230  136.0060 N   0  0  0  0  0  2  0  0  0  0  0  0
  192.7350  171.6660  135.2610 C   0  0  0  0  0  1  0  0  0  0  0  0
  191.9340  172.9280  135.0050 C   0  0  1  0  0  3  0  0  0  0  0  0
  190.4460  172.6040  135.1030 C   0  0  0  0  0  2  0  0  0  0  0  0
  189.6810  173.7900  134.9410 O   0  0  0  0  0  0  0  0  0  0  0  0
  188.0590  173.6660  136.6570 N   0  0  0  0  0  0  0  0  0  0  0  0
  188.3810  173.9010  135.4330 C   0  0  0  0  0  0  0  0  0  0  0  0
  186.0720  174.2020  135.5500 N   0  0  0  0  0  0  0  0  0  0  0  0
  187.2020  174.2750  134.6100 C   0  0  0  0  0  3  0  0  0  0  0  0
  186.6830  173.8520  136.7720 N   0  0  0  0  0  2  0  0  0  0  0  0
  195.5040  174.4860  137.1360 N   0  0  0  0  0  2  0  0  0  0  0  0
  195.7850  173.2630  139.1260 O   0  0  0  0  0  1  0  0  0  0  0  0
  196.3320  174.2790  138.3270 C   0  0  1  0  0  3  0  0  0  0  0  0
  197.7640  173.9180  137.9460 C   0  0  1  0  0  3  0  0  0  0  0  0
  198.0740  174.3510  136.5180 C   0  0  0  0  0  1  0  0  0  0  0  0
  198.7550  174.5270  138.9230 C   0  0  0  0  0  2  0  0  0  0  0  0
  198.0290  175.3380  139.9760 C   0  0  0  0  0  1  0  0  0  0  0  0
  1  4  1  0  0  0  0
  2 24  1  1  0  0  0
  3  6  1  6  0  0  0
  3 10  1  0  0  0  0
  3  9  1  0  0  0  0
  4  2  1  0  0  0  0
  5 35  1  6  0  0  0
  5 10  1  0  0  0  0
  7 14  1  1  0  0  0
  7  6  1  0  0  0  0
  8  7  1  0  0  0  0
  8 11  1  0  0  0  0
  9  2  1  0  0  0  0
 10  1  1  1  0  0  0
 11  5  1  0  0  0  0
 12 15  1  0  0  0  0
 12 13  2  0  0  0  0
 14 12  1  0  0  0  0
 15 17  1  0  0  0  0
 18 17  1  0  0  0  0
 18 16  2  0  0  0  0
 19 22  1  0  0  0  0
 19 18  1  0  0  0  0
 20 22  2  0  0  0  0
 22 21  1  0  0  0  0
 22 23  1  0  0  0  0
 24 27  1  0  0  0  0
 24 25  1  0  0  0  0
 26 25  1  0  0  0  0
 27 28  1  0  0  0  0
 28 29  1  6  0  0  0
 28 30  1  0  0  0  0
 30 33  1  0  0  0  0
 31 33  2  0  0  0  0
 33 34  1  0  0  0  0
 33 32  1  0  0  0  0
 35 36  1  0  0  0  0
 37 38  1  6  0  0  0
 37 39  1  0  0  0  0
 37 36  1  0  0  0  0
 39 40  1  6  0  0  0
 41 40  1  0  0  0  0
 43 44  1  0  0  0  0
 43 42  1  1  0  0  0
 43 41  1  0  0  0  0
 45 44  1  0  0  0  0
 45 47  1  0  0  0  0
 46 50  1  0  0  0  0
 47 46  2  0  0  0  0
 48 50  1  0  0  0  0
 49 47  1  0  0  0  0
 49 48  2  0  0  0  0
 51 39  1  0  0  0  0
 51 53  1  0  0  0  0
 53 52  1  1  0  0  0
 54 55  1  6  0  0  0
 54 53  1  0  0  0  0
 54 56  1  0  0  0  0
 56 57  1  0  0  0  0
M  END
>  <MODEL>
9

>  <REMARK>
 VINA RESULT:      -5.2      2.259      3.276
  Name = 
  25 active torsions:
  status: ('A' for Active; 'I' for Inactive)
    1  A    between atoms: C_1  and  C_47
    2  A    between atoms: C_1  and  O_52
    3  A    between atoms: C_2  and  P_48
    4  A    between atoms: C_2  and  C_56
    5  A    between atoms: C_5  and  C_24
    6  A    between atoms: C_5  and  C_43
    7  A    between atoms: C_6  and  N_57
    8  A    between atoms: C_7  and  N_57
    9  A    between atoms: N_9  and  C_15
   10  A    between atoms: N_9  and  C_37
   11  A    between atoms: N_11  and  O_22
   12  A    between atoms: C_15  and  C_21
   13  A    between atoms: N_16  and  C_17
   14  A    between atoms: N_16  and  C_43
   15  A    between atoms: C_17  and  C_18
   16  A    between atoms: C_17  and  C_37
   17  A    between atoms: C_18  and  C_45
   18  A    between atoms: C_21  and  O_39
   19  A    between atoms: O_22  and  C_31
   20  A    between atoms: O_26  and  C_28
   21  A    between atoms: O_26  and  C_45
   22  A    between atoms: C_29  and  O_39
   23  A    between atoms: C_33  and  N_53
   24  A    between atoms: P_34  and  O_52
   25  A    between atoms: C_47  and  N_57
                            x       y       z     vdW  Elec       q    Type
                         _______ _______ _______ _____ _____    ______ ____

>  <TORSDO>
F 25

$$$$
