=
 OpenBabel11042411193D

 25 28  0  0  1  0  0  0  0  0999 V2000
  187.1490  177.8760  142.4630 C   0  0  0  0  0  0  0  0  0  0  0  0
  184.3560  179.9310  143.6300 O   0  0  0  0  0  0  0  0  0  0  0  0
  185.2430  179.1330  143.3790 C   0  0  0  0  0  0  0  0  0  0  0  0
  185.9130  178.9540  141.7370 S   0  0  0  0  0  0  0  0  0  0  0  0
  185.8480  178.2750  144.4310 C   0  0  0  0  0  2  0  0  0  0  0  0
  187.0050  177.6160  143.7680 C   0  0  0  0  0  0  0  0  0  0  0  0
  187.9290  176.7500  144.5850 C   0  0  1  0  0  3  0  0  0  0  0  0
  189.9080  177.9730  147.4230 C   0  0  0  0  0  3  0  0  0  0  0  0
  187.1620  177.5050  146.9490 C   0  0  0  0  0  3  0  0  0  0  0  0
  189.4520  177.4890  146.1990 C   0  0  0  0  0  0  0  0  0  0  0  0
  189.3630  176.7260  144.0080 C   0  0  0  0  0  3  0  0  0  0  0  0
  188.1240  177.2660  145.9660 C   0  0  0  0  0  0  0  0  0  0  0  0
  188.9610  178.2290  148.4280 C   0  0  0  0  0  3  0  0  0  0  0  0
  190.2530  177.1800  145.0780 N   0  0  0  0  0  0  0  0  0  0  0  0
  187.5920  177.9940  148.1920 C   0  0  0  0  0  3  0  0  0  0  0  0
  188.2430  177.3530  141.7030 N   0  0  0  0  0  2  0  0  0  0  0  0
  191.9590  176.9030  138.8270 C   0  0  0  0  0  0  0  0  0  0  0  0
  193.0570  177.0350  139.7240 N   0  0  0  0  0  1  0  0  0  0  0  0
  189.4680  177.0690  138.4120 C   0  0  0  0  0  2  0  0  0  0  0  0
  190.6330  177.2320  139.2540 N   0  0  0  0  0  0  0  0  0  0  0  0
  187.5640  178.4840  138.6020 O   0  0  0  0  0  1  0  0  0  0  0  0
  188.8430  178.0440  140.5730 C   0  0  1  0  0  3  0  0  0  0  0  0
  190.3360  177.7740  140.5630 C   0  0  0  0  0  2  0  0  0  0  0  0
  188.2840  177.4890  139.2640 C   0  0  2  0  0  3  0  0  0  0  0  0
  192.1630  176.4830  137.6580 O   0  0  0  0  0  0  0  0  0  0  0  0
  1  6  2  0  0  0  0
  3  2  2  0  0  0  0
  3  5  1  0  0  0  0
  4  1  1  0  0  0  0
  4  3  1  0  0  0  0
  6  5  1  0  0  0  0
  7  6  1  6  0  0  0
  7 12  1  0  0  0  0
  8 13  1  0  0  0  0
  9 15  1  0  0  0  0
 10  8  2  0  0  0  0
 11  7  1  0  0  0  0
 11 14  2  0  0  0  0
 12 10  1  0  0  0  0
 12  9  2  0  0  0  0
 14 10  1  0  0  0  0
 15 13  2  0  0  0  0
 16  1  1  0  0  0  0
 17 20  1  0  0  0  0
 17 18  1  0  0  0  0
 19 20  1  0  0  0  0
 19 24  1  0  0  0  0
 20 23  1  0  0  0  0
 22 16  1  1  0  0  0
 23 22  1  0  0  0  0
 24 21  1  6  0  0  0
 24 22  1  0  0  0  0
 25 17  2  0  0  0  0
M  END
>  <MODEL>
1

>  <REMARK>
 VINA RESULT:      -8.6      0.000      0.000
  Name = 
  3 active torsions:
  status: ('A' for Active; 'I' for Inactive)
    1  A    between atoms: C_1  and  N_13
    2  A    between atoms: C_8  and  C_21
    3  A    between atoms: N_13  and  C_14
                            x       y       z     vdW  Elec       q    Type
                         _______ _______ _______ _____ _____    ______ ____

>  <TORSDO>
F 3

$$$$
=
 OpenBabel11042411193D

 25 28  0  0  1  0  0  0  0  0999 V2000
  185.4310  178.1230  144.3160 C   0  0  0  0  0  0  0  0  0  0  0  0
  185.6810  179.6690  147.6220 O   0  0  0  0  0  0  0  0  0  0  0  0
  185.7200  179.0320  146.5830 C   0  0  0  0  0  0  0  0  0  0  0  0
  184.3490  179.0030  145.4430 S   0  0  0  0  0  0  0  0  0  0  0  0
  186.9230  178.2600  146.1810 C   0  0  0  0  0  2  0  0  0  0  0  0
  186.6440  177.8130  144.7900 C   0  0  0  0  0  0  0  0  0  0  0  0
  187.7160  177.0900  144.0170 C   0  0  1  0  0  3  0  0  0  0  0  0
  191.2860  177.9280  144.1910 C   0  0  0  0  0  3  0  0  0  0  0  0
  189.4150  176.7530  145.9520 C   0  0  0  0  0  3  0  0  0  0  0  0
  189.9560  177.7370  143.8210 C   0  0  0  0  0  0  0  0  0  0  0  0
  187.9630  177.7280  142.6300 C   0  0  0  0  0  3  0  0  0  0  0  0
  189.0490  177.1730  144.6730 C   0  0  0  0  0  0  0  0  0  0  0  0
  191.6800  177.5210  145.4750 C   0  0  0  0  0  3  0  0  0  0  0  0
  189.3810  178.0850  142.5790 N   0  0  0  0  0  0  0  0  0  0  0  0
  190.7480  176.9340  146.3530 C   0  0  0  0  0  3  0  0  0  0  0  0
  185.0370  177.8030  142.9780 N   0  0  0  0  0  2  0  0  0  0  0  0
  184.3900  178.4700  138.3490 C   0  0  0  0  0  0  0  0  0  0  0  0
  185.7160  178.7030  137.8870 N   0  0  0  0  0  1  0  0  0  0  0  0
  182.7910  178.1880  140.2910 C   0  0  0  0  0  2  0  0  0  0  0  0
  184.1030  178.4710  139.7520 N   0  0  0  0  0  0  0  0  0  0  0  0
  182.0230  179.1600  142.3230 O   0  0  0  0  0  1  0  0  0  0  0  0
  184.3640  178.7370  142.0890 C   0  0  1  0  0  3  0  0  0  0  0  0
  185.0960  178.7730  140.7620 C   0  0  0  0  0  2  0  0  0  0  0  0
  182.9440  178.2530  141.7990 C   0  0  2  0  0  3  0  0  0  0  0  0
  183.4730  178.2510  137.5150 O   0  0  0  0  0  0  0  0  0  0  0  0
  1  6  2  0  0  0  0
  1  4  1  0  0  0  0
  3  2  2  0  0  0  0
  4  3  1  0  0  0  0
  5  3  1  0  0  0  0
  6  5  1  0  0  0  0
  7 12  1  0  0  0  0
  7  6  1  1  0  0  0
  8 13  1  0  0  0  0
  9 15  1  0  0  0  0
 10  8  2  0  0  0  0
 10 12  1  0  0  0  0
 11  7  1  0  0  0  0
 12  9  2  0  0  0  0
 13 15  2  0  0  0  0
 14 11  2  0  0  0  0
 14 10  1  0  0  0  0
 16  1  1  0  0  0  0
 17 20  1  0  0  0  0
 18 17  1  0  0  0  0
 19 24  1  0  0  0  0
 20 19  1  0  0  0  0
 20 23  1  0  0  0  0
 22 16  1  1  0  0  0
 23 22  1  0  0  0  0
 24 22  1  0  0  0  0
 24 21  1  6  0  0  0
 25 17  2  0  0  0  0
M  END
>  <MODEL>
2

>  <REMARK>
 VINA RESULT:      -8.6      3.277      4.752
  Name = 
  3 active torsions:
  status: ('A' for Active; 'I' for Inactive)
    1  A    between atoms: C_1  and  N_13
    2  A    between atoms: C_8  and  C_21
    3  A    between atoms: N_13  and  C_14
                            x       y       z     vdW  Elec       q    Type
                         _______ _______ _______ _____ _____    ______ ____

>  <TORSDO>
F 3

$$$$
=
 OpenBabel11042411193D

 25 28  0  0  1  0  0  0  0  0999 V2000
  189.9060  176.4730  138.9700 C   0  0  0  0  0  0  0  0  0  0  0  0
  187.0780  178.7610  138.5810 O   0  0  0  0  0  0  0  0  0  0  0  0
  187.9570  177.9710  138.8810 C   0  0  0  0  0  0  0  0  0  0  0  0
  188.8030  176.9930  137.6540 S   0  0  0  0  0  0  0  0  0  0  0  0
  188.4040  177.7910  140.2860 C   0  0  0  0  0  2  0  0  0  0  0  0
  189.6040  176.9160  140.1960 C   0  0  0  0  0  0  0  0  0  0  0  0
  190.3950  176.6170  141.4430 C   0  0  1  0  0  3  0  0  0  0  0  0
  189.7990  178.2330  144.6850 C   0  0  0  0  0  3  0  0  0  0  0  0
  188.4090  176.3540  143.0960 C   0  0  0  0  0  3  0  0  0  0  0  0
  190.3010  177.8010  143.4590 C   0  0  0  0  0  0  0  0  0  0  0  0
  191.6350  177.5320  141.5770 C   0  0  0  0  0  3  0  0  0  0  0  0
  189.6290  176.8950  142.6870 C   0  0  0  0  0  0  0  0  0  0  0  0
  188.5700  177.7090  145.1180 C   0  0  0  0  0  3  0  0  0  0  0  0
  191.5120  178.2180  142.8650 N   0  0  0  0  0  0  0  0  0  0  0  0
  187.8780  176.7710  144.3260 C   0  0  0  0  0  3  0  0  0  0  0  0
  191.0590  175.6630  138.7200 N   0  0  0  0  0  2  0  0  0  0  0  0
  195.5080  174.4500  137.7100 C   0  0  0  0  0  0  0  0  0  0  0  0
  196.2040  174.8320  138.8910 N   0  0  0  0  0  1  0  0  0  0  0  0
  193.3770  174.4810  136.3450 C   0  0  0  0  0  2  0  0  0  0  0  0
  194.1590  174.8780  137.4950 N   0  0  0  0  0  0  0  0  0  0  0  0
  191.6920  175.8840  135.4170 O   0  0  0  0  0  1  0  0  0  0  0  0
  192.1020  176.0150  137.7690 C   0  0  1  0  0  3  0  0  0  0  0  0
  193.4560  175.7610  138.4010 C   0  0  0  0  0  2  0  0  0  0  0  0
  192.0120  175.1160  136.5370 C   0  0  2  0  0  3  0  0  0  0  0  0
  196.0850  173.7220  136.8600 O   0  0  0  0  0  0  0  0  0  0  0  0
  1  6  2  0  0  0  0
  2  3  2  0  0  0  0
  3  5  1  0  0  0  0
  4  3  1  0  0  0  0
  4  1  1  0  0  0  0
  6  5  1  0  0  0  0
  7  6  1  6  0  0  0
  7 11  1  0  0  0  0
  7 12  1  0  0  0  0
  8 13  1  0  0  0  0
  9 15  1  0  0  0  0
 10  8  2  0  0  0  0
 11 14  2  0  0  0  0
 12  9  2  0  0  0  0
 12 10  1  0  0  0  0
 14 10  1  0  0  0  0
 15 13  2  0  0  0  0
 16  1  1  0  0  0  0
 17 18  1  0  0  0  0
 19 24  1  0  0  0  0
 19 20  1  0  0  0  0
 20 17  1  0  0  0  0
 20 23  1  0  0  0  0
 22 23  1  0  0  0  0
 22 16  1  1  0  0  0
 24 21  1  6  0  0  0
 24 22  1  0  0  0  0
 25 17  2  0  0  0  0
M  END
>  <MODEL>
3

>  <REMARK>
 VINA RESULT:      -8.5      2.604      4.453
  Name = 
  3 active torsions:
  status: ('A' for Active; 'I' for Inactive)
    1  A    between atoms: C_1  and  N_13
    2  A    between atoms: C_8  and  C_21
    3  A    between atoms: N_13  and  C_14
                            x       y       z     vdW  Elec       q    Type
                         _______ _______ _______ _____ _____    ______ ____

>  <TORSDO>
F 3

$$$$
=
 OpenBabel11042411193D

 25 28  0  0  1  0  0  0  0  0999 V2000
  186.4070  177.8990  143.4310 C   0  0  0  0  0  0  0  0  0  0  0  0
  184.7990  179.3850  146.3620 O   0  0  0  0  0  0  0  0  0  0  0  0
  185.3900  178.7570  145.5000 C   0  0  0  0  0  0  0  0  0  0  0  0
  184.9330  178.8600  143.7790 S   0  0  0  0  0  0  0  0  0  0  0  0
  186.5490  177.8850  145.8200 C   0  0  0  0  0  2  0  0  0  0  0  0
  187.0970  177.4790  144.4980 C   0  0  0  0  0  0  0  0  0  0  0  0
  188.3680  176.6710  144.4420 C   0  0  1  0  0  3  0  0  0  0  0  0
  191.3790  177.7110  142.6190 C   0  0  0  0  0  3  0  0  0  0  0  0
  190.0520  178.5800  144.9570 C   0  0  0  0  0  3  0  0  0  0  0  0
  190.2160  177.0910  143.0710 C   0  0  0  0  0  0  0  0  0  0  0  0
  188.3780  175.6840  143.2510 C   0  0  0  0  0  3  0  0  0  0  0  0
  189.5700  177.5120  144.1990 C   0  0  0  0  0  0  0  0  0  0  0  0
  191.8820  178.7930  143.3600 C   0  0  0  0  0  3  0  0  0  0  0  0
  189.5670  175.9970  142.4580 N   0  0  0  0  0  0  0  0  0  0  0  0
  191.2210  179.2260  144.5260 C   0  0  0  0  0  3  0  0  0  0  0  0
  186.8390  177.6280  142.0940 N   0  0  0  0  0  2  0  0  0  0  0  0
  188.3840  178.0490  137.6530 C   0  0  0  0  0  0  0  0  0  0  0  0
  189.7880  177.8610  137.7990 N   0  0  0  0  0  1  0  0  0  0  0  0
  186.1200  178.3930  138.7320 C   0  0  0  0  0  2  0  0  0  0  0  0
  187.5580  178.2510  138.8050 N   0  0  0  0  0  0  0  0  0  0  0  0
  184.8990  179.7120  140.2920 O   0  0  0  0  0  1  0  0  0  0  0  0
  186.8950  178.6330  141.0440 C   0  0  1  0  0  3  0  0  0  0  0  0
  188.0850  178.3490  140.1490 C   0  0  0  0  0  2  0  0  0  0  0  0
  185.6480  178.5420  140.1660 C   0  0  2  0  0  3  0  0  0  0  0  0
  187.8730  178.0230  136.5030 O   0  0  0  0  0  0  0  0  0  0  0  0
  1  4  1  0  0  0  0
  1  6  2  0  0  0  0
  3  5  1  0  0  0  0
  3  2  2  0  0  0  0
  4  3  1  0  0  0  0
  6  5  1  0  0  0  0
  7  6  1  6  0  0  0
  8 10  2  0  0  0  0
  8 13  1  0  0  0  0
 10 12  1  0  0  0  0
 11  7  1  0  0  0  0
 12  7  1  0  0  0  0
 12  9  2  0  0  0  0
 13 15  2  0  0  0  0
 14 10  1  0  0  0  0
 14 11  2  0  0  0  0
 15  9  1  0  0  0  0
 16  1  1  0  0  0  0
 17 18  1  0  0  0  0
 17 20  1  0  0  0  0
 19 20  1  0  0  0  0
 19 24  1  0  0  0  0
 20 23  1  0  0  0  0
 22 16  1  1  0  0  0
 23 22  1  0  0  0  0
 24 21  1  6  0  0  0
 24 22  1  0  0  0  0
 25 17  2  0  0  0  0
M  END
>  <MODEL>
4

>  <REMARK>
 VINA RESULT:      -8.4      2.331      3.226
  Name = 
  3 active torsions:
  status: ('A' for Active; 'I' for Inactive)
    1  A    between atoms: C_1  and  N_13
    2  A    between atoms: C_8  and  C_21
    3  A    between atoms: N_13  and  C_14
                            x       y       z     vdW  Elec       q    Type
                         _______ _______ _______ _____ _____    ______ ____

>  <TORSDO>
F 3

$$$$
=
 OpenBabel11042411193D

 25 28  0  0  1  0  0  0  0  0999 V2000
  189.6500  177.4510  142.5880 C   0  0  0  0  0  0  0  0  0  0  0  0
  192.0560  178.6280  145.0800 O   0  0  0  0  0  0  0  0  0  0  0  0
  191.1250  178.3030  144.3610 C   0  0  0  0  0  0  0  0  0  0  0  0
  191.3180  178.1100  142.5990 S   0  0  0  0  0  0  0  0  0  0  0  0
  189.7740  178.0180  144.9090 C   0  0  0  0  0  2  0  0  0  0  0  0
  189.0050  177.4680  143.7600 C   0  0  0  0  0  0  0  0  0  0  0  0
  187.6060  176.9560  143.9860 C   0  0  1  0  0  3  0  0  0  0  0  0
  184.6820  179.1220  144.4610 C   0  0  0  0  0  3  0  0  0  0  0  0
  186.3670  178.4780  142.2860 C   0  0  0  0  0  3  0  0  0  0  0  0
  185.7460  178.2340  144.6010 C   0  0  0  0  0  0  0  0  0  0  0  0
  187.2980  176.7530  145.4880 C   0  0  0  0  0  3  0  0  0  0  0  0
  186.5650  177.9250  143.5510 C   0  0  0  0  0  0  0  0  0  0  0  0
  184.4630  179.7000  143.2000 C   0  0  0  0  0  3  0  0  0  0  0  0
  186.1170  177.5650  145.7870 N   0  0  0  0  0  0  0  0  0  0  0  0
  185.3030  179.3780  142.1150 C   0  0  0  0  0  3  0  0  0  0  0  0
  189.0560  176.9060  141.4050 N   0  0  0  0  0  2  0  0  0  0  0  0
  190.4270  175.0560  137.2840 C   0  0  0  0  0  0  0  0  0  0  0  0
  191.6990  174.5030  137.6060 N   0  0  0  0  0  1  0  0  0  0  0  0
  188.4560  176.4930  137.9580 C   0  0  0  0  0  2  0  0  0  0  0  0
  189.7720  175.9400  138.1980 N   0  0  0  0  0  0  0  0  0  0  0  0
  187.8110  178.6280  138.7900 O   0  0  0  0  0  1  0  0  0  0  0  0
  189.3830  177.3500  140.0590 C   0  0  1  0  0  3  0  0  0  0  0  0
  190.3690  176.3780  139.4420 C   0  0  0  0  0  2  0  0  0  0  0  0
  188.1320  177.3280  139.1830 C   0  0  2  0  0  3  0  0  0  0  0  0
  189.8790  174.7510  136.1930 O   0  0  0  0  0  0  0  0  0  0  0  0
  1  4  1  0  0  0  0
  1  6  2  0  0  0  0
  3  5  1  0  0  0  0
  3  2  2  0  0  0  0
  4  3  1  0  0  0  0
  6  5  1  0  0  0  0
  7  6  1  1  0  0  0
  7 11  1  0  0  0  0
  8 10  1  0  0  0  0
  9 12  1  0  0  0  0
 10 14  1  0  0  0  0
 11 14  2  0  0  0  0
 12  7  1  0  0  0  0
 12 10  2  0  0  0  0
 13  8  2  0  0  0  0
 15  9  2  0  0  0  0
 15 13  1  0  0  0  0
 16  1  1  0  0  0  0
 17 18  1  0  0  0  0
 17 20  1  0  0  0  0
 19 20  1  0  0  0  0
 19 24  1  0  0  0  0
 20 23  1  0  0  0  0
 22 16  1  1  0  0  0
 23 22  1  0  0  0  0
 24 21  1  6  0  0  0
 24 22  1  0  0  0  0
 25 17  2  0  0  0  0
M  END
>  <MODEL>
5

>  <REMARK>
 VINA RESULT:      -8.3      2.561      4.013
  Name = 
  3 active torsions:
  status: ('A' for Active; 'I' for Inactive)
    1  A    between atoms: C_1  and  N_13
    2  A    between atoms: C_8  and  C_21
    3  A    between atoms: N_13  and  C_14
                            x       y       z     vdW  Elec       q    Type
                         _______ _______ _______ _____ _____    ______ ____

>  <TORSDO>
F 3

$$$$
=
 OpenBabel11042411193D

 25 28  0  0  1  0  0  0  0  0999 V2000
  187.1060  178.4460  142.6340 C   0  0  0  0  0  0  0  0  0  0  0  0
  183.8360  179.4730  143.9130 O   0  0  0  0  0  0  0  0  0  0  0  0
  184.9050  178.9820  143.5930 C   0  0  0  0  0  0  0  0  0  0  0  0
  185.6750  179.3390  142.0250 S   0  0  0  0  0  0  0  0  0  0  0  0
  185.6560  178.0770  144.5010 C   0  0  0  0  0  2  0  0  0  0  0  0
  186.9710  177.8740  143.8360 C   0  0  0  0  0  0  0  0  0  0  0  0
  188.0440  177.0890  144.5450 C   0  0  1  0  0  3  0  0  0  0  0  0
  189.8110  178.2730  147.5360 C   0  0  0  0  0  3  0  0  0  0  0  0
  187.1860  177.3900  146.9780 C   0  0  0  0  0  3  0  0  0  0  0  0
  189.4320  177.8750  146.2560 C   0  0  0  0  0  0  0  0  0  0  0  0
  189.4520  177.3930  143.9850 C   0  0  0  0  0  3  0  0  0  0  0  0
  188.1620  177.4520  145.9830 C   0  0  0  0  0  0  0  0  0  0  0  0
  188.8460  178.2280  148.5560 C   0  0  0  0  0  3  0  0  0  0  0  0
  190.2610  177.8570  145.1130 N   0  0  0  0  0  0  0  0  0  0  0  0
  187.5370  177.7860  148.2780 C   0  0  0  0  0  3  0  0  0  0  0  0
  188.3300  178.3790  141.8960 N   0  0  0  0  0  2  0  0  0  0  0  0
  188.5120  178.5730  137.1830 C   0  0  0  0  0  0  0  0  0  0  0  0
  187.1900  178.9750  136.8420 N   0  0  0  0  0  1  0  0  0  0  0  0
  190.1510  177.7770  138.9400 C   0  0  0  0  0  2  0  0  0  0  0  0
  188.8180  178.1470  138.5140 N   0  0  0  0  0  0  0  0  0  0  0  0
  190.5300  176.1560  140.6410 O   0  0  0  0  0  1  0  0  0  0  0  0
  188.5470  177.4840  140.7700 C   0  0  1  0  0  3  0  0  0  0  0  0
  187.8200  178.0290  139.5560 C   0  0  0  0  0  2  0  0  0  0  0  0
  190.0320  177.4390  140.4150 C   0  0  2  0  0  3  0  0  0  0  0  0
  189.4140  178.6060  136.3050 O   0  0  0  0  0  0  0  0  0  0  0  0
  1  6  2  0  0  0  0
  3  2  2  0  0  0  0
  3  5  1  0  0  0  0
  4  1  1  0  0  0  0
  4  3  1  0  0  0  0
  6  5  1  0  0  0  0
  7  6  1  6  0  0  0
  7 12  1  0  0  0  0
  8 13  1  0  0  0  0
  9 15  1  0  0  0  0
 10  8  2  0  0  0  0
 11  7  1  0  0  0  0
 11 14  2  0  0  0  0
 12 10  1  0  0  0  0
 12  9  2  0  0  0  0
 14 10  1  0  0  0  0
 15 13  2  0  0  0  0
 16  1  1  0  0  0  0
 17 20  1  0  0  0  0
 18 17  1  0  0  0  0
 19 24  1  0  0  0  0
 20 19  1  0  0  0  0
 20 23  1  0  0  0  0
 22 16  1  1  0  0  0
 23 22  1  0  0  0  0
 24 21  1  6  0  0  0
 24 22  1  0  0  0  0
 25 17  2  0  0  0  0
M  END
>  <MODEL>
6

>  <REMARK>
 VINA RESULT:      -8.2      1.511      2.176
  Name = 
  3 active torsions:
  status: ('A' for Active; 'I' for Inactive)
    1  A    between atoms: C_1  and  N_13
    2  A    between atoms: C_8  and  C_21
    3  A    between atoms: N_13  and  C_14
                            x       y       z     vdW  Elec       q    Type
                         _______ _______ _______ _____ _____    ______ ____

>  <TORSDO>
F 3

$$$$
=
 OpenBabel11042411193D

 25 28  0  0  1  0  0  0  0  0999 V2000
  187.1940  177.9790  142.3490 C   0  0  0  0  0  0  0  0  0  0  0  0
  188.7870  178.8150  139.1640 O   0  0  0  0  0  0  0  0  0  0  0  0
  188.4260  178.5010  140.2860 C   0  0  0  0  0  0  0  0  0  0  0  0
  186.9160  179.1260  140.9990 S   0  0  0  0  0  0  0  0  0  0  0  0
  189.2040  177.5540  141.1230 C   0  0  0  0  0  2  0  0  0  0  0  0
  188.3370  177.2840  142.3010 C   0  0  0  0  0  0  0  0  0  0  0  0
  188.7700  176.2590  143.3180 C   0  0  1  0  0  3  0  0  0  0  0  0
  191.0380  176.9760  146.1130 C   0  0  0  0  0  3  0  0  0  0  0  0
  188.3760  177.6660  145.4650 C   0  0  0  0  0  3  0  0  0  0  0  0
  190.4360  176.5330  144.9370 C   0  0  0  0  0  0  0  0  0  0  0  0
  190.0560  175.5180  142.8830 C   0  0  0  0  0  3  0  0  0  0  0  0
  189.1500  176.8700  144.6200 C   0  0  0  0  0  0  0  0  0  0  0  0
  190.2850  177.7850  146.9780 C   0  0  0  0  0  3  0  0  0  0  0  0
  191.0370  175.7200  143.9520 N   0  0  0  0  0  0  0  0  0  0  0  0
  188.9570  178.1290  146.6560 C   0  0  0  0  0  3  0  0  0  0  0  0
  186.2360  177.7900  143.3960 N   0  0  0  0  0  2  0  0  0  0  0  0
  181.6410  178.8710  143.4290 C   0  0  0  0  0  0  0  0  0  0  0  0
  181.3560  179.0330  142.0430 N   0  0  0  0  0  1  0  0  0  0  0  0
  183.3540  178.5650  145.2670 C   0  0  0  0  0  2  0  0  0  0  0  0
  182.9960  178.7840  143.8820 N   0  0  0  0  0  0  0  0  0  0  0  0
  185.3620  179.4310  146.2060 O   0  0  0  0  0  1  0  0  0  0  0  0
  185.3620  178.8420  143.8890 C   0  0  1  0  0  3  0  0  0  0  0  0
  184.1360  178.9250  143.0010 C   0  0  0  0  0  2  0  0  0  0  0  0
  184.8700  178.4970  145.2940 C   0  0  2  0  0  3  0  0  0  0  0  0
  180.6910  178.7920  144.2510 O   0  0  0  0  0  0  0  0  0  0  0  0
  1 16  1  0  0  0  0
  2  3  2  0  0  0  0
  3  4  1  0  0  0  0
  3  5  1  0  0  0  0
  4  1  1  0  0  0  0
  5  6  1  0  0  0  0
  6  1  2  0  0  0  0
  7  6  1  6  0  0  0
  7 12  1  0  0  0  0
  8 13  1  0  0  0  0
  9 15  1  0  0  0  0
 10  8  2  0  0  0  0
 11  7  1  0  0  0  0
 11 14  2  0  0  0  0
 12 10  1  0  0  0  0
 12  9  2  0  0  0  0
 14 10  1  0  0  0  0
 15 13  2  0  0  0  0
 17 20  1  0  0  0  0
 17 25  2  0  0  0  0
 18 17  1  0  0  0  0
 19 24  1  0  0  0  0
 20 19  1  0  0  0  0
 22 16  1  6  0  0  0
 22 24  1  0  0  0  0
 23 20  1  0  0  0  0
 23 22  1  0  0  0  0
 24 21  1  1  0  0  0
M  END
>  <MODEL>
7

>  <REMARK>
 VINA RESULT:      -8.2      2.530      6.124
  Name = 
  3 active torsions:
  status: ('A' for Active; 'I' for Inactive)
    1  A    between atoms: C_1  and  N_13
    2  A    between atoms: C_8  and  C_21
    3  A    between atoms: N_13  and  C_14
                            x       y       z     vdW  Elec       q    Type
                         _______ _______ _______ _____ _____    ______ ____

>  <TORSDO>
F 3

$$$$
=
 OpenBabel11042411193D

 25 28  0  0  1  0  0  0  0  0999 V2000
  185.2390  178.7580  143.3340 C   0  0  0  0  0  0  0  0  0  0  0  0
  184.7650  178.7530  146.9620 O   0  0  0  0  0  0  0  0  0  0  0  0
  185.0050  178.5920  145.7770 C   0  0  0  0  0  0  0  0  0  0  0  0
  184.0160  179.3530  144.5030 S   0  0  0  0  0  0  0  0  0  0  0  0
  186.1560  177.7760  145.3140 C   0  0  0  0  0  2  0  0  0  0  0  0
  186.2180  178.0010  143.8450 C   0  0  0  0  0  0  0  0  0  0  0  0
  187.3550  177.4080  143.0540 C   0  0  1  0  0  3  0  0  0  0  0  0
  190.8710  178.3660  143.4850 C   0  0  0  0  0  3  0  0  0  0  0  0
  188.9800  176.9370  145.0230 C   0  0  0  0  0  3  0  0  0  0  0  0
  189.5690  178.1620  143.0340 C   0  0  0  0  0  0  0  0  0  0  0  0
  187.6320  178.1990  141.7540 C   0  0  0  0  0  3  0  0  0  0  0  0
  188.6520  177.4750  143.7780 C   0  0  0  0  0  0  0  0  0  0  0  0
  191.2270  177.8420  144.7380 C   0  0  0  0  0  3  0  0  0  0  0  0
  189.0340  178.6160  141.8090 N   0  0  0  0  0  0  0  0  0  0  0  0
  190.2850  177.1280  145.5050 C   0  0  0  0  0  3  0  0  0  0  0  0
  185.1940  179.1030  141.9460 N   0  0  0  0  0  2  0  0  0  0  0  0
  180.8220  179.3590  140.1840 C   0  0  0  0  0  0  0  0  0  0  0  0
  180.0160  179.0930  141.3270 N   0  0  0  0  0  1  0  0  0  0  0  0
  183.1170  179.4260  139.1190 C   0  0  0  0  0  2  0  0  0  0  0  0
  182.2340  179.1270  140.2250 N   0  0  0  0  0  0  0  0  0  0  0  0
  185.0990  178.1740  138.7080 O   0  0  0  0  0  1  0  0  0  0  0  0
  184.3640  178.4140  140.9700 C   0  0  1  0  0  3  0  0  0  0  0  0
  182.9080  178.5540  141.3700 C   0  0  0  0  0  2  0  0  0  0  0  0
  184.5120  179.0720  139.6000 C   0  0  2  0  0  3  0  0  0  0  0  0
  180.2840  179.8110  139.1400 O   0  0  0  0  0  0  0  0  0  0  0  0
  1  6  2  0  0  0  0
  1  4  1  0  0  0  0
  3  2  2  0  0  0  0
  4  3  1  0  0  0  0
  5  3  1  0  0  0  0
  6  5  1  0  0  0  0
  7 12  1  0  0  0  0
  7  6  1  1  0  0  0
  8 13  1  0  0  0  0
  9 15  1  0  0  0  0
 10  8  2  0  0  0  0
 10 12  1  0  0  0  0
 11 14  2  0  0  0  0
 11  7  1  0  0  0  0
 12  9  2  0  0  0  0
 13 15  2  0  0  0  0
 14 10  1  0  0  0  0
 16  1  1  0  0  0  0
 17 20  1  0  0  0  0
 17 18  1  0  0  0  0
 19 24  1  0  0  0  0
 19 20  1  0  0  0  0
 20 23  1  0  0  0  0
 22 23  1  0  0  0  0
 22 16  1  1  0  0  0
 24 21  1  6  0  0  0
 24 22  1  0  0  0  0
 25 17  2  0  0  0  0
M  END
>  <MODEL>
8

>  <REMARK>
 VINA RESULT:      -8.2      3.472      5.780
  Name = 
  3 active torsions:
  status: ('A' for Active; 'I' for Inactive)
    1  A    between atoms: C_1  and  N_13
    2  A    between atoms: C_8  and  C_21
    3  A    between atoms: N_13  and  C_14
                            x       y       z     vdW  Elec       q    Type
                         _______ _______ _______ _____ _____    ______ ____

>  <TORSDO>
F 3

$$$$
=
 OpenBabel11042411193D

 25 28  0  0  1  0  0  0  0  0999 V2000
  188.6510  177.4480  140.6910 C   0  0  0  0  0  0  0  0  0  0  0  0
  185.7090  179.6120  140.9050 O   0  0  0  0  0  0  0  0  0  0  0  0
  186.6280  178.8150  140.9890 C   0  0  0  0  0  0  0  0  0  0  0  0
  187.5220  178.2530  139.5530 S   0  0  0  0  0  0  0  0  0  0  0  0
  187.0850  178.2800  142.2970 C   0  0  0  0  0  3  0  0  0  0  0  0
  188.3280  177.5240  141.9870 C   0  0  0  0  0  0  0  0  0  0  0  0
  189.1350  176.9340  143.1150 C   0  0  1  0  0  3  0  0  0  0  0  0
  189.0520  178.1860  146.5650 C   0  0  0  0  0  3  0  0  0  0  0  0
  187.2480  176.7930  144.8950 C   0  0  0  0  0  3  0  0  0  0  0  0
  189.3870  177.8410  145.2570 C   0  0  0  0  0  0  0  0  0  0  0  0
  190.5240  177.6020  143.2460 C   0  0  0  0  0  3  0  0  0  0  0  0
  188.5150  177.1710  144.4460 C   0  0  0  0  0  0  0  0  0  0  0  0
  187.7820  177.8240  147.0400 C   0  0  0  0  0  3  0  0  0  0  0  0
  190.6110  178.1240  144.6110 N   0  0  0  0  0  0  0  0  0  0  0  0
  186.8820  177.1280  146.2080 C   0  0  0  0  0  3  0  0  0  0  0  0
  189.8440  176.7960  140.2440 N   0  0  0  0  0  0  0  0  0  0  0  0
  193.4620  175.1760  137.6800 C   0  0  0  0  0  0  0  0  0  0  0  0
  194.5890  175.6280  138.4240 N   0  0  0  0  0  1  0  0  0  0  0  0
  190.9600  175.2180  137.2990 C   0  0  0  0  0  2  0  0  0  0  0  0
  192.1530  175.6740  137.9780 N   0  0  0  0  0  0  0  0  0  0  0  0
  189.0750  176.6330  136.9670 O   0  0  0  0  0  1  0  0  0  0  0  0
  190.4140  176.9750  138.9180 C   0  0  1  0  0  3  0  0  0  0  0  0
  191.9030  176.6920  138.9750 C   0  0  0  0  0  2  0  0  0  0  0  0
  189.8080  175.9630  137.9470 C   0  0  2  0  0  3  0  0  0  0  0  0
  193.6240  174.3270  136.7650 O   0  0  0  0  0  0  0  0  0  0  0  0
  1  6  1  0  0  0  0
  2  3  2  0  0  0  0
  3  5  1  0  0  0  0
  4  1  1  0  0  0  0
  4  3  1  0  0  0  0
  6  5  2  0  0  0  0
  7  6  1  6  0  0  0
  7 11  1  0  0  0  0
  7 12  1  0  0  0  0
  8 13  1  0  0  0  0
  9 15  1  0  0  0  0
 10  8  2  0  0  0  0
 11 14  2  0  0  0  0
 12  9  2  0  0  0  0
 12 10  1  0  0  0  0
 14 10  1  0  0  0  0
 15 13  2  0  0  0  0
 16  1  2  0  0  0  0
 17 20  1  0  0  0  0
 17 18  1  0  0  0  0
 19 24  1  0  0  0  0
 19 20  1  0  0  0  0
 20 23  1  0  0  0  0
 22 23  1  0  0  0  0
 22 16  1  1  0  0  0
 24 21  1  6  0  0  0
 24 22  1  0  0  0  0
 25 17  2  0  0  0  0
M  END
>  <MODEL>
9

>  <REMARK>
 VINA RESULT:      -8.1      1.753      2.308
  Name = 
  3 active torsions:
  status: ('A' for Active; 'I' for Inactive)
    1  A    between atoms: C_1  and  N_13
    2  A    between atoms: C_8  and  C_21
    3  A    between atoms: N_13  and  C_14
                            x       y       z     vdW  Elec       q    Type
                         _______ _______ _______ _____ _____    ______ ____

>  <TORSDO>
F 3

$$$$
