=
 OpenBabel11042412453D

 59 65  0  0  1  0  0  0  0  0999 V2000
  188.9450  177.1300  139.3480 C   0  0  2  0  0  3  0  0  0  0  0  0
  181.0680  177.7800  134.9960 N   0  0  0  0  0  0  0  0  0  0  0  0
  189.7940  177.2260  134.5940 C   0  0  0  0  0  2  0  0  0  0  0  0
  183.2350  178.8270  139.7860 C   0  0  0  0  0  2  0  0  0  0  0  0
  187.8180  179.0760  140.4770 C   0  0  0  0  0  2  0  0  0  0  0  0
  188.3130  177.2950  134.8940 C   0  0  2  0  0  3  0  0  0  0  0  0
  185.5100  179.9490  142.1780 O   0  0  0  0  0  1  0  0  0  0  0  0
  183.7990  178.2470  138.5280 C   0  0  0  0  0  3  0  0  0  0  0  0
  190.5510  176.5510  135.4410 C   0  0  1  0  0  3  0  0  0  0  0  0
  181.3230  177.7740  136.4620 C   0  0  2  0  0  3  0  0  0  0  0  0
  189.3890  177.7150  138.0930 N   0  0  0  0  0  2  0  0  0  0  0  0
  185.3850  179.2430  140.9840 C   0  0  2  0  0  3  0  0  0  0  0  0
  190.2480  175.8620  136.6540 C   0  0  1  0  0  0  0  0  0  0  0  0
  189.0550  178.1770  140.4560 C   0  0  1  0  0  3  0  0  0  0  0  0
  183.5190  177.0190  138.0770 C   0  0  0  0  0  0  0  0  0  0  0  0
  182.4950  176.1760  138.7340 C   0  0  0  0  0  0  0  0  0  0  0  0
  179.8270  177.1020  134.6540 C   0  0  0  0  0  1  0  0  0  0  0  0
  190.1910  175.8030  139.4500 S   0  0  0  0  0  0  0  0  0  0  0  0
  184.1240  176.5380  136.7800 C   0  0  1  0  0  3  0  0  0  0  0  0
  190.4560  176.7420  137.9140 C   0  0  2  0  0  3  0  0  0  0  0  0
  181.9520  176.7760  135.6080 C   0  0  2  0  0  3  0  0  0  0  0  0
  182.8760  175.3530  139.6080 O   0  0  0  0  0  0  0  0  0  0  0  0
  188.8290  175.2780  136.4920 C   0  0  0  0  0  2  0  0  0  0  0  0
  191.3140  174.9190  136.5420 N   0  0  0  0  0  2  0  0  0  0  0  0
  184.0900  178.4590  140.9870 C   0  0  0  0  0  2  0  0  0  0  0  0
  191.8210  175.7600  135.4510 C   0  0  0  0  0  0  0  0  0  0  0  0
  187.9310  178.6230  135.0790 O   0  0  0  0  0  1  0  0  0  0  0  0
  183.4200  177.1490  135.5670 C   0  0  0  0  0  2  0  0  0  0  0  0
  186.5550  178.2980  140.8220 C   0  0  0  0  0  2  0  0  0  0  0  0
  181.0910  176.2230  138.4050 N   0  0  0  0  0  2  0  0  0  0  0  0
  192.8600  175.7520  134.7340 O   0  0  0  0  0  0  0  0  0  0  0  0
  187.8720  176.4370  136.1150 C   0  0  2  0  0  3  0  0  0  0  0  0
  185.5920  176.8200  136.7400 C   0  0  0  0  0  3  0  0  0  0  0  0
  180.3800  177.0100  137.3820 C   0  0  1  0  0  3  0  0  0  0  0  0
  186.4350  176.0530  136.0700 C   0  0  0  0  0  3  0  0  0  0  0  0
  189.2720  177.5890  141.7690 N   0  0  0  0  0  2  0  0  0  0  0  0
  190.5540  177.6110  142.3860 C   0  0  0  0  0  0  0  0  0  0  0  0
  191.5890  177.8530  141.7090 O   0  0  0  0  0  0  0  0  0  0  0  0
  190.6710  177.3980  143.8480 C   0  0  0  0  0  2  0  0  0  0  0  0
  189.3590  177.2060  144.4440 N   0  0  0  0  0  2  0  0  0  0  0  0
  190.1830  177.3680  146.6240 O   0  0  0  0  0  0  0  0  0  0  0  0
  189.1860  177.2050  145.8620 C   0  0  0  0  0  0  0  0  0  0  0  0
  185.1140  178.8630  146.4760 C   0  0  0  0  0  2  0  0  0  0  0  0
  185.9770  178.3840  147.6570 C   0  0  0  0  0  2  0  0  0  0  0  0
  188.2450  178.2320  148.6490 C   0  0  0  0  0  1  0  0  0  0  0  0
  187.8190  177.0810  146.4690 C   0  0  1  0  0  3  0  0  0  0  0  0
  185.9030  179.1000  145.1860 C   0  0  0  0  0  2  0  0  0  0  0  0
  187.4710  178.2920  147.3480 C   0  0  1  0  0  3  0  0  0  0  0  0
  186.3110  177.8030  144.4930 C   0  0  0  0  0  2  0  0  0  0  0  0
  186.7480  176.6800  145.4430 C   0  0  0  0  0  2  0  0  0  0  0  0
  179.8680  179.0820  138.6040 C   0  0  0  0  0  3  0  0  0  0  0  0
  179.4320  177.9680  138.0250 C   0  0  0  0  0  3  0  0  0  0  0  0
  178.9350  180.0150  139.3030 C   0  0  0  0  0  2  0  0  0  0  0  0
  179.4210  180.3230  140.7070 C   0  0  0  0  0  2  0  0  0  0  0  0
  179.5910  179.0260  141.4640 C   0  0  0  0  0  2  0  0  0  0  0  0
  182.2570  178.7940  144.2770 C   0  0  0  0  0  1  0  0  0  0  0  0
  180.8380  179.0180  142.2050 N   0  0  0  0  0  2  0  0  0  0  0  0
  179.8980  178.5590  144.2980 O   0  0  0  0  0  0  0  0  0  0  0  0
  180.9270  178.7870  143.6100 C   0  0  0  0  0  0  0  0  0  0  0  0
  1 11  1  6  0  0  0
  1 18  1  0  0  0  0
  1 14  1  0  0  0  0
  2 21  1  0  0  0  0
  3  6  1  0  0  0  0
  4 25  1  0  0  0  0
  5 29  1  0  0  0  0
  6 27  1  1  0  0  0
  6 32  1  0  0  0  0
  8  4  1  0  0  0  0
  9  3  1  6  0  0  0
  9 26  1  0  0  0  0
  9 13  1  0  0  0  0
 10  2  1  6  0  0  0
 10 34  1  0  0  0  0
 12 25  1  0  0  0  0
 12  7  1  1  0  0  0
 13 23  1  6  0  0  0
 13 20  1  0  0  0  0
 14  5  1  0  0  0  0
 14 36  1  1  0  0  0
 15  8  2  0  0  0  0
 15 16  1  0  0  0  0
 16 22  2  0  0  0  0
 17  2  1  0  0  0  0
 19 28  1  6  0  0  0
 19 15  1  0  0  0  0
 20 11  1  6  0  0  0
 20 18  1  0  0  0  0
 21 28  1  6  0  0  0
 21 10  1  0  0  0  0
 24 13  1  0  0  0  0
 26 24  1  0  0  0  0
 29 12  1  0  0  0  0
 30 16  1  0  0  0  0
 31 26  2  0  0  0  0
 32 35  1  6  0  0  0
 32 23  1  0  0  0  0
 33 19  1  0  0  0  0
 34 52  1  1  0  0  0
 34 30  1  0  0  0  0
 35 33  2  0  0  0  0
 36 37  1  0  0  0  0
 37 39  1  0  0  0  0
 38 37  2  0  0  0  0
 39 40  1  0  0  0  0
 40 42  1  0  0  0  0
 42 41  2  0  0  0  0
 43 44  1  0  0  0  0
 46 42  1  6  0  0  0
 46 48  1  0  0  0  0
 47 43  1  0  0  0  0
 48 44  1  0  0  0  0
 48 45  1  1  0  0  0
 49 47  1  0  0  0  0
 49 50  1  0  0  0  0
 50 46  1  0  0  0  0
 51 53  1  0  0  0  0
 52 51  2  0  0  0  0
 53 54  1  0  0  0  0
 54 55  1  0  0  0  0
 55 57  1  0  0  0  0
 57 59  1  0  0  0  0
 59 56  1  0  0  0  0
 59 58  2  0  0  0  0
M  END
>  <MODEL>
1

>  <REMARK>
 VINA RESULT:      -8.2      0.000      0.000
  Name = 
  9 active torsions:
  status: ('A' for Active; 'I' for Inactive)
    1  A    between atoms: C_1  and  C_13
    2  A    between atoms: C_1  and  C_16
    3  A    between atoms: C_8  and  C_43
    4  A    between atoms: N_11  and  C_27
    5  A    between atoms: C_14  and  C_23
    6  A    between atoms: C_16  and  C_54
    7  A    between atoms: N_18  and  C_23
    8  A    between atoms: N_26  and  C_54
    9  A    between atoms: C_55  and  C_57
                            x       y       z     vdW  Elec       q    Type
                         _______ _______ _______ _____ _____    ______ ____

>  <TORSDO>
F 9

$$$$
=
 OpenBabel11042412453D

 59 65  0  0  1  0  0  0  0  0999 V2000
  188.9790  177.1140  139.3480 C   0  0  2  0  0  3  0  0  0  0  0  0
  181.1110  177.8600  134.9930 N   0  0  0  0  0  0  0  0  0  0  0  0
  189.8280  177.1800  134.5940 C   0  0  0  0  0  2  0  0  0  0  0  0
  183.2930  178.8940  139.7790 C   0  0  0  0  0  2  0  0  0  0  0  0
  187.8790  179.0800  140.4700 C   0  0  0  0  0  2  0  0  0  0  0  0
  188.3490  177.2720  134.8930 C   0  0  2  0  0  3  0  0  0  0  0  0
  185.5840  179.9930  142.1670 O   0  0  0  0  0  1  0  0  0  0  0  0
  183.8490  178.3010  138.5240 C   0  0  0  0  0  3  0  0  0  0  0  0
  190.5760  176.4970  135.4430 C   0  0  1  0  0  3  0  0  0  0  0  0
  181.3660  177.8560  136.4600 C   0  0  2  0  0  3  0  0  0  0  0  0
  189.4310  177.6880  138.0910 N   0  0  0  0  0  2  0  0  0  0  0  0
  185.4490  179.2840  140.9760 C   0  0  2  0  0  3  0  0  0  0  0  0
  190.2640  175.8180  136.6590 C   0  0  1  0  0  0  0  0  0  0  0  0
  189.1040  178.1630  140.4520 C   0  0  1  0  0  3  0  0  0  0  0  0
  183.5520  177.0760  138.0770 C   0  0  0  0  0  0  0  0  0  0  0  0
  182.5160  176.2500  138.7370 C   0  0  0  0  0  0  0  0  0  0  0  0
  179.8610  177.1990  134.6540 C   0  0  0  0  0  1  0  0  0  0  0  0
  190.2060  175.7690  139.4550 S   0  0  0  0  0  0  0  0  0  0  0  0
  184.1500  176.5810  136.7820 C   0  0  1  0  0  3  0  0  0  0  0  0
  190.4840  176.6990  137.9150 C   0  0  2  0  0  3  0  0  0  0  0  0
  181.9810  176.8460  135.6090 C   0  0  2  0  0  3  0  0  0  0  0  0
  182.8850  175.4250  139.6140 O   0  0  0  0  0  0  0  0  0  0  0  0
  188.8360  175.2540  136.4990 C   0  0  0  0  0  2  0  0  0  0  0  0
  191.3160  174.8590  136.5500 N   0  0  0  0  0  2  0  0  0  0  0  0
  184.1430  178.5180  140.9820 C   0  0  0  0  0  2  0  0  0  0  0  0
  191.8350  175.6890  135.4560 C   0  0  0  0  0  0  0  0  0  0  0  0
  187.9860  178.6050  135.0730 O   0  0  0  0  0  1  0  0  0  0  0  0
  183.4540  177.1980  135.5670 C   0  0  0  0  0  2  0  0  0  0  0  0
  186.6060  178.3220  140.8180 C   0  0  0  0  0  2  0  0  0  0  0  0
  181.1130  176.3160  138.4080 N   0  0  0  0  0  2  0  0  0  0  0  0
  192.8740  175.6640  134.7390 O   0  0  0  0  0  0  0  0  0  0  0  0
  187.8960  176.4250  136.1180 C   0  0  2  0  0  3  0  0  0  0  0  0
  185.6210  176.8430  136.7410 C   0  0  0  0  0  3  0  0  0  0  0  0
  180.4130  177.1090  137.3830 C   0  0  1  0  0  3  0  0  0  0  0  0
  186.4530  176.0610  136.0740 C   0  0  0  0  0  3  0  0  0  0  0  0
  189.3120  177.5780  141.7670 N   0  0  0  0  0  2  0  0  0  0  0  0
  190.5790  177.6380  142.4110 C   0  0  0  0  0  0  0  0  0  0  0  0
  191.6200  177.9160  141.7570 O   0  0  0  0  0  0  0  0  0  0  0  0
  190.6740  177.4230  143.8740 C   0  0  0  0  0  2  0  0  0  0  0  0
  189.3520  177.2320  144.4490 N   0  0  0  0  0  2  0  0  0  0  0  0
  190.1500  177.3340  146.6420 O   0  0  0  0  0  0  0  0  0  0  0  0
  189.1610  177.2010  145.8650 C   0  0  0  0  0  0  0  0  0  0  0  0
  185.0730  178.8490  146.3920 C   0  0  0  0  0  2  0  0  0  0  0  0
  185.9190  178.3900  147.5920 C   0  0  0  0  0  2  0  0  0  0  0  0
  188.1710  178.2630  148.6220 C   0  0  0  0  0  1  0  0  0  0  0  0
  187.7850  177.0790  146.4510 C   0  0  1  0  0  3  0  0  0  0  0  0
  185.8810  179.0720  145.1110 C   0  0  0  0  0  2  0  0  0  0  0  0
  187.4180  178.3010  147.3080 C   0  0  1  0  0  3  0  0  0  0  0  0
  186.3050  177.7670  144.4420 C   0  0  0  0  0  2  0  0  0  0  0  0
  186.7330  176.6600  145.4150 C   0  0  0  0  0  2  0  0  0  0  0  0
  179.9340  179.0850  138.7660 C   0  0  0  0  0  3  0  0  0  0  0  0
  179.4780  178.0820  138.0220 C   0  0  0  0  0  3  0  0  0  0  0  0
  179.0060  180.0270  139.4590 C   0  0  0  0  0  2  0  0  0  0  0  0
  179.1510  181.4360  138.9140 C   0  0  0  0  0  2  0  0  0  0  0  0
  180.5930  181.6650  138.5210 C   0  0  0  0  0  2  0  0  0  0  0  0
  180.8470  183.9010  135.3560 C   0  0  0  0  0  1  0  0  0  0  0  0
  180.6870  182.1390  137.1530 N   0  0  0  0  0  2  0  0  0  0  0  0
  180.7250  184.4210  137.6670 O   0  0  0  0  0  0  0  0  0  0  0  0
  180.7440  183.5170  136.7910 C   0  0  0  0  0  0  0  0  0  0  0  0
  1 11  1  6  0  0  0
  1 18  1  0  0  0  0
  1 14  1  0  0  0  0
  2 21  1  0  0  0  0
  3  6  1  0  0  0  0
  4 25  1  0  0  0  0
  5 29  1  0  0  0  0
  6 27  1  1  0  0  0
  6 32  1  0  0  0  0
  8  4  1  0  0  0  0
  9  3  1  6  0  0  0
  9 26  1  0  0  0  0
  9 13  1  0  0  0  0
 10  2  1  6  0  0  0
 10 34  1  0  0  0  0
 12 25  1  0  0  0  0
 12  7  1  1  0  0  0
 13 23  1  6  0  0  0
 13 20  1  0  0  0  0
 14  5  1  0  0  0  0
 14 36  1  1  0  0  0
 15  8  2  0  0  0  0
 15 16  1  0  0  0  0
 16 22  2  0  0  0  0
 17  2  1  0  0  0  0
 19 28  1  6  0  0  0
 19 15  1  0  0  0  0
 20 11  1  6  0  0  0
 20 18  1  0  0  0  0
 21 28  1  6  0  0  0
 21 10  1  0  0  0  0
 24 13  1  0  0  0  0
 26 24  1  0  0  0  0
 29 12  1  0  0  0  0
 30 16  1  0  0  0  0
 31 26  2  0  0  0  0
 32 35  1  6  0  0  0
 32 23  1  0  0  0  0
 33 19  1  0  0  0  0
 34 52  1  1  0  0  0
 34 30  1  0  0  0  0
 35 33  2  0  0  0  0
 36 37  1  0  0  0  0
 37 39  1  0  0  0  0
 38 37  2  0  0  0  0
 39 40  1  0  0  0  0
 40 42  1  0  0  0  0
 42 41  2  0  0  0  0
 43 44  1  0  0  0  0
 46 42  1  6  0  0  0
 46 48  1  0  0  0  0
 47 43  1  0  0  0  0
 48 44  1  0  0  0  0
 48 45  1  1  0  0  0
 49 47  1  0  0  0  0
 49 50  1  0  0  0  0
 50 46  1  0  0  0  0
 51 53  1  0  0  0  0
 52 51  2  0  0  0  0
 54 53  1  0  0  0  0
 55 54  1  0  0  0  0
 56 59  1  0  0  0  0
 57 55  1  0  0  0  0
 59 57  1  0  0  0  0
 59 58  2  0  0  0  0
M  END
>  <MODEL>
2

>  <REMARK>
 VINA RESULT:      -7.8      1.604      2.301
  Name = 
  9 active torsions:
  status: ('A' for Active; 'I' for Inactive)
    1  A    between atoms: C_1  and  C_13
    2  A    between atoms: C_1  and  C_16
    3  A    between atoms: C_8  and  C_43
    4  A    between atoms: N_11  and  C_27
    5  A    between atoms: C_14  and  C_23
    6  A    between atoms: C_16  and  C_54
    7  A    between atoms: N_18  and  C_23
    8  A    between atoms: N_26  and  C_54
    9  A    between atoms: C_55  and  C_57
                            x       y       z     vdW  Elec       q    Type
                         _______ _______ _______ _____ _____    ______ ____

>  <TORSDO>
F 9

$$$$
=
 OpenBabel11042412453D

 59 65  0  0  1  0  0  0  0  0999 V2000
  185.6860  177.0040  137.3940 C   0  0  2  0  0  3  0  0  0  0  0  0
  185.5590  179.6740  146.0120 N   0  0  0  0  0  0  0  0  0  0  0  0
  181.6690  179.5700  138.1710 C   0  0  0  0  0  2  0  0  0  0  0  0
  189.0190  178.1200  142.2230 C   0  0  0  0  0  2  0  0  0  0  0  0
  187.9490  178.0580  137.7070 C   0  0  0  0  0  2  0  0  0  0  0  0
  182.5000  179.4460  139.4300 C   0  0  2  0  0  3  0  0  0  0  0  0
  190.5870  177.8790  139.1180 O   0  0  0  0  0  1  0  0  0  0  0  0
  187.5330  178.2880  142.2250 C   0  0  0  0  0  3  0  0  0  0  0  0
  181.7200  178.5670  137.3120 C   0  0  1  0  0  3  0  0  0  0  0  0
  186.6140  178.9110  145.2900 C   0  0  2  0  0  3  0  0  0  0  0  0
  184.8150  178.1630  137.2940 N   0  0  0  0  0  2  0  0  0  0  0  0
  189.3510  177.8930  139.7600 C   0  0  2  0  0  3  0  0  0  0  0  0
  182.4550  177.3430  137.3140 C   0  0  1  0  0  0  0  0  0  0  0  0
  187.0260  177.3240  136.7330 C   0  0  1  0  0  3  0  0  0  0  0  0
  186.6860  177.4680  142.8570 C   0  0  0  0  0  0  0  0  0  0  0  0
  187.1810  176.3880  143.7400 C   0  0  0  0  0  0  0  0  0  0  0  0
  185.4290  179.2490  147.3970 C   0  0  0  0  0  1  0  0  0  0  0  0
  184.6480  175.8390  136.4480 S   0  0  0  0  0  0  0  0  0  0  0  0
  185.2010  177.7420  142.8170 C   0  0  1  0  0  3  0  0  0  0  0  0
  183.7960  177.4440  136.5430 C   0  0  2  0  0  3  0  0  0  0  0  0
  185.2170  178.5140  145.1730 C   0  0  2  0  0  3  0  0  0  0  0  0
  187.3240  175.2380  143.2480 O   0  0  0  0  0  0  0  0  0  0  0  0
  182.5810  176.9020  138.7880 C   0  0  0  0  0  2  0  0  0  0  0  0
  181.5040  176.6150  136.5370 N   0  0  0  0  0  2  0  0  0  0  0  0
  189.4620  177.1980  141.1000 C   0  0  0  0  0  2  0  0  0  0  0  0
  180.8630  177.9100  136.2770 C   0  0  0  0  0  0  0  0  0  0  0  0
  183.4360  180.4770  139.4800 O   0  0  0  0  0  1  0  0  0  0  0  0
  184.8110  178.8810  143.7600 C   0  0  0  0  0  2  0  0  0  0  0  0
  188.3200  177.1910  138.9020 C   0  0  0  0  0  2  0  0  0  0  0  0
  187.4760  176.5730  145.1400 N   0  0  0  0  0  2  0  0  0  0  0  0
  179.9010  178.2950  135.5560 O   0  0  0  0  0  0  0  0  0  0  0  0
  183.2100  178.0700  139.5880 C   0  0  2  0  0  3  0  0  0  0  0  0
  184.7520  178.0310  141.4200 C   0  0  0  0  0  3  0  0  0  0  0  0
  187.3230  177.7630  145.9950 C   0  0  1  0  0  3  0  0  0  0  0  0
  183.5320  177.7390  141.0030 C   0  0  0  0  0  3  0  0  0  0  0  0
  187.6920  176.1450  136.2030 N   0  0  0  0  0  2  0  0  0  0  0  0
  188.8190  176.2560  135.3420 C   0  0  0  0  0  0  0  0  0  0  0  0
  189.0860  177.3470  134.7690 O   0  0  0  0  0  0  0  0  0  0  0  0
  189.7210  175.0950  135.1540 C   0  0  0  0  0  2  0  0  0  0  0  0
  191.1020  175.4730  135.4090 N   0  0  0  0  0  2  0  0  0  0  0  0
  191.6390  173.3890  136.3180 O   0  0  0  0  0  0  0  0  0  0  0  0
  192.0200  174.5520  136.0010 C   0  0  0  0  0  0  0  0  0  0  0  0
  196.0800  173.4860  137.4450 C   0  0  0  0  0  2  0  0  0  0  0  0
  195.4050  174.8120  137.8390 C   0  0  0  0  0  2  0  0  0  0  0  0
  193.3040  175.9720  138.4590 C   0  0  0  0  0  1  0  0  0  0  0  0
  193.4620  174.9240  136.1930 C   0  0  1  0  0  3  0  0  0  0  0  0
  195.1130  172.4380  136.8900 C   0  0  0  0  0  2  0  0  0  0  0  0
  193.8880  174.8210  137.6660 C   0  0  1  0  0  3  0  0  0  0  0  0
  194.6570  172.7460  135.4660 C   0  0  0  0  0  2  0  0  0  0  0  0
  194.3930  174.2310  135.1870 C   0  0  0  0  0  2  0  0  0  0  0  0
  189.3200  177.5540  147.4150 C   0  0  0  0  0  3  0  0  0  0  0  0
  188.6540  178.2300  146.4840 C   0  0  0  0  0  3  0  0  0  0  0  0
  190.6230  178.0460  147.9550 C   0  0  0  0  0  2  0  0  0  0  0  0
  191.6080  176.9040  148.1270 C   0  0  0  0  0  2  0  0  0  0  0  0
  191.7680  176.1900  146.8040 C   0  0  0  0  0  2  0  0  0  0  0  0
  191.9360  177.9780  143.3600 C   0  0  0  0  0  1  0  0  0  0  0  0
  192.0340  177.1350  145.7350 N   0  0  0  0  0  2  0  0  0  0  0  0
  190.9710  175.9210  144.0400 O   0  0  0  0  0  0  0  0  0  0  0  0
  191.6180  176.9440  144.3840 C   0  0  0  0  0  0  0  0  0  0  0  0
  1 18  1  6  0  0  0
  2 17  1  0  0  0  0
  3  6  1  0  0  0  0
  4  8  1  0  0  0  0
  5 29  1  0  0  0  0
  6 27  1  6  0  0  0
  6 32  1  0  0  0  0
  8 15  2  0  0  0  0
  9 13  1  0  0  0  0
  9  3  1  1  0  0  0
 10 34  1  0  0  0  0
 10  2  1  1  0  0  0
 11  1  1  0  0  0  0
 12  7  1  6  0  0  0
 12 25  1  0  0  0  0
 13 23  1  1  0  0  0
 14 36  1  1  0  0  0
 14  1  1  0  0  0  0
 14  5  1  0  0  0  0
 15 16  1  0  0  0  0
 16 30  1  0  0  0  0
 19 33  1  6  0  0  0
 19 15  1  0  0  0  0
 19 28  1  0  0  0  0
 20 18  1  1  0  0  0
 20 11  1  0  0  0  0
 20 13  1  0  0  0  0
 21 28  1  6  0  0  0
 21 10  1  0  0  0  0
 21  2  1  0  0  0  0
 22 16  2  0  0  0  0
 24 13  1  0  0  0  0
 25  4  1  0  0  0  0
 26 24  1  0  0  0  0
 26  9  1  0  0  0  0
 29 12  1  0  0  0  0
 30 34  1  0  0  0  0
 31 26  2  0  0  0  0
 32 23  1  1  0  0  0
 32 35  1  0  0  0  0
 34 52  1  6  0  0  0
 35 33  2  0  0  0  0
 37 36  1  0  0  0  0
 38 37  2  0  0  0  0
 39 37  1  0  0  0  0
 39 40  1  0  0  0  0
 40 42  1  0  0  0  0
 42 41  2  0  0  0  0
 43 44  1  0  0  0  0
 46 42  1  1  0  0  0
 46 48  1  0  0  0  0
 47 43  1  0  0  0  0
 48 44  1  0  0  0  0
 48 45  1  1  0  0  0
 49 47  1  0  0  0  0
 50 49  1  0  0  0  0
 50 46  1  0  0  0  0
 51 53  1  0  0  0  0
 52 51  2  0  0  0  0
 53 54  1  0  0  0  0
 55 54  1  0  0  0  0
 56 59  1  0  0  0  0
 57 55  1  0  0  0  0
 58 59  2  0  0  0  0
 59 57  1  0  0  0  0
M  END
>  <MODEL>
3

>  <REMARK>
 VINA RESULT:      -6.9      2.644      9.703
  Name = 
  9 active torsions:
  status: ('A' for Active; 'I' for Inactive)
    1  A    between atoms: C_1  and  C_13
    2  A    between atoms: C_1  and  C_16
    3  A    between atoms: C_8  and  C_43
    4  A    between atoms: N_11  and  C_27
    5  A    between atoms: C_14  and  C_23
    6  A    between atoms: C_16  and  C_54
    7  A    between atoms: N_18  and  C_23
    8  A    between atoms: N_26  and  C_54
    9  A    between atoms: C_55  and  C_57
                            x       y       z     vdW  Elec       q    Type
                         _______ _______ _______ _____ _____    ______ ____

>  <TORSDO>
F 9

$$$$
=
 OpenBabel11042412453D

 59 65  0  0  1  0  0  0  0  0999 V2000
  182.5140  176.9830  138.0340 C   0  0  2  0  0  3  0  0  0  0  0  0
  191.1510  174.3800  137.8320 N   0  0  0  0  0  0  0  0  0  0  0  0
  182.7480  172.4920  136.2730 C   0  0  0  0  0  2  0  0  0  0  0  0
  187.9490  177.8640  140.3510 C   0  0  0  0  0  2  0  0  0  0  0  0
  183.3230  177.4780  140.3650 C   0  0  0  0  0  2  0  0  0  0  0  0
  184.1230  173.0310  136.6010 C   0  0  2  0  0  3  0  0  0  0  0  0
  185.1760  179.1360  142.0390 O   0  0  0  0  0  1  0  0  0  0  0  0
  187.6910  176.8410  139.2910 C   0  0  0  0  0  3  0  0  0  0  0  0
  181.8330  173.3640  135.8860 C   0  0  1  0  0  3  0  0  0  0  0  0
  190.5750  175.6540  138.3430 C   0  0  2  0  0  3  0  0  0  0  0  0
  182.3510  175.5400  138.0630 N   0  0  0  0  0  2  0  0  0  0  0  0
  185.5790  178.3560  140.9580 C   0  0  2  0  0  3  0  0  0  0  0  0
  181.8710  174.7820  135.7310 C   0  0  1  0  0  0  0  0  0  0  0  0
  182.1390  177.5580  139.4000 C   0  0  1  0  0  3  0  0  0  0  0  0
  188.0880  176.9610  138.0190 C   0  0  0  0  0  0  0  0  0  0  0  0
  188.9550  178.0820  137.5910 C   0  0  0  0  0  0  0  0  0  0  0  0
  192.4500  174.5790  137.2080 C   0  0  0  0  0  1  0  0  0  0  0  0
  181.3020  177.3370  136.7180 S   0  0  0  0  0  0  0  0  0  0  0  0
  187.7980  175.8570  137.0320 C   0  0  1  0  0  3  0  0  0  0  0  0
  181.3700  175.5390  136.9890 C   0  0  2  0  0  3  0  0  0  0  0  0
  190.1720  175.1410  137.0410 C   0  0  2  0  0  3  0  0  0  0  0  0
  188.4050  179.1100  137.1160 O   0  0  0  0  0  0  0  0  0  0  0  0
  183.3010  175.1440  135.2780 C   0  0  0  0  0  2  0  0  0  0  0  0
  180.8750  174.8320  134.7090 N   0  0  0  0  0  2  0  0  0  0  0  0
  186.8540  178.9180  140.3690 C   0  0  0  0  0  2  0  0  0  0  0  0
  180.6080  173.4240  135.0290 C   0  0  0  0  0  0  0  0  0  0  0  0
  184.4280  172.7630  137.9340 O   0  0  0  0  0  1  0  0  0  0  0  0
  188.7430  174.6690  137.2190 C   0  0  0  0  0  2  0  0  0  0  0  0
  184.4920  178.3400  139.9050 C   0  0  0  0  0  2  0  0  0  0  0  0
  190.3960  178.0470  137.6560 N   0  0  0  0  0  2  0  0  0  0  0  0
  179.7560  172.5730  134.6490 O   0  0  0  0  0  0  0  0  0  0  0  0
  184.2960  174.5490  136.3070 C   0  0  2  0  0  3  0  0  0  0  0  0
  186.3710  175.4200  137.1270 C   0  0  0  0  0  3  0  0  0  0  0  0
  191.3030  176.9640  138.0770 C   0  0  1  0  0  3  0  0  0  0  0  0
  185.7140  174.9430  136.0830 C   0  0  0  0  0  3  0  0  0  0  0  0
  181.6470  178.9240  139.3220 N   0  0  0  0  0  2  0  0  0  0  0  0
  180.3620  179.2760  139.8240 C   0  0  0  0  0  0  0  0  0  0  0  0
  179.5000  178.3880  140.0640 O   0  0  0  0  0  0  0  0  0  0  0  0
  180.0490  180.6950  140.1160 C   0  0  0  0  0  2  0  0  0  0  0  0
  180.7100  181.5720  139.1630 N   0  0  0  0  0  2  0  0  0  0  0  0
  179.0790  181.2350  137.5260 O   0  0  0  0  0  0  0  0  0  0  0  0
  180.1570  181.8020  137.8660 C   0  0  0  0  0  0  0  0  0  0  0  0
  179.9020  185.4720  135.3820 C   0  0  0  0  0  2  0  0  0  0  0  0
  180.4120  184.1400  134.8040 C   0  0  0  0  0  2  0  0  0  0  0  0
  180.1820  181.6710  134.7530 C   0  0  0  0  0  1  0  0  0  0  0  0
  180.8050  182.7660  136.9160 C   0  0  1  0  0  3  0  0  0  0  0  0
  179.1340  185.3250  136.6980 C   0  0  0  0  0  2  0  0  0  0  0  0
  180.0060  182.9080  135.6110 C   0  0  1  0  0  3  0  0  0  0  0  0
  180.0440  185.0400  137.8890 C   0  0  0  0  0  2  0  0  0  0  0  0
  181.2080  184.0850  137.5900 C   0  0  0  0  0  2  0  0  0  0  0  0
  191.4950  177.3530  140.4970 C   0  0  0  0  0  3  0  0  0  0  0  0
  192.0650  177.3650  139.2970 C   0  0  0  0  0  3  0  0  0  0  0  0
  192.2300  177.8100  141.7150 C   0  0  0  0  0  2  0  0  0  0  0  0
  192.0860  176.8090  142.8460 C   0  0  0  0  0  2  0  0  0  0  0  0
  190.7390  177.0020  143.5060 C   0  0  0  0  0  2  0  0  0  0  0  0
  190.0440  177.0480  147.3260 C   0  0  0  0  0  1  0  0  0  0  0  0
  190.8360  176.8240  144.9420 N   0  0  0  0  0  2  0  0  0  0  0  0
  188.8170  177.8810  145.4750 O   0  0  0  0  0  0  0  0  0  0  0  0
  189.8540  177.2860  145.8680 C   0  0  0  0  0  0  0  0  0  0  0  0
  1 18  1  6  0  0  0
  1 11  1  0  0  0  0
  1 14  1  0  0  0  0
  3  6  1  0  0  0  0
  4 25  1  0  0  0  0
  6 27  1  1  0  0  0
  8  4  1  0  0  0  0
  9  3  1  6  0  0  0
 10  2  1  6  0  0  0
 12  7  1  1  0  0  0
 13 23  1  6  0  0  0
 13  9  1  0  0  0  0
 13 20  1  0  0  0  0
 14 36  1  6  0  0  0
 14  5  1  0  0  0  0
 15  8  2  0  0  0  0
 16 30  1  0  0  0  0
 16 15  1  0  0  0  0
 17  2  1  0  0  0  0
 19 33  1  1  0  0  0
 19 28  1  0  0  0  0
 19 15  1  0  0  0  0
 20 18  1  6  0  0  0
 20 11  1  0  0  0  0
 21 28  1  1  0  0  0
 21  2  1  0  0  0  0
 21 10  1  0  0  0  0
 22 16  2  0  0  0  0
 24 26  1  0  0  0  0
 24 13  1  0  0  0  0
 25 12  1  0  0  0  0
 26  9  1  0  0  0  0
 29  5  1  0  0  0  0
 29 12  1  0  0  0  0
 30 34  1  0  0  0  0
 31 26  2  0  0  0  0
 32 23  1  6  0  0  0
 32  6  1  0  0  0  0
 34 10  1  0  0  0  0
 34 52  1  1  0  0  0
 35 32  1  0  0  0  0
 35 33  2  0  0  0  0
 36 37  1  0  0  0  0
 37 38  2  0  0  0  0
 37 39  1  0  0  0  0
 40 39  1  0  0  0  0
 41 42  2  0  0  0  0
 42 40  1  0  0  0  0
 43 47  1  0  0  0  0
 44 43  1  0  0  0  0
 44 48  1  0  0  0  0
 46 50  1  0  0  0  0
 46 42  1  1  0  0  0
 47 49  1  0  0  0  0
 48 45  1  6  0  0  0
 48 46  1  0  0  0  0
 50 49  1  0  0  0  0
 51 53  1  0  0  0  0
 52 51  2  0  0  0  0
 53 54  1  0  0  0  0
 54 55  1  0  0  0  0
 55 57  1  0  0  0  0
 57 59  1  0  0  0  0
 58 59  2  0  0  0  0
 59 56  1  0  0  0  0
M  END
>  <MODEL>
4

>  <REMARK>
 VINA RESULT:      -6.7      3.264      9.823
  Name = 
  9 active torsions:
  status: ('A' for Active; 'I' for Inactive)
    1  A    between atoms: C_1  and  C_13
    2  A    between atoms: C_1  and  C_16
    3  A    between atoms: C_8  and  C_43
    4  A    between atoms: N_11  and  C_27
    5  A    between atoms: C_14  and  C_23
    6  A    between atoms: C_16  and  C_54
    7  A    between atoms: N_18  and  C_23
    8  A    between atoms: N_26  and  C_54
    9  A    between atoms: C_55  and  C_57
                            x       y       z     vdW  Elec       q    Type
                         _______ _______ _______ _____ _____    ______ ____

>  <TORSDO>
F 9

$$$$
=
 OpenBabel11042412453D

 59 65  0  0  1  0  0  0  0  0999 V2000
  189.9100  177.1660  140.2650 C   0  0  2  0  0  3  0  0  0  0  0  0
  181.0660  178.3560  141.6010 N   0  0  0  0  0  0  0  0  0  0  0  0
  188.9310  176.4580  144.9410 C   0  0  0  0  0  2  0  0  0  0  0  0
  184.5220  177.1440  137.6870 C   0  0  0  0  0  2  0  0  0  0  0  0
  188.8570  175.7020  138.5100 C   0  0  0  0  0  2  0  0  0  0  0  0
  187.6860  176.8220  144.1630 C   0  0  2  0  0  3  0  0  0  0  0  0
  187.1890  175.6360  136.0210 O   0  0  0  0  0  1  0  0  0  0  0  0
  184.7090  177.4430  139.1400 C   0  0  0  0  0  3  0  0  0  0  0  0
  190.0770  176.9650  144.5200 C   0  0  1  0  0  3  0  0  0  0  0  0
  181.8300  178.4100  140.3250 C   0  0  2  0  0  3  0  0  0  0  0  0
  189.7220  176.3830  141.4750 N   0  0  0  0  0  2  0  0  0  0  0  0
  186.8040  176.2510  137.2100 C   0  0  2  0  0  3  0  0  0  0  0  0
  190.4000  177.8060  143.4130 C   0  0  1  0  0  0  0  0  0  0  0  0
  190.1720  176.2220  139.0920 C   0  0  1  0  0  3  0  0  0  0  0  0
  184.5730  178.6600  139.6790 C   0  0  0  0  0  0  0  0  0  0  0  0
  184.0780  179.8020  138.8770 C   0  0  0  0  0  0  0  0  0  0  0  0
  179.9760  179.3190  141.6270 C   0  0  0  0  0  1  0  0  0  0  0  0
  191.3760  178.1040  140.8090 S   0  0  0  0  0  0  0  0  0  0  0  0
  184.7590  178.8510  141.1650 C   0  0  1  0  0  3  0  0  0  0  0  0
  190.8440  177.0070  142.1600 C   0  0  2  0  0  3  0  0  0  0  0  0
  182.3160  179.1250  141.4970 C   0  0  2  0  0  3  0  0  0  0  0  0
  184.9270  180.5560  138.3320 O   0  0  0  0  0  0  0  0  0  0  0  0
  189.1930  178.7420  143.1970 C   0  0  0  0  0  2  0  0  0  0  0  0
  191.5380  178.4080  144.0300 N   0  0  0  0  0  2  0  0  0  0  0  0
  185.8150  177.3580  136.9160 C   0  0  0  0  0  2  0  0  0  0  0  0
  191.4080  177.3740  145.0650 C   0  0  0  0  0  0  0  0  0  0  0  0
  187.1050  175.6700  143.6370 O   0  0  0  0  0  1  0  0  0  0  0  0
  183.5430  178.3610  141.9540 C   0  0  0  0  0  2  0  0  0  0  0  0
  188.0190  176.8220  137.9080 C   0  0  0  0  0  2  0  0  0  0  0  0
  182.6790  180.1160  138.7120 N   0  0  0  0  0  2  0  0  0  0  0  0
  192.0890  177.0390  146.0740 O   0  0  0  0  0  0  0  0  0  0  0  0
  187.9270  177.8640  143.0330 C   0  0  2  0  0  3  0  0  0  0  0  0
  186.0050  178.1740  141.6360 C   0  0  0  0  0  3  0  0  0  0  0  0
  181.4860  179.4750  139.2920 C   0  0  1  0  0  3  0  0  0  0  0  0
  186.7000  178.6230  142.6680 C   0  0  0  0  0  3  0  0  0  0  0  0
  190.9780  176.8310  138.0460 N   0  0  0  0  0  2  0  0  0  0  0  0
  192.3330  176.4480  137.8390 C   0  0  0  0  0  0  0  0  0  0  0  0
  192.9640  175.8130  138.7260 O   0  0  0  0  0  0  0  0  0  0  0  0
  192.9960  176.7530  136.5490 C   0  0  0  0  0  2  0  0  0  0  0  0
  194.3040  176.1190  136.4840 N   0  0  0  0  0  2  0  0  0  0  0  0
  193.5110  174.3180  135.2250 O   0  0  0  0  0  0  0  0  0  0  0  0
  194.4910  174.8840  135.7910 C   0  0  0  0  0  0  0  0  0  0  0  0
  198.5120  174.1300  137.5130 C   0  0  0  0  0  2  0  0  0  0  0  0
  198.3350  174.6910  136.0920 C   0  0  0  0  0  2  0  0  0  0  0  0
  197.0520  176.1940  134.5940 C   0  0  0  0  0  1  0  0  0  0  0  0
  195.8560  174.2740  135.6650 C   0  0  1  0  0  3  0  0  0  0  0  0
  197.2610  174.2480  138.3880 C   0  0  0  0  0  2  0  0  0  0  0  0
  196.9680  175.3220  135.8300 C   0  0  1  0  0  3  0  0  0  0  0  0
  196.1780  173.2390  138.0150 C   0  0  0  0  0  2  0  0  0  0  0  0
  196.0180  173.0010  136.5080 C   0  0  0  0  0  2  0  0  0  0  0  0
  180.7710  177.5890  137.8850 C   0  0  0  0  0  3  0  0  0  0  0  0
  180.6440  178.8700  138.2180 C   0  0  0  0  0  3  0  0  0  0  0  0
  179.9770  176.9890  136.7720 C   0  0  0  0  0  2  0  0  0  0  0  0
  180.7650  175.9030  136.0630 C   0  0  0  0  0  2  0  0  0  0  0  0
  180.8670  174.6990  136.9710 C   0  0  0  0  0  2  0  0  0  0  0  0
  184.4640  173.2960  137.3860 C   0  0  0  0  0  1  0  0  0  0  0  0
  182.2390  174.4820  137.3910 N   0  0  0  0  0  2  0  0  0  0  0  0
  182.6370  172.6170  136.0350 O   0  0  0  0  0  0  0  0  0  0  0  0
  183.0650  173.4300  136.8950 C   0  0  0  0  0  0  0  0  0  0  0  0
  1 18  1  1  0  0  0
  1 11  1  0  0  0  0
  2 17  1  0  0  0  0
  4  8  1  0  0  0  0
  5 14  1  0  0  0  0
  6 27  1  6  0  0  0
  6  3  1  0  0  0  0
  8 15  2  0  0  0  0
  9  3  1  1  0  0  0
  9 26  1  0  0  0  0
 10 21  1  0  0  0  0
 10  2  1  1  0  0  0
 11 20  1  0  0  0  0
 12  7  1  6  0  0  0
 12 29  1  0  0  0  0
 13 23  1  6  0  0  0
 13 24  1  0  0  0  0
 13  9  1  0  0  0  0
 14 36  1  6  0  0  0
 14  1  1  0  0  0  0
 15 19  1  0  0  0  0
 16 15  1  0  0  0  0
 19 33  1  1  0  0  0
 19 28  1  0  0  0  0
 20 18  1  6  0  0  0
 20 13  1  0  0  0  0
 21  2  1  0  0  0  0
 21 28  1  1  0  0  0
 22 16  2  0  0  0  0
 24 26  1  0  0  0  0
 25 12  1  0  0  0  0
 25  4  1  0  0  0  0
 26 31  2  0  0  0  0
 29  5  1  0  0  0  0
 30 16  1  0  0  0  0
 30 34  1  0  0  0  0
 32 35  1  1  0  0  0
 32 23  1  0  0  0  0
 32  6  1  0  0  0  0
 33 35  2  0  0  0  0
 34 52  1  6  0  0  0
 34 10  1  0  0  0  0
 37 36  1  0  0  0  0
 37 38  2  0  0  0  0
 39 37  1  0  0  0  0
 40 39  1  0  0  0  0
 41 42  2  0  0  0  0
 42 40  1  0  0  0  0
 43 47  1  0  0  0  0
 44 43  1  0  0  0  0
 46 42  1  1  0  0  0
 46 48  1  0  0  0  0
 46 50  1  0  0  0  0
 48 45  1  6  0  0  0
 48 44  1  0  0  0  0
 49 47  1  0  0  0  0
 50 49  1  0  0  0  0
 51 52  2  0  0  0  0
 53 51  1  0  0  0  0
 54 53  1  0  0  0  0
 54 55  1  0  0  0  0
 55 57  1  0  0  0  0
 58 59  2  0  0  0  0
 59 56  1  0  0  0  0
 59 57  1  0  0  0  0
M  END
>  <MODEL>
5

>  <REMARK>
 VINA RESULT:      -6.4      2.937      8.358
  Name = 
  9 active torsions:
  status: ('A' for Active; 'I' for Inactive)
    1  A    between atoms: C_1  and  C_13
    2  A    between atoms: C_1  and  C_16
    3  A    between atoms: C_8  and  C_43
    4  A    between atoms: N_11  and  C_27
    5  A    between atoms: C_14  and  C_23
    6  A    between atoms: C_16  and  C_54
    7  A    between atoms: N_18  and  C_23
    8  A    between atoms: N_26  and  C_54
    9  A    between atoms: C_55  and  C_57
                            x       y       z     vdW  Elec       q    Type
                         _______ _______ _______ _____ _____    ______ ____

>  <TORSDO>
F 9

$$$$
=
 OpenBabel11042412453D

 59 65  0  0  1  0  0  0  0  0999 V2000
  189.8270  177.2260  140.2020 C   0  0  2  0  0  3  0  0  0  0  0  0
  181.0180  178.5610  141.6280 N   0  0  0  0  0  0  0  0  0  0  0  0
  188.8770  176.4970  144.8810 C   0  0  0  0  0  2  0  0  0  0  0  0
  184.4170  177.3200  137.6730 C   0  0  0  0  0  2  0  0  0  0  0  0
  188.7330  175.7950  138.4450 C   0  0  0  0  0  2  0  0  0  0  0  0
  187.6320  176.8900  144.1180 C   0  0  2  0  0  3  0  0  0  0  0  0
  187.0420  175.7790  135.9710 O   0  0  0  0  0  1  0  0  0  0  0  0
  184.6220  177.6040  139.1270 C   0  0  0  0  0  3  0  0  0  0  0  0
  190.0280  176.9880  144.4540 C   0  0  1  0  0  3  0  0  0  0  0  0
  181.7710  178.6120  140.3450 C   0  0  2  0  0  3  0  0  0  0  0  0
  189.6370  176.4360  141.4070 N   0  0  0  0  0  2  0  0  0  0  0  0
  186.6780  176.3910  137.1680 C   0  0  2  0  0  3  0  0  0  0  0  0
  190.3570  177.8310  143.3510 C   0  0  1  0  0  0  0  0  0  0  0  0
  190.0620  176.2870  139.0190 C   0  0  1  0  0  3  0  0  0  0  0  0
  184.5120  178.8190  139.6760 C   0  0  0  0  0  0  0  0  0  0  0  0
  184.0310  179.9750  138.8880 C   0  0  0  0  0  0  0  0  0  0  0  0
  179.9450  179.5420  141.6720 C   0  0  0  0  0  1  0  0  0  0  0  0
  191.3150  178.1330  140.7410 S   0  0  0  0  0  0  0  0  0  0  0  0
  184.7150  178.9940  141.1620 C   0  0  1  0  0  3  0  0  0  0  0  0
  190.7750  177.0360  142.0880 C   0  0  2  0  0  3  0  0  0  0  0  0
  182.2800  179.3080  141.5190 C   0  0  2  0  0  3  0  0  0  0  0  0
  184.8880  180.7190  138.3420 O   0  0  0  0  0  0  0  0  0  0  0  0
  189.1640  178.7900  143.1540 C   0  0  0  0  0  2  0  0  0  0  0  0
  191.5100  178.4090  143.9630 N   0  0  0  0  0  2  0  0  0  0  0  0
  185.7060  177.5180  136.8920 C   0  0  0  0  0  2  0  0  0  0  0  0
  191.3720  177.3690  144.9900 C   0  0  0  0  0  0  0  0  0  0  0  0
  187.0260  175.7520  143.5880 O   0  0  0  0  0  1  0  0  0  0  0  0
  183.4970  178.5190  141.9580 C   0  0  0  0  0  2  0  0  0  0  0  0
  187.9090  176.9350  137.8600 C   0  0  0  0  0  2  0  0  0  0  0  0
  182.6360  180.3150  138.7390 N   0  0  0  0  0  2  0  0  0  0  0  0
  192.0550  177.0130  145.9910 O   0  0  0  0  0  0  0  0  0  0  0  0
  187.8810  177.9360  142.9930 C   0  0  2  0  0  3  0  0  0  0  0  0
  185.9530  178.2910  141.6170 C   0  0  0  0  0  3  0  0  0  0  0  0
  181.4370  179.6910  139.3240 C   0  0  1  0  0  3  0  0  0  0  0  0
  186.6650  178.7200  142.6460 C   0  0  0  0  0  3  0  0  0  0  0  0
  190.8690  176.8910  137.9710 N   0  0  0  0  0  2  0  0  0  0  0  0
  192.1500  176.3700  137.6310 C   0  0  0  0  0  0  0  0  0  0  0  0
  192.7520  175.5840  138.4120 O   0  0  0  0  0  0  0  0  0  0  0  0
  192.7620  176.7120  136.3260 C   0  0  0  0  0  2  0  0  0  0  0  0
  194.1080  176.1680  136.2340 N   0  0  0  0  0  2  0  0  0  0  0  0
  193.4450  174.4240  134.8290 O   0  0  0  0  0  0  0  0  0  0  0  0
  194.3800  175.0040  135.4520 C   0  0  0  0  0  0  0  0  0  0  0  0
  198.3650  174.2010  137.2340 C   0  0  0  0  0  2  0  0  0  0  0  0
  198.2140  174.9650  135.9070 C   0  0  0  0  0  2  0  0  0  0  0  0
  196.9060  176.6130  134.5940 C   0  0  0  0  0  1  0  0  0  0  0  0
  195.7830  174.4920  135.3010 C   0  0  1  0  0  3  0  0  0  0  0  0
  197.0750  174.1180  138.0550 C   0  0  0  0  0  2  0  0  0  0  0  0
  196.8240  175.5570  135.6780 C   0  0  1  0  0  3  0  0  0  0  0  0
  196.0690  173.1250  137.4800 C   0  0  0  0  0  2  0  0  0  0  0  0
  195.9850  173.1140  135.9480 C   0  0  0  0  0  2  0  0  0  0  0  0
  181.0080  179.0100  137.0000 C   0  0  0  0  0  3  0  0  0  0  0  0
  180.5750  179.1090  138.2530 C   0  0  0  0  0  3  0  0  0  0  0  0
  180.1310  178.4860  135.9100 C   0  0  0  0  0  2  0  0  0  0  0  0
  179.9430  179.5220  134.8170 C   0  0  0  0  0  2  0  0  0  0  0  0
  180.6510  180.7950  135.2190 C   0  0  0  0  0  2  0  0  0  0  0  0
  178.9640  184.1730  136.1310 C   0  0  0  0  0  1  0  0  0  0  0  0
  179.6970  181.8160  135.6090 N   0  0  0  0  0  2  0  0  0  0  0  0
  181.1790  183.6230  135.4840 O   0  0  0  0  0  0  0  0  0  0  0  0
  180.0190  183.2010  135.7280 C   0  0  0  0  0  0  0  0  0  0  0  0
  1 18  1  1  0  0  0
  1 11  1  0  0  0  0
  2 17  1  0  0  0  0
  4  8  1  0  0  0  0
  5 14  1  0  0  0  0
  6 27  1  6  0  0  0
  6  3  1  0  0  0  0
  8 15  2  0  0  0  0
  9  3  1  1  0  0  0
  9 26  1  0  0  0  0
 10 21  1  0  0  0  0
 10  2  1  1  0  0  0
 11 20  1  0  0  0  0
 12  7  1  6  0  0  0
 12 29  1  0  0  0  0
 13 23  1  6  0  0  0
 13 24  1  0  0  0  0
 13  9  1  0  0  0  0
 14 36  1  6  0  0  0
 14  1  1  0  0  0  0
 15 19  1  0  0  0  0
 16 15  1  0  0  0  0
 19 33  1  1  0  0  0
 19 28  1  0  0  0  0
 20 18  1  6  0  0  0
 20 13  1  0  0  0  0
 21  2  1  0  0  0  0
 21 28  1  1  0  0  0
 22 16  2  0  0  0  0
 24 26  1  0  0  0  0
 25 12  1  0  0  0  0
 25  4  1  0  0  0  0
 26 31  2  0  0  0  0
 29  5  1  0  0  0  0
 30 16  1  0  0  0  0
 30 34  1  0  0  0  0
 32 35  1  1  0  0  0
 32 23  1  0  0  0  0
 32  6  1  0  0  0  0
 33 35  2  0  0  0  0
 34 52  1  6  0  0  0
 34 10  1  0  0  0  0
 37 36  1  0  0  0  0
 37 38  2  0  0  0  0
 39 37  1  0  0  0  0
 40 39  1  0  0  0  0
 41 42  2  0  0  0  0
 42 40  1  0  0  0  0
 43 47  1  0  0  0  0
 44 43  1  0  0  0  0
 46 42  1  1  0  0  0
 46 48  1  0  0  0  0
 46 50  1  0  0  0  0
 48 45  1  6  0  0  0
 48 44  1  0  0  0  0
 49 47  1  0  0  0  0
 50 49  1  0  0  0  0
 51 52  2  0  0  0  0
 53 51  1  0  0  0  0
 54 55  1  0  0  0  0
 54 53  1  0  0  0  0
 55 57  1  0  0  0  0
 57 59  1  0  0  0  0
 58 59  2  0  0  0  0
 59 56  1  0  0  0  0
M  END
>  <MODEL>
6

>  <REMARK>
 VINA RESULT:      -6.0      3.163      8.415
  Name = 
  9 active torsions:
  status: ('A' for Active; 'I' for Inactive)
    1  A    between atoms: C_1  and  C_13
    2  A    between atoms: C_1  and  C_16
    3  A    between atoms: C_8  and  C_43
    4  A    between atoms: N_11  and  C_27
    5  A    between atoms: C_14  and  C_23
    6  A    between atoms: C_16  and  C_54
    7  A    between atoms: N_18  and  C_23
    8  A    between atoms: N_26  and  C_54
    9  A    between atoms: C_55  and  C_57
                            x       y       z     vdW  Elec       q    Type
                         _______ _______ _______ _____ _____    ______ ____

>  <TORSDO>
F 9

$$$$
