=
 OpenBabel11032421093D

 50 54  0  0  1  0  0  0  0  0999 V2000
  188.8350  177.6660  140.3480 C   0  0  2  0  0  3  0  0  0  0  0  0
  190.9400  177.3520  138.8900 C   0  0  2  0  0  3  0  0  0  0  0  0
  189.9590  177.7490  141.3780 C   0  0  2  0  0  3  0  0  0  0  0  0
  191.5860  177.4940  140.5860 S   0  0  0  0  0  0  0  0  0  0  0  0
  189.4140  178.3120  138.7560 S   0  0  0  0  0  0  0  0  0  0  0  0
  186.4850  178.5510  140.0370 C   0  0  0  0  0  0  0  0  0  0  0  0
  186.1470  177.7840  138.6000 S   0  0  0  0  0  0  0  0  0  0  0  0
  184.5700  178.2970  138.4650 N   0  0  0  0  0  0  0  0  0  0  0  0
  184.3540  179.0730  139.5640 C   0  0  0  0  0  0  0  0  0  0  0  0
  185.3850  179.2060  140.4590 N   0  0  0  0  0  0  0  0  0  0  0  0
  187.6830  178.4350  140.8040 N   0  0  0  0  0  2  0  0  0  0  0  0
  183.0160  179.6590  139.8300 C   0  0  0  0  0  2  0  0  0  0  0  0
  182.2250  178.7470  140.7590 C   0  0  0  0  0  2  0  0  0  0  0  0
  180.6090  177.3960  139.5930 O   0  0  0  0  0  1  0  0  0  0  0  0
  180.7600  178.5770  140.3280 C   0  0  2  0  0  0  0  0  0  0  0  0
  180.3630  179.7540  139.4370 C   0  0  0  0  0  2  0  0  0  0  0  0
  178.9900  179.7460  139.1860 O   0  0  0  0  0  1  0  0  0  0  0  0
  179.6410  177.2180  141.9880 O   0  0  0  0  0  1  0  0  0  0  0  0
  179.8130  178.5320  141.5400 C   0  0  1  0  0  3  0  0  0  0  0  0
  180.2770  179.4200  142.6880 C   0  0  0  0  0  2  0  0  0  0  0  0
  180.5220  178.5810  143.9240 C   0  0  0  0  0  1  0  0  0  0  0  0
  190.1220  175.6010  142.4460 O   0  0  0  0  0  0  0  0  0  0  0  0
  189.7410  176.8030  142.5400 C   0  0  0  0  0  0  0  0  0  0  0  0
  189.0300  177.2230  143.7640 C   0  0  0  0  0  0  0  0  0  0  0  0
  187.7660  176.8340  144.1680 C   0  0  0  0  0  3  0  0  0  0  0  0
  187.5790  177.5240  145.3500 C   0  0  0  0  0  0  0  0  0  0  0  0
  189.5350  178.0980  144.7110 C   0  0  0  0  0  3  0  0  0  0  0  0
  188.6290  178.2460  145.6490 O   0  0  0  0  0  0  0  0  0  0  0  0
  186.3370  177.4850  146.1770 C   0  0  0  0  0  2  0  0  0  0  0  0
  185.2990  178.4900  145.6920 C   0  0  0  0  0  0  0  0  0  0  0  0
  184.1660  178.3750  146.4800 F   0  0  0  0  0  0  0  0  0  0  0  0
  185.7960  179.7770  145.7990 F   0  0  0  0  0  0  0  0  0  0  0  0
  184.9620  178.2350  144.3730 F   0  0  0  0  0  0  0  0  0  0  0  0
  190.6970  175.8950  138.5140 C   0  0  0  0  0  2  0  0  0  0  0  0
  192.8450  176.3890  137.4640 N   0  0  0  0  0  2  0  0  0  0  0  0
  192.7860  173.9210  135.9710 C   0  0  2  0  0  3  0  0  0  0  0  0
  194.6540  177.1360  136.2110 O   0  0  0  0  0  0  0  0  0  0  0  0
  191.5310  174.5610  136.5640 C   0  0  0  0  0  2  0  0  0  0  0  0
  191.9230  175.3210  137.8200 C   0  0  2  0  0  3  0  0  0  0  0  0
  193.8370  174.9790  135.5710 C   0  0  1  0  0  3  0  0  0  0  0  0
  193.8350  176.2100  136.4420 C   0  0  0  0  0  0  0  0  0  0  0  0
  192.1130  171.6700  135.1260 C   0  0  0  0  0  2  0  0  0  0  0  0
  193.3580  172.0450  134.5960 O   0  0  0  0  0  0  0  0  0  0  0  0
  192.4090  173.0770  134.7500 C   0  0  2  0  0  3  0  0  0  0  0  0
  195.2420  174.3800  135.5440 C   0  0  0  0  0  2  0  0  0  0  0  0
  195.6180  173.7160  136.8570 C   0  0  0  0  0  2  0  0  0  0  0  0
  196.9270  174.2800  137.3880 C   0  0  0  0  0  2  0  0  0  0  0  0
  195.4410  174.9610  139.2860 O   0  0  0  0  0  0  0  0  0  0  0  0
  196.7360  174.8050  138.7690 C   0  0  0  0  0  0  0  0  0  0  0  0
  197.7380  175.0600  139.4870 O   0  0  0  0  0  1  0  0  0  0  0  0
  1 11  1  1  0  0  0
  1  3  1  0  0  0  0
  2 34  1  1  0  0  0
  2  4  1  0  0  0  0
  3 23  1  1  0  0  0
  4  3  1  0  0  0  0
  5  2  1  0  0  0  0
  5  1  1  0  0  0  0
  6 10  2  0  0  0  0
  6 11  1  0  0  0  0
  7  6  1  0  0  0  0
  8  7  1  0  0  0  0
  8  9  2  0  0  0  0
  9 12  1  0  0  0  0
  9 10  1  0  0  0  0
 12 13  1  0  0  0  0
 15 14  1  6  0  0  0
 15 13  1  0  0  0  0
 15 19  1  0  0  0  0
 16 15  1  0  0  0  0
 17 16  1  0  0  0  0
 19 18  1  1  0  0  0
 19 20  1  0  0  0  0
 20 21  1  0  0  0  0
 22 23  2  0  0  0  0
 23 24  1  0  0  0  0
 24 25  1  0  0  0  0
 24 27  2  0  0  0  0
 25 26  2  0  0  0  0
 26 28  1  0  0  0  0
 26 29  1  0  0  0  0
 27 28  1  0  0  0  0
 30 32  1  0  0  0  0
 30 29  1  0  0  0  0
 30 31  1  0  0  0  0
 33 30  1  0  0  0  0
 35 39  1  0  0  0  0
 36 38  1  6  0  0  0
 37 41  2  0  0  0  0
 38 39  1  0  0  0  0
 39 34  1  6  0  0  0
 40 45  1  1  0  0  0
 40 36  1  0  0  0  0
 40 41  1  0  0  0  0
 41 35  1  0  0  0  0
 43 44  1  0  0  0  0
 43 42  1  0  0  0  0
 44 42  1  1  0  0  0
 44 36  1  0  0  0  0
 45 46  1  0  0  0  0
 46 47  1  0  0  0  0
 47 49  1  0  0  0  0
 49 48  2  0  0  0  0
 49 50  1  0  0  0  0
M  END
>  <MODEL>
1

>  <REMARK>
 VINA RESULT:      -7.4      0.000      0.000
  Name = 
  18 active torsions:
  status: ('A' for Active; 'I' for Inactive)
    1  A    between atoms: C_2  and  N_40
    2  A    between atoms: C_3  and  C_25
    3  A    between atoms: C_3  and  C_44
    4  A    between atoms: C_4  and  C_19
    5  A    between atoms: C_4  and  C_35
    6  A    between atoms: C_7  and  C_9
    7  A    between atoms: C_7  and  C_43
    8  A    between atoms: C_10  and  C_17
    9  A    between atoms: C_11  and  C_46
   10  A    between atoms: C_12  and  C_35
   11  A    between atoms: C_13  and  C_37
   12  A    between atoms: C_13  and  C_44
   13  A    between atoms: C_17  and  C_38
   14  A    between atoms: C_18  and  C_44
   15  A    between atoms: C_19  and  C_39
   16  A    between atoms: C_21  and  C_48
   17  A    between atoms: C_24  and  C_48
   18  A    between atoms: C_25  and  C_33
                            x       y       z     vdW  Elec       q    Type
                         _______ _______ _______ _____ _____    ______ ____

>  <TORSDO>
F 18

$$$$
=
 OpenBabel11032421093D

 50 54  0  0  1  0  0  0  0  0999 V2000
  188.1330  177.9260  140.2940 C   0  0  2  0  0  3  0  0  0  0  0  0
  190.4220  177.4300  139.2110 C   0  0  2  0  0  3  0  0  0  0  0  0
  189.0580  177.8590  141.5060 C   0  0  2  0  0  3  0  0  0  0  0  0
  190.7660  177.4530  140.9990 S   0  0  0  0  0  0  0  0  0  0  0  0
  189.0500  178.5510  138.8580 S   0  0  0  0  0  0  0  0  0  0  0  0
  185.8280  178.8250  139.7650 C   0  0  0  0  0  0  0  0  0  0  0  0
  185.4960  177.8370  138.4680 S   0  0  0  0  0  0  0  0  0  0  0  0
  183.9440  178.3730  138.2000 N   0  0  0  0  0  0  0  0  0  0  0  0
  183.7310  179.3320  139.1450 C   0  0  0  0  0  0  0  0  0  0  0  0
  184.7450  179.5790  140.0360 N   0  0  0  0  0  0  0  0  0  0  0  0
  187.0020  178.7990  140.5770 N   0  0  0  0  0  2  0  0  0  0  0  0
  182.4110  179.9990  139.2670 C   0  0  0  0  0  2  0  0  0  0  0  0
  181.6780  179.9480  137.9330 C   0  0  0  0  0  2  0  0  0  0  0  0
  180.4080  181.6650  139.0430 O   0  0  0  0  0  1  0  0  0  0  0  0
  180.5550  180.9910  137.8260 C   0  0  2  0  0  0  0  0  0  0  0  0
  179.2410  180.2780  137.5060 C   0  0  0  0  0  2  0  0  0  0  0  0
  179.3710  178.8980  137.6750 O   0  0  0  0  0  1  0  0  0  0  0  0
  180.3650  181.5720  135.4850 O   0  0  0  0  0  1  0  0  0  0  0  0
  180.8420  182.0220  136.7200 C   0  0  1  0  0  3  0  0  0  0  0  0
  180.2710  183.4010  137.0310 C   0  0  0  0  0  2  0  0  0  0  0  0
  181.3530  184.4500  136.8940 C   0  0  0  0  0  1  0  0  0  0  0  0
  188.7410  175.6660  142.4410 O   0  0  0  0  0  0  0  0  0  0  0  0
  188.5430  176.9080  142.5660 C   0  0  0  0  0  0  0  0  0  0  0  0
  187.7500  177.3820  143.7180 C   0  0  0  0  0  0  0  0  0  0  0  0
  188.1370  177.3990  145.0460 C   0  0  0  0  0  3  0  0  0  0  0  0
  187.0320  177.9090  145.6980 C   0  0  0  0  0  0  0  0  0  0  0  0
  186.4640  177.8860  143.6390 C   0  0  0  0  0  3  0  0  0  0  0  0
  186.0730  178.1940  144.8530 O   0  0  0  0  0  0  0  0  0  0  0  0
  186.9180  178.0930  147.1740 C   0  0  0  0  0  2  0  0  0  0  0  0
  188.2270  177.7820  147.8890 C   0  0  0  0  0  0  0  0  0  0  0  0
  188.4520  176.4160  147.8330 F   0  0  0  0  0  0  0  0  0  0  0  0
  189.2760  178.4380  147.2680 F   0  0  0  0  0  0  0  0  0  0  0  0
  188.1580  178.1770  149.2140 F   0  0  0  0  0  0  0  0  0  0  0  0
  190.1060  176.0190  138.7310 C   0  0  0  0  0  2  0  0  0  0  0  0
  192.3410  176.4270  137.8380 N   0  0  0  0  0  2  0  0  0  0  0  0
  192.1910  174.0950  136.1460 C   0  0  2  0  0  3  0  0  0  0  0  0
  194.2700  177.1280  136.7470 O   0  0  0  0  0  0  0  0  0  0  0  0
  190.9540  174.7800  136.7240 C   0  0  0  0  0  2  0  0  0  0  0  0
  191.3250  175.4080  138.0570 C   0  0  2  0  0  3  0  0  0  0  0  0
  193.3370  175.0970  135.8900 C   0  0  1  0  0  3  0  0  0  0  0  0
  193.3730  176.2530  136.8580 C   0  0  0  0  0  0  0  0  0  0  0  0
  191.2090  172.0530  135.0990 C   0  0  0  0  0  2  0  0  0  0  0  0
  192.5640  172.1810  134.7540 O   0  0  0  0  0  0  0  0  0  0  0  0
  191.8250  173.3790  134.8420 C   0  0  2  0  0  3  0  0  0  0  0  0
  194.6950  174.3950  135.8870 C   0  0  0  0  0  2  0  0  0  0  0  0
  194.8920  173.5040  137.1000 C   0  0  0  0  0  2  0  0  0  0  0  0
  195.7440  174.2050  138.1480 C   0  0  0  0  0  2  0  0  0  0  0  0
  197.8060  173.2020  137.1400 O   0  0  0  0  0  0  0  0  0  0  0  0
  197.1500  174.3230  137.6690 C   0  0  0  0  0  0  0  0  0  0  0  0
  197.7290  175.4410  137.6970 O   0  0  0  0  0  1  0  0  0  0  0  0
  1 11  1  1  0  0  0
  1  3  1  0  0  0  0
  2 34  1  1  0  0  0
  2  4  1  0  0  0  0
  3 23  1  1  0  0  0
  4  3  1  0  0  0  0
  5  2  1  0  0  0  0
  5  1  1  0  0  0  0
  6 10  2  0  0  0  0
  6 11  1  0  0  0  0
  7  6  1  0  0  0  0
  8  7  1  0  0  0  0
  8  9  2  0  0  0  0
  9 12  1  0  0  0  0
  9 10  1  0  0  0  0
 13 12  1  0  0  0  0
 15 13  1  0  0  0  0
 15 14  1  1  0  0  0
 16 17  1  0  0  0  0
 16 15  1  0  0  0  0
 19 18  1  6  0  0  0
 19 20  1  0  0  0  0
 19 15  1  0  0  0  0
 21 20  1  0  0  0  0
 22 23  2  0  0  0  0
 23 24  1  0  0  0  0
 24 25  1  0  0  0  0
 25 26  2  0  0  0  0
 26 29  1  0  0  0  0
 27 24  2  0  0  0  0
 27 28  1  0  0  0  0
 28 26  1  0  0  0  0
 29 30  1  0  0  0  0
 30 33  1  0  0  0  0
 31 30  1  0  0  0  0
 32 30  1  0  0  0  0
 35 39  1  0  0  0  0
 36 38  1  6  0  0  0
 37 41  2  0  0  0  0
 38 39  1  0  0  0  0
 39 34  1  6  0  0  0
 40 45  1  1  0  0  0
 40 36  1  0  0  0  0
 40 41  1  0  0  0  0
 41 35  1  0  0  0  0
 43 44  1  0  0  0  0
 43 42  1  0  0  0  0
 44 42  1  1  0  0  0
 44 36  1  0  0  0  0
 45 46  1  0  0  0  0
 46 47  1  0  0  0  0
 48 49  2  0  0  0  0
 49 50  1  0  0  0  0
 49 47  1  0  0  0  0
M  END
>  <MODEL>
2

>  <REMARK>
 VINA RESULT:      -7.1      2.082      2.923
  Name = 
  18 active torsions:
  status: ('A' for Active; 'I' for Inactive)
    1  A    between atoms: C_2  and  N_40
    2  A    between atoms: C_3  and  C_25
    3  A    between atoms: C_3  and  C_44
    4  A    between atoms: C_4  and  C_19
    5  A    between atoms: C_4  and  C_35
    6  A    between atoms: C_7  and  C_9
    7  A    between atoms: C_7  and  C_43
    8  A    between atoms: C_10  and  C_17
    9  A    between atoms: C_11  and  C_46
   10  A    between atoms: C_12  and  C_35
   11  A    between atoms: C_13  and  C_37
   12  A    between atoms: C_13  and  C_44
   13  A    between atoms: C_17  and  C_38
   14  A    between atoms: C_18  and  C_44
   15  A    between atoms: C_19  and  C_39
   16  A    between atoms: C_21  and  C_48
   17  A    between atoms: C_24  and  C_48
   18  A    between atoms: C_25  and  C_33
                            x       y       z     vdW  Elec       q    Type
                         _______ _______ _______ _____ _____    ______ ____

>  <TORSDO>
F 18

$$$$
=
 OpenBabel11032421093D

 50 54  0  0  1  0  0  0  0  0999 V2000
  188.7900  177.6320  140.3210 C   0  0  2  0  0  3  0  0  0  0  0  0
  190.9360  177.2950  138.9290 C   0  0  2  0  0  3  0  0  0  0  0  0
  189.8810  177.6890  141.3870 C   0  0  2  0  0  3  0  0  0  0  0  0
  191.5290  177.4130  140.6460 S   0  0  0  0  0  0  0  0  0  0  0  0
  189.4310  178.2800  138.7530 S   0  0  0  0  0  0  0  0  0  0  0  0
  186.4760  178.5760  139.9310 C   0  0  0  0  0  0  0  0  0  0  0  0
  186.1840  177.8520  138.4610 S   0  0  0  0  0  0  0  0  0  0  0  0
  184.6270  178.4030  138.2710 N   0  0  0  0  0  0  0  0  0  0  0  0
  184.3790  179.1570  139.3790 C   0  0  0  0  0  0  0  0  0  0  0  0
  185.3720  179.2450  140.3200 N   0  0  0  0  0  0  0  0  0  0  0  0
  187.6360  178.4150  140.7450 N   0  0  0  0  0  2  0  0  0  0  0  0
  183.0430  179.7660  139.6010 C   0  0  0  0  0  2  0  0  0  0  0  0
  182.3640  180.0290  138.2630 C   0  0  0  0  0  2  0  0  0  0  0  0
  181.8890  182.3880  138.3560 O   0  0  0  0  0  1  0  0  0  0  0  0
  181.2880  181.1240  138.3430 C   0  0  2  0  0  0  0  0  0  0  0  0
  180.4970  180.9520  139.6400 C   0  0  0  0  0  2  0  0  0  0  0  0
  179.4430  181.8660  139.7040 O   0  0  0  0  0  1  0  0  0  0  0  0
  180.4380  182.1780  136.3390 O   0  0  0  0  0  1  0  0  0  0  0  0
  180.3130  181.0500  137.1540 C   0  0  1  0  0  3  0  0  0  0  0  0
  180.4840  179.7820  136.3260 C   0  0  0  0  0  2  0  0  0  0  0  0
  179.2400  178.9260  136.4290 C   0  0  0  0  0  1  0  0  0  0  0  0
  189.9680  175.5280  142.4390 O   0  0  0  0  0  0  0  0  0  0  0  0
  189.6110  176.7370  142.5330 C   0  0  0  0  0  0  0  0  0  0  0  0
  188.8750  177.1620  143.7420 C   0  0  0  0  0  0  0  0  0  0  0  0
  187.5820  176.8200  144.0930 C   0  0  0  0  0  3  0  0  0  0  0  0
  187.3830  177.4930  145.2830 C   0  0  0  0  0  0  0  0  0  0  0  0
  189.3840  177.9930  144.7250 C   0  0  0  0  0  3  0  0  0  0  0  0
  188.4530  178.1610  145.6340 O   0  0  0  0  0  0  0  0  0  0  0  0
  186.1130  177.4910  146.0650 C   0  0  0  0  0  2  0  0  0  0  0  0
  185.1220  178.5230  145.5430 C   0  0  0  0  0  0  0  0  0  0  0  0
  185.7450  179.7590  145.5030 F   0  0  0  0  0  0  0  0  0  0  0  0
  184.7090  178.1840  144.2660 F   0  0  0  0  0  0  0  0  0  0  0  0
  184.0200  178.5970  146.3780 F   0  0  0  0  0  0  0  0  0  0  0  0
  190.6830  175.8450  138.5340 C   0  0  0  0  0  2  0  0  0  0  0  0
  192.8610  176.3170  137.5370 N   0  0  0  0  0  2  0  0  0  0  0  0
  192.8130  173.8500  136.0420 C   0  0  2  0  0  3  0  0  0  0  0  0
  194.7080  177.0450  136.3290 O   0  0  0  0  0  0  0  0  0  0  0  0
  191.5520  174.5020  136.6040 C   0  0  0  0  0  2  0  0  0  0  0  0
  191.9200  175.2580  137.8700 C   0  0  2  0  0  3  0  0  0  0  0  0
  193.8850  174.8970  135.6680 C   0  0  1  0  0  3  0  0  0  0  0  0
  193.8740  176.1280  136.5400 C   0  0  0  0  0  0  0  0  0  0  0  0
  192.2650  171.5790  135.1620 C   0  0  0  0  0  2  0  0  0  0  0  0
  193.4680  172.0460  134.6080 O   0  0  0  0  0  0  0  0  0  0  0  0
  192.4580  173.0090  134.8120 C   0  0  2  0  0  3  0  0  0  0  0  0
  195.2840  174.2830  135.6760 C   0  0  0  0  0  2  0  0  0  0  0  0
  195.4890  173.3140  136.8260 C   0  0  0  0  0  2  0  0  0  0  0  0
  196.9450  173.3060  137.2690 C   0  0  0  0  0  2  0  0  0  0  0  0
  197.7750  175.5880  136.6510 O   0  0  0  0  0  0  0  0  0  0  0  0
  197.3720  174.6840  137.6450 C   0  0  0  0  0  0  0  0  0  0  0  0
  197.3240  175.0470  138.8490 O   0  0  0  0  0  1  0  0  0  0  0  0
  1 11  1  1  0  0  0
  1  3  1  0  0  0  0
  2 34  1  1  0  0  0
  2  4  1  0  0  0  0
  3 23  1  1  0  0  0
  4  3  1  0  0  0  0
  5  2  1  0  0  0  0
  5  1  1  0  0  0  0
  6 10  2  0  0  0  0
  6 11  1  0  0  0  0
  7  6  1  0  0  0  0
  8  7  1  0  0  0  0
  8  9  2  0  0  0  0
  9 12  1  0  0  0  0
  9 10  1  0  0  0  0
 13 15  1  0  0  0  0
 13 12  1  0  0  0  0
 15 14  1  1  0  0  0
 15 16  1  0  0  0  0
 16 17  1  0  0  0  0
 19 18  1  6  0  0  0
 19 15  1  0  0  0  0
 20 21  1  0  0  0  0
 20 19  1  0  0  0  0
 22 23  2  0  0  0  0
 23 24  1  0  0  0  0
 24 25  1  0  0  0  0
 24 27  2  0  0  0  0
 25 26  2  0  0  0  0
 26 28  1  0  0  0  0
 26 29  1  0  0  0  0
 27 28  1  0  0  0  0
 30 29  1  0  0  0  0
 30 33  1  0  0  0  0
 31 30  1  0  0  0  0
 32 30  1  0  0  0  0
 35 39  1  0  0  0  0
 36 38  1  6  0  0  0
 37 41  2  0  0  0  0
 38 39  1  0  0  0  0
 39 34  1  6  0  0  0
 40 45  1  1  0  0  0
 40 36  1  0  0  0  0
 40 41  1  0  0  0  0
 41 35  1  0  0  0  0
 43 44  1  0  0  0  0
 43 42  1  0  0  0  0
 44 42  1  1  0  0  0
 44 36  1  0  0  0  0
 45 46  1  0  0  0  0
 46 47  1  0  0  0  0
 47 49  1  0  0  0  0
 48 49  2  0  0  0  0
 49 50  1  0  0  0  0
M  END
>  <MODEL>
3

>  <REMARK>
 VINA RESULT:      -7.1      1.529      2.316
  Name = 
  18 active torsions:
  status: ('A' for Active; 'I' for Inactive)
    1  A    between atoms: C_2  and  N_40
    2  A    between atoms: C_3  and  C_25
    3  A    between atoms: C_3  and  C_44
    4  A    between atoms: C_4  and  C_19
    5  A    between atoms: C_4  and  C_35
    6  A    between atoms: C_7  and  C_9
    7  A    between atoms: C_7  and  C_43
    8  A    between atoms: C_10  and  C_17
    9  A    between atoms: C_11  and  C_46
   10  A    between atoms: C_12  and  C_35
   11  A    between atoms: C_13  and  C_37
   12  A    between atoms: C_13  and  C_44
   13  A    between atoms: C_17  and  C_38
   14  A    between atoms: C_18  and  C_44
   15  A    between atoms: C_19  and  C_39
   16  A    between atoms: C_21  and  C_48
   17  A    between atoms: C_24  and  C_48
   18  A    between atoms: C_25  and  C_33
                            x       y       z     vdW  Elec       q    Type
                         _______ _______ _______ _____ _____    ______ ____

>  <TORSDO>
F 18

$$$$
=
 OpenBabel11032421093D

 50 54  0  0  1  0  0  0  0  0999 V2000
  189.6580  176.2260  138.2720 C   0  0  2  0  0  3  0  0  0  0  0  0
  189.1470  178.5800  139.1970 C   0  0  2  0  0  3  0  0  0  0  0  0
  189.5200  177.0540  136.9960 C   0  0  2  0  0  3  0  0  0  0  0  0
  189.0910  178.7860  137.3890 S   0  0  0  0  0  0  0  0  0  0  0  0
  190.3160  177.2640  139.6060 S   0  0  0  0  0  0  0  0  0  0  0  0
  191.8980  175.2590  137.6020 C   0  0  0  0  0  0  0  0  0  0  0  0
  192.7070  176.6970  137.3880 S   0  0  0  0  0  0  0  0  0  0  0  0
  194.1960  176.0410  137.0470 N   0  0  0  0  0  0  0  0  0  0  0  0
  194.0120  174.6920  137.1040 C   0  0  0  0  0  0  0  0  0  0  0  0
  192.7610  174.2370  137.4340 N   0  0  0  0  0  0  0  0  0  0  0  0
  190.5490  175.0970  138.0390 N   0  0  0  0  0  2  0  0  0  0  0  0
  195.1530  173.7600  136.9210 C   0  0  0  0  0  2  0  0  0  0  0  0
  196.0300  173.7640  138.1660 C   0  0  0  0  0  2  0  0  0  0  0  0
  197.3600  175.4740  137.1150 O   0  0  0  0  0  1  0  0  0  0  0  0
  197.4390  174.3220  137.9050 C   0  0  2  0  0  0  0  0  0  0  0  0
  198.2570  173.2740  137.1510 C   0  0  0  0  0  2  0  0  0  0  0  0
  198.0040  171.9940  137.6480 O   0  0  0  0  0  1  0  0  0  0  0  0
  199.1530  175.6310  138.9990 O   0  0  0  0  0  1  0  0  0  0  0  0
  198.1640  174.6680  139.2170 C   0  0  1  0  0  3  0  0  0  0  0  0
  197.2150  175.1310  140.3160 C   0  0  0  0  0  2  0  0  0  0  0  0
  197.9950  175.4490  141.5730 C   0  0  0  0  0  1  0  0  0  0  0  0
  188.9260  176.1480  134.8490 O   0  0  0  0  0  0  0  0  0  0  0  0
  188.5420  176.4370  136.0180 C   0  0  0  0  0  0  0  0  0  0  0  0
  187.1230  176.2230  136.3670 C   0  0  0  0  0  0  0  0  0  0  0  0
  186.0800  177.1150  136.1990 C   0  0  0  0  0  3  0  0  0  0  0  0
  184.9880  176.4330  136.7000 C   0  0  0  0  0  0  0  0  0  0  0  0
  186.6140  175.0670  136.9350 C   0  0  0  0  0  3  0  0  0  0  0  0
  185.3250  175.2380  137.1140 O   0  0  0  0  0  0  0  0  0  0  0  0
  183.6040  176.9820  136.7910 C   0  0  0  0  0  2  0  0  0  0  0  0
  183.3580  177.6890  138.1180 C   0  0  0  0  0  0  0  0  0  0  0  0
  182.9650  178.9920  137.8630 F   0  0  0  0  0  0  0  0  0  0  0  0
  182.3560  177.0450  138.8230 F   0  0  0  0  0  0  0  0  0  0  0  0
  184.5160  177.7050  138.8770 F   0  0  0  0  0  0  0  0  0  0  0  0
  187.7640  178.2690  139.7570 C   0  0  0  0  0  2  0  0  0  0  0  0
  188.5160  177.0040  141.7060 N   0  0  0  0  0  2  0  0  0  0  0  0
  186.5330  178.2480  143.3930 C   0  0  2  0  0  3  0  0  0  0  0  0
  189.0110  175.4650  143.3750 O   0  0  0  0  0  0  0  0  0  0  0  0
  186.4170  178.2060  141.8700 C   0  0  0  0  0  2  0  0  0  0  0  0
  187.8160  178.2060  141.2770 C   0  0  2  0  0  3  0  0  0  0  0  0
  187.2790  177.0130  143.9470 C   0  0  1  0  0  3  0  0  0  0  0  0
  188.3370  176.4660  143.0220 C   0  0  0  0  0  0  0  0  0  0  0  0
  184.6030  179.7200  143.9720 C   0  0  0  0  0  2  0  0  0  0  0  0
  185.1880  179.1940  145.1340 O   0  0  0  0  0  0  0  0  0  0  0  0
  185.1380  178.3350  144.0170 C   0  0  2  0  0  3  0  0  0  0  0  0
  187.9000  177.3100  145.3110 C   0  0  0  0  0  2  0  0  0  0  0  0
  189.1780  178.1230  145.2050 C   0  0  0  0  0  2  0  0  0  0  0  0
  190.2950  177.4750  146.0100 C   0  0  0  0  0  2  0  0  0  0  0  0
  191.9580  175.8260  145.1210 O   0  0  0  0  0  1  0  0  0  0  0  0
  191.4350  177.1280  145.1170 C   0  0  0  0  0  0  0  0  0  0  0  0
  191.8960  177.9920  144.3250 O   0  0  0  0  0  0  0  0  0  0  0  0
  1 11  1  6  0  0  0
  1  5  1  0  0  0  0
  2  5  1  0  0  0  0
  2 34  1  6  0  0  0
  3 23  1  6  0  0  0
  3  4  1  0  0  0  0
  3  1  1  0  0  0  0
  4  2  1  0  0  0  0
  6 11  1  0  0  0  0
  7  6  1  0  0  0  0
  8  9  2  0  0  0  0
  8  7  1  0  0  0  0
  9 10  1  0  0  0  0
 10  6  2  0  0  0  0
 12  9  1  0  0  0  0
 12 13  1  0  0  0  0
 15 14  1  6  0  0  0
 15 13  1  0  0  0  0
 15 19  1  0  0  0  0
 16 17  1  0  0  0  0
 16 15  1  0  0  0  0
 19 18  1  6  0  0  0
 19 20  1  0  0  0  0
 20 21  1  0  0  0  0
 22 23  2  0  0  0  0
 23 24  1  0  0  0  0
 24 27  2  0  0  0  0
 25 24  1  0  0  0  0
 25 26  2  0  0  0  0
 26 29  1  0  0  0  0
 26 28  1  0  0  0  0
 27 28  1  0  0  0  0
 29 30  1  0  0  0  0
 30 32  1  0  0  0  0
 30 33  1  0  0  0  0
 31 30  1  0  0  0  0
 35 41  1  0  0  0  0
 36 38  1  6  0  0  0
 36 40  1  0  0  0  0
 36 44  1  0  0  0  0
 39 34  1  6  0  0  0
 39 35  1  0  0  0  0
 39 38  1  0  0  0  0
 40 45  1  1  0  0  0
 41 37  2  0  0  0  0
 41 40  1  0  0  0  0
 42 43  1  0  0  0  0
 44 42  1  6  0  0  0
 44 43  1  0  0  0  0
 46 45  1  0  0  0  0
 46 47  1  0  0  0  0
 49 48  1  0  0  0  0
 49 47  1  0  0  0  0
 50 49  2  0  0  0  0
M  END
>  <MODEL>
4

>  <REMARK>
 VINA RESULT:      -7.1      3.455     11.151
  Name = 
  18 active torsions:
  status: ('A' for Active; 'I' for Inactive)
    1  A    between atoms: C_2  and  N_40
    2  A    between atoms: C_3  and  C_25
    3  A    between atoms: C_3  and  C_44
    4  A    between atoms: C_4  and  C_19
    5  A    between atoms: C_4  and  C_35
    6  A    between atoms: C_7  and  C_9
    7  A    between atoms: C_7  and  C_43
    8  A    between atoms: C_10  and  C_17
    9  A    between atoms: C_11  and  C_46
   10  A    between atoms: C_12  and  C_35
   11  A    between atoms: C_13  and  C_37
   12  A    between atoms: C_13  and  C_44
   13  A    between atoms: C_17  and  C_38
   14  A    between atoms: C_18  and  C_44
   15  A    between atoms: C_19  and  C_39
   16  A    between atoms: C_21  and  C_48
   17  A    between atoms: C_24  and  C_48
   18  A    between atoms: C_25  and  C_33
                            x       y       z     vdW  Elec       q    Type
                         _______ _______ _______ _____ _____    ______ ____

>  <TORSDO>
F 18

$$$$
=
 OpenBabel11032421093D

 50 54  0  0  1  0  0  0  0  0999 V2000
  189.9650  177.0360  138.8330 C   0  0  2  0  0  3  0  0  0  0  0  0
  188.4100  177.9710  136.9990 C   0  0  2  0  0  3  0  0  0  0  0  0
  190.7110  176.6640  137.5540 C   0  0  2  0  0  3  0  0  0  0  0  0
  189.7650  177.1780  136.0780 S   0  0  0  0  0  0  0  0  0  0  0  0
  189.0450  178.5780  138.5790 S   0  0  0  0  0  0  0  0  0  0  0  0
  190.5210  177.0870  141.3010 C   0  0  0  0  0  0  0  0  0  0  0  0
  189.0190  176.6660  141.8770 S   0  0  0  0  0  0  0  0  0  0  0  0
  189.4300  176.6080  143.4870 N   0  0  0  0  0  0  0  0  0  0  0  0
  190.7530  176.9340  143.5280 C   0  0  0  0  0  0  0  0  0  0  0  0
  191.3830  177.1750  142.3340 N   0  0  0  0  0  0  0  0  0  0  0  0
  190.9090  177.1980  139.9320 N   0  0  0  0  0  2  0  0  0  0  0  0
  191.5010  176.9180  144.8110 C   0  0  0  0  0  2  0  0  0  0  0  0
  190.8450  177.8660  145.8060 C   0  0  0  0  0  2  0  0  0  0  0  0
  190.6160  178.0070  148.1990 O   0  0  0  0  0  1  0  0  0  0  0  0
  190.4060  177.1640  147.1010 C   0  0  2  0  0  0  0  0  0  0  0  0
  191.2460  175.9020  147.2930 C   0  0  0  0  0  2  0  0  0  0  0  0
  192.4290  176.1920  147.9770 O   0  0  0  0  0  1  0  0  0  0  0  0
  188.3890  176.6820  148.3470 O   0  0  0  0  0  1  0  0  0  0  0  0
  188.9190  176.7680  147.0570 C   0  0  1  0  0  3  0  0  0  0  0  0
  188.0790  177.7130  146.2060 C   0  0  0  0  0  2  0  0  0  0  0  0
  186.8380  178.1280  146.9670 C   0  0  0  0  0  1  0  0  0  0  0  0
  190.1710  174.3240  137.6850 O   0  0  0  0  0  0  0  0  0  0  0  0
  191.0710  175.1940  137.5100 C   0  0  0  0  0  0  0  0  0  0  0  0
  192.4650  174.7390  137.3360 C   0  0  0  0  0  0  0  0  0  0  0  0
  192.8880  173.5210  136.8340 C   0  0  0  0  0  3  0  0  0  0  0  0
  194.2650  173.6030  136.9060 C   0  0  0  0  0  0  0  0  0  0  0  0
  193.5860  175.4820  137.6640 C   0  0  0  0  0  3  0  0  0  0  0  0
  194.6460  174.7600  137.3850 O   0  0  0  0  0  0  0  0  0  0  0  0
  195.2080  172.5140  136.5200 C   0  0  0  0  0  2  0  0  0  0  0  0
  195.5780  171.6330  137.7080 C   0  0  0  0  0  0  0  0  0  0  0  0
  195.0070  170.3840  137.5310 F   0  0  0  0  0  0  0  0  0  0  0  0
  196.9530  171.4950  137.7880 F   0  0  0  0  0  0  0  0  0  0  0  0
  195.1030  172.1870  138.8840 F   0  0  0  0  0  0  0  0  0  0  0  0
  187.2530  177.0030  137.2170 C   0  0  0  0  0  2  0  0  0  0  0  0
  185.9910  178.5260  138.6500 N   0  0  0  0  0  2  0  0  0  0  0  0
  183.4840  177.6640  137.5130 C   0  0  2  0  0  3  0  0  0  0  0  0
  184.8670  179.6740  140.3290 O   0  0  0  0  0  0  0  0  0  0  0  0
  184.7620  176.8300  137.4280 C   0  0  0  0  0  2  0  0  0  0  0  0
  185.9530  177.7730  137.4050 C   0  0  2  0  0  3  0  0  0  0  0  0
  183.4350  178.5140  138.8010 C   0  0  1  0  0  3  0  0  0  0  0  0
  184.7880  178.9700  139.2900 C   0  0  0  0  0  0  0  0  0  0  0  0
  181.8270  176.5000  136.0530 C   0  0  0  0  0  2  0  0  0  0  0  0
  181.1870  177.4470  136.8680 O   0  0  0  0  0  0  0  0  0  0  0  0
  182.2610  176.7440  137.4520 C   0  0  2  0  0  3  0  0  0  0  0  0
  182.5240  179.7280  138.6280 C   0  0  0  0  0  2  0  0  0  0  0  0
  181.3310  179.6990  139.5660 C   0  0  0  0  0  2  0  0  0  0  0  0
  181.5250  178.6480  140.6490 C   0  0  0  0  0  2  0  0  0  0  0  0
  180.4790  180.1680  142.3440 O   0  0  0  0  0  1  0  0  0  0  0  0
  180.5770  178.8900  141.7730 C   0  0  0  0  0  0  0  0  0  0  0  0
  179.8330  177.9580  142.1760 O   0  0  0  0  0  0  0  0  0  0  0  0
  1 11  1  1  0  0  0
  2 34  1  1  0  0  0
  2  5  1  0  0  0  0
  3 23  1  6  0  0  0
  3  1  1  0  0  0  0
  4  2  1  0  0  0  0
  4  3  1  0  0  0  0
  5  1  1  0  0  0  0
  6  7  1  0  0  0  0
  6 10  2  0  0  0  0
  7  8  1  0  0  0  0
  8  9  2  0  0  0  0
  9 12  1  0  0  0  0
 10  9  1  0  0  0  0
 11  6  1  0  0  0  0
 12 13  1  0  0  0  0
 13 15  1  0  0  0  0
 15 16  1  0  0  0  0
 15 14  1  1  0  0  0
 16 17  1  0  0  0  0
 19 15  1  0  0  0  0
 19 18  1  1  0  0  0
 20 21  1  0  0  0  0
 20 19  1  0  0  0  0
 23 22  2  0  0  0  0
 24 23  1  0  0  0  0
 24 27  2  0  0  0  0
 25 26  2  0  0  0  0
 25 24  1  0  0  0  0
 26 28  1  0  0  0  0
 28 27  1  0  0  0  0
 29 26  1  0  0  0  0
 29 30  1  0  0  0  0
 30 32  1  0  0  0  0
 30 33  1  0  0  0  0
 31 30  1  0  0  0  0
 35 41  1  0  0  0  0
 36 38  1  1  0  0  0
 36 40  1  0  0  0  0
 39 34  1  1  0  0  0
 39 38  1  0  0  0  0
 39 35  1  0  0  0  0
 40 45  1  6  0  0  0
 40 41  1  0  0  0  0
 41 37  2  0  0  0  0
 42 43  1  0  0  0  0
 43 44  1  0  0  0  0
 44 42  1  6  0  0  0
 44 36  1  0  0  0  0
 45 46  1  0  0  0  0
 46 47  1  0  0  0  0
 47 49  1  0  0  0  0
 49 50  2  0  0  0  0
 49 48  1  0  0  0  0
M  END
>  <MODEL>
5

>  <REMARK>
 VINA RESULT:      -7.0      4.321     10.846
  Name = 
  18 active torsions:
  status: ('A' for Active; 'I' for Inactive)
    1  A    between atoms: C_2  and  N_40
    2  A    between atoms: C_3  and  C_25
    3  A    between atoms: C_3  and  C_44
    4  A    between atoms: C_4  and  C_19
    5  A    between atoms: C_4  and  C_35
    6  A    between atoms: C_7  and  C_9
    7  A    between atoms: C_7  and  C_43
    8  A    between atoms: C_10  and  C_17
    9  A    between atoms: C_11  and  C_46
   10  A    between atoms: C_12  and  C_35
   11  A    between atoms: C_13  and  C_37
   12  A    between atoms: C_13  and  C_44
   13  A    between atoms: C_17  and  C_38
   14  A    between atoms: C_18  and  C_44
   15  A    between atoms: C_19  and  C_39
   16  A    between atoms: C_21  and  C_48
   17  A    between atoms: C_24  and  C_48
   18  A    between atoms: C_25  and  C_33
                            x       y       z     vdW  Elec       q    Type
                         _______ _______ _______ _____ _____    ______ ____

>  <TORSDO>
F 18

$$$$
=
 OpenBabel11032421093D

 50 55  0  0  1  0  0  0  0  0999 V2000
  190.3010  177.7420  141.4780 C   0  0  2  0  0  3  0  0  0  0  0  0
  187.7320  177.5170  141.5330 C   0  0  2  0  0  3  0  0  0  0  0  0
  190.0840  176.7810  142.6450 C   0  0  2  0  0  3  0  0  0  0  0  0
  188.3010  176.5000  142.9310 S   0  0  0  0  0  0  0  0  0  0  0  0
  188.9950  177.5080  140.2410 S   0  0  2  0  0  3  0  0  0  0  0  0
  191.7550  176.9760  139.5540 C   0  0  0  0  0  0  0  0  0  0  0  0
  190.5360  176.6500  138.4700 S   0  0  2  0  0  3  0  0  0  0  0  0
  191.5120  176.2460  137.1860 N   0  0  0  0  0  0  0  0  0  0  0  0
  192.7860  176.3730  137.6540 C   0  0  0  0  0  0  0  0  0  0  0  0
  192.9460  176.8000  138.9470 N   0  0  0  0  0  0  0  0  0  0  0  0
  191.6050  177.5030  140.8720 N   0  0  0  0  0  2  0  0  0  0  0  0
  193.9500  176.1600  136.7580 C   0  0  0  0  0  2  0  0  0  0  0  0
  194.5780  174.8000  137.0360 C   0  0  0  0  0  2  0  0  0  0  0  0
  196.4790  175.9660  136.1280 O   0  0  0  0  0  1  0  0  0  0  0  0
  196.0550  174.7260  136.6170 C   0  0  2  0  0  0  0  0  0  0  0  0
  196.2050  173.6900  135.5040 C   0  0  0  0  0  2  0  0  0  0  0  0
  197.2300  172.7880  135.7990 O   0  0  0  0  0  1  0  0  0  0  0  0
  197.9830  175.2550  137.9780 O   0  0  0  0  0  1  0  0  0  0  0  0
  196.9590  174.3220  137.7960 C   0  0  1  0  0  3  0  0  0  0  0  0
  196.1870  174.1280  139.0960 C   0  0  0  0  0  2  0  0  0  0  0  0
  196.7440  175.0410  140.1670 C   0  0  0  0  0  1  0  0  0  0  0  0
  192.0140  177.5610  143.8490 O   0  0  0  0  0  0  0  0  0  0  0  0
  190.7920  177.2400  143.9020 C   0  0  0  0  0  0  0  0  0  0  0  0
  190.1160  177.2600  145.2140 C   0  0  0  0  0  0  0  0  0  0  0  0
  188.8660  177.7790  145.5000 C   0  0  0  0  0  3  0  0  0  0  0  0
  188.7290  177.5610  146.8570 C   0  0  0  0  0  0  0  0  0  0  0  0
  190.6500  176.7540  146.3870 C   0  0  0  0  0  3  0  0  0  0  0  0
  189.7790  176.9540  147.3480 O   0  0  0  0  0  0  0  0  0  0  0  0
  187.5560  177.9830  147.6770 C   0  0  0  0  0  2  0  0  0  0  0  0
  186.3110  178.1930  146.8230 C   0  0  0  0  0  0  0  0  0  0  0  0
  186.1870  177.1280  145.9470 F   0  0  0  0  0  0  0  0  0  0  0  0
  185.1860  178.2490  147.6280 F   0  0  0  0  0  0  0  0  0  0  0  0
  186.4170  179.3680  146.0990 F   0  0  0  0  0  0  0  0  0  0  0  0
  187.4240  178.9420  141.9790 C   0  0  0  0  0  2  0  0  0  0  0  0
  185.3490  178.9880  143.2660 N   0  0  0  0  0  2  0  0  0  0  0  0
  183.7580  178.6240  140.8860 C   0  0  2  0  0  3  0  0  0  0  0  0
  183.4840  178.6190  144.6020 O   0  0  0  0  0  0  0  0  0  0  0  0
  185.2400  178.2590  140.9560 C   0  0  0  0  0  2  0  0  0  0  0  0
  185.9230  179.1900  141.9430 C   0  0  2  0  0  3  0  0  0  0  0  0
  183.0590  178.4540  142.2530 C   0  0  1  0  0  3  0  0  0  0  0  0
  183.9510  178.7210  143.4390 C   0  0  0  0  0  0  0  0  0  0  0  0
  183.4380  178.1580  138.4550 C   0  0  0  0  0  2  0  0  0  0  0  0
  182.2330  178.5780  139.0400 O   0  0  0  0  0  0  0  0  0  0  0  0
  183.0600  177.7570  139.8340 C   0  0  2  0  0  3  0  0  0  0  0  0
  181.8120  179.3330  142.3480 C   0  0  0  0  0  2  0  0  0  0  0  0
  180.5550  178.5310  142.6350 C   0  0  0  0  0  2  0  0  0  0  0  0
  179.6270  178.5370  141.4290 C   0  0  0  0  0  2  0  0  0  0  0  0
  179.5060  176.9090  139.5290 O   0  0  0  0  0  0  0  0  0  0  0  0
  179.4530  177.1520  140.9090 C   0  0  0  0  0  0  0  0  0  0  0  0
  179.3070  176.1950  141.7150 O   0  0  0  0  0  1  0  0  0  0  0  0
  1 11  1  6  0  0  0
  1  3  1  0  0  0  0
  2 34  1  1  0  0  0
  2  4  1  0  0  0  0
  3  4  1  0  0  0  0
  3 23  1  1  0  0  0
  5  1  1  0  0  0  0
  5  2  1  0  0  0  0
  6 11  1  0  0  0  0
  7  6  1  0  0  0  0
  7  5  1  0  0  0  0
  8  9  2  0  0  0  0
  8  7  1  0  0  0  0
  9 10  1  0  0  0  0
 10  6  2  0  0  0  0
 12 13  1  0  0  0  0
 12  9  1  0  0  0  0
 14 15  1  0  0  0  0
 15 13  1  0  0  0  0
 15 19  1  0  0  0  0
 16 17  1  0  0  0  0
 16 15  1  0  0  0  0
 19 18  1  0  0  0  0
 19 20  1  0  0  0  0
 20 21  1  0  0  0  0
 22 23  2  0  0  0  0
 23 24  1  0  0  0  0
 24 25  1  0  0  0  0
 24 27  2  0  0  0  0
 25 26  2  0  0  0  0
 26 28  1  0  0  0  0
 26 29  1  0  0  0  0
 27 28  1  0  0  0  0
 30 32  1  0  0  0  0
 30 29  1  0  0  0  0
 31 30  1  0  0  0  0
 33 30  1  0  0  0  0
 35 41  1  0  0  0  0
 36 38  1  0  0  0  0
 36 40  1  0  0  0  0
 38 39  1  0  0  0  0
 39 34  1  0  0  0  0
 39 35  1  0  0  0  0
 40 45  1  0  0  0  0
 40 41  1  0  0  0  0
 41 37  2  0  0  0  0
 42 43  1  0  0  0  0
 42 44  1  0  0  0  0
 43 44  1  0  0  0  0
 44 36  1  0  0  0  0
 45 46  1  0  0  0  0
 47 46  1  0  0  0  0
 48 49  2  0  0  0  0
 49 47  1  0  0  0  0
 49 50  1  0  0  0  0
M  END
>  <MODEL>
6

>  <REMARK>
 VINA RESULT:      -6.6      2.126     11.257
  Name = 
  18 active torsions:
  status: ('A' for Active; 'I' for Inactive)
    1  A    between atoms: C_2  and  N_40
    2  A    between atoms: C_3  and  C_25
    3  A    between atoms: C_3  and  C_44
    4  A    between atoms: C_4  and  C_19
    5  A    between atoms: C_4  and  C_35
    6  A    between atoms: C_7  and  C_9
    7  A    between atoms: C_7  and  C_43
    8  A    between atoms: C_10  and  C_17
    9  A    between atoms: C_11  and  C_46
   10  A    between atoms: C_12  and  C_35
   11  A    between atoms: C_13  and  C_37
   12  A    between atoms: C_13  and  C_44
   13  A    between atoms: C_17  and  C_38
   14  A    between atoms: C_18  and  C_44
   15  A    between atoms: C_19  and  C_39
   16  A    between atoms: C_21  and  C_48
   17  A    between atoms: C_24  and  C_48
   18  A    between atoms: C_25  and  C_33
                            x       y       z     vdW  Elec       q    Type
                         _______ _______ _______ _____ _____    ______ ____

>  <TORSDO>
F 18

$$$$
=
 OpenBabel11032421093D

 50 54  0  0  1  0  0  0  0  0999 V2000
  188.8360  177.6410  140.1820 C   0  0  2  0  0  3  0  0  0  0  0  0
  190.9860  177.3430  138.7860 C   0  0  2  0  0  3  0  0  0  0  0  0
  189.9300  177.7510  141.2420 C   0  0  2  0  0  3  0  0  0  0  0  0
  191.5820  177.5110  140.4980 S   0  0  0  0  0  0  0  0  0  0  0  0
  189.4510  178.2790  138.5990 S   0  0  0  0  0  0  0  0  0  0  0  0
  186.4660  178.4470  139.8210 C   0  0  0  0  0  0  0  0  0  0  0  0
  186.1570  177.6080  138.4170 S   0  0  0  0  0  0  0  0  0  0  0  0
  184.5680  178.0710  138.2520 N   0  0  0  0  0  0  0  0  0  0  0  0
  184.3240  178.8890  139.3140 C   0  0  0  0  0  0  0  0  0  0  0  0
  185.3450  179.0890  140.2070 N   0  0  0  0  0  0  0  0  0  0  0  0
  187.6620  178.3970  140.5980 N   0  0  0  0  0  2  0  0  0  0  0  0
  182.9690  179.4490  139.5470 C   0  0  0  0  0  2  0  0  0  0  0  0
  182.4550  179.0140  140.9130 C   0  0  0  0  0  2  0  0  0  0  0  0
  180.3590  179.7500  139.9860 O   0  0  0  0  0  1  0  0  0  0  0  0
  180.9210  178.9440  140.9820 C   0  0  2  0  0  0  0  0  0  0  0  0
  180.4590  179.4640  142.3430 C   0  0  0  0  0  2  0  0  0  0  0  0
  181.5240  179.5050  143.2460 O   0  0  0  0  0  1  0  0  0  0  0  0
  179.3530  177.2380  141.6770 O   0  0  0  0  0  1  0  0  0  0  0  0
  180.4100  177.5030  140.8020 C   0  0  1  0  0  3  0  0  0  0  0  0
  179.9940  177.1970  139.3680 C   0  0  0  0  0  2  0  0  0  0  0  0
  180.8040  176.0360  138.8320 C   0  0  0  0  0  1  0  0  0  0  0  0
  190.1850  175.6490  142.3810 O   0  0  0  0  0  0  0  0  0  0  0  0
  189.6930  176.8130  142.4070 C   0  0  0  0  0  0  0  0  0  0  0  0
  188.8420  177.1930  143.5520 C   0  0  0  0  0  0  0  0  0  0  0  0
  187.5080  176.8820  143.7380 C   0  0  0  0  0  3  0  0  0  0  0  0
  187.1990  177.4890  144.9400 C   0  0  0  0  0  0  0  0  0  0  0  0
  189.2640  177.9440  144.6360 C   0  0  0  0  0  3  0  0  0  0  0  0
  188.2440  178.0940  145.4470 O   0  0  0  0  0  0  0  0  0  0  0  0
  185.8500  177.4900  145.5770 C   0  0  0  0  0  2  0  0  0  0  0  0
  184.9100  178.4910  144.9170 C   0  0  0  0  0  0  0  0  0  0  0  0
  185.6380  179.6090  144.5460 F   0  0  0  0  0  0  0  0  0  0  0  0
  184.3350  177.9310  143.7880 F   0  0  0  0  0  0  0  0  0  0  0  0
  183.9130  178.8690  145.8000 F   0  0  0  0  0  0  0  0  0  0  0  0
  190.7740  175.8790  138.4190 C   0  0  0  0  0  2  0  0  0  0  0  0
  192.9460  176.3400  137.4040 N   0  0  0  0  0  2  0  0  0  0  0  0
  193.0960  173.6800  136.2970 C   0  0  2  0  0  3  0  0  0  0  0  0
  194.7780  177.0010  136.1350 O   0  0  0  0  0  0  0  0  0  0  0  0
  191.7810  174.3240  136.7310 C   0  0  0  0  0  2  0  0  0  0  0  0
  192.0640  175.2830  137.8750 C   0  0  2  0  0  3  0  0  0  0  0  0
  194.1110  174.7290  135.7900 C   0  0  1  0  0  3  0  0  0  0  0  0
  193.9970  176.0720  136.4660 C   0  0  0  0  0  0  0  0  0  0  0  0
  192.7670  171.2660  135.7540 C   0  0  0  0  0  2  0  0  0  0  0  0
  193.9260  171.7580  135.1320 O   0  0  0  0  0  0  0  0  0  0  0  0
  192.8300  172.6440  135.2020 C   0  0  2  0  0  3  0  0  0  0  0  0
  195.5450  174.2170  135.9170 C   0  0  0  0  0  2  0  0  0  0  0  0
  196.2360  174.7250  137.1690 C   0  0  0  0  0  2  0  0  0  0  0  0
  197.0300  173.6100  137.8330 C   0  0  0  0  0  2  0  0  0  0  0  0
  195.4130  171.7320  138.2000 O   0  0  0  0  0  1  0  0  0  0  0  0
  196.4660  172.2840  137.4550 C   0  0  0  0  0  0  0  0  0  0  0  0
  196.9030  171.6840  136.4380 O   0  0  0  0  0  0  0  0  0  0  0  0
  1 11  1  1  0  0  0
  1  3  1  0  0  0  0
  2 34  1  1  0  0  0
  2  4  1  0  0  0  0
  3 23  1  1  0  0  0
  4  3  1  0  0  0  0
  5  2  1  0  0  0  0
  5  1  1  0  0  0  0
  6 10  2  0  0  0  0
  6 11  1  0  0  0  0
  7  6  1  0  0  0  0
  8  7  1  0  0  0  0
  8  9  2  0  0  0  0
  9 12  1  0  0  0  0
  9 10  1  0  0  0  0
 12 13  1  0  0  0  0
 13 15  1  0  0  0  0
 15 14  1  6  0  0  0
 15 16  1  0  0  0  0
 16 17  1  0  0  0  0
 19 15  1  0  0  0  0
 19 18  1  1  0  0  0
 20 19  1  0  0  0  0
 21 20  1  0  0  0  0
 22 23  2  0  0  0  0
 23 24  1  0  0  0  0
 24 25  1  0  0  0  0
 24 27  2  0  0  0  0
 25 26  2  0  0  0  0
 26 28  1  0  0  0  0
 26 29  1  0  0  0  0
 27 28  1  0  0  0  0
 30 29  1  0  0  0  0
 30 33  1  0  0  0  0
 31 30  1  0  0  0  0
 32 30  1  0  0  0  0
 35 39  1  0  0  0  0
 36 38  1  6  0  0  0
 37 41  2  0  0  0  0
 38 39  1  0  0  0  0
 39 34  1  6  0  0  0
 40 45  1  1  0  0  0
 40 36  1  0  0  0  0
 40 41  1  0  0  0  0
 41 35  1  0  0  0  0
 43 44  1  0  0  0  0
 43 42  1  0  0  0  0
 44 42  1  1  0  0  0
 44 36  1  0  0  0  0
 45 46  1  0  0  0  0
 46 47  1  0  0  0  0
 49 47  1  0  0  0  0
 49 48  1  0  0  0  0
 50 49  2  0  0  0  0
M  END
>  <MODEL>
7

>  <REMARK>
 VINA RESULT:      -6.6      1.177      1.782
  Name = 
  18 active torsions:
  status: ('A' for Active; 'I' for Inactive)
    1  A    between atoms: C_2  and  N_40
    2  A    between atoms: C_3  and  C_25
    3  A    between atoms: C_3  and  C_44
    4  A    between atoms: C_4  and  C_19
    5  A    between atoms: C_4  and  C_35
    6  A    between atoms: C_7  and  C_9
    7  A    between atoms: C_7  and  C_43
    8  A    between atoms: C_10  and  C_17
    9  A    between atoms: C_11  and  C_46
   10  A    between atoms: C_12  and  C_35
   11  A    between atoms: C_13  and  C_37
   12  A    between atoms: C_13  and  C_44
   13  A    between atoms: C_17  and  C_38
   14  A    between atoms: C_18  and  C_44
   15  A    between atoms: C_19  and  C_39
   16  A    between atoms: C_21  and  C_48
   17  A    between atoms: C_24  and  C_48
   18  A    between atoms: C_25  and  C_33
                            x       y       z     vdW  Elec       q    Type
                         _______ _______ _______ _____ _____    ______ ____

>  <TORSDO>
F 18

$$$$
=
 OpenBabel11032421093D

 50 54  0  0  1  0  0  0  0  0999 V2000
  188.1300  176.6990  137.5280 C   0  0  2  0  0  3  0  0  0  0  0  0
  186.0420  177.9220  136.6310 C   0  0  2  0  0  3  0  0  0  0  0  0
  188.3730  176.6950  136.0200 C   0  0  2  0  0  3  0  0  0  0  0  0
  186.9750  177.4710  135.1350 S   0  0  0  0  0  0  0  0  0  0  0  0
  187.2000  178.1850  137.9940 S   0  0  0  0  0  0  0  0  0  0  0  0
  189.5580  177.1910  139.5570 C   0  0  0  0  0  0  0  0  0  0  0  0
  188.3570  177.8070  140.5310 S   0  0  0  0  0  0  0  0  0  0  0  0
  189.2930  178.0300  141.8870 N   0  0  0  0  0  0  0  0  0  0  0  0
  190.5410  177.6160  141.5300 C   0  0  0  0  0  0  0  0  0  0  0  0
  190.7060  177.1240  140.2600 N   0  0  0  0  0  0  0  0  0  0  0  0
  189.4020  176.6690  138.2380 N   0  0  0  0  0  2  0  0  0  0  0  0
  191.6490  177.5990  142.5180 C   0  0  0  0  0  2  0  0  0  0  0  0
  191.1860  178.2250  143.8270 C   0  0  0  0  0  2  0  0  0  0  0  0
  192.0210  177.2050  145.8420 O   0  0  0  0  0  1  0  0  0  0  0  0
  190.9540  177.1880  144.9370 C   0  0  2  0  0  0  0  0  0  0  0  0
  190.8730  175.7970  144.3100 C   0  0  0  0  0  2  0  0  0  0  0  0
  192.0620  175.0910  144.5120 O   0  0  0  0  0  1  0  0  0  0  0  0
  188.5650  176.8340  145.0830 O   0  0  0  0  0  1  0  0  0  0  0  0
  189.6480  177.4620  145.7050 C   0  0  1  0  0  3  0  0  0  0  0  0
  189.7240  177.0480  147.1700 C   0  0  0  0  0  2  0  0  0  0  0  0
  188.7560  177.8740  147.9910 C   0  0  0  0  0  1  0  0  0  0  0  0
  189.5690  175.1560  134.6130 O   0  0  0  0  0  0  0  0  0  0  0  0
  188.6760  175.3080  135.4940 C   0  0  0  0  0  0  0  0  0  0  0  0
  187.9080  174.1250  135.9310 C   0  0  0  0  0  0  0  0  0  0  0  0
  186.6090  173.7990  135.5830 C   0  0  0  0  0  3  0  0  0  0  0  0
  186.3760  172.6250  136.2720 C   0  0  0  0  0  0  0  0  0  0  0  0
  188.3850  173.1430  136.7810 C   0  0  0  0  0  3  0  0  0  0  0  0
  187.4310  172.2590  136.9550 O   0  0  0  0  0  0  0  0  0  0  0  0
  185.0870  171.8740  136.2710 C   0  0  0  0  0  2  0  0  0  0  0  0
  184.0640  172.4970  137.2130 C   0  0  0  0  0  0  0  0  0  0  0  0
  183.1510  171.5240  137.5860 F   0  0  0  0  0  0  0  0  0  0  0  0
  184.6950  172.9830  138.3450 F   0  0  0  0  0  0  0  0  0  0  0  0
  183.3940  173.5300  136.5810 F   0  0  0  0  0  0  0  0  0  0  0  0
  185.0220  176.8460  136.9880 C   0  0  0  0  0  2  0  0  0  0  0  0
  183.3940  176.2090  138.6920 N   0  0  0  0  0  2  0  0  0  0  0  0
  182.3300  178.8880  138.8070 C   0  0  2  0  0  3  0  0  0  0  0  0
  181.6240  175.4210  139.9750 O   0  0  0  0  0  0  0  0  0  0  0  0
  183.1310  178.3650  137.6160 C   0  0  0  0  0  2  0  0  0  0  0  0
  184.1230  177.3290  138.1160 C   0  0  2  0  0  3  0  0  0  0  0  0
  181.5270  177.7640  139.4980 C   0  0  1  0  0  3  0  0  0  0  0  0
  182.1870  176.4090  139.4390 C   0  0  0  0  0  0  0  0  0  0  0  0
  181.9340  181.3460  138.6270 C   0  0  0  0  0  2  0  0  0  0  0  0
  180.9780  180.7520  139.4670 O   0  0  0  0  0  0  0  0  0  0  0  0
  181.3790  179.9970  138.3460 C   0  0  2  0  0  3  0  0  0  0  0  0
  181.2220  178.1170  140.9540 C   0  0  0  0  0  2  0  0  0  0  0  0
  182.4790  178.3840  141.7630 C   0  0  0  0  0  2  0  0  0  0  0  0
  182.1290  179.0060  143.1070 C   0  0  0  0  0  2  0  0  0  0  0  0
  183.4880  178.6170  145.1760 O   0  0  0  0  0  1  0  0  0  0  0  0
  183.3660  179.2130  143.9120 C   0  0  0  0  0  0  0  0  0  0  0  0
  184.3180  179.8840  143.4350 O   0  0  0  0  0  0  0  0  0  0  0  0
  1  5  1  0  0  0  0
  1 11  1  1  0  0  0
  2 34  1  1  0  0  0
  2  5  1  0  0  0  0
  3 23  1  6  0  0  0
  3  1  1  0  0  0  0
  4  3  1  0  0  0  0
  4  2  1  0  0  0  0
  6 10  2  0  0  0  0
  6  7  1  0  0  0  0
  7  8  1  0  0  0  0
  9  8  2  0  0  0  0
  9 12  1  0  0  0  0
 10  9  1  0  0  0  0
 11  6  1  0  0  0  0
 12 13  1  0  0  0  0
 13 15  1  0  0  0  0
 15 19  1  0  0  0  0
 15 14  1  1  0  0  0
 16 17  1  0  0  0  0
 16 15  1  0  0  0  0
 19 18  1  6  0  0  0
 19 20  1  0  0  0  0
 20 21  1  0  0  0  0
 22 23  2  0  0  0  0
 23 24  1  0  0  0  0
 24 27  2  0  0  0  0
 25 24  1  0  0  0  0
 25 26  2  0  0  0  0
 26 28  1  0  0  0  0
 27 28  1  0  0  0  0
 29 26  1  0  0  0  0
 29 30  1  0  0  0  0
 30 31  1  0  0  0  0
 30 32  1  0  0  0  0
 33 30  1  0  0  0  0
 35 41  1  0  0  0  0
 36 38  1  6  0  0  0
 36 40  1  0  0  0  0
 38 39  1  0  0  0  0
 39 34  1  6  0  0  0
 39 35  1  0  0  0  0
 40 45  1  1  0  0  0
 41 40  1  0  0  0  0
 41 37  2  0  0  0  0
 42 43  1  0  0  0  0
 44 42  1  6  0  0  0
 44 36  1  0  0  0  0
 44 43  1  0  0  0  0
 45 46  1  0  0  0  0
 46 47  1  0  0  0  0
 47 49  1  0  0  0  0
 49 48  1  0  0  0  0
 50 49  2  0  0  0  0
M  END
>  <MODEL>
8

>  <REMARK>
 VINA RESULT:      -6.6      4.292     10.576
  Name = 
  18 active torsions:
  status: ('A' for Active; 'I' for Inactive)
    1  A    between atoms: C_2  and  N_40
    2  A    between atoms: C_3  and  C_25
    3  A    between atoms: C_3  and  C_44
    4  A    between atoms: C_4  and  C_19
    5  A    between atoms: C_4  and  C_35
    6  A    between atoms: C_7  and  C_9
    7  A    between atoms: C_7  and  C_43
    8  A    between atoms: C_10  and  C_17
    9  A    between atoms: C_11  and  C_46
   10  A    between atoms: C_12  and  C_35
   11  A    between atoms: C_13  and  C_37
   12  A    between atoms: C_13  and  C_44
   13  A    between atoms: C_17  and  C_38
   14  A    between atoms: C_18  and  C_44
   15  A    between atoms: C_19  and  C_39
   16  A    between atoms: C_21  and  C_48
   17  A    between atoms: C_24  and  C_48
   18  A    between atoms: C_25  and  C_33
                            x       y       z     vdW  Elec       q    Type
                         _______ _______ _______ _____ _____    ______ ____

>  <TORSDO>
F 18

$$$$
=
 OpenBabel11032421093D

 50 55  0  0  1  0  0  0  0  0999 V2000
  190.7750  177.5650  141.1950 C   0  0  2  0  0  3  0  0  0  0  0  0
  188.3140  176.8490  141.4860 C   0  0  2  0  0  3  0  0  0  0  0  0
  190.8180  176.7790  142.5030 C   0  0  2  0  0  3  0  0  0  0  0  0
  189.1480  176.2000  142.9680 S   0  0  0  0  0  0  0  0  0  0  0  0
  189.4890  176.8830  140.1130 S   0  0  2  0  0  3  0  0  0  0  0  0
  192.2410  176.8970  139.2440 C   0  0  0  0  0  0  0  0  0  0  0  0
  191.0430  176.2910  138.2620 S   0  0  2  0  0  3  0  0  0  0  0  0
  192.0090  175.9500  136.9520 N   0  0  0  0  0  0  0  0  0  0  0  0
  193.2650  176.3200  137.3320 C   0  0  0  0  0  0  0  0  0  0  0  0
  193.4140  176.8700  138.5800 N   0  0  0  0  0  0  0  0  0  0  0  0
  192.0700  177.4950  140.5290 N   0  0  0  0  0  2  0  0  0  0  0  0
  194.4040  176.2300  136.3830 C   0  0  0  0  0  2  0  0  0  0  0  0
  195.0780  174.8700  136.5100 C   0  0  0  0  0  2  0  0  0  0  0  0
  197.0030  176.2640  136.1200 O   0  0  0  0  0  1  0  0  0  0  0  0
  196.6070  174.9450  136.3650 C   0  0  2  0  0  0  0  0  0  0  0  0
  197.0370  174.0830  135.1790 C   0  0  0  0  0  2  0  0  0  0  0  0
  198.0710  173.2170  135.5430 O   0  0  0  0  0  1  0  0  0  0  0  0
  198.1300  175.4390  138.1780 O   0  0  0  0  0  1  0  0  0  0  0  0
  197.3220  174.4390  137.6310 C   0  0  1  0  0  3  0  0  0  0  0  0
  196.3570  173.9090  138.6850 C   0  0  0  0  0  2  0  0  0  0  0  0
  196.2730  174.8800  139.8430 C   0  0  0  0  0  1  0  0  0  0  0  0
  192.4130  178.3680  143.3490 O   0  0  0  0  0  0  0  0  0  0  0  0
  191.4750  177.5630  143.6190 C   0  0  0  0  0  0  0  0  0  0  0  0
  191.1010  177.3670  145.0340 C   0  0  0  0  0  0  0  0  0  0  0  0
  190.1590  178.0810  145.7530 C   0  0  0  0  0  3  0  0  0  0  0  0
  190.2190  177.5160  147.0120 C   0  0  0  0  0  0  0  0  0  0  0  0
  191.6570  176.4190  145.8750 C   0  0  0  0  0  3  0  0  0  0  0  0
  191.0930  176.5420  147.0540 O   0  0  0  0  0  0  0  0  0  0  0  0
  189.4180  177.9620  148.1890 C   0  0  0  0  0  2  0  0  0  0  0  0
  187.9420  177.6210  148.0360 C   0  0  0  0  0  0  0  0  0  0  0  0
  187.2580  178.7630  147.6530 F   0  0  0  0  0  0  0  0  0  0  0  0
  187.7760  176.6480  147.0640 F   0  0  0  0  0  0  0  0  0  0  0  0
  187.4260  177.1640  149.2360 F   0  0  0  0  0  0  0  0  0  0  0  0
  187.7390  178.2370  141.7410 C   0  0  0  0  0  2  0  0  0  0  0  0
  185.7840  178.8070  140.3930 N   0  0  0  0  0  2  0  0  0  0  0  0
  184.0660  178.7880  142.7110 C   0  0  2  0  0  3  0  0  0  0  0  0
  184.0940  179.7580  139.1130 O   0  0  0  0  0  0  0  0  0  0  0  0
  185.5830  178.9450  142.8050 C   0  0  0  0  0  2  0  0  0  0  0  0
  186.2210  178.2030  141.6430 C   0  0  2  0  0  3  0  0  0  0  0  0
  183.5050  179.3900  141.4040 C   0  0  1  0  0  3  0  0  0  0  0  0
  184.4490  179.3030  140.2310 C   0  0  0  0  0  0  0  0  0  0  0  0
  183.5400  178.6310  145.1460 C   0  0  0  0  0  2  0  0  0  0  0  0
  182.3600  178.6230  144.3850 O   0  0  0  0  0  0  0  0  0  0  0  0
  183.4000  179.4540  143.9180 C   0  0  2  0  0  3  0  0  0  0  0  0
  182.1700  178.7480  141.0290 C   0  0  0  0  0  2  0  0  0  0  0  0
  182.3410  177.4930  140.1930 C   0  0  0  0  0  2  0  0  0  0  0  0
  181.1350  177.2820  139.2890 C   0  0  0  0  0  2  0  0  0  0  0  0
  179.9470  175.1920  139.9940 O   0  0  0  0  0  1  0  0  0  0  0  0
  180.8590  175.8260  139.1370 C   0  0  0  0  0  0  0  0  0  0  0  0
  181.4080  175.1780  138.2070 O   0  0  0  0  0  0  0  0  0  0  0  0
  1 11  1  6  0  0  0
  1  3  1  0  0  0  0
  2 34  1  1  0  0  0
  2  4  1  0  0  0  0
  3  4  1  0  0  0  0
  3 23  1  1  0  0  0
  5  1  1  0  0  0  0
  5  2  1  0  0  0  0
  6 11  1  0  0  0  0
  7  6  1  0  0  0  0
  7  5  1  0  0  0  0
  8  9  2  0  0  0  0
  8  7  1  0  0  0  0
  9 10  1  0  0  0  0
 10  6  2  0  0  0  0
 12 13  1  0  0  0  0
 12  9  1  0  0  0  0
 14 15  1  0  0  0  0
 15 13  1  0  0  0  0
 15 19  1  0  0  0  0
 16 17  1  0  0  0  0
 16 15  1  0  0  0  0
 19 18  1  0  0  0  0
 19 20  1  0  0  0  0
 20 21  1  0  0  0  0
 22 23  2  0  0  0  0
 23 24  1  0  0  0  0
 24 25  1  0  0  0  0
 24 27  2  0  0  0  0
 25 26  2  0  0  0  0
 26 28  1  0  0  0  0
 26 29  1  0  0  0  0
 27 28  1  0  0  0  0
 30 29  1  0  0  0  0
 30 33  1  0  0  0  0
 31 30  1  0  0  0  0
 32 30  1  0  0  0  0
 35 39  1  0  0  0  0
 36 38  1  0  0  0  0
 36 44  1  0  0  0  0
 37 41  2  0  0  0  0
 39 34  1  0  0  0  0
 39 38  1  0  0  0  0
 40 36  1  0  0  0  0
 41 35  1  0  0  0  0
 41 40  1  0  0  0  0
 43 42  1  0  0  0  0
 44 43  1  0  0  0  0
 44 42  1  0  0  0  0
 45 40  1  0  0  0  0
 46 45  1  0  0  0  0
 47 46  1  0  0  0  0
 49 47  1  0  0  0  0
 49 48  1  0  0  0  0
 50 49  2  0  0  0  0
M  END
>  <MODEL>
9

>  <REMARK>
 VINA RESULT:      -6.3      2.469     11.276
  Name = 
  18 active torsions:
  status: ('A' for Active; 'I' for Inactive)
    1  A    between atoms: C_2  and  N_40
    2  A    between atoms: C_3  and  C_25
    3  A    between atoms: C_3  and  C_44
    4  A    between atoms: C_4  and  C_19
    5  A    between atoms: C_4  and  C_35
    6  A    between atoms: C_7  and  C_9
    7  A    between atoms: C_7  and  C_43
    8  A    between atoms: C_10  and  C_17
    9  A    between atoms: C_11  and  C_46
   10  A    between atoms: C_12  and  C_35
   11  A    between atoms: C_13  and  C_37
   12  A    between atoms: C_13  and  C_44
   13  A    between atoms: C_17  and  C_38
   14  A    between atoms: C_18  and  C_44
   15  A    between atoms: C_19  and  C_39
   16  A    between atoms: C_21  and  C_48
   17  A    between atoms: C_24  and  C_48
   18  A    between atoms: C_25  and  C_33
                            x       y       z     vdW  Elec       q    Type
                         _______ _______ _______ _____ _____    ______ ____

>  <TORSDO>
F 18

$$$$
