=
 OpenBabel11032420153D

 28 30  0  0  1  0  0  0  0  0999 V2000
  187.2420  177.7740  142.5010 C   0  0  2  0  0  3  0  0  0  0  0  0
  185.1650  178.9690  143.5110 C   0  0  0  0  0  0  0  0  0  0  0  0
  185.8250  178.2870  142.3630 C   0  0  0  0  0  0  0  0  0  0  0  0
  186.7400  177.6950  144.9800 C   0  0  0  0  0  2  0  0  0  0  0  0
  185.1980  178.0440  141.2010 C   0  0  0  0  0  3  0  0  0  0  0  0
  185.7220  178.8280  144.9030 C   0  0  2  0  0  3  0  0  0  0  0  0
  184.1850  179.7390  143.3210 O   0  0  0  0  0  0  0  0  0  0  0  0
  187.8140  177.9020  143.9230 C   0  0  1  0  0  3  0  0  0  0  0  0
  184.6210  178.5840  145.8890 C   0  0  0  0  0  3  0  0  0  0  0  0
  184.8920  178.1860  147.1310 C   0  0  0  0  0  2  0  0  0  0  0  0
  183.0010  177.1570  140.4890 C   0  0  0  0  0  1  0  0  0  0  0  0
  183.7790  178.4000  140.8870 C   0  0  2  0  0  3  0  0  0  0  0  0
  182.5210  179.7890  139.2270 O   0  0  0  0  0  0  0  0  0  0  0  0
  184.8060  179.9030  139.3540 O   0  0  0  0  0  1  0  0  0  0  0  0
  183.7350  179.4030  139.7850 C   0  0  0  0  0  0  0  0  0  0  0  0
  188.1540  178.4970  141.5150 C   0  0  0  0  0  2  0  0  0  0  0  0
  190.3870  176.0690  139.7240 O   0  0  0  0  0  1  0  0  0  0  0  0
  189.4810  178.3160  139.4150 C   0  0  0  0  0  2  0  0  0  0  0  0
  188.5270  177.5800  140.3590 C   0  0  1  0  0  3  0  0  0  0  0  0
  190.8180  177.7290  141.3820 O   0  0  0  0  0  1  0  0  0  0  0  0
  190.0070  177.2560  140.3470 C   0  0  0  0  0  0  0  0  0  0  0  0
  188.8760  176.9270  144.1170 N   0  0  0  0  0  2  0  0  0  0  0  0
  190.8040  178.1020  144.6930 O   0  0  0  0  0  0  0  0  0  0  0  0
  191.0380  176.7890  145.1360 C   0  0  2  0  0  3  0  0  0  0  0  0
  189.6980  177.4070  145.2140 C   0  0  2  0  0  3  0  0  0  0  0  0
  192.2630  175.6550  146.9820 C   0  0  0  0  0  3  0  0  0  0  0  0
  191.6700  176.8300  146.4400 N   0  0  0  0  0  2  0  0  0  0  0  0
  192.8090  175.6920  148.1140 O   0  0  0  0  0  0  0  0  0  0  0  0
  1 16  1  6  0  0  0
  1  8  1  0  0  0  0
  2  6  1  0  0  0  0
  3  1  1  0  0  0  0
  3  2  1  0  0  0  0
  5  3  2  0  0  0  0
  6  4  1  0  0  0  0
  6  9  1  1  0  0  0
  7  2  2  0  0  0  0
  8 22  1  1  0  0  0
  8  4  1  0  0  0  0
  9 10  2  0  0  0  0
 12 11  1  6  0  0  0
 12  5  1  0  0  0  0
 13 15  2  0  0  0  0
 14 15  1  0  0  0  0
 15 12  1  0  0  0  0
 17 21  1  0  0  0  0
 18 21  1  0  0  0  0
 18 19  1  0  0  0  0
 19 16  1  1  0  0  0
 21 19  1  0  0  0  0
 21 20  1  0  0  0  0
 23 24  1  0  0  0  0
 23 25  1  0  0  0  0
 24 25  1  0  0  0  0
 24 27  1  1  0  0  0
 25 22  1  6  0  0  0
 26 28  2  0  0  0  0
 27 26  1  0  0  0  0
M  END
>  <MODEL>
1

>  <REMARK>
 VINA RESULT:      -7.9      0.000      0.000
  Name = 
  8 active torsions:
  status: ('A' for Active; 'I' for Inactive)
    1  A    between atoms: C_1  and  C_19
    2  A    between atoms: C_2  and  C_3
    3  A    between atoms: C_2  and  C_17
    4  A    between atoms: C_11  and  N_24
    5  A    between atoms: C_14  and  C_16
    6  A    between atoms: C_16  and  C_20
    7  A    between atoms: N_22  and  C_26
    8  A    between atoms: N_22  and  C_27
                            x       y       z     vdW  Elec       q    Type
                         _______ _______ _______ _____ _____    ______ ____

>  <TORSDO>
F 8

$$$$
=
 OpenBabel11032420153D

 28 30  0  0  1  0  0  0  0  0999 V2000
  188.3630  177.2550  144.6650 C   0  0  2  0  0  3  0  0  0  0  0  0
  190.6500  177.4560  143.4430 C   0  0  0  0  0  0  0  0  0  0  0  0
  189.8650  177.0700  144.6500 C   0  0  0  0  0  0  0  0  0  0  0  0
  188.5380  177.1150  142.1450 C   0  0  0  0  0  2  0  0  0  0  0  0
  190.4210  176.5010  145.7300 C   0  0  0  0  0  3  0  0  0  0  0  0
  189.9600  177.6660  142.1210 C   0  0  2  0  0  3  0  0  0  0  0  0
  191.8850  177.6920  143.5320 O   0  0  0  0  0  0  0  0  0  0  0  0
  187.7780  177.7140  143.3190 C   0  0  1  0  0  3  0  0  0  0  0  0
  190.7330  177.0170  141.0150 C   0  0  0  0  0  3  0  0  0  0  0  0
  190.4720  177.3030  139.7400 C   0  0  0  0  0  2  0  0  0  0  0  0
  192.1550  174.7850  145.3170 C   0  0  0  0  0  1  0  0  0  0  0  0
  191.8710  176.1640  145.8870 C   0  0  2  0  0  3  0  0  0  0  0  0
  191.7390  177.1900  148.1660 O   0  0  0  0  0  1  0  0  0  0  0  0
  193.0500  175.3490  147.7870 O   0  0  0  0  0  0  0  0  0  0  0  0
  192.2540  176.2080  147.3270 C   0  0  0  0  0  0  0  0  0  0  0  0
  187.9730  178.2460  145.7570 C   0  0  0  0  0  2  0  0  0  0  0  0
  184.4430  178.1070  147.0240 O   0  0  0  0  0  1  0  0  0  0  0  0
  186.6910  178.5440  147.8720 C   0  0  0  0  0  2  0  0  0  0  0  0
  186.8510  177.6820  146.6180 C   0  0  1  0  0  3  0  0  0  0  0  0
  185.7310  179.8560  146.0390 O   0  0  0  0  0  1  0  0  0  0  0  0
  185.6950  178.6530  146.7480 C   0  0  0  0  0  0  0  0  0  0  0  0
  186.3780  177.3310  143.2330 N   0  0  0  0  0  2  0  0  0  0  0  0
  184.2630  178.2810  142.9990 O   0  0  0  0  0  0  0  0  0  0  0  0
  184.7560  178.1760  141.6870 C   0  0  2  0  0  3  0  0  0  0  0  0
  185.6390  178.5120  142.8240 C   0  0  2  0  0  3  0  0  0  0  0  0
  184.3630  179.3560  139.5320 C   0  0  0  0  0  3  0  0  0  0  0  0
  184.4250  179.3810  140.9540 N   0  0  0  0  0  2  0  0  0  0  0  0
  184.0780  180.4030  138.8970 O   0  0  0  0  0  0  0  0  0  0  0  0
  1 16  1  1  0  0  0
  2  7  2  0  0  0  0
  2  3  1  0  0  0  0
  3  1  1  0  0  0  0
  3  5  2  0  0  0  0
  4  8  1  0  0  0  0
  5 12  1  0  0  0  0
  6  9  1  6  0  0  0
  6  4  1  0  0  0  0
  6  2  1  0  0  0  0
  8 22  1  1  0  0  0
  8  1  1  0  0  0  0
 10  9  2  0  0  0  0
 12 11  1  1  0  0  0
 12 15  1  0  0  0  0
 15 14  2  0  0  0  0
 15 13  1  0  0  0  0
 19 16  1  6  0  0  0
 19 21  1  0  0  0  0
 19 18  1  0  0  0  0
 20 21  1  0  0  0  0
 21 17  1  0  0  0  0
 21 18  1  0  0  0  0
 24 27  1  6  0  0  0
 24 25  1  0  0  0  0
 24 23  1  0  0  0  0
 25 23  1  0  0  0  0
 25 22  1  1  0  0  0
 26 27  1  0  0  0  0
 28 26  2  0  0  0  0
M  END
>  <MODEL>
2

>  <REMARK>
 VINA RESULT:      -7.7      1.979      8.288
  Name = 
  8 active torsions:
  status: ('A' for Active; 'I' for Inactive)
    1  A    between atoms: C_1  and  C_19
    2  A    between atoms: C_2  and  C_3
    3  A    between atoms: C_2  and  C_17
    4  A    between atoms: C_11  and  N_24
    5  A    between atoms: C_14  and  C_16
    6  A    between atoms: C_16  and  C_20
    7  A    between atoms: N_22  and  C_26
    8  A    between atoms: N_22  and  C_27
                            x       y       z     vdW  Elec       q    Type
                         _______ _______ _______ _____ _____    ______ ____

>  <TORSDO>
F 8

$$$$
=
 OpenBabel11032420153D

 28 30  0  0  1  0  0  0  0  0999 V2000
  187.7450  178.4890  141.4860 C   0  0  2  0  0  3  0  0  0  0  0  0
  187.5330  177.5880  143.9170 C   0  0  0  0  0  0  0  0  0  0  0  0
  188.3830  178.0820  142.7970 C   0  0  0  0  0  0  0  0  0  0  0  0
  185.6650  178.8840  142.8720 C   0  0  0  0  0  2  0  0  0  0  0  0
  189.7110  178.2450  142.9060 C   0  0  0  0  0  3  0  0  0  0  0  0
  186.0480  177.8370  143.9120 C   0  0  2  0  0  3  0  0  0  0  0  0
  188.0320  176.8860  144.8370 O   0  0  0  0  0  0  0  0  0  0  0  0
  186.2080  178.4730  141.5110 C   0  0  1  0  0  3  0  0  0  0  0  0
  185.5840  178.2790  145.2660 C   0  0  0  0  0  3  0  0  0  0  0  0
  184.4090  178.8880  145.4200 C   0  0  0  0  0  2  0  0  0  0  0  0
  191.6440  178.9920  144.2570 C   0  0  0  0  0  1  0  0  0  0  0  0
  190.5230  177.9750  144.1350 C   0  0  2  0  0  3  0  0  0  0  0  0
  190.8490  175.7760  142.9840 O   0  0  0  0  0  0  0  0  0  0  0  0
  191.7860  176.1720  145.0370 O   0  0  0  0  0  1  0  0  0  0  0  0
  191.0880  176.5970  144.0810 C   0  0  0  0  0  0  0  0  0  0  0  0
  188.2480  177.5880  140.3620 C   0  0  0  0  0  2  0  0  0  0  0  0
  188.8720  179.5580  137.2290 O   0  0  0  0  0  1  0  0  0  0  0  0
  189.5740  177.4570  138.2580 C   0  0  0  0  0  2  0  0  0  0  0  0
  189.1200  178.3750  139.3940 C   0  0  1  0  0  3  0  0  0  0  0  0
  187.2150  177.9440  137.8120 O   0  0  0  0  0  1  0  0  0  0  0  0
  188.4910  178.4750  138.0190 C   0  0  0  0  0  0  0  0  0  0  0  0
  185.6880  179.3720  140.4930 N   0  0  0  0  0  2  0  0  0  0  0  0
  184.1310  178.2990  139.1330 O   0  0  0  0  0  0  0  0  0  0  0  0
  183.7880  179.6610  139.0650 C   0  0  2  0  0  3  0  0  0  0  0  0
  184.2840  179.0460  140.3140 C   0  0  2  0  0  3  0  0  0  0  0  0
  181.7020  180.8800  138.4690 C   0  0  0  0  0  3  0  0  0  0  0  0
  182.3460  179.7950  139.1270 N   0  0  0  0  0  2  0  0  0  0  0  0
  180.4510  180.9960  138.5260 O   0  0  0  0  0  0  0  0  0  0  0  0
  1 16  1  6  0  0  0
  1  8  1  0  0  0  0
  1  3  1  0  0  0  0
  2  7  2  0  0  0  0
  3  5  2  0  0  0  0
  3  2  1  0  0  0  0
  4  6  1  0  0  0  0
  5 12  1  0  0  0  0
  6  2  1  0  0  0  0
  6  9  1  1  0  0  0
  8 22  1  6  0  0  0
  8  4  1  0  0  0  0
  9 10  2  0  0  0  0
 12 11  1  6  0  0  0
 13 15  2  0  0  0  0
 15 12  1  0  0  0  0
 15 14  1  0  0  0  0
 17 21  1  0  0  0  0
 18 19  1  0  0  0  0
 19 16  1  1  0  0  0
 20 21  1  0  0  0  0
 21 18  1  0  0  0  0
 21 19  1  0  0  0  0
 23 25  1  0  0  0  0
 24 27  1  1  0  0  0
 24 23  1  0  0  0  0
 24 25  1  0  0  0  0
 25 22  1  6  0  0  0
 26 28  2  0  0  0  0
 26 27  1  0  0  0  0
M  END
>  <MODEL>
3

>  <REMARK>
 VINA RESULT:      -7.6      2.685      7.232
  Name = 
  8 active torsions:
  status: ('A' for Active; 'I' for Inactive)
    1  A    between atoms: C_1  and  C_19
    2  A    between atoms: C_2  and  C_3
    3  A    between atoms: C_2  and  C_17
    4  A    between atoms: C_11  and  N_24
    5  A    between atoms: C_14  and  C_16
    6  A    between atoms: C_16  and  C_20
    7  A    between atoms: N_22  and  C_26
    8  A    between atoms: N_22  and  C_27
                            x       y       z     vdW  Elec       q    Type
                         _______ _______ _______ _____ _____    ______ ____

>  <TORSDO>
F 8

$$$$
=
 OpenBabel11032420153D

 28 30  0  0  1  0  0  0  0  0999 V2000
  187.7330  177.9780  143.1130 C   0  0  2  0  0  3  0  0  0  0  0  0
  185.4620  177.9820  144.3790 C   0  0  0  0  0  0  0  0  0  0  0  0
  186.9500  177.9120  144.4060 C   0  0  0  0  0  0  0  0  0  0  0  0
  185.7060  179.1890  142.2010 C   0  0  0  0  0  2  0  0  0  0  0  0
  187.6570  177.8490  145.5450 C   0  0  0  0  0  3  0  0  0  0  0  0
  184.7450  178.4900  143.1560 C   0  0  2  0  0  3  0  0  0  0  0  0
  184.7840  177.5400  145.3460 O   0  0  0  0  0  0  0  0  0  0  0  0
  186.8660  178.2600  141.8740 C   0  0  1  0  0  3  0  0  0  0  0  0
  183.6450  179.4300  143.5430 C   0  0  0  0  0  3  0  0  0  0  0  0
  182.3680  179.0720  143.4280 C   0  0  0  0  0  2  0  0  0  0  0  0
  186.5750  179.2360  147.2850 C   0  0  0  0  0  1  0  0  0  0  0  0
  187.0820  177.8500  146.9270 C   0  0  2  0  0  3  0  0  0  0  0  0
  188.1050  177.9090  149.2110 O   0  0  0  0  0  1  0  0  0  0  0  0
  189.0060  176.6000  147.5600 O   0  0  0  0  0  0  0  0  0  0  0  0
  188.1160  177.4170  147.9100 C   0  0  0  0  0  0  0  0  0  0  0  0
  188.5100  176.6820  142.9090 C   0  0  0  0  0  2  0  0  0  0  0  0
  192.0650  177.6940  143.5600 O   0  0  0  0  0  1  0  0  0  0  0  0
  190.7720  175.6650  143.1400 C   0  0  0  0  0  2  0  0  0  0  0  0
  189.8000  176.6970  143.7160 C   0  0  1  0  0  3  0  0  0  0  0  0
  190.7780  177.5350  141.5580 O   0  0  0  0  0  1  0  0  0  0  0  0
  190.9860  177.1320  142.8790 C   0  0  0  0  0  0  0  0  0  0  0  0
  187.6810  178.8560  140.8270 N   0  0  0  0  0  2  0  0  0  0  0  0
  188.4740  177.2190  139.3720 O   0  0  0  0  0  0  0  0  0  0  0  0
  188.4690  178.4020  138.6120 C   0  0  2  0  0  3  0  0  0  0  0  0
  187.4150  178.1130  139.6070 C   0  0  2  0  0  3  0  0  0  0  0  0
  188.8530  177.5870  136.2930 C   0  0  0  0  0  3  0  0  0  0  0  0
  187.9740  178.1130  137.2810 N   0  0  0  0  0  2  0  0  0  0  0  0
  188.4220  177.3380  135.1370 O   0  0  0  0  0  0  0  0  0  0  0  0
  1 16  1  6  0  0  0
  1  3  1  0  0  0  0
  2  3  1  0  0  0  0
  2  7  2  0  0  0  0
  3  5  2  0  0  0  0
  4  6  1  0  0  0  0
  5 12  1  0  0  0  0
  6  9  1  1  0  0  0
  6  2  1  0  0  0  0
  8 22  1  6  0  0  0
  8  4  1  0  0  0  0
  8  1  1  0  0  0  0
 10  9  2  0  0  0  0
 12 11  1  1  0  0  0
 12 15  1  0  0  0  0
 14 15  2  0  0  0  0
 15 13  1  0  0  0  0
 18 19  1  0  0  0  0
 19 16  1  6  0  0  0
 20 21  1  0  0  0  0
 21 18  1  0  0  0  0
 21 17  1  0  0  0  0
 21 19  1  0  0  0  0
 23 25  1  0  0  0  0
 24 27  1  6  0  0  0
 24 23  1  0  0  0  0
 24 25  1  0  0  0  0
 25 22  1  1  0  0  0
 26 27  1  0  0  0  0
 28 26  2  0  0  0  0
M  END
>  <MODEL>
4

>  <REMARK>
 VINA RESULT:      -6.7      2.932      6.406
  Name = 
  8 active torsions:
  status: ('A' for Active; 'I' for Inactive)
    1  A    between atoms: C_1  and  C_19
    2  A    between atoms: C_2  and  C_3
    3  A    between atoms: C_2  and  C_17
    4  A    between atoms: C_11  and  N_24
    5  A    between atoms: C_14  and  C_16
    6  A    between atoms: C_16  and  C_20
    7  A    between atoms: N_22  and  C_26
    8  A    between atoms: N_22  and  C_27
                            x       y       z     vdW  Elec       q    Type
                         _______ _______ _______ _____ _____    ______ ____

>  <TORSDO>
F 8

$$$$
=
 OpenBabel11032420153D

 28 30  0  0  1  0  0  0  0  0999 V2000
  187.9430  177.5470  141.6160 C   0  0  2  0  0  3  0  0  0  0  0  0
  185.8410  178.9430  140.9850 C   0  0  0  0  0  0  0  0  0  0  0  0
  187.0200  178.1320  140.5690 C   0  0  0  0  0  0  0  0  0  0  0  0
  185.9380  177.6960  143.1530 C   0  0  0  0  0  2  0  0  0  0  0  0
  187.2860  177.8360  139.2870 C   0  0  0  0  0  3  0  0  0  0  0  0
  185.3350  178.8790  142.4020 C   0  0  2  0  0  3  0  0  0  0  0  0
  185.3050  179.7520  140.1810 O   0  0  0  0  0  0  0  0  0  0  0  0
  187.4560  177.7530  143.0600 C   0  0  1  0  0  3  0  0  0  0  0  0
  183.8410  178.7810  142.4250 C   0  0  0  0  0  3  0  0  0  0  0  0
  183.1580  179.0040  143.5460 C   0  0  0  0  0  2  0  0  0  0  0  0
  185.5340  177.1210  137.6920 C   0  0  0  0  0  1  0  0  0  0  0  0
  186.4600  178.2510  138.1090 C   0  0  2  0  0  3  0  0  0  0  0  0
  188.4830  179.4010  137.1860 O   0  0  0  0  0  1  0  0  0  0  0  0
  187.0630  178.2470  135.8070 O   0  0  0  0  0  0  0  0  0  0  0  0
  187.3470  178.6290  136.9720 C   0  0  0  0  0  0  0  0  0  0  0  0
  189.3430  178.1320  141.4600 C   0  0  0  0  0  2  0  0  0  0  0  0
  192.0350  176.3030  143.3290 O   0  0  0  0  0  1  0  0  0  0  0  0
  191.7760  177.6270  141.2930 C   0  0  0  0  0  2  0  0  0  0  0  0
  190.3980  177.0480  141.6220 C   0  0  1  0  0  3  0  0  0  0  0  0
  191.1880  178.5270  143.4940 O   0  0  0  0  0  1  0  0  0  0  0  0
  191.3840  177.3770  142.7250 C   0  0  0  0  0  0  0  0  0  0  0  0
  188.0300  176.7340  143.9250 N   0  0  0  0  0  2  0  0  0  0  0  0
  188.6780  178.2710  145.5520 O   0  0  0  0  0  0  0  0  0  0  0  0
  189.0910  177.0230  146.0510 C   0  0  2  0  0  3  0  0  0  0  0  0
  187.8320  177.1780  145.2940 C   0  0  2  0  0  3  0  0  0  0  0  0
  188.5300  178.1480  148.1990 C   0  0  0  0  0  3  0  0  0  0  0  0
  188.8010  176.9560  147.4700 N   0  0  0  0  0  2  0  0  0  0  0  0
  188.2800  178.0890  149.4300 O   0  0  0  0  0  0  0  0  0  0  0  0
  1 16  1  1  0  0  0
  1  8  1  0  0  0  0
  2  6  1  0  0  0  0
  3  2  1  0  0  0  0
  3  1  1  0  0  0  0
  5  3  2  0  0  0  0
  6  9  1  6  0  0  0
  6  4  1  0  0  0  0
  7  2  2  0  0  0  0
  8  4  1  0  0  0  0
  8 22  1  1  0  0  0
  9 10  2  0  0  0  0
 12 11  1  6  0  0  0
 12  5  1  0  0  0  0
 14 15  2  0  0  0  0
 15 13  1  0  0  0  0
 15 12  1  0  0  0  0
 18 19  1  0  0  0  0
 18 21  1  0  0  0  0
 19 16  1  1  0  0  0
 19 21  1  0  0  0  0
 21 17  1  0  0  0  0
 21 20  1  0  0  0  0
 23 24  1  0  0  0  0
 24 27  1  1  0  0  0
 25 22  1  6  0  0  0
 25 23  1  0  0  0  0
 25 24  1  0  0  0  0
 26 28  2  0  0  0  0
 27 26  1  0  0  0  0
M  END
>  <MODEL>
5

>  <REMARK>
 VINA RESULT:      -6.7      2.449      3.281
  Name = 
  8 active torsions:
  status: ('A' for Active; 'I' for Inactive)
    1  A    between atoms: C_1  and  C_19
    2  A    between atoms: C_2  and  C_3
    3  A    between atoms: C_2  and  C_17
    4  A    between atoms: C_11  and  N_24
    5  A    between atoms: C_14  and  C_16
    6  A    between atoms: C_16  and  C_20
    7  A    between atoms: N_22  and  C_26
    8  A    between atoms: N_22  and  C_27
                            x       y       z     vdW  Elec       q    Type
                         _______ _______ _______ _____ _____    ______ ____

>  <TORSDO>
F 8

$$$$
=
 OpenBabel11032420153D

 28 30  0  0  1  0  0  0  0  0999 V2000
  184.1320  178.9450  142.2000 C   0  0  2  0  0  3  0  0  0  0  0  0
  182.3280  177.8930  140.6500 C   0  0  0  0  0  0  0  0  0  0  0  0
  182.6830  178.6350  141.8930 C   0  0  0  0  0  0  0  0  0  0  0  0
  184.4770  178.7540  139.7010 C   0  0  0  0  0  2  0  0  0  0  0  0
  181.7630  179.1060  142.7480 C   0  0  0  0  0  3  0  0  0  0  0  0
  183.3200  177.7770  139.5230 C   0  0  2  0  0  3  0  0  0  0  0  0
  181.2280  177.2840  140.5610 O   0  0  0  0  0  0  0  0  0  0  0  0
  185.1040  178.5580  141.0730 C   0  0  1  0  0  3  0  0  0  0  0  0
  182.6520  178.0220  138.2060 C   0  0  0  0  0  3  0  0  0  0  0  0
  182.1200  179.2090  137.9190 C   0  0  0  0  0  2  0  0  0  0  0  0
  179.6920  180.2670  142.0500 C   0  0  0  0  0  1  0  0  0  0  0  0
  180.2800  178.9750  142.5910 C   0  0  2  0  0  3  0  0  0  0  0  0
  179.0250  179.6240  144.6570 O   0  0  0  0  0  1  0  0  0  0  0  0
  179.6970  177.4580  144.3290 O   0  0  0  0  0  0  0  0  0  0  0  0
  179.6540  178.6410  143.9020 C   0  0  0  0  0  0  0  0  0  0  0  0
  184.5470  178.2520  143.4940 C   0  0  0  0  0  2  0  0  0  0  0  0
  185.8610  179.6470  146.7220 O   0  0  0  0  0  1  0  0  0  0  0  0
  183.8200  178.6330  145.8460 C   0  0  0  0  0  2  0  0  0  0  0  0
  184.5580  179.2410  144.6520 C   0  0  1  0  0  3  0  0  0  0  0  0
  185.9760  177.4750  145.7430 O   0  0  0  0  0  1  0  0  0  0  0  0
  185.3230  178.7060  145.8460 C   0  0  0  0  0  0  0  0  0  0  0  0
  186.3140  179.3590  141.1690 N   0  0  0  0  0  2  0  0  0  0  0  0
  188.6280  179.1480  141.3430 O   0  0  0  0  0  0  0  0  0  0  0  0
  188.2850  178.4040  140.2010 C   0  0  2  0  0  3  0  0  0  0  0  0
  187.4160  178.4390  141.3950 C   0  0  2  0  0  3  0  0  0  0  0  0
  190.2220  177.0660  139.3930 C   0  0  0  0  0  3  0  0  0  0  0  0
  189.0460  177.1700  140.1870 N   0  0  0  0  0  2  0  0  0  0  0  0
  190.8790  175.9950  139.3800 O   0  0  0  0  0  0  0  0  0  0  0  0
  1 16  1  1  0  0  0
  2  3  1  0  0  0  0
  3  1  1  0  0  0  0
  3  5  2  0  0  0  0
  4  8  1  0  0  0  0
  6  9  1  6  0  0  0
  6  4  1  0  0  0  0
  6  2  1  0  0  0  0
  7  2  2  0  0  0  0
  8 22  1  6  0  0  0
  8  1  1  0  0  0  0
 10  9  2  0  0  0  0
 12 11  1  1  0  0  0
 12  5  1  0  0  0  0
 12 15  1  0  0  0  0
 15 14  2  0  0  0  0
 15 13  1  0  0  0  0
 19 16  1  6  0  0  0
 19 21  1  0  0  0  0
 19 18  1  0  0  0  0
 20 21  1  0  0  0  0
 21 18  1  0  0  0  0
 21 17  1  0  0  0  0
 23 25  1  0  0  0  0
 24 27  1  1  0  0  0
 24 23  1  0  0  0  0
 24 25  1  0  0  0  0
 25 22  1  6  0  0  0
 26 27  1  0  0  0  0
 28 26  2  0  0  0  0
M  END
>  <MODEL>
6

>  <REMARK>
 VINA RESULT:      -6.6      3.388      6.212
  Name = 
  8 active torsions:
  status: ('A' for Active; 'I' for Inactive)
    1  A    between atoms: C_1  and  C_19
    2  A    between atoms: C_2  and  C_3
    3  A    between atoms: C_2  and  C_17
    4  A    between atoms: C_11  and  N_24
    5  A    between atoms: C_14  and  C_16
    6  A    between atoms: C_16  and  C_20
    7  A    between atoms: N_22  and  C_26
    8  A    between atoms: N_22  and  C_27
                            x       y       z     vdW  Elec       q    Type
                         _______ _______ _______ _____ _____    ______ ____

>  <TORSDO>
F 8

$$$$
=
 OpenBabel11032420153D

 28 30  0  0  1  0  0  0  0  0999 V2000
  189.0540  177.2910  140.8940 C   0  0  2  0  0  3  0  0  0  0  0  0
  189.6750  178.1230  143.2780 C   0  0  0  0  0  0  0  0  0  0  0  0
  188.6400  177.7180  142.2850 C   0  0  0  0  0  0  0  0  0  0  0  0
  191.2700  176.7090  141.9670 C   0  0  0  0  0  2  0  0  0  0  0  0
  187.3320  177.6550  142.5790 C   0  0  0  0  0  3  0  0  0  0  0  0
  191.1200  177.7610  143.0610 C   0  0  2  0  0  3  0  0  0  0  0  0
  189.3660  178.8420  144.2660 O   0  0  0  0  0  0  0  0  0  0  0  0
  190.5760  177.1880  140.7000 C   0  0  1  0  0  3  0  0  0  0  0  0
  191.7330  177.2570  144.3310 C   0  0  0  0  0  3  0  0  0  0  0  0
  191.5950  175.9850  144.6990 C   0  0  0  0  0  2  0  0  0  0  0  0
  186.8300  176.7550  144.8280 C   0  0  0  0  0  1  0  0  0  0  0  0
  186.7240  177.9610  143.9120 C   0  0  2  0  0  3  0  0  0  0  0  0
  184.6570  178.1890  142.5200 O   0  0  0  0  0  0  0  0  0  0  0  0
  184.6600  178.8280  144.7210 O   0  0  0  0  0  1  0  0  0  0  0  0
  185.2950  178.3500  143.7450 C   0  0  0  0  0  0  0  0  0  0  0  0
  188.4700  178.2490  139.8600 C   0  0  0  0  0  2  0  0  0  0  0  0
  188.5460  177.6100  136.1630 O   0  0  0  0  0  1  0  0  0  0  0  0
  186.9450  178.2500  137.8920 C   0  0  0  0  0  2  0  0  0  0  0  0
  188.0780  177.5000  138.5950 C   0  0  1  0  0  3  0  0  0  0  0  0
  188.9690  179.5620  137.4670 O   0  0  0  0  0  1  0  0  0  0  0  0
  188.3470  178.3170  137.3470 C   0  0  0  0  0  0  0  0  0  0  0  0
  190.8750  176.2720  139.6110 N   0  0  0  0  0  2  0  0  0  0  0  0
  191.4990  176.7370  137.4150 O   0  0  0  0  0  0  0  0  0  0  0  0
  192.5290  175.9210  137.9160 C   0  0  2  0  0  3  0  0  0  0  0  0
  191.8540  176.9280  138.7620 C   0  0  2  0  0  3  0  0  0  0  0  0
  194.1960  176.3000  136.1070 C   0  0  0  0  0  3  0  0  0  0  0  0
  193.8080  176.4380  137.4700 N   0  0  0  0  0  2  0  0  0  0  0  0
  195.3070  176.7460  135.7220 O   0  0  0  0  0  0  0  0  0  0  0  0
  1 16  1  6  0  0  0
  1  3  1  0  0  0  0
  2  7  2  0  0  0  0
  3  5  2  0  0  0  0
  3  2  1  0  0  0  0
  4  6  1  0  0  0  0
  5 12  1  0  0  0  0
  6  2  1  0  0  0  0
  6  9  1  1  0  0  0
  8 22  1  6  0  0  0
  8  1  1  0  0  0  0
  8  4  1  0  0  0  0
  9 10  2  0  0  0  0
 12 11  1  1  0  0  0
 13 15  2  0  0  0  0
 15 12  1  0  0  0  0
 15 14  1  0  0  0  0
 17 21  1  0  0  0  0
 18 19  1  0  0  0  0
 19 16  1  1  0  0  0
 21 20  1  0  0  0  0
 21 18  1  0  0  0  0
 21 19  1  0  0  0  0
 23 24  1  0  0  0  0
 23 25  1  0  0  0  0
 24 27  1  6  0  0  0
 24 25  1  0  0  0  0
 25 22  1  1  0  0  0
 26 27  1  0  0  0  0
 28 26  2  0  0  0  0
M  END
>  <MODEL>
7

>  <REMARK>
 VINA RESULT:      -6.6      3.186      5.980
  Name = 
  8 active torsions:
  status: ('A' for Active; 'I' for Inactive)
    1  A    between atoms: C_1  and  C_19
    2  A    between atoms: C_2  and  C_3
    3  A    between atoms: C_2  and  C_17
    4  A    between atoms: C_11  and  N_24
    5  A    between atoms: C_14  and  C_16
    6  A    between atoms: C_16  and  C_20
    7  A    between atoms: N_22  and  C_26
    8  A    between atoms: N_22  and  C_27
                            x       y       z     vdW  Elec       q    Type
                         _______ _______ _______ _____ _____    ______ ____

>  <TORSDO>
F 8

$$$$
=
 OpenBabel11032420153D

 28 30  0  0  1  0  0  0  0  0999 V2000
  185.0820  178.1520  142.3000 C   0  0  2  0  0  3  0  0  0  0  0  0
  184.2590  179.1800  144.5420 C   0  0  0  0  0  0  0  0  0  0  0  0
  183.9620  178.6780  143.1710 C   0  0  0  0  0  0  0  0  0  0  0  0
  186.2780  177.7030  144.4840 C   0  0  0  0  0  2  0  0  0  0  0  0
  182.7170  178.6100  142.6730 C   0  0  0  0  0  3  0  0  0  0  0  0
  185.5610  178.8340  145.2140 C   0  0  2  0  0  3  0  0  0  0  0  0
  183.4630  179.9680  145.1210 O   0  0  0  0  0  0  0  0  0  0  0  0
  186.4400  178.0670  143.0150 C   0  0  1  0  0  3  0  0  0  0  0  0
  185.3290  178.4440  146.6410 C   0  0  0  0  0  3  0  0  0  0  0  0
  186.3160  178.4980  147.5340 C   0  0  0  0  0  2  0  0  0  0  0  0
  180.7720  177.7780  143.9550 C   0  0  0  0  0  1  0  0  0  0  0  0
  181.4680  179.0060  143.3950 C   0  0  2  0  0  3  0  0  0  0  0  0
  180.3260  179.2620  141.1830 O   0  0  0  0  0  0  0  0  0  0  0  0
  179.9800  180.7850  142.8600 O   0  0  0  0  0  1  0  0  0  0  0  0
  180.5520  179.7340  142.4710 C   0  0  0  0  0  0  0  0  0  0  0  0
  185.2150  179.0140  141.0490 C   0  0  0  0  0  2  0  0  0  0  0  0
  184.7670  177.4270  137.6770 O   0  0  0  0  0  1  0  0  0  0  0  0
  184.2000  179.5050  138.8280 C   0  0  0  0  0  2  0  0  0  0  0  0
  184.3870  178.4390  139.9090 C   0  0  1  0  0  3  0  0  0  0  0  0
  186.5190  178.7470  138.6140 O   0  0  0  0  0  1  0  0  0  0  0  0
  185.1720  178.3760  138.6140 C   0  0  0  0  0  0  0  0  0  0  0  0
  187.2810  177.0760  142.3630 N   0  0  0  0  0  2  0  0  0  0  0  0
  188.6460  178.6420  141.3100 O   0  0  0  0  0  0  0  0  0  0  0  0
  189.1840  177.3950  140.9460 C   0  0  2  0  0  3  0  0  0  0  0  0
  188.6190  177.6350  142.2900 C   0  0  2  0  0  3  0  0  0  0  0  0
  191.4070  177.1670  139.8510 C   0  0  0  0  0  3  0  0  0  0  0  0
  190.6310  177.4630  141.0070 N   0  0  0  0  0  2  0  0  0  0  0  0
  192.6620  177.2240  139.9050 O   0  0  0  0  0  0  0  0  0  0  0  0
  1 16  1  6  0  0  0
  1  8  1  0  0  0  0
  1  3  1  0  0  0  0
  2  7  2  0  0  0  0
  2  6  1  0  0  0  0
  3  2  1  0  0  0  0
  4  6  1  0  0  0  0
  5  3  2  0  0  0  0
  5 12  1  0  0  0  0
  6  9  1  1  0  0  0
  8 22  1  6  0  0  0
  8  4  1  0  0  0  0
  9 10  2  0  0  0  0
 12 11  1  6  0  0  0
 13 15  2  0  0  0  0
 15 14  1  0  0  0  0
 15 12  1  0  0  0  0
 17 21  1  0  0  0  0
 18 19  1  0  0  0  0
 19 16  1  1  0  0  0
 21 20  1  0  0  0  0
 21 18  1  0  0  0  0
 21 19  1  0  0  0  0
 23 25  1  0  0  0  0
 24 27  1  1  0  0  0
 24 23  1  0  0  0  0
 24 25  1  0  0  0  0
 25 22  1  6  0  0  0
 26 28  2  0  0  0  0
 26 27  1  0  0  0  0
M  END
>  <MODEL>
8

>  <REMARK>
 VINA RESULT:      -6.6      2.917      4.138
  Name = 
  8 active torsions:
  status: ('A' for Active; 'I' for Inactive)
    1  A    between atoms: C_1  and  C_19
    2  A    between atoms: C_2  and  C_3
    3  A    between atoms: C_2  and  C_17
    4  A    between atoms: C_11  and  N_24
    5  A    between atoms: C_14  and  C_16
    6  A    between atoms: C_16  and  C_20
    7  A    between atoms: N_22  and  C_26
    8  A    between atoms: N_22  and  C_27
                            x       y       z     vdW  Elec       q    Type
                         _______ _______ _______ _____ _____    ______ ____

>  <TORSDO>
F 8

$$$$
=
 OpenBabel11032420153D

 28 30  0  0  1  0  0  0  0  0999 V2000
  189.3750  177.8580  141.1290 C   0  0  2  0  0  3  0  0  0  0  0  0
  190.2090  176.8060  138.9020 C   0  0  0  0  0  0  0  0  0  0  0  0
  189.1980  177.6080  139.6470 C   0  0  0  0  0  0  0  0  0  0  0  0
  191.8370  177.4850  140.6770 C   0  0  0  0  0  2  0  0  0  0  0  0
  188.1420  178.1840  139.0520 C   0  0  0  0  0  3  0  0  0  0  0  0
  191.5730  176.5620  139.4910 C   0  0  2  0  0  3  0  0  0  0  0  0
  189.9080  176.2530  137.8090 O   0  0  0  0  0  0  0  0  0  0  0  0
  190.7110  177.3460  141.6920 C   0  0  1  0  0  3  0  0  0  0  0  0
  192.6370  176.7570  138.4560 C   0  0  0  0  0  3  0  0  0  0  0  0
  193.2350  175.7120  137.8860 C   0  0  0  0  0  2  0  0  0  0  0  0
  188.5080  179.2660  136.8580 C   0  0  0  0  0  1  0  0  0  0  0  0
  187.8270  178.1240  137.5900 C   0  0  2  0  0  3  0  0  0  0  0  0
  185.5540  178.9570  138.2270 O   0  0  0  0  0  1  0  0  0  0  0  0
  185.8250  177.5540  136.4360 O   0  0  0  0  0  0  0  0  0  0  0  0
  186.3520  178.1930  137.3830 C   0  0  0  0  0  0  0  0  0  0  0  0
  188.2200  177.2300  141.9030 C   0  0  0  0  0  2  0  0  0  0  0  0
  186.8170  178.5990  145.1040 O   0  0  0  0  0  1  0  0  0  0  0  0
  186.0350  177.8870  142.9030 C   0  0  0  0  0  2  0  0  0  0  0  0
  187.5060  178.2790  142.7430 C   0  0  1  0  0  3  0  0  0  0  0  0
  187.2850  176.3770  144.3720 O   0  0  0  0  0  1  0  0  0  0  0  0
  186.9940  177.7050  144.0500 C   0  0  0  0  0  0  0  0  0  0  0  0
  191.0550  178.0830  142.8970 N   0  0  0  0  0  2  0  0  0  0  0  0
  190.7370  176.2480  144.2960 O   0  0  0  0  0  0  0  0  0  0  0  0
  191.1250  177.2900  145.1550 C   0  0  2  0  0  3  0  0  0  0  0  0
  191.6980  177.1460  143.8010 C   0  0  2  0  0  3  0  0  0  0  0  0
  191.5780  176.1610  147.3260 C   0  0  0  0  0  3  0  0  0  0  0  0
  192.0600  176.7770  146.1370 N   0  0  0  0  0  2  0  0  0  0  0  0
  192.3900  175.7190  148.1780 O   0  0  0  0  0  0  0  0  0  0  0  0
  1  8  1  0  0  0  0
  1 16  1  1  0  0  0
  2  6  1  0  0  0  0
  2  3  1  0  0  0  0
  3  1  1  0  0  0  0
  4  8  1  0  0  0  0
  5  3  2  0  0  0  0
  6  9  1  6  0  0  0
  6  4  1  0  0  0  0
  7  2  2  0  0  0  0
  8 22  1  1  0  0  0
 10  9  2  0  0  0  0
 12 11  1  6  0  0  0
 12  5  1  0  0  0  0
 14 15  2  0  0  0  0
 15 12  1  0  0  0  0
 15 13  1  0  0  0  0
 18 21  1  0  0  0  0
 19 16  1  6  0  0  0
 19 18  1  0  0  0  0
 19 21  1  0  0  0  0
 21 20  1  0  0  0  0
 21 17  1  0  0  0  0
 23 24  1  0  0  0  0
 24 27  1  1  0  0  0
 25 22  1  6  0  0  0
 25 23  1  0  0  0  0
 25 24  1  0  0  0  0
 26 28  2  0  0  0  0
 27 26  1  0  0  0  0
M  END
>  <MODEL>
9

>  <REMARK>
 VINA RESULT:      -6.5      2.241      5.471
  Name = 
  8 active torsions:
  status: ('A' for Active; 'I' for Inactive)
    1  A    between atoms: C_1  and  C_19
    2  A    between atoms: C_2  and  C_3
    3  A    between atoms: C_2  and  C_17
    4  A    between atoms: C_11  and  N_24
    5  A    between atoms: C_14  and  C_16
    6  A    between atoms: C_16  and  C_20
    7  A    between atoms: N_22  and  C_26
    8  A    between atoms: N_22  and  C_27
                            x       y       z     vdW  Elec       q    Type
                         _______ _______ _______ _____ _____    ______ ____

>  <TORSDO>
F 8

$$$$
