=
 OpenBabel11042412483D

 66 71  0  0  1  0  0  0  0  0999 V2000
  181.9000  176.4850  135.6150 C   0  0  2  0  0  3  0  0  0  0  0  0
  183.6070  174.9450  134.5940 C   0  0  0  0  0  2  0  0  0  0  0  0
  182.1510  175.1040  135.0150 C   0  0  0  0  0  2  0  0  0  0  0  0
  184.4490  174.8160  135.7100 O   0  0  0  0  0  0  0  0  0  0  0  0
  183.8930  176.5330  137.3050 C   0  0  0  0  0  2  0  0  0  0  0  0
  182.3600  176.5330  137.0930 C   0  0  1  0  0  3  0  0  0  0  0  0
  184.7470  176.1310  136.0980 C   0  0  1  0  0  3  0  0  0  0  0  0
  186.1970  176.2870  136.4380 C   0  0  0  0  0  0  0  0  0  0  0  0
  186.9860  175.1210  136.6790 N   0  0  0  0  0  0  0  0  0  0  0  0
  186.7240  177.4320  136.5210 O   0  0  0  0  0  0  0  0  0  0  0  0
  189.1130  173.9030  136.4390 C   0  0  0  0  0  0  0  0  0  0  0  0
  188.3570  175.1110  136.3680 N   0  0  0  0  0  0  0  0  0  0  0  0
  188.7250  172.9580  137.1720 O   0  0  0  0  0  0  0  0  0  0  0  0
  190.3780  173.7680  135.6500 C   0  0  0  0  0  2  0  0  0  0  0  0
  193.6220  174.8130  137.1550 C   0  0  0  0  0  0  0  0  0  0  0  0
  191.4150  174.6430  136.1850 N   0  0  0  0  0  0  0  0  0  0  0  0
  193.1030  175.8170  138.1680 C   0  0  0  0  0  2  0  0  0  0  0  0
  191.0320  175.9320  136.7320 C   0  0  0  0  0  2  0  0  0  0  0  0
  192.7730  174.1860  136.2900 C   0  0  0  0  0  0  0  0  0  0  0  0
  191.5670  176.0280  138.1470 C   0  0  2  0  0  3  0  0  0  0  0  0
  191.0850  177.2690  138.7720 N   0  0  0  0  0  0  0  0  0  0  0  0
  189.2960  178.0660  140.1630 C   0  0  0  0  0  2  0  0  0  0  0  0
  190.4320  177.0740  140.0670 C   0  0  0  0  0  2  0  0  0  0  0  0
  190.0770  177.8400  137.8880 C   0  0  0  0  0  2  0  0  0  0  0  0
  189.0460  178.5380  138.7510 C   0  0  0  0  0  2  0  0  0  0  0  0
  195.9520  175.2350  136.1170 C   0  0  0  0  0  1  0  0  0  0  0  0
  195.6240  173.9430  138.0810 O   0  0  0  0  0  0  0  0  0  0  0  0
  195.0830  174.5950  137.1490 C   0  0  0  0  0  0  0  0  0  0  0  0
  193.1540  173.0990  135.4890 O   0  0  0  0  0  0  0  0  0  0  0  0
  193.5010  171.8010  135.9930 C   0  0  0  0  0  1  0  0  0  0  0  0
  180.4360  176.7760  135.4360 C   0  0  0  0  0  0  0  0  0  0  0  0
  180.0770  177.6360  134.6400 O   0  0  0  0  0  0  0  0  0  0  0  0
  179.4500  176.1090  136.3520 C   0  0  0  0  0  2  0  0  0  0  0  0
  178.9310  174.7970  135.7720 C   0  0  0  0  0  2  0  0  0  0  0  0
  180.1190  171.4900  137.3400 C   0  0  0  0  0  1  0  0  0  0  0  0
  179.9770  173.9040  137.8390 C   0  0  0  0  0  2  0  0  0  0  0  0
  178.9570  173.6120  136.7600 C   0  0  2  0  0  3  0  0  0  0  0  0
  180.3010  172.8870  136.7680 C   0  0  2  0  0  3  0  0  0  0  0  0
  181.6250  177.5680  137.9750 C   0  0  1  0  0  3  0  0  0  0  0  0
  182.5150  178.2130  140.1910 C   0  0  0  0  0  3  0  0  0  0  0  0
  181.8840  177.3080  139.4350 C   0  0  0  0  0  3  0  0  0  0  0  0
  183.8890  178.4850  143.7720 C   0  0  0  0  0  2  0  0  0  0  0  0
  183.6990  178.6940  142.3340 C   0  0  0  0  0  0  0  0  0  0  0  0
  184.9420  179.4440  144.1360 N   0  0  0  0  0  0  0  0  0  0  0  0
  184.7100  179.4850  141.7760 N   0  0  0  0  0  2  0  0  0  0  0  0
  182.7450  178.0730  141.6320 C   0  0  0  0  0  3  0  0  0  0  0  0
  185.5810  179.8840  142.8800 C   0  0  0  0  0  2  0  0  0  0  0  0
  185.9210  178.8710  145.0830 C   0  0  2  0  0  3  0  0  0  0  0  0
  187.8030  177.0540  145.2720 C   0  0  2  0  0  3  0  0  0  0  0  0
  186.4510  177.4490  144.6890 C   0  0  2  0  0  3  0  0  0  0  0  0
  187.8600  177.5950  143.0280 O   0  0  0  0  0  0  0  0  0  0  0  0
  188.3440  178.0660  146.0760 O   0  0  0  0  0  1  0  0  0  0  0  0
  188.5830  176.8830  143.9870 C   0  0  1  0  0  3  0  0  0  0  0  0
  186.5950  177.3020  143.3000 O   0  0  0  0  0  0  0  0  0  0  0  0
  190.0340  177.3260  144.0320 C   0  0  0  0  0  3  0  0  0  0  0  0
  190.9450  176.5920  143.6560 O   0  0  0  0  0  0  0  0  0  0  0  0
  185.3260  178.9130  146.5040 C   0  0  0  0  0  3  0  0  0  0  0  0
  185.2740  177.6290  147.0600 O   0  0  0  0  0  1  0  0  0  0  0  0
  186.0610  179.7610  147.3330 O   0  0  0  0  0  1  0  0  0  0  0  0
  181.9370  179.0250  137.5850 C   0  0  0  0  0  2  0  0  0  0  0  0
  180.6720  179.8530  137.4250 C   0  0  2  0  0  3  0  0  0  0  0  0
  180.7120  180.6550  136.1440 C   0  0  0  0  0  2  0  0  0  0  0  0
  181.0360  182.1050  136.4320 C   0  0  0  0  0  1  0  0  0  0  0  0
  180.5060  180.7750  138.6240 C   0  0  0  0  0  2  0  0  0  0  0  0
  179.3720  180.3070  139.4130 N   0  0  0  0  0  2  0  0  0  0  0  0
  179.7640  180.4360  140.8060 C   0  0  0  0  0  1  0  0  0  0  0  0
  1 31  1  1  0  0  0
  1  6  1  0  0  0  0
  2  3  1  0  0  0  0
  2  4  1  0  0  0  0
  3  1  1  0  0  0  0
  4  7  1  0  0  0  0
  6  5  1  0  0  0  0
  6 39  1  6  0  0  0
  7  8  1  1  0  0  0
  7  5  1  0  0  0  0
  8 10  2  0  0  0  0
  8  9  1  0  0  0  0
 11 13  2  0  0  0  0
 12 11  1  0  0  0  0
 12  9  2  0  0  0  0
 14 16  1  0  0  0  0
 14 11  1  0  0  0  0
 15 17  1  0  0  0  0
 16 19  1  0  0  0  0
 16 18  1  0  0  0  0
 19 15  2  0  0  0  0
 20 18  1  6  0  0  0
 20 17  1  0  0  0  0
 20 21  1  0  0  0  0
 21 23  1  0  0  0  0
 23 22  1  0  0  0  0
 24 25  1  0  0  0  0
 24 21  1  0  0  0  0
 25 22  1  0  0  0  0
 26 28  1  0  0  0  0
 28 15  1  0  0  0  0
 28 27  2  0  0  0  0
 29 30  1  0  0  0  0
 29 19  1  0  0  0  0
 31 33  1  0  0  0  0
 32 31  2  0  0  0  0
 34 33  1  0  0  0  0
 37 34  1  6  0  0  0
 37 38  1  0  0  0  0
 37 36  1  0  0  0  0
 38 35  1  1  0  0  0
 38 36  1  0  0  0  0
 39 60  1  6  0  0  0
 39 41  1  0  0  0  0
 40 46  1  0  0  0  0
 41 40  2  0  0  0  0
 42 44  1  0  0  0  0
 43 42  1  0  0  0  0
 44 48  1  0  0  0  0
 45 43  1  0  0  0  0
 45 47  1  0  0  0  0
 46 43  2  0  0  0  0
 47 44  1  0  0  0  0
 48 57  1  1  0  0  0
 49 52  1  1  0  0  0
 50 48  1  6  0  0  0
 50 49  1  0  0  0  0
 51 54  1  0  0  0  0
 51 53  1  0  0  0  0
 53 55  1  1  0  0  0
 53 49  1  0  0  0  0
 54 50  1  0  0  0  0
 56 55  2  0  0  0  0
 57 58  1  0  0  0  0
 57 59  1  0  0  0  0
 61 62  1  6  0  0  0
 61 60  1  0  0  0  0
 61 64  1  0  0  0  0
 62 63  1  0  0  0  0
 64 65  1  0  0  0  0
 65 66  1  0  0  0  0
M  END
>  <MODEL>
1

>  <REMARK>
 VINA RESULT:      -5.7      0.000      0.000
  Name = 
  23 active torsions:
  status: ('A' for Active; 'I' for Inactive)
    1  A    between atoms: C_1  and  C_11
    2  A    between atoms: N_2  and  C_52
    3  A    between atoms: C_3  and  C_49
    4  A    between atoms: C_4  and  C_11
    5  A    between atoms: C_4  and  C_14
    6  A    between atoms: C_7  and  C_64
    7  A    between atoms: C_9  and  C_45
    8  A    between atoms: C_14  and  C_32
    9  A    between atoms: O_15  and  C_44
   10  A    between atoms: C_18  and  N_20
   11  A    between atoms: C_18  and  C_22
   12  A    between atoms: C_19  and  C_54
   13  A    between atoms: C_21  and  C_25
   14  A    between atoms: C_21  and  C_52
   15  A    between atoms: C_21  and  C_55
   16  A    between atoms: N_24  and  C_48
   17  A    between atoms: C_25  and  C_63
   18  A    between atoms: N_28  and  C_45
   19  A    between atoms: N_30  and  N_53
   20  A    between atoms: C_38  and  C_60
   21  A    between atoms: C_43  and  C_63
   22  A    between atoms: C_45  and  C_46
   23  A    between atoms: C_47  and  C_63
                            x       y       z     vdW  Elec       q    Type
                         _______ _______ _______ _____ _____    ______ ____

>  <TORSDO>
F 23

$$$$
=
 OpenBabel11042412483D

 66 71  0  0  1  0  0  0  0  0999 V2000
  190.1030  177.4970  143.0800 C   0  0  2  0  0  3  0  0  0  0  0  0
  192.3430  177.1690  141.9830 C   0  0  0  0  0  2  0  0  0  0  0  0
  191.5650  177.9340  143.0470 C   0  0  0  0  0  2  0  0  0  0  0  0
  191.9940  177.5960  140.6910 O   0  0  0  0  0  0  0  0  0  0  0  0
  189.5930  177.6820  140.5230 C   0  0  0  0  0  2  0  0  0  0  0  0
  189.2970  178.1920  141.9540 C   0  0  1  0  0  3  0  0  0  0  0  0
  190.8620  176.8410  140.3490 C   0  0  1  0  0  3  0  0  0  0  0  0
  190.9410  176.3430  138.9390 C   0  0  0  0  0  0  0  0  0  0  0  0
  190.0220  175.3410  138.5010 N   0  0  0  0  0  2  0  0  0  0  0  0
  191.8120  176.7910  138.1410 O   0  0  0  0  0  0  0  0  0  0  0  0
  190.1330  174.3220  136.2620 C   0  0  0  0  0  0  0  0  0  0  0  0
  189.6030  175.2960  137.1600 N   0  0  0  0  0  2  0  0  0  0  0  0
  191.2530  173.7970  136.4890 O   0  0  0  0  0  0  0  0  0  0  0  0
  189.3600  173.9360  135.0390 C   0  0  0  0  0  2  0  0  0  0  0  0
  186.2920  175.9250  135.7570 C   0  0  0  0  0  0  0  0  0  0  0  0
  187.9450  174.2520  135.2030 N   0  0  0  0  0  0  0  0  0  0  0  0
  185.5390  174.9090  136.5950 C   0  0  0  0  0  2  0  0  0  0  0  0
  187.0180  173.1780  135.5100 C   0  0  0  0  0  2  0  0  0  0  0  0
  187.4950  175.6150  135.1920 C   0  0  0  0  0  0  0  0  0  0  0  0
  186.2590  173.5470  136.7700 C   0  0  2  0  0  3  0  0  0  0  0  0
  185.4050  172.4210  137.1770 N   0  0  0  0  0  0  0  0  0  0  0  0
  183.8130  170.8780  136.2530 C   0  0  0  0  0  2  0  0  0  0  0  0
  185.2270  171.3990  136.1450 C   0  0  0  0  0  2  0  0  0  0  0  0
  184.0790  172.9570  137.4540 C   0  0  0  0  0  2  0  0  0  0  0  0
  183.0620  171.9000  137.0730 C   0  0  0  0  0  2  0  0  0  0  0  0
  186.1300  178.4560  136.2590 C   0  0  0  0  0  1  0  0  0  0  0  0
  184.6840  177.3420  134.7420 O   0  0  0  0  0  0  0  0  0  0  0  0
  185.6270  177.2310  135.5700 C   0  0  0  0  0  0  0  0  0  0  0  0
  188.3340  176.5700  134.5960 O   0  0  0  0  0  0  0  0  0  0  0  0
  189.6520  176.8950  135.0600 C   0  0  0  0  0  1  0  0  0  0  0  0
  189.5890  177.8050  144.4580 C   0  0  0  0  0  0  0  0  0  0  0  0
  189.4300  178.9690  144.8060 O   0  0  0  0  0  0  0  0  0  0  0  0
  189.4220  176.6760  145.4360 C   0  0  0  0  0  2  0  0  0  0  0  0
  189.8540  177.0720  146.8440 C   0  0  0  0  0  2  0  0  0  0  0  0
  193.1400  175.7530  148.3510 C   0  0  0  0  0  1  0  0  0  0  0  0
  191.9420  175.8960  146.1960 C   0  0  0  0  0  2  0  0  0  0  0  0
  191.3730  176.9730  147.0930 C   0  0  2  0  0  3  0  0  0  0  0  0
  191.7830  175.6220  147.6750 C   0  0  2  0  0  3  0  0  0  0  0  0
  187.7870  178.3620  142.2380 C   0  0  1  0  0  3  0  0  0  0  0  0
  185.8110  178.9090  140.8560 C   0  0  0  0  0  3  0  0  0  0  0  0
  186.9900  178.2890  140.9640 C   0  0  0  0  0  3  0  0  0  0  0  0
  182.9620  178.6990  138.2810 C   0  0  0  0  0  2  0  0  0  0  0  0
  183.7010  178.6650  139.5460 C   0  0  0  0  0  0  0  0  0  0  0  0
  181.5680  178.4500  138.6750 N   0  0  0  0  0  0  0  0  0  0  0  0
  182.9240  178.1630  140.5990 N   0  0  0  0  0  2  0  0  0  0  0  0
  185.0050  178.9490  139.6320 C   0  0  0  0  0  3  0  0  0  0  0  0
  181.5950  177.9090  140.0480 C   0  0  0  0  0  2  0  0  0  0  0  0
  180.8740  177.5420  137.7370 C   0  0  2  0  0  3  0  0  0  0  0  0
  179.5160  178.5210  135.7170 C   0  0  2  0  0  3  0  0  0  0  0  0
  179.5160  178.0950  137.1810 C   0  0  2  0  0  3  0  0  0  0  0  0
  179.5130  180.2790  137.2150 O   0  0  0  0  0  0  0  0  0  0  0  0
  180.7690  178.3360  135.1170 O   0  0  0  0  0  1  0  0  0  0  0  0
  179.1880  179.9880  135.8890 C   0  0  1  0  0  3  0  0  0  0  0  0
  179.0730  179.2250  137.8900 O   0  0  0  0  0  0  0  0  0  0  0  0
  179.8790  180.9350  134.9250 C   0  0  0  0  0  3  0  0  0  0  0  0
  180.9220  181.5140  135.2240 O   0  0  0  0  0  0  0  0  0  0  0  0
  180.7270  176.1570  138.3970 C   0  0  0  0  0  3  0  0  0  0  0  0
  179.3840  175.8820  138.6860 O   0  0  0  0  0  1  0  0  0  0  0  0
  181.2550  175.1530  137.5850 O   0  0  0  0  0  1  0  0  0  0  0  0
  187.2590  177.3830  143.3040 C   0  0  0  0  0  2  0  0  0  0  0  0
  186.3390  178.0710  144.3010 C   0  0  2  0  0  3  0  0  0  0  0  0
  186.1960  177.2450  145.5590 C   0  0  0  0  0  2  0  0  0  0  0  0
  186.3850  178.1070  146.7890 C   0  0  0  0  0  1  0  0  0  0  0  0
  184.9780  178.3120  143.6650 C   0  0  0  0  0  2  0  0  0  0  0  0
  184.2260  179.2240  144.5180 N   0  0  0  0  0  2  0  0  0  0  0  0
  182.8340  178.8160  144.4230 C   0  0  0  0  0  1  0  0  0  0  0  0
  1 31  1  1  0  0  0
  2  3  1  0  0  0  0
  3  1  1  0  0  0  0
  4  2  1  0  0  0  0
  5  6  1  0  0  0  0
  6 39  1  1  0  0  0
  6  1  1  0  0  0  0
  7  8  1  6  0  0  0
  7  5  1  0  0  0  0
  7  4  1  0  0  0  0
  9  8  1  0  0  0  0
 10  8  2  0  0  0  0
 11 13  2  0  0  0  0
 11 12  1  0  0  0  0
 12  9  1  0  0  0  0
 14 16  1  0  0  0  0
 14 11  1  0  0  0  0
 15 17  1  0  0  0  0
 16 18  1  0  0  0  0
 17 20  1  0  0  0  0
 19 16  1  0  0  0  0
 19 15  2  0  0  0  0
 20 18  1  6  0  0  0
 20 21  1  0  0  0  0
 21 24  1  0  0  0  0
 22 25  1  0  0  0  0
 23 22  1  0  0  0  0
 23 21  1  0  0  0  0
 25 24  1  0  0  0  0
 27 28  2  0  0  0  0
 28 15  1  0  0  0  0
 28 26  1  0  0  0  0
 29 30  1  0  0  0  0
 29 19  1  0  0  0  0
 31 32  2  0  0  0  0
 31 33  1  0  0  0  0
 33 34  1  0  0  0  0
 36 37  1  0  0  0  0
 36 38  1  0  0  0  0
 37 34  1  6  0  0  0
 37 38  1  0  0  0  0
 38 35  1  1  0  0  0
 39 41  1  6  0  0  0
 39 60  1  0  0  0  0
 40 41  2  0  0  0  0
 42 44  1  0  0  0  0
 42 43  1  0  0  0  0
 43 46  2  0  0  0  0
 43 45  1  0  0  0  0
 44 47  1  0  0  0  0
 46 40  1  0  0  0  0
 47 45  1  0  0  0  0
 48 57  1  1  0  0  0
 48 44  1  0  0  0  0
 49 52  1  1  0  0  0
 49 53  1  0  0  0  0
 49 50  1  0  0  0  0
 50 48  1  1  0  0  0
 50 54  1  0  0  0  0
 51 54  1  0  0  0  0
 53 55  1  6  0  0  0
 53 51  1  0  0  0  0
 55 56  2  0  0  0  0
 57 58  1  0  0  0  0
 59 57  1  0  0  0  0
 61 60  1  6  0  0  0
 61 62  1  0  0  0  0
 62 63  1  0  0  0  0
 64 61  1  0  0  0  0
 64 65  1  0  0  0  0
 66 65  1  0  0  0  0
M  END
>  <MODEL>
2

>  <REMARK>
 VINA RESULT:      -5.4      2.547      9.566
  Name = 
  23 active torsions:
  status: ('A' for Active; 'I' for Inactive)
    1  A    between atoms: C_1  and  C_11
    2  A    between atoms: N_2  and  C_52
    3  A    between atoms: C_3  and  C_49
    4  A    between atoms: C_4  and  C_11
    5  A    between atoms: C_4  and  C_14
    6  A    between atoms: C_7  and  C_64
    7  A    between atoms: C_9  and  C_45
    8  A    between atoms: C_14  and  C_32
    9  A    between atoms: O_15  and  C_44
   10  A    between atoms: C_18  and  N_20
   11  A    between atoms: C_18  and  C_22
   12  A    between atoms: C_19  and  C_54
   13  A    between atoms: C_21  and  C_25
   14  A    between atoms: C_21  and  C_52
   15  A    between atoms: C_21  and  C_55
   16  A    between atoms: N_24  and  C_48
   17  A    between atoms: C_25  and  C_63
   18  A    between atoms: N_28  and  C_45
   19  A    between atoms: N_30  and  N_53
   20  A    between atoms: C_38  and  C_60
   21  A    between atoms: C_43  and  C_63
   22  A    between atoms: C_45  and  C_46
   23  A    between atoms: C_47  and  C_63
                            x       y       z     vdW  Elec       q    Type
                         _______ _______ _______ _____ _____    ______ ____

>  <TORSDO>
F 23

$$$$
=
 OpenBabel11042412483D

 66 71  0  0  1  0  0  0  0  0999 V2000
  190.1930  177.4840  143.0540 C   0  0  2  0  0  3  0  0  0  0  0  0
  192.3540  177.2160  141.7950 C   0  0  0  0  0  2  0  0  0  0  0  0
  191.6400  177.9500  142.9240 C   0  0  0  0  0  2  0  0  0  0  0  0
  191.9060  177.6550  140.5390 O   0  0  0  0  0  0  0  0  0  0  0  0
  189.4970  177.6960  140.5440 C   0  0  0  0  0  2  0  0  0  0  0  0
  189.2950  178.1790  142.0010 C   0  0  1  0  0  3  0  0  0  0  0  0
  190.7660  176.8830  140.2670 C   0  0  1  0  0  3  0  0  0  0  0  0
  190.7530  176.4070  138.8460 C   0  0  0  0  0  0  0  0  0  0  0  0
  190.0010  175.2410  138.5090 N   0  0  0  0  0  2  0  0  0  0  0  0
  191.4030  177.0180  137.9520 O   0  0  0  0  0  0  0  0  0  0  0  0
  190.1360  174.4760  136.1710 C   0  0  0  0  0  0  0  0  0  0  0  0
  189.4240  175.1090  137.2330 N   0  0  0  0  0  2  0  0  0  0  0  0
  191.3920  174.4250  136.1970 O   0  0  0  0  0  0  0  0  0  0  0  0
  189.3860  173.8860  135.0190 C   0  0  0  0  0  2  0  0  0  0  0  0
  186.2460  175.7850  135.6630 C   0  0  0  0  0  0  0  0  0  0  0  0
  187.9590  174.1640  135.1360 N   0  0  0  0  0  0  0  0  0  0  0  0
  185.4870  174.7330  136.4500 C   0  0  0  0  0  2  0  0  0  0  0  0
  187.0480  173.0620  135.3840 C   0  0  0  0  0  2  0  0  0  0  0  0
  187.4760  175.5160  135.1370 C   0  0  0  0  0  0  0  0  0  0  0  0
  186.2330  173.3840  136.6220 C   0  0  2  0  0  3  0  0  0  0  0  0
  185.3920  172.2300  136.9720 N   0  0  0  0  0  0  0  0  0  0  0  0
  183.7400  170.7820  136.0000 C   0  0  0  0  0  2  0  0  0  0  0  0
  185.1510  171.3050  135.8640 C   0  0  0  0  0  2  0  0  0  0  0  0
  184.0870  172.7440  137.3670 C   0  0  0  0  0  2  0  0  0  0  0  0
  183.0430  171.7290  136.9480 C   0  0  0  0  0  2  0  0  0  0  0  0
  184.0950  177.1370  135.1830 C   0  0  0  0  0  1  0  0  0  0  0  0
  186.1820  178.1550  135.6730 O   0  0  0  0  0  0  0  0  0  0  0  0
  185.5570  177.0790  135.4800 C   0  0  0  0  0  0  0  0  0  0  0  0
  188.3130  176.5040  134.5950 O   0  0  0  0  0  0  0  0  0  0  0  0
  189.0060  177.4950  135.3670 C   0  0  0  0  0  1  0  0  0  0  0  0
  189.7730  177.7610  144.4710 C   0  0  0  0  0  0  0  0  0  0  0  0
  189.5750  178.9140  144.8360 O   0  0  0  0  0  0  0  0  0  0  0  0
  189.7520  176.6250  145.4530 C   0  0  0  0  0  2  0  0  0  0  0  0
  189.9040  177.1110  146.8910 C   0  0  0  0  0  2  0  0  0  0  0  0
  192.8210  175.2420  148.5670 C   0  0  0  0  0  1  0  0  0  0  0  0
  192.2030  176.2980  146.4230 C   0  0  0  0  0  2  0  0  0  0  0  0
  191.3110  176.8990  147.4870 C   0  0  2  0  0  3  0  0  0  0  0  0
  191.7030  175.4250  147.5510 C   0  0  2  0  0  3  0  0  0  0  0  0
  187.8070  178.3140  142.3940 C   0  0  1  0  0  3  0  0  0  0  0  0
  185.9090  179.0230  140.9750 C   0  0  0  0  0  3  0  0  0  0  0  0
  186.9180  178.1720  141.1880 C   0  0  0  0  0  3  0  0  0  0  0  0
  182.8990  178.9250  138.5840 C   0  0  0  0  0  2  0  0  0  0  0  0
  183.7050  178.9760  139.8070 C   0  0  0  0  0  0  0  0  0  0  0  0
  181.5140  179.0410  139.0640 N   0  0  0  0  0  0  0  0  0  0  0  0
  182.9230  178.8440  140.9620 N   0  0  0  0  0  2  0  0  0  0  0  0
  185.0420  179.0000  139.7940 C   0  0  0  0  0  3  0  0  0  0  0  0
  181.5340  178.7680  140.5150 C   0  0  0  0  0  2  0  0  0  0  0  0
  180.5930  178.1360  138.3440 C   0  0  2  0  0  3  0  0  0  0  0  0
  180.2650  175.6790  137.4850 C   0  0  2  0  0  3  0  0  0  0  0  0
  181.2390  176.7840  137.8820 C   0  0  2  0  0  3  0  0  0  0  0  0
  181.2790  175.3570  139.5350 O   0  0  0  0  0  0  0  0  0  0  0  0
  178.9310  176.0860  137.6100 O   0  0  0  0  0  1  0  0  0  0  0  0
  180.6350  174.6430  138.5220 C   0  0  1  0  0  3  0  0  0  0  0  0
  182.0490  176.2150  138.8790 O   0  0  0  0  0  0  0  0  0  0  0  0
  179.4840  173.8180  139.0690 C   0  0  0  0  0  3  0  0  0  0  0  0
  178.9910  174.0460  140.1720 O   0  0  0  0  0  0  0  0  0  0  0  0
  179.9370  178.9100  137.1840 C   0  0  0  0  0  3  0  0  0  0  0  0
  179.8260  180.2720  137.4940 O   0  0  0  0  0  1  0  0  0  0  0  0
  180.6570  178.7490  136.0000 O   0  0  0  0  0  1  0  0  0  0  0  0
  187.3930  177.3600  143.5310 C   0  0  0  0  0  2  0  0  0  0  0  0
  186.4120  178.0140  144.4920 C   0  0  2  0  0  3  0  0  0  0  0  0
  186.4540  177.3400  145.8440 C   0  0  0  0  0  2  0  0  0  0  0  0
  186.1700  178.3370  146.9470 C   0  0  0  0  0  1  0  0  0  0  0  0
  185.0060  177.9550  143.9120 C   0  0  0  0  0  2  0  0  0  0  0  0
  184.4520  179.3030  143.9070 N   0  0  0  0  0  2  0  0  0  0  0  0
  183.1650  179.2180  144.5770 C   0  0  0  0  0  1  0  0  0  0  0  0
  1 31  1  1  0  0  0
  2  3  1  0  0  0  0
  3  1  1  0  0  0  0
  4  2  1  0  0  0  0
  5  6  1  0  0  0  0
  6 39  1  1  0  0  0
  6  1  1  0  0  0  0
  7  8  1  6  0  0  0
  7  4  1  0  0  0  0
  7  5  1  0  0  0  0
  9  8  1  0  0  0  0
 10  8  2  0  0  0  0
 11 13  2  0  0  0  0
 11 12  1  0  0  0  0
 12  9  1  0  0  0  0
 14 16  1  0  0  0  0
 14 11  1  0  0  0  0
 15 17  1  0  0  0  0
 16 19  1  0  0  0  0
 16 18  1  0  0  0  0
 17 20  1  0  0  0  0
 19 15  2  0  0  0  0
 20 18  1  6  0  0  0
 20 21  1  0  0  0  0
 21 24  1  0  0  0  0
 22 25  1  0  0  0  0
 23 22  1  0  0  0  0
 23 21  1  0  0  0  0
 25 24  1  0  0  0  0
 26 28  1  0  0  0  0
 28 15  1  0  0  0  0
 28 27  2  0  0  0  0
 29 19  1  0  0  0  0
 29 30  1  0  0  0  0
 31 32  2  0  0  0  0
 31 33  1  0  0  0  0
 33 34  1  0  0  0  0
 36 37  1  0  0  0  0
 36 38  1  0  0  0  0
 37 34  1  6  0  0  0
 37 38  1  0  0  0  0
 38 35  1  1  0  0  0
 39 41  1  6  0  0  0
 39 60  1  0  0  0  0
 40 41  2  0  0  0  0
 42 44  1  0  0  0  0
 42 43  1  0  0  0  0
 43 45  1  0  0  0  0
 44 47  1  0  0  0  0
 46 43  2  0  0  0  0
 46 40  1  0  0  0  0
 47 45  1  0  0  0  0
 48 57  1  6  0  0  0
 48 44  1  0  0  0  0
 49 52  1  1  0  0  0
 49 50  1  0  0  0  0
 49 53  1  0  0  0  0
 50 48  1  1  0  0  0
 50 54  1  0  0  0  0
 53 55  1  1  0  0  0
 53 51  1  0  0  0  0
 54 51  1  0  0  0  0
 55 56  2  0  0  0  0
 57 58  1  0  0  0  0
 59 57  1  0  0  0  0
 61 60  1  6  0  0  0
 61 62  1  0  0  0  0
 62 63  1  0  0  0  0
 64 61  1  0  0  0  0
 65 64  1  0  0  0  0
 65 66  1  0  0  0  0
M  END
>  <MODEL>
3

>  <REMARK>
 VINA RESULT:      -5.4      2.594      9.385
  Name = 
  23 active torsions:
  status: ('A' for Active; 'I' for Inactive)
    1  A    between atoms: C_1  and  C_11
    2  A    between atoms: N_2  and  C_52
    3  A    between atoms: C_3  and  C_49
    4  A    between atoms: C_4  and  C_11
    5  A    between atoms: C_4  and  C_14
    6  A    between atoms: C_7  and  C_64
    7  A    between atoms: C_9  and  C_45
    8  A    between atoms: C_14  and  C_32
    9  A    between atoms: O_15  and  C_44
   10  A    between atoms: C_18  and  N_20
   11  A    between atoms: C_18  and  C_22
   12  A    between atoms: C_19  and  C_54
   13  A    between atoms: C_21  and  C_25
   14  A    between atoms: C_21  and  C_52
   15  A    between atoms: C_21  and  C_55
   16  A    between atoms: N_24  and  C_48
   17  A    between atoms: C_25  and  C_63
   18  A    between atoms: N_28  and  C_45
   19  A    between atoms: N_30  and  N_53
   20  A    between atoms: C_38  and  C_60
   21  A    between atoms: C_43  and  C_63
   22  A    between atoms: C_45  and  C_46
   23  A    between atoms: C_47  and  C_63
                            x       y       z     vdW  Elec       q    Type
                         _______ _______ _______ _____ _____    ______ ____

>  <TORSDO>
F 23

$$$$
=
 OpenBabel11042412483D

 66 71  0  0  1  0  0  0  0  0999 V2000
  189.9090  177.7320  143.3090 C   0  0  2  0  0  3  0  0  0  0  0  0
  191.9950  177.0010  142.1050 C   0  0  0  0  0  2  0  0  0  0  0  0
  191.4210  177.9090  143.1870 C   0  0  0  0  0  2  0  0  0  0  0  0
  191.6520  177.4580  140.8220 O   0  0  0  0  0  0  0  0  0  0  0  0
  189.2950  177.9540  140.7790 C   0  0  0  0  0  2  0  0  0  0  0  0
  189.1720  178.5340  142.2080 C   0  0  1  0  0  3  0  0  0  0  0  0
  190.3890  176.9030  140.5620 C   0  0  1  0  0  3  0  0  0  0  0  0
  190.3020  176.3730  139.1640 C   0  0  0  0  0  0  0  0  0  0  0  0
  191.1080  176.9630  138.1430 N   0  0  0  0  0  2  0  0  0  0  0  0
  189.5220  175.4210  138.8790 O   0  0  0  0  0  0  0  0  0  0  0  0
  190.7580  176.0020  135.9020 C   0  0  0  0  0  0  0  0  0  0  0  0
  191.5670  176.1900  137.0620 N   0  0  0  0  0  2  0  0  0  0  0  0
  189.5090  176.1230  135.9790 O   0  0  0  0  0  0  0  0  0  0  0  0
  191.3970  175.6440  134.5970 C   0  0  0  0  0  2  0  0  0  0  0  0
  193.1750  172.5320  135.6130 C   0  0  0  0  0  0  0  0  0  0  0  0
  192.4920  174.7030  134.8000 N   0  0  0  0  0  0  0  0  0  0  0  0
  194.3970  173.1550  136.2630 C   0  0  0  0  0  2  0  0  0  0  0  0
  193.8450  175.2150  134.9140 C   0  0  0  0  0  2  0  0  0  0  0  0
  192.2260  173.3080  135.0140 C   0  0  0  0  0  0  0  0  0  0  0  0
  194.4420  174.7050  136.2110 C   0  0  2  0  0  3  0  0  0  0  0  0
  195.7650  175.3120  136.4170 N   0  0  0  0  0  0  0  0  0  0  0  0
  198.0620  174.9990  135.7840 C   0  0  0  0  0  2  0  0  0  0  0  0
  196.6590  175.2060  135.2630 C   0  0  0  0  0  2  0  0  0  0  0  0
  196.4140  174.5870  137.5020 C   0  0  0  0  0  2  0  0  0  0  0  0
  197.9030  174.5690  137.2230 C   0  0  0  0  0  2  0  0  0  0  0  0
  193.8280  170.2740  136.6910 C   0  0  0  0  0  1  0  0  0  0  0  0
  192.3540  170.4470  134.8380 O   0  0  0  0  0  0  0  0  0  0  0  0
  193.1070  171.0570  135.6430 C   0  0  0  0  0  0  0  0  0  0  0  0
  190.9810  172.8140  134.5940 O   0  0  0  0  0  0  0  0  0  0  0  0
  189.7820  172.8600  135.3810 C   0  0  0  0  0  1  0  0  0  0  0  0
  189.5340  178.1500  144.7030 C   0  0  0  0  0  0  0  0  0  0  0  0
  189.7760  179.2880  145.0870 O   0  0  0  0  0  0  0  0  0  0  0  0
  189.0050  177.1100  145.6510 C   0  0  0  0  0  2  0  0  0  0  0  0
  189.4260  177.3840  147.0910 C   0  0  0  0  0  2  0  0  0  0  0  0
  192.5940  175.2010  147.1350 C   0  0  0  0  0  1  0  0  0  0  0  0
  191.6200  177.1840  148.2360 C   0  0  0  0  0  2  0  0  0  0  0  0
  190.4720  176.3950  147.6450 C   0  0  2  0  0  3  0  0  0  0  0  0
  191.8070  176.4820  146.9100 C   0  0  2  0  0  3  0  0  0  0  0  0
  187.7320  178.9670  142.5660 C   0  0  1  0  0  3  0  0  0  0  0  0
  185.9270  178.5410  140.9300 C   0  0  0  0  0  3  0  0  0  0  0  0
  186.9500  179.3060  141.3250 C   0  0  0  0  0  3  0  0  0  0  0  0
  183.1480  178.5210  138.2720 C   0  0  0  0  0  2  0  0  0  0  0  0
  183.9430  178.1900  139.4580 C   0  0  0  0  0  0  0  0  0  0  0  0
  181.9600  177.6630  138.3880 N   0  0  0  0  0  0  0  0  0  0  0  0
  183.4690  177.0450  140.1100 N   0  0  0  0  0  2  0  0  0  0  0  0
  185.0700  178.8360  139.7780 C   0  0  0  0  0  3  0  0  0  0  0  0
  182.2740  176.6200  139.3840 C   0  0  0  0  0  2  0  0  0  0  0  0
  181.5580  177.0830  137.0890 C   0  0  2  0  0  3  0  0  0  0  0  0
  180.4770  178.3640  135.0710 C   0  0  2  0  0  3  0  0  0  0  0  0
  180.2860  177.7410  136.4490 C   0  0  2  0  0  3  0  0  0  0  0  0
  180.2940  179.8980  136.7870 O   0  0  0  0  0  0  0  0  0  0  0  0
  181.7950  178.2330  134.6140 O   0  0  0  0  0  1  0  0  0  0  0  0
  180.1400  179.8010  135.4030 C   0  0  1  0  0  3  0  0  0  0  0  0
  179.7640  178.7720  137.2470 O   0  0  0  0  0  0  0  0  0  0  0  0
  180.9550  180.8540  134.6760 C   0  0  0  0  0  3  0  0  0  0  0  0
  180.5770  182.0210  134.5940 O   0  0  0  0  0  0  0  0  0  0  0  0
  181.4250  175.5550  137.2430 C   0  0  0  0  0  3  0  0  0  0  0  0
  180.1330  175.2070  137.6580 O   0  0  0  0  0  1  0  0  0  0  0  0
  181.7350  174.9000  136.0510 O   0  0  0  0  0  1  0  0  0  0  0  0
  186.9950  177.9430  143.4500 C   0  0  0  0  0  2  0  0  0  0  0  0
  186.2400  178.6150  144.5870 C   0  0  2  0  0  3  0  0  0  0  0  0
  185.9330  177.6240  145.6870 C   0  0  0  0  0  2  0  0  0  0  0  0
  185.7730  178.3330  147.0150 C   0  0  0  0  0  1  0  0  0  0  0  0
  184.9550  179.2340  144.0560 C   0  0  0  0  0  2  0  0  0  0  0  0
  183.9210  178.2060  144.0400 N   0  0  0  0  0  2  0  0  0  0  0  0
  182.9160  178.6540  143.0910 C   0  0  0  0  0  1  0  0  0  0  0  0
  1 31  1  1  0  0  0
  2  3  1  0  0  0  0
  3  1  1  0  0  0  0
  4  2  1  0  0  0  0
  5  6  1  0  0  0  0
  6 39  1  1  0  0  0
  6  1  1  0  0  0  0
  7  8  1  6  0  0  0
  7  5  1  0  0  0  0
  7  4  1  0  0  0  0
  9  8  1  0  0  0  0
 10  8  2  0  0  0  0
 11 13  2  0  0  0  0
 11 12  1  0  0  0  0
 12  9  1  0  0  0  0
 14 16  1  0  0  0  0
 14 11  1  0  0  0  0
 15 28  1  0  0  0  0
 15 17  1  0  0  0  0
 16 18  1  0  0  0  0
 16 19  1  0  0  0  0
 19 15  2  0  0  0  0
 20 18  1  6  0  0  0
 20 17  1  0  0  0  0
 20 21  1  0  0  0  0
 21 24  1  0  0  0  0
 22 25  1  0  0  0  0
 23 22  1  0  0  0  0
 23 21  1  0  0  0  0
 25 24  1  0  0  0  0
 27 28  2  0  0  0  0
 28 26  1  0  0  0  0
 29 19  1  0  0  0  0
 29 30  1  0  0  0  0
 31 32  2  0  0  0  0
 31 33  1  0  0  0  0
 33 34  1  0  0  0  0
 37 34  1  6  0  0  0
 37 36  1  0  0  0  0
 38 35  1  1  0  0  0
 38 37  1  0  0  0  0
 38 36  1  0  0  0  0
 39 41  1  6  0  0  0
 39 60  1  0  0  0  0
 40 41  2  0  0  0  0
 42 44  1  0  0  0  0
 42 43  1  0  0  0  0
 43 46  2  0  0  0  0
 43 45  1  0  0  0  0
 44 47  1  0  0  0  0
 46 40  1  0  0  0  0
 47 45  1  0  0  0  0
 48 57  1  1  0  0  0
 48 44  1  0  0  0  0
 49 52  1  1  0  0  0
 49 53  1  0  0  0  0
 49 50  1  0  0  0  0
 50 48  1  1  0  0  0
 50 54  1  0  0  0  0
 51 54  1  0  0  0  0
 53 55  1  6  0  0  0
 53 51  1  0  0  0  0
 56 55  2  0  0  0  0
 57 58  1  0  0  0  0
 59 57  1  0  0  0  0
 61 60  1  6  0  0  0
 61 62  1  0  0  0  0
 62 63  1  0  0  0  0
 64 61  1  0  0  0  0
 65 64  1  0  0  0  0
 66 65  1  0  0  0  0
M  END
>  <MODEL>
4

>  <REMARK>
 VINA RESULT:      -4.6      2.539      9.176
  Name = 
  23 active torsions:
  status: ('A' for Active; 'I' for Inactive)
    1  A    between atoms: C_1  and  C_11
    2  A    between atoms: N_2  and  C_52
    3  A    between atoms: C_3  and  C_49
    4  A    between atoms: C_4  and  C_11
    5  A    between atoms: C_4  and  C_14
    6  A    between atoms: C_7  and  C_64
    7  A    between atoms: C_9  and  C_45
    8  A    between atoms: C_14  and  C_32
    9  A    between atoms: O_15  and  C_44
   10  A    between atoms: C_18  and  N_20
   11  A    between atoms: C_18  and  C_22
   12  A    between atoms: C_19  and  C_54
   13  A    between atoms: C_21  and  C_25
   14  A    between atoms: C_21  and  C_52
   15  A    between atoms: C_21  and  C_55
   16  A    between atoms: N_24  and  C_48
   17  A    between atoms: C_25  and  C_63
   18  A    between atoms: N_28  and  C_45
   19  A    between atoms: N_30  and  N_53
   20  A    between atoms: C_38  and  C_60
   21  A    between atoms: C_43  and  C_63
   22  A    between atoms: C_45  and  C_46
   23  A    between atoms: C_47  and  C_63
                            x       y       z     vdW  Elec       q    Type
                         _______ _______ _______ _____ _____    ______ ____

>  <TORSDO>
F 23

$$$$
=
 OpenBabel11042412483D

 66 71  0  0  1  0  0  0  0  0999 V2000
  183.7780  178.0290  137.8520 C   0  0  2  0  0  3  0  0  0  0  0  0
  185.1660  177.4670  135.8300 C   0  0  0  0  0  2  0  0  0  0  0  0
  183.9820  178.2690  136.3580 C   0  0  0  0  0  2  0  0  0  0  0  0
  184.8610  176.0980  135.7570 O   0  0  0  0  0  0  0  0  0  0  0  0
  183.8420  175.4170  137.8300 C   0  0  0  0  0  2  0  0  0  0  0  0
  183.0200  176.7010  138.0960 C   0  0  1  0  0  3  0  0  0  0  0  0
  185.1400  175.5920  137.0350 C   0  0  1  0  0  3  0  0  0  0  0  0
  185.8600  174.2800  136.9600 C   0  0  0  0  0  0  0  0  0  0  0  0
  186.4350  173.8710  135.7190 N   0  0  0  0  0  2  0  0  0  0  0  0
  185.9550  173.5340  137.9760 O   0  0  0  0  0  0  0  0  0  0  0  0
  188.8530  173.6240  135.3200 C   0  0  0  0  0  0  0  0  0  0  0  0
  187.5920  173.0730  135.6980 N   0  0  0  0  0  2  0  0  0  0  0  0
  188.9000  174.6510  134.5960 O   0  0  0  0  0  0  0  0  0  0  0  0
  190.1190  172.9670  135.7720 C   0  0  0  0  0  2  0  0  0  0  0  0
  193.1870  174.4070  137.3210 C   0  0  0  0  0  0  0  0  0  0  0  0
  191.0980  173.9650  136.1890 N   0  0  0  0  0  0  0  0  0  0  0  0
  192.5670  175.6150  137.9990 C   0  0  0  0  0  2  0  0  0  0  0  0
  190.6660  175.3400  136.3630 C   0  0  0  0  0  2  0  0  0  0  0  0
  192.4330  173.5740  136.5460 C   0  0  0  0  0  0  0  0  0  0  0  0
  191.0440  175.7840  137.7630 C   0  0  2  0  0  3  0  0  0  0  0  0
  190.5050  177.1300  138.0140 N   0  0  0  0  0  0  0  0  0  0  0  0
  188.8660  178.2410  139.3740 C   0  0  0  0  0  2  0  0  0  0  0  0
  190.0950  177.3620  139.3990 C   0  0  0  0  0  2  0  0  0  0  0  0
  189.3040  177.2770  137.2020 C   0  0  0  0  0  2  0  0  0  0  0  0
  188.3370  178.1630  137.9620 C   0  0  0  0  0  2  0  0  0  0  0  0
  195.1750  172.9800  138.1520 C   0  0  0  0  0  1  0  0  0  0  0  0
  195.4480  175.0770  137.0750 O   0  0  0  0  0  0  0  0  0  0  0  0
  194.6380  174.2230  137.5240 C   0  0  0  0  0  0  0  0  0  0  0  0
  192.8920  172.3340  136.0770 O   0  0  0  0  0  0  0  0  0  0  0  0
  193.0420  171.9950  134.6900 C   0  0  0  0  0  1  0  0  0  0  0  0
  183.0590  179.2350  138.3900 C   0  0  0  0  0  0  0  0  0  0  0  0
  183.6040  179.9510  139.2220 O   0  0  0  0  0  0  0  0  0  0  0  0
  181.6230  179.4500  138.0060 C   0  0  0  0  0  2  0  0  0  0  0  0
  181.4700  180.5590  136.9690 C   0  0  0  0  0  2  0  0  0  0  0  0
  180.8720  184.3590  137.0540 C   0  0  0  0  0  1  0  0  0  0  0  0
  179.9490  182.2540  137.9560 C   0  0  0  0  0  2  0  0  0  0  0  0
  181.3840  181.9780  137.5660 C   0  0  2  0  0  3  0  0  0  0  0  0
  180.5220  182.9160  136.7240 C   0  0  2  0  0  3  0  0  0  0  0  0
  182.2090  176.6420  139.4100 C   0  0  1  0  0  3  0  0  0  0  0  0
  182.2130  177.8760  141.5540 C   0  0  0  0  0  3  0  0  0  0  0  0
  182.8970  177.4180  140.5010 C   0  0  0  0  0  3  0  0  0  0  0  0
  184.6240  179.2040  144.2390 C   0  0  0  0  0  2  0  0  0  0  0  0
  184.0950  178.4950  143.0710 C   0  0  0  0  0  0  0  0  0  0  0  0
  186.0680  178.9310  144.1980 N   0  0  0  0  0  0  0  0  0  0  0  0
  185.0380  177.6270  142.5070 N   0  0  0  0  0  2  0  0  0  0  0  0
  182.8150  178.5760  142.6920 C   0  0  0  0  0  3  0  0  0  0  0  0
  186.2690  177.7980  143.2750 C   0  0  0  0  0  2  0  0  0  0  0  0
  186.6250  178.6570  145.5390 C   0  0  2  0  0  3  0  0  0  0  0  0
  188.5190  177.2140  146.6410 C   0  0  2  0  0  3  0  0  0  0  0  0
  187.3400  177.2680  145.6750 C   0  0  2  0  0  3  0  0  0  0  0  0
  189.1190  177.2010  144.4110 O   0  0  0  0  0  0  0  0  0  0  0  0
  188.7570  178.4540  147.2480 O   0  0  0  0  0  1  0  0  0  0  0  0
  189.6160  176.8470  145.6670 C   0  0  1  0  0  3  0  0  0  0  0  0
  187.8510  176.8120  144.4490 O   0  0  0  0  0  0  0  0  0  0  0  0
  190.9700  177.4820  145.9290 C   0  0  0  0  0  3  0  0  0  0  0  0
  191.9360  176.8160  146.2960 O   0  0  0  0  0  0  0  0  0  0  0  0
  185.5200  178.8650  146.5930 C   0  0  0  0  0  3  0  0  0  0  0  0
  185.2160  177.6600  147.2400 O   0  0  0  0  0  1  0  0  0  0  0  0
  185.8920  179.8280  147.5310 O   0  0  0  0  0  1  0  0  0  0  0  0
  180.7410  177.0750  139.2340 C   0  0  0  0  0  2  0  0  0  0  0  0
  179.7880  175.8910  139.3040 C   0  0  2  0  0  3  0  0  0  0  0  0
  179.5700  175.4620  140.7380 C   0  0  0  0  0  2  0  0  0  0  0  0
  179.7570  173.9670  140.8820 C   0  0  0  0  0  1  0  0  0  0  0  0
  180.3400  174.7360  138.4820 C   0  0  0  0  0  2  0  0  0  0  0  0
  179.3760  174.4120  137.4370 N   0  0  0  0  0  2  0  0  0  0  0  0
  180.1460  174.2100  136.2210 C   0  0  0  0  0  1  0  0  0  0  0  0
  1  6  1  0  0  0  0
  1 31  1  6  0  0  0
  2  3  1  0  0  0  0
  3  1  1  0  0  0  0
  4  2  1  0  0  0  0
  4  7  1  0  0  0  0
  5  6  1  0  0  0  0
  6 39  1  1  0  0  0
  7  8  1  6  0  0  0
  7  5  1  0  0  0  0
  8 10  2  0  0  0  0
  9  8  1  0  0  0  0
 11 12  1  0  0  0  0
 11 14  1  0  0  0  0
 12  9  1  0  0  0  0
 13 11  2  0  0  0  0
 14 16  1  0  0  0  0
 15 28  1  0  0  0  0
 15 17  1  0  0  0  0
 16 18  1  0  0  0  0
 16 19  1  0  0  0  0
 19 15  2  0  0  0  0
 20 18  1  6  0  0  0
 20 17  1  0  0  0  0
 20 21  1  0  0  0  0
 21 23  1  0  0  0  0
 22 23  1  0  0  0  0
 24 25  1  0  0  0  0
 24 21  1  0  0  0  0
 25 22  1  0  0  0  0
 27 28  2  0  0  0  0
 28 26  1  0  0  0  0
 29 19  1  0  0  0  0
 30 29  1  0  0  0  0
 31 32  2  0  0  0  0
 33 31  1  0  0  0  0
 34 33  1  0  0  0  0
 37 34  1  6  0  0  0
 37 36  1  0  0  0  0
 38 35  1  1  0  0  0
 38 37  1  0  0  0  0
 38 36  1  0  0  0  0
 39 60  1  6  0  0  0
 39 41  1  0  0  0  0
 40 46  1  0  0  0  0
 41 40  2  0  0  0  0
 43 42  1  0  0  0  0
 44 42  1  0  0  0  0
 44 48  1  0  0  0  0
 45 43  1  0  0  0  0
 45 47  1  0  0  0  0
 46 43  2  0  0  0  0
 47 44  1  0  0  0  0
 48 57  1  1  0  0  0
 49 52  1  6  0  0  0
 50 48  1  6  0  0  0
 50 49  1  0  0  0  0
 51 54  1  0  0  0  0
 51 53  1  0  0  0  0
 53 55  1  1  0  0  0
 53 49  1  0  0  0  0
 54 50  1  0  0  0  0
 55 56  2  0  0  0  0
 57 58  1  0  0  0  0
 57 59  1  0  0  0  0
 60 61  1  0  0  0  0
 61 64  1  6  0  0  0
 61 62  1  0  0  0  0
 62 63  1  0  0  0  0
 65 64  1  0  0  0  0
 66 65  1  0  0  0  0
M  END
>  <MODEL>
5

>  <REMARK>
 VINA RESULT:      -4.3      1.826      3.879
  Name = 
  23 active torsions:
  status: ('A' for Active; 'I' for Inactive)
    1  A    between atoms: C_1  and  C_11
    2  A    between atoms: N_2  and  C_52
    3  A    between atoms: C_3  and  C_49
    4  A    between atoms: C_4  and  C_11
    5  A    between atoms: C_4  and  C_14
    6  A    between atoms: C_7  and  C_64
    7  A    between atoms: C_9  and  C_45
    8  A    between atoms: C_14  and  C_32
    9  A    between atoms: O_15  and  C_44
   10  A    between atoms: C_18  and  N_20
   11  A    between atoms: C_18  and  C_22
   12  A    between atoms: C_19  and  C_54
   13  A    between atoms: C_21  and  C_25
   14  A    between atoms: C_21  and  C_52
   15  A    between atoms: C_21  and  C_55
   16  A    between atoms: N_24  and  C_48
   17  A    between atoms: C_25  and  C_63
   18  A    between atoms: N_28  and  C_45
   19  A    between atoms: N_30  and  N_53
   20  A    between atoms: C_38  and  C_60
   21  A    between atoms: C_43  and  C_63
   22  A    between atoms: C_45  and  C_46
   23  A    between atoms: C_47  and  C_63
                            x       y       z     vdW  Elec       q    Type
                         _______ _______ _______ _____ _____    ______ ____

>  <TORSDO>
F 23

$$$$
=
 OpenBabel11042412483D

 66 71  0  0  1  0  0  0  0  0999 V2000
  189.8700  177.6940  143.3010 C   0  0  2  0  0  3  0  0  0  0  0  0
  191.9980  177.0270  142.1350 C   0  0  0  0  0  2  0  0  0  0  0  0
  191.3790  177.9100  143.2120 C   0  0  0  0  0  2  0  0  0  0  0  0
  191.6700  177.4870  140.8490 O   0  0  0  0  0  0  0  0  0  0  0  0
  189.3030  177.9240  140.7610 C   0  0  0  0  0  2  0  0  0  0  0  0
  189.1360  178.4870  142.1920 C   0  0  1  0  0  3  0  0  0  0  0  0
  190.4280  176.9030  140.5580 C   0  0  1  0  0  3  0  0  0  0  0  0
  190.3830  176.3830  139.1530 C   0  0  0  0  0  0  0  0  0  0  0  0
  191.2130  176.9870  138.1610 N   0  0  0  0  0  2  0  0  0  0  0  0
  189.6170  175.4290  138.8400 O   0  0  0  0  0  0  0  0  0  0  0  0
  190.9480  176.0740  135.8880 C   0  0  0  0  0  0  0  0  0  0  0  0
  191.7080  176.2260  137.0860 N   0  0  0  0  0  2  0  0  0  0  0  0
  189.6990  176.2170  135.9110 O   0  0  0  0  0  0  0  0  0  0  0  0
  191.6390  175.7290  134.6060 C   0  0  0  0  0  2  0  0  0  0  0  0
  193.2890  172.5620  135.6690 C   0  0  0  0  0  0  0  0  0  0  0  0
  192.6980  174.7530  134.8380 N   0  0  0  0  0  0  0  0  0  0  0  0
  194.5130  173.1470  136.3500 C   0  0  0  0  0  2  0  0  0  0  0  0
  194.0640  175.2210  134.9860 C   0  0  0  0  0  2  0  0  0  0  0  0
  192.3810  173.3680  135.0450 C   0  0  0  0  0  0  0  0  0  0  0  0
  194.6090  174.6930  136.2990 C   0  0  2  0  0  3  0  0  0  0  0  0
  195.9460  175.2580  136.5390 N   0  0  0  0  0  0  0  0  0  0  0  0
  198.0050  175.6920  135.3790 C   0  0  0  0  0  2  0  0  0  0  0  0
  196.5180  175.9560  135.3870 C   0  0  0  0  0  2  0  0  0  0  0  0
  196.8440  174.1470  136.8280 C   0  0  0  0  0  2  0  0  0  0  0  0
  198.2130  174.5040  136.2870 C   0  0  0  0  0  2  0  0  0  0  0  0
  193.8310  170.2870  136.7710 C   0  0  0  0  0  1  0  0  0  0  0  0
  192.4290  170.5030  134.8680 O   0  0  0  0  0  0  0  0  0  0  0  0
  193.1730  171.0900  135.6980 C   0  0  0  0  0  0  0  0  0  0  0  0
  191.1320  172.9140  134.5940 O   0  0  0  0  0  0  0  0  0  0  0  0
  190.0290  172.5840  135.4500 C   0  0  0  0  0  1  0  0  0  0  0  0
  189.4560  178.0890  144.6910 C   0  0  0  0  0  0  0  0  0  0  0  0
  189.6450  179.2340  145.0830 O   0  0  0  0  0  0  0  0  0  0  0  0
  188.9540  177.0240  145.6250 C   0  0  0  0  0  2  0  0  0  0  0  0
  189.3410  177.3080  147.0730 C   0  0  0  0  0  2  0  0  0  0  0  0
  192.6470  175.3400  147.1110 C   0  0  0  0  0  1  0  0  0  0  0  0
  191.5440  177.2530  148.2150 C   0  0  0  0  0  2  0  0  0  0  0  0
  190.4500  176.3900  147.6250 C   0  0  2  0  0  3  0  0  0  0  0  0
  191.7760  176.5670  146.8880 C   0  0  2  0  0  3  0  0  0  0  0  0
  187.6790  178.8810  142.5240 C   0  0  1  0  0  3  0  0  0  0  0  0
  185.9200  178.4510  140.8380 C   0  0  0  0  0  3  0  0  0  0  0  0
  186.9190  179.2270  141.2720 C   0  0  0  0  0  3  0  0  0  0  0  0
  183.2040  178.4270  138.1170 C   0  0  0  0  0  2  0  0  0  0  0  0
  183.9780  178.0900  139.3140 C   0  0  0  0  0  0  0  0  0  0  0  0
  182.0300  177.5450  138.1890 N   0  0  0  0  0  0  0  0  0  0  0  0
  183.5110  176.9240  139.9350 N   0  0  0  0  0  2  0  0  0  0  0  0
  185.0840  178.7510  139.6730 C   0  0  0  0  0  3  0  0  0  0  0  0
  182.3420  176.4900  139.1740 C   0  0  0  0  0  2  0  0  0  0  0  0
  181.6690  176.9820  136.8710 C   0  0  2  0  0  3  0  0  0  0  0  0
  182.7420  176.1130  134.6410 C   0  0  2  0  0  3  0  0  0  0  0  0
  182.7780  177.1340  135.7730 C   0  0  2  0  0  3  0  0  0  0  0  0
  184.4360  175.7710  136.1720 O   0  0  0  0  0  0  0  0  0  0  0  0
  181.6940  175.1960  134.7940 O   0  0  0  0  0  1  0  0  0  0  0  0
  184.0910  175.4630  134.8550 C   0  0  1  0  0  3  0  0  0  0  0  0
  184.0730  177.0400  136.3090 O   0  0  0  0  0  0  0  0  0  0  0  0
  184.1510  173.9690  134.5980 C   0  0  0  0  0  3  0  0  0  0  0  0
  184.4600  173.1730  135.4830 O   0  0  0  0  0  0  0  0  0  0  0  0
  180.3110  177.5650  136.4330 C   0  0  0  0  0  3  0  0  0  0  0  0
  179.3060  176.5930  136.5020 O   0  0  0  0  0  1  0  0  0  0  0  0
  179.9620  178.6680  137.2130 O   0  0  0  0  0  1  0  0  0  0  0  0
  186.9440  177.8230  143.3690 C   0  0  0  0  0  2  0  0  0  0  0  0
  186.1940  178.4490  144.5350 C   0  0  2  0  0  3  0  0  0  0  0  0
  185.8100  177.3980  145.5520 C   0  0  0  0  0  2  0  0  0  0  0  0
  185.6530  178.0160  146.9250 C   0  0  0  0  0  1  0  0  0  0  0  0
  184.9570  179.1710  144.0230 C   0  0  0  0  0  2  0  0  0  0  0  0
  183.8710  178.2040  143.9160 N   0  0  0  0  0  2  0  0  0  0  0  0
  182.8990  178.7820  143.0030 C   0  0  0  0  0  1  0  0  0  0  0  0
  1 31  1  1  0  0  0
  2  3  1  0  0  0  0
  3  1  1  0  0  0  0
  4  2  1  0  0  0  0
  5  6  1  0  0  0  0
  6 39  1  1  0  0  0
  6  1  1  0  0  0  0
  7  8  1  6  0  0  0
  7  5  1  0  0  0  0
  7  4  1  0  0  0  0
  9  8  1  0  0  0  0
 10  8  2  0  0  0  0
 11 13  2  0  0  0  0
 11 12  1  0  0  0  0
 12  9  1  0  0  0  0
 14 16  1  0  0  0  0
 14 11  1  0  0  0  0
 15 28  1  0  0  0  0
 15 17  1  0  0  0  0
 16 18  1  0  0  0  0
 16 19  1  0  0  0  0
 19 15  2  0  0  0  0
 20 18  1  6  0  0  0
 20 17  1  0  0  0  0
 20 21  1  0  0  0  0
 21 24  1  0  0  0  0
 22 23  1  0  0  0  0
 22 25  1  0  0  0  0
 23 21  1  0  0  0  0
 25 24  1  0  0  0  0
 27 28  2  0  0  0  0
 28 26  1  0  0  0  0
 29 19  1  0  0  0  0
 29 30  1  0  0  0  0
 31 32  2  0  0  0  0
 31 33  1  0  0  0  0
 33 34  1  0  0  0  0
 37 34  1  6  0  0  0
 37 36  1  0  0  0  0
 38 35  1  1  0  0  0
 38 37  1  0  0  0  0
 38 36  1  0  0  0  0
 39 41  1  6  0  0  0
 39 60  1  0  0  0  0
 40 41  2  0  0  0  0
 42 44  1  0  0  0  0
 42 43  1  0  0  0  0
 43 46  2  0  0  0  0
 43 45  1  0  0  0  0
 44 47  1  0  0  0  0
 46 40  1  0  0  0  0
 47 45  1  0  0  0  0
 48 57  1  6  0  0  0
 48 44  1  0  0  0  0
 49 52  1  1  0  0  0
 49 53  1  0  0  0  0
 49 50  1  0  0  0  0
 50 54  1  0  0  0  0
 50 48  1  1  0  0  0
 51 54  1  0  0  0  0
 53 55  1  1  0  0  0
 53 51  1  0  0  0  0
 55 56  2  0  0  0  0
 57 58  1  0  0  0  0
 57 59  1  0  0  0  0
 61 60  1  6  0  0  0
 61 62  1  0  0  0  0
 62 63  1  0  0  0  0
 64 61  1  0  0  0  0
 65 64  1  0  0  0  0
 66 65  1  0  0  0  0
M  END
>  <MODEL>
6

>  <REMARK>
 VINA RESULT:      -4.3      2.593      8.952
  Name = 
  23 active torsions:
  status: ('A' for Active; 'I' for Inactive)
    1  A    between atoms: C_1  and  C_11
    2  A    between atoms: N_2  and  C_52
    3  A    between atoms: C_3  and  C_49
    4  A    between atoms: C_4  and  C_11
    5  A    between atoms: C_4  and  C_14
    6  A    between atoms: C_7  and  C_64
    7  A    between atoms: C_9  and  C_45
    8  A    between atoms: C_14  and  C_32
    9  A    between atoms: O_15  and  C_44
   10  A    between atoms: C_18  and  N_20
   11  A    between atoms: C_18  and  C_22
   12  A    between atoms: C_19  and  C_54
   13  A    between atoms: C_21  and  C_25
   14  A    between atoms: C_21  and  C_52
   15  A    between atoms: C_21  and  C_55
   16  A    between atoms: N_24  and  C_48
   17  A    between atoms: C_25  and  C_63
   18  A    between atoms: N_28  and  C_45
   19  A    between atoms: N_30  and  N_53
   20  A    between atoms: C_38  and  C_60
   21  A    between atoms: C_43  and  C_63
   22  A    between atoms: C_45  and  C_46
   23  A    between atoms: C_47  and  C_63
                            x       y       z     vdW  Elec       q    Type
                         _______ _______ _______ _____ _____    ______ ____

>  <TORSDO>
F 23

$$$$
=
 OpenBabel11042412483D

 66 71  0  0  1  0  0  0  0  0999 V2000
  190.0020  177.3870  142.8360 C   0  0  2  0  0  3  0  0  0  0  0  0
  192.1200  176.6910  141.6700 C   0  0  0  0  0  2  0  0  0  0  0  0
  191.5180  177.5520  142.7750 C   0  0  0  0  0  2  0  0  0  0  0  0
  191.8270  177.2150  140.4000 O   0  0  0  0  0  0  0  0  0  0  0  0
  189.4780  177.7400  140.3000 C   0  0  0  0  0  2  0  0  0  0  0  0
  189.3120  178.2510  141.7520 C   0  0  1  0  0  3  0  0  0  0  0  0
  190.5690  176.6890  140.0700 C   0  0  1  0  0  3  0  0  0  0  0  0
  190.5250  176.2280  138.6450 C   0  0  0  0  0  0  0  0  0  0  0  0
  190.8250  177.1580  137.6030 N   0  0  0  0  0  2  0  0  0  0  0  0
  190.2190  175.0370  138.3570 O   0  0  0  0  0  0  0  0  0  0  0  0
  192.7820  176.3030  136.3760 C   0  0  0  0  0  0  0  0  0  0  0  0
  191.4180  176.7190  136.4060 N   0  0  0  0  0  2  0  0  0  0  0  0
  193.5870  176.7140  137.2500 O   0  0  0  0  0  0  0  0  0  0  0  0
  193.2590  175.3860  135.2930 C   0  0  0  0  0  2  0  0  0  0  0  0
  193.4250  171.6680  135.4570 C   0  0  0  0  0  0  0  0  0  0  0  0
  192.8490  174.0120  135.5630 N   0  0  0  0  0  0  0  0  0  0  0  0
  192.0280  171.3430  134.9620 C   0  0  0  0  0  2  0  0  0  0  0  0
  191.4330  173.7020  135.6300 C   0  0  0  0  0  2  0  0  0  0  0  0
  193.8250  172.9600  135.6330 C   0  0  0  0  0  0  0  0  0  0  0  0
  191.1430  172.5790  134.6530 C   0  0  2  0  0  3  0  0  0  0  0  0
  189.6950  172.3310  134.6040 N   0  0  0  0  0  0  0  0  0  0  0  0
  187.7820  172.2520  136.0560 C   0  0  0  0  0  2  0  0  0  0  0  0
  188.9190  173.1170  135.5640 C   0  0  0  0  0  2  0  0  0  0  0  0
  189.4790  170.9330  134.9530 C   0  0  0  0  0  2  0  0  0  0  0  0
  188.1570  170.8370  135.6880 C   0  0  0  0  0  2  0  0  0  0  0  0
  194.1230  169.7400  137.0330 C   0  0  0  0  0  1  0  0  0  0  0  0
  195.1120  170.0950  134.9040 O   0  0  0  0  0  0  0  0  0  0  0  0
  194.2890  170.5090  135.7630 C   0  0  0  0  0  0  0  0  0  0  0  0
  195.1580  173.3280  135.8750 O   0  0  0  0  0  0  0  0  0  0  0  0
  196.2280  173.1710  134.9310 C   0  0  0  0  0  1  0  0  0  0  0  0
  189.5820  177.7400  144.2360 C   0  0  0  0  0  0  0  0  0  0  0  0
  188.6610  177.1340  144.7700 O   0  0  0  0  0  0  0  0  0  0  0  0
  190.2080  178.9350  144.8970 C   0  0  0  0  0  2  0  0  0  0  0  0
  190.7500  178.6010  146.2830 C   0  0  0  0  0  2  0  0  0  0  0  0
  192.9290  175.7260  147.6210 C   0  0  0  0  0  1  0  0  0  0  0  0
  190.5840  176.4960  147.5880 C   0  0  0  0  0  2  0  0  0  0  0  0
  191.2860  177.1630  146.4250 C   0  0  2  0  0  3  0  0  0  0  0  0
  192.0200  176.9400  147.7460 C   0  0  2  0  0  3  0  0  0  0  0  0
  187.8640  178.6830  142.0810 C   0  0  1  0  0  3  0  0  0  0  0  0
  185.7390  178.8800  140.8320 C   0  0  0  0  0  3  0  0  0  0  0  0
  187.0750  178.9170  140.8210 C   0  0  0  0  0  3  0  0  0  0  0  0
  182.8930  178.9690  138.2480 C   0  0  0  0  0  2  0  0  0  0  0  0
  183.6740  178.6610  139.4490 C   0  0  0  0  0  0  0  0  0  0  0  0
  181.5980  178.3150  138.4860 N   0  0  0  0  0  0  0  0  0  0  0  0
  183.0630  177.6800  140.2400 N   0  0  0  0  0  2  0  0  0  0  0  0
  184.8920  179.1660  139.6700 C   0  0  0  0  0  3  0  0  0  0  0  0
  181.7940  177.3560  139.5920 C   0  0  0  0  0  2  0  0  0  0  0  0
  181.0700  177.6570  137.2720 C   0  0  2  0  0  3  0  0  0  0  0  0
  180.2180  179.2070  135.3340 C   0  0  2  0  0  3  0  0  0  0  0  0
  179.8770  178.4130  136.5900 C   0  0  2  0  0  3  0  0  0  0  0  0
  179.8500  180.5070  137.2070 O   0  0  0  0  0  0  0  0  0  0  0  0
  181.5780  179.1160  135.0090 O   0  0  0  0  0  1  0  0  0  0  0  0
  179.8480  180.5930  135.8130 C   0  0  1  0  0  3  0  0  0  0  0  0
  179.2720  179.3390  137.4550 O   0  0  0  0  0  0  0  0  0  0  0  0
  180.7390  181.7190  135.3230 C   0  0  0  0  0  3  0  0  0  0  0  0
  180.8850  182.7550  135.9680 O   0  0  0  0  0  0  0  0  0  0  0  0
  180.7360  176.1900  137.6030 C   0  0  0  0  0  3  0  0  0  0  0  0
  179.3500  175.9910  137.6420 O   0  0  0  0  0  1  0  0  0  0  0  0
  181.3150  175.3200  136.6780 O   0  0  0  0  0  1  0  0  0  0  0  0
  187.1470  177.7120  143.0380 C   0  0  0  0  0  2  0  0  0  0  0  0
  186.2190  178.4430  143.9970 C   0  0  2  0  0  3  0  0  0  0  0  0
  186.3320  177.8730  145.3930 C   0  0  0  0  0  2  0  0  0  0  0  0
  185.0650  178.1330  146.1790 C   0  0  0  0  0  1  0  0  0  0  0  0
  184.7850  178.3480  143.4980 C   0  0  0  0  0  2  0  0  0  0  0  0
  183.9560  179.2330  144.3080 N   0  0  0  0  0  2  0  0  0  0  0  0
  182.5810  178.8200  144.0860 C   0  0  0  0  0  1  0  0  0  0  0  0
  1 31  1  1  0  0  0
  2  3  1  0  0  0  0
  3  1  1  0  0  0  0
  4  2  1  0  0  0  0
  5  6  1  0  0  0  0
  6 39  1  1  0  0  0
  6  1  1  0  0  0  0
  7  8  1  6  0  0  0
  7  5  1  0  0  0  0
  7  4  1  0  0  0  0
  9  8  1  0  0  0  0
 10  8  2  0  0  0  0
 11 12  1  0  0  0  0
 11 13  2  0  0  0  0
 12  9  1  0  0  0  0
 14 16  1  0  0  0  0
 14 11  1  0  0  0  0
 15 19  2  0  0  0  0
 15 28  1  0  0  0  0
 16 18  1  0  0  0  0
 16 19  1  0  0  0  0
 17 15  1  0  0  0  0
 19 29  1  0  0  0  0
 20 21  1  1  0  0  0
 20 17  1  0  0  0  0
 20 18  1  0  0  0  0
 21 24  1  0  0  0  0
 21 23  1  0  0  0  0
 23 22  1  0  0  0  0
 24 25  1  0  0  0  0
 25 22  1  0  0  0  0
 27 28  2  0  0  0  0
 28 26  1  0  0  0  0
 30 29  1  0  0  0  0
 31 32  2  0  0  0  0
 31 33  1  0  0  0  0
 33 34  1  0  0  0  0
 36 38  1  0  0  0  0
 37 34  1  1  0  0  0
 37 36  1  0  0  0  0
 37 38  1  0  0  0  0
 38 35  1  6  0  0  0
 39 41  1  6  0  0  0
 39 60  1  0  0  0  0
 41 40  2  0  0  0  0
 42 44  1  0  0  0  0
 42 43  1  0  0  0  0
 43 46  2  0  0  0  0
 43 45  1  0  0  0  0
 44 47  1  0  0  0  0
 46 40  1  0  0  0  0
 47 45  1  0  0  0  0
 48 57  1  1  0  0  0
 48 44  1  0  0  0  0
 49 52  1  1  0  0  0
 49 53  1  0  0  0  0
 49 50  1  0  0  0  0
 50 48  1  1  0  0  0
 50 54  1  0  0  0  0
 51 54  1  0  0  0  0
 53 55  1  1  0  0  0
 53 51  1  0  0  0  0
 55 56  2  0  0  0  0
 57 58  1  0  0  0  0
 59 57  1  0  0  0  0
 61 60  1  6  0  0  0
 61 62  1  0  0  0  0
 62 63  1  0  0  0  0
 64 61  1  0  0  0  0
 64 65  1  0  0  0  0
 66 65  1  0  0  0  0
M  END
>  <MODEL>
7

>  <REMARK>
 VINA RESULT:      -3.1      2.462      9.084
  Name = 
  23 active torsions:
  status: ('A' for Active; 'I' for Inactive)
    1  A    between atoms: C_1  and  C_11
    2  A    between atoms: N_2  and  C_52
    3  A    between atoms: C_3  and  C_49
    4  A    between atoms: C_4  and  C_11
    5  A    between atoms: C_4  and  C_14
    6  A    between atoms: C_7  and  C_64
    7  A    between atoms: C_9  and  C_45
    8  A    between atoms: C_14  and  C_32
    9  A    between atoms: O_15  and  C_44
   10  A    between atoms: C_18  and  N_20
   11  A    between atoms: C_18  and  C_22
   12  A    between atoms: C_19  and  C_54
   13  A    between atoms: C_21  and  C_25
   14  A    between atoms: C_21  and  C_52
   15  A    between atoms: C_21  and  C_55
   16  A    between atoms: N_24  and  C_48
   17  A    between atoms: C_25  and  C_63
   18  A    between atoms: N_28  and  C_45
   19  A    between atoms: N_30  and  N_53
   20  A    between atoms: C_38  and  C_60
   21  A    between atoms: C_43  and  C_63
   22  A    between atoms: C_45  and  C_46
   23  A    between atoms: C_47  and  C_63
                            x       y       z     vdW  Elec       q    Type
                         _______ _______ _______ _____ _____    ______ ____

>  <TORSDO>
F 23

$$$$
=
 OpenBabel11042412483D

 66 71  0  0  1  0  0  0  0  0999 V2000
  192.4770  173.5650  135.8740 C   0  0  2  0  0  3  0  0  0  0  0  0
  190.0990  173.1150  135.1850 C   0  0  0  0  0  2  0  0  0  0  0  0
  191.5620  172.7500  134.9630 C   0  0  0  0  0  2  0  0  0  0  0  0
  189.8050  174.3820  134.6550 O   0  0  0  0  0  0  0  0  0  0  0  0
  191.5010  175.9360  135.3690 C   0  0  0  0  0  2  0  0  0  0  0  0
  192.7150  174.9790  135.2890 C   0  0  1  0  0  3  0  0  0  0  0  0
  190.1440  175.2900  135.6690 C   0  0  1  0  0  3  0  0  0  0  0  0
  189.1050  176.3590  135.8170 C   0  0  0  0  0  0  0  0  0  0  0  0
  187.8760  176.2400  135.0990 N   0  0  0  0  0  2  0  0  0  0  0  0
  189.3060  177.3610  136.5590 O   0  0  0  0  0  0  0  0  0  0  0  0
  186.0140  176.1220  136.7070 C   0  0  0  0  0  0  0  0  0  0  0  0
  186.6860  176.7710  135.6290 N   0  0  0  0  0  2  0  0  0  0  0  0
  186.1880  174.8940  136.9110 O   0  0  0  0  0  0  0  0  0  0  0  0
  185.0890  176.9040  137.5870 C   0  0  0  0  0  2  0  0  0  0  0  0
  181.3670  176.9780  137.7400 C   0  0  0  0  0  0  0  0  0  0  0  0
  183.7020  176.7100  137.1780 N   0  0  0  0  0  0  0  0  0  0  0  0
  181.0790  175.5820  137.2210 C   0  0  0  0  0  2  0  0  0  0  0  0
  183.3930  175.6650  136.2210 C   0  0  0  0  0  2  0  0  0  0  0  0
  182.6450  177.4510  137.8080 C   0  0  0  0  0  0  0  0  0  0  0  0
  182.3340  174.7620  136.8240 C   0  0  2  0  0  3  0  0  0  0  0  0
  182.0940  173.6200  135.9300 N   0  0  0  0  0  0  0  0  0  0  0  0
  182.2110  171.2200  135.9230 C   0  0  0  0  0  2  0  0  0  0  0  0
  181.6020  172.4200  136.6090 C   0  0  0  0  0  2  0  0  0  0  0  0
  183.3720  173.2550  135.3340 C   0  0  0  0  0  2  0  0  0  0  0  0
  183.3750  171.7550  135.1230 C   0  0  0  0  0  2  0  0  0  0  0  0
  179.2880  177.3510  139.2300 C   0  0  0  0  0  1  0  0  0  0  0  0
  179.9910  178.9020  137.5770 O   0  0  0  0  0  0  0  0  0  0  0  0
  180.1890  177.7840  138.1210 C   0  0  0  0  0  0  0  0  0  0  0  0
  182.9930  178.6360  138.4740 O   0  0  0  0  0  0  0  0  0  0  0  0
  182.4270  179.0620  139.7230 C   0  0  0  0  0  1  0  0  0  0  0  0
  193.7410  172.7700  136.0440 C   0  0  0  0  0  0  0  0  0  0  0  0
  194.2780  172.7020  137.1430 O   0  0  0  0  0  0  0  0  0  0  0  0
  194.4030  172.1960  134.8230 C   0  0  0  0  0  2  0  0  0  0  0  0
  195.1660  170.9130  135.1380 C   0  0  0  0  0  2  0  0  0  0  0  0
  198.6500  170.1590  136.5860 C   0  0  0  0  0  1  0  0  0  0  0  0
  197.4920  171.7800  135.1280 C   0  0  0  0  0  2  0  0  0  0  0  0
  196.4350  171.1230  135.9880 C   0  0  2  0  0  3  0  0  0  0  0  0
  197.6240  170.3150  135.4740 C   0  0  2  0  0  3  0  0  0  0  0  0
  194.0440  175.6470  135.7100 C   0  0  1  0  0  3  0  0  0  0  0  0
  192.9830  176.1760  137.8800 C   0  0  0  0  0  3  0  0  0  0  0  0
  193.8450  176.5210  136.9190 C   0  0  0  0  0  3  0  0  0  0  0  0
  191.5390  177.6960  141.1040 C   0  0  0  0  0  2  0  0  0  0  0  0
  191.6850  176.8920  139.8880 C   0  0  0  0  0  0  0  0  0  0  0  0
  190.2620  177.2480  141.6770 N   0  0  0  0  0  0  0  0  0  0  0  0
  190.5050  176.2140  139.5570 N   0  0  0  0  0  2  0  0  0  0  0  0
  192.7800  176.9300  139.1210 C   0  0  0  0  0  3  0  0  0  0  0  0
  189.5450  176.5130  140.6170 C   0  0  0  0  0  2  0  0  0  0  0  0
  189.4610  178.3700  142.2110 C   0  0  2  0  0  3  0  0  0  0  0  0
  190.7540  178.4730  144.4910 C   0  0  2  0  0  3  0  0  0  0  0  0
  189.4070  178.4440  143.7760 C   0  0  2  0  0  3  0  0  0  0  0  0
  189.6440  176.4530  144.6410 O   0  0  0  0  0  0  0  0  0  0  0  0
  191.8270  178.4240  143.5920 O   0  0  0  0  0  1  0  0  0  0  0  0
  190.6340  177.1940  145.2900 C   0  0  1  0  0  3  0  0  0  0  0  0
  188.7200  177.3540  144.3360 O   0  0  0  0  0  0  0  0  0  0  0  0
  191.9140  176.3940  145.4490 C   0  0  0  0  0  3  0  0  0  0  0  0
  192.2080  175.4840  144.6760 O   0  0  0  0  0  0  0  0  0  0  0  0
  188.0610  178.3360  141.5670 C   0  0  0  0  0  3  0  0  0  0  0  0
  187.1950  179.2290  142.2110 O   0  0  0  0  0  1  0  0  0  0  0  0
  188.1250  178.6330  140.2060 O   0  0  0  0  0  1  0  0  0  0  0  0
  195.1900  174.6380  135.9110 C   0  0  0  0  0  2  0  0  0  0  0  0
  196.4930  175.3270  136.2880 C   0  0  2  0  0  3  0  0  0  0  0  0
  197.3110  175.6400  135.0550 C   0  0  0  0  0  2  0  0  0  0  0  0
  197.0610  177.0590  134.5940 C   0  0  0  0  0  1  0  0  0  0  0  0
  197.2840  174.4450  137.2420 C   0  0  0  0  0  2  0  0  0  0  0  0
  197.7070  175.2580  138.3760 N   0  0  0  0  0  2  0  0  0  0  0  0
  197.3110  174.5290  139.5700 C   0  0  0  0  0  1  0  0  0  0  0  0
  1 31  1  6  0  0  0
  3  2  1  0  0  0  0
  3  1  1  0  0  0  0
  4  2  1  0  0  0  0
  4  7  1  0  0  0  0
  5  7  1  0  0  0  0
  6  5  1  0  0  0  0
  6 39  1  1  0  0  0
  6  1  1  0  0  0  0
  7  8  1  6  0  0  0
  8 10  2  0  0  0  0
  9 12  1  0  0  0  0
  9  8  1  0  0  0  0
 11 13  2  0  0  0  0
 11 14  1  0  0  0  0
 12 11  1  0  0  0  0
 15 19  2  0  0  0  0
 15 28  1  0  0  0  0
 16 14  1  0  0  0  0
 16 19  1  0  0  0  0
 17 15  1  0  0  0  0
 18 20  1  0  0  0  0
 18 16  1  0  0  0  0
 19 29  1  0  0  0  0
 20 21  1  6  0  0  0
 20 17  1  0  0  0  0
 21 23  1  0  0  0  0
 22 23  1  0  0  0  0
 24 21  1  0  0  0  0
 25 24  1  0  0  0  0
 25 22  1  0  0  0  0
 27 28  2  0  0  0  0
 28 26  1  0  0  0  0
 29 30  1  0  0  0  0
 31 32  2  0  0  0  0
 33 34  1  0  0  0  0
 33 31  1  0  0  0  0
 36 38  1  0  0  0  0
 36 37  1  0  0  0  0
 37 34  1  6  0  0  0
 38 37  1  0  0  0  0
 38 35  1  1  0  0  0
 39 60  1  1  0  0  0
 39 41  1  0  0  0  0
 40 46  1  0  0  0  0
 41 40  2  0  0  0  0
 42 44  1  0  0  0  0
 43 42  1  0  0  0  0
 44 48  1  0  0  0  0
 45 43  1  0  0  0  0
 45 47  1  0  0  0  0
 46 43  2  0  0  0  0
 47 44  1  0  0  0  0
 48 57  1  6  0  0  0
 49 52  1  6  0  0  0
 49 53  1  0  0  0  0
 50 48  1  6  0  0  0
 50 54  1  0  0  0  0
 50 49  1  0  0  0  0
 51 53  1  0  0  0  0
 53 55  1  6  0  0  0
 54 51  1  0  0  0  0
 56 55  2  0  0  0  0
 57 58  1  0  0  0  0
 59 57  1  0  0  0  0
 60 61  1  0  0  0  0
 61 62  1  6  0  0  0
 61 64  1  0  0  0  0
 63 62  1  0  0  0  0
 64 65  1  0  0  0  0
 65 66  1  0  0  0  0
M  END
>  <MODEL>
8

>  <REMARK>
 VINA RESULT:      -2.8      2.684     11.121
  Name = 
  23 active torsions:
  status: ('A' for Active; 'I' for Inactive)
    1  A    between atoms: C_1  and  C_11
    2  A    between atoms: N_2  and  C_52
    3  A    between atoms: C_3  and  C_49
    4  A    between atoms: C_4  and  C_11
    5  A    between atoms: C_4  and  C_14
    6  A    between atoms: C_7  and  C_64
    7  A    between atoms: C_9  and  C_45
    8  A    between atoms: C_14  and  C_32
    9  A    between atoms: O_15  and  C_44
   10  A    between atoms: C_18  and  N_20
   11  A    between atoms: C_18  and  C_22
   12  A    between atoms: C_19  and  C_54
   13  A    between atoms: C_21  and  C_25
   14  A    between atoms: C_21  and  C_52
   15  A    between atoms: C_21  and  C_55
   16  A    between atoms: N_24  and  C_48
   17  A    between atoms: C_25  and  C_63
   18  A    between atoms: N_28  and  C_45
   19  A    between atoms: N_30  and  N_53
   20  A    between atoms: C_38  and  C_60
   21  A    between atoms: C_43  and  C_63
   22  A    between atoms: C_45  and  C_46
   23  A    between atoms: C_47  and  C_63
                            x       y       z     vdW  Elec       q    Type
                         _______ _______ _______ _____ _____    ______ ____

>  <TORSDO>
F 23

$$$$
=
 OpenBabel11042412483D

 66 71  0  0  1  0  0  0  0  0999 V2000
  181.2350  178.3650  140.5740 C   0  0  2  0  0  3  0  0  0  0  0  0
  182.4510  179.1330  142.6380 C   0  0  0  0  0  2  0  0  0  0  0  0
  181.2680  179.3840  141.7100 C   0  0  0  0  0  2  0  0  0  0  0  0
  183.6630  179.4970  142.0280 O   0  0  0  0  0  0  0  0  0  0  0  0
  183.7250  178.5680  139.8070 C   0  0  0  0  0  2  0  0  0  0  0  0
  182.2300  178.7580  139.4540 C   0  0  1  0  0  3  0  0  0  0  0  0
  184.0540  178.3700  141.2900 C   0  0  1  0  0  3  0  0  0  0  0  0
  185.5190  178.0960  141.4440 C   0  0  0  0  0  0  0  0  0  0  0  0
  186.0580  177.9050  142.7530 N   0  0  0  0  0  2  0  0  0  0  0  0
  186.2770  178.0410  140.4360 O   0  0  0  0  0  0  0  0  0  0  0  0
  188.4950  177.5510  142.8070 C   0  0  0  0  0  0  0  0  0  0  0  0
  187.1640  177.0590  142.9520 N   0  0  0  0  0  2  0  0  0  0  0  0
  188.7190  178.5640  142.0970 O   0  0  0  0  0  0  0  0  0  0  0  0
  189.6280  176.8490  143.4890 C   0  0  0  0  0  2  0  0  0  0  0  0
  190.6290  176.7430  147.0760 C   0  0  0  0  0  0  0  0  0  0  0  0
  189.6760  177.2030  144.9040 N   0  0  0  0  0  0  0  0  0  0  0  0
  189.2580  176.8880  147.7120 C   0  0  0  0  0  2  0  0  0  0  0  0
  188.5300  177.8620  145.5010 C   0  0  0  0  0  2  0  0  0  0  0  0
  190.7830  176.7910  145.7210 C   0  0  0  0  0  0  0  0  0  0  0  0
  188.0890  177.0540  146.7070 C   0  0  2  0  0  3  0  0  0  0  0  0
  186.8510  177.6270  147.2570 N   0  0  0  0  0  0  0  0  0  0  0  0
  185.1180  179.1870  146.6780 C   0  0  0  0  0  2  0  0  0  0  0  0
  185.8300  177.9240  146.2520 C   0  0  0  0  0  2  0  0  0  0  0  0
  187.1960  178.9000  147.8760 C   0  0  0  0  0  2  0  0  0  0  0  0
  186.0160  179.8340  147.7060 C   0  0  0  0  0  2  0  0  0  0  0  0
  192.5470  175.3190  148.0640 C   0  0  0  0  0  1  0  0  0  0  0  0
  192.1430  177.5690  148.7040 O   0  0  0  0  0  0  0  0  0  0  0  0
  191.7620  176.5880  148.0100 C   0  0  0  0  0  0  0  0  0  0  0  0
  191.9780  176.4490  145.0700 O   0  0  0  0  0  0  0  0  0  0  0  0
  192.0900  175.4370  144.0580 C   0  0  0  0  0  1  0  0  0  0  0  0
  179.8090  178.2850  140.1030 C   0  0  0  0  0  0  0  0  0  0  0  0
  179.2490  177.1980  140.0300 O   0  0  0  0  0  0  0  0  0  0  0  0
  179.1480  179.5330  139.5890 C   0  0  0  0  0  2  0  0  0  0  0  0
  180.1650  180.6160  139.2440 C   0  0  0  0  0  2  0  0  0  0  0  0
  178.9310  182.4980  136.1230 C   0  0  0  0  0  1  0  0  0  0  0  0
  180.8630  182.3900  137.6540 C   0  0  0  0  0  2  0  0  0  0  0  0
  180.1310  181.0710  137.7710 C   0  0  2  0  0  3  0  0  0  0  0  0
  179.3540  182.3710  137.5780 C   0  0  2  0  0  3  0  0  0  0  0  0
  181.8680  178.2390  138.0440 C   0  0  1  0  0  3  0  0  0  0  0  0
  184.1020  177.5290  137.2550 C   0  0  0  0  0  3  0  0  0  0  0  0
  183.0490  178.3410  137.1160 C   0  0  0  0  0  3  0  0  0  0  0  0
  187.5480  176.9380  135.6530 C   0  0  0  0  0  2  0  0  0  0  0  0
  186.4200  176.8900  136.5870 C   0  0  0  0  0  0  0  0  0  0  0  0
  188.5400  176.0290  136.2440 N   0  0  0  0  0  0  0  0  0  0  0  0
  186.7560  176.2550  137.7890 N   0  0  0  0  0  2  0  0  0  0  0  0
  185.2590  177.5120  136.3550 C   0  0  0  0  0  3  0  0  0  0  0  0
  188.1360  175.7970  137.6450 C   0  0  0  0  0  2  0  0  0  0  0  0
  189.9160  176.5600  136.1470 C   0  0  2  0  0  3  0  0  0  0  0  0
  190.5330  174.5360  134.5960 C   0  0  2  0  0  3  0  0  0  0  0  0
  190.7420  176.0090  134.9330 C   0  0  2  0  0  3  0  0  0  0  0  0
  192.5430  174.9940  135.6380 O   0  0  0  0  0  0  0  0  0  0  0  0
  189.6140  173.9260  135.4590 O   0  0  0  0  0  1  0  0  0  0  0  0
  191.9400  174.0310  134.8260 C   0  0  1  0  0  3  0  0  0  0  0  0
  192.1270  176.1460  135.1280 O   0  0  0  0  0  0  0  0  0  0  0  0
  192.0510  172.6440  135.4320 C   0  0  0  0  0  3  0  0  0  0  0  0
  191.9630  171.6290  134.7440 O   0  0  0  0  0  0  0  0  0  0  0  0
  190.6290  176.3530  137.4970 C   0  0  0  0  0  3  0  0  0  0  0  0
  190.2630  177.3490  138.4120 O   0  0  0  0  0  1  0  0  0  0  0  0
  190.3480  175.0930  138.0270 O   0  0  0  0  0  1  0  0  0  0  0  0
  181.2670  176.8210  138.0580 C   0  0  0  0  0  2  0  0  0  0  0  0
  180.5740  176.4860  136.7460 C   0  0  2  0  0  3  0  0  0  0  0  0
  179.6800  177.6230  136.3050 C   0  0  0  0  0  2  0  0  0  0  0  0
  180.2730  178.3350  135.1080 C   0  0  0  0  0  1  0  0  0  0  0  0
  179.7670  175.2060  136.9020 C   0  0  0  0  0  2  0  0  0  0  0  0
  179.0740  175.2520  138.1840 N   0  0  0  0  0  2  0  0  0  0  0  0
  179.2620  173.9470  138.7960 C   0  0  0  0  0  1  0  0  0  0  0  0
  1 31  1  6  0  0  0
  1  3  1  0  0  0  0
  3  2  1  0  0  0  0
  4  2  1  0  0  0  0
  5  7  1  0  0  0  0
  6 39  1  6  0  0  0
  6  5  1  0  0  0  0
  6  1  1  0  0  0  0
  7  8  1  6  0  0  0
  7  4  1  0  0  0  0
  8  9  1  0  0  0  0
  9 12  1  0  0  0  0
 10  8  2  0  0  0  0
 11 12  1  0  0  0  0
 11 14  1  0  0  0  0
 13 11  2  0  0  0  0
 14 16  1  0  0  0  0
 15 17  1  0  0  0  0
 15 28  1  0  0  0  0
 16 18  1  0  0  0  0
 16 19  1  0  0  0  0
 19 15  2  0  0  0  0
 20 18  1  6  0  0  0
 20 21  1  0  0  0  0
 20 17  1  0  0  0  0
 21 24  1  0  0  0  0
 22 25  1  0  0  0  0
 23 22  1  0  0  0  0
 23 21  1  0  0  0  0
 25 24  1  0  0  0  0
 28 26  1  0  0  0  0
 28 27  2  0  0  0  0
 29 19  1  0  0  0  0
 30 29  1  0  0  0  0
 32 31  2  0  0  0  0
 33 31  1  0  0  0  0
 34 33  1  0  0  0  0
 36 37  1  0  0  0  0
 37 34  1  1  0  0  0
 38 35  1  6  0  0  0
 38 36  1  0  0  0  0
 38 37  1  0  0  0  0
 39 41  1  6  0  0  0
 39 60  1  0  0  0  0
 41 40  2  0  0  0  0
 42 44  1  0  0  0  0
 42 43  1  0  0  0  0
 43 45  1  0  0  0  0
 44 47  1  0  0  0  0
 46 43  2  0  0  0  0
 46 40  1  0  0  0  0
 47 45  1  0  0  0  0
 48 44  1  0  0  0  0
 48 57  1  1  0  0  0
 49 53  1  0  0  0  0
 49 50  1  0  0  0  0
 49 52  1  1  0  0  0
 50 54  1  0  0  0  0
 50 48  1  1  0  0  0
 53 55  1  1  0  0  0
 53 51  1  0  0  0  0
 54 51  1  0  0  0  0
 56 55  2  0  0  0  0
 57 59  1  0  0  0  0
 57 58  1  0  0  0  0
 61 62  1  1  0  0  0
 61 64  1  0  0  0  0
 61 60  1  0  0  0  0
 63 62  1  0  0  0  0
 64 65  1  0  0  0  0
 65 66  1  0  0  0  0
M  END
>  <MODEL>
9

>  <REMARK>
 VINA RESULT:      -2.7      2.584      8.248
  Name = 
  23 active torsions:
  status: ('A' for Active; 'I' for Inactive)
    1  A    between atoms: C_1  and  C_11
    2  A    between atoms: N_2  and  C_52
    3  A    between atoms: C_3  and  C_49
    4  A    between atoms: C_4  and  C_11
    5  A    between atoms: C_4  and  C_14
    6  A    between atoms: C_7  and  C_64
    7  A    between atoms: C_9  and  C_45
    8  A    between atoms: C_14  and  C_32
    9  A    between atoms: O_15  and  C_44
   10  A    between atoms: C_18  and  N_20
   11  A    between atoms: C_18  and  C_22
   12  A    between atoms: C_19  and  C_54
   13  A    between atoms: C_21  and  C_25
   14  A    between atoms: C_21  and  C_52
   15  A    between atoms: C_21  and  C_55
   16  A    between atoms: N_24  and  C_48
   17  A    between atoms: C_25  and  C_63
   18  A    between atoms: N_28  and  C_45
   19  A    between atoms: N_30  and  N_53
   20  A    between atoms: C_38  and  C_60
   21  A    between atoms: C_43  and  C_63
   22  A    between atoms: C_45  and  C_46
   23  A    between atoms: C_47  and  C_63
                            x       y       z     vdW  Elec       q    Type
                         _______ _______ _______ _____ _____    ______ ____

>  <TORSDO>
F 23

$$$$
