=
 OpenBabel11032421183D

 52 60  0  0  1  0  0  0  0  0999 V2000
  186.6690  178.4080  139.9720 C   0  0  0  0  0  0  0  0  0  0  0  0
  187.2700  177.7560  143.5660 O   0  0  0  0  0  0  0  0  0  0  0  0
  187.2940  177.9450  141.1610 C   0  0  0  0  0  0  0  0  0  0  0  0
  187.4390  178.5180  138.7130 C   0  0  0  0  0  0  0  0  0  0  0  0
  183.1560  178.8870  141.2240 C   0  0  0  0  0  0  0  0  0  0  0  0
  183.1830  178.6850  143.6450 C   0  0  0  0  0  3  0  0  0  0  0  0
  185.2150  178.1490  144.9420 C   0  0  0  0  0  3  0  0  0  0  0  0
  188.7620  177.5790  141.2390 C   0  0  0  0  0  2  0  0  0  0  0  0
  186.6890  177.9730  144.8140 C   0  0  0  0  0  0  0  0  0  0  0  0
  187.4190  178.0170  145.8810 N   0  0  0  0  0  2  0  0  0  0  0  0
  188.9470  178.1150  137.2690 C   0  0  0  0  0  0  0  0  0  0  0  0
  185.2960  178.7250  139.9800 C   0  0  0  0  0  0  0  0  0  0  0  0
  189.1820  176.5250  140.3120 N   0  0  0  0  0  2  0  0  0  0  0  0
  184.5540  178.6690  141.1850 C   0  0  0  0  0  0  0  0  0  0  0  0
  184.6820  179.0900  138.7840 O   0  0  0  0  0  1  0  0  0  0  0  0
  185.2400  178.3830  142.3950 C   0  0  0  0  0  0  0  0  0  0  0  0
  182.4950  178.9000  142.4580 C   0  0  0  0  0  3  0  0  0  0  0  0
  184.5530  178.4350  143.6250 C   0  0  0  0  0  0  0  0  0  0  0  0
  188.3990  179.2480  136.7930 N   0  0  0  0  0  0  0  0  0  0  0  0
  190.1350  177.5460  136.9890 N   0  0  0  0  0  0  0  0  0  0  0  0
  188.3970  177.6850  138.3640 N   0  0  0  0  0  0  0  0  0  0  0  0
  189.1720  176.7700  138.9080 C   0  0  1  0  0  3  0  0  0  0  0  0
  186.5950  178.0170  142.3720 C   0  0  0  0  0  0  0  0  0  0  0  0
  190.2580  176.6610  138.0310 C   0  0  0  0  0  0  0  0  0  0  0  0
  187.4080  179.5000  137.7120 C   0  0  0  0  0  3  0  0  0  0  0  0
  190.6270  177.1940  144.6150 C   0  0  2  0  0  3  0  0  0  0  0  0
  191.5450  177.3820  145.8520 C   0  0  0  0  0  2  0  0  0  0  0  0
  188.8760  177.9480  145.8360 C   0  0  2  0  0  3  0  0  0  0  0  0
  189.2810  176.9160  144.9690 O   0  0  0  0  0  0  0  0  0  0  0  0
  189.4370  177.6710  147.2360 C   0  0  0  0  0  2  0  0  0  0  0  0
  190.8260  177.0160  147.1550 C   0  0  0  0  0  2  0  0  0  0  0  0
  190.0040  175.2960  143.0820 C   0  0  0  0  0  1  0  0  0  0  0  0
  191.9300  176.7460  142.5020 C   0  0  0  0  0  1  0  0  0  0  0  0
  192.0720  175.1710  144.4000 C   0  0  0  0  0  1  0  0  0  0  0  0
  191.1530  176.1150  143.6500 C   0  0  0  0  0  0  0  0  0  0  0  0
  181.7270  177.8660  139.3790 C   0  0  0  0  0  0  0  0  0  0  0  0
  181.1190  178.0550  138.1000 N   0  0  0  0  0  2  0  0  0  0  0  0
  182.3870  178.9710  140.0130 N   0  0  0  0  0  2  0  0  0  0  0  0
  181.7170  176.7230  139.9150 O   0  0  0  0  0  0  0  0  0  0  0  0
  180.5710  176.9350  137.3490 C   0  0  0  0  0  2  0  0  0  0  0  0
  181.5380  176.4530  136.2520 C   0  0  1  0  0  3  0  0  0  0  0  0
  183.6000  175.4020  134.5980 C   0  0  0  0  0  2  0  0  0  0  0  0
  183.6350  176.8990  134.9260 C   0  0  0  0  0  2  0  0  0  0  0  0
  182.8470  177.2520  136.1930 C   0  0  0  0  0  2  0  0  0  0  0  0
  183.0740  174.5840  135.7750 C   0  0  0  0  0  2  0  0  0  0  0  0
  181.6930  174.9720  136.0980 N   0  0  1  0  0  0  0  0  0  0  0  0
  181.2920  174.2190  137.2890 C   0  0  0  0  0  3  0  0  0  0  0  0
  180.1400  173.2920  136.9370 C   0  0  0  0  0  2  0  0  0  0  0  0
  181.5350  172.7340  137.0780 C   0  0  0  0  0  2  0  0  0  0  0  0
  191.4420  175.8180  138.2320 C   0  0  0  0  0  0  0  0  0  0  0  0
  192.7000  176.4070  138.5370 N   0  0  0  0  0  1  0  0  0  0  0  0
  191.3580  174.5750  138.0820 O   0  0  0  0  0  0  0  0  0  0  0  0
  1 12  2  0  0  0  0
  1  3  1  0  0  0  0
  2  9  1  0  0  0  0
  3  8  1  0  0  0  0
  3 23  2  0  0  0  0
  4  1  1  0  0  0  0
  5 17  1  0  0  0  0
  9  7  2  0  0  0  0
  9 10  1  0  0  0  0
 11 21  1  0  0  0  0
 12 14  1  0  0  0  0
 13  8  1  0  0  0  0
 14  5  2  0  0  0  0
 14 16  1  0  0  0  0
 15 12  1  0  0  0  0
 16 18  2  0  0  0  0
 17  6  2  0  0  0  0
 18  6  1  0  0  0  0
 18  7  1  0  0  0  0
 19 11  2  0  0  0  0
 19 25  1  0  0  0  0
 20 11  1  0  0  0  0
 20 24  2  0  0  0  0
 21  4  1  0  0  0  0
 21 22  1  0  0  0  0
 22 24  1  1  0  0  0
 22 13  1  0  0  0  0
 23 16  1  0  0  0  0
 23  2  1  0  0  0  0
 24 50  1  0  0  0  0
 25  4  2  0  0  0  0
 26 35  1  6  0  0  0
 26 29  1  0  0  0  0
 26 27  1  0  0  0  0
 27 31  1  0  0  0  0
 28 10  1  1  0  0  0
 28 30  1  0  0  0  0
 29 28  1  0  0  0  0
 31 30  1  0  0  0  0
 32 35  1  0  0  0  0
 33 35  1  0  0  0  0
 35 34  1  0  0  0  0
 36 39  2  0  0  0  0
 36 38  1  0  0  0  0
 37 36  1  0  0  0  0
 38  5  1  0  0  0  0
 40 37  1  0  0  0  0
 41 40  1  1  0  0  0
 42 43  1  0  0  0  0
 42 45  1  0  0  0  0
 43 44  1  0  0  0  0
 44 41  1  0  0  0  0
 45 46  1  0  0  0  0
 46 41  1  0  0  0  0
 46 47  1  1  0  0  0
 48 49  1  0  0  0  0
 48 47  1  0  0  0  0
 49 47  1  0  0  0  0
 50 51  1  0  0  0  0
 52 50  2  0  0  0  0
M  END
>  <MODEL>
1

>  <REMARK>
 VINA RESULT:      -9.0      0.000      0.000
  Name = 
  7 active torsions:
  status: ('A' for Active; 'I' for Inactive)
    1  A    between atoms: C_5  and  C_29
    2  A    between atoms: C_6  and  N_45
    3  A    between atoms: C_9  and  C_28
    4  A    between atoms: N_10  and  C_28
    5  A    between atoms: C_12  and  N_23
    6  A    between atoms: C_13  and  C_51
    7  A    between atoms: C_14  and  N_24
                            x       y       z     vdW  Elec       q    Type
                         _______ _______ _______ _____ _____    ______ ____

>  <TORSDO>
F 7

$$$$
=
 OpenBabel11032421183D

 52 60  0  0  1  0  0  0  0  0999 V2000
  190.4040  177.5490  141.1940 C   0  0  0  0  0  0  0  0  0  0  0  0
  187.2980  177.2190  139.2050 O   0  0  0  0  0  0  0  0  0  0  0  0
  189.0280  177.3840  140.8800 C   0  0  0  0  0  0  0  0  0  0  0  0
  190.8190  177.9480  142.5570 C   0  0  0  0  0  0  0  0  0  0  0  0
  191.9460  176.5950  137.9000 C   0  0  0  0  0  0  0  0  0  0  0  0
  190.1690  176.4400  136.2510 C   0  0  0  0  0  3  0  0  0  0  0  0
  187.7820  176.7700  136.7890 C   0  0  0  0  0  3  0  0  0  0  0  0
  187.9130  177.6340  141.8730 C   0  0  0  0  0  2  0  0  0  0  0  0
  186.8630  177.1960  137.8820 C   0  0  0  0  0  0  0  0  0  0  0  0
  185.6500  177.5360  137.5830 N   0  0  0  0  0  2  0  0  0  0  0  0
  190.7370  178.1690  144.6710 C   0  0  0  0  0  0  0  0  0  0  0  0
  191.3820  177.2920  140.2140 C   0  0  0  0  0  0  0  0  0  0  0  0
  187.9860  176.8290  143.0960 N   0  0  0  0  0  2  0  0  0  0  0  0
  191.0020  176.9540  138.8930 C   0  0  0  0  0  0  0  0  0  0  0  0
  192.7270  177.3730  140.5670 O   0  0  0  0  0  1  0  0  0  0  0  0
  189.6220  176.9740  138.5540 C   0  0  0  0  0  0  0  0  0  0  0  0
  191.5130  176.3530  136.5920 C   0  0  0  0  0  3  0  0  0  0  0  0
  189.2200  176.7580  137.2200 C   0  0  0  0  0  0  0  0  0  0  0  0
  191.7550  178.9860  144.3430 N   0  0  0  0  0  0  0  0  0  0  0  0
  189.9960  178.1190  145.7950 N   0  0  0  0  0  0  0  0  0  0  0  0
  190.2010  177.5640  143.6550 N   0  0  0  0  0  0  0  0  0  0  0  0
  189.0500  177.0380  144.0210 C   0  0  1  0  0  3  0  0  0  0  0  0
  188.6520  177.1800  139.5460 C   0  0  0  0  0  0  0  0  0  0  0  0
  188.9290  177.3650  145.3770 C   0  0  0  0  0  0  0  0  0  0  0  0
  191.8270  178.8280  142.9790 C   0  0  0  0  0  3  0  0  0  0  0  0
  182.7460  177.6410  139.6130 C   0  0  2  0  0  3  0  0  0  0  0  0
  182.7030  179.1210  140.0780 C   0  0  0  0  0  2  0  0  0  0  0  0
  184.7150  178.0540  138.5760 C   0  0  2  0  0  3  0  0  0  0  0  0
  183.4470  177.4710  138.3910 O   0  0  0  0  0  0  0  0  0  0  0  0
  184.5870  179.5760  138.4390 C   0  0  0  0  0  2  0  0  0  0  0  0
  183.2460  180.0710  139.0050 C   0  0  0  0  0  2  0  0  0  0  0  0
  181.4270  175.4980  139.5130 C   0  0  0  0  0  1  0  0  0  0  0  0
  180.4580  177.4710  140.6610 C   0  0  0  0  0  1  0  0  0  0  0  0
  180.6970  177.4410  138.2020 C   0  0  0  0  0  1  0  0  0  0  0  0
  181.3420  177.0160  139.5070 C   0  0  0  0  0  0  0  0  0  0  0  0
  193.9830  175.0870  138.1490 C   0  0  0  0  0  0  0  0  0  0  0  0
  195.3110  174.9520  138.6600 N   0  0  0  0  0  2  0  0  0  0  0  0
  193.3210  176.3560  138.2420 N   0  0  0  0  0  2  0  0  0  0  0  0
  193.3920  174.0820  137.6670 O   0  0  0  0  0  0  0  0  0  0  0  0
  195.9680  173.6540  138.7280 C   0  0  0  0  0  2  0  0  0  0  0  0
  196.8580  173.3960  137.5000 C   0  0  1  0  0  3  0  0  0  0  0  0
  198.7140  172.5730  135.5070 C   0  0  0  0  0  2  0  0  0  0  0  0
  199.0740  173.7910  136.3640 C   0  0  0  0  0  2  0  0  0  0  0  0
  198.3170  173.8300  137.6960 C   0  0  0  0  0  2  0  0  0  0  0  0
  197.9480  171.5270  136.3150 C   0  0  0  0  0  2  0  0  0  0  0  0
  196.6770  172.0830  136.8050 N   0  0  1  0  0  0  0  0  0  0  0  0
  196.0470  171.0620  137.6460 C   0  0  0  0  0  3  0  0  0  0  0  0
  194.7310  170.6310  137.0180 C   0  0  0  0  0  2  0  0  0  0  0  0
  195.9480  169.7470  136.8920 C   0  0  0  0  0  2  0  0  0  0  0  0
  187.7740  177.0660  146.2310 C   0  0  0  0  0  0  0  0  0  0  0  0
  186.4520  177.2980  145.7590 N   0  0  0  0  0  1  0  0  0  0  0  0
  187.9520  176.6550  147.4030 O   0  0  0  0  0  0  0  0  0  0  0  0
  1  4  1  0  0  0  0
  2 23  1  0  0  0  0
  3  1  1  0  0  0  0
  3  8  1  0  0  0  0
  4 25  2  0  0  0  0
  4 21  1  0  0  0  0
  5 38  1  0  0  0  0
  5 14  1  0  0  0  0
  6 17  1  0  0  0  0
  6 18  2  0  0  0  0
  7 18  1  0  0  0  0
  7  9  2  0  0  0  0
  8 13  1  0  0  0  0
  9  2  1  0  0  0  0
 10  9  1  0  0  0  0
 11 20  1  0  0  0  0
 12 15  1  0  0  0  0
 12  1  2  0  0  0  0
 14 12  1  0  0  0  0
 16 14  2  0  0  0  0
 16 23  1  0  0  0  0
 17  5  2  0  0  0  0
 18 16  1  0  0  0  0
 19 11  2  0  0  0  0
 21 22  1  0  0  0  0
 21 11  1  0  0  0  0
 22 13  1  6  0  0  0
 22 24  1  0  0  0  0
 23  3  2  0  0  0  0
 24 20  2  0  0  0  0
 24 50  1  0  0  0  0
 25 19  1  0  0  0  0
 26 35  1  6  0  0  0
 26 27  1  0  0  0  0
 28 10  1  6  0  0  0
 29 28  1  0  0  0  0
 29 26  1  0  0  0  0
 30 28  1  0  0  0  0
 30 31  1  0  0  0  0
 31 27  1  0  0  0  0
 34 35  1  0  0  0  0
 35 32  1  0  0  0  0
 35 33  1  0  0  0  0
 36 38  1  0  0  0  0
 36 37  1  0  0  0  0
 37 40  1  0  0  0  0
 39 36  2  0  0  0  0
 41 44  1  0  0  0  0
 41 40  1  1  0  0  0
 42 45  1  0  0  0  0
 42 43  1  0  0  0  0
 43 44  1  0  0  0  0
 45 46  1  0  0  0  0
 46 41  1  0  0  0  0
 46 47  1  1  0  0  0
 48 47  1  0  0  0  0
 49 48  1  0  0  0  0
 49 47  1  0  0  0  0
 50 52  2  0  0  0  0
 51 50  1  0  0  0  0
M  END
>  <MODEL>
2

>  <REMARK>
 VINA RESULT:      -8.5      3.620     10.395
  Name = 
  7 active torsions:
  status: ('A' for Active; 'I' for Inactive)
    1  A    between atoms: C_5  and  C_29
    2  A    between atoms: C_6  and  N_45
    3  A    between atoms: C_9  and  C_28
    4  A    between atoms: N_10  and  C_28
    5  A    between atoms: C_12  and  N_23
    6  A    between atoms: C_13  and  C_51
    7  A    between atoms: C_14  and  N_24
                            x       y       z     vdW  Elec       q    Type
                         _______ _______ _______ _____ _____    ______ ____

>  <TORSDO>
F 7

$$$$
=
 OpenBabel11032421183D

 52 60  0  0  1  0  0  0  0  0999 V2000
  188.2490  177.1730  139.0400 C   0  0  0  0  0  0  0  0  0  0  0  0
  188.6480  177.8600  142.6570 O   0  0  0  0  0  0  0  0  0  0  0  0
  187.9520  177.6080  140.3600 C   0  0  0  0  0  0  0  0  0  0  0  0
  187.1640  176.9610  138.0580 C   0  0  0  0  0  0  0  0  0  0  0  0
  192.0030  177.0450  139.2250 C   0  0  0  0  0  0  0  0  0  0  0  0
  192.6530  177.3050  141.5520 C   0  0  0  0  0  3  0  0  0  0  0  0
  191.0400  177.6890  143.3800 C   0  0  0  0  0  3  0  0  0  0  0  0
  186.5410  177.8420  140.8590 C   0  0  0  0  0  2  0  0  0  0  0  0
  189.5810  177.7280  143.6830 C   0  0  0  0  0  0  0  0  0  0  0  0
  189.1960  177.6460  144.9160 N   0  0  0  0  0  2  0  0  0  0  0  0
  185.2730  177.1900  137.1100 C   0  0  0  0  0  0  0  0  0  0  0  0
  189.5900  176.9810  138.6510 C   0  0  0  0  0  0  0  0  0  0  0  0
  185.7750  178.8300  140.0940 N   0  0  0  0  0  2  0  0  0  0  0  0
  190.6380  177.1350  139.5910 C   0  0  0  0  0  0  0  0  0  0  0  0
  189.8660  176.6420  137.3290 O   0  0  0  0  0  1  0  0  0  0  0  0
  190.3050  177.3890  140.9490 C   0  0  0  0  0  0  0  0  0  0  0  0
  192.9880  177.1230  140.2160 C   0  0  0  0  0  3  0  0  0  0  0  0
  191.3190  177.4300  141.9280 C   0  0  0  0  0  0  0  0  0  0  0  0
  185.7660  176.0990  136.4950 N   0  0  0  0  0  0  0  0  0  0  0  0
  184.0070  177.6430  137.1860 N   0  0  0  0  0  0  0  0  0  0  0  0
  186.0720  177.6950  138.0000 N   0  0  0  0  0  0  0  0  0  0  0  0
  185.4040  178.5510  138.7460 C   0  0  1  0  0  3  0  0  0  0  0  0
  188.9730  177.6300  141.3180 C   0  0  0  0  0  0  0  0  0  0  0  0
  184.1070  178.5390  138.2200 C   0  0  0  0  0  0  0  0  0  0  0  0
  186.9980  175.9610  137.0880 C   0  0  0  0  0  3  0  0  0  0  0  0
  185.6920  178.0880  144.6020 C   0  0  2  0  0  3  0  0  0  0  0  0
  185.1900  177.9090  146.0590 C   0  0  0  0  0  2  0  0  0  0  0  0
  187.7870  177.5820  145.2930 C   0  0  2  0  0  3  0  0  0  0  0  0
  187.0460  178.5100  144.5370 O   0  0  0  0  0  0  0  0  0  0  0  0
  187.6230  177.9090  146.7820 C   0  0  0  0  0  2  0  0  0  0  0  0
  186.2070  178.4300  147.0800 C   0  0  0  0  0  2  0  0  0  0  0  0
  185.6300  180.1750  143.1940 C   0  0  0  0  0  1  0  0  0  0  0  0
  184.0970  178.3010  142.6600 C   0  0  0  0  0  1  0  0  0  0  0  0
  183.7560  179.6600  144.6940 C   0  0  0  0  0  1  0  0  0  0  0  0
  184.8020  179.0450  143.7860 C   0  0  0  0  0  0  0  0  0  0  0  0
  192.7640  175.8100  137.1320 C   0  0  0  0  0  0  0  0  0  0  0  0
  193.2770  175.9210  135.8030 N   0  0  0  0  0  2  0  0  0  0  0  0
  192.3960  177.0000  137.8440 N   0  0  0  0  0  2  0  0  0  0  0  0
  192.6840  174.6760  137.6800 O   0  0  0  0  0  0  0  0  0  0  0  0
  193.8060  174.7630  135.0960 C   0  0  0  0  0  2  0  0  0  0  0  0
  195.3340  174.8400  134.9320 C   0  0  1  0  0  3  0  0  0  0  0  0
  198.1630  175.0790  135.1100 C   0  0  0  0  0  2  0  0  0  0  0  0
  197.3670  176.3040  134.6480 C   0  0  0  0  0  2  0  0  0  0  0  0
  195.8970  176.2600  135.0810 C   0  0  0  0  0  2  0  0  0  0  0  0
  197.3980  174.2780  136.1610 C   0  0  0  0  0  2  0  0  0  0  0  0
  196.1360  173.7680  135.6020 N   0  0  1  0  0  0  0  0  0  0  0  0
  195.4150  173.0970  136.6870 C   0  0  0  0  0  3  0  0  0  0  0  0
  195.3760  171.6010  136.4180 C   0  0  0  0  0  2  0  0  0  0  0  0
  196.3460  172.1550  137.4320 C   0  0  0  0  0  2  0  0  0  0  0  0
  182.9570  179.2770  138.7560 C   0  0  0  0  0  0  0  0  0  0  0  0
  181.8700  178.5790  139.3520 N   0  0  0  0  0  1  0  0  0  0  0  0
  182.9050  180.5250  138.6400 O   0  0  0  0  0  0  0  0  0  0  0  0
  1  3  1  0  0  0  0
  2  9  1  0  0  0  0
  3  8  1  0  0  0  0
  3 23  2  0  0  0  0
  4  1  1  0  0  0  0
  5 14  2  0  0  0  0
  5 17  1  0  0  0  0
  6 18  1  0  0  0  0
  7  9  2  0  0  0  0
  9 10  1  0  0  0  0
 11 20  1  0  0  0  0
 11 21  1  0  0  0  0
 12  1  2  0  0  0  0
 12 14  1  0  0  0  0
 13  8  1  0  0  0  0
 14 16  1  0  0  0  0
 15 12  1  0  0  0  0
 16 23  1  0  0  0  0
 16 18  2  0  0  0  0
 17  6  2  0  0  0  0
 18  7  1  0  0  0  0
 19 25  1  0  0  0  0
 19 11  2  0  0  0  0
 20 24  2  0  0  0  0
 21  4  1  0  0  0  0
 21 22  1  0  0  0  0
 22 24  1  1  0  0  0
 22 13  1  0  0  0  0
 23  2  1  0  0  0  0
 24 50  1  0  0  0  0
 25  4  2  0  0  0  0
 26 35  1  1  0  0  0
 26 27  1  0  0  0  0
 27 31  1  0  0  0  0
 28 10  1  6  0  0  0
 28 30  1  0  0  0  0
 29 26  1  0  0  0  0
 29 28  1  0  0  0  0
 30 31  1  0  0  0  0
 32 35  1  0  0  0  0
 33 35  1  0  0  0  0
 35 34  1  0  0  0  0
 36 39  2  0  0  0  0
 36 38  1  0  0  0  0
 37 36  1  0  0  0  0
 38  5  1  0  0  0  0
 40 37  1  0  0  0  0
 41 44  1  0  0  0  0
 41 40  1  1  0  0  0
 41 46  1  0  0  0  0
 42 45  1  0  0  0  0
 43 44  1  0  0  0  0
 43 42  1  0  0  0  0
 46 45  1  0  0  0  0
 46 47  1  1  0  0  0
 47 49  1  0  0  0  0
 48 47  1  0  0  0  0
 48 49  1  0  0  0  0
 50 51  1  0  0  0  0
 52 50  2  0  0  0  0
M  END
>  <MODEL>
3

>  <REMARK>
 VINA RESULT:      -7.7      3.082      8.693
  Name = 
  7 active torsions:
  status: ('A' for Active; 'I' for Inactive)
    1  A    between atoms: C_5  and  C_29
    2  A    between atoms: C_6  and  N_45
    3  A    between atoms: C_9  and  C_28
    4  A    between atoms: N_10  and  C_28
    5  A    between atoms: C_12  and  N_23
    6  A    between atoms: C_13  and  C_51
    7  A    between atoms: C_14  and  N_24
                            x       y       z     vdW  Elec       q    Type
                         _______ _______ _______ _____ _____    ______ ____

>  <TORSDO>
F 7

$$$$
=
 OpenBabel11032421183D

 52 60  0  0  1  0  0  0  0  0999 V2000
  188.9980  176.6610  138.4940 C   0  0  0  0  0  0  0  0  0  0  0  0
  189.8510  178.0830  141.8050 O   0  0  0  0  0  0  0  0  0  0  0  0
  188.8750  177.3830  139.7120 C   0  0  0  0  0  0  0  0  0  0  0  0
  187.7950  176.3030  137.7100 C   0  0  0  0  0  0  0  0  0  0  0  0
  192.7410  176.3740  138.2800 C   0  0  0  0  0  0  0  0  0  0  0  0
  193.6760  177.0900  140.4050 C   0  0  0  0  0  3  0  0  0  0  0  0
  192.3070  177.9420  142.2750 C   0  0  0  0  0  3  0  0  0  0  0  0
  187.5420  177.7940  140.3030 C   0  0  0  0  0  2  0  0  0  0  0  0
  190.8980  178.1240  142.7240 C   0  0  0  0  0  0  0  0  0  0  0  0
  190.6630  178.3270  143.9800 N   0  0  0  0  0  2  0  0  0  0  0  0
  185.8110  176.4250  136.9540 C   0  0  0  0  0  0  0  0  0  0  0  0
  190.2750  176.3190  138.0090 C   0  0  0  0  0  0  0  0  0  0  0  0
  186.7170  178.6350  139.4320 N   0  0  0  0  0  2  0  0  0  0  0  0
  191.4330  176.6130  138.7690 C   0  0  0  0  0  0  0  0  0  0  0  0
  190.3790  175.6910  136.7700 O   0  0  0  0  0  1  0  0  0  0  0  0
  191.2750  177.1690  140.0660 C   0  0  0  0  0  0  0  0  0  0  0  0
  193.8410  176.6090  139.1130 C   0  0  0  0  0  3  0  0  0  0  0  0
  192.4000  177.3640  140.8930 C   0  0  0  0  0  0  0  0  0  0  0  0
  186.1940  175.2030  136.5410 N   0  0  0  0  0  0  0  0  0  0  0  0
  184.5770  176.9510  137.0710 N   0  0  0  0  0  0  0  0  0  0  0  0
  186.7260  177.0650  137.6170 N   0  0  0  0  0  0  0  0  0  0  0  0
  186.1780  178.0950  138.2280 C   0  0  1  0  0  3  0  0  0  0  0  0
  190.0050  177.5550  140.5210 C   0  0  0  0  0  0  0  0  0  0  0  0
  184.8260  178.0410  137.8660 C   0  0  0  0  0  0  0  0  0  0  0  0
  187.4850  175.1290  137.0070 C   0  0  0  0  0  3  0  0  0  0  0  0
  188.1130  178.4860  146.4380 C   0  0  2  0  0  3  0  0  0  0  0  0
  186.8300  178.1600  145.6270 C   0  0  0  0  0  2  0  0  0  0  0  0
  189.3090  178.4210  144.5180 C   0  0  2  0  0  3  0  0  0  0  0  0
  189.2860  177.9520  145.8450 O   0  0  0  0  0  0  0  0  0  0  0  0
  188.3450  177.5770  143.6750 C   0  0  0  0  0  2  0  0  0  0  0  0
  187.1110  177.1660  144.4950 C   0  0  0  0  0  2  0  0  0  0  0  0
  189.1440  178.6240  148.7310 C   0  0  0  0  0  1  0  0  0  0  0  0
  186.6800  178.4550  148.5140 C   0  0  0  0  0  1  0  0  0  0  0  0
  188.1220  176.5230  147.9780 C   0  0  0  0  0  1  0  0  0  0  0  0
  188.0110  178.0330  147.9070 C   0  0  0  0  0  0  0  0  0  0  0  0
  193.6450  174.8320  136.4660 C   0  0  0  0  0  0  0  0  0  0  0  0
  193.9280  174.6650  135.0760 N   0  0  0  0  0  2  0  0  0  0  0  0
  192.9620  176.0130  136.9070 N   0  0  0  0  0  2  0  0  0  0  0  0
  194.0370  173.9630  137.2940 O   0  0  0  0  0  0  0  0  0  0  0  0
  194.7490  173.5620  134.5970 C   0  0  0  0  0  2  0  0  0  0  0  0
  196.2480  173.9060  134.6310 C   0  0  1  0  0  3  0  0  0  0  0  0
  198.9610  174.5620  135.1800 C   0  0  0  0  0  2  0  0  0  0  0  0
  198.0100  175.7020  134.7980 C   0  0  0  0  0  2  0  0  0  0  0  0
  196.5360  175.3570  135.0410 C   0  0  0  0  0  2  0  0  0  0  0  0
  198.2510  173.4950  136.0110 C   0  0  0  0  0  2  0  0  0  0  0  0
  197.1570  172.8850  135.2390 N   0  0  1  0  0  0  0  0  0  0  0  0
  196.4650  171.9460  136.1270 C   0  0  0  0  0  3  0  0  0  0  0  0
  197.3350  170.7180  136.3400 C   0  0  0  0  0  2  0  0  0  0  0  0
  197.2470  171.7700  137.4170 C   0  0  0  0  0  2  0  0  0  0  0  0
  183.7710  178.9370  138.3530 C   0  0  0  0  0  0  0  0  0  0  0  0
  182.4050  178.5480  138.2750 N   0  0  0  0  0  1  0  0  0  0  0  0
  184.0690  180.0750  138.7910 O   0  0  0  0  0  0  0  0  0  0  0  0
  1  3  1  0  0  0  0
  2  9  1  0  0  0  0
  3  8  1  0  0  0  0
  3 23  2  0  0  0  0
  4  1  1  0  0  0  0
  5 14  2  0  0  0  0
  5 17  1  0  0  0  0
  6 18  1  0  0  0  0
  7  9  2  0  0  0  0
  9 10  1  0  0  0  0
 11 20  1  0  0  0  0
 11 21  1  0  0  0  0
 12  1  2  0  0  0  0
 12 14  1  0  0  0  0
 13  8  1  0  0  0  0
 14 16  1  0  0  0  0
 15 12  1  0  0  0  0
 16 23  1  0  0  0  0
 16 18  2  0  0  0  0
 17  6  2  0  0  0  0
 18  7  1  0  0  0  0
 19 11  2  0  0  0  0
 19 25  1  0  0  0  0
 20 24  2  0  0  0  0
 21  4  1  0  0  0  0
 21 22  1  0  0  0  0
 22 24  1  1  0  0  0
 22 13  1  0  0  0  0
 23  2  1  0  0  0  0
 24 50  1  0  0  0  0
 25  4  2  0  0  0  0
 26 35  1  1  0  0  0
 27 26  1  0  0  0  0
 28 10  1  6  0  0  0
 28 29  1  0  0  0  0
 29 26  1  0  0  0  0
 30 31  1  0  0  0  0
 30 28  1  0  0  0  0
 31 27  1  0  0  0  0
 35 34  1  0  0  0  0
 35 33  1  0  0  0  0
 35 32  1  0  0  0  0
 36 38  1  0  0  0  0
 36 39  2  0  0  0  0
 37 36  1  0  0  0  0
 38  5  1  0  0  0  0
 40 37  1  0  0  0  0
 41 40  1  1  0  0  0
 41 44  1  0  0  0  0
 41 46  1  0  0  0  0
 42 45  1  0  0  0  0
 43 44  1  0  0  0  0
 43 42  1  0  0  0  0
 46 45  1  0  0  0  0
 46 47  1  1  0  0  0
 47 48  1  0  0  0  0
 47 49  1  0  0  0  0
 48 49  1  0  0  0  0
 50 52  2  0  0  0  0
 51 50  1  0  0  0  0
M  END
>  <MODEL>
4

>  <REMARK>
 VINA RESULT:      -6.8      3.644      9.208
  Name = 
  7 active torsions:
  status: ('A' for Active; 'I' for Inactive)
    1  A    between atoms: C_5  and  C_29
    2  A    between atoms: C_6  and  N_45
    3  A    between atoms: C_9  and  C_28
    4  A    between atoms: N_10  and  C_28
    5  A    between atoms: C_12  and  N_23
    6  A    between atoms: C_13  and  C_51
    7  A    between atoms: C_14  and  N_24
                            x       y       z     vdW  Elec       q    Type
                         _______ _______ _______ _____ _____    ______ ____

>  <TORSDO>
F 7

$$$$
=
 OpenBabel11032421183D

 52 60  0  0  1  0  0  0  0  0999 V2000
  189.2210  177.8880  141.0490 C   0  0  0  0  0  0  0  0  0  0  0  0
  185.9490  177.9080  139.3170 O   0  0  0  0  0  0  0  0  0  0  0  0
  187.8140  177.8560  140.8460 C   0  0  0  0  0  0  0  0  0  0  0  0
  189.7780  178.1980  142.3850 C   0  0  0  0  0  0  0  0  0  0  0  0
  190.4000  176.9240  137.6120 C   0  0  0  0  0  0  0  0  0  0  0  0
  188.4900  176.9880  136.1120 C   0  0  0  0  0  3  0  0  0  0  0  0
  186.1940  177.5070  136.8570 C   0  0  0  0  0  3  0  0  0  0  0  0
  186.8100  178.1680  141.9360 C   0  0  0  0  0  2  0  0  0  0  0  0
  185.4080  177.9720  138.0340 C   0  0  0  0  0  0  0  0  0  0  0  0
  184.2120  178.4290  137.8470 N   0  0  0  0  0  2  0  0  0  0  0  0
  189.8860  178.3470  144.5030 C   0  0  0  0  0  0  0  0  0  0  0  0
  190.0900  177.5820  139.9840 C   0  0  0  0  0  0  0  0  0  0  0  0
  186.9080  177.3140  143.1230 N   0  0  0  0  0  2  0  0  0  0  0  0
  189.5750  177.3280  138.6890 C   0  0  0  0  0  0  0  0  0  0  0  0
  191.4600  177.5300  140.2260 O   0  0  0  0  0  1  0  0  0  0  0  0
  188.1810  177.4830  138.4670 C   0  0  0  0  0  0  0  0  0  0  0  0
  189.8430  176.7700  136.3370 C   0  0  0  0  0  3  0  0  0  0  0  0
  187.6550  177.3520  137.1660 C   0  0  0  0  0  0  0  0  0  0  0  0
  190.9460  179.0810  144.1160 N   0  0  0  0  0  0  0  0  0  0  0  0
  189.2370  178.3200  145.6830 N   0  0  0  0  0  0  0  0  0  0  0  0
  189.2180  177.8290  143.5180 N   0  0  0  0  0  0  0  0  0  0  0  0
  188.0570  177.3940  143.9620 C   0  0  1  0  0  3  0  0  0  0  0  0
  187.3160  177.7360  139.5430 C   0  0  0  0  0  0  0  0  0  0  0  0
  188.0750  177.6800  145.3330 C   0  0  0  0  0  0  0  0  0  0  0  0
  190.8930  178.9680  142.7470 C   0  0  0  0  0  3  0  0  0  0  0  0
  181.6620  178.5750  140.3060 C   0  0  2  0  0  3  0  0  0  0  0  0
  181.5900  180.0900  140.6390 C   0  0  0  0  0  2  0  0  0  0  0  0
  183.4100  178.9910  138.9290 C   0  0  2  0  0  3  0  0  0  0  0  0
  182.1720  178.3250  139.0060 O   0  0  0  0  0  0  0  0  0  0  0  0
  183.1570  180.4830  138.6810 C   0  0  0  0  0  2  0  0  0  0  0  0
  181.8900  180.9570  139.4120 C   0  0  0  0  0  2  0  0  0  0  0  0
  179.7550  178.1090  141.8830 C   0  0  0  0  0  1  0  0  0  0  0  0
  179.2950  178.3640  139.4600 C   0  0  0  0  0  1  0  0  0  0  0  0
  180.4870  176.3740  140.3080 C   0  0  0  0  0  1  0  0  0  0  0  0
  180.3050  177.8680  140.4860 C   0  0  0  0  0  0  0  0  0  0  0  0
  192.4800  175.5500  137.0880 C   0  0  0  0  0  0  0  0  0  0  0  0
  193.7940  175.1710  137.5020 N   0  0  0  0  0  2  0  0  0  0  0  0
  191.7710  176.5520  137.8300 N   0  0  0  0  0  2  0  0  0  0  0  0
  191.9410  174.9700  136.1040 O   0  0  0  0  0  0  0  0  0  0  0  0
  194.4930  174.0570  136.8770 C   0  0  0  0  0  2  0  0  0  0  0  0
  195.6100  174.5370  135.9340 C   0  0  1  0  0  3  0  0  0  0  0  0
  197.8890  175.5920  134.5980 C   0  0  0  0  0  2  0  0  0  0  0  0
  196.6240  176.4550  134.6490 C   0  0  0  0  0  2  0  0  0  0  0  0
  195.6790  176.0640  135.7910 C   0  0  0  0  0  2  0  0  0  0  0  0
  198.0640  174.7790  135.8790 C   0  0  0  0  0  2  0  0  0  0  0  0
  196.9350  173.8530  136.0600 N   0  0  1  0  0  0  0  0  0  0  0  0
  197.1210  173.1810  137.3490 C   0  0  0  0  0  3  0  0  0  0  0  0
  197.2860  171.6870  137.1210 C   0  0  0  0  0  2  0  0  0  0  0  0
  198.4960  172.5390  137.4130 C   0  0  0  0  0  2  0  0  0  0  0  0
  186.9700  177.4530  146.2710 C   0  0  0  0  0  0  0  0  0  0  0  0
  187.2360  177.1480  147.6350 N   0  0  0  0  0  1  0  0  0  0  0  0
  185.7850  177.4730  145.8590 O   0  0  0  0  0  0  0  0  0  0  0  0
  1  4  1  0  0  0  0
  2 23  1  0  0  0  0
  3  1  1  0  0  0  0
  3  8  1  0  0  0  0
  4 25  2  0  0  0  0
  4 21  1  0  0  0  0
  5 38  1  0  0  0  0
  5 14  1  0  0  0  0
  6 17  1  0  0  0  0
  6 18  2  0  0  0  0
  7 18  1  0  0  0  0
  7  9  2  0  0  0  0
  8 13  1  0  0  0  0
  9  2  1  0  0  0  0
 10  9  1  0  0  0  0
 11 20  1  0  0  0  0
 12 15  1  0  0  0  0
 12  1  2  0  0  0  0
 14 12  1  0  0  0  0
 16 14  2  0  0  0  0
 16 23  1  0  0  0  0
 17  5  2  0  0  0  0
 18 16  1  0  0  0  0
 19 11  2  0  0  0  0
 21 22  1  0  0  0  0
 21 11  1  0  0  0  0
 22 13  1  6  0  0  0
 22 24  1  0  0  0  0
 23  3  2  0  0  0  0
 24 20  2  0  0  0  0
 24 50  1  0  0  0  0
 25 19  1  0  0  0  0
 26 35  1  6  0  0  0
 26 27  1  0  0  0  0
 28 10  1  6  0  0  0
 28 29  1  0  0  0  0
 29 26  1  0  0  0  0
 30 28  1  0  0  0  0
 30 31  1  0  0  0  0
 31 27  1  0  0  0  0
 33 35  1  0  0  0  0
 34 35  1  0  0  0  0
 35 32  1  0  0  0  0
 36 37  1  0  0  0  0
 36 38  1  0  0  0  0
 39 36  2  0  0  0  0
 40 37  1  0  0  0  0
 41 46  1  0  0  0  0
 41 40  1  1  0  0  0
 42 43  1  0  0  0  0
 42 45  1  0  0  0  0
 43 44  1  0  0  0  0
 44 41  1  0  0  0  0
 45 46  1  0  0  0  0
 46 47  1  1  0  0  0
 47 49  1  0  0  0  0
 48 47  1  0  0  0  0
 48 49  1  0  0  0  0
 50 51  1  0  0  0  0
 52 50  2  0  0  0  0
M  END
>  <MODEL>
5

>  <REMARK>
 VINA RESULT:      -6.7      3.325     10.138
  Name = 
  7 active torsions:
  status: ('A' for Active; 'I' for Inactive)
    1  A    between atoms: C_5  and  C_29
    2  A    between atoms: C_6  and  N_45
    3  A    between atoms: C_9  and  C_28
    4  A    between atoms: N_10  and  C_28
    5  A    between atoms: C_12  and  N_23
    6  A    between atoms: C_13  and  C_51
    7  A    between atoms: C_14  and  N_24
                            x       y       z     vdW  Elec       q    Type
                         _______ _______ _______ _____ _____    ______ ____

>  <TORSDO>
F 7

$$$$
=
 OpenBabel11032421183D

 52 60  0  0  1  0  0  0  0  0999 V2000
  185.4640  177.8720  139.2090 C   0  0  0  0  0  0  0  0  0  0  0  0
  182.2250  178.6310  137.5840 O   0  0  0  0  0  0  0  0  0  0  0  0
  184.1080  178.2670  139.0470 C   0  0  0  0  0  0  0  0  0  0  0  0
  186.2090  178.2350  140.4340 C   0  0  0  0  0  0  0  0  0  0  0  0
  185.9610  175.9260  136.0300 C   0  0  0  0  0  0  0  0  0  0  0  0
  184.0420  176.3220  134.5940 C   0  0  0  0  0  3  0  0  0  0  0  0
  182.1070  177.7030  135.2610 C   0  0  0  0  0  3  0  0  0  0  0  0
  183.3580  179.0970  140.0680 C   0  0  0  0  0  2  0  0  0  0  0  0
  181.6190  178.6200  136.3300 C   0  0  0  0  0  0  0  0  0  0  0  0
  180.6170  179.3990  136.0750 N   0  0  0  0  0  2  0  0  0  0  0  0
  186.5510  178.7480  142.4700 C   0  0  0  0  0  0  0  0  0  0  0  0
  186.0910  177.0960  138.2140 C   0  0  0  0  0  0  0  0  0  0  0  0
  183.2860  178.5060  141.4070 N   0  0  0  0  0  2  0  0  0  0  0  0
  185.4070  176.7790  137.0150 C   0  0  0  0  0  0  0  0  0  0  0  0
  187.3900  176.6440  138.4310 O   0  0  0  0  0  1  0  0  0  0  0  0
  184.1200  177.3390  136.7950 C   0  0  0  0  0  0  0  0  0  0  0  0
  185.2700  175.7190  134.8310 C   0  0  0  0  0  3  0  0  0  0  0  0
  183.4650  177.1380  135.5640 C   0  0  0  0  0  0  0  0  0  0  0  0
  187.7490  179.0030  141.9120 N   0  0  0  0  0  0  0  0  0  0  0  0
  186.0360  179.1670  143.6420 N   0  0  0  0  0  0  0  0  0  0  0  0
  185.6660  178.2980  141.6320 N   0  0  0  0  0  0  0  0  0  0  0  0
  184.4730  178.3650  142.1840 C   0  0  1  0  0  3  0  0  0  0  0  0
  183.4820  178.0660  137.8110 C   0  0  0  0  0  0  0  0  0  0  0  0
  184.7050  178.8890  143.4620 C   0  0  0  0  0  0  0  0  0  0  0  0
  187.5390  178.6500  140.6000 C   0  0  0  0  0  3  0  0  0  0  0  0
  180.0120  182.6150  137.4390 C   0  0  2  0  0  3  0  0  0  0  0  0
  179.6750  182.3040  138.9220 C   0  0  0  0  0  2  0  0  0  0  0  0
  180.1370  180.3930  137.0310 C   0  0  2  0  0  3  0  0  0  0  0  0
  180.8140  181.6110  136.8380 O   0  0  0  0  0  0  0  0  0  0  0  0
  180.3820  179.9090  138.4660 C   0  0  0  0  0  2  0  0  0  0  0  0
  180.4600  181.0940  139.4420 C   0  0  0  0  0  2  0  0  0  0  0  0
  180.8050  184.3450  135.7890 C   0  0  0  0  0  1  0  0  0  0  0  0
  179.8640  185.0780  137.9630 C   0  0  0  0  0  1  0  0  0  0  0  0
  182.0680  183.9660  137.8600 C   0  0  0  0  0  1  0  0  0  0  0  0
  180.6740  183.9950  137.2640 C   0  0  0  0  0  0  0  0  0  0  0  0
  188.4630  175.5060  135.8040 C   0  0  0  0  0  0  0  0  0  0  0  0
  189.5420  174.5940  136.0140 N   0  0  0  0  0  2  0  0  0  0  0  0
  187.1560  175.1730  136.2930 N   0  0  0  0  0  2  0  0  0  0  0  0
  188.6590  176.5690  135.1530 O   0  0  0  0  0  0  0  0  0  0  0  0
  190.8480  174.8120  135.4080 C   0  0  0  0  0  2  0  0  0  0  0  0
  191.9630  174.0720  136.1670 C   0  0  1  0  0  3  0  0  0  0  0  0
  194.3090  173.0830  137.4370 C   0  0  0  0  0  2  0  0  0  0  0  0
  193.9770  172.5600  136.0350 C   0  0  0  0  0  2  0  0  0  0  0  0
  193.0530  173.4990  135.2500 C   0  0  0  0  0  2  0  0  0  0  0  0
  193.9170  174.5510  137.5940 C   0  0  0  0  0  2  0  0  0  0  0  0
  192.4660  174.7190  137.4190 N   0  0  1  0  0  0  0  0  0  0  0  0
  192.1800  176.1540  137.4870 C   0  0  0  0  0  3  0  0  0  0  0  0
  191.3340  176.4430  138.7170 C   0  0  0  0  0  2  0  0  0  0  0  0
  192.8100  176.7580  138.7300 C   0  0  0  0  0  2  0  0  0  0  0  0
  183.6740  179.2260  144.4510 C   0  0  0  0  0  0  0  0  0  0  0  0
  183.9060  178.9990  145.8360 N   0  0  0  0  0  1  0  0  0  0  0  0
  182.5620  179.6650  144.0720 O   0  0  0  0  0  0  0  0  0  0  0  0
  1  4  1  0  0  0  0
  2 23  1  0  0  0  0
  3  1  1  0  0  0  0
  3  8  1  0  0  0  0
  4 25  2  0  0  0  0
  4 21  1  0  0  0  0
  5 38  1  0  0  0  0
  5 14  1  0  0  0  0
  6 17  1  0  0  0  0
  6 18  2  0  0  0  0
  7 18  1  0  0  0  0
  7  9  2  0  0  0  0
  8 13  1  0  0  0  0
  9  2  1  0  0  0  0
 10  9  1  0  0  0  0
 11 20  1  0  0  0  0
 12 15  1  0  0  0  0
 12  1  2  0  0  0  0
 14 12  1  0  0  0  0
 16 14  2  0  0  0  0
 16 23  1  0  0  0  0
 17  5  2  0  0  0  0
 18 16  1  0  0  0  0
 19 11  2  0  0  0  0
 21 22  1  0  0  0  0
 21 11  1  0  0  0  0
 22 13  1  6  0  0  0
 22 24  1  0  0  0  0
 23  3  2  0  0  0  0
 24 20  2  0  0  0  0
 24 50  1  0  0  0  0
 25 19  1  0  0  0  0
 26 35  1  1  0  0  0
 26 27  1  0  0  0  0
 27 31  1  0  0  0  0
 28 10  1  6  0  0  0
 28 30  1  0  0  0  0
 29 28  1  0  0  0  0
 29 26  1  0  0  0  0
 30 31  1  0  0  0  0
 32 35  1  0  0  0  0
 35 34  1  0  0  0  0
 35 33  1  0  0  0  0
 36 37  1  0  0  0  0
 36 38  1  0  0  0  0
 39 36  2  0  0  0  0
 40 37  1  0  0  0  0
 41 40  1  6  0  0  0
 41 46  1  0  0  0  0
 42 45  1  0  0  0  0
 43 42  1  0  0  0  0
 44 43  1  0  0  0  0
 44 41  1  0  0  0  0
 46 47  1  6  0  0  0
 46 45  1  0  0  0  0
 47 48  1  0  0  0  0
 47 49  1  0  0  0  0
 48 49  1  0  0  0  0
 50 51  1  0  0  0  0
 52 50  2  0  0  0  0
M  END
>  <MODEL>
6

>  <REMARK>
 VINA RESULT:      -6.1      3.378      9.812
  Name = 
  7 active torsions:
  status: ('A' for Active; 'I' for Inactive)
    1  A    between atoms: C_5  and  C_29
    2  A    between atoms: C_6  and  N_45
    3  A    between atoms: C_9  and  C_28
    4  A    between atoms: N_10  and  C_28
    5  A    between atoms: C_12  and  N_23
    6  A    between atoms: C_13  and  C_51
    7  A    between atoms: C_14  and  N_24
                            x       y       z     vdW  Elec       q    Type
                         _______ _______ _______ _____ _____    ______ ____

>  <TORSDO>
F 7

$$$$
