=
 OpenBabel11042411183D

 48 54  0  0  1  0  0  0  0  0999 V2000
  189.4730  176.7750  138.5890 C   0  0  2  0  0  3  0  0  0  0  0  0
  189.4850  175.4080  137.9360 C   0  0  0  0  0  2  0  0  0  0  0  0
  189.4730  175.6520  136.5080 N   0  0  0  0  0  0  0  0  0  0  0  0
  189.7990  177.7850  137.4920 C   0  0  0  0  0  2  0  0  0  0  0  0
  189.6300  177.0550  136.1730 C   0  0  0  0  0  2  0  0  0  0  0  0
  188.5210  173.9310  135.0790 C   0  0  0  0  0  3  0  0  0  0  0  0
  189.5940  174.5820  135.5560 C   0  0  0  0  0  0  0  0  0  0  0  0
  187.1040  174.1830  135.4960 C   0  0  1  0  0  3  0  0  0  0  0  0
  186.4820  175.2330  134.5940 C   0  0  0  0  0  1  0  0  0  0  0  0
  185.9840  170.6550  134.6680 C   0  0  0  0  0  3  0  0  0  0  0  0
  184.3700  171.6180  136.1940 C   0  0  0  0  0  0  0  0  0  0  0  0
  184.8070  170.5440  135.4130 C   0  0  0  0  0  3  0  0  0  0  0  0
  185.1100  172.8040  136.2290 C   0  0  0  0  0  3  0  0  0  0  0  0
  186.2890  172.9220  135.4760 C   0  0  0  0  0  0  0  0  0  0  0  0
  182.8980  171.4790  137.1290 Cl  0  0  0  0  0  0  0  0  0  0  0  0
  186.7250  171.8410  134.7000 C   0  0  0  0  0  3  0  0  0  0  0  0
  190.9070  174.1800  135.1410 N   0  0  0  0  0  2  0  0  0  0  0  0
  191.6690  173.1020  135.7610 C   0  0  2  0  0  3  0  0  0  0  0  0
  192.6300  173.6810  136.7580 C   0  0  0  0  0  2  0  0  0  0  0  0
  192.5700  172.4600  134.7370 C   0  0  0  0  0  2  0  0  0  0  0  0
  193.9350  172.5870  135.2270 N   0  0  0  0  0  2  0  0  0  0  0  0
  193.9440  173.6650  136.1330 N   0  0  2  0  0  0  0  0  0  0  0  0
  195.7110  175.5120  136.5420 O   0  0  0  0  0  1  0  0  0  0  0  0
  194.9150  173.3440  137.1740 C   0  0  2  0  0  3  0  0  0  0  0  0
  195.9080  174.4160  137.3860 C   0  0  1  0  0  3  0  0  0  0  0  0
  196.2590  173.2370  136.5820 N   0  0  0  0  0  0  0  0  0  0  0  0
  197.0210  172.3560  137.4480 C   0  0  0  0  0  1  0  0  0  0  0  0
  191.7590  177.1440  139.3400 O   0  0  0  0  0  1  0  0  0  0  0  0
  190.4640  176.8170  139.7540 C   0  0  1  0  0  3  0  0  0  0  0  0
  188.5140  177.4830  141.2610 C   0  0  2  0  0  3  0  0  0  0  0  0
  188.3570  177.9160  142.7130 C   0  0  2  0  0  3  0  0  0  0  0  0
  189.9790  177.6840  140.9280 C   0  0  1  0  0  3  0  0  0  0  0  0
  190.7390  177.6070  142.2520 C   0  0  2  0  0  3  0  0  0  0  0  0
  191.0830  176.1850  142.6740 C   0  0  0  0  0  1  0  0  0  0  0  0
  189.7570  178.1720  143.2600 C   0  0  0  0  0  2  0  0  0  0  0  0
  187.6830  176.8180  143.5230 C   0  0  0  0  0  2  0  0  0  0  0  0
  187.3260  177.3130  144.8410 N   0  0  0  0  0  0  0  0  0  0  0  0
  186.2030  177.9900  145.3970 C   0  0  0  0  0  0  0  0  0  0  0  0
  186.9010  178.5480  147.9550 C   0  0  0  0  0  3  0  0  0  0  0  0
  185.0740  178.3510  144.9770 O   0  0  0  0  0  0  0  0  0  0  0  0
  188.0850  178.2990  148.6950 C   0  0  0  0  0  3  0  0  0  0  0  0
  186.9290  178.0920  146.6480 C   0  0  0  0  0  0  0  0  0  0  0  0
  188.0020  177.4520  146.0940 C   0  0  0  0  0  0  0  0  0  0  0  0
  189.2050  177.6300  148.1090 C   0  0  0  0  0  3  0  0  0  0  0  0
  189.1820  177.1850  146.7640 C   0  0  0  0  0  3  0  0  0  0  0  0
  187.6290  178.3460  140.3750 C   0  0  0  0  0  2  0  0  0  0  0  0
  185.4850  178.8630  140.4310 C   0  0  0  0  0  1  0  0  0  0  0  0
  186.6720  179.0020  141.1490 O   0  0  0  0  0  0  0  0  0  0  0  0
  1 29  1  1  0  0  0
  2  1  1  0  0  0  0
  3  2  1  0  0  0  0
  4  1  1  0  0  0  0
  5  3  1  0  0  0  0
  5  4  1  0  0  0  0
  6  8  1  0  0  0  0
  6  7  2  0  0  0  0
  7  3  1  0  0  0  0
  8  9  1  6  0  0  0
 10 16  2  0  0  0  0
 10 12  1  0  0  0  0
 11 13  1  0  0  0  0
 11 15  1  0  0  0  0
 12 11  2  0  0  0  0
 14  8  1  0  0  0  0
 14 13  2  0  0  0  0
 16 14  1  0  0  0  0
 17  7  1  0  0  0  0
 18 17  1  6  0  0  0
 18 19  1  0  0  0  0
 20 21  1  0  0  0  0
 20 18  1  0  0  0  0
 21 22  1  0  0  0  0
 22 19  1  1  0  0  0
 22 24  1  0  0  0  0
 24 26  1  6  0  0  0
 24 25  1  0  0  0  0
 25 23  1  6  0  0  0
 26 25  1  0  0  0  0
 26 27  1  0  0  0  0
 29 28  1  6  0  0  0
 30 46  1  6  0  0  0
 30 31  1  0  0  0  0
 31 35  1  0  0  0  0
 31 36  1  1  0  0  0
 32 29  1  6  0  0  0
 32 30  1  0  0  0  0
 32 33  1  0  0  0  0
 33 34  1  1  0  0  0
 33 35  1  0  0  0  0
 36 37  1  0  0  0  0
 37 38  1  0  0  0  0
 37 43  1  0  0  0  0
 38 42  1  0  0  0  0
 39 41  1  0  0  0  0
 40 38  2  0  0  0  0
 42 39  2  0  0  0  0
 43 42  1  0  0  0  0
 43 45  2  0  0  0  0
 44 41  2  0  0  0  0
 45 44  1  0  0  0  0
 46 48  1  0  0  0  0
 47 48  1  0  0  0  0
M  END
>  <MODEL>
1

>  <REMARK>
 VINA RESULT:      -8.1      0.000      0.000
  Name = 
  12 active torsions:
  status: ('A' for Active; 'I' for Inactive)
    1  A    between atoms: C_1  and  N_16
    2  A    between atoms: C_3  and  C_7
    3  A    between atoms: C_3  and  C_43
    4  A    between atoms: C_4  and  C_35
    5  A    between atoms: N_5  and  C_40
    6  A    between atoms: C_9  and  N_16
    7  A    between atoms: C_9  and  N_22
    8  A    between atoms: O_10  and  C_41
    9  A    between atoms: C_11  and  C_41
   10  A    between atoms: C_17  and  C_40
   11  A    between atoms: C_18  and  N_26
   12  A    between atoms: C_19  and  C_35
                            x       y       z     vdW  Elec       q    Type
                         _______ _______ _______ _____ _____    ______ ____

>  <TORSDO>
F 12

$$$$
=
 OpenBabel11042411183D

 48 54  0  0  1  0  0  0  0  0999 V2000
  188.7220  177.4920  138.4150 C   0  0  2  0  0  3  0  0  0  0  0  0
  187.7920  176.4000  137.9260 C   0  0  0  0  0  2  0  0  0  0  0  0
  187.8800  176.4250  136.4810 N   0  0  0  0  0  0  0  0  0  0  0  0
  189.5860  177.8950  137.2230 C   0  0  0  0  0  2  0  0  0  0  0  0
  188.9140  177.3180  135.9920 C   0  0  0  0  0  2  0  0  0  0  0  0
  187.3900  174.1270  135.8570 C   0  0  0  0  0  3  0  0  0  0  0  0
  187.2160  175.4450  135.6660 C   0  0  0  0  0  0  0  0  0  0  0  0
  188.3070  173.5170  136.8720 C   0  0  1  0  0  3  0  0  0  0  0  0
  187.8160  172.1280  137.2380 C   0  0  0  0  0  1  0  0  0  0  0  0
  191.3320  172.6160  134.7690 C   0  0  0  0  0  3  0  0  0  0  0  0
  192.0570  174.1170  136.5260 C   0  0  0  0  0  0  0  0  0  0  0  0
  192.3490  173.3320  135.4060 C   0  0  0  0  0  3  0  0  0  0  0  0
  190.7460  174.1840  137.0090 C   0  0  0  0  0  3  0  0  0  0  0  0
  189.7220  173.4600  136.3760 C   0  0  0  0  0  0  0  0  0  0  0  0
  193.3290  175.0150  137.3230 Cl  0  0  0  0  0  0  0  0  0  0  0  0
  190.0210  172.6820  135.2520 C   0  0  0  0  0  3  0  0  0  0  0  0
  186.3770  175.9000  134.5940 N   0  0  0  0  0  2  0  0  0  0  0  0
  184.9220  175.8000  134.5940 C   0  0  2  0  0  3  0  0  0  0  0  0
  184.3380  177.0560  135.1720 C   0  0  0  0  0  2  0  0  0  0  0  0
  184.4840  174.7310  135.5620 C   0  0  0  0  0  2  0  0  0  0  0  0
  183.6110  175.3680  136.5380 N   0  0  0  0  0  2  0  0  0  0  0  0
  183.9250  176.7400  136.5310 N   0  0  2  0  0  0  0  0  0  0  0  0
  184.1030  178.5100  138.4120 O   0  0  0  0  0  1  0  0  0  0  0  0
  182.6860  177.4670  136.7880 C   0  0  2  0  0  3  0  0  0  0  0  0
  182.8180  178.4700  137.8630 C   0  0  1  0  0  3  0  0  0  0  0  0
  182.2070  177.1640  138.1470 N   0  0  0  0  0  0  0  0  0  0  0  0
  180.7690  177.3670  138.1310 C   0  0  0  0  0  1  0  0  0  0  0  0
  190.9010  176.8630  139.3020 O   0  0  0  0  0  1  0  0  0  0  0  0
  189.5430  176.9980  139.6080 C   0  0  1  0  0  3  0  0  0  0  0  0
  187.9020  177.6580  141.4490 C   0  0  2  0  0  3  0  0  0  0  0  0
  188.0070  178.0140  142.9260 C   0  0  2  0  0  3  0  0  0  0  0  0
  189.3020  177.8160  140.8880 C   0  0  1  0  0  3  0  0  0  0  0  0
  190.2620  177.6320  142.0610 C   0  0  2  0  0  3  0  0  0  0  0  0
  190.5980  176.1740  142.3500 C   0  0  0  0  0  1  0  0  0  0  0  0
  189.4890  178.1780  143.2450 C   0  0  0  0  0  2  0  0  0  0  0  0
  187.4190  176.9010  143.7810 C   0  0  0  0  0  2  0  0  0  0  0  0
  187.3000  177.3380  145.1620 N   0  0  0  0  0  0  0  0  0  0  0  0
  186.2870  177.9690  145.9390 C   0  0  0  0  0  0  0  0  0  0  0  0
  187.4280  178.4430  148.3500 C   0  0  0  0  0  3  0  0  0  0  0  0
  185.0960  178.3240  145.7440 O   0  0  0  0  0  0  0  0  0  0  0  0
  188.7300  178.1900  148.8530 C   0  0  0  0  0  3  0  0  0  0  0  0
  187.2250  178.0380  147.0420 C   0  0  0  0  0  0  0  0  0  0  0  0
  188.1890  177.4420  146.2770 C   0  0  0  0  0  0  0  0  0  0  0  0
  189.7340  177.5670  148.0480 C   0  0  0  0  0  3  0  0  0  0  0  0
  189.4740  177.1730  146.7110 C   0  0  0  0  0  3  0  0  0  0  0  0
  186.9300  178.6080  140.7660 C   0  0  0  0  0  2  0  0  0  0  0  0
  184.9000  178.9470  141.5600 C   0  0  0  0  0  1  0  0  0  0  0  0
  186.2270  179.3430  141.7210 O   0  0  0  0  0  0  0  0  0  0  0  0
  1 29  1  1  0  0  0
  2  1  1  0  0  0  0
  3  2  1  0  0  0  0
  4  1  1  0  0  0  0
  5  3  1  0  0  0  0
  5  4  1  0  0  0  0
  6  8  1  0  0  0  0
  7  6  2  0  0  0  0
  7  3  1  0  0  0  0
  8  9  1  6  0  0  0
 10 16  2  0  0  0  0
 10 12  1  0  0  0  0
 11 13  1  0  0  0  0
 11 15  1  0  0  0  0
 12 11  2  0  0  0  0
 14  8  1  0  0  0  0
 14 13  2  0  0  0  0
 16 14  1  0  0  0  0
 17  7  1  0  0  0  0
 18 17  1  1  0  0  0
 18 19  1  0  0  0  0
 18 20  1  0  0  0  0
 20 21  1  0  0  0  0
 22 19  1  6  0  0  0
 22 21  1  0  0  0  0
 22 24  1  0  0  0  0
 24 25  1  0  0  0  0
 24 26  1  1  0  0  0
 25 26  1  0  0  0  0
 25 23  1  1  0  0  0
 27 26  1  0  0  0  0
 29 28  1  6  0  0  0
 30 46  1  6  0  0  0
 30 31  1  0  0  0  0
 31 35  1  0  0  0  0
 31 36  1  1  0  0  0
 32 29  1  6  0  0  0
 32 30  1  0  0  0  0
 32 33  1  0  0  0  0
 33 34  1  1  0  0  0
 33 35  1  0  0  0  0
 36 37  1  0  0  0  0
 37 38  1  0  0  0  0
 37 43  1  0  0  0  0
 38 42  1  0  0  0  0
 39 41  1  0  0  0  0
 40 38  2  0  0  0  0
 42 39  2  0  0  0  0
 43 45  2  0  0  0  0
 43 42  1  0  0  0  0
 44 41  2  0  0  0  0
 45 44  1  0  0  0  0
 46 48  1  0  0  0  0
 47 48  1  0  0  0  0
M  END
>  <MODEL>
2

>  <REMARK>
 VINA RESULT:      -7.8      3.154      6.219
  Name = 
  12 active torsions:
  status: ('A' for Active; 'I' for Inactive)
    1  A    between atoms: C_1  and  N_16
    2  A    between atoms: C_3  and  C_7
    3  A    between atoms: C_3  and  C_43
    4  A    between atoms: C_4  and  C_35
    5  A    between atoms: N_5  and  C_40
    6  A    between atoms: C_9  and  N_16
    7  A    between atoms: C_9  and  N_22
    8  A    between atoms: O_10  and  C_41
    9  A    between atoms: C_11  and  C_41
   10  A    between atoms: C_17  and  C_40
   11  A    between atoms: C_18  and  N_26
   12  A    between atoms: C_19  and  C_35
                            x       y       z     vdW  Elec       q    Type
                         _______ _______ _______ _____ _____    ______ ____

>  <TORSDO>
F 12

$$$$
=
 OpenBabel11042411183D

 48 54  0  0  1  0  0  0  0  0999 V2000
  189.3910  176.5830  138.8780 C   0  0  2  0  0  3  0  0  0  0  0  0
  188.3630  177.3970  139.6380 C   0  0  0  0  0  2  0  0  0  0  0  0
  188.8670  177.5040  140.9910 N   0  0  0  0  0  0  0  0  0  0  0  0
  190.6400  176.5310  139.7530 C   0  0  0  0  0  2  0  0  0  0  0  0
  190.2130  176.9810  141.1370 C   0  0  0  0  0  2  0  0  0  0  0  0
  188.7960  178.6160  143.1520 C   0  0  0  0  0  3  0  0  0  0  0  0
  188.2100  178.3110  141.9820 C   0  0  0  0  0  0  0  0  0  0  0  0
  190.1430  178.1320  143.5940 C   0  0  1  0  0  3  0  0  0  0  0  0
  191.1500  179.2640  143.5030 C   0  0  0  0  0  1  0  0  0  0  0  0
  188.8400  177.1230  147.0110 C   0  0  0  0  0  3  0  0  0  0  0  0
  191.1680  176.4720  146.8700 C   0  0  0  0  0  0  0  0  0  0  0  0
  189.9710  176.5420  147.5900 C   0  0  0  0  0  3  0  0  0  0  0  0
  191.2330  176.9850  145.5700 C   0  0  0  0  0  3  0  0  0  0  0  0
  190.1010  177.5760  144.9870 C   0  0  0  0  0  0  0  0  0  0  0  0
  192.5840  175.7420  147.5940 Cl  0  0  0  0  0  0  0  0  0  0  0  0
  188.9040  177.6380  145.7110 C   0  0  0  0  0  3  0  0  0  0  0  0
  186.8740  178.7650  141.7210 N   0  0  0  0  0  2  0  0  0  0  0  0
  185.6750  178.1480  142.2750 C   0  0  2  0  0  3  0  0  0  0  0  0
  184.7010  177.8700  141.1660 C   0  0  0  0  0  2  0  0  0  0  0  0
  184.9440  179.1410  143.1420 C   0  0  0  0  0  2  0  0  0  0  0  0
  183.6060  179.2910  142.5890 N   0  0  0  0  0  2  0  0  0  0  0  0
  183.6780  178.9020  141.2380 N   0  0  2  0  0  0  0  0  0  0  0  0
  182.4650  179.9710  139.2160 O   0  0  0  0  0  1  0  0  0  0  0  0
  182.4040  178.2730  140.9040 C   0  0  2  0  0  3  0  0  0  0  0  0
  181.7380  178.9010  139.7460 C   0  0  1  0  0  3  0  0  0  0  0  0
  181.3080  179.2330  141.1120 N   0  0  0  0  0  0  0  0  0  0  0  0
  180.1160  178.4460  141.3740 C   0  0  0  0  0  1  0  0  0  0  0  0
  190.9890  177.0970  137.1150 O   0  0  0  0  0  1  0  0  0  0  0  0
  189.6490  177.2020  137.5030 C   0  0  1  0  0  3  0  0  0  0  0  0
  187.7650  175.5870  136.9020 C   0  0  2  0  0  3  0  0  0  0  0  0
  186.5520  175.6230  135.9810 C   0  0  2  0  0  3  0  0  0  0  0  0
  188.6770  176.7000  136.4220 C   0  0  1  0  0  3  0  0  0  0  0  0
  187.7840  177.7190  135.7160 C   0  0  2  0  0  3  0  0  0  0  0  0
  187.1410  178.7240  136.6630 C   0  0  0  0  0  1  0  0  0  0  0  0
  186.6810  176.8700  135.1140 C   0  0  0  0  0  2  0  0  0  0  0  0
  185.2700  175.6970  136.7990 C   0  0  0  0  0  2  0  0  0  0  0  0
  184.6530  174.3840  136.8840 N   0  0  0  0  0  0  0  0  0  0  0  0
  184.9840  173.1500  137.5120 C   0  0  0  0  0  0  0  0  0  0  0  0
  183.0830  171.4010  136.6950 C   0  0  0  0  0  3  0  0  0  0  0  0
  185.8960  172.7500  138.2810 O   0  0  0  0  0  0  0  0  0  0  0  0
  181.9690  171.5420  135.8290 C   0  0  0  0  0  3  0  0  0  0  0  0
  183.8280  172.5540  136.8710 C   0  0  0  0  0  0  0  0  0  0  0  0
  183.5320  173.7440  136.2680 C   0  0  0  0  0  0  0  0  0  0  0  0
  181.6650  172.7890  135.1990 C   0  0  0  0  0  3  0  0  0  0  0  0
  182.4630  173.9410  135.4130 C   0  0  0  0  0  3  0  0  0  0  0  0
  188.4490  174.2340  136.7890 C   0  0  0  0  0  2  0  0  0  0  0  0
  188.3560  172.4560  135.4870 C   0  0  0  0  0  1  0  0  0  0  0  0
  188.5140  173.8400  135.4520 O   0  0  0  0  0  0  0  0  0  0  0  0
  1 29  1  6  0  0  0
  1  2  1  0  0  0  0
  1  4  1  0  0  0  0
  2  3  1  0  0  0  0
  3  5  1  0  0  0  0
  3  7  1  0  0  0  0
  4  5  1  0  0  0  0
  6  8  1  0  0  0  0
  7  6  2  0  0  0  0
  8  9  1  1  0  0  0
  8 14  1  0  0  0  0
 10 12  1  0  0  0  0
 11 12  2  0  0  0  0
 11 15  1  0  0  0  0
 13 11  1  0  0  0  0
 14 13  2  0  0  0  0
 14 16  1  0  0  0  0
 16 10  2  0  0  0  0
 17  7  1  0  0  0  0
 18 17  1  6  0  0  0
 18 20  1  0  0  0  0
 19 18  1  0  0  0  0
 21 20  1  0  0  0  0
 22 19  1  1  0  0  0
 22 21  1  0  0  0  0
 24 26  1  1  0  0  0
 24 22  1  0  0  0  0
 25 23  1  1  0  0  0
 25 24  1  0  0  0  0
 25 26  1  0  0  0  0
 26 27  1  0  0  0  0
 29 28  1  6  0  0  0
 30 46  1  6  0  0  0
 31 36  1  1  0  0  0
 31 30  1  0  0  0  0
 32 30  1  0  0  0  0
 32 29  1  1  0  0  0
 33 32  1  0  0  0  0
 33 34  1  1  0  0  0
 35 33  1  0  0  0  0
 35 31  1  0  0  0  0
 36 37  1  0  0  0  0
 37 38  1  0  0  0  0
 38 40  2  0  0  0  0
 39 42  1  0  0  0  0
 41 39  2  0  0  0  0
 42 38  1  0  0  0  0
 43 42  2  0  0  0  0
 43 37  1  0  0  0  0
 44 45  2  0  0  0  0
 44 41  1  0  0  0  0
 45 43  1  0  0  0  0
 48 47  1  0  0  0  0
 48 46  1  0  0  0  0
M  END
>  <MODEL>
3

>  <REMARK>
 VINA RESULT:      -7.6      4.337     10.827
  Name = 
  12 active torsions:
  status: ('A' for Active; 'I' for Inactive)
    1  A    between atoms: C_1  and  N_16
    2  A    between atoms: C_3  and  C_7
    3  A    between atoms: C_3  and  C_43
    4  A    between atoms: C_4  and  C_35
    5  A    between atoms: N_5  and  C_40
    6  A    between atoms: C_9  and  N_16
    7  A    between atoms: C_9  and  N_22
    8  A    between atoms: O_10  and  C_41
    9  A    between atoms: C_11  and  C_41
   10  A    between atoms: C_17  and  C_40
   11  A    between atoms: C_18  and  N_26
   12  A    between atoms: C_19  and  C_35
                            x       y       z     vdW  Elec       q    Type
                         _______ _______ _______ _____ _____    ______ ____

>  <TORSDO>
F 12

$$$$
=
 OpenBabel11042411183D

 48 54  0  0  1  0  0  0  0  0999 V2000
  183.7450  177.9190  140.7970 C   0  0  2  0  0  3  0  0  0  0  0  0
  182.8870  177.4330  139.6460 C   0  0  0  0  0  2  0  0  0  0  0  0
  181.5220  177.7620  140.0060 N   0  0  0  0  0  0  0  0  0  0  0  0
  182.8620  178.8290  141.6460 C   0  0  0  0  0  2  0  0  0  0  0  0
  181.4330  178.5730  141.2060 C   0  0  0  0  0  2  0  0  0  0  0  0
  179.9150  176.3320  138.8730 C   0  0  0  0  0  3  0  0  0  0  0  0
  180.4290  177.5530  139.0960 C   0  0  0  0  0  0  0  0  0  0  0  0
  180.4240  175.0590  139.4750 C   0  0  1  0  0  3  0  0  0  0  0  0
  179.3880  174.4920  140.4280 C   0  0  0  0  0  1  0  0  0  0  0  0
  180.2800  171.9640  137.2870 C   0  0  0  0  0  3  0  0  0  0  0  0
  182.1940  173.2800  136.6040 C   0  0  0  0  0  0  0  0  0  0  0  0
  181.3900  172.1450  136.4580 C   0  0  0  0  0  3  0  0  0  0  0  0
  181.8880  174.2330  137.5810 C   0  0  0  0  0  3  0  0  0  0  0  0
  180.7770  174.0510  138.4200 C   0  0  0  0  0  0  0  0  0  0  0  0
  183.5830  173.5080  135.5650 Cl  0  0  0  0  0  0  0  0  0  0  0  0
  179.9730  172.9160  138.2650 C   0  0  0  0  0  3  0  0  0  0  0  0
  179.9060  178.6820  138.3830 N   0  0  0  0  0  2  0  0  0  0  0  0
  180.6470  179.4280  137.3720 C   0  0  2  0  0  3  0  0  0  0  0  0
  180.9580  180.8000  137.8950 C   0  0  0  0  0  2  0  0  0  0  0  0
  179.7580  179.6990  136.1850 C   0  0  0  0  0  2  0  0  0  0  0  0
  179.6990  181.1430  136.0140 N   0  0  0  0  0  2  0  0  0  0  0  0
  180.0210  181.7140  137.2590 N   0  0  2  0  0  0  0  0  0  0  0  0
  178.9580  183.8140  138.3370 O   0  0  0  0  0  1  0  0  0  0  0  0
  180.7410  182.9550  136.9900 C   0  0  2  0  0  3  0  0  0  0  0  0
  180.1140  184.1340  137.6190 C   0  0  1  0  0  3  0  0  0  0  0  0
  179.8940  183.8560  136.1920 N   0  0  0  0  0  0  0  0  0  0  0  0
  180.7950  184.7250  135.4570 C   0  0  0  0  0  1  0  0  0  0  0  0
  184.6890  179.7630  139.5190 O   0  0  0  0  0  1  0  0  0  0  0  0
  184.9960  178.6230  140.2680 C   0  0  1  0  0  3  0  0  0  0  0  0
  186.0240  177.8750  142.4820 C   0  0  2  0  0  3  0  0  0  0  0  0
  187.4090  177.9290  143.1140 C   0  0  2  0  0  3  0  0  0  0  0  0
  186.0430  178.8950  141.3600 C   0  0  1  0  0  3  0  0  0  0  0  0
  187.5050  179.0530  140.9440 C   0  0  2  0  0  3  0  0  0  0  0  0
  187.9660  178.0090  139.9340 C   0  0  0  0  0  1  0  0  0  0  0  0
  188.2700  178.8280  142.2330 C   0  0  0  0  0  2  0  0  0  0  0  0
  188.0170  176.5360  143.1750 C   0  0  0  0  0  2  0  0  0  0  0  0
  189.2280  176.5510  143.9780 N   0  0  0  0  0  0  0  0  0  0  0  0
  190.5960  176.2250  143.7510 C   0  0  0  0  0  0  0  0  0  0  0  0
  191.8000  176.4820  146.1650 C   0  0  0  0  0  3  0  0  0  0  0  0
  191.2810  175.8670  142.7590 O   0  0  0  0  0  0  0  0  0  0  0  0
  191.3010  176.8350  147.4450 C   0  0  0  0  0  3  0  0  0  0  0  0
  190.8500  176.4690  145.1570 C   0  0  0  0  0  0  0  0  0  0  0  0
  189.5310  176.7670  145.3580 C   0  0  0  0  0  0  0  0  0  0  0  0
  189.9210  177.1440  147.6490 C   0  0  0  0  0  3  0  0  0  0  0  0
  188.9880  177.1140  146.5820 C   0  0  0  0  0  3  0  0  0  0  0  0
  184.9750  178.2300  143.5250 C   0  0  0  0  0  2  0  0  0  0  0  0
  184.5450  178.9850  145.5520 C   0  0  0  0  0  1  0  0  0  0  0  0
  185.5940  178.6000  144.7190 O   0  0  0  0  0  0  0  0  0  0  0  0
  1 29  1  6  0  0  0
  1  4  1  0  0  0  0
  2  3  1  0  0  0  0
  2  1  1  0  0  0  0
  3  5  1  0  0  0  0
  5  4  1  0  0  0  0
  6  7  2  0  0  0  0
  6  8  1  0  0  0  0
  7  3  1  0  0  0  0
  8  9  1  1  0  0  0
 10 16  1  0  0  0  0
 11 13  2  0  0  0  0
 12 11  1  0  0  0  0
 12 10  2  0  0  0  0
 13 14  1  0  0  0  0
 14  8  1  0  0  0  0
 15 11  1  0  0  0  0
 16 14  2  0  0  0  0
 17  7  1  0  0  0  0
 18 19  1  0  0  0  0
 18 17  1  1  0  0  0
 20 18  1  0  0  0  0
 21 20  1  0  0  0  0
 21 22  1  0  0  0  0
 22 19  1  1  0  0  0
 24 26  1  6  0  0  0
 24 22  1  0  0  0  0
 24 25  1  0  0  0  0
 25 23  1  1  0  0  0
 26 25  1  0  0  0  0
 27 26  1  0  0  0  0
 29 28  1  1  0  0  0
 30 31  1  0  0  0  0
 30 46  1  1  0  0  0
 31 36  1  6  0  0  0
 32 29  1  6  0  0  0
 32 30  1  0  0  0  0
 33 34  1  6  0  0  0
 33 32  1  0  0  0  0
 33 35  1  0  0  0  0
 35 31  1  0  0  0  0
 36 37  1  0  0  0  0
 37 43  1  0  0  0  0
 38 37  1  0  0  0  0
 38 42  1  0  0  0  0
 39 41  1  0  0  0  0
 40 38  2  0  0  0  0
 41 44  2  0  0  0  0
 42 43  1  0  0  0  0
 42 39  2  0  0  0  0
 43 45  2  0  0  0  0
 45 44  1  0  0  0  0
 46 48  1  0  0  0  0
 48 47  1  0  0  0  0
M  END
>  <MODEL>
4

>  <REMARK>
 VINA RESULT:      -7.5      5.284      9.437
  Name = 
  12 active torsions:
  status: ('A' for Active; 'I' for Inactive)
    1  A    between atoms: C_1  and  N_16
    2  A    between atoms: C_3  and  C_7
    3  A    between atoms: C_3  and  C_43
    4  A    between atoms: C_4  and  C_35
    5  A    between atoms: N_5  and  C_40
    6  A    between atoms: C_9  and  N_16
    7  A    between atoms: C_9  and  N_22
    8  A    between atoms: O_10  and  C_41
    9  A    between atoms: C_11  and  C_41
   10  A    between atoms: C_17  and  C_40
   11  A    between atoms: C_18  and  N_26
   12  A    between atoms: C_19  and  C_35
                            x       y       z     vdW  Elec       q    Type
                         _______ _______ _______ _____ _____    ______ ____

>  <TORSDO>
F 12

$$$$
=
 OpenBabel11042411183D

 48 54  0  0  1  0  0  0  0  0999 V2000
  189.9120  176.7750  138.8240 C   0  0  2  0  0  3  0  0  0  0  0  0
  189.0570  176.7530  140.0750 C   0  0  0  0  0  2  0  0  0  0  0  0
  188.6740  178.1290  140.3160 N   0  0  0  0  0  0  0  0  0  0  0  0
  189.7120  178.1460  138.1840 C   0  0  0  0  0  2  0  0  0  0  0  0
  189.0580  179.0200  139.2360 C   0  0  0  0  0  2  0  0  0  0  0  0
  188.0500  178.2940  142.6600 C   0  0  0  0  0  3  0  0  0  0  0  0
  187.7570  178.4870  141.3630 C   0  0  0  0  0  0  0  0  0  0  0  0
  189.3020  177.6520  143.1740 C   0  0  1  0  0  3  0  0  0  0  0  0
  190.5050  178.4940  142.7910 C   0  0  0  0  0  1  0  0  0  0  0  0
  187.9750  177.5010  146.7250 C   0  0  0  0  0  3  0  0  0  0  0  0
  190.3080  176.8530  146.7650 C   0  0  0  0  0  0  0  0  0  0  0  0
  189.1050  177.0880  147.4370 C   0  0  0  0  0  3  0  0  0  0  0  0
  190.3820  177.0320  145.3800 C   0  0  0  0  0  3  0  0  0  0  0  0
  189.2510  177.4540  144.6610 C   0  0  0  0  0  0  0  0  0  0  0  0
  191.7220  176.3340  147.6560 Cl  0  0  0  0  0  0  0  0  0  0  0  0
  188.0480  177.6820  145.3390 C   0  0  0  0  0  3  0  0  0  0  0  0
  186.4800  179.0300  141.0000 N   0  0  0  0  0  2  0  0  0  0  0  0
  185.2990  178.2240  140.7120 C   0  0  2  0  0  3  0  0  0  0  0  0
  184.7140  178.6510  139.3970 C   0  0  0  0  0  2  0  0  0  0  0  0
  184.2080  178.5470  141.7010 C   0  0  0  0  0  2  0  0  0  0  0  0
  183.0580  179.0090  140.9370 N   0  0  0  0  0  2  0  0  0  0  0  0
  183.5490  179.4680  139.7010 N   0  0  2  0  0  0  0  0  0  0  0  0
  182.3800  181.5550  138.7120 O   0  0  0  0  0  1  0  0  0  0  0  0
  182.5350  179.1660  138.6960 C   0  0  2  0  0  3  0  0  0  0  0  0
  181.8880  180.3750  138.1490 C   0  0  1  0  0  3  0  0  0  0  0  0
  181.2110  179.5840  139.1870 N   0  0  0  0  0  0  0  0  0  0  0  0
  180.2370  178.7510  138.5050 C   0  0  0  0  0  1  0  0  0  0  0  0
  188.1930  175.6870  137.4870 O   0  0  0  0  0  1  0  0  0  0  0  0
  189.5280  175.6200  137.8970 C   0  0  1  0  0  3  0  0  0  0  0  0
  191.9090  175.0760  137.1520 C   0  0  2  0  0  3  0  0  0  0  0  0
  192.5450  174.3890  135.9510 C   0  0  2  0  0  3  0  0  0  0  0  0
  190.5020  175.4410  136.7200 C   0  0  1  0  0  3  0  0  0  0  0  0
  190.1250  174.4670  135.6050 C   0  0  2  0  0  3  0  0  0  0  0  0
  189.5700  173.1430  136.1150 C   0  0  0  0  0  1  0  0  0  0  0  0
  191.4450  174.1870  134.9140 C   0  0  0  0  0  2  0  0  0  0  0  0
  193.1210  173.0400  136.3570 C   0  0  0  0  0  2  0  0  0  0  0  0
  194.5130  173.1860  136.7480 N   0  0  0  0  0  0  0  0  0  0  0  0
  195.3320  172.6580  137.7860 C   0  0  0  0  0  0  0  0  0  0  0  0
  197.7160  173.9190  137.5240 C   0  0  0  0  0  3  0  0  0  0  0  0
  195.1810  171.8190  138.7100 O   0  0  0  0  0  0  0  0  0  0  0  0
  198.1750  174.9100  136.6190 C   0  0  0  0  0  3  0  0  0  0  0  0
  196.4070  173.5150  137.3250 C   0  0  0  0  0  0  0  0  0  0  0  0
  195.6020  174.0190  136.3420 C   0  0  0  0  0  0  0  0  0  0  0  0
  197.3280  175.4350  135.5940 C   0  0  0  0  0  3  0  0  0  0  0  0
  195.9920  174.9870  135.4340 C   0  0  0  0  0  3  0  0  0  0  0  0
  192.7100  176.3190  137.5090 C   0  0  0  0  0  2  0  0  0  0  0  0
  193.5160  177.1190  139.4000 C   0  0  0  0  0  1  0  0  0  0  0  0
  193.6100  176.0300  138.5350 O   0  0  0  0  0  0  0  0  0  0  0  0
  1 29  1  6  0  0  0
  1  2  1  0  0  0  0
  2  3  1  0  0  0  0
  3  7  1  0  0  0  0
  4  1  1  0  0  0  0
  4  5  1  0  0  0  0
  5  3  1  0  0  0  0
  6  8  1  0  0  0  0
  7  6  2  0  0  0  0
  8  9  1  1  0  0  0
  8 14  1  0  0  0  0
 10 12  1  0  0  0  0
 11 12  2  0  0  0  0
 11 15  1  0  0  0  0
 13 11  1  0  0  0  0
 14 16  1  0  0  0  0
 14 13  2  0  0  0  0
 16 10  2  0  0  0  0
 17  7  1  0  0  0  0
 18 17  1  1  0  0  0
 18 20  1  0  0  0  0
 19 18  1  0  0  0  0
 21 20  1  0  0  0  0
 22 19  1  6  0  0  0
 22 21  1  0  0  0  0
 24 26  1  1  0  0  0
 24 22  1  0  0  0  0
 25 24  1  0  0  0  0
 25 23  1  1  0  0  0
 25 26  1  0  0  0  0
 27 26  1  0  0  0  0
 29 28  1  6  0  0  0
 30 46  1  6  0  0  0
 31 36  1  1  0  0  0
 31 30  1  0  0  0  0
 32 30  1  0  0  0  0
 32 29  1  1  0  0  0
 33 34  1  1  0  0  0
 33 32  1  0  0  0  0
 35 33  1  0  0  0  0
 35 31  1  0  0  0  0
 36 37  1  0  0  0  0
 37 38  1  0  0  0  0
 38 40  2  0  0  0  0
 41 39  2  0  0  0  0
 42 39  1  0  0  0  0
 42 38  1  0  0  0  0
 43 37  1  0  0  0  0
 43 42  2  0  0  0  0
 44 41  1  0  0  0  0
 45 44  2  0  0  0  0
 45 43  1  0  0  0  0
 46 48  1  0  0  0  0
 48 47  1  0  0  0  0
M  END
>  <MODEL>
5

>  <REMARK>
 VINA RESULT:      -7.3      3.597     11.095
  Name = 
  12 active torsions:
  status: ('A' for Active; 'I' for Inactive)
    1  A    between atoms: C_1  and  N_16
    2  A    between atoms: C_3  and  C_7
    3  A    between atoms: C_3  and  C_43
    4  A    between atoms: C_4  and  C_35
    5  A    between atoms: N_5  and  C_40
    6  A    between atoms: C_9  and  N_16
    7  A    between atoms: C_9  and  N_22
    8  A    between atoms: O_10  and  C_41
    9  A    between atoms: C_11  and  C_41
   10  A    between atoms: C_17  and  C_40
   11  A    between atoms: C_18  and  N_26
   12  A    between atoms: C_19  and  C_35
                            x       y       z     vdW  Elec       q    Type
                         _______ _______ _______ _____ _____    ______ ____

>  <TORSDO>
F 12

$$$$
=
 OpenBabel11042411183D

 48 54  0  0  1  0  0  0  0  0999 V2000
  184.4110  178.9820  140.6190 C   0  0  2  0  0  3  0  0  0  0  0  0
  185.7510  178.4420  140.1610 C   0  0  0  0  0  2  0  0  0  0  0  0
  186.6780  178.7220  141.2380 N   0  0  0  0  0  0  0  0  0  0  0  0
  184.5410  179.2610  142.1140 C   0  0  0  0  0  2  0  0  0  0  0  0
  186.0250  179.2390  142.4270 C   0  0  0  0  0  2  0  0  0  0  0  0
  188.6280  177.7310  142.3000 C   0  0  0  0  0  3  0  0  0  0  0  0
  188.0350  178.2490  141.2120 C   0  0  0  0  0  0  0  0  0  0  0  0
  188.0010  177.6280  143.6570 C   0  0  1  0  0  3  0  0  0  0  0  0
  187.0110  176.4780  143.6780 C   0  0  0  0  0  1  0  0  0  0  0  0
  191.2740  176.7780  145.3750 C   0  0  0  0  0  3  0  0  0  0  0  0
  189.7430  177.6260  147.0490 C   0  0  0  0  0  0  0  0  0  0  0  0
  190.9980  177.1170  146.7030 C   0  0  0  0  0  3  0  0  0  0  0  0
  188.7630  177.7970  146.0660 C   0  0  0  0  0  3  0  0  0  0  0  0
  189.0340  177.4520  144.7320 C   0  0  0  0  0  0  0  0  0  0  0  0
  189.3980  178.0520  148.7100 Cl  0  0  0  0  0  0  0  0  0  0  0  0
  190.2940  176.9480  144.3910 C   0  0  0  0  0  3  0  0  0  0  0  0
  188.7810  178.3750  139.9920 N   0  0  0  0  0  2  0  0  0  0  0  0
  188.8170  177.3600  138.9460 C   0  0  2  0  0  3  0  0  0  0  0  0
  190.0060  176.4680  139.1590 C   0  0  0  0  0  2  0  0  0  0  0  0
  189.1010  178.0100  137.6150 C   0  0  0  0  0  2  0  0  0  0  0  0
  190.3180  177.4050  137.0930 N   0  0  0  0  0  2  0  0  0  0  0  0
  191.0170  176.8790  138.1950 N   0  0  2  0  0  0  0  0  0  0  0  0
  193.5710  176.8710  138.6120 O   0  0  0  0  0  1  0  0  0  0  0  0
  191.6940  175.6700  137.7370 C   0  0  2  0  0  3  0  0  0  0  0  0
  193.1480  175.6930  137.9900 C   0  0  1  0  0  3  0  0  0  0  0  0
  192.6290  176.0070  136.6510 N   0  0  0  0  0  0  0  0  0  0  0  0
  192.7850  174.8040  135.8530 C   0  0  0  0  0  1  0  0  0  0  0  0
  182.1130  178.2670  140.9820 O   0  0  0  0  0  1  0  0  0  0  0  0
  183.2960  177.9870  140.2910 C   0  0  1  0  0  3  0  0  0  0  0  0
  182.3840  176.5030  138.4250 C   0  0  2  0  0  3  0  0  0  0  0  0
  181.7370  176.7350  137.0660 C   0  0  2  0  0  3  0  0  0  0  0  0
  183.0730  177.8060  138.7810 C   0  0  1  0  0  3  0  0  0  0  0  0
  182.3390  178.9070  138.0160 C   0  0  2  0  0  3  0  0  0  0  0  0
  181.1000  179.4250  138.7360 C   0  0  0  0  0  1  0  0  0  0  0  0
  181.8880  178.2170  136.7430 C   0  0  0  0  0  2  0  0  0  0  0  0
  180.2610  176.3670  137.1140 C   0  0  0  0  0  2  0  0  0  0  0  0
  180.1050  174.9260  137.2130 N   0  0  0  0  0  0  0  0  0  0  0  0
  179.6460  174.0260  138.2170 C   0  0  0  0  0  0  0  0  0  0  0  0
  180.0840  171.5500  137.2090 C   0  0  0  0  0  3  0  0  0  0  0  0
  179.1410  174.1410  139.3630 O   0  0  0  0  0  0  0  0  0  0  0  0
  180.6490  171.1060  135.9860 C   0  0  0  0  0  3  0  0  0  0  0  0
  180.0250  172.9250  137.3530 C   0  0  0  0  0  0  0  0  0  0  0  0
  180.4720  173.8040  136.4060 C   0  0  0  0  0  0  0  0  0  0  0  0
  181.1160  172.0300  135.0000 C   0  0  0  0  0  3  0  0  0  0  0  0
  181.0340  173.4310  135.1990 C   0  0  0  0  0  3  0  0  0  0  0  0
  183.3880  175.3650  138.3230 C   0  0  0  0  0  2  0  0  0  0  0  0
  184.7110  174.1540  137.0380 C   0  0  0  0  0  1  0  0  0  0  0  0
  183.7830  175.1940  136.9960 O   0  0  0  0  0  0  0  0  0  0  0  0
  1 29  1  1  0  0  0
  1  4  1  0  0  0  0
  2  1  1  0  0  0  0
  2  3  1  0  0  0  0
  3  5  1  0  0  0  0
  4  5  1  0  0  0  0
  6  8  1  0  0  0  0
  7  3  1  0  0  0  0
  7  6  2  0  0  0  0
  8  9  1  6  0  0  0
  8 14  1  0  0  0  0
 10 12  1  0  0  0  0
 11 15  1  0  0  0  0
 12 11  2  0  0  0  0
 13 11  1  0  0  0  0
 14 13  2  0  0  0  0
 16 14  1  0  0  0  0
 16 10  2  0  0  0  0
 17  7  1  0  0  0  0
 18 19  1  0  0  0  0
 18 17  1  1  0  0  0
 20 18  1  0  0  0  0
 21 20  1  0  0  0  0
 21 22  1  0  0  0  0
 22 19  1  1  0  0  0
 24 26  1  6  0  0  0
 24 25  1  0  0  0  0
 24 22  1  0  0  0  0
 25 23  1  1  0  0  0
 26 25  1  0  0  0  0
 27 26  1  0  0  0  0
 29 28  1  1  0  0  0
 30 46  1  6  0  0  0
 30 32  1  0  0  0  0
 31 36  1  1  0  0  0
 31 30  1  0  0  0  0
 32 29  1  1  0  0  0
 33 34  1  1  0  0  0
 33 32  1  0  0  0  0
 35 31  1  0  0  0  0
 35 33  1  0  0  0  0
 36 37  1  0  0  0  0
 37 38  1  0  0  0  0
 38 40  2  0  0  0  0
 39 42  1  0  0  0  0
 41 39  2  0  0  0  0
 42 38  1  0  0  0  0
 43 37  1  0  0  0  0
 43 42  2  0  0  0  0
 44 45  2  0  0  0  0
 44 41  1  0  0  0  0
 45 43  1  0  0  0  0
 48 47  1  0  0  0  0
 48 46  1  0  0  0  0
M  END
>  <MODEL>
6

>  <REMARK>
 VINA RESULT:      -7.1      4.260      9.582
  Name = 
  12 active torsions:
  status: ('A' for Active; 'I' for Inactive)
    1  A    between atoms: C_1  and  N_16
    2  A    between atoms: C_3  and  C_7
    3  A    between atoms: C_3  and  C_43
    4  A    between atoms: C_4  and  C_35
    5  A    between atoms: N_5  and  C_40
    6  A    between atoms: C_9  and  N_16
    7  A    between atoms: C_9  and  N_22
    8  A    between atoms: O_10  and  C_41
    9  A    between atoms: C_11  and  C_41
   10  A    between atoms: C_17  and  C_40
   11  A    between atoms: C_18  and  N_26
   12  A    between atoms: C_19  and  C_35
                            x       y       z     vdW  Elec       q    Type
                         _______ _______ _______ _____ _____    ______ ____

>  <TORSDO>
F 12

$$$$
=
 OpenBabel11042411183D

 48 54  0  0  1  0  0  0  0  0999 V2000
  189.8860  176.7950  138.3550 C   0  0  2  0  0  3  0  0  0  0  0  0
  188.7750  176.7360  139.3840 C   0  0  0  0  0  2  0  0  0  0  0  0
  188.2300  178.0760  139.4540 N   0  0  0  0  0  0  0  0  0  0  0  0
  189.7190  178.1150  137.6080 C   0  0  0  0  0  2  0  0  0  0  0  0
  188.7710  178.9600  138.4370 C   0  0  0  0  0  2  0  0  0  0  0  0
  187.0870  178.2870  141.5890 C   0  0  0  0  0  3  0  0  0  0  0  0
  187.0730  178.3820  140.2490 C   0  0  0  0  0  0  0  0  0  0  0  0
  188.2500  177.8160  142.4080 C   0  0  1  0  0  3  0  0  0  0  0  0
  189.4460  178.7170  142.1660 C   0  0  0  0  0  1  0  0  0  0  0  0
  188.6370  177.4440  146.1630 C   0  0  0  0  0  3  0  0  0  0  0  0
  186.3190  177.9620  145.6930 C   0  0  0  0  0  0  0  0  0  0  0  0
  187.3340  177.6790  146.6110 C   0  0  0  0  0  3  0  0  0  0  0  0
  186.6060  178.0100  144.3250 C   0  0  0  0  0  3  0  0  0  0  0  0
  187.9130  177.7680  143.8700 C   0  0  0  0  0  0  0  0  0  0  0  0
  184.6880  178.2580  146.2540 Cl  0  0  0  0  0  0  0  0  0  0  0  0
  188.9260  177.4910  144.7950 C   0  0  0  0  0  3  0  0  0  0  0  0
  185.8620  178.7600  139.5790 N   0  0  0  0  0  2  0  0  0  0  0  0
  184.6150  179.0860  140.2620 C   0  0  2  0  0  3  0  0  0  0  0  0
  183.8860  177.8170  140.5970 C   0  0  0  0  0  2  0  0  0  0  0  0
  183.6810  179.7870  139.3090 C   0  0  0  0  0  2  0  0  0  0  0  0
  182.4650  178.9890  139.2360 N   0  0  0  0  0  2  0  0  0  0  0  0
  182.8120  177.6820  139.6240 N   0  0  2  0  0  0  0  0  0  0  0  0
  181.9570  175.4450  138.6420 O   0  0  0  0  0  1  0  0  0  0  0  0
  181.6610  177.1210  140.3250 C   0  0  2  0  0  3  0  0  0  0  0  0
  181.1980  175.8450  139.7450 C   0  0  1  0  0  3  0  0  0  0  0  0
  180.4960  177.0970  139.4250 N   0  0  0  0  0  0  0  0  0  0  0  0
  179.3190  177.1410  140.2740 C   0  0  0  0  0  1  0  0  0  0  0  0
  188.6060  175.4840  136.7510 O   0  0  0  0  0  1  0  0  0  0  0  0
  189.8240  175.5750  137.4340 C   0  0  1  0  0  3  0  0  0  0  0  0
  192.3400  175.1960  137.2310 C   0  0  2  0  0  3  0  0  0  0  0  0
  193.2660  174.5520  136.2070 C   0  0  2  0  0  3  0  0  0  0  0  0
  191.0390  175.4610  136.4990 C   0  0  1  0  0  3  0  0  0  0  0  0
  190.9790  174.4600  135.3460 C   0  0  2  0  0  3  0  0  0  0  0  0
  190.4170  173.1020  135.7480 C   0  0  0  0  0  1  0  0  0  0  0  0
  192.4330  174.2700  134.9620 C   0  0  0  0  0  2  0  0  0  0  0  0
  193.8300  173.2480  136.7520 C   0  0  0  0  0  2  0  0  0  0  0  0
  195.2340  173.4110  137.0910 N   0  0  0  0  0  0  0  0  0  0  0  0
  195.9590  173.7060  138.2810 C   0  0  0  0  0  0  0  0  0  0  0  0
  198.5410  173.9540  137.4990 C   0  0  0  0  0  3  0  0  0  0  0  0
  195.6670  173.8680  139.4930 O   0  0  0  0  0  0  0  0  0  0  0  0
  199.1650  173.8560  136.2290 C   0  0  0  0  0  3  0  0  0  0  0  0
  197.1720  173.7510  137.4880 C   0  0  0  0  0  0  0  0  0  0  0  0
  196.4580  173.4800  136.3550 C   0  0  0  0  0  0  0  0  0  0  0  0
  198.4130  173.5730  135.0470 C   0  0  0  0  0  3  0  0  0  0  0  0
  197.0100  173.3760  135.0910 C   0  0  0  0  0  3  0  0  0  0  0  0
  192.9590  176.4920  137.7300 C   0  0  0  0  0  2  0  0  0  0  0  0
  193.3500  177.2320  139.7710 C   0  0  0  0  0  1  0  0  0  0  0  0
  193.7350  176.2470  138.8630 O   0  0  0  0  0  0  0  0  0  0  0  0
  1 29  1  6  0  0  0
  1  2  1  0  0  0  0
  2  3  1  0  0  0  0
  3  7  1  0  0  0  0
  4  1  1  0  0  0  0
  4  5  1  0  0  0  0
  5  3  1  0  0  0  0
  6  8  1  0  0  0  0
  7  6  2  0  0  0  0
  8  9  1  1  0  0  0
  8 14  1  0  0  0  0
 10 12  1  0  0  0  0
 11 15  1  0  0  0  0
 11 12  2  0  0  0  0
 13 11  1  0  0  0  0
 14 13  2  0  0  0  0
 14 16  1  0  0  0  0
 16 10  2  0  0  0  0
 17  7  1  0  0  0  0
 18 17  1  6  0  0  0
 18 19  1  0  0  0  0
 20 18  1  0  0  0  0
 21 20  1  0  0  0  0
 21 22  1  0  0  0  0
 22 24  1  0  0  0  0
 22 19  1  1  0  0  0
 24 26  1  6  0  0  0
 25 23  1  6  0  0  0
 25 24  1  0  0  0  0
 26 25  1  0  0  0  0
 26 27  1  0  0  0  0
 29 28  1  6  0  0  0
 30 46  1  6  0  0  0
 31 36  1  1  0  0  0
 31 30  1  0  0  0  0
 32 30  1  0  0  0  0
 32 29  1  1  0  0  0
 33 34  1  1  0  0  0
 33 32  1  0  0  0  0
 35 33  1  0  0  0  0
 35 31  1  0  0  0  0
 36 37  1  0  0  0  0
 37 38  1  0  0  0  0
 38 40  2  0  0  0  0
 41 39  2  0  0  0  0
 42 39  1  0  0  0  0
 42 38  1  0  0  0  0
 43 37  1  0  0  0  0
 43 42  2  0  0  0  0
 44 45  2  0  0  0  0
 44 41  1  0  0  0  0
 45 43  1  0  0  0  0
 46 48  1  0  0  0  0
 48 47  1  0  0  0  0
M  END
>  <MODEL>
7

>  <REMARK>
 VINA RESULT:      -7.1      3.591     10.981
  Name = 
  12 active torsions:
  status: ('A' for Active; 'I' for Inactive)
    1  A    between atoms: C_1  and  N_16
    2  A    between atoms: C_3  and  C_7
    3  A    between atoms: C_3  and  C_43
    4  A    between atoms: C_4  and  C_35
    5  A    between atoms: N_5  and  C_40
    6  A    between atoms: C_9  and  N_16
    7  A    between atoms: C_9  and  N_22
    8  A    between atoms: O_10  and  C_41
    9  A    between atoms: C_11  and  C_41
   10  A    between atoms: C_17  and  C_40
   11  A    between atoms: C_18  and  N_26
   12  A    between atoms: C_19  and  C_35
                            x       y       z     vdW  Elec       q    Type
                         _______ _______ _______ _____ _____    ______ ____

>  <TORSDO>
F 12

$$$$
=
 OpenBabel11042411183D

 48 54  0  0  1  0  0  0  0  0999 V2000
  183.2260  179.2400  142.4650 C   0  0  2  0  0  3  0  0  0  0  0  0
  184.4860  178.6090  141.9060 C   0  0  0  0  0  2  0  0  0  0  0  0
  185.4790  178.7180  142.9550 N   0  0  0  0  0  0  0  0  0  0  0  0
  183.4440  179.3940  143.9670 C   0  0  0  0  0  2  0  0  0  0  0  0
  184.9300  179.2060  144.2060 C   0  0  0  0  0  2  0  0  0  0  0  0
  187.4700  177.6920  143.9000 C   0  0  0  0  0  3  0  0  0  0  0  0
  186.7800  178.1200  142.8300 C   0  0  0  0  0  0  0  0  0  0  0  0
  187.0220  177.8230  145.3230 C   0  0  1  0  0  3  0  0  0  0  0  0
  185.9940  176.7520  145.6380 C   0  0  0  0  0  1  0  0  0  0  0  0
  189.1020  178.1920  148.4740 C   0  0  0  0  0  3  0  0  0  0  0  0
  190.4510  177.0640  146.8100 C   0  0  0  0  0  0  0  0  0  0  0  0
  190.3070  177.5940  148.0960 C   0  0  0  0  0  3  0  0  0  0  0  0
  189.3890  177.1320  145.9020 C   0  0  0  0  0  3  0  0  0  0  0  0
  188.1790  177.7380  146.2770 C   0  0  0  0  0  0  0  0  0  0  0  0
  191.9590  176.3140  146.3360 Cl  0  0  0  0  0  0  0  0  0  0  0  0
  188.0390  178.2620  147.5670 C   0  0  0  0  0  3  0  0  0  0  0  0
  187.3650  178.0180  141.5240 N   0  0  0  0  0  2  0  0  0  0  0  0
  188.7830  178.2120  141.2430 C   0  0  2  0  0  3  0  0  0  0  0  0
  188.9990  178.2140  139.7570 C   0  0  0  0  0  2  0  0  0  0  0  0
  189.5640  177.0100  141.7090 C   0  0  0  0  0  2  0  0  0  0  0  0
  190.2580  176.4720  140.5480 N   0  0  0  0  0  2  0  0  0  0  0  0
  189.5540  176.9140  139.4120 N   0  0  2  0  0  0  0  0  0  0  0  0
  189.2100  175.4190  137.3270 O   0  0  0  0  0  1  0  0  0  0  0  0
  190.5350  177.1280  138.3540 C   0  0  2  0  0  3  0  0  0  0  0  0
  190.3130  176.2650  137.1770 C   0  0  1  0  0  3  0  0  0  0  0  0
  191.3380  175.9090  138.1680 N   0  0  0  0  0  0  0  0  0  0  0  0
  192.6130  176.3340  137.6170 C   0  0  0  0  0  1  0  0  0  0  0  0
  180.9150  178.6530  142.9560 O   0  0  0  0  0  1  0  0  0  0  0  0
  182.0050  178.3850  142.1220 C   0  0  1  0  0  3  0  0  0  0  0  0
  181.3360  177.0640  140.0420 C   0  0  2  0  0  3  0  0  0  0  0  0
  180.4630  177.3230  138.8210 C   0  0  2  0  0  3  0  0  0  0  0  0
  181.6360  178.4290  140.6300 C   0  0  1  0  0  3  0  0  0  0  0  0
  180.4980  179.3500  140.1890 C   0  0  2  0  0  3  0  0  0  0  0  0
  179.2760  179.2840  141.0950 C   0  0  0  0  0  1  0  0  0  0  0  0
  180.1040  178.8050  138.8300 C   0  0  0  0  0  2  0  0  0  0  0  0
  179.1930  176.4870  138.8930 C   0  0  0  0  0  2  0  0  0  0  0  0
  179.4930  175.0930  138.6150 N   0  0  0  0  0  0  0  0  0  0  0  0
  179.6760  173.9210  139.4050 C   0  0  0  0  0  0  0  0  0  0  0  0
  180.4220  171.9920  137.6550 C   0  0  0  0  0  3  0  0  0  0  0  0
  179.5810  173.6380  140.6260 O   0  0  0  0  0  0  0  0  0  0  0  0
  180.6380  172.0100  136.2530 C   0  0  0  0  0  3  0  0  0  0  0  0
  180.0310  173.2050  138.1950 C   0  0  0  0  0  0  0  0  0  0  0  0
  179.8630  174.3420  137.4560 C   0  0  0  0  0  0  0  0  0  0  0  0
  180.4610  173.2020  135.4850 C   0  0  0  0  0  3  0  0  0  0  0  0
  180.0610  174.4210  136.0890 C   0  0  0  0  0  3  0  0  0  0  0  0
  182.6150  176.3620  139.6120 C   0  0  0  0  0  2  0  0  0  0  0  0
  183.4270  175.1360  137.9690 C   0  0  0  0  0  1  0  0  0  0  0  0
  182.6710  176.2800  138.2210 O   0  0  0  0  0  0  0  0  0  0  0  0
  1 29  1  1  0  0  0
  1  4  1  0  0  0  0
  2  1  1  0  0  0  0
  2  3  1  0  0  0  0
  3  5  1  0  0  0  0
  4  5  1  0  0  0  0
  6  8  1  0  0  0  0
  7  3  1  0  0  0  0
  7  6  2  0  0  0  0
  8  9  1  1  0  0  0
  8 14  1  0  0  0  0
 11 12  2  0  0  0  0
 12 10  1  0  0  0  0
 13 14  2  0  0  0  0
 13 11  1  0  0  0  0
 14 16  1  0  0  0  0
 15 11  1  0  0  0  0
 16 10  2  0  0  0  0
 17  7  1  0  0  0  0
 18 17  1  6  0  0  0
 18 20  1  0  0  0  0
 19 18  1  0  0  0  0
 21 20  1  0  0  0  0
 22 19  1  1  0  0  0
 22 21  1  0  0  0  0
 24 26  1  1  0  0  0
 24 22  1  0  0  0  0
 25 23  1  1  0  0  0
 25 26  1  0  0  0  0
 25 24  1  0  0  0  0
 27 26  1  0  0  0  0
 29 28  1  1  0  0  0
 30 46  1  6  0  0  0
 30 32  1  0  0  0  0
 31 35  1  0  0  0  0
 31 36  1  1  0  0  0
 31 30  1  0  0  0  0
 32 29  1  1  0  0  0
 33 32  1  0  0  0  0
 33 34  1  1  0  0  0
 35 33  1  0  0  0  0
 37 36  1  0  0  0  0
 37 38  1  0  0  0  0
 38 40  2  0  0  0  0
 39 42  1  0  0  0  0
 41 39  2  0  0  0  0
 42 38  1  0  0  0  0
 43 42  2  0  0  0  0
 43 37  1  0  0  0  0
 44 45  2  0  0  0  0
 44 41  1  0  0  0  0
 45 43  1  0  0  0  0
 47 48  1  0  0  0  0
 48 46  1  0  0  0  0
M  END
>  <MODEL>
8

>  <REMARK>
 VINA RESULT:      -7.0      4.478     10.281
  Name = 
  12 active torsions:
  status: ('A' for Active; 'I' for Inactive)
    1  A    between atoms: C_1  and  N_16
    2  A    between atoms: C_3  and  C_7
    3  A    between atoms: C_3  and  C_43
    4  A    between atoms: C_4  and  C_35
    5  A    between atoms: N_5  and  C_40
    6  A    between atoms: C_9  and  N_16
    7  A    between atoms: C_9  and  N_22
    8  A    between atoms: O_10  and  C_41
    9  A    between atoms: C_11  and  C_41
   10  A    between atoms: C_17  and  C_40
   11  A    between atoms: C_18  and  N_26
   12  A    between atoms: C_19  and  C_35
                            x       y       z     vdW  Elec       q    Type
                         _______ _______ _______ _____ _____    ______ ____

>  <TORSDO>
F 12

$$$$
=
 OpenBabel11042411183D

 48 54  0  0  1  0  0  0  0  0999 V2000
  184.6890  177.2800  137.0180 C   0  0  2  0  0  3  0  0  0  0  0  0
  183.9200  178.2270  137.9180 C   0  0  0  0  0  2  0  0  0  0  0  0
  183.1550  177.3840  138.8130 N   0  0  0  0  0  0  0  0  0  0  0  0
  184.5950  175.8980  137.6570 C   0  0  0  0  0  2  0  0  0  0  0  0
  183.4890  175.9770  138.6910 C   0  0  0  0  0  2  0  0  0  0  0  0
  182.9430  178.2600  141.0710 C   0  0  0  0  0  3  0  0  0  0  0  0
  182.3830  177.9340  139.8940 C   0  0  0  0  0  0  0  0  0  0  0  0
  184.3840  178.0550  141.4270 C   0  0  1  0  0  3  0  0  0  0  0  0
  185.2520  178.9990  140.6160 C   0  0  0  0  0  1  0  0  0  0  0  0
  183.8020  178.9790  145.0600 C   0  0  0  0  0  3  0  0  0  0  0  0
  186.0430  178.0830  144.8610 C   0  0  0  0  0  0  0  0  0  0  0  0
  185.0220  178.6270  145.6450 C   0  0  0  0  0  3  0  0  0  0  0  0
  185.8450  177.8920  143.4890 C   0  0  0  0  0  3  0  0  0  0  0  0
  184.6230  178.2510  142.8960 C   0  0  0  0  0  0  0  0  0  0  0  0
  187.5690  177.6400  145.5930 Cl  0  0  0  0  0  0  0  0  0  0  0  0
  183.6030  178.7900  143.6880 C   0  0  0  0  0  3  0  0  0  0  0  0
  180.9700  178.0970  139.7140 N   0  0  0  0  0  2  0  0  0  0  0  0
  180.3350  179.3390  139.2870 C   0  0  2  0  0  3  0  0  0  0  0  0
  179.8050  179.1720  137.8920 C   0  0  0  0  0  2  0  0  0  0  0  0
  181.3770  180.4180  139.1390 C   0  0  0  0  0  2  0  0  0  0  0  0
  181.3180  180.8850  137.7610 N   0  0  0  0  0  2  0  0  0  0  0  0
  180.7380  179.8500  137.0050 N   0  0  2  0  0  0  0  0  0  0  0  0
  181.4850  179.2200  134.6080 O   0  0  0  0  0  1  0  0  0  0  0  0
  179.9520  180.4790  135.9480 C   0  0  2  0  0  3  0  0  0  0  0  0
  180.3980  180.0990  134.5940 C   0  0  1  0  0  3  0  0  0  0  0  0
  180.8060  181.3890  135.1690 N   0  0  0  0  0  0  0  0  0  0  0  0
  179.9270  182.3940  134.5990 C   0  0  0  0  0  1  0  0  0  0  0  0
  186.3130  179.0710  137.3060 O   0  0  0  0  0  1  0  0  0  0  0  0
  186.1300  177.7630  136.8450 C   0  0  1  0  0  3  0  0  0  0  0  0
  188.1930  176.3280  136.3930 C   0  0  2  0  0  3  0  0  0  0  0  0
  189.4080  175.8830  137.1960 C   0  0  2  0  0  3  0  0  0  0  0  0
  187.1690  176.7820  137.4150 C   0  0  1  0  0  3  0  0  0  0  0  0
  187.9520  177.1940  138.6600 C   0  0  2  0  0  3  0  0  0  0  0  0
  188.4630  178.6290  138.6100 C   0  0  0  0  0  1  0  0  0  0  0  0
  189.1520  176.2680  138.6490 C   0  0  0  0  0  2  0  0  0  0  0  0
  190.6600  176.5860  136.6920 C   0  0  0  0  0  2  0  0  0  0  0  0
  191.8420  175.8070  137.0260 N   0  0  0  0  0  0  0  0  0  0  0  0
  193.0650  176.0680  137.7080 C   0  0  0  0  0  0  0  0  0  0  0  0
  194.5260  173.8030  137.4420 C   0  0  0  0  0  3  0  0  0  0  0  0
  193.5540  177.0440  138.3330 O   0  0  0  0  0  0  0  0  0  0  0  0
  194.2650  172.5720  136.7860 C   0  0  0  0  0  3  0  0  0  0  0  0
  193.5040  174.7320  137.3570 C   0  0  0  0  0  0  0  0  0  0  0  0
  192.3290  174.5040  136.6970 C   0  0  0  0  0  0  0  0  0  0  0  0
  193.0350  172.3410  136.0960 C   0  0  0  0  0  3  0  0  0  0  0  0
  192.0190  173.3280  136.0380 C   0  0  0  0  0  3  0  0  0  0  0  0
  187.6670  175.1570  135.5770 C   0  0  0  0  0  2  0  0  0  0  0  0
  187.5790  172.9640  135.3620 C   0  0  0  0  0  1  0  0  0  0  0  0
  188.3340  173.9860  135.9360 O   0  0  0  0  0  0  0  0  0  0  0  0
  1 29  1  1  0  0  0
  1  4  1  0  0  0  0
  1  2  1  0  0  0  0
  2  3  1  0  0  0  0
  3  7  1  0  0  0  0
  4  5  1  0  0  0  0
  5  3  1  0  0  0  0
  6  8  1  0  0  0  0
  7  6  2  0  0  0  0
  8  9  1  6  0  0  0
  8 14  1  0  0  0  0
 10 12  1  0  0  0  0
 11 15  1  0  0  0  0
 11 12  2  0  0  0  0
 13 11  1  0  0  0  0
 14 13  2  0  0  0  0
 14 16  1  0  0  0  0
 16 10  2  0  0  0  0
 17  7  1  0  0  0  0
 18 17  1  6  0  0  0
 19 18  1  0  0  0  0
 20 18  1  0  0  0  0
 21 20  1  0  0  0  0
 22 21  1  0  0  0  0
 22 19  1  1  0  0  0
 24 26  1  6  0  0  0
 24 22  1  0  0  0  0
 25 23  1  1  0  0  0
 25 26  1  0  0  0  0
 25 24  1  0  0  0  0
 27 26  1  0  0  0  0
 29 28  1  1  0  0  0
 30 46  1  1  0  0  0
 30 31  1  0  0  0  0
 30 32  1  0  0  0  0
 31 36  1  6  0  0  0
 31 35  1  0  0  0  0
 32 29  1  6  0  0  0
 32 33  1  0  0  0  0
 33 34  1  6  0  0  0
 35 33  1  0  0  0  0
 36 37  1  0  0  0  0
 37 38  1  0  0  0  0
 38 40  2  0  0  0  0
 41 39  2  0  0  0  0
 42 39  1  0  0  0  0
 42 38  1  0  0  0  0
 43 37  1  0  0  0  0
 43 42  2  0  0  0  0
 44 41  1  0  0  0  0
 45 44  2  0  0  0  0
 45 43  1  0  0  0  0
 46 48  1  0  0  0  0
 47 48  1  0  0  0  0
M  END
>  <MODEL>
9

>  <REMARK>
 VINA RESULT:      -6.9      4.790     10.948
  Name = 
  12 active torsions:
  status: ('A' for Active; 'I' for Inactive)
    1  A    between atoms: C_1  and  N_16
    2  A    between atoms: C_3  and  C_7
    3  A    between atoms: C_3  and  C_43
    4  A    between atoms: C_4  and  C_35
    5  A    between atoms: N_5  and  C_40
    6  A    between atoms: C_9  and  N_16
    7  A    between atoms: C_9  and  N_22
    8  A    between atoms: O_10  and  C_41
    9  A    between atoms: C_11  and  C_41
   10  A    between atoms: C_17  and  C_40
   11  A    between atoms: C_18  and  N_26
   12  A    between atoms: C_19  and  C_35
                            x       y       z     vdW  Elec       q    Type
                         _______ _______ _______ _____ _____    ______ ____

>  <TORSDO>
F 12

$$$$
