=
 OpenBabel11042412343D

 41 44  0  0  1  0  0  0  0  0999 V2000
  183.6530  178.7520  142.4990 N   0  0  0  0  0  0  0  0  0  0  0  0
  181.6490  179.8350  142.9990 O   0  0  0  0  0  1  0  0  0  0  0  0
  182.2020  178.7020  142.3980 C   0  0  1  0  0  3  0  0  0  0  0  0
  180.7460  178.7170  140.4480 N   0  0  0  0  0  0  0  0  0  0  0  0
  181.9500  178.7400  140.9400 C   0  0  0  0  0  0  0  0  0  0  0  0
  184.3190  178.8400  141.2020 C   0  0  0  0  0  2  0  0  0  0  0  0
  183.2210  178.7740  140.1460 C   0  0  1  0  0  3  0  0  0  0  0  0
  184.2100  177.5510  138.1200 C   0  0  0  0  0  0  0  0  0  0  0  0
  183.7660  174.0920  136.9970 F   0  0  0  0  0  0  0  0  0  0  0  0
  184.8670  178.6710  137.7250 F   0  0  0  0  0  0  0  0  0  0  0  0
  185.1240  176.3750  136.2550 F   0  0  0  0  0  0  0  0  0  0  0  0
  183.6500  175.2230  137.7350 C   0  0  0  0  0  0  0  0  0  0  0  0
  184.3350  176.3830  137.3590 C   0  0  0  0  0  0  0  0  0  0  0  0
  183.4080  177.5530  139.2820 C   0  0  0  0  0  0  0  0  0  0  0  0
  182.8400  175.2290  138.8720 C   0  0  0  0  0  3  0  0  0  0  0  0
  182.7170  176.3900  139.6380 C   0  0  0  0  0  3  0  0  0  0  0  0
  184.3730  178.6060  143.7350 C   0  0  0  0  0  0  0  0  0  0  0  0
  184.4080  178.6050  146.1660 C   0  0  0  0  0  3  0  0  0  0  0  0
  185.7510  178.3340  143.7330 C   0  0  0  0  0  3  0  0  0  0  0  0
  185.7770  178.3320  146.1490 C   0  0  0  0  0  3  0  0  0  0  0  0
  186.4580  178.1930  144.9300 C   0  0  0  0  0  0  0  0  0  0  0  0
  183.7080  178.7400  144.9640 C   0  0  0  0  0  3  0  0  0  0  0  0
  187.8300  176.0460  143.4560 O   0  0  0  0  0  0  0  0  0  0  0  0
  187.8640  177.9180  144.8740 N   0  0  0  0  0  2  0  0  0  0  0  0
  188.5020  176.8510  144.1550 C   0  0  0  0  0  0  0  0  0  0  0  0
  189.9140  176.6820  144.2390 N   0  0  0  0  0  2  0  0  0  0  0  0
  190.6990  177.5300  145.0300 N   0  0  0  0  0  2  0  0  0  0  0  0
  190.9220  176.7290  147.0370 C   0  0  0  0  0  1  0  0  0  0  0  0
  191.5050  176.7350  145.7710 O   0  0  0  0  0  0  0  0  0  0  0  0
  180.3870  178.8340  139.0630 C   0  0  0  0  0  0  0  0  0  0  0  0
  180.0710  177.8120  138.3940 O   0  0  0  0  0  0  0  0  0  0  0  0
  180.2820  181.3230  139.1550 C   0  0  0  0  0  3  0  0  0  0  0  0
  180.6240  181.4900  136.3790 C   0  0  0  0  0  0  0  0  0  0  0  0
  180.4830  182.6780  137.1400 C   0  0  0  0  0  0  0  0  0  0  0  0
  180.3080  182.5690  138.5280 C   0  0  0  0  0  3  0  0  0  0  0  0
  180.5990  180.2470  137.0180 C   0  0  0  0  0  3  0  0  0  0  0  0
  180.7900  181.4900  134.8970 C   0  0  0  0  0  1  0  0  0  0  0  0
  180.4310  180.1520  138.4050 C   0  0  0  0  0  0  0  0  0  0  0  0
  179.3220  184.5960  136.1810 O   0  0  0  0  0  0  0  0  0  0  0  0
  180.5030  183.9950  136.5510 N   0  0  0  0  0  0  0  0  0  0  0  0
  181.5650  184.6400  136.4260 O   0  0  0  0  0  0  0  0  0  0  0  0
  1 17  1  0  0  0  0
  3  1  1  0  0  0  0
  3  2  1  1  0  0  0
  4  5  2  0  0  0  0
  5  3  1  0  0  0  0
  6  1  1  0  0  0  0
  7 14  1  1  0  0  0
  7  5  1  0  0  0  0
  7  6  1  0  0  0  0
  8 14  1  0  0  0  0
  9 12  1  0  0  0  0
 10  8  1  0  0  0  0
 11 13  1  0  0  0  0
 12 15  2  0  0  0  0
 13 12  1  0  0  0  0
 13  8  2  0  0  0  0
 14 16  2  0  0  0  0
 15 16  1  0  0  0  0
 17 22  1  0  0  0  0
 19 17  2  0  0  0  0
 19 21  1  0  0  0  0
 20 18  1  0  0  0  0
 21 20  2  0  0  0  0
 22 18  2  0  0  0  0
 23 25  2  0  0  0  0
 24 21  1  0  0  0  0
 25 26  1  0  0  0  0
 25 24  1  0  0  0  0
 26 27  1  0  0  0  0
 27 29  1  0  0  0  0
 29 28  1  0  0  0  0
 30  4  1  0  0  0  0
 31 30  2  0  0  0  0
 33 36  2  0  0  0  0
 33 34  1  0  0  0  0
 34 35  2  0  0  0  0
 35 32  1  0  0  0  0
 36 38  1  0  0  0  0
 37 33  1  0  0  0  0
 38 30  1  0  0  0  0
 38 32  2  0  0  0  0
 39 40  2  0  0  0  0
 40 34  1  0  0  0  0
 41 40  2  0  0  0  0
M  END
>  <MODEL>
1

>  <REMARK>
 VINA RESULT:      -8.8      0.000      0.000
  Name = 
  8 active torsions:
  status: ('A' for Active; 'I' for Inactive)
    1  A    between atoms: N_4  and  C_19
    2  A    between atoms: N_5  and  C_15
    3  A    between atoms: N_12  and  C_35
    4  A    between atoms: C_17  and  C_40
    5  A    between atoms: O_18  and  N_21
    6  A    between atoms: N_21  and  N_41
    7  A    between atoms: N_25  and  C_32
    8  A    between atoms: C_35  and  C_38
                            x       y       z     vdW  Elec       q    Type
                         _______ _______ _______ _____ _____    ______ ____

>  <TORSDO>
F 8

$$$$
=
 OpenBabel11042412343D

 41 44  0  0  1  0  0  0  0  0999 V2000
  190.4350  176.7370  138.3720 N   0  0  0  0  0  0  0  0  0  0  0  0
  188.8270  178.0870  137.3560 O   0  0  0  0  0  1  0  0  0  0  0  0
  189.7260  178.0070  138.4230 C   0  0  1  0  0  3  0  0  0  0  0  0
  188.2090  178.9120  140.0960 N   0  0  0  0  0  0  0  0  0  0  0  0
  188.9780  177.9410  139.6980 C   0  0  0  0  0  0  0  0  0  0  0  0
  190.1610  175.8770  139.5210 C   0  0  0  0  0  2  0  0  0  0  0  0
  189.2450  176.6700  140.4480 C   0  0  1  0  0  3  0  0  0  0  0  0
  189.3510  176.5220  143.0050 C   0  0  0  0  0  0  0  0  0  0  0  0
  191.9390  177.6620  145.3350 F   0  0  0  0  0  0  0  0  0  0  0  0
  188.1380  175.9150  143.0520 F   0  0  0  0  0  0  0  0  0  0  0  0
  189.4930  176.3870  145.3840 F   0  0  0  0  0  0  0  0  0  0  0  0
  191.2770  177.4150  144.1790 C   0  0  0  0  0  0  0  0  0  0  0  0
  190.0350  176.7720  144.2010 C   0  0  0  0  0  0  0  0  0  0  0  0
  189.9250  176.9010  141.7720 C   0  0  0  0  0  0  0  0  0  0  0  0
  191.8370  177.8090  142.9620 C   0  0  0  0  0  3  0  0  0  0  0  0
  191.1610  177.5570  141.7660 C   0  0  0  0  0  3  0  0  0  0  0  0
  191.4030  176.4020  137.3630 C   0  0  0  0  0  0  0  0  0  0  0  0
  191.9590  175.9720  135.0370 C   0  0  0  0  0  3  0  0  0  0  0  0
  192.7430  176.1620  137.7100 C   0  0  0  0  0  3  0  0  0  0  0  0
  193.2880  175.7380  135.3940 C   0  0  0  0  0  3  0  0  0  0  0  0
  193.6900  175.8340  136.7350 C   0  0  0  0  0  0  0  0  0  0  0  0
  191.0210  176.3030  136.0160 C   0  0  0  0  0  3  0  0  0  0  0  0
  194.7470  173.5740  138.2970 O   0  0  0  0  0  0  0  0  0  0  0  0
  195.0450  175.5960  137.1410 N   0  0  0  0  0  2  0  0  0  0  0  0
  195.5270  174.4880  137.9170 C   0  0  0  0  0  0  0  0  0  0  0  0
  196.9020  174.4200  138.2800 N   0  0  0  0  0  2  0  0  0  0  0  0
  197.8000  175.4280  137.9100 N   0  0  0  0  0  2  0  0  0  0  0  0
  197.8910  175.2580  140.0740 C   0  0  0  0  0  1  0  0  0  0  0  0
  198.6440  175.5990  138.9530 O   0  0  0  0  0  0  0  0  0  0  0  0
  187.3780  178.9170  141.2670 C   0  0  0  0  0  0  0  0  0  0  0  0
  187.8900  178.9960  142.4160 O   0  0  0  0  0  0  0  0  0  0  0  0
  185.3380  178.6280  139.8640 C   0  0  0  0  0  3  0  0  0  0  0  0
  183.7000  178.7340  142.1350 C   0  0  0  0  0  0  0  0  0  0  0  0
  183.1130  178.5650  140.8550 C   0  0  0  0  0  0  0  0  0  0  0  0
  183.9520  178.5190  139.7320 C   0  0  0  0  0  3  0  0  0  0  0  0
  185.0880  178.8400  142.2550 C   0  0  0  0  0  3  0  0  0  0  0  0
  182.8990  178.8210  143.3900 C   0  0  0  0  0  1  0  0  0  0  0  0
  185.9160  178.7860  141.1270 C   0  0  0  0  0  0  0  0  0  0  0  0
  180.9070  179.5760  140.6080 O   0  0  0  0  0  0  0  0  0  0  0  0
  181.6900  178.4440  140.6540 N   0  0  0  0  0  0  0  0  0  0  0  0
  181.1480  177.3380  140.4520 O   0  0  0  0  0  0  0  0  0  0  0  0
  1  3  1  0  0  0  0
  1  6  1  0  0  0  0
  3  2  1  6  0  0  0
  3  5  1  0  0  0  0
  4 30  1  0  0  0  0
  5  4  2  0  0  0  0
  5  7  1  0  0  0  0
  6  7  1  0  0  0  0
  7 14  1  1  0  0  0
  8 10  1  0  0  0  0
  8 13  1  0  0  0  0
 12 13  2  0  0  0  0
 12  9  1  0  0  0  0
 13 11  1  0  0  0  0
 14  8  2  0  0  0  0
 15 12  1  0  0  0  0
 16 14  1  0  0  0  0
 16 15  2  0  0  0  0
 17 19  1  0  0  0  0
 17  1  1  0  0  0  0
 18 20  2  0  0  0  0
 18 22  1  0  0  0  0
 20 21  1  0  0  0  0
 21 24  1  0  0  0  0
 21 19  2  0  0  0  0
 22 17  2  0  0  0  0
 24 25  1  0  0  0  0
 25 26  1  0  0  0  0
 25 23  2  0  0  0  0
 27 26  1  0  0  0  0
 27 29  1  0  0  0  0
 29 28  1  0  0  0  0
 30 31  2  0  0  0  0
 32 38  1  0  0  0  0
 33 36  1  0  0  0  0
 33 37  1  0  0  0  0
 34 33  2  0  0  0  0
 35 32  2  0  0  0  0
 35 34  1  0  0  0  0
 38 30  1  0  0  0  0
 38 36  2  0  0  0  0
 39 40  2  0  0  0  0
 40 34  1  0  0  0  0
 41 40  2  0  0  0  0
M  END
>  <MODEL>
2

>  <REMARK>
 VINA RESULT:      -8.1      6.149      8.982
  Name = 
  8 active torsions:
  status: ('A' for Active; 'I' for Inactive)
    1  A    between atoms: N_4  and  C_19
    2  A    between atoms: N_5  and  C_15
    3  A    between atoms: N_12  and  C_35
    4  A    between atoms: C_17  and  C_40
    5  A    between atoms: O_18  and  N_21
    6  A    between atoms: N_21  and  N_41
    7  A    between atoms: N_25  and  C_32
    8  A    between atoms: C_35  and  C_38
                            x       y       z     vdW  Elec       q    Type
                         _______ _______ _______ _____ _____    ______ ____

>  <TORSDO>
F 8

$$$$
=
 OpenBabel11042412343D

 41 44  0  0  1  0  0  0  0  0999 V2000
  188.7790  177.4310  141.2730 N   0  0  0  0  0  0  0  0  0  0  0  0
  187.4190  178.7190  139.8840 O   0  0  0  0  0  1  0  0  0  0  0  0
  188.0090  178.6600  141.1480 C   0  0  1  0  0  3  0  0  0  0  0  0
  186.0570  179.4410  142.3720 N   0  0  0  0  0  0  0  0  0  0  0  0
  186.9590  178.5220  142.1810 C   0  0  0  0  0  0  0  0  0  0  0  0
  188.2640  176.5300  142.3000 C   0  0  0  0  0  2  0  0  0  0  0  0
  187.0930  177.2500  142.9620 C   0  0  1  0  0  3  0  0  0  0  0  0
  188.6560  177.8880  144.8920 C   0  0  0  0  0  0  0  0  0  0  0  0
  188.0240  178.0330  148.4980 F   0  0  0  0  0  0  0  0  0  0  0  0
  189.6850  178.0960  144.0320 F   0  0  0  0  0  0  0  0  0  0  0  0
  190.0760  178.4920  146.7130 F   0  0  0  0  0  0  0  0  0  0  0  0
  187.8240  177.8520  147.1700 C   0  0  0  0  0  0  0  0  0  0  0  0
  188.8640  178.0800  146.2630 C   0  0  0  0  0  0  0  0  0  0  0  0
  187.3880  177.4830  144.4210 C   0  0  0  0  0  0  0  0  0  0  0  0
  186.5750  177.4310  146.7080 C   0  0  0  0  0  3  0  0  0  0  0  0
  186.3610  177.2440  145.3410 C   0  0  0  0  0  3  0  0  0  0  0  0
  189.9960  177.1740  140.5510 C   0  0  0  0  0  0  0  0  0  0  0  0
  192.4020  177.4280  140.3190 C   0  0  0  0  0  3  0  0  0  0  0  0
  189.9770  176.4290  139.3610 C   0  0  0  0  0  3  0  0  0  0  0  0
  192.3690  176.6830  139.1380 C   0  0  0  0  0  3  0  0  0  0  0  0
  191.1550  176.1760  138.6520 C   0  0  0  0  0  0  0  0  0  0  0  0
  191.2210  177.6710  141.0230 C   0  0  0  0  0  3  0  0  0  0  0  0
  190.1110  177.0210  136.0320 O   0  0  0  0  0  0  0  0  0  0  0  0
  191.0820  175.4120  137.4400 N   0  0  0  0  0  2  0  0  0  0  0  0
  190.5520  175.8500  136.1800 C   0  0  0  0  0  0  0  0  0  0  0  0
  190.5060  174.9500  135.0770 N   0  0  0  0  0  2  0  0  0  0  0  0
  190.9540  173.6290  135.2010 N   0  0  0  0  0  2  0  0  0  0  0  0
  192.8040  172.5580  135.5910 C   0  0  0  0  0  1  0  0  0  0  0  0
  192.2680  173.6310  134.8800 O   0  0  0  0  0  0  0  0  0  0  0  0
  184.9490  179.3720  143.2830 C   0  0  0  0  0  0  0  0  0  0  0  0
  185.1160  179.5970  144.5140 O   0  0  0  0  0  0  0  0  0  0  0  0
  182.4950  179.0930  143.6160 C   0  0  0  0  0  3  0  0  0  0  0  0
  182.1980  178.1330  141.0000 C   0  0  0  0  0  0  0  0  0  0  0  0
  181.0610  178.2410  141.8400 C   0  0  0  0  0  0  0  0  0  0  0  0
  181.2340  178.7200  143.1470 C   0  0  0  0  0  3  0  0  0  0  0  0
  183.4560  178.5110  141.4800 C   0  0  0  0  0  3  0  0  0  0  0  0
  182.1300  177.6130  139.6050 C   0  0  0  0  0  1  0  0  0  0  0  0
  183.6140  178.9950  142.7850 C   0  0  0  0  0  0  0  0  0  0  0  0
  179.0130  178.7250  140.6060 O   0  0  0  0  0  0  0  0  0  0  0  0
  179.7330  177.8730  141.4140 N   0  0  0  0  0  0  0  0  0  0  0  0
  179.2350  176.7650  141.7030 O   0  0  0  0  0  0  0  0  0  0  0  0
  1  6  1  0  0  0  0
  3  2  1  6  0  0  0
  3  1  1  0  0  0  0
  3  5  1  0  0  0  0
  4 30  1  0  0  0  0
  5  4  2  0  0  0  0
  5  7  1  0  0  0  0
  6  7  1  0  0  0  0
  7 14  1  1  0  0  0
  8 13  1  0  0  0  0
 10  8  1  0  0  0  0
 12  9  1  0  0  0  0
 13 11  1  0  0  0  0
 13 12  2  0  0  0  0
 14  8  2  0  0  0  0
 14 16  1  0  0  0  0
 15 12  1  0  0  0  0
 16 15  2  0  0  0  0
 17 22  1  0  0  0  0
 17  1  1  0  0  0  0
 18 22  2  0  0  0  0
 19 17  2  0  0  0  0
 20 18  1  0  0  0  0
 21 20  2  0  0  0  0
 21 19  1  0  0  0  0
 23 25  2  0  0  0  0
 24 21  1  0  0  0  0
 25 24  1  0  0  0  0
 26 27  1  0  0  0  0
 26 25  1  0  0  0  0
 29 27  1  0  0  0  0
 29 28  1  0  0  0  0
 30 31  2  0  0  0  0
 33 36  2  0  0  0  0
 33 34  1  0  0  0  0
 34 35  2  0  0  0  0
 35 32  1  0  0  0  0
 36 38  1  0  0  0  0
 37 33  1  0  0  0  0
 38 30  1  0  0  0  0
 38 32  2  0  0  0  0
 39 40  2  0  0  0  0
 40 41  2  0  0  0  0
 40 34  1  0  0  0  0
M  END
>  <MODEL>
3

>  <REMARK>
 VINA RESULT:      -8.0      5.199      8.107
  Name = 
  8 active torsions:
  status: ('A' for Active; 'I' for Inactive)
    1  A    between atoms: N_4  and  C_19
    2  A    between atoms: N_5  and  C_15
    3  A    between atoms: N_12  and  C_35
    4  A    between atoms: C_17  and  C_40
    5  A    between atoms: O_18  and  N_21
    6  A    between atoms: N_21  and  N_41
    7  A    between atoms: N_25  and  C_32
    8  A    between atoms: C_35  and  C_38
                            x       y       z     vdW  Elec       q    Type
                         _______ _______ _______ _____ _____    ______ ____

>  <TORSDO>
F 8

$$$$
=
 OpenBabel11042412343D

 41 44  0  0  1  0  0  0  0  0999 V2000
  190.6840  176.6730  137.7040 N   0  0  0  0  0  0  0  0  0  0  0  0
  191.2910  177.3400  139.8560 O   0  0  0  0  0  1  0  0  0  0  0  0
  190.3380  176.6340  139.1170 C   0  0  1  0  0  3  0  0  0  0  0  0
  188.4030  177.5150  140.3020 N   0  0  0  0  0  0  0  0  0  0  0  0
  189.0390  177.3400  139.1800 C   0  0  0  0  0  0  0  0  0  0  0  0
  189.6970  177.3750  136.8880 C   0  0  0  0  0  2  0  0  0  0  0  0
  188.5650  177.7780  137.8270 C   0  0  1  0  0  3  0  0  0  0  0  0
  187.1500  175.7060  137.2990 C   0  0  0  0  0  0  0  0  0  0  0  0
  183.6690  175.4380  136.1870 F   0  0  0  0  0  0  0  0  0  0  0  0
  188.1920  174.8830  137.5810 F   0  0  0  0  0  0  0  0  0  0  0  0
  185.7970  173.7990  136.8160 F   0  0  0  0  0  0  0  0  0  0  0  0
  184.8490  175.9760  136.5810 C   0  0  0  0  0  0  0  0  0  0  0  0
  185.9310  175.1470  136.8970 C   0  0  0  0  0  0  0  0  0  0  0  0
  187.2830  177.1070  137.4070 C   0  0  0  0  0  0  0  0  0  0  0  0
  184.9850  177.3630  136.6670 C   0  0  0  0  0  3  0  0  0  0  0  0
  186.1970  177.9240  137.0740 C   0  0  0  0  0  3  0  0  0  0  0  0
  191.8160  175.9880  137.1400 C   0  0  0  0  0  0  0  0  0  0  0  0
  192.8160  174.7030  135.3360 C   0  0  0  0  0  3  0  0  0  0  0  0
  193.0310  175.9170  137.8410 C   0  0  0  0  0  3  0  0  0  0  0  0
  194.0190  174.6420  136.0420 C   0  0  0  0  0  3  0  0  0  0  0  0
  194.1350  175.2510  137.3010 C   0  0  0  0  0  0  0  0  0  0  0  0
  191.7200  175.3740  135.8820 C   0  0  0  0  0  3  0  0  0  0  0  0
  195.1280  173.0700  139.0100 O   0  0  0  0  0  0  0  0  0  0  0  0
  195.3520  175.2050  138.0570 N   0  0  0  0  0  2  0  0  0  0  0  0
  195.8020  174.1290  138.8950 C   0  0  0  0  0  0  0  0  0  0  0  0
  197.0190  174.2560  139.6240 N   0  0  0  0  0  2  0  0  0  0  0  0
  197.7850  175.4260  139.5550 N   0  0  0  0  0  2  0  0  0  0  0  0
  197.9560  175.5630  141.7170 C   0  0  0  0  0  1  0  0  0  0  0  0
  197.4120  176.1980  140.6020 O   0  0  0  0  0  0  0  0  0  0  0  0
  187.1860  178.2540  140.4880 C   0  0  0  0  0  0  0  0  0  0  0  0
  186.6250  178.8190  139.5100 O   0  0  0  0  0  0  0  0  0  0  0  0
  185.4650  179.1620  142.0450 C   0  0  0  0  0  3  0  0  0  0  0  0
  186.6970  177.9010  144.2230 C   0  0  0  0  0  0  0  0  0  0  0  0
  185.5280  178.6770  144.4310 C   0  0  0  0  0  0  0  0  0  0  0  0
  184.9310  179.3020  143.3270 C   0  0  0  0  0  3  0  0  0  0  0  0
  187.2210  177.7660  142.9340 C   0  0  0  0  0  3  0  0  0  0  0  0
  187.4240  177.2160  145.3290 C   0  0  0  0  0  1  0  0  0  0  0  0
  186.6120  178.3900  141.8380 C   0  0  0  0  0  0  0  0  0  0  0  0
  185.6790  179.3680  146.7660 O   0  0  0  0  0  0  0  0  0  0  0  0
  184.9280  178.8580  145.7300 N   0  0  0  0  0  0  0  0  0  0  0  0
  183.7180  178.6270  145.9310 O   0  0  0  0  0  0  0  0  0  0  0  0
  1  3  1  0  0  0  0
  3  5  1  0  0  0  0
  3  2  1  1  0  0  0
  4 30  1  0  0  0  0
  5  4  2  0  0  0  0
  6  1  1  0  0  0  0
  6  7  1  0  0  0  0
  7 14  1  6  0  0  0
  7  5  1  0  0  0  0
  8 14  1  0  0  0  0
  8 10  1  0  0  0  0
  9 12  1  0  0  0  0
 11 13  1  0  0  0  0
 12 15  2  0  0  0  0
 12 13  1  0  0  0  0
 13  8  2  0  0  0  0
 15 16  1  0  0  0  0
 16 14  2  0  0  0  0
 17  1  1  0  0  0  0
 17 19  1  0  0  0  0
 18 22  1  0  0  0  0
 18 20  2  0  0  0  0
 20 21  1  0  0  0  0
 21 19  2  0  0  0  0
 21 24  1  0  0  0  0
 22 17  2  0  0  0  0
 24 25  1  0  0  0  0
 25 23  2  0  0  0  0
 25 26  1  0  0  0  0
 27 26  1  0  0  0  0
 27 29  1  0  0  0  0
 29 28  1  0  0  0  0
 30 38  1  0  0  0  0
 31 30  2  0  0  0  0
 32 35  1  0  0  0  0
 33 34  1  0  0  0  0
 33 37  1  0  0  0  0
 34 40  1  0  0  0  0
 35 34  2  0  0  0  0
 36 33  2  0  0  0  0
 38 32  2  0  0  0  0
 38 36  1  0  0  0  0
 40 41  2  0  0  0  0
 40 39  2  0  0  0  0
M  END
>  <MODEL>
4

>  <REMARK>
 VINA RESULT:      -8.0      5.647      8.800
  Name = 
  8 active torsions:
  status: ('A' for Active; 'I' for Inactive)
    1  A    between atoms: N_4  and  C_19
    2  A    between atoms: N_5  and  C_15
    3  A    between atoms: N_12  and  C_35
    4  A    between atoms: C_17  and  C_40
    5  A    between atoms: O_18  and  N_21
    6  A    between atoms: N_21  and  N_41
    7  A    between atoms: N_25  and  C_32
    8  A    between atoms: C_35  and  C_38
                            x       y       z     vdW  Elec       q    Type
                         _______ _______ _______ _____ _____    ______ ____

>  <TORSDO>
F 8

$$$$
=
 OpenBabel11042412343D

 41 44  0  0  1  0  0  0  0  0999 V2000
  191.3370  175.7100  137.4570 N   0  0  0  0  0  0  0  0  0  0  0  0
  192.0060  176.6480  139.4850 O   0  0  0  0  0  1  0  0  0  0  0  0
  190.9700  175.9670  138.8420 C   0  0  1  0  0  3  0  0  0  0  0  0
  189.1690  177.3060  139.7830 N   0  0  0  0  0  0  0  0  0  0  0  0
  189.7880  176.8510  138.7330 C   0  0  0  0  0  0  0  0  0  0  0  0
  190.4750  176.3920  136.4950 C   0  0  0  0  0  2  0  0  0  0  0  0
  189.4020  177.1090  137.3070 C   0  0  1  0  0  3  0  0  0  0  0  0
  187.0690  177.3160  136.2630 C   0  0  0  0  0  0  0  0  0  0  0  0
  184.3170  174.9020  136.1250 F   0  0  0  0  0  0  0  0  0  0  0  0
  187.3260  178.5870  135.8630 F   0  0  0  0  0  0  0  0  0  0  0  0
  184.8960  177.4660  135.2880 F   0  0  0  0  0  0  0  0  0  0  0  0
  185.5250  175.4500  136.3970 C   0  0  0  0  0  0  0  0  0  0  0  0
  185.8210  176.7510  135.9770 C   0  0  0  0  0  0  0  0  0  0  0  0
  188.0410  176.5640  136.9590 C   0  0  0  0  0  0  0  0  0  0  0  0
  186.4780  174.7120  137.1030 C   0  0  0  0  0  3  0  0  0  0  0  0
  187.7270  175.2690  137.3860 C   0  0  0  0  0  3  0  0  0  0  0  0
  192.3640  174.7840  137.0620 C   0  0  0  0  0  0  0  0  0  0  0  0
  193.0300  172.7140  135.9750 C   0  0  0  0  0  3  0  0  0  0  0  0
  193.7090  175.0260  137.3850 C   0  0  0  0  0  3  0  0  0  0  0  0
  194.3630  172.9690  136.3000 C   0  0  0  0  0  3  0  0  0  0  0  0
  194.7120  174.1300  137.0060 C   0  0  0  0  0  0  0  0  0  0  0  0
  192.0350  173.6180  136.3530 C   0  0  0  0  0  3  0  0  0  0  0  0
  196.8310  175.2630  135.3060 O   0  0  0  0  0  0  0  0  0  0  0  0
  196.0710  174.4220  137.3620 N   0  0  0  0  0  2  0  0  0  0  0  0
  197.0860  174.9630  136.5030 C   0  0  0  0  0  0  0  0  0  0  0  0
  198.4090  175.1520  136.9970 N   0  0  0  0  0  2  0  0  0  0  0  0
  198.7490  174.8010  138.3090 N   0  0  0  0  0  2  0  0  0  0  0  0
  197.9470  175.2930  140.2680 C   0  0  0  0  0  1  0  0  0  0  0  0
  198.4300  175.8590  139.0890 O   0  0  0  0  0  0  0  0  0  0  0  0
  188.0720  178.2310  139.7930 C   0  0  0  0  0  0  0  0  0  0  0  0
  187.8660  178.9920  138.8080 O   0  0  0  0  0  0  0  0  0  0  0  0
  185.9880  179.0110  140.9160 C   0  0  0  0  0  3  0  0  0  0  0  0
  186.7920  177.8410  143.3320 C   0  0  0  0  0  0  0  0  0  0  0  0
  185.5540  178.5300  143.2650 C   0  0  0  0  0  0  0  0  0  0  0  0
  185.1750  179.1110  142.0460 C   0  0  0  0  0  3  0  0  0  0  0  0
  187.5970  177.7460  142.1930 C   0  0  0  0  0  3  0  0  0  0  0  0
  187.3030  177.2090  144.5820 C   0  0  0  0  0  1  0  0  0  0  0  0
  187.2040  178.3240  140.9810 C   0  0  0  0  0  0  0  0  0  0  0  0
  185.1390  179.2120  145.5700 O   0  0  0  0  0  0  0  0  0  0  0  0
  184.6700  178.6660  144.3960 N   0  0  0  0  0  0  0  0  0  0  0  0
  183.4610  178.3620  144.3230 O   0  0  0  0  0  0  0  0  0  0  0  0
  1  3  1  0  0  0  0
  3  2  1  1  0  0  0
  4 30  1  0  0  0  0
  5  3  1  0  0  0  0
  5  4  2  0  0  0  0
  6  7  1  0  0  0  0
  6  1  1  0  0  0  0
  7 14  1  6  0  0  0
  7  5  1  0  0  0  0
  8 14  1  0  0  0  0
  9 12  1  0  0  0  0
 10  8  1  0  0  0  0
 11 13  1  0  0  0  0
 12 15  2  0  0  0  0
 13  8  2  0  0  0  0
 13 12  1  0  0  0  0
 14 16  2  0  0  0  0
 15 16  1  0  0  0  0
 17 19  1  0  0  0  0
 17  1  1  0  0  0  0
 18 20  2  0  0  0  0
 18 22  1  0  0  0  0
 20 21  1  0  0  0  0
 21 24  1  0  0  0  0
 21 19  2  0  0  0  0
 22 17  2  0  0  0  0
 23 25  2  0  0  0  0
 25 26  1  0  0  0  0
 25 24  1  0  0  0  0
 26 27  1  0  0  0  0
 27 29  1  0  0  0  0
 29 28  1  0  0  0  0
 30 38  1  0  0  0  0
 31 30  2  0  0  0  0
 32 38  2  0  0  0  0
 32 35  1  0  0  0  0
 33 37  1  0  0  0  0
 34 33  1  0  0  0  0
 34 40  1  0  0  0  0
 35 34  2  0  0  0  0
 36 33  2  0  0  0  0
 38 36  1  0  0  0  0
 40 39  2  0  0  0  0
 41 40  2  0  0  0  0
M  END
>  <MODEL>
5

>  <REMARK>
 VINA RESULT:      -7.7      6.457      9.317
  Name = 
  8 active torsions:
  status: ('A' for Active; 'I' for Inactive)
    1  A    between atoms: N_4  and  C_19
    2  A    between atoms: N_5  and  C_15
    3  A    between atoms: N_12  and  C_35
    4  A    between atoms: C_17  and  C_40
    5  A    between atoms: O_18  and  N_21
    6  A    between atoms: N_21  and  N_41
    7  A    between atoms: N_25  and  C_32
    8  A    between atoms: C_35  and  C_38
                            x       y       z     vdW  Elec       q    Type
                         _______ _______ _______ _____ _____    ______ ____

>  <TORSDO>
F 8

$$$$
=
 OpenBabel11042412343D

 41 44  0  0  1  0  0  0  0  0999 V2000
  189.1290  177.2970  140.3360 N   0  0  0  0  0  0  0  0  0  0  0  0
  187.4690  178.6130  139.3620 O   0  0  0  0  0  1  0  0  0  0  0  0
  188.3550  178.5250  140.4380 C   0  0  1  0  0  3  0  0  0  0  0  0
  186.7700  179.2670  142.1280 N   0  0  0  0  0  0  0  0  0  0  0  0
  187.5940  178.3570  141.6950 C   0  0  0  0  0  0  0  0  0  0  0  0
  188.8840  176.3680  141.4360 C   0  0  0  0  0  2  0  0  0  0  0  0
  187.9160  177.0660  142.3860 C   0  0  1  0  0  3  0  0  0  0  0  0
  187.9320  176.9180  144.9450 C   0  0  0  0  0  0  0  0  0  0  0  0
  190.5000  177.9270  147.3560 F   0  0  0  0  0  0  0  0  0  0  0  0
  186.6880  176.3750  144.9540 F   0  0  0  0  0  0  0  0  0  0  0  0
  187.9900  176.7810  147.3280 F   0  0  0  0  0  0  0  0  0  0  0  0
  189.8630  177.7130  146.1800 C   0  0  0  0  0  0  0  0  0  0  0  0
  188.5890  177.1350  146.1620 C   0  0  0  0  0  0  0  0  0  0  0  0
  188.5640  177.2630  143.7310 C   0  0  0  0  0  0  0  0  0  0  0  0
  190.4810  178.0740  144.9810 C   0  0  0  0  0  3  0  0  0  0  0  0
  189.8320  177.8540  143.7640 C   0  0  0  0  0  3  0  0  0  0  0  0
  190.1280  177.0630  139.3290 C   0  0  0  0  0  0  0  0  0  0  0  0
  190.7610  176.9020  136.9870 C   0  0  0  0  0  3  0  0  0  0  0  0
  191.4490  176.7510  139.6890 C   0  0  0  0  0  3  0  0  0  0  0  0
  192.0720  176.5960  137.3600 C   0  0  0  0  0  3  0  0  0  0  0  0
  192.4250  176.5210  138.7160 C   0  0  0  0  0  0  0  0  0  0  0  0
  189.7940  177.1360  137.9670 C   0  0  0  0  0  3  0  0  0  0  0  0
  194.0720  174.2070  137.9410 O   0  0  0  0  0  0  0  0  0  0  0  0
  193.7590  176.2040  139.1360 N   0  0  0  0  0  2  0  0  0  0  0  0
  194.5310  175.0570  138.7500 C   0  0  0  0  0  0  0  0  0  0  0  0
  195.8320  174.8590  139.2960 N   0  0  0  0  0  2  0  0  0  0  0  0
  196.3720  175.7570  140.2240 N   0  0  0  0  0  2  0  0  0  0  0  0
  198.4320  175.2530  139.7510 C   0  0  0  0  0  1  0  0  0  0  0  0
  197.4660  175.1610  140.7510 O   0  0  0  0  0  0  0  0  0  0  0  0
  185.9230  179.1710  143.2830 C   0  0  0  0  0  0  0  0  0  0  0  0
  186.4170  179.1940  144.4440 O   0  0  0  0  0  0  0  0  0  0  0  0
  183.6030  179.1870  144.1930 C   0  0  0  0  0  3  0  0  0  0  0  0
  182.5650  178.4410  141.7000 C   0  0  0  0  0  0  0  0  0  0  0  0
  181.6850  178.6400  142.7930 C   0  0  0  0  0  0  0  0  0  0  0  0
  182.2280  179.0090  144.0330 C   0  0  0  0  0  3  0  0  0  0  0  0
  183.9410  178.6240  141.8710 C   0  0  0  0  0  3  0  0  0  0  0  0
  182.0970  178.0250  140.3470 C   0  0  0  0  0  1  0  0  0  0  0  0
  184.4690  178.9990  143.1120 C   0  0  0  0  0  0  0  0  0  0  0  0
  179.6150  177.5570  143.4940 O   0  0  0  0  0  0  0  0  0  0  0  0
  180.2560  178.4730  142.6910 N   0  0  0  0  0  0  0  0  0  0  0  0
  179.5660  179.1890  141.9360 O   0  0  0  0  0  0  0  0  0  0  0  0
  1  3  1  0  0  0  0
  1  6  1  0  0  0  0
  3  2  1  6  0  0  0
  3  5  1  0  0  0  0
  4 30  1  0  0  0  0
  5  4  2  0  0  0  0
  5  7  1  0  0  0  0
  6  7  1  0  0  0  0
  7 14  1  1  0  0  0
  8 10  1  0  0  0  0
  8 13  1  0  0  0  0
 12  9  1  0  0  0  0
 13 12  2  0  0  0  0
 13 11  1  0  0  0  0
 14 16  1  0  0  0  0
 14  8  2  0  0  0  0
 15 12  1  0  0  0  0
 16 15  2  0  0  0  0
 17 19  1  0  0  0  0
 17  1  1  0  0  0  0
 18 20  2  0  0  0  0
 18 22  1  0  0  0  0
 20 21  1  0  0  0  0
 21 24  1  0  0  0  0
 21 19  2  0  0  0  0
 22 17  2  0  0  0  0
 23 25  2  0  0  0  0
 25 24  1  0  0  0  0
 25 26  1  0  0  0  0
 26 27  1  0  0  0  0
 27 29  1  0  0  0  0
 28 29  1  0  0  0  0
 30 31  2  0  0  0  0
 33 36  2  0  0  0  0
 33 34  1  0  0  0  0
 34 35  2  0  0  0  0
 35 32  1  0  0  0  0
 36 38  1  0  0  0  0
 37 33  1  0  0  0  0
 38 30  1  0  0  0  0
 38 32  2  0  0  0  0
 40 34  1  0  0  0  0
 40 39  2  0  0  0  0
 41 40  2  0  0  0  0
M  END
>  <MODEL>
6

>  <REMARK>
 VINA RESULT:      -7.5      5.285      8.261
  Name = 
  8 active torsions:
  status: ('A' for Active; 'I' for Inactive)
    1  A    between atoms: N_4  and  C_19
    2  A    between atoms: N_5  and  C_15
    3  A    between atoms: N_12  and  C_35
    4  A    between atoms: C_17  and  C_40
    5  A    between atoms: O_18  and  N_21
    6  A    between atoms: N_21  and  N_41
    7  A    between atoms: N_25  and  C_32
    8  A    between atoms: C_35  and  C_38
                            x       y       z     vdW  Elec       q    Type
                         _______ _______ _______ _____ _____    ______ ____

>  <TORSDO>
F 8

$$$$
=
 OpenBabel11042412343D

 41 44  0  0  1  0  0  0  0  0999 V2000
  186.2490  178.2100  139.3090 N   0  0  0  0  0  0  0  0  0  0  0  0
  185.2700  179.7810  140.7280 O   0  0  0  0  0  1  0  0  0  0  0  0
  185.1180  178.5070  140.1750 C   0  0  1  0  0  3  0  0  0  0  0  0
  182.7480  178.7360  139.6700 N   0  0  0  0  0  0  0  0  0  0  0  0
  183.9590  178.5010  139.2540 C   0  0  0  0  0  0  0  0  0  0  0  0
  185.8730  178.0400  137.9080 C   0  0  0  0  0  2  0  0  0  0  0  0
  184.3540  178.1670  137.8470 C   0  0  1  0  0  3  0  0  0  0  0  0
  183.0080  176.7890  136.1560 C   0  0  0  0  0  0  0  0  0  0  0  0
  182.1060  173.2380  136.1820 F   0  0  0  0  0  0  0  0  0  0  0  0
  182.8140  177.8800  135.3730 F   0  0  0  0  0  0  0  0  0  0  0  0
  181.7750  175.4690  134.5950 F   0  0  0  0  0  0  0  0  0  0  0  0
  182.6340  174.4260  136.5610 C   0  0  0  0  0  0  0  0  0  0  0  0
  182.4650  175.5610  135.7600 C   0  0  0  0  0  0  0  0  0  0  0  0
  183.7470  176.8790  137.3550 C   0  0  0  0  0  0  0  0  0  0  0  0
  183.3470  174.5180  137.7580 C   0  0  0  0  0  3  0  0  0  0  0  0
  183.8960  175.7400  138.1540 C   0  0  0  0  0  3  0  0  0  0  0  0
  187.5850  177.9830  139.7890 C   0  0  0  0  0  0  0  0  0  0  0  0
  189.9500  177.6360  139.3530 C   0  0  0  0  0  3  0  0  0  0  0  0
  187.8400  177.8690  141.1660 C   0  0  0  0  0  3  0  0  0  0  0  0
  190.1910  177.5280  140.7240 C   0  0  0  0  0  3  0  0  0  0  0  0
  189.1350  177.6460  141.6410 C   0  0  0  0  0  0  0  0  0  0  0  0
  188.6540  177.8630  138.8880 C   0  0  0  0  0  3  0  0  0  0  0  0
  191.3360  178.7630  143.2450 O   0  0  0  0  0  0  0  0  0  0  0  0
  189.3430  177.5350  143.0560 N   0  0  0  0  0  2  0  0  0  0  0  0
  190.4380  178.0810  143.8080 C   0  0  0  0  0  0  0  0  0  0  0  0
  190.5270  177.8410  145.2090 N   0  0  0  0  0  2  0  0  0  0  0  0
  189.5720  177.0610  145.8720 N   0  0  0  0  0  2  0  0  0  0  0  0
  188.2940  177.1600  147.6270 C   0  0  0  0  0  1  0  0  0  0  0  0
  188.7830  177.9160  146.5630 O   0  0  0  0  0  0  0  0  0  0  0  0
  181.5710  178.8370  138.8540 C   0  0  0  0  0  0  0  0  0  0  0  0
  180.7990  177.8490  138.7190 O   0  0  0  0  0  0  0  0  0  0  0  0
  181.3340  181.3170  138.8020 C   0  0  0  0  0  3  0  0  0  0  0  0
  180.6500  181.2460  136.0860 C   0  0  0  0  0  0  0  0  0  0  0  0
  180.7070  182.4920  136.7610 C   0  0  0  0  0  0  0  0  0  0  0  0
  181.0480  182.5020  138.1220 C   0  0  0  0  0  3  0  0  0  0  0  0
  180.9400  180.0660  136.7770 C   0  0  0  0  0  3  0  0  0  0  0  0
  180.2750  181.1180  134.6480 C   0  0  0  0  0  1  0  0  0  0  0  0
  181.2860  180.0910  138.1330 C   0  0  0  0  0  0  0  0  0  0  0  0
  179.1280  184.2060  136.0430 O   0  0  0  0  0  0  0  0  0  0  0  0
  180.4250  183.7490  136.1130 N   0  0  0  0  0  0  0  0  0  0  0  0
  181.3370  184.4760  135.6680 O   0  0  0  0  0  0  0  0  0  0  0  0
  1 17  1  0  0  0  0
  1  3  1  0  0  0  0
  3  2  1  6  0  0  0
  5  4  2  0  0  0  0
  5  3  1  0  0  0  0
  6  1  1  0  0  0  0
  7 14  1  1  0  0  0
  7  6  1  0  0  0  0
  7  5  1  0  0  0  0
  8 14  1  0  0  0  0
  9 12  1  0  0  0  0
 10  8  1  0  0  0  0
 11 13  1  0  0  0  0
 12 15  2  0  0  0  0
 13  8  2  0  0  0  0
 13 12  1  0  0  0  0
 14 16  2  0  0  0  0
 15 16  1  0  0  0  0
 17 19  1  0  0  0  0
 18 20  2  0  0  0  0
 19 21  2  0  0  0  0
 20 21  1  0  0  0  0
 21 24  1  0  0  0  0
 22 18  1  0  0  0  0
 22 17  2  0  0  0  0
 23 25  2  0  0  0  0
 24 25  1  0  0  0  0
 25 26  1  0  0  0  0
 26 27  1  0  0  0  0
 27 29  1  0  0  0  0
 29 28  1  0  0  0  0
 30  4  1  0  0  0  0
 31 30  2  0  0  0  0
 33 34  2  0  0  0  0
 33 36  1  0  0  0  0
 34 35  1  0  0  0  0
 35 32  2  0  0  0  0
 36 38  2  0  0  0  0
 37 33  1  0  0  0  0
 38 32  1  0  0  0  0
 38 30  1  0  0  0  0
 39 40  2  0  0  0  0
 40 34  1  0  0  0  0
 41 40  2  0  0  0  0
M  END
>  <MODEL>
7

>  <REMARK>
 VINA RESULT:      -7.5      2.342      3.282
  Name = 
  8 active torsions:
  status: ('A' for Active; 'I' for Inactive)
    1  A    between atoms: N_4  and  C_19
    2  A    between atoms: N_5  and  C_15
    3  A    between atoms: N_12  and  C_35
    4  A    between atoms: C_17  and  C_40
    5  A    between atoms: O_18  and  N_21
    6  A    between atoms: N_21  and  N_41
    7  A    between atoms: N_25  and  C_32
    8  A    between atoms: C_35  and  C_38
                            x       y       z     vdW  Elec       q    Type
                         _______ _______ _______ _____ _____    ______ ____

>  <TORSDO>
F 8

$$$$
=
 OpenBabel11042412343D

 41 44  0  0  1  0  0  0  0  0999 V2000
  185.9140  178.2600  143.4350 N   0  0  0  0  0  0  0  0  0  0  0  0
  187.5850  179.1100  142.0480 O   0  0  0  0  0  1  0  0  0  0  0  0
  186.2600  179.2790  142.4560 C   0  0  1  0  0  3  0  0  0  0  0  0
  185.3690  179.7130  140.2340 N   0  0  0  0  0  0  0  0  0  0  0  0
  185.3520  178.9990  141.3220 C   0  0  0  0  0  0  0  0  0  0  0  0
  184.8660  177.3520  142.9770 C   0  0  0  0  0  2  0  0  0  0  0  0
  184.4300  177.8510  141.6030 C   0  0  1  0  0  3  0  0  0  0  0  0
  182.4280  179.0480  142.6690 C   0  0  0  0  0  0  0  0  0  0  0  0
  178.9340  179.2380  141.5840 F   0  0  0  0  0  0  0  0  0  0  0  0
  183.1990  179.4940  143.6930 F   0  0  0  0  0  0  0  0  0  0  0  0
  180.5450  180.1640  143.6220 F   0  0  0  0  0  0  0  0  0  0  0  0
  180.2500  178.9180  141.6090 C   0  0  0  0  0  0  0  0  0  0  0  0
  181.0690  179.3840  142.6430 C   0  0  0  0  0  0  0  0  0  0  0  0
  182.9790  178.2570  141.6380 C   0  0  0  0  0  0  0  0  0  0  0  0
  180.7890  178.1180  140.6000 C   0  0  0  0  0  3  0  0  0  0  0  0
  182.1450  177.7860  140.6180 C   0  0  0  0  0  3  0  0  0  0  0  0
  186.4530  178.2160  144.7670 C   0  0  0  0  0  0  0  0  0  0  0  0
  186.2920  178.7810  147.1260 C   0  0  0  0  0  3  0  0  0  0  0  0
  187.6790  177.5780  145.0220 C   0  0  0  0  0  3  0  0  0  0  0  0
  187.5100  178.1410  147.3660 C   0  0  0  0  0  3  0  0  0  0  0  0
  188.2110  177.5320  146.3140 C   0  0  0  0  0  0  0  0  0  0  0  0
  185.7660  178.8170  145.8330 C   0  0  0  0  0  3  0  0  0  0  0  0
  190.7860  178.0690  144.9930 O   0  0  0  0  0  0  0  0  0  0  0  0
  189.4660  176.8710  146.5210 N   0  0  0  0  0  2  0  0  0  0  0  0
  190.7040  177.1470  145.8480 C   0  0  0  0  0  0  0  0  0  0  0  0
  191.8590  176.3640  146.1340 N   0  0  0  0  0  2  0  0  0  0  0  0
  191.8090  175.3070  147.0510 N   0  0  0  0  0  2  0  0  0  0  0  0
  192.8360  176.0970  148.7950 C   0  0  0  0  0  1  0  0  0  0  0  0
  193.0060  175.2800  147.6790 O   0  0  0  0  0  0  0  0  0  0  0  0
  184.5950  179.4790  139.0480 C   0  0  0  0  0  0  0  0  0  0  0  0
  183.6370  180.2420  138.7460 O   0  0  0  0  0  0  0  0  0  0  0  0
  183.8590  177.5840  137.6050 C   0  0  0  0  0  3  0  0  0  0  0  0
  186.5160  176.7910  137.2040 C   0  0  0  0  0  0  0  0  0  0  0  0
  185.4660  176.0570  136.5940 C   0  0  0  0  0  0  0  0  0  0  0  0
  184.1440  176.4710  136.8130 C   0  0  0  0  0  3  0  0  0  0  0  0
  186.2180  177.9060  137.9930 C   0  0  0  0  0  3  0  0  0  0  0  0
  187.9530  176.4240  137.0570 C   0  0  0  0  0  1  0  0  0  0  0  0
  184.8940  178.3120  138.1980 C   0  0  0  0  0  0  0  0  0  0  0  0
  186.7570  174.0650  136.0340 O   0  0  0  0  0  0  0  0  0  0  0  0
  185.6960  174.9000  135.7650 N   0  0  0  0  0  0  0  0  0  0  0  0
  184.9160  174.5910  134.8410 O   0  0  0  0  0  0  0  0  0  0  0  0
  1 17  1  0  0  0  0
  3  2  1  6  0  0  0
  3  1  1  0  0  0  0
  4  5  2  0  0  0  0
  5  7  1  0  0  0  0
  5  3  1  0  0  0  0
  6  1  1  0  0  0  0
  7 14  1  1  0  0  0
  7  6  1  0  0  0  0
  8 10  1  0  0  0  0
  9 12  1  0  0  0  0
 12 13  2  0  0  0  0
 13  8  1  0  0  0  0
 13 11  1  0  0  0  0
 14  8  2  0  0  0  0
 15 16  2  0  0  0  0
 15 12  1  0  0  0  0
 16 14  1  0  0  0  0
 17 19  2  0  0  0  0
 17 22  1  0  0  0  0
 18 20  1  0  0  0  0
 19 21  1  0  0  0  0
 21 24  1  0  0  0  0
 21 20  2  0  0  0  0
 22 18  2  0  0  0  0
 23 25  2  0  0  0  0
 25 26  1  0  0  0  0
 25 24  1  0  0  0  0
 26 27  1  0  0  0  0
 27 29  1  0  0  0  0
 29 28  1  0  0  0  0
 30  4  1  0  0  0  0
 31 30  2  0  0  0  0
 32 38  1  0  0  0  0
 33 36  1  0  0  0  0
 34 35  1  0  0  0  0
 34 33  2  0  0  0  0
 35 32  2  0  0  0  0
 36 38  2  0  0  0  0
 37 33  1  0  0  0  0
 38 30  1  0  0  0  0
 40 39  2  0  0  0  0
 40 34  1  0  0  0  0
 41 40  2  0  0  0  0
M  END
>  <MODEL>
8

>  <REMARK>
 VINA RESULT:      -7.4      3.817      5.668
  Name = 
  8 active torsions:
  status: ('A' for Active; 'I' for Inactive)
    1  A    between atoms: N_4  and  C_19
    2  A    between atoms: N_5  and  C_15
    3  A    between atoms: N_12  and  C_35
    4  A    between atoms: C_17  and  C_40
    5  A    between atoms: O_18  and  N_21
    6  A    between atoms: N_21  and  N_41
    7  A    between atoms: N_25  and  C_32
    8  A    between atoms: C_35  and  C_38
                            x       y       z     vdW  Elec       q    Type
                         _______ _______ _______ _____ _____    ______ ____

>  <TORSDO>
F 8

$$$$
=
 OpenBabel11042412343D

 41 44  0  0  1  0  0  0  0  0999 V2000
  191.2010  175.1530  136.8410 N   0  0  0  0  0  0  0  0  0  0  0  0
  192.4310  176.1850  138.5330 O   0  0  0  0  0  1  0  0  0  0  0  0
  191.2070  175.5830  138.2310 C   0  0  1  0  0  3  0  0  0  0  0  0
  189.8310  177.2200  139.3920 N   0  0  0  0  0  0  0  0  0  0  0  0
  190.1290  176.5940  138.2900 C   0  0  0  0  0  0  0  0  0  0  0  0
  190.2050  175.8440  136.0270 C   0  0  0  0  0  2  0  0  0  0  0  0
  189.4370  176.7640  136.9710 C   0  0  1  0  0  3  0  0  0  0  0  0
  187.5610  175.0300  137.1980 C   0  0  0  0  0  0  0  0  0  0  0  0
  183.9240  175.4480  137.0540 F   0  0  0  0  0  0  0  0  0  0  0  0
  188.4630  174.0280  137.3560 F   0  0  0  0  0  0  0  0  0  0  0  0
  185.7880  173.4470  137.4210 F   0  0  0  0  0  0  0  0  0  0  0  0
  185.2470  175.7390  137.0380 C   0  0  0  0  0  0  0  0  0  0  0  0
  186.1950  174.7260  137.2200 C   0  0  0  0  0  0  0  0  0  0  0  0
  187.9850  176.3640  137.0130 C   0  0  0  0  0  0  0  0  0  0  0  0
  185.6640  177.0560  136.8340 C   0  0  0  0  0  3  0  0  0  0  0  0
  187.0260  177.3640  136.8170 C   0  0  0  0  0  3  0  0  0  0  0  0
  192.0040  174.0720  136.3360 C   0  0  0  0  0  0  0  0  0  0  0  0
  192.1930  171.9840  135.1070 C   0  0  0  0  0  3  0  0  0  0  0  0
  193.3860  174.0310  136.5850 C   0  0  0  0  0  3  0  0  0  0  0  0
  193.5660  171.9560  135.3590 C   0  0  0  0  0  3  0  0  0  0  0  0
  194.1730  172.9820  136.0990 C   0  0  0  0  0  0  0  0  0  0  0  0
  191.4160  173.0370  135.5920 C   0  0  0  0  0  3  0  0  0  0  0  0
  195.5010  172.6500  138.7050 O   0  0  0  0  0  0  0  0  0  0  0  0
  195.5790  172.9850  136.3820 N   0  0  0  0  0  2  0  0  0  0  0  0
  196.1960  172.8350  137.6700 C   0  0  0  0  0  0  0  0  0  0  0  0
  197.6130  172.9090  137.7920 N   0  0  0  0  0  2  0  0  0  0  0  0
  198.4250  173.1460  136.6770 N   0  0  0  0  0  2  0  0  0  0  0  0
  198.5520  174.8840  135.3790 C   0  0  0  0  0  1  0  0  0  0  0  0
  198.7360  174.4630  136.6950 O   0  0  0  0  0  0  0  0  0  0  0  0
  188.8660  178.2730  139.5410 C   0  0  0  0  0  0  0  0  0  0  0  0
  188.8310  179.2310  138.7210 O   0  0  0  0  0  0  0  0  0  0  0  0
  186.6580  178.8060  140.5670 C   0  0  0  0  0  3  0  0  0  0  0  0
  187.4720  177.7080  143.0130 C   0  0  0  0  0  0  0  0  0  0  0  0
  186.1700  178.2560  142.8900 C   0  0  0  0  0  0  0  0  0  0  0  0
  185.7860  178.8050  141.6570 C   0  0  0  0  0  3  0  0  0  0  0  0
  188.3360  177.7130  141.9140 C   0  0  0  0  0  3  0  0  0  0  0  0
  187.9890  177.1230  144.2830 C   0  0  0  0  0  1  0  0  0  0  0  0
  187.9380  178.2570  140.6860 C   0  0  0  0  0  0  0  0  0  0  0  0
  183.8730  178.2530  143.7110 O   0  0  0  0  0  0  0  0  0  0  0  0
  185.2230  178.2830  143.9780 N   0  0  0  0  0  0  0  0  0  0  0  0
  185.5950  178.2650  145.1690 O   0  0  0  0  0  0  0  0  0  0  0  0
  1  3  1  0  0  0  0
  3  5  1  0  0  0  0
  3  2  1  6  0  0  0
  4 30  1  0  0  0  0
  5  4  2  0  0  0  0
  6  1  1  0  0  0  0
  6  7  1  0  0  0  0
  7 14  1  1  0  0  0
  7  5  1  0  0  0  0
  8 13  1  0  0  0  0
  8 10  1  0  0  0  0
 12  9  1  0  0  0  0
 12 13  2  0  0  0  0
 13 11  1  0  0  0  0
 14  8  2  0  0  0  0
 15 12  1  0  0  0  0
 16 15  2  0  0  0  0
 16 14  1  0  0  0  0
 17 19  1  0  0  0  0
 17  1  1  0  0  0  0
 18 20  2  0  0  0  0
 18 22  1  0  0  0  0
 20 21  1  0  0  0  0
 21 24  1  0  0  0  0
 21 19  2  0  0  0  0
 22 17  2  0  0  0  0
 24 25  1  0  0  0  0
 25 26  1  0  0  0  0
 25 23  2  0  0  0  0
 27 29  1  0  0  0  0
 27 26  1  0  0  0  0
 28 29  1  0  0  0  0
 30 38  1  0  0  0  0
 31 30  2  0  0  0  0
 32 38  2  0  0  0  0
 32 35  1  0  0  0  0
 33 37  1  0  0  0  0
 34 33  1  0  0  0  0
 34 40  1  0  0  0  0
 35 34  2  0  0  0  0
 36 33  2  0  0  0  0
 38 36  1  0  0  0  0
 39 40  2  0  0  0  0
 40 41  2  0  0  0  0
M  END
>  <MODEL>
9

>  <REMARK>
 VINA RESULT:      -7.0      6.739      9.791
  Name = 
  8 active torsions:
  status: ('A' for Active; 'I' for Inactive)
    1  A    between atoms: N_4  and  C_19
    2  A    between atoms: N_5  and  C_15
    3  A    between atoms: N_12  and  C_35
    4  A    between atoms: C_17  and  C_40
    5  A    between atoms: O_18  and  N_21
    6  A    between atoms: N_21  and  N_41
    7  A    between atoms: N_25  and  C_32
    8  A    between atoms: C_35  and  C_38
                            x       y       z     vdW  Elec       q    Type
                         _______ _______ _______ _____ _____    ______ ____

>  <TORSDO>
F 8

$$$$
