=
 OpenBabel11032419403D

 49 53  0  0  1  0  0  0  0  0999 V2000
  185.4410  178.1290  139.9010 C   0  0  0  0  0  2  0  0  0  0  0  0
  182.8660  179.1580  140.2470 C   0  0  2  0  0  3  0  0  0  0  0  0
  185.4950  178.5480  143.7280 C   0  0  1  0  0  3  0  0  0  0  0  0
  183.6150  179.7210  139.0320 C   0  0  0  0  0  2  0  0  0  0  0  0
  183.7690  179.2560  141.4890 C   0  0  1  0  0  3  0  0  0  0  0  0
  184.9520  179.0120  138.7410 C   0  0  2  0  0  3  0  0  0  0  0  0
  183.1260  178.6340  142.7330 C   0  0  0  0  0  2  0  0  0  0  0  0
  185.2400  178.8130  141.2510 C   0  0  1  0  0  3  0  0  0  0  0  0
  185.7750  177.9180  142.3670 C   0  0  0  0  0  2  0  0  0  0  0  0
  184.0060  178.8420  143.9660 C   0  0  0  0  0  2  0  0  0  0  0  0
  186.0070  177.6670  144.8090 C   0  0  0  0  0  3  0  0  0  0  0  0
  188.5290  176.9900  144.8450 C   0  0  0  0  0  0  0  0  0  0  0  0
  191.1450  177.5170  147.5510 C   0  0  0  0  0  1  0  0  0  0  0  0
  187.2630  177.3250  144.8280 C   0  0  0  0  0  0  0  0  0  0  0  0
  191.3410  177.5500  145.0730 C   0  0  0  0  0  2  0  0  0  0  0  0
  188.6390  177.3970  142.4810 O   0  0  0  0  0  1  0  0  0  0  0  0
  189.3640  176.9400  143.5850 C   0  0  1  0  0  0  0  0  0  0  0  0
  190.6040  177.8260  143.7580 C   0  0  0  0  0  2  0  0  0  0  0  0
  189.2120  176.8120  146.1650 C   0  0  0  0  0  2  0  0  0  0  0  0
  190.4000  177.7620  146.2580 C   0  0  1  0  0  3  0  0  0  0  0  0
  189.7930  175.5100  143.3150 C   0  0  0  0  0  1  0  0  0  0  0  0
  184.8070  178.2160  137.5300 N   0  0  0  0  0  2  0  0  0  0  0  0
  186.2060  177.7570  135.3360 O   0  0  0  0  0  0  0  0  0  0  0  0
  187.2190  179.1480  137.0690 O   0  0  0  0  0  0  0  0  0  0  0  0
  186.3610  177.9420  136.8170 S   0  0  0  0  0  0  0  0  0  0  0  0
  187.1410  176.4930  137.5140 C   0  0  0  0  0  2  0  0  0  0  0  0
  189.1980  175.2020  136.8160 C   0  0  0  0  0  0  0  0  0  0  0  0
  188.5400  176.4380  137.1160 N   0  0  0  0  0  2  0  0  0  0  0  0
  188.5450  174.1260  136.7560 O   0  0  0  0  0  0  0  0  0  0  0  0
  190.6660  175.1880  136.5590 C   0  0  0  0  0  2  0  0  0  0  0  0
  191.7050  175.9030  138.5820 C   0  0  0  0  0  2  0  0  0  0  0  0
  191.3840  174.7360  137.7480 N   0  0  0  0  0  0  0  0  0  0  0  0
  192.8550  176.7240  137.9840 C   0  0  0  0  0  2  0  0  0  0  0  0
  192.6010  174.0160  137.3440 C   0  0  0  0  0  2  0  0  0  0  0  0
  193.9900  175.9130  137.8370 O   0  0  0  0  0  0  0  0  0  0  0  0
  193.6820  174.9780  136.8370 C   0  0  0  0  0  2  0  0  0  0  0  0
  182.3870  177.7260  139.9880 C   0  0  0  0  0  2  0  0  0  0  0  0
  181.4260  177.6620  138.8100 C   0  0  0  0  0  2  0  0  0  0  0  0
  180.0920  178.2400  139.1660 C   0  0  0  0  0  0  0  0  0  0  0  0
  179.5480  177.9050  140.2090 O   0  0  0  0  0  0  0  0  0  0  0  0
  180.8580  180.7550  136.8240 C   0  0  0  0  0  3  0  0  0  0  0  0
  179.4580  179.2600  138.2670 C   0  0  1  0  0  3  0  0  0  0  0  0
  179.0250  180.5200  139.0360 C   0  0  0  0  0  2  0  0  0  0  0  0
  180.3470  179.5420  137.0790 C   0  0  0  0  0  3  0  0  0  0  0  0
  180.1510  181.5470  139.0890 C   0  0  0  0  0  2  0  0  0  0  0  0
  180.5110  181.9560  137.6660 C   0  0  1  0  0  3  0  0  0  0  0  0
  181.6650  182.9480  137.6810 C   0  0  0  0  0  2  0  0  0  0  0  0
  181.1710  184.2500  137.6000 O   0  0  0  0  0  0  0  0  0  0  0  0
  181.0490  184.4940  136.2310 C   0  0  0  0  0  1  0  0  0  0  0  0
  2 37  1  6  0  0  0
  2  5  1  0  0  0  0
  3 10  1  0  0  0  0
  3 11  1  1  0  0  0
  4  2  1  0  0  0  0
  5  7  1  1  0  0  0
  6 22  1  6  0  0  0
  6  4  1  0  0  0  0
  6  1  1  0  0  0  0
  7 10  1  0  0  0  0
  8  1  1  6  0  0  0
  8  5  1  0  0  0  0
  8  9  1  0  0  0  0
  9  3  1  0  0  0  0
 11 14  2  0  0  0  0
 12 19  1  0  0  0  0
 14 12  2  0  0  0  0
 15 20  1  0  0  0  0
 16 17  1  0  0  0  0
 17 21  1  6  0  0  0
 17 18  1  0  0  0  0
 17 12  1  0  0  0  0
 18 15  1  0  0  0  0
 19 20  1  0  0  0  0
 20 13  1  1  0  0  0
 23 25  2  0  0  0  0
 25 24  2  0  0  0  0
 25 26  1  0  0  0  0
 25 22  1  0  0  0  0
 27 28  1  0  0  0  0
 28 26  1  0  0  0  0
 29 27  2  0  0  0  0
 30 27  1  0  0  0  0
 30 32  1  0  0  0  0
 32 31  1  0  0  0  0
 33 31  1  0  0  0  0
 34 32  1  0  0  0  0
 35 33  1  0  0  0  0
 36 34  1  0  0  0  0
 36 35  1  0  0  0  0
 38 39  1  0  0  0  0
 38 37  1  0  0  0  0
 39 40  2  0  0  0  0
 41 44  2  0  0  0  0
 41 46  1  0  0  0  0
 42 43  1  0  0  0  0
 42 39  1  1  0  0  0
 43 45  1  0  0  0  0
 44 42  1  0  0  0  0
 46 47  1  1  0  0  0
 46 45  1  0  0  0  0
 48 47  1  0  0  0  0
 49 48  1  0  0  0  0
M  END
>  <MODEL>
1

>  <REMARK>
 VINA RESULT:      -7.6      0.000      0.000
  Name = 
  13 active torsions:
  status: ('A' for Active; 'I' for Inactive)
    1  A    between atoms: C_1  and  C_13
    2  A    between atoms: C_2  and  C_32
    3  A    between atoms: N_4  and  C_32
    4  A    between atoms: N_7  and  C_35
    5  A    between atoms: C_8  and  C_43
    6  A    between atoms: C_16  and  C_41
    7  A    between atoms: C_16  and  C_43
    8  A    between atoms: N_21  and  C_22
    9  A    between atoms: N_21  and  S_38
   10  A    between atoms: C_26  and  O_31
   11  A    between atoms: C_26  and  C_46
   12  A    between atoms: C_28  and  C_41
   13  A    between atoms: C_35  and  S_38
                            x       y       z     vdW  Elec       q    Type
                         _______ _______ _______ _____ _____    ______ ____

>  <TORSDO>
F 13

$$$$
=
 OpenBabel11032419403D

 49 53  0  0  1  0  0  0  0  0999 V2000
  183.6490  177.8380  136.8760 C   0  0  0  0  0  2  0  0  0  0  0  0
  182.6100  176.4740  139.0830 C   0  0  2  0  0  3  0  0  0  0  0  0
  179.9000  178.2480  136.0980 C   0  0  1  0  0  3  0  0  0  0  0  0
  183.8360  175.8070  138.4460 C   0  0  0  0  0  2  0  0  0  0  0  0
  181.5810  176.7970  137.9860 C   0  0  1  0  0  3  0  0  0  0  0  0
  184.5130  176.6600  137.3550 C   0  0  2  0  0  3  0  0  0  0  0  0
  180.3590  177.5450  138.5280 C   0  0  0  0  0  2  0  0  0  0  0  0
  182.1880  177.4290  136.7010 C   0  0  1  0  0  3  0  0  0  0  0  0
  181.3780  178.6170  136.1880 C   0  0  0  0  0  2  0  0  0  0  0  0
  179.3160  177.7570  137.4320 C   0  0  0  0  0  2  0  0  0  0  0  0
  179.1160  179.4110  135.6090 C   0  0  0  0  0  3  0  0  0  0  0  0
  179.5440  181.7800  136.6210 C   0  0  0  0  0  0  0  0  0  0  0  0
  180.5640  185.0090  134.8950 C   0  0  0  0  0  1  0  0  0  0  0  0
  179.3250  180.5930  136.1140 C   0  0  0  0  0  0  0  0  0  0  0  0
  181.1550  184.1070  137.1350 C   0  0  0  0  0  2  0  0  0  0  0  0
  180.4100  180.7420  138.6050 O   0  0  0  0  0  1  0  0  0  0  0  0
  180.0870  181.9690  138.0200 C   0  0  1  0  0  0  0  0  0  0  0  0
  181.3520  182.8340  137.9640 C   0  0  0  0  0  2  0  0  0  0  0  0
  179.4100  182.9800  135.7370 C   0  0  0  0  0  2  0  0  0  0  0  0
  180.7270  183.7470  135.7130 C   0  0  1  0  0  3  0  0  0  0  0  0
  179.0420  182.6500  138.8840 C   0  0  0  0  0  1  0  0  0  0  0  0
  185.7880  177.1460  137.8640 N   0  0  0  0  0  2  0  0  0  0  0  0
  187.2980  175.0200  137.4320 O   0  0  0  0  0  0  0  0  0  0  0  0
  186.7110  176.4150  135.5150 O   0  0  0  0  0  0  0  0  0  0  0  0
  187.0880  176.4320  136.9690 S   0  0  0  0  0  0  0  0  0  0  0  0
  188.6020  177.3560  137.1870 C   0  0  0  0  0  2  0  0  0  0  0  0
  189.2350  177.4090  139.6330 C   0  0  0  0  0  0  0  0  0  0  0  0
  189.3450  176.8360  138.3250 N   0  0  0  0  0  2  0  0  0  0  0  0
  188.3810  178.3060  139.8700 O   0  0  0  0  0  0  0  0  0  0  0  0
  190.1270  176.9340  140.7280 C   0  0  0  0  0  2  0  0  0  0  0  0
  190.2100  178.2840  142.6910 C   0  0  0  0  0  2  0  0  0  0  0  0
  189.5060  177.1770  142.0270 N   0  0  0  0  0  0  0  0  0  0  0  0
  191.5770  177.8410  143.2290 C   0  0  0  0  0  2  0  0  0  0  0  0
  189.5590  175.9490  142.8360 C   0  0  0  0  0  2  0  0  0  0  0  0
  191.4120  176.7740  144.1240 O   0  0  0  0  0  0  0  0  0  0  0  0
  190.9750  175.6810  143.3600 C   0  0  0  0  0  2  0  0  0  0  0  0
  183.0110  177.7150  139.8890 C   0  0  0  0  0  2  0  0  0  0  0  0
  183.4350  177.3510  141.3030 C   0  0  0  0  0  2  0  0  0  0  0  0
  183.4140  178.5490  142.2010 C   0  0  0  0  0  0  0  0  0  0  0  0
  182.3420  179.0060  142.5720 O   0  0  0  0  0  0  0  0  0  0  0  0
  186.4320  177.7460  143.8260 C   0  0  0  0  0  3  0  0  0  0  0  0
  184.7050  179.1490  142.6730 C   0  0  1  0  0  3  0  0  0  0  0  0
  184.5380  179.9110  143.9990 C   0  0  0  0  0  2  0  0  0  0  0  0
  185.7940  178.1020  142.7020 C   0  0  0  0  0  3  0  0  0  0  0  0
  184.7480  178.9900  145.1950 C   0  0  0  0  0  2  0  0  0  0  0  0
  186.1650  178.4310  145.1420 C   0  0  1  0  0  3  0  0  0  0  0  0
  186.3930  177.4690  146.3000 C   0  0  0  0  0  2  0  0  0  0  0  0
  186.5440  178.1860  147.4870 O   0  0  0  0  0  0  0  0  0  0  0  0
  187.9130  178.1320  147.7570 C   0  0  0  0  0  1  0  0  0  0  0  0
  1  6  1  0  0  0  0
  2 37  1  6  0  0  0
  3 11  1  1  0  0  0
  3  9  1  0  0  0  0
  3 10  1  0  0  0  0
  4  2  1  0  0  0  0
  5  7  1  1  0  0  0
  5  2  1  0  0  0  0
  6 22  1  1  0  0  0
  6  4  1  0  0  0  0
  8  9  1  1  0  0  0
  8  1  1  0  0  0  0
  8  5  1  0  0  0  0
 10  7  1  0  0  0  0
 11 14  2  0  0  0  0
 12 17  1  0  0  0  0
 14 12  2  0  0  0  0
 15 18  1  0  0  0  0
 17 16  1  0  0  0  0
 17 21  1  1  0  0  0
 18 17  1  0  0  0  0
 19 12  1  0  0  0  0
 20 13  1  6  0  0  0
 20 19  1  0  0  0  0
 20 15  1  0  0  0  0
 24 25  2  0  0  0  0
 25 26  1  0  0  0  0
 25 23  2  0  0  0  0
 25 22  1  0  0  0  0
 26 28  1  0  0  0  0
 27 29  2  0  0  0  0
 27 30  1  0  0  0  0
 28 27  1  0  0  0  0
 30 32  1  0  0  0  0
 31 33  1  0  0  0  0
 32 31  1  0  0  0  0
 32 34  1  0  0  0  0
 33 35  1  0  0  0  0
 34 36  1  0  0  0  0
 36 35  1  0  0  0  0
 37 38  1  0  0  0  0
 38 39  1  0  0  0  0
 39 40  2  0  0  0  0
 41 46  1  0  0  0  0
 42 39  1  1  0  0  0
 42 44  1  0  0  0  0
 42 43  1  0  0  0  0
 43 45  1  0  0  0  0
 44 41  2  0  0  0  0
 46 45  1  0  0  0  0
 46 47  1  1  0  0  0
 47 48  1  0  0  0  0
 48 49  1  0  0  0  0
M  END
>  <MODEL>
2

>  <REMARK>
 VINA RESULT:      -7.5      2.430      8.664
  Name = 
  13 active torsions:
  status: ('A' for Active; 'I' for Inactive)
    1  A    between atoms: C_1  and  C_13
    2  A    between atoms: C_2  and  C_32
    3  A    between atoms: N_4  and  C_32
    4  A    between atoms: N_7  and  C_35
    5  A    between atoms: C_8  and  C_43
    6  A    between atoms: C_16  and  C_41
    7  A    between atoms: C_16  and  C_43
    8  A    between atoms: N_21  and  C_22
    9  A    between atoms: N_21  and  S_38
   10  A    between atoms: C_26  and  O_31
   11  A    between atoms: C_26  and  C_46
   12  A    between atoms: C_28  and  C_41
   13  A    between atoms: C_35  and  S_38
                            x       y       z     vdW  Elec       q    Type
                         _______ _______ _______ _____ _____    ______ ____

>  <TORSDO>
F 13

$$$$
=
 OpenBabel11032419403D

 49 53  0  0  1  0  0  0  0  0999 V2000
  182.7770  178.4210  141.7790 C   0  0  0  0  0  2  0  0  0  0  0  0
  185.0560  179.2260  143.1810 C   0  0  2  0  0  3  0  0  0  0  0  0
  185.2890  178.3980  138.8610 C   0  0  1  0  0  3  0  0  0  0  0  0
  183.7750  179.9750  143.5710 C   0  0  0  0  0  2  0  0  0  0  0  0
  185.2050  179.2410  141.6500 C   0  0  1  0  0  3  0  0  0  0  0  0
  182.4970  179.3960  142.9340 C   0  0  2  0  0  3  0  0  0  0  0  0
  186.4180  178.4370  141.1700 C   0  0  0  0  0  2  0  0  0  0  0  0
  183.8950  178.9290  140.8730 C   0  0  1  0  0  3  0  0  0  0  0  0
  184.1100  177.9490  139.7210 C   0  0  0  0  0  2  0  0  0  0  0  0
  186.5930  178.5610  139.6570 C   0  0  0  0  0  2  0  0  0  0  0  0
  185.5000  177.4350  137.7500 C   0  0  0  0  0  3  0  0  0  0  0  0
  187.9270  176.8650  136.9710 C   0  0  0  0  0  0  0  0  0  0  0  0
  189.6960  173.5070  136.7980 C   0  0  0  0  0  1  0  0  0  0  0  0
  186.7090  177.1520  137.3570 C   0  0  0  0  0  0  0  0  0  0  0  0
  190.5600  175.7730  137.3450 C   0  0  0  0  0  2  0  0  0  0  0  0
  188.6720  178.9670  137.8620 O   0  0  0  0  0  1  0  0  0  0  0  0
  189.0740  177.8330  137.1500 C   0  0  1  0  0  0  0  0  0  0  0  0
  190.2060  177.1460  137.9250 C   0  0  0  0  0  2  0  0  0  0  0  0
  188.2260  175.4810  136.4880 C   0  0  0  0  0  2  0  0  0  0  0  0
  189.3290  174.8690  137.3430 C   0  0  1  0  0  3  0  0  0  0  0  0
  189.5830  178.2780  135.7920 C   0  0  0  0  0  1  0  0  0  0  0  0
  181.7130  178.7380  143.9700 N   0  0  0  0  0  2  0  0  0  0  0  0
  179.6520  177.4560  142.9250 O   0  0  0  0  0  0  0  0  0  0  0  0
  179.2300  178.9640  144.7980 O   0  0  0  0  0  0  0  0  0  0  0  0
  180.0340  178.7680  143.5450 S   0  0  0  0  0  0  0  0  0  0  0  0
  179.6860  180.0880  142.3930 C   0  0  0  0  0  2  0  0  0  0  0  0
  180.0980  180.1730  139.9010 C   0  0  0  0  0  0  0  0  0  0  0  0
  179.5170  179.5490  141.0510 N   0  0  0  0  0  2  0  0  0  0  0  0
  180.8940  181.1420  140.0310 O   0  0  0  0  0  0  0  0  0  0  0  0
  179.7730  179.6660  138.5380 C   0  0  0  0  0  2  0  0  0  0  0  0
  180.2570  180.9140  136.5650 C   0  0  0  0  0  2  0  0  0  0  0  0
  180.8270  180.0340  137.5960 N   0  0  0  0  0  0  0  0  0  0  0  0
  179.3950  180.1300  135.5680 C   0  0  0  0  0  2  0  0  0  0  0  0
  181.4020  178.8170  137.0020 C   0  0  0  0  0  2  0  0  0  0  0  0
  180.1630  179.1230  134.9660 O   0  0  0  0  0  0  0  0  0  0  0  0
  180.4530  178.1900  135.9740 C   0  0  0  0  0  2  0  0  0  0  0  0
  185.0620  177.8040  143.7520 C   0  0  0  0  0  2  0  0  0  0  0  0
  185.9810  177.6890  144.9590 C   0  0  0  0  0  2  0  0  0  0  0  0
  187.3560  177.2600  144.5550 C   0  0  0  0  0  0  0  0  0  0  0  0
  187.4990  176.2500  143.8790 O   0  0  0  0  0  0  0  0  0  0  0  0
  190.8770  177.2800  144.5400 C   0  0  0  0  0  3  0  0  0  0  0  0
  188.5420  178.0940  144.9410 C   0  0  1  0  0  3  0  0  0  0  0  0
  188.8430  178.0090  146.4470 C   0  0  0  0  0  2  0  0  0  0  0  0
  189.7250  177.7710  144.0600 C   0  0  0  0  0  3  0  0  0  0  0  0
  189.7940  176.8570  146.7540 C   0  0  0  0  0  2  0  0  0  0  0  0
  191.1070  177.0940  146.0170 C   0  0  1  0  0  3  0  0  0  0  0  0
  192.0640  175.9370  146.2660 C   0  0  0  0  0  2  0  0  0  0  0  0
  191.7740  175.3380  147.4920 O   0  0  0  0  0  0  0  0  0  0  0  0
  192.8020  175.7570  148.3380 C   0  0  0  0  0  1  0  0  0  0  0  0
  1  6  1  0  0  0  0
  2  4  1  0  0  0  0
  2 37  1  6  0  0  0
  3 11  1  6  0  0  0
  3 10  1  0  0  0  0
  3  9  1  0  0  0  0
  5  7  1  1  0  0  0
  5  2  1  0  0  0  0
  6  4  1  0  0  0  0
  6 22  1  1  0  0  0
  8  9  1  6  0  0  0
  8  5  1  0  0  0  0
  8  1  1  0  0  0  0
 10  7  1  0  0  0  0
 12 17  1  0  0  0  0
 12 14  2  0  0  0  0
 14 11  2  0  0  0  0
 15 18  1  0  0  0  0
 17 21  1  6  0  0  0
 17 16  1  0  0  0  0
 17 18  1  0  0  0  0
 19 12  1  0  0  0  0
 19 20  1  0  0  0  0
 20 13  1  6  0  0  0
 20 15  1  0  0  0  0
 23 25  2  0  0  0  0
 25 22  1  0  0  0  0
 25 24  2  0  0  0  0
 26 25  1  0  0  0  0
 27 29  2  0  0  0  0
 27 28  1  0  0  0  0
 28 26  1  0  0  0  0
 30 27  1  0  0  0  0
 31 32  1  0  0  0  0
 32 30  1  0  0  0  0
 33 31  1  0  0  0  0
 34 32  1  0  0  0  0
 35 33  1  0  0  0  0
 35 36  1  0  0  0  0
 36 34  1  0  0  0  0
 37 38  1  0  0  0  0
 39 38  1  0  0  0  0
 40 39  2  0  0  0  0
 41 46  1  0  0  0  0
 42 39  1  6  0  0  0
 42 43  1  0  0  0  0
 43 45  1  0  0  0  0
 44 41  2  0  0  0  0
 44 42  1  0  0  0  0
 46 47  1  6  0  0  0
 46 45  1  0  0  0  0
 47 48  1  0  0  0  0
 48 49  1  0  0  0  0
M  END
>  <MODEL>
3

>  <REMARK>
 VINA RESULT:      -7.3      3.259     10.045
  Name = 
  13 active torsions:
  status: ('A' for Active; 'I' for Inactive)
    1  A    between atoms: C_1  and  C_13
    2  A    between atoms: C_2  and  C_32
    3  A    between atoms: N_4  and  C_32
    4  A    between atoms: N_7  and  C_35
    5  A    between atoms: C_8  and  C_43
    6  A    between atoms: C_16  and  C_41
    7  A    between atoms: C_16  and  C_43
    8  A    between atoms: N_21  and  C_22
    9  A    between atoms: N_21  and  S_38
   10  A    between atoms: C_26  and  O_31
   11  A    between atoms: C_26  and  C_46
   12  A    between atoms: C_28  and  C_41
   13  A    between atoms: C_35  and  S_38
                            x       y       z     vdW  Elec       q    Type
                         _______ _______ _______ _____ _____    ______ ____

>  <TORSDO>
F 13

$$$$
=
 OpenBabel11032419403D

 49 53  0  0  1  0  0  0  0  0999 V2000
  184.0660  178.0210  140.0860 C   0  0  0  0  0  2  0  0  0  0  0  0
  181.5720  179.1380  140.6710 C   0  0  2  0  0  3  0  0  0  0  0  0
  184.5790  178.6460  143.8510 C   0  0  1  0  0  3  0  0  0  0  0  0
  182.1850  179.6130  139.3460 C   0  0  0  0  0  2  0  0  0  0  0  0
  182.6170  179.2780  141.7920 C   0  0  1  0  0  3  0  0  0  0  0  0
  183.4630  178.8530  138.9430 C   0  0  2  0  0  3  0  0  0  0  0  0
  182.1120  178.7420  143.1350 C   0  0  0  0  0  2  0  0  0  0  0  0
  184.0400  178.7830  141.4100 C   0  0  1  0  0  3  0  0  0  0  0  0
  184.6840  177.9350  142.5040 C   0  0  0  0  0  2  0  0  0  0  0  0
  183.1350  178.9930  144.2430 C   0  0  0  0  0  2  0  0  0  0  0  0
  185.1960  177.8110  144.9130 C   0  0  0  0  0  3  0  0  0  0  0  0
  187.7340  177.2070  144.7780 C   0  0  0  0  0  0  0  0  0  0  0  0
  190.5260  177.8840  147.2650 C   0  0  0  0  0  1  0  0  0  0  0  0
  186.4610  177.5050  144.8470 C   0  0  0  0  0  0  0  0  0  0  0  0
  190.5360  177.8520  144.7790 C   0  0  0  0  0  2  0  0  0  0  0  0
  187.6560  177.5480  142.4030 O   0  0  0  0  0  1  0  0  0  0  0  0
  188.4740  177.1440  143.4610 C   0  0  1  0  0  0  0  0  0  0  0  0
  189.6960  178.0690  143.5170 C   0  0  0  0  0  2  0  0  0  0  0  0
  188.5180  177.0860  146.0470 C   0  0  0  0  0  2  0  0  0  0  0  0
  189.6800  178.0710  146.0250 C   0  0  1  0  0  3  0  0  0  0  0  0
  188.9250  175.7190  143.1980 C   0  0  0  0  0  1  0  0  0  0  0  0
  183.1600  177.9970  137.8040 N   0  0  0  0  0  2  0  0  0  0  0  0
  184.7560  175.9080  137.5380 O   0  0  0  0  0  0  0  0  0  0  0  0
  184.5580  177.4450  135.6500 O   0  0  0  0  0  0  0  0  0  0  0  0
  184.6260  177.3520  137.1470 S   0  0  0  0  0  0  0  0  0  0  0  0
  186.0490  178.2540  137.7420 C   0  0  0  0  0  2  0  0  0  0  0  0
  188.5090  178.0220  137.2100 C   0  0  0  0  0  0  0  0  0  0  0  0
  187.2520  177.4490  137.5880 N   0  0  0  0  0  2  0  0  0  0  0  0
  188.6440  179.2730  137.1300 O   0  0  0  0  0  0  0  0  0  0  0  0
  189.6720  177.1350  136.9220 C   0  0  0  0  0  2  0  0  0  0  0  0
  190.8510  176.3940  138.8560 C   0  0  0  0  0  2  0  0  0  0  0  0
  189.7600  176.0760  137.9230 N   0  0  0  0  0  0  0  0  0  0  0  0
  192.2260  176.1520  138.2200 C   0  0  0  0  0  2  0  0  0  0  0  0
  189.9880  174.7850  137.2550 C   0  0  0  0  0  2  0  0  0  0  0  0
  192.3270  174.8160  137.8030 O   0  0  0  0  0  0  0  0  0  0  0  0
  191.4260  174.6650  136.7380 C   0  0  0  0  0  2  0  0  0  0  0  0
  181.0360  177.7070  140.5510 C   0  0  0  0  0  2  0  0  0  0  0  0
  179.9750  177.5960  139.4660 C   0  0  0  0  0  2  0  0  0  0  0  0
  179.3420  176.2400  139.4640 C   0  0  0  0  0  0  0  0  0  0  0  0
  178.9550  175.7520  140.5170 O   0  0  0  0  0  0  0  0  0  0  0  0
  179.7550  173.0920  137.9430 C   0  0  0  0  0  3  0  0  0  0  0  0
  179.1450  175.5110  138.1670 C   0  0  1  0  0  3  0  0  0  0  0  0
  180.2640  175.8170  137.1570 C   0  0  0  0  0  2  0  0  0  0  0  0
  178.9310  174.0370  138.4170 C   0  0  0  0  0  3  0  0  0  0  0  0
  181.4250  174.8410  137.3090 C   0  0  0  0  0  2  0  0  0  0  0  0
  180.9180  173.4290  137.0470 C   0  0  1  0  0  3  0  0  0  0  0  0
  182.0460  172.4240  137.2360 C   0  0  0  0  0  2  0  0  0  0  0  0
  183.0800  172.6990  136.3420 O   0  0  0  0  0  0  0  0  0  0  0  0
  184.2300  172.2330  136.9810 C   0  0  0  0  0  1  0  0  0  0  0  0
  2 37  1  6  0  0  0
  2  5  1  0  0  0  0
  3 10  1  0  0  0  0
  3 11  1  1  0  0  0
  4  2  1  0  0  0  0
  5  7  1  1  0  0  0
  6 22  1  6  0  0  0
  6  4  1  0  0  0  0
  6  1  1  0  0  0  0
  7 10  1  0  0  0  0
  8  1  1  6  0  0  0
  8  5  1  0  0  0  0
  8  9  1  0  0  0  0
  9  3  1  0  0  0  0
 12 14  2  0  0  0  0
 12 19  1  0  0  0  0
 14 11  2  0  0  0  0
 15 20  1  0  0  0  0
 16 17  1  0  0  0  0
 17 21  1  6  0  0  0
 17 18  1  0  0  0  0
 17 12  1  0  0  0  0
 18 15  1  0  0  0  0
 20 19  1  0  0  0  0
 20 13  1  1  0  0  0
 24 25  2  0  0  0  0
 25 23  2  0  0  0  0
 25 26  1  0  0  0  0
 25 22  1  0  0  0  0
 27 28  1  0  0  0  0
 28 26  1  0  0  0  0
 29 27  2  0  0  0  0
 30 27  1  0  0  0  0
 30 32  1  0  0  0  0
 32 31  1  0  0  0  0
 33 31  1  0  0  0  0
 34 32  1  0  0  0  0
 35 33  1  0  0  0  0
 36 34  1  0  0  0  0
 36 35  1  0  0  0  0
 38 37  1  0  0  0  0
 39 38  1  0  0  0  0
 39 40  2  0  0  0  0
 41 44  2  0  0  0  0
 42 44  1  0  0  0  0
 42 39  1  1  0  0  0
 43 45  1  0  0  0  0
 43 42  1  0  0  0  0
 46 47  1  1  0  0  0
 46 45  1  0  0  0  0
 46 41  1  0  0  0  0
 48 49  1  0  0  0  0
 48 47  1  0  0  0  0
M  END
>  <MODEL>
4

>  <REMARK>
 VINA RESULT:      -7.3      2.295      4.059
  Name = 
  13 active torsions:
  status: ('A' for Active; 'I' for Inactive)
    1  A    between atoms: C_1  and  C_13
    2  A    between atoms: C_2  and  C_32
    3  A    between atoms: N_4  and  C_32
    4  A    between atoms: N_7  and  C_35
    5  A    between atoms: C_8  and  C_43
    6  A    between atoms: C_16  and  C_41
    7  A    between atoms: C_16  and  C_43
    8  A    between atoms: N_21  and  C_22
    9  A    between atoms: N_21  and  S_38
   10  A    between atoms: C_26  and  O_31
   11  A    between atoms: C_26  and  C_46
   12  A    between atoms: C_28  and  C_41
   13  A    between atoms: C_35  and  S_38
                            x       y       z     vdW  Elec       q    Type
                         _______ _______ _______ _____ _____    ______ ____

>  <TORSDO>
F 13

$$$$
=
 OpenBabel11032419403D

 49 53  0  0  1  0  0  0  0  0999 V2000
  186.3390  177.8510  140.0260 C   0  0  0  0  0  2  0  0  0  0  0  0
  189.0720  178.3570  140.3190 C   0  0  2  0  0  3  0  0  0  0  0  0
  187.2890  178.0780  136.3010 C   0  0  1  0  0  3  0  0  0  0  0  0
  188.1770  179.1120  141.3120 C   0  0  0  0  0  2  0  0  0  0  0  0
  188.5310  178.5600  138.8930 C   0  0  1  0  0  3  0  0  0  0  0  0
  186.6980  178.6830  141.2670 C   0  0  2  0  0  3  0  0  0  0  0  0
  189.3190  177.7660  137.8470 C   0  0  0  0  0  2  0  0  0  0  0  0
  186.9880  178.4150  138.7640 C   0  0  1  0  0  3  0  0  0  0  0  0
  186.5720  177.5820  137.5540 C   0  0  0  0  0  2  0  0  0  0  0  0
  188.8190  178.0740  136.4350 C   0  0  0  0  0  2  0  0  0  0  0  0
  186.8890  177.2560  135.1300 C   0  0  0  0  0  3  0  0  0  0  0  0
  186.3310  174.7250  135.4520 C   0  0  0  0  0  0  0  0  0  0  0  0
  183.1480  172.8180  134.6310 C   0  0  0  0  0  1  0  0  0  0  0  0
  186.6140  175.9930  135.2870 C   0  0  0  0  0  0  0  0  0  0  0  0
  184.7700  172.5460  136.4950 C   0  0  0  0  0  2  0  0  0  0  0  0
  187.6770  174.7140  137.4410 O   0  0  0  0  0  1  0  0  0  0  0  0
  186.9200  173.9110  136.5820 C   0  0  1  0  0  0  0  0  0  0  0  0
  185.7890  173.2620  137.3880 C   0  0  0  0  0  2  0  0  0  0  0  0
  185.2700  174.1030  134.6000 C   0  0  0  0  0  2  0  0  0  0  0  0
  184.1730  173.5270  135.4880 C   0  0  1  0  0  3  0  0  0  0  0  0
  187.8250  172.8330  136.0160 C   0  0  0  0  0  1  0  0  0  0  0  0
  186.3890  177.9370  142.4800 N   0  0  0  0  0  2  0  0  0  0  0  0
  185.6980  178.7070  144.9110 O   0  0  0  0  0  0  0  0  0  0  0  0
  185.4030  180.2960  143.0800 O   0  0  0  0  0  0  0  0  0  0  0  0
  185.3010  178.8500  143.4700 S   0  0  0  0  0  0  0  0  0  0  0  0
  183.6180  178.2870  143.2640 C   0  0  0  0  0  2  0  0  0  0  0  0
  181.9040  178.6540  141.4440 C   0  0  0  0  0  0  0  0  0  0  0  0
  183.2390  178.3480  141.8600 N   0  0  0  0  0  2  0  0  0  0  0  0
  181.0370  179.0160  142.2860 O   0  0  0  0  0  0  0  0  0  0  0  0
  181.5350  178.5580  140.0030 C   0  0  0  0  0  2  0  0  0  0  0  0
  182.5860  178.2430  137.8870 C   0  0  0  0  0  2  0  0  0  0  0  0
  182.5290  177.7710  139.2790 N   0  0  0  0  0  0  0  0  0  0  0  0
  181.3670  177.7720  137.0830 C   0  0  0  0  0  2  0  0  0  0  0  0
  182.1730  176.3450  139.3460 C   0  0  0  0  0  2  0  0  0  0  0  0
  181.2920  176.3710  137.1110 O   0  0  0  0  0  0  0  0  0  0  0  0
  180.9850  176.0180  138.4340 C   0  0  0  0  0  2  0  0  0  0  0  0
  189.1850  176.8750  140.6920 C   0  0  0  0  0  2  0  0  0  0  0  0
  190.5790  176.5290  141.1950 C   0  0  0  0  0  2  0  0  0  0  0  0
  190.5630  176.2050  142.6570 C   0  0  0  0  0  0  0  0  0  0  0  0
  190.2210  175.0900  143.0240 O   0  0  0  0  0  0  0  0  0  0  0  0
  191.1870  176.6770  146.0890 C   0  0  0  0  0  3  0  0  0  0  0  0
  191.0090  177.2340  143.6530 C   0  0  1  0  0  3  0  0  0  0  0  0
  189.8760  178.2060  144.0280 C   0  0  0  0  0  2  0  0  0  0  0  0
  191.6640  176.5700  144.8410 C   0  0  0  0  0  3  0  0  0  0  0  0
  189.0720  177.6830  145.2130 C   0  0  0  0  0  2  0  0  0  0  0  0
  189.9990  177.5460  146.4140 C   0  0  1  0  0  3  0  0  0  0  0  0
  189.2360  176.9820  147.6040 C   0  0  0  0  0  2  0  0  0  0  0  0
  188.9990  177.9930  148.5360 O   0  0  0  0  0  0  0  0  0  0  0  0
  187.6300  178.2460  148.4380 C   0  0  0  0  0  1  0  0  0  0  0  0
  1  6  1  0  0  0  0
  2 37  1  1  0  0  0
  2  4  1  0  0  0  0
  3 11  1  6  0  0  0
  3 10  1  0  0  0  0
  3  9  1  0  0  0  0
  5  7  1  6  0  0  0
  5  2  1  0  0  0  0
  6  4  1  0  0  0  0
  6 22  1  1  0  0  0
  8  9  1  6  0  0  0
  8  5  1  0  0  0  0
  8  1  1  0  0  0  0
 10  7  1  0  0  0  0
 11 14  2  0  0  0  0
 12 17  1  0  0  0  0
 14 12  2  0  0  0  0
 15 18  1  0  0  0  0
 17 21  1  6  0  0  0
 17 18  1  0  0  0  0
 17 16  1  0  0  0  0
 19 12  1  0  0  0  0
 19 20  1  0  0  0  0
 20 13  1  6  0  0  0
 20 15  1  0  0  0  0
 22 25  1  0  0  0  0
 24 25  2  0  0  0  0
 25 23  2  0  0  0  0
 26 25  1  0  0  0  0
 27 28  1  0  0  0  0
 27 29  2  0  0  0  0
 28 26  1  0  0  0  0
 30 27  1  0  0  0  0
 31 32  1  0  0  0  0
 32 34  1  0  0  0  0
 32 30  1  0  0  0  0
 33 35  1  0  0  0  0
 33 31  1  0  0  0  0
 35 36  1  0  0  0  0
 36 34  1  0  0  0  0
 37 38  1  0  0  0  0
 38 39  1  0  0  0  0
 39 40  2  0  0  0  0
 41 46  1  0  0  0  0
 42 39  1  6  0  0  0
 42 43  1  0  0  0  0
 42 44  1  0  0  0  0
 43 45  1  0  0  0  0
 44 41  2  0  0  0  0
 45 46  1  0  0  0  0
 46 47  1  1  0  0  0
 47 48  1  0  0  0  0
 49 48  1  0  0  0  0
M  END
>  <MODEL>
5

>  <REMARK>
 VINA RESULT:      -7.1      3.408     10.147
  Name = 
  13 active torsions:
  status: ('A' for Active; 'I' for Inactive)
    1  A    between atoms: C_1  and  C_13
    2  A    between atoms: C_2  and  C_32
    3  A    between atoms: N_4  and  C_32
    4  A    between atoms: N_7  and  C_35
    5  A    between atoms: C_8  and  C_43
    6  A    between atoms: C_16  and  C_41
    7  A    between atoms: C_16  and  C_43
    8  A    between atoms: N_21  and  C_22
    9  A    between atoms: N_21  and  S_38
   10  A    between atoms: C_26  and  O_31
   11  A    between atoms: C_26  and  C_46
   12  A    between atoms: C_28  and  C_41
   13  A    between atoms: C_35  and  S_38
                            x       y       z     vdW  Elec       q    Type
                         _______ _______ _______ _____ _____    ______ ____

>  <TORSDO>
F 13

$$$$
=
 OpenBabel11032419403D

 49 53  0  0  1  0  0  0  0  0999 V2000
  184.1020  177.5940  142.1940 C   0  0  0  0  0  2  0  0  0  0  0  0
  185.8990  179.3780  141.0110 C   0  0  2  0  0  3  0  0  0  0  0  0
  182.4790  177.8260  138.7090 C   0  0  1  0  0  3  0  0  0  0  0  0
  185.5300  179.7180  142.4610 C   0  0  0  0  0  2  0  0  0  0  0  0
  184.6120  179.1340  140.2040 C   0  0  1  0  0  3  0  0  0  0  0  0
  184.6940  178.6310  143.1620 C   0  0  2  0  0  3  0  0  0  0  0  0
  184.8950  178.7030  138.7620 C   0  0  0  0  0  2  0  0  0  0  0  0
  183.5550  178.2540  140.9300 C   0  0  1  0  0  3  0  0  0  0  0  0
  182.9440  177.1930  140.0180 C   0  0  0  0  0  2  0  0  0  0  0  0
  183.5970  178.5710  137.9650 C   0  0  0  0  0  2  0  0  0  0  0  0
  181.8960  176.7880  137.8230 C   0  0  0  0  0  3  0  0  0  0  0  0
  183.4420  174.9640  136.7710 C   0  0  0  0  0  0  0  0  0  0  0  0
  183.2610  171.1780  137.0420 C   0  0  0  0  0  1  0  0  0  0  0  0
  182.6650  175.8790  137.2940 C   0  0  0  0  0  0  0  0  0  0  0  0
  185.2170  172.7060  136.9060 C   0  0  0  0  0  2  0  0  0  0  0  0
  185.3120  176.4490  137.0240 O   0  0  0  0  0  1  0  0  0  0  0  0
  184.9140  175.2060  136.5230 C   0  0  1  0  0  0  0  0  0  0  0  0
  185.7360  174.1130  137.2170 C   0  0  0  0  0  2  0  0  0  0  0  0
  182.8990  173.5850  136.5640 C   0  0  0  0  0  2  0  0  0  0  0  0
  183.7540  172.5790  137.3250 C   0  0  1  0  0  3  0  0  0  0  0  0
  185.1900  175.1820  135.0320 C   0  0  0  0  0  1  0  0  0  0  0  0
  185.5240  177.9710  144.1600 N   0  0  0  0  0  2  0  0  0  0  0  0
  185.6890  180.1090  145.7040 O   0  0  0  0  0  0  0  0  0  0  0  0
  183.7710  178.6270  146.0030 O   0  0  0  0  0  0  0  0  0  0  0  0
  185.2450  178.6750  145.7170 S   0  0  0  0  0  0  0  0  0  0  0  0
  186.1350  177.7940  146.9910 C   0  0  0  0  0  2  0  0  0  0  0  0
  188.6500  177.5520  146.9630 C   0  0  0  0  0  0  0  0  0  0  0  0
  187.3570  177.2230  146.4440 N   0  0  0  0  0  2  0  0  0  0  0  0
  188.7630  178.2480  148.0080 O   0  0  0  0  0  0  0  0  0  0  0  0
  189.8740  177.0560  146.2730 C   0  0  0  0  0  2  0  0  0  0  0  0
  189.2380  177.7240  144.0750 C   0  0  0  0  0  2  0  0  0  0  0  0
  190.2140  177.9320  145.1550 N   0  0  0  0  0  0  0  0  0  0  0  0
  189.4820  176.3990  143.3420 C   0  0  0  0  0  2  0  0  0  0  0  0
  191.5830  177.6420  144.7010 C   0  0  0  0  0  2  0  0  0  0  0  0
  190.7850  176.3780  142.8210 O   0  0  0  0  0  0  0  0  0  0  0  0
  191.6510  176.3230  143.9230 C   0  0  0  0  0  2  0  0  0  0  0  0
  186.8590  178.1840  140.9490 C   0  0  0  0  0  2  0  0  0  0  0  0
  188.3000  178.6340  140.7610 C   0  0  0  0  0  2  0  0  0  0  0  0
  188.9700  177.8600  139.6690 C   0  0  0  0  0  0  0  0  0  0  0  0
  190.1500  177.5570  139.7800 O   0  0  0  0  0  0  0  0  0  0  0  0
  189.1240  175.7800  136.8330 C   0  0  0  0  0  3  0  0  0  0  0  0
  188.1800  177.4240  138.4710 C   0  0  1  0  0  3  0  0  0  0  0  0
  188.2170  178.4680  137.3420 C   0  0  0  0  0  2  0  0  0  0  0  0
  188.5980  176.0380  138.0380 C   0  0  0  0  0  3  0  0  0  0  0  0
  189.4000  178.2290  136.4100 C   0  0  0  0  0  2  0  0  0  0  0  0
  189.2590  176.8490  135.7800 C   0  0  1  0  0  3  0  0  0  0  0  0
  190.4500  176.5610  134.8770 C   0  0  0  0  0  2  0  0  0  0  0  0
  191.2380  175.5570  135.4400 O   0  0  0  0  0  0  0  0  0  0  0  0
  192.4940  175.7260  134.8540 C   0  0  0  0  0  1  0  0  0  0  0  0
  1  6  1  0  0  0  0
  2 37  1  1  0  0  0
  2  4  1  0  0  0  0
  3 11  1  6  0  0  0
  3  9  1  0  0  0  0
  4  6  1  0  0  0  0
  5  7  1  6  0  0  0
  5  8  1  0  0  0  0
  5  2  1  0  0  0  0
  6 22  1  1  0  0  0
  8  9  1  6  0  0  0
  8  1  1  0  0  0  0
 10  3  1  0  0  0  0
 10  7  1  0  0  0  0
 12 14  2  0  0  0  0
 14 11  2  0  0  0  0
 15 18  1  0  0  0  0
 15 20  1  0  0  0  0
 17 21  1  6  0  0  0
 17 12  1  0  0  0  0
 17 16  1  0  0  0  0
 17 18  1  0  0  0  0
 19 12  1  0  0  0  0
 19 20  1  0  0  0  0
 20 13  1  6  0  0  0
 22 25  1  0  0  0  0
 23 25  2  0  0  0  0
 25 24  2  0  0  0  0
 25 26  1  0  0  0  0
 27 29  2  0  0  0  0
 28 27  1  0  0  0  0
 28 26  1  0  0  0  0
 30 27  1  0  0  0  0
 31 32  1  0  0  0  0
 32 30  1  0  0  0  0
 33 31  1  0  0  0  0
 34 32  1  0  0  0  0
 35 33  1  0  0  0  0
 35 36  1  0  0  0  0
 36 34  1  0  0  0  0
 38 37  1  0  0  0  0
 39 40  2  0  0  0  0
 39 38  1  0  0  0  0
 41 44  2  0  0  0  0
 42 39  1  1  0  0  0
 43 42  1  0  0  0  0
 44 42  1  0  0  0  0
 45 43  1  0  0  0  0
 46 47  1  1  0  0  0
 46 45  1  0  0  0  0
 46 41  1  0  0  0  0
 47 48  1  0  0  0  0
 49 48  1  0  0  0  0
M  END
>  <MODEL>
6

>  <REMARK>
 VINA RESULT:      -7.1      3.696      8.840
  Name = 
  13 active torsions:
  status: ('A' for Active; 'I' for Inactive)
    1  A    between atoms: C_1  and  C_13
    2  A    between atoms: C_2  and  C_32
    3  A    between atoms: N_4  and  C_32
    4  A    between atoms: N_7  and  C_35
    5  A    between atoms: C_8  and  C_43
    6  A    between atoms: C_16  and  C_41
    7  A    between atoms: C_16  and  C_43
    8  A    between atoms: N_21  and  C_22
    9  A    between atoms: N_21  and  S_38
   10  A    between atoms: C_26  and  O_31
   11  A    between atoms: C_26  and  C_46
   12  A    between atoms: C_28  and  C_41
   13  A    between atoms: C_35  and  S_38
                            x       y       z     vdW  Elec       q    Type
                         _______ _______ _______ _____ _____    ______ ____

>  <TORSDO>
F 13

$$$$
=
 OpenBabel11032419403D

 49 53  0  0  1  0  0  0  0  0999 V2000
  188.5940  176.8110  139.1080 C   0  0  0  0  0  2  0  0  0  0  0  0
  190.5010  176.8080  137.0650 C   0  0  2  0  0  3  0  0  0  0  0  0
  186.2670  177.6000  136.1430 C   0  0  1  0  0  3  0  0  0  0  0  0
  190.9610  177.4890  138.3610 C   0  0  0  0  0  2  0  0  0  0  0  0
  189.1260  177.3670  136.6600 C   0  0  1  0  0  3  0  0  0  0  0  0
  189.9800  177.3190  139.5370 C   0  0  2  0  0  3  0  0  0  0  0  0
  188.5530  176.6750  135.4190 C   0  0  0  0  0  2  0  0  0  0  0  0
  188.1130  177.4980  137.8320 C   0  0  1  0  0  3  0  0  0  0  0  0
  186.7190  176.9920  137.4680 C   0  0  0  0  0  2  0  0  0  0  0  0
  187.2400  177.3260  134.9860 C   0  0  0  0  0  2  0  0  0  0  0  0
  184.9160  177.0950  135.7890 C   0  0  0  0  0  3  0  0  0  0  0  0
  182.8390  177.8660  137.1720 C   0  0  0  0  0  0  0  0  0  0  0  0
  179.6710  179.6220  136.0210 C   0  0  0  0  0  1  0  0  0  0  0  0
  183.8790  177.4750  136.4790 C   0  0  0  0  0  0  0  0  0  0  0  0
  180.9700  179.8300  138.1300 C   0  0  0  0  0  2  0  0  0  0  0  0
  184.2890  178.3410  139.0260 O   0  0  0  0  0  1  0  0  0  0  0  0
  182.9540  178.3060  138.6140 C   0  0  1  0  0  0  0  0  0  0  0  0
  182.3580  179.7110  138.7680 C   0  0  0  0  0  2  0  0  0  0  0  0
  181.5270  178.0380  136.4730 C   0  0  0  0  0  2  0  0  0  0  0  0
  181.0400  179.4720  136.6470 C   0  0  1  0  0  3  0  0  0  0  0  0
  182.2050  177.3340  139.5060 C   0  0  0  0  0  1  0  0  0  0  0  0
  190.5690  176.4120  140.5120 N   0  0  0  0  0  2  0  0  0  0  0  0
  191.7450  177.3200  142.6970 O   0  0  0  0  0  0  0  0  0  0  0  0
  189.6510  178.3680  142.0050 O   0  0  0  0  0  0  0  0  0  0  0  0
  190.3900  177.0640  142.1060 S   0  0  0  0  0  0  0  0  0  0  0  0
  189.4880  175.9410  143.1630 C   0  0  0  0  0  2  0  0  0  0  0  0
  187.6150  177.1370  144.3680 C   0  0  0  0  0  0  0  0  0  0  0  0
  188.0970  176.3590  143.2660 N   0  0  0  0  0  2  0  0  0  0  0  0
  188.4170  177.6010  145.2230 O   0  0  0  0  0  0  0  0  0  0  0  0
  186.1560  177.4110  144.5000 C   0  0  0  0  0  2  0  0  0  0  0  0
  184.8650  179.3300  145.0780 C   0  0  0  0  0  2  0  0  0  0  0  0
  185.8690  178.7980  144.1450 N   0  0  0  0  0  0  0  0  0  0  0  0
  183.4660  178.7770  144.7760 C   0  0  0  0  0  2  0  0  0  0  0  0
  185.3930  178.8620  142.7540 C   0  0  0  0  0  2  0  0  0  0  0  0
  183.1070  179.0900  143.4570 O   0  0  0  0  0  0  0  0  0  0  0  0
  183.9560  178.3430  142.6270 C   0  0  0  0  0  2  0  0  0  0  0  0
  190.4870  175.2830  137.2170 C   0  0  0  0  0  2  0  0  0  0  0  0
  191.3250  174.6060  136.1430 C   0  0  0  0  0  2  0  0  0  0  0  0
  192.7880  174.7790  136.4080 C   0  0  0  0  0  0  0  0  0  0  0  0
  193.4150  175.6350  135.8000 O   0  0  0  0  0  0  0  0  0  0  0  0
  195.6000  174.6750  138.5240 C   0  0  0  0  0  3  0  0  0  0  0  0
  193.4610  173.9350  137.4500 C   0  0  1  0  0  3  0  0  0  0  0  0
  194.2550  172.7730  136.8280 C   0  0  0  0  0  2  0  0  0  0  0  0
  194.2730  174.7990  138.3870 C   0  0  0  0  0  3  0  0  0  0  0  0
  195.6880  173.1910  136.5140 C   0  0  0  0  0  2  0  0  0  0  0  0
  196.3760  173.5990  137.8100 C   0  0  1  0  0  3  0  0  0  0  0  0
  197.7970  174.0660  137.5240 C   0  0  0  0  0  2  0  0  0  0  0  0
  198.0570  175.2440  138.2240 O   0  0  0  0  0  0  0  0  0  0  0  0
  199.0730  174.9040  139.1190 C   0  0  0  0  0  1  0  0  0  0  0  0
  1  6  1  0  0  0  0
  2 37  1  1  0  0  0
  2  4  1  0  0  0  0
  3 11  1  6  0  0  0
  3  9  1  0  0  0  0
  4  6  1  0  0  0  0
  5  7  1  6  0  0  0
  5  2  1  0  0  0  0
  5  8  1  0  0  0  0
  6 22  1  1  0  0  0
  8  9  1  6  0  0  0
  8  1  1  0  0  0  0
 10  7  1  0  0  0  0
 10  3  1  0  0  0  0
 11 14  2  0  0  0  0
 12 17  1  0  0  0  0
 14 12  2  0  0  0  0
 15 18  1  0  0  0  0
 17 18  1  0  0  0  0
 17 16  1  0  0  0  0
 17 21  1  1  0  0  0
 19 20  1  0  0  0  0
 19 12  1  0  0  0  0
 20 13  1  1  0  0  0
 20 15  1  0  0  0  0
 22 25  1  0  0  0  0
 24 25  2  0  0  0  0
 25 23  2  0  0  0  0
 25 26  1  0  0  0  0
 26 28  1  0  0  0  0
 27 30  1  0  0  0  0
 27 29  2  0  0  0  0
 28 27  1  0  0  0  0
 32 30  1  0  0  0  0
 32 31  1  0  0  0  0
 33 31  1  0  0  0  0
 34 32  1  0  0  0  0
 35 33  1  0  0  0  0
 36 34  1  0  0  0  0
 36 35  1  0  0  0  0
 38 39  1  0  0  0  0
 38 37  1  0  0  0  0
 40 39  2  0  0  0  0
 42 39  1  6  0  0  0
 42 44  1  0  0  0  0
 43 42  1  0  0  0  0
 44 41  2  0  0  0  0
 45 43  1  0  0  0  0
 45 46  1  0  0  0  0
 46 47  1  6  0  0  0
 46 41  1  0  0  0  0
 47 48  1  0  0  0  0
 48 49  1  0  0  0  0
M  END
>  <MODEL>
7

>  <REMARK>
 VINA RESULT:      -6.8      2.888     11.446
  Name = 
  13 active torsions:
  status: ('A' for Active; 'I' for Inactive)
    1  A    between atoms: C_1  and  C_13
    2  A    between atoms: C_2  and  C_32
    3  A    between atoms: N_4  and  C_32
    4  A    between atoms: N_7  and  C_35
    5  A    between atoms: C_8  and  C_43
    6  A    between atoms: C_16  and  C_41
    7  A    between atoms: C_16  and  C_43
    8  A    between atoms: N_21  and  C_22
    9  A    between atoms: N_21  and  S_38
   10  A    between atoms: C_26  and  O_31
   11  A    between atoms: C_26  and  C_46
   12  A    between atoms: C_28  and  C_41
   13  A    between atoms: C_35  and  S_38
                            x       y       z     vdW  Elec       q    Type
                         _______ _______ _______ _____ _____    ______ ____

>  <TORSDO>
F 13

$$$$
=
 OpenBabel11032419403D

 49 53  0  0  1  0  0  0  0  0999 V2000
  188.5620  175.3710  137.3000 C   0  0  0  0  0  2  0  0  0  0  0  0
  188.8930  177.9960  138.2000 C   0  0  2  0  0  3  0  0  0  0  0  0
  192.4030  175.4060  137.5830 C   0  0  1  0  0  3  0  0  0  0  0  0
  187.8360  177.8310  137.0990 C   0  0  0  0  0  2  0  0  0  0  0  0
  190.1930  177.2980  137.7620 C   0  0  1  0  0  3  0  0  0  0  0  0
  187.5280  176.3640  136.7460 C   0  0  2  0  0  3  0  0  0  0  0  0
  191.2750  177.3420  138.8450 C   0  0  0  0  0  2  0  0  0  0  0  0
  189.9880  175.8920  137.1320 C   0  0  1  0  0  3  0  0  0  0  0  0
  190.9800  174.8580  137.6580 C   0  0  0  0  0  2  0  0  0  0  0  0
  192.5820  176.7330  138.3380 C   0  0  0  0  0  2  0  0  0  0  0  0
  193.3610  174.4010  138.1070 C   0  0  0  0  0  3  0  0  0  0  0  0
  195.5560  173.8890  136.7880 C   0  0  0  0  0  0  0  0  0  0  0  0
  199.1780  174.1480  137.9070 C   0  0  0  0  0  1  0  0  0  0  0  0
  194.4550  174.1410  137.4500 C   0  0  0  0  0  0  0  0  0  0  0  0
  198.1250  174.5840  135.6970 C   0  0  0  0  0  2  0  0  0  0  0  0
  194.4930  174.6700  134.7800 O   0  0  0  0  0  1  0  0  0  0  0  0
  195.6580  174.0910  135.2920 C   0  0  1  0  0  0  0  0  0  0  0  0
  196.8420  175.0160  134.9810 C   0  0  0  0  0  2  0  0  0  0  0  0
  196.7980  173.5490  137.5500 C   0  0  0  0  0  2  0  0  0  0  0  0
  197.8980  174.5460  137.2080 C   0  0  1  0  0  3  0  0  0  0  0  0
  195.8660  172.7520  134.6100 C   0  0  0  0  0  1  0  0  0  0  0  0
  186.1980  176.0320  137.2390 N   0  0  0  0  0  2  0  0  0  0  0  0
  186.3370  174.4010  135.1650 O   0  0  0  0  0  0  0  0  0  0  0  0
  185.9590  173.4200  137.3690 O   0  0  0  0  0  0  0  0  0  0  0  0
  185.6330  174.5830  136.4780 S   0  0  0  0  0  0  0  0  0  0  0  0
  183.8690  174.6510  136.1970 C   0  0  0  0  0  2  0  0  0  0  0  0
  182.5250  176.5310  137.2180 C   0  0  0  0  0  0  0  0  0  0  0  0
  183.2060  175.2760  137.3310 N   0  0  0  0  0  2  0  0  0  0  0  0
  182.3630  177.0730  136.0910 O   0  0  0  0  0  0  0  0  0  0  0  0
  181.9910  177.1980  138.4400 C   0  0  0  0  0  2  0  0  0  0  0  0
  183.8890  178.1500  139.5230 C   0  0  0  0  0  2  0  0  0  0  0  0
  182.7120  178.4420  138.6920 N   0  0  0  0  0  0  0  0  0  0  0  0
  183.4960  177.8740  140.9800 C   0  0  0  0  0  2  0  0  0  0  0  0
  181.8160  179.4040  139.3540 C   0  0  0  0  0  2  0  0  0  0  0  0
  182.8050  178.9770  141.5020 O   0  0  0  0  0  0  0  0  0  0  0  0
  181.5780  179.0330  140.8220 C   0  0  0  0  0  2  0  0  0  0  0  0
  188.3770  177.4740  139.5450 C   0  0  0  0  0  2  0  0  0  0  0  0
  188.5680  178.4970  140.6530 C   0  0  0  0  0  2  0  0  0  0  0  0
  187.4710  178.4100  141.6680 C   0  0  0  0  0  0  0  0  0  0  0  0
  186.6220  179.2880  141.7160 O   0  0  0  0  0  0  0  0  0  0  0  0
  186.8800  177.5080  145.0190 C   0  0  0  0  0  3  0  0  0  0  0  0
  187.3970  177.2240  142.5840 C   0  0  1  0  0  3  0  0  0  0  0  0
  188.7910  176.7310  143.0070 C   0  0  0  0  0  2  0  0  0  0  0  0
  186.4700  177.5100  143.7430 C   0  0  0  0  0  3  0  0  0  0  0  0
  189.2650  177.4390  144.2720 C   0  0  0  0  0  2  0  0  0  0  0  0
  188.2890  177.1340  145.4010 C   0  0  1  0  0  3  0  0  0  0  0  0
  188.7090  177.8640  146.6690 C   0  0  0  0  0  2  0  0  0  0  0  0
  188.5090  177.0400  147.7770 O   0  0  0  0  0  0  0  0  0  0  0  0
  188.3600  177.9230  148.8480 C   0  0  0  0  0  1  0  0  0  0  0  0
  2 37  1  1  0  0  0
  3  9  1  0  0  0  0
  3 11  1  1  0  0  0
  3 10  1  0  0  0  0
  4  2  1  0  0  0  0
  5  2  1  0  0  0  0
  5  7  1  1  0  0  0
  6  4  1  0  0  0  0
  6 22  1  1  0  0  0
  6  1  1  0  0  0  0
  8  1  1  1  0  0  0
  8  9  1  0  0  0  0
  8  5  1  0  0  0  0
 10  7  1  0  0  0  0
 12 14  2  0  0  0  0
 12 19  1  0  0  0  0
 14 11  2  0  0  0  0
 15 20  1  0  0  0  0
 16 17  1  0  0  0  0
 17 21  1  6  0  0  0
 17 12  1  0  0  0  0
 18 17  1  0  0  0  0
 18 15  1  0  0  0  0
 20 19  1  0  0  0  0
 20 13  1  1  0  0  0
 23 25  2  0  0  0  0
 25 22  1  0  0  0  0
 25 24  2  0  0  0  0
 26 25  1  0  0  0  0
 26 28  1  0  0  0  0
 27 28  1  0  0  0  0
 27 30  1  0  0  0  0
 29 27  2  0  0  0  0
 30 32  1  0  0  0  0
 31 33  1  0  0  0  0
 32 34  1  0  0  0  0
 32 31  1  0  0  0  0
 33 35  1  0  0  0  0
 34 36  1  0  0  0  0
 36 35  1  0  0  0  0
 37 38  1  0  0  0  0
 38 39  1  0  0  0  0
 39 40  2  0  0  0  0
 41 46  1  0  0  0  0
 42 39  1  1  0  0  0
 42 43  1  0  0  0  0
 42 44  1  0  0  0  0
 43 45  1  0  0  0  0
 44 41  2  0  0  0  0
 45 46  1  0  0  0  0
 46 47  1  1  0  0  0
 47 48  1  0  0  0  0
 48 49  1  0  0  0  0
M  END
>  <MODEL>
8

>  <REMARK>
 VINA RESULT:      -6.7      2.651      9.587
  Name = 
  13 active torsions:
  status: ('A' for Active; 'I' for Inactive)
    1  A    between atoms: C_1  and  C_13
    2  A    between atoms: C_2  and  C_32
    3  A    between atoms: N_4  and  C_32
    4  A    between atoms: N_7  and  C_35
    5  A    between atoms: C_8  and  C_43
    6  A    between atoms: C_16  and  C_41
    7  A    between atoms: C_16  and  C_43
    8  A    between atoms: N_21  and  C_22
    9  A    between atoms: N_21  and  S_38
   10  A    between atoms: C_26  and  O_31
   11  A    between atoms: C_26  and  C_46
   12  A    between atoms: C_28  and  C_41
   13  A    between atoms: C_35  and  S_38
                            x       y       z     vdW  Elec       q    Type
                         _______ _______ _______ _____ _____    ______ ____

>  <TORSDO>
F 13

$$$$
=
 OpenBabel11032419403D

 49 53  0  0  1  0  0  0  0  0999 V2000
  189.7860  176.8020  139.4530 C   0  0  0  0  0  2  0  0  0  0  0  0
  187.8930  178.3800  138.1350 C   0  0  2  0  0  3  0  0  0  0  0  0
  187.7290  177.9160  142.5120 C   0  0  1  0  0  3  0  0  0  0  0  0
  189.3270  178.5380  137.6100 C   0  0  0  0  0  2  0  0  0  0  0  0
  187.8950  178.5240  139.6670 C   0  0  1  0  0  3  0  0  0  0  0  0
  190.3250  177.5300  138.2110 C   0  0  2  0  0  3  0  0  0  0  0  0
  186.5110  178.2930  140.2800 C   0  0  0  0  0  2  0  0  0  0  0  0
  189.0400  177.7540  140.3840 C   0  0  1  0  0  3  0  0  0  0  0  0
  188.5580  176.9960  141.6190 C   0  0  0  0  0  2  0  0  0  0  0  0
  186.5310  178.5460  141.7870 C   0  0  0  0  0  2  0  0  0  0  0  0
  187.2540  177.1690  143.7050 C   0  0  0  0  0  3  0  0  0  0  0  0
  188.7230  177.1010  145.8630 C   0  0  0  0  0  0  0  0  0  0  0  0
  187.8890  178.2000  149.4040 C   0  0  0  0  0  1  0  0  0  0  0  0
  187.9860  177.1310  144.7810 C   0  0  0  0  0  0  0  0  0  0  0  0
  190.0220  178.3010  148.1310 C   0  0  0  0  0  2  0  0  0  0  0  0
  190.6630  177.5440  144.5180 O   0  0  0  0  0  1  0  0  0  0  0  0
  190.2270  177.2590  145.8150 C   0  0  1  0  0  0  0  0  0  0  0  0
  190.6500  178.4090  146.7380 C   0  0  0  0  0  2  0  0  0  0  0  0
  188.0490  177.0750  147.1980 C   0  0  0  0  0  2  0  0  0  0  0  0
  188.4990  178.2760  148.0210 C   0  0  1  0  0  3  0  0  0  0  0  0
  190.8890  175.9710  146.2690 C   0  0  0  0  0  1  0  0  0  0  0  0
  190.6950  176.5670  137.1840 N   0  0  0  0  0  2  0  0  0  0  0  0
  192.8980  176.6970  138.6380 O   0  0  0  0  0  0  0  0  0  0  0  0
  192.1000  174.4900  137.9650 O   0  0  0  0  0  0  0  0  0  0  0  0
  192.2630  175.9160  137.5250 S   0  0  0  0  0  0  0  0  0  0  0  0
  193.3160  175.9840  136.0820 C   0  0  0  0  0  2  0  0  0  0  0  0
  195.5910  174.9430  136.4330 C   0  0  0  0  0  0  0  0  0  0  0  0
  194.7110  176.0720  136.4860 N   0  0  0  0  0  2  0  0  0  0  0  0
  195.2160  173.8620  135.9040 O   0  0  0  0  0  0  0  0  0  0  0  0
  196.9670  175.0490  136.9950 C   0  0  0  0  0  2  0  0  0  0  0  0
  196.2010  174.0740  139.0310 C   0  0  0  0  0  2  0  0  0  0  0  0
  197.2030  173.9780  137.9590 N   0  0  0  0  0  0  0  0  0  0  0  0
  196.5040  175.2380  139.9830 C   0  0  0  0  0  2  0  0  0  0  0  0
  198.5700  174.0880  138.4940 C   0  0  0  0  0  2  0  0  0  0  0  0
  197.7830  175.0780  140.5370 O   0  0  0  0  0  0  0  0  0  0  0  0
  198.6940  175.2520  139.4840 C   0  0  0  0  0  2  0  0  0  0  0  0
  187.2800  177.0520  137.6770 C   0  0  0  0  0  2  0  0  0  0  0  0
  186.0330  177.2730  136.8350 C   0  0  0  0  0  2  0  0  0  0  0  0
  184.9870  176.2460  137.1360 C   0  0  0  0  0  0  0  0  0  0  0  0
  185.3080  175.0710  137.2460 O   0  0  0  0  0  0  0  0  0  0  0  0
  183.0210  178.8770  138.4040 C   0  0  0  0  0  3  0  0  0  0  0  0
  183.5630  176.6710  137.3480 C   0  0  1  0  0  3  0  0  0  0  0  0
  182.9370  176.0020  138.5830 C   0  0  0  0  0  2  0  0  0  0  0  0
  183.4570  178.1780  137.3470 C   0  0  0  0  0  3  0  0  0  0  0  0
  183.1730  176.8350  139.8390 C   0  0  0  0  0  2  0  0  0  0  0  0
  182.5210  178.1990  139.6540 C   0  0  1  0  0  3  0  0  0  0  0  0
  182.7770  179.0730  140.8740 C   0  0  0  0  0  2  0  0  0  0  0  0
  183.0300  178.2690  141.9860 O   0  0  0  0  0  0  0  0  0  0  0  0
  182.1680  178.7540  142.9710 C   0  0  0  0  0  1  0  0  0  0  0  0
  2 37  1  1  0  0  0
  2  5  1  0  0  0  0
  3 11  1  1  0  0  0
  4  2  1  0  0  0  0
  4  6  1  0  0  0  0
  5  7  1  1  0  0  0
  5  8  1  0  0  0  0
  6 22  1  6  0  0  0
  6  1  1  0  0  0  0
  7 10  1  0  0  0  0
  8  1  1  6  0  0  0
  8  9  1  0  0  0  0
  9  3  1  0  0  0  0
 10  3  1  0  0  0  0
 11 14  2  0  0  0  0
 12 19  1  0  0  0  0
 14 12  2  0  0  0  0
 16 17  1  0  0  0  0
 17 12  1  0  0  0  0
 17 21  1  1  0  0  0
 17 18  1  0  0  0  0
 18 15  1  0  0  0  0
 19 20  1  0  0  0  0
 20 15  1  0  0  0  0
 20 13  1  1  0  0  0
 22 25  1  0  0  0  0
 25 24  2  0  0  0  0
 25 23  2  0  0  0  0
 26 28  1  0  0  0  0
 26 25  1  0  0  0  0
 27 28  1  0  0  0  0
 27 30  1  0  0  0  0
 29 27  2  0  0  0  0
 30 32  1  0  0  0  0
 31 33  1  0  0  0  0
 32 34  1  0  0  0  0
 32 31  1  0  0  0  0
 33 35  1  0  0  0  0
 34 36  1  0  0  0  0
 36 35  1  0  0  0  0
 38 39  1  0  0  0  0
 38 37  1  0  0  0  0
 39 40  2  0  0  0  0
 41 46  1  0  0  0  0
 42 39  1  1  0  0  0
 42 43  1  0  0  0  0
 43 45  1  0  0  0  0
 44 42  1  0  0  0  0
 44 41  2  0  0  0  0
 46 45  1  0  0  0  0
 46 47  1  1  0  0  0
 47 48  1  0  0  0  0
 48 49  1  0  0  0  0
M  END
>  <MODEL>
9

>  <REMARK>
 VINA RESULT:      -6.7      3.004      5.086
  Name = 
  13 active torsions:
  status: ('A' for Active; 'I' for Inactive)
    1  A    between atoms: C_1  and  C_13
    2  A    between atoms: C_2  and  C_32
    3  A    between atoms: N_4  and  C_32
    4  A    between atoms: N_7  and  C_35
    5  A    between atoms: C_8  and  C_43
    6  A    between atoms: C_16  and  C_41
    7  A    between atoms: C_16  and  C_43
    8  A    between atoms: N_21  and  C_22
    9  A    between atoms: N_21  and  S_38
   10  A    between atoms: C_26  and  O_31
   11  A    between atoms: C_26  and  C_46
   12  A    between atoms: C_28  and  C_41
   13  A    between atoms: C_35  and  S_38
                            x       y       z     vdW  Elec       q    Type
                         _______ _______ _______ _____ _____    ______ ____

>  <TORSDO>
F 13

$$$$
