=
 OpenBabel11042412263D

 26 29  0  0  1  0  0  0  0  0999 V2000
  189.1120  177.0400  143.4120 C   0  0  0  0  0  0  0  0  0  0  0  0
  189.1210  177.7980  145.7410 C   0  0  0  0  0  3  0  0  0  0  0  0
  189.8080  176.6010  142.1630 C   0  0  0  0  0  2  0  0  0  0  0  0
  192.0320  177.3310  143.4070 N   0  0  0  0  0  2  0  0  0  0  0  0
  185.5750  177.5580  144.8120 C   0  0  2  0  0  3  0  0  0  0  0  0
  190.7340  177.7020  141.6270 C   0  0  1  0  0  3  0  0  0  0  0  0
  187.0420  177.5340  144.5330 C   0  0  0  0  0  0  0  0  0  0  0  0
  183.5220  179.1430  145.7830 N   0  0  0  0  0  2  0  0  0  0  0  0
  184.6080  178.8750  146.6340 N   0  0  0  0  0  0  0  0  0  0  0  0
  183.6630  178.9830  144.3880 N   0  0  0  0  0  0  0  0  0  0  0  0
  184.6860  178.3490  143.8880 C   0  0  0  0  0  0  0  0  0  0  0  0
  185.6110  178.2080  146.1590 C   0  0  0  0  0  0  0  0  0  0  0  0
  187.7320  177.8540  145.6860 C   0  0  0  0  0  0  0  0  0  0  0  0
  186.8830  178.2320  146.7130 O   0  0  0  0  0  0  0  0  0  0  0  0
  189.8320  177.3910  144.5960 C   0  0  0  0  0  0  0  0  0  0  0  0
  191.7840  176.1530  145.5160 C   0  0  0  0  0  1  0  0  0  0  0  0
  187.7090  177.0970  143.3920 C   0  0  0  0  0  3  0  0  0  0  0  0
  191.3450  177.3550  144.6990 C   0  0  1  0  0  3  0  0  0  0  0  0
  184.7810  178.1740  142.4130 C   0  0  0  0  0  1  0  0  0  0  0  0
  191.5200  178.3230  142.6270 O   0  0  0  0  0  0  0  0  0  0  0  0
  191.6000  177.1640  140.4980 C   0  0  0  0  0  2  0  0  0  0  0  0
  190.8040  176.3230  139.6220 N   0  0  0  0  0  2  0  0  0  0  0  0
  190.5830  177.0800  138.4040 C   0  0  0  0  0  2  0  0  0  0  0  0
  189.0390  179.0210  138.6300 O   0  0  0  0  0  1  0  0  0  0  0  0
  189.2140  177.6600  138.4170 C   0  0  0  0  0  0  0  0  0  0  0  0
  188.2130  176.9120  138.2720 O   0  0  0  0  0  0  0  0  0  0  0  0
  1 15  1  0  0  0  0
  3  1  1  0  0  0  0
  4 18  1  0  0  0  0
  5 11  1  6  0  0  0
  5 12  1  0  0  0  0
  6 21  1  6  0  0  0
  6  3  1  0  0  0  0
  6 20  1  0  0  0  0
  7  5  1  0  0  0  0
  7 13  2  0  0  0  0
  8  9  1  0  0  0  0
 10  8  1  0  0  0  0
 11 10  2  0  0  0  0
 12  9  2  0  0  0  0
 12 14  1  0  0  0  0
 13  2  1  0  0  0  0
 13 14  1  0  0  0  0
 15 18  1  0  0  0  0
 15  2  2  0  0  0  0
 17  1  2  0  0  0  0
 17  7  1  0  0  0  0
 18 16  1  1  0  0  0
 19 11  1  0  0  0  0
 20  4  1  0  0  0  0
 22 21  1  0  0  0  0
 23 25  1  0  0  0  0
 23 22  1  0  0  0  0
 25 24  1  0  0  0  0
 26 25  2  0  0  0  0
M  END
>  <MODEL>
1

>  <REMARK>
 VINA RESULT:      -9.3      0.000      0.000
  Name = 
  4 active torsions:
  status: ('A' for Active; 'I' for Inactive)
    1  A    between atoms: C_1  and  N_7
    2  A    between atoms: C_1  and  C_10
    3  A    between atoms: N_7  and  C_8
    4  A    between atoms: C_8  and  C_16
                            x       y       z     vdW  Elec       q    Type
                         _______ _______ _______ _____ _____    ______ ____

>  <TORSDO>
F 4

$$$$
=
 OpenBabel11042412263D

 26 29  0  0  1  0  0  0  0  0999 V2000
  189.1440  177.0800  143.4690 C   0  0  0  0  0  0  0  0  0  0  0  0
  189.1060  177.8140  145.8060 C   0  0  0  0  0  3  0  0  0  0  0  0
  189.8640  176.6560  142.2290 C   0  0  0  0  0  2  0  0  0  0  0  0
  192.0620  177.3820  143.5220 N   0  0  0  0  0  2  0  0  0  0  0  0
  185.5780  177.5710  144.8070 C   0  0  2  0  0  3  0  0  0  0  0  0
  190.7960  177.7660  141.7220 C   0  0  1  0  0  3  0  0  0  0  0  0
  187.0500  177.5550  144.5560 C   0  0  0  0  0  0  0  0  0  0  0  0
  183.5010  179.1380  145.7550 N   0  0  0  0  0  2  0  0  0  0  0  0
  184.5730  178.8650  146.6250 N   0  0  0  0  0  0  0  0  0  0  0  0
  183.6700  178.9930  144.3620 N   0  0  0  0  0  0  0  0  0  0  0  0
  184.7040  178.3680  143.8750 C   0  0  0  0  0  0  0  0  0  0  0  0
  185.5860  178.2070  146.1610 C   0  0  0  0  0  0  0  0  0  0  0  0
  187.7180  177.8650  145.7250 C   0  0  0  0  0  0  0  0  0  0  0  0
  186.8480  178.2290  146.7400 O   0  0  0  0  0  0  0  0  0  0  0  0
  189.8390  177.4220  144.6700 C   0  0  0  0  0  0  0  0  0  0  0  0
  191.7790  176.1810  145.6150 C   0  0  0  0  0  1  0  0  0  0  0  0
  187.7410  177.1320  143.4240 C   0  0  0  0  0  3  0  0  0  0  0  0
  191.3500  177.3890  144.8020 C   0  0  1  0  0  3  0  0  0  0  0  0
  184.8270  178.2080  142.4000 C   0  0  0  0  0  1  0  0  0  0  0  0
  191.5610  178.3800  142.7440 O   0  0  0  0  0  0  0  0  0  0  0  0
  191.6860  177.2430  140.6050 C   0  0  0  0  0  2  0  0  0  0  0  0
  190.9400  176.3160  139.7720 N   0  0  0  0  0  2  0  0  0  0  0  0
  191.1970  176.6930  138.3940 C   0  0  0  0  0  2  0  0  0  0  0  0
  193.5690  176.7170  137.6340 O   0  0  0  0  0  0  0  0  0  0  0  0
  192.4130  175.9940  137.9030 C   0  0  0  0  0  0  0  0  0  0  0  0
  192.3850  174.7540  137.6940 O   0  0  0  0  0  1  0  0  0  0  0  0
  1 15  1  0  0  0  0
  3  1  1  0  0  0  0
  4 18  1  0  0  0  0
  5 11  1  6  0  0  0
  5 12  1  0  0  0  0
  6 21  1  6  0  0  0
  6  3  1  0  0  0  0
  6 20  1  0  0  0  0
  7  5  1  0  0  0  0
  7 13  2  0  0  0  0
  8  9  1  0  0  0  0
 10  8  1  0  0  0  0
 11 10  2  0  0  0  0
 12  9  2  0  0  0  0
 12 14  1  0  0  0  0
 13  2  1  0  0  0  0
 13 14  1  0  0  0  0
 15 18  1  0  0  0  0
 15  2  2  0  0  0  0
 17  1  2  0  0  0  0
 17  7  1  0  0  0  0
 18 16  1  6  0  0  0
 19 11  1  0  0  0  0
 20  4  1  0  0  0  0
 22 21  1  0  0  0  0
 23 22  1  0  0  0  0
 24 25  2  0  0  0  0
 25 23  1  0  0  0  0
 26 25  1  0  0  0  0
M  END
>  <MODEL>
2

>  <REMARK>
 VINA RESULT:      -9.1      1.451      1.559
  Name = 
  4 active torsions:
  status: ('A' for Active; 'I' for Inactive)
    1  A    between atoms: C_1  and  N_7
    2  A    between atoms: C_1  and  C_10
    3  A    between atoms: N_7  and  C_8
    4  A    between atoms: C_8  and  C_16
                            x       y       z     vdW  Elec       q    Type
                         _______ _______ _______ _____ _____    ______ ____

>  <TORSDO>
F 4

$$$$
=
 OpenBabel11042412263D

 26 29  0  0  1  0  0  0  0  0999 V2000
  189.1560  177.0450  143.5130 C   0  0  0  0  0  0  0  0  0  0  0  0
  189.0960  177.7910  145.8450 C   0  0  0  0  0  3  0  0  0  0  0  0
  189.8880  176.6110  142.2840 C   0  0  0  0  0  2  0  0  0  0  0  0
  192.0750  177.3330  143.5970 N   0  0  0  0  0  2  0  0  0  0  0  0
  185.5780  177.5600  144.8090 C   0  0  2  0  0  3  0  0  0  0  0  0
  190.8310  177.7130  141.7810 C   0  0  1  0  0  3  0  0  0  0  0  0
  187.0530  177.5350  144.5740 C   0  0  0  0  0  0  0  0  0  0  0  0
  183.4990  179.1420  145.7250 N   0  0  0  0  0  2  0  0  0  0  0  0
  184.5590  178.8690  146.6080 N   0  0  0  0  0  0  0  0  0  0  0  0
  183.6820  178.9890  144.3350 N   0  0  0  0  0  0  0  0  0  0  0  0
  184.7180  178.3560  143.8620 C   0  0  0  0  0  0  0  0  0  0  0  0
  185.5750  178.2040  146.1590 C   0  0  0  0  0  0  0  0  0  0  0  0
  187.7090  177.8490  145.7490 C   0  0  0  0  0  0  0  0  0  0  0  0
  186.8300  178.2230  146.7520 O   0  0  0  0  0  0  0  0  0  0  0  0
  189.8400  177.3900  144.7190 C   0  0  0  0  0  0  0  0  0  0  0  0
  191.7620  176.1450  145.6920 C   0  0  0  0  0  1  0  0  0  0  0  0
  187.7540  177.1030  143.4520 C   0  0  0  0  0  3  0  0  0  0  0  0
  191.3490  177.3510  144.8680 C   0  0  1  0  0  3  0  0  0  0  0  0
  184.8570  178.1880  142.3900 C   0  0  0  0  0  1  0  0  0  0  0  0
  191.5870  178.3290  142.8070 O   0  0  0  0  0  0  0  0  0  0  0  0
  191.7300  177.1800  140.6760 C   0  0  0  0  0  2  0  0  0  0  0  0
  191.1140  177.4100  139.3820 N   0  0  0  0  0  2  0  0  0  0  0  0
  191.5000  176.2990  138.5310 C   0  0  0  0  0  2  0  0  0  0  0  0
  190.3820  174.2670  137.6220 O   0  0  0  0  0  0  0  0  0  0  0  0
  190.2860  175.5810  138.0640 C   0  0  0  0  0  0  0  0  0  0  0  0
  189.1760  176.1740  138.0330 O   0  0  0  0  0  1  0  0  0  0  0  0
  1 15  1  0  0  0  0
  3  1  1  0  0  0  0
  4 18  1  0  0  0  0
  5 11  1  6  0  0  0
  5 12  1  0  0  0  0
  6 21  1  6  0  0  0
  6  3  1  0  0  0  0
  6 20  1  0  0  0  0
  7  5  1  0  0  0  0
  7 13  2  0  0  0  0
  8  9  1  0  0  0  0
 10  8  1  0  0  0  0
 11 10  2  0  0  0  0
 12  9  2  0  0  0  0
 12 14  1  0  0  0  0
 13  2  1  0  0  0  0
 13 14  1  0  0  0  0
 15 18  1  0  0  0  0
 15  2  2  0  0  0  0
 17  1  2  0  0  0  0
 17  7  1  0  0  0  0
 18 16  1  6  0  0  0
 19 11  1  0  0  0  0
 20  4  1  0  0  0  0
 22 21  1  0  0  0  0
 23 22  1  0  0  0  0
 24 25  2  0  0  0  0
 25 23  1  0  0  0  0
 26 25  1  0  0  0  0
M  END
>  <MODEL>
3

>  <REMARK>
 VINA RESULT:      -8.9      0.860      1.171
  Name = 
  4 active torsions:
  status: ('A' for Active; 'I' for Inactive)
    1  A    between atoms: C_1  and  N_7
    2  A    between atoms: C_1  and  C_10
    3  A    between atoms: N_7  and  C_8
    4  A    between atoms: C_8  and  C_16
                            x       y       z     vdW  Elec       q    Type
                         _______ _______ _______ _____ _____    ______ ____

>  <TORSDO>
F 4

$$$$
=
 OpenBabel11042412263D

 26 29  0  0  1  0  0  0  0  0999 V2000
  187.8860  177.5470  144.1800 C   0  0  0  0  0  0  0  0  0  0  0  0
  186.6360  178.3570  146.1240 C   0  0  0  0  0  3  0  0  0  0  0  0
  189.1450  177.0870  143.5170 C   0  0  0  0  0  2  0  0  0  0  0  0
  190.3450  177.8700  145.7470 N   0  0  0  0  0  2  0  0  0  0  0  0
  184.1550  178.0570  143.4310 C   0  0  2  0  0  3  0  0  0  0  0  0
  190.2180  178.1860  143.5400 C   0  0  1  0  0  3  0  0  0  0  0  0
  185.5400  178.0430  143.9900 C   0  0  0  0  0  0  0  0  0  0  0  0
  181.9080  179.6400  143.0970 N   0  0  0  0  0  2  0  0  0  0  0  0
  182.3600  179.4030  144.4080 N   0  0  0  0  0  0  0  0  0  0  0  0
  182.7800  179.4510  142.0050 N   0  0  0  0  0  0  0  0  0  0  0  0
  183.9090  178.8170  142.1530 C   0  0  0  0  0  0  0  0  0  0  0  0
  183.4590  178.7380  144.5660 C   0  0  0  0  0  0  0  0  0  0  0  0
  185.4970  178.3960  145.3250 C   0  0  0  0  0  0  0  0  0  0  0  0
  184.2290  178.7870  145.7200 O   0  0  0  0  0  0  0  0  0  0  0  0
  187.8520  177.9330  145.5550 C   0  0  0  0  0  0  0  0  0  0  0  0
  188.9920  176.7370  147.4160 C   0  0  0  0  0  1  0  0  0  0  0  0
  186.7170  177.5880  143.4030 C   0  0  0  0  0  3  0  0  0  0  0  0
  189.0680  177.9150  146.4620 C   0  0  1  0  0  3  0  0  0  0  0  0
  184.7870  178.6100  140.9690 C   0  0  0  0  0  1  0  0  0  0  0  0
  190.3390  178.8380  144.7900 O   0  0  0  0  0  0  0  0  0  0  0  0
  191.5550  177.6320  143.0730 C   0  0  0  0  0  2  0  0  0  0  0  0
  191.3540  176.7400  141.9450 N   0  0  0  0  0  2  0  0  0  0  0  0
  191.6280  177.5120  140.7470 C   0  0  0  0  0  2  0  0  0  0  0  0
  190.6740  175.8330  139.1750 O   0  0  0  0  0  0  0  0  0  0  0  0
  190.6720  177.1280  139.6750 C   0  0  0  0  0  0  0  0  0  0  0  0
  189.8870  177.9860  139.1960 O   0  0  0  0  0  1  0  0  0  0  0  0
  1 15  1  0  0  0  0
  3  6  1  0  0  0  0
  3  1  1  0  0  0  0
  4 18  1  0  0  0  0
  5 11  1  6  0  0  0
  5  7  1  0  0  0  0
  5 12  1  0  0  0  0
  6 21  1  1  0  0  0
  6 20  1  0  0  0  0
  7 13  2  0  0  0  0
  8  9  1  0  0  0  0
  9 12  2  0  0  0  0
 10 11  2  0  0  0  0
 10  8  1  0  0  0  0
 12 14  1  0  0  0  0
 13 14  1  0  0  0  0
 13  2  1  0  0  0  0
 15  2  2  0  0  0  0
 15 18  1  0  0  0  0
 17  7  1  0  0  0  0
 17  1  2  0  0  0  0
 18 16  1  1  0  0  0
 19 11  1  0  0  0  0
 20  4  1  0  0  0  0
 22 21  1  0  0  0  0
 23 22  1  0  0  0  0
 24 25  2  0  0  0  0
 25 23  1  0  0  0  0
 26 25  1  0  0  0  0
M  END
>  <MODEL>
4

>  <REMARK>
 VINA RESULT:      -8.1      1.690      2.481
  Name = 
  4 active torsions:
  status: ('A' for Active; 'I' for Inactive)
    1  A    between atoms: C_1  and  N_7
    2  A    between atoms: C_1  and  C_10
    3  A    between atoms: N_7  and  C_8
    4  A    between atoms: C_8  and  C_16
                            x       y       z     vdW  Elec       q    Type
                         _______ _______ _______ _____ _____    ______ ____

>  <TORSDO>
F 4

$$$$
=
 OpenBabel11042412263D

 26 29  0  0  1  0  0  0  0  0999 V2000
  183.4740  178.3930  141.4780 C   0  0  0  0  0  0  0  0  0  0  0  0
  182.1260  178.8740  143.4650 C   0  0  0  0  0  3  0  0  0  0  0  0
  183.6210  178.1230  140.0150 C   0  0  0  0  0  2  0  0  0  0  0  0
  180.9750  177.9650  140.0030 N   0  0  0  0  0  2  0  0  0  0  0  0
  185.6070  178.8380  144.6400 C   0  0  2  0  0  3  0  0  0  0  0  0
  182.8680  176.8470  139.6080 C   0  0  1  0  0  3  0  0  0  0  0  0
  184.5280  178.6350  143.6280 C   0  0  0  0  0  0  0  0  0  0  0  0
  186.4750  178.0560  147.1510 N   0  0  0  0  0  2  0  0  0  0  0  0
  185.2000  178.6420  147.0450 N   0  0  0  0  0  0  0  0  0  0  0  0
  187.0930  177.5040  146.0100 N   0  0  0  0  0  0  0  0  0  0  0  0
  186.6340  177.7500  144.8150 C   0  0  0  0  0  0  0  0  0  0  0  0
  184.7530  178.9300  145.8650 C   0  0  0  0  0  0  0  0  0  0  0  0
  183.3000  178.8810  144.2120 C   0  0  0  0  0  0  0  0  0  0  0  0
  183.4080  179.1060  145.5740 O   0  0  0  0  0  0  0  0  0  0  0  0
  182.2000  178.6250  142.0820 C   0  0  0  0  0  0  0  0  0  0  0  0
  180.3880  180.0370  141.1260 C   0  0  0  0  0  1  0  0  0  0  0  0
  184.6430  178.4180  142.2580 C   0  0  0  0  0  3  0  0  0  0  0  0
  180.8930  178.6180  141.3110 C   0  0  1  0  0  3  0  0  0  0  0  0
  187.3360  177.1750  143.6350 C   0  0  0  0  0  1  0  0  0  0  0  0
  181.5700  176.7500  140.1630 O   0  0  0  0  0  0  0  0  0  0  0  0
  182.8340  176.7120  138.0940 C   0  0  0  0  0  2  0  0  0  0  0  0
  183.6680  177.7330  137.4870 N   0  0  0  0  0  2  0  0  0  0  0  0
  184.7000  177.0390  136.7370 C   0  0  0  0  0  2  0  0  0  0  0  0
  186.3020  178.6550  137.7510 O   0  0  0  0  0  1  0  0  0  0  0  0
  186.0350  177.3680  137.3030 C   0  0  0  0  0  0  0  0  0  0  0  0
  186.9350  176.4890  137.3410 O   0  0  0  0  0  0  0  0  0  0  0  0
  1 15  2  0  0  0  0
  1 17  1  0  0  0  0
  2 13  2  0  0  0  0
  3  1  1  0  0  0  0
  4 20  1  0  0  0  0
  4 18  1  0  0  0  0
  5  7  1  6  0  0  0
  5 11  1  0  0  0  0
  5 12  1  0  0  0  0
  6 21  1  6  0  0  0
  6  3  1  0  0  0  0
  6 20  1  0  0  0  0
  7 13  1  0  0  0  0
  9  8  1  0  0  0  0
 10  8  1  0  0  0  0
 11 10  2  0  0  0  0
 12  9  2  0  0  0  0
 13 14  1  0  0  0  0
 14 12  1  0  0  0  0
 15  2  1  0  0  0  0
 17  7  2  0  0  0  0
 18 16  1  6  0  0  0
 18 15  1  0  0  0  0
 19 11  1  0  0  0  0
 22 21  1  0  0  0  0
 23 25  1  0  0  0  0
 23 22  1  0  0  0  0
 25 26  2  0  0  0  0
 25 24  1  0  0  0  0
M  END
>  <MODEL>
5

>  <REMARK>
 VINA RESULT:      -8.0      3.555      6.513
  Name = 
  4 active torsions:
  status: ('A' for Active; 'I' for Inactive)
    1  A    between atoms: C_1  and  N_7
    2  A    between atoms: C_1  and  C_10
    3  A    between atoms: N_7  and  C_8
    4  A    between atoms: C_8  and  C_16
                            x       y       z     vdW  Elec       q    Type
                         _______ _______ _______ _____ _____    ______ ____

>  <TORSDO>
F 4

$$$$
=
 OpenBabel11042412263D

 26 29  0  0  1  0  0  0  0  0999 V2000
  187.7450  177.4920  142.8000 C   0  0  0  0  0  0  0  0  0  0  0  0
  190.1580  177.6690  142.4200 C   0  0  0  0  0  3  0  0  0  0  0  0
  186.3260  177.5730  142.3360 C   0  0  0  0  0  2  0  0  0  0  0  0
  187.3390  178.6280  140.1250 N   0  0  0  0  0  2  0  0  0  0  0  0
  189.8010  176.6060  145.9200 C   0  0  2  0  0  3  0  0  0  0  0  0
  185.9780  178.9910  141.8590 C   0  0  1  0  0  3  0  0  0  0  0  0
  189.2870  177.0820  144.6000 C   0  0  0  0  0  0  0  0  0  0  0  0
  191.5080  177.2480  148.0030 N   0  0  0  0  0  2  0  0  0  0  0  0
  192.0560  177.1280  146.7140 N   0  0  0  0  0  0  0  0  0  0  0  0
  190.1220  177.4580  148.1630 N   0  0  0  0  0  0  0  0  0  0  0  0
  189.3000  177.2860  147.1670 C   0  0  0  0  0  0  0  0  0  0  0  0
  191.2510  176.9140  145.7230 C   0  0  0  0  0  0  0  0  0  0  0  0
  190.3530  177.3210  143.7540 C   0  0  0  0  0  0  0  0  0  0  0  0
  191.5710  177.1870  144.4000 O   0  0  0  0  0  0  0  0  0  0  0  0
  188.8440  177.7620  141.9260 C   0  0  0  0  0  0  0  0  0  0  0  0
  189.0380  176.9820  139.5710 C   0  0  0  0  0  1  0  0  0  0  0  0
  187.9750  177.1330  144.1380 C   0  0  0  0  0  3  0  0  0  0  0  0
  188.6800  178.1530  140.4690 C   0  0  1  0  0  3  0  0  0  0  0  0
  187.8410  177.4860  147.3860 C   0  0  0  0  0  1  0  0  0  0  0  0
  186.9690  179.5730  141.0320 O   0  0  0  0  0  0  0  0  0  0  0  0
  184.6160  179.0040  141.1820 C   0  0  0  0  0  2  0  0  0  0  0  0
  183.5670  178.8990  142.1810 N   0  0  0  0  0  2  0  0  0  0  0  0
  184.1050  179.4490  143.4120 C   0  0  0  0  0  2  0  0  0  0  0  0
  183.8000  179.0020  145.8430 O   0  0  0  0  0  1  0  0  0  0  0  0
  183.2670  179.0160  144.5610 C   0  0  0  0  0  0  0  0  0  0  0  0
  182.0860  178.6280  144.3670 O   0  0  0  0  0  0  0  0  0  0  0  0
  1 17  1  0  0  0  0
  2 13  2  0  0  0  0
  3  1  1  0  0  0  0
  4 18  1  0  0  0  0
  4 20  1  0  0  0  0
  5  7  1  6  0  0  0
  5 11  1  0  0  0  0
  6 21  1  6  0  0  0
  6  3  1  0  0  0  0
  8 10  1  0  0  0  0
  9  8  1  0  0  0  0
 11 19  1  0  0  0  0
 11 10  2  0  0  0  0
 12  5  1  0  0  0  0
 12  9  2  0  0  0  0
 13 14  1  0  0  0  0
 13  7  1  0  0  0  0
 14 12  1  0  0  0  0
 15  2  1  0  0  0  0
 15  1  2  0  0  0  0
 17  7  2  0  0  0  0
 18 16  1  6  0  0  0
 18 15  1  0  0  0  0
 20  6  1  0  0  0  0
 21 22  1  0  0  0  0
 22 23  1  0  0  0  0
 23 25  1  0  0  0  0
 25 24  1  0  0  0  0
 26 25  2  0  0  0  0
M  END
>  <MODEL>
6

>  <REMARK>
 VINA RESULT:      -7.7      2.543      6.100
  Name = 
  4 active torsions:
  status: ('A' for Active; 'I' for Inactive)
    1  A    between atoms: C_1  and  N_7
    2  A    between atoms: C_1  and  C_10
    3  A    between atoms: N_7  and  C_8
    4  A    between atoms: C_8  and  C_16
                            x       y       z     vdW  Elec       q    Type
                         _______ _______ _______ _____ _____    ______ ____

>  <TORSDO>
F 4

$$$$
=
 OpenBabel11042412263D

 26 29  0  0  1  0  0  0  0  0999 V2000
  187.2360  177.6320  142.8950 C   0  0  0  0  0  0  0  0  0  0  0  0
  189.5980  177.8860  142.3010 C   0  0  0  0  0  3  0  0  0  0  0  0
  185.7770  177.7020  142.5720 C   0  0  0  0  0  2  0  0  0  0  0  0
  186.5550  178.8860  140.3320 N   0  0  0  0  0  2  0  0  0  0  0  0
  189.5950  176.6480  145.7610 C   0  0  2  0  0  3  0  0  0  0  0  0
  185.3580  179.1320  142.2020 C   0  0  1  0  0  3  0  0  0  0  0  0
  188.9490  177.1740  144.5210 C   0  0  0  0  0  0  0  0  0  0  0  0
  191.4790  177.2300  147.7050 N   0  0  0  0  0  2  0  0  0  0  0  0
  191.9040  177.1850  146.3650 N   0  0  0  0  0  0  0  0  0  0  0  0
  190.1110  177.3980  148.0040 N   0  0  0  0  0  0  0  0  0  0  0  0
  189.2010  177.2550  147.0820 C   0  0  0  0  0  0  0  0  0  0  0  0
  191.0140  177.0010  145.4440 C   0  0  0  0  0  0  0  0  0  0  0  0
  189.9250  177.4800  143.5910 C   0  0  0  0  0  0  0  0  0  0  0  0
  191.2010  177.3450  144.1130 O   0  0  0  0  0  0  0  0  0  0  0  0
  188.2410  177.9710  141.9380 C   0  0  0  0  0  0  0  0  0  0  0  0
  188.2260  177.3110  139.5390 C   0  0  0  0  0  1  0  0  0  0  0  0
  187.5990  177.2150  144.1860 C   0  0  0  0  0  3  0  0  0  0  0  0
  187.9320  178.4280  140.5240 C   0  0  1  0  0  3  0  0  0  0  0  0
  187.7660  177.4080  147.4470 C   0  0  0  0  0  1  0  0  0  0  0  0
  186.2550  179.7770  141.3160 O   0  0  0  0  0  0  0  0  0  0  0  0
  183.9380  179.1450  141.6570 C   0  0  0  0  0  2  0  0  0  0  0  0
  183.4930  177.7860  141.4060 N   0  0  0  0  0  2  0  0  0  0  0  0
  182.6050  177.8420  140.2590 C   0  0  0  0  0  2  0  0  0  0  0  0
  183.0530  175.7510  138.9820 O   0  0  0  0  0  1  0  0  0  0  0  0
  183.2210  177.1240  139.1130 C   0  0  0  0  0  0  0  0  0  0  0  0
  183.9250  177.7530  138.2810 O   0  0  0  0  0  0  0  0  0  0  0  0
  1 17  1  0  0  0  0
  2 13  2  0  0  0  0
  3  1  1  0  0  0  0
  4 18  1  0  0  0  0
  4 20  1  0  0  0  0
  5  7  1  6  0  0  0
  5 11  1  0  0  0  0
  6 21  1  6  0  0  0
  6  3  1  0  0  0  0
  8 10  1  0  0  0  0
  9  8  1  0  0  0  0
 11 19  1  0  0  0  0
 11 10  2  0  0  0  0
 12  5  1  0  0  0  0
 12  9  2  0  0  0  0
 13 14  1  0  0  0  0
 13  7  1  0  0  0  0
 14 12  1  0  0  0  0
 15  2  1  0  0  0  0
 15  1  2  0  0  0  0
 17  7  2  0  0  0  0
 18 16  1  6  0  0  0
 18 15  1  0  0  0  0
 20  6  1  0  0  0  0
 22 21  1  0  0  0  0
 23 22  1  0  0  0  0
 24 25  1  0  0  0  0
 25 23  1  0  0  0  0
 26 25  2  0  0  0  0
M  END
>  <MODEL>
7

>  <REMARK>
 VINA RESULT:      -7.5      2.824      5.754
  Name = 
  4 active torsions:
  status: ('A' for Active; 'I' for Inactive)
    1  A    between atoms: C_1  and  N_7
    2  A    between atoms: C_1  and  C_10
    3  A    between atoms: N_7  and  C_8
    4  A    between atoms: C_8  and  C_16
                            x       y       z     vdW  Elec       q    Type
                         _______ _______ _______ _____ _____    ______ ____

>  <TORSDO>
F 4

$$$$
=
 OpenBabel11042412263D

 26 29  0  0  1  0  0  0  0  0999 V2000
  183.4200  178.2680  141.4430 C   0  0  0  0  0  0  0  0  0  0  0  0
  182.1120  178.8770  143.4220 C   0  0  0  0  0  3  0  0  0  0  0  0
  183.5390  177.9280  139.9920 C   0  0  0  0  0  2  0  0  0  0  0  0
  180.8900  177.8450  140.0190 N   0  0  0  0  0  2  0  0  0  0  0  0
  185.6060  178.7940  144.5560 C   0  0  2  0  0  3  0  0  0  0  0  0
  182.7460  176.6570  139.6530 C   0  0  1  0  0  3  0  0  0  0  0  0
  184.5080  178.5770  143.5670 C   0  0  0  0  0  0  0  0  0  0  0  0
  186.4840  178.1030  147.0900 N   0  0  0  0  0  2  0  0  0  0  0  0
  185.2250  178.7190  146.9720 N   0  0  0  0  0  0  0  0  0  0  0  0
  187.0720  177.4820  145.9670 N   0  0  0  0  0  0  0  0  0  0  0  0
  186.6040  177.6860  144.7680 C   0  0  0  0  0  0  0  0  0  0  0  0
  184.7710  178.9660  145.7860 C   0  0  0  0  0  0  0  0  0  0  0  0
  183.2960  178.8840  144.1530 C   0  0  0  0  0  0  0  0  0  0  0  0
  183.4270  179.1670  145.5030 O   0  0  0  0  0  0  0  0  0  0  0  0
  182.1610  178.5630  142.0510 C   0  0  0  0  0  0  0  0  0  0  0  0
  180.3760  179.9820  141.0530 C   0  0  0  0  0  1  0  0  0  0  0  0
  184.5990  178.2950  142.2070 C   0  0  0  0  0  3  0  0  0  0  0  0
  180.8440  178.5590  141.2970 C   0  0  1  0  0  3  0  0  0  0  0  0
  187.2740  177.0390  143.6070 C   0  0  0  0  0  1  0  0  0  0  0  0
  181.4520  176.6230  140.2270 O   0  0  0  0  0  0  0  0  0  0  0  0
  182.6880  176.4550  138.1470 C   0  0  0  0  0  2  0  0  0  0  0  0
  182.5710  175.0400  137.8430 N   0  0  0  0  0  2  0  0  0  0  0  0
  181.3950  174.8880  137.0060 C   0  0  0  0  0  2  0  0  0  0  0  0
  180.2900  172.9680  138.1440 O   0  0  0  0  0  0  0  0  0  0  0  0
  180.2810  174.3150  137.8070 C   0  0  0  0  0  0  0  0  0  0  0  0
  179.3130  175.0420  138.1480 O   0  0  0  0  0  1  0  0  0  0  0  0
  1 15  2  0  0  0  0
  1 17  1  0  0  0  0
  2 13  2  0  0  0  0
  3  1  1  0  0  0  0
  4 20  1  0  0  0  0
  4 18  1  0  0  0  0
  5  7  1  6  0  0  0
  5 11  1  0  0  0  0
  5 12  1  0  0  0  0
  6 21  1  6  0  0  0
  6  3  1  0  0  0  0
  6 20  1  0  0  0  0
  7 13  1  0  0  0  0
  9  8  1  0  0  0  0
 10  8  1  0  0  0  0
 11 10  2  0  0  0  0
 12  9  2  0  0  0  0
 13 14  1  0  0  0  0
 14 12  1  0  0  0  0
 15  2  1  0  0  0  0
 17  7  2  0  0  0  0
 18 16  1  6  0  0  0
 18 15  1  0  0  0  0
 19 11  1  0  0  0  0
 22 21  1  0  0  0  0
 23 25  1  0  0  0  0
 23 22  1  0  0  0  0
 25 24  2  0  0  0  0
 25 26  1  0  0  0  0
M  END
>  <MODEL>
8

>  <REMARK>
 VINA RESULT:      -7.5      4.580      7.465
  Name = 
  4 active torsions:
  status: ('A' for Active; 'I' for Inactive)
    1  A    between atoms: C_1  and  N_7
    2  A    between atoms: C_1  and  C_10
    3  A    between atoms: N_7  and  C_8
    4  A    between atoms: C_8  and  C_16
                            x       y       z     vdW  Elec       q    Type
                         _______ _______ _______ _____ _____    ______ ____

>  <TORSDO>
F 4

$$$$
=
 OpenBabel11042412263D

 26 29  0  0  1  0  0  0  0  0999 V2000
  190.7570  177.2450  139.7940 C   0  0  0  0  0  0  0  0  0  0  0  0
  188.4200  177.8980  140.1210 C   0  0  0  0  0  3  0  0  0  0  0  0
  191.9140  176.8680  138.9250 C   0  0  0  0  0  2  0  0  0  0  0  0
  190.1300  176.7770  136.9670 N   0  0  0  0  0  2  0  0  0  0  0  0
  189.8950  177.8570  143.4860 C   0  0  2  0  0  3  0  0  0  0  0  0
  191.6190  175.5870  138.1320 C   0  0  1  0  0  3  0  0  0  0  0  0
  189.9010  177.6110  142.0130 C   0  0  0  0  0  0  0  0  0  0  0  0
  188.5770  177.2320  145.8400 N   0  0  0  0  0  2  0  0  0  0  0  0
  187.8370  177.8420  144.8100 N   0  0  0  0  0  0  0  0  0  0  0  0
  189.7950  176.5860  145.5440 N   0  0  0  0  0  0  0  0  0  0  0  0
  190.3830  176.7580  144.3940 C   0  0  0  0  0  0  0  0  0  0  0  0
  188.4250  178.0560  143.6770 C   0  0  0  0  0  0  0  0  0  0  0  0
  188.6610  177.9280  141.4910 C   0  0  0  0  0  0  0  0  0  0  0  0
  187.7460  178.2460  142.4810 O   0  0  0  0  0  0  0  0  0  0  0  0
  189.4710  177.5510  139.2520 C   0  0  0  0  0  0  0  0  0  0  0  0
  189.0520  178.9380  137.2290 C   0  0  0  0  0  1  0  0  0  0  0  0
  190.9710  177.2940  141.1820 C   0  0  0  0  0  3  0  0  0  0  0  0
  189.1580  177.5220  137.7680 C   0  0  1  0  0  3  0  0  0  0  0  0
  191.6840  176.0840  144.1350 C   0  0  0  0  0  1  0  0  0  0  0  0
  190.3290  175.5620  137.5490 O   0  0  0  0  0  0  0  0  0  0  0  0
  192.7010  175.3460  137.0910 C   0  0  0  0  0  2  0  0  0  0  0  0
  193.9870  175.7830  137.6040 N   0  0  0  0  0  2  0  0  0  0  0  0
  194.8970  174.6610  137.4630 C   0  0  0  0  0  2  0  0  0  0  0  0
  195.8100  175.2490  139.7040 O   0  0  0  0  0  1  0  0  0  0  0  0
  195.4220  174.2710  138.7980 C   0  0  0  0  0  0  0  0  0  0  0  0
  195.5480  173.0550  139.0940 O   0  0  0  0  0  0  0  0  0  0  0  0
  1 17  1  0  0  0  0
  2 13  2  0  0  0  0
  3  1  1  0  0  0  0
  4 20  1  0  0  0  0
  4 18  1  0  0  0  0
  5  7  1  6  0  0  0
  5 12  1  0  0  0  0
  5 11  1  0  0  0  0
  6 21  1  6  0  0  0
  6  3  1  0  0  0  0
  9  8  1  0  0  0  0
 10  8  1  0  0  0  0
 11 10  2  0  0  0  0
 12  9  2  0  0  0  0
 13  7  1  0  0  0  0
 13 14  1  0  0  0  0
 14 12  1  0  0  0  0
 15  1  2  0  0  0  0
 15  2  1  0  0  0  0
 17  7  2  0  0  0  0
 18 16  1  6  0  0  0
 18 15  1  0  0  0  0
 19 11  1  0  0  0  0
 20  6  1  0  0  0  0
 21 22  1  0  0  0  0
 23 22  1  0  0  0  0
 23 25  1  0  0  0  0
 25 26  2  0  0  0  0
 25 24  1  0  0  0  0
M  END
>  <MODEL>
9

>  <REMARK>
 VINA RESULT:      -7.5      3.188      5.696
  Name = 
  4 active torsions:
  status: ('A' for Active; 'I' for Inactive)
    1  A    between atoms: C_1  and  N_7
    2  A    between atoms: C_1  and  C_10
    3  A    between atoms: N_7  and  C_8
    4  A    between atoms: C_8  and  C_16
                            x       y       z     vdW  Elec       q    Type
                         _______ _______ _______ _____ _____    ______ ____

>  <TORSDO>
F 4

$$$$
