=
 OpenBabel11042412053D

 30 32  0  0  1  0  0  0  0  0999 V2000
  189.7500  177.7040  142.5270 C   0  0  0  0  0  0  0  0  0  0  0  0
  191.2200  177.4200  145.5570 C   0  0  0  0  0  3  0  0  0  0  0  0
  189.0150  177.9680  144.6170 C   0  0  2  0  0  3  0  0  0  0  0  0
  190.8300  177.9880  143.1880 N   0  0  0  0  0  0  0  0  0  0  0  0
  188.3680  177.5860  145.8760 C   0  0  0  0  0  3  0  0  0  0  0  0
  190.6140  176.9390  146.6620 C   0  0  0  0  0  0  0  0  0  0  0  0
  189.1490  177.1190  146.8570 C   0  0  0  0  0  3  0  0  0  0  0  0
  188.5820  177.6810  143.4010 C   0  0  2  0  0  3  0  0  0  0  0  0
  190.4710  178.2770  144.5710 C   0  0  2  0  0  3  0  0  0  0  0  0
  189.1270  178.1770  140.2200 C   0  0  0  0  0  3  0  0  0  0  0  0
  190.4050  176.2390  140.6350 O   0  0  0  0  0  1  0  0  0  0  0  0
  189.7530  177.3820  141.0870 C   0  0  0  0  0  0  0  0  0  0  0  0
  189.0910  177.8830  138.7580 C   0  0  0  0  0  2  0  0  0  0  0  0
  187.4550  179.1650  137.0610 O   0  0  0  0  0  0  0  0  0  0  0  0
  187.4410  178.1080  138.1290 S   0  0  0  0  0  0  0  0  0  0  0  0
  186.5290  178.5310  139.2460 O   0  0  0  0  0  0  0  0  0  0  0  0
  186.8900  176.6090  137.4610 N   0  0  0  0  0  2  0  0  0  0  0  0
  188.0550  175.7670  137.2450 C   0  0  0  0  0  2  0  0  0  0  0  0
  188.3690  175.7100  135.7650 C   0  0  0  0  0  1  0  0  0  0  0  0
  191.3290  176.2290  147.6320 O   0  0  0  0  0  0  0  0  0  0  0  0
  192.5180  175.5050  147.3430 C   0  0  0  0  0  1  0  0  0  0  0  0
  187.2380  177.1190  143.0690 C   0  0  0  0  0  2  0  0  0  0  0  0
  186.3300  178.1980  142.7260 N   0  0  0  0  0  2  0  0  0  0  0  0
  185.4390  178.3290  143.7990 N   0  0  0  0  0  2  0  0  0  0  0  0
  183.8820  178.4330  141.9360 C   0  0  0  0  0  3  0  0  0  0  0  0
  181.8840  178.8590  143.8180 N   0  0  0  0  0  0  0  0  0  0  0  0
  184.2520  178.9920  143.2880 C   0  0  1  0  0  3  0  0  0  0  0  0
  182.6090  178.4990  141.5220 C   0  0  0  0  0  3  0  0  0  0  0  0
  183.1030  178.7970  144.2450 C   0  0  0  0  0  3  0  0  0  0  0  0
  181.5800  179.1350  142.4230 C   0  0  0  0  0  2  0  0  0  0  0  0
  1  4  2  0  0  0  0
  1  8  1  0  0  0  0
  2  6  2  0  0  0  0
  3  5  1  1  0  0  0
  4  9  1  0  0  0  0
  5  7  2  0  0  0  0
  6  7  1  0  0  0  0
  6 20  1  0  0  0  0
  8 22  1  1  0  0  0
  8  3  1  0  0  0  0
  9  3  1  0  0  0  0
  9  2  1  1  0  0  0
 10 12  2  0  0  0  0
 11 12  1  0  0  0  0
 12  1  1  0  0  0  0
 13 10  1  0  0  0  0
 14 15  2  0  0  0  0
 15 13  1  0  0  0  0
 15 16  2  0  0  0  0
 17 15  1  0  0  0  0
 18 17  1  0  0  0  0
 19 18  1  0  0  0  0
 21 20  1  0  0  0  0
 23 22  1  0  0  0  0
 23 24  1  0  0  0  0
 25 27  1  0  0  0  0
 26 29  2  0  0  0  0
 27 24  1  1  0  0  0
 27 29  1  0  0  0  0
 28 25  2  0  0  0  0
 28 30  1  0  0  0  0
 30 26  1  0  0  0  0
M  END
>  <MODEL>
1

>  <REMARK>
 VINA RESULT:      -7.8      0.000      0.000
  Name = 
  10 active torsions:
  status: ('A' for Active; 'I' for Inactive)
    1  A    between atoms: C_1  and  C_25
    2  A    between atoms: N_4  and  C_5
    3  A    between atoms: N_4  and  S_22
    4  A    between atoms: O_6  and  C_19
    5  A    between atoms: C_7  and  C_17
    6  A    between atoms: N_8  and  N_10
    7  A    between atoms: N_8  and  C_15
    8  A    between atoms: N_10  and  C_13
    9  A    between atoms: C_15  and  C_27
   10  A    between atoms: C_17  and  S_22
                            x       y       z     vdW  Elec       q    Type
                         _______ _______ _______ _____ _____    ______ ____

>  <TORSDO>
F 10

$$$$
=
 OpenBabel11042412053D

 30 32  0  0  1  0  0  0  0  0999 V2000
  189.1950  178.0140  142.7150 C   0  0  0  0  0  0  0  0  0  0  0  0
  191.5710  177.5190  145.0680 C   0  0  0  0  0  3  0  0  0  0  0  0
  189.1390  177.8610  144.9410 C   0  0  2  0  0  3  0  0  0  0  0  0
  190.3960  178.3580  143.0670 N   0  0  0  0  0  0  0  0  0  0  0  0
  188.9650  177.2090  146.2420 C   0  0  0  0  0  3  0  0  0  0  0  0
  191.3960  176.7990  146.1950 C   0  0  0  0  0  0  0  0  0  0  0  0
  190.0590  176.7280  146.8450 C   0  0  0  0  0  3  0  0  0  0  0  0
  188.3730  177.6900  143.8760 C   0  0  2  0  0  3  0  0  0  0  0  0
  190.4680  178.3870  144.5220 C   0  0  2  0  0  3  0  0  0  0  0  0
  189.4710  177.1620  140.4490 C   0  0  0  0  0  3  0  0  0  0  0  0
  187.6430  178.5930  140.8680 O   0  0  0  0  0  1  0  0  0  0  0  0
  188.7720  177.9070  141.3060 C   0  0  0  0  0  0  0  0  0  0  0  0
  189.0890  177.0370  139.0130 C   0  0  0  0  0  2  0  0  0  0  0  0
  190.4760  176.8910  136.7200 O   0  0  0  0  0  0  0  0  0  0  0  0
  190.4100  176.2790  138.0920 S   0  0  0  0  0  0  0  0  0  0  0  0
  190.1590  174.8020  137.9730 O   0  0  0  0  0  0  0  0  0  0  0  0
  191.9000  176.5540  138.9270 N   0  0  0  0  0  2  0  0  0  0  0  0
  192.9630  176.5940  137.9360 C   0  0  0  0  0  2  0  0  0  0  0  0
  193.5530  175.2090  137.7730 C   0  0  0  0  0  1  0  0  0  0  0  0
  192.4470  176.0720  146.7630 O   0  0  0  0  0  0  0  0  0  0  0  0
  192.5470  175.8150  148.1580 C   0  0  0  0  0  1  0  0  0  0  0  0
  187.0550  176.9880  143.8600 C   0  0  0  0  0  2  0  0  0  0  0  0
  186.0360  177.8480  144.4340 N   0  0  0  0  0  2  0  0  0  0  0  0
  185.6210  178.7150  143.4140 N   0  0  0  0  0  2  0  0  0  0  0  0
  183.2430  178.9270  143.8660 C   0  0  0  0  0  3  0  0  0  0  0  0
  182.8590  178.8180  141.1170 N   0  0  0  0  0  0  0  0  0  0  0  0
  184.2980  178.2830  143.0010 C   0  0  1  0  0  3  0  0  0  0  0  0
  182.0050  179.0960  143.3800 C   0  0  0  0  0  3  0  0  0  0  0  0
  184.0630  178.6550  141.5580 C   0  0  0  0  0  3  0  0  0  0  0  0
  181.7020  178.6320  141.9780 C   0  0  0  0  0  2  0  0  0  0  0  0
  1  4  2  0  0  0  0
  1  8  1  0  0  0  0
  2  6  2  0  0  0  0
  3  5  1  6  0  0  0
  4  9  1  0  0  0  0
  5  7  2  0  0  0  0
  6 20  1  0  0  0  0
  6  7  1  0  0  0  0
  8 22  1  6  0  0  0
  8  3  1  0  0  0  0
  9  3  1  0  0  0  0
  9  2  1  1  0  0  0
 10 12  2  0  0  0  0
 11 12  1  0  0  0  0
 12  1  1  0  0  0  0
 13 10  1  0  0  0  0
 14 15  2  0  0  0  0
 15 17  1  0  0  0  0
 15 13  1  0  0  0  0
 16 15  2  0  0  0  0
 18 17  1  0  0  0  0
 19 18  1  0  0  0  0
 20 21  1  0  0  0  0
 22 23  1  0  0  0  0
 24 23  1  0  0  0  0
 26 29  2  0  0  0  0
 26 30  1  0  0  0  0
 27 24  1  1  0  0  0
 27 25  1  0  0  0  0
 28 25  2  0  0  0  0
 29 27  1  0  0  0  0
 30 28  1  0  0  0  0
M  END
>  <MODEL>
2

>  <REMARK>
 VINA RESULT:      -7.7      2.064      2.532
  Name = 
  10 active torsions:
  status: ('A' for Active; 'I' for Inactive)
    1  A    between atoms: C_1  and  C_25
    2  A    between atoms: N_4  and  C_5
    3  A    between atoms: N_4  and  S_22
    4  A    between atoms: O_6  and  C_19
    5  A    between atoms: C_7  and  C_17
    6  A    between atoms: N_8  and  N_10
    7  A    between atoms: N_8  and  C_15
    8  A    between atoms: N_10  and  C_13
    9  A    between atoms: C_15  and  C_27
   10  A    between atoms: C_17  and  S_22
                            x       y       z     vdW  Elec       q    Type
                         _______ _______ _______ _____ _____    ______ ____

>  <TORSDO>
F 10

$$$$
=
 OpenBabel11042412053D

 30 32  0  0  1  0  0  0  0  0999 V2000
  189.9130  177.5620  142.4570 C   0  0  0  0  0  0  0  0  0  0  0  0
  191.3370  177.3810  145.5170 C   0  0  0  0  0  3  0  0  0  0  0  0
  189.1700  177.9810  144.5200 C   0  0  2  0  0  3  0  0  0  0  0  0
  190.9980  177.8310  143.1150 N   0  0  0  0  0  0  0  0  0  0  0  0
  188.4930  177.7030  145.7910 C   0  0  0  0  0  3  0  0  0  0  0  0
  190.6970  176.9940  146.6400 C   0  0  0  0  0  0  0  0  0  0  0  0
  189.2410  177.2560  146.8060 C   0  0  0  0  0  3  0  0  0  0  0  0
  188.7360  177.6460  143.3170 C   0  0  2  0  0  3  0  0  0  0  0  0
  190.6410  178.2150  144.4750 C   0  0  2  0  0  3  0  0  0  0  0  0
  189.1720  177.8200  140.1510 C   0  0  0  0  0  3  0  0  0  0  0  0
  190.6880  176.0770  140.6280 O   0  0  0  0  0  1  0  0  0  0  0  0
  189.9140  177.1580  141.0390 C   0  0  0  0  0  0  0  0  0  0  0  0
  189.1300  177.4380  138.7100 C   0  0  0  0  0  2  0  0  0  0  0  0
  188.1410  179.4150  137.1880 O   0  0  0  0  0  0  0  0  0  0  0  0
  187.7140  178.1740  137.9220 S   0  0  0  0  0  0  0  0  0  0  0  0
  186.6880  178.5300  138.9610 O   0  0  0  0  0  0  0  0  0  0  0  0
  187.0440  177.0350  136.8050 N   0  0  0  0  0  2  0  0  0  0  0  0
  187.3330  175.7010  137.3060 C   0  0  0  0  0  2  0  0  0  0  0  0
  186.2550  174.7440  136.8430 C   0  0  0  0  0  1  0  0  0  0  0  0
  191.3660  176.3080  147.6580 O   0  0  0  0  0  0  0  0  0  0  0  0
  192.5630  175.5710  147.4390 C   0  0  0  0  0  1  0  0  0  0  0  0
  187.3700  177.1320  143.0000 C   0  0  0  0  0  2  0  0  0  0  0  0
  186.5420  178.2170  142.5080 N   0  0  0  0  0  2  0  0  0  0  0  0
  185.6580  178.5500  143.5430 N   0  0  0  0  0  2  0  0  0  0  0  0
  183.2850  178.8760  143.9540 C   0  0  0  0  0  3  0  0  0  0  0  0
  182.9560  178.8750  141.1970 N   0  0  0  0  0  0  0  0  0  0  0  0
  184.3230  178.2030  143.0900 C   0  0  1  0  0  3  0  0  0  0  0  0
  182.0690  179.1270  143.4500 C   0  0  0  0  0  3  0  0  0  0  0  0
  184.1400  178.6330  141.6560 C   0  0  0  0  0  3  0  0  0  0  0  0
  181.7720  178.7240  142.0270 C   0  0  0  0  0  2  0  0  0  0  0  0
  1  4  2  0  0  0  0
  1  8  1  0  0  0  0
  2  6  2  0  0  0  0
  3  5  1  1  0  0  0
  4  9  1  0  0  0  0
  5  7  2  0  0  0  0
  6  7  1  0  0  0  0
  6 20  1  0  0  0  0
  8 22  1  1  0  0  0
  8  3  1  0  0  0  0
  9  3  1  0  0  0  0
  9  2  1  1  0  0  0
 10 12  2  0  0  0  0
 11 12  1  0  0  0  0
 12  1  1  0  0  0  0
 13 10  1  0  0  0  0
 14 15  2  0  0  0  0
 15 13  1  0  0  0  0
 15 16  2  0  0  0  0
 17 18  1  0  0  0  0
 17 15  1  0  0  0  0
 19 18  1  0  0  0  0
 21 20  1  0  0  0  0
 23 22  1  0  0  0  0
 23 24  1  0  0  0  0
 26 29  2  0  0  0  0
 26 30  1  0  0  0  0
 27 24  1  1  0  0  0
 27 25  1  0  0  0  0
 28 25  2  0  0  0  0
 29 27  1  0  0  0  0
 30 28  1  0  0  0  0
M  END
>  <MODEL>
3

>  <REMARK>
 VINA RESULT:      -7.6      0.778      1.088
  Name = 
  10 active torsions:
  status: ('A' for Active; 'I' for Inactive)
    1  A    between atoms: C_1  and  C_25
    2  A    between atoms: N_4  and  C_5
    3  A    between atoms: N_4  and  S_22
    4  A    between atoms: O_6  and  C_19
    5  A    between atoms: C_7  and  C_17
    6  A    between atoms: N_8  and  N_10
    7  A    between atoms: N_8  and  C_15
    8  A    between atoms: N_10  and  C_13
    9  A    between atoms: C_15  and  C_27
   10  A    between atoms: C_17  and  S_22
                            x       y       z     vdW  Elec       q    Type
                         _______ _______ _______ _____ _____    ______ ____

>  <TORSDO>
F 10

$$$$
=
 OpenBabel11042412053D

 30 32  0  0  1  0  0  0  0  0999 V2000
  185.6190  178.5440  144.8760 C   0  0  0  0  0  0  0  0  0  0  0  0
  182.3110  179.0410  144.3890 C   0  0  0  0  0  3  0  0  0  0  0  0
  184.3960  179.0700  143.0850 C   0  0  2  0  0  3  0  0  0  0  0  0
  184.5660  179.1030  145.3890 N   0  0  0  0  0  0  0  0  0  0  0  0
  183.6430  178.8300  141.8500 C   0  0  0  0  0  3  0  0  0  0  0  0
  181.6370  178.6830  143.2760 C   0  0  0  0  0  0  0  0  0  0  0  0
  182.3180  178.6730  141.9530 C   0  0  0  0  0  3  0  0  0  0  0  0
  185.5440  178.5040  143.4190 C   0  0  2  0  0  3  0  0  0  0  0  0
  183.7150  179.5810  144.3070 C   0  0  2  0  0  3  0  0  0  0  0  0
  187.9410  177.8900  145.2130 C   0  0  0  0  0  3  0  0  0  0  0  0
  186.4250  177.5020  146.9780 O   0  0  0  0  0  1  0  0  0  0  0  0
  186.7020  177.9690  145.6970 C   0  0  0  0  0  0  0  0  0  0  0  0
  189.0630  177.3030  146.0020 C   0  0  0  0  0  2  0  0  0  0  0  0
  190.6640  178.7550  144.4090 O   0  0  0  0  0  0  0  0  0  0  0  0
  190.5820  177.4110  145.0780 S   0  0  0  0  0  0  0  0  0  0  0  0
  190.6170  176.3270  144.0380 O   0  0  0  0  0  0  0  0  0  0  0  0
  191.9110  177.2180  146.1690 N   0  0  0  0  0  2  0  0  0  0  0  0
  191.9900  175.8120  146.5270 C   0  0  0  0  0  2  0  0  0  0  0  0
  192.4980  175.6800  147.9470 C   0  0  0  0  0  1  0  0  0  0  0  0
  180.3000  178.2790  143.3360 O   0  0  0  0  0  0  0  0  0  0  0  0
  179.3470  178.8780  144.2050 C   0  0  0  0  0  1  0  0  0  0  0  0
  186.4090  177.6950  142.5090 C   0  0  0  0  0  2  0  0  0  0  0  0
  187.2090  178.5800  141.6830 N   0  0  0  0  0  2  0  0  0  0  0  0
  188.5380  178.1520  141.8040 N   0  0  0  0  0  2  0  0  0  0  0  0
  188.6540  178.3930  139.3890 C   0  0  0  0  0  3  0  0  0  0  0  0
  190.9800  176.8800  139.4960 N   0  0  0  0  0  0  0  0  0  0  0  0
  188.8820  177.4770  140.5660 C   0  0  1  0  0  3  0  0  0  0  0  0
  189.3520  178.2030  138.2610 C   0  0  0  0  0  3  0  0  0  0  0  0
  190.3280  177.0490  140.5980 C   0  0  0  0  0  3  0  0  0  0  0  0
  190.3480  177.0720  138.2010 C   0  0  0  0  0  2  0  0  0  0  0  0
  1  4  2  0  0  0  0
  1 12  1  0  0  0  0
  3  5  1  1  0  0  0
  3  8  1  0  0  0  0
  3  9  1  0  0  0  0
  5  7  2  0  0  0  0
  6 20  1  0  0  0  0
  6  2  2  0  0  0  0
  7  6  1  0  0  0  0
  8 22  1  1  0  0  0
  8  1  1  0  0  0  0
  9  2  1  1  0  0  0
  9  4  1  0  0  0  0
 10 12  2  0  0  0  0
 10 13  1  0  0  0  0
 12 11  1  0  0  0  0
 14 15  2  0  0  0  0
 15 13  1  0  0  0  0
 15 17  1  0  0  0  0
 16 15  2  0  0  0  0
 17 18  1  0  0  0  0
 18 19  1  0  0  0  0
 20 21  1  0  0  0  0
 23 24  1  0  0  0  0
 23 22  1  0  0  0  0
 25 27  1  0  0  0  0
 26 29  2  0  0  0  0
 27 29  1  0  0  0  0
 27 24  1  1  0  0  0
 28 25  2  0  0  0  0
 30 28  1  0  0  0  0
 30 26  1  0  0  0  0
M  END
>  <MODEL>
4

>  <REMARK>
 VINA RESULT:      -7.4      3.078      7.941
  Name = 
  10 active torsions:
  status: ('A' for Active; 'I' for Inactive)
    1  A    between atoms: C_1  and  C_25
    2  A    between atoms: N_4  and  C_5
    3  A    between atoms: N_4  and  S_22
    4  A    between atoms: O_6  and  C_19
    5  A    between atoms: C_7  and  C_17
    6  A    between atoms: N_8  and  N_10
    7  A    between atoms: N_8  and  C_15
    8  A    between atoms: N_10  and  C_13
    9  A    between atoms: C_15  and  C_27
   10  A    between atoms: C_17  and  S_22
                            x       y       z     vdW  Elec       q    Type
                         _______ _______ _______ _____ _____    ______ ____

>  <TORSDO>
F 10

$$$$
=
 OpenBabel11042412053D

 30 32  0  0  1  0  0  0  0  0999 V2000
  189.5840  177.9160  142.4690 C   0  0  0  0  0  0  0  0  0  0  0  0
  191.7230  177.2910  145.0110 C   0  0  0  0  0  3  0  0  0  0  0  0
  189.3480  177.8440  144.6870 C   0  0  2  0  0  3  0  0  0  0  0  0
  190.7810  178.1640  142.9040 N   0  0  0  0  0  0  0  0  0  0  0  0
  189.0190  177.2530  145.9890 C   0  0  0  0  0  3  0  0  0  0  0  0
  191.3990  176.6270  146.1400 C   0  0  0  0  0  0  0  0  0  0  0  0
  190.0160  176.6970  146.6860 C   0  0  0  0  0  3  0  0  0  0  0  0
  188.6510  177.7060  143.5720 C   0  0  2  0  0  3  0  0  0  0  0  0
  190.7470  178.2350  144.3590 C   0  0  2  0  0  3  0  0  0  0  0  0
  189.8640  176.8820  140.2810 C   0  0  0  0  0  3  0  0  0  0  0  0
  188.3230  178.6590  140.4660 O   0  0  0  0  0  1  0  0  0  0  0  0
  189.2590  177.8010  141.0350 C   0  0  0  0  0  0  0  0  0  0  0  0
  189.5780  176.7400  138.8250 C   0  0  0  0  0  2  0  0  0  0  0  0
  190.9650  174.5460  138.1440 O   0  0  0  0  0  0  0  0  0  0  0  0
  190.9860  176.0410  137.9900 S   0  0  0  0  0  0  0  0  0  0  0  0
  192.2500  176.5920  138.5880 O   0  0  0  0  0  0  0  0  0  0  0  0
  190.9020  176.4580  136.3130 N   0  0  0  0  0  2  0  0  0  0  0  0
  189.5380  176.2280  135.8670 C   0  0  0  0  0  2  0  0  0  0  0  0
  189.0090  177.4790  135.1970 C   0  0  0  0  0  1  0  0  0  0  0  0
  192.3340  175.8290  146.8060 O   0  0  0  0  0  0  0  0  0  0  0  0
  192.5610  175.9060  148.2080 C   0  0  0  0  0  1  0  0  0  0  0  0
  187.2790  177.1240  143.4730 C   0  0  0  0  0  2  0  0  0  0  0  0
  186.3430  178.1500  143.0520 N   0  0  0  0  0  2  0  0  0  0  0  0
  185.4830  178.3770  144.1350 N   0  0  0  0  0  2  0  0  0  0  0  0
  183.9890  178.4970  142.2230 C   0  0  0  0  0  3  0  0  0  0  0  0
  181.9140  178.7870  144.0470 N   0  0  0  0  0  0  0  0  0  0  0  0
  184.2920  179.0180  143.6060 C   0  0  1  0  0  3  0  0  0  0  0  0
  182.7290  178.5360  141.7670 C   0  0  0  0  0  3  0  0  0  0  0  0
  183.1180  178.7500  144.5140 C   0  0  0  0  0  3  0  0  0  0  0  0
  181.6490  179.1030  142.6530 C   0  0  0  0  0  2  0  0  0  0  0  0
  1  4  2  0  0  0  0
  1  8  1  0  0  0  0
  2  6  2  0  0  0  0
  3  5  1  6  0  0  0
  4  9  1  0  0  0  0
  5  7  2  0  0  0  0
  6  7  1  0  0  0  0
  6 20  1  0  0  0  0
  8 22  1  6  0  0  0
  8  3  1  0  0  0  0
  9  3  1  0  0  0  0
  9  2  1  1  0  0  0
 10 12  2  0  0  0  0
 11 12  1  0  0  0  0
 12  1  1  0  0  0  0
 13 10  1  0  0  0  0
 15 14  2  0  0  0  0
 15 16  2  0  0  0  0
 15 13  1  0  0  0  0
 17 15  1  0  0  0  0
 18 17  1  0  0  0  0
 19 18  1  0  0  0  0
 20 21  1  0  0  0  0
 23 22  1  0  0  0  0
 23 24  1  0  0  0  0
 25 27  1  0  0  0  0
 26 29  2  0  0  0  0
 27 24  1  1  0  0  0
 27 29  1  0  0  0  0
 28 25  2  0  0  0  0
 28 30  1  0  0  0  0
 30 26  1  0  0  0  0
M  END
>  <MODEL>
5

>  <REMARK>
 VINA RESULT:      -7.4      1.576      2.128
  Name = 
  10 active torsions:
  status: ('A' for Active; 'I' for Inactive)
    1  A    between atoms: C_1  and  C_25
    2  A    between atoms: N_4  and  C_5
    3  A    between atoms: N_4  and  S_22
    4  A    between atoms: O_6  and  C_19
    5  A    between atoms: C_7  and  C_17
    6  A    between atoms: N_8  and  N_10
    7  A    between atoms: N_8  and  C_15
    8  A    between atoms: N_10  and  C_13
    9  A    between atoms: C_15  and  C_27
   10  A    between atoms: C_17  and  S_22
                            x       y       z     vdW  Elec       q    Type
                         _______ _______ _______ _____ _____    ______ ____

>  <TORSDO>
F 10

$$$$
=
 OpenBabel11042412053D

 30 32  0  0  1  0  0  0  0  0999 V2000
  186.4290  177.9800  143.1740 C   0  0  0  0  0  0  0  0  0  0  0  0
  187.7650  177.3730  146.2190 C   0  0  0  0  0  3  0  0  0  0  0  0
  188.3860  177.1470  143.8500 C   0  0  2  0  0  3  0  0  0  0  0  0
  186.1590  177.5040  144.3510 N   0  0  0  0  0  0  0  0  0  0  0  0
  189.8080  177.1680  144.2070 C   0  0  0  0  0  3  0  0  0  0  0  0
  189.0690  177.5320  146.5310 C   0  0  0  0  0  0  0  0  0  0  0  0
  190.1210  177.3260  145.4980 C   0  0  0  0  0  3  0  0  0  0  0  0
  187.8310  177.7730  142.8260 C   0  0  2  0  0  3  0  0  0  0  0  0
  187.3480  176.8420  144.8730 C   0  0  2  0  0  3  0  0  0  0  0  0
  184.5610  178.0150  141.6110 C   0  0  0  0  0  3  0  0  0  0  0  0
  185.4180  180.0870  142.3430 O   0  0  0  0  0  1  0  0  0  0  0  0
  185.4360  178.6950  142.3510 C   0  0  0  0  0  0  0  0  0  0  0  0
  183.5490  178.6970  140.7530 C   0  0  0  0  0  2  0  0  0  0  0  0
  185.6870  178.6270  139.1310 O   0  0  0  0  0  0  0  0  0  0  0  0
  184.2480  179.0630  139.1570 S   0  0  0  0  0  0  0  0  0  0  0  0
  184.1650  180.5420  138.8980 O   0  0  0  0  0  0  0  0  0  0  0  0
  183.3550  178.2070  137.9480 N   0  0  0  0  0  2  0  0  0  0  0  0
  184.2320  177.1950  137.3830 C   0  0  0  0  0  2  0  0  0  0  0  0
  183.6250  175.8240  137.5970 C   0  0  0  0  0  1  0  0  0  0  0  0
  189.4660  177.9270  147.8120 O   0  0  0  0  0  0  0  0  0  0  0  0
  188.5440  178.2510  148.8440 C   0  0  0  0  0  1  0  0  0  0  0  0
  188.5710  178.4260  141.7050 C   0  0  0  0  0  2  0  0  0  0  0  0
  188.7530  177.4770  140.6220 N   0  0  0  0  0  2  0  0  0  0  0  0
  189.9050  177.8730  139.9300 N   0  0  0  0  0  2  0  0  0  0  0  0
  188.6360  176.6060  138.2900 C   0  0  0  0  0  3  0  0  0  0  0  0
  188.3030  178.9950  136.9150 N   0  0  0  0  0  0  0  0  0  0  0  0
  189.6210  177.7260  138.5130 C   0  0  1  0  0  3  0  0  0  0  0  0
  187.8600  176.6180  137.1970 C   0  0  0  0  0  3  0  0  0  0  0  0
  189.0550  179.0120  137.9660 C   0  0  0  0  0  3  0  0  0  0  0  0
  187.9980  177.7570  136.2170 C   0  0  0  0  0  2  0  0  0  0  0  0
  1  4  2  0  0  0  0
  2  6  2  0  0  0  0
  3  5  1  1  0  0  0
  3  9  1  0  0  0  0
  4  9  1  0  0  0  0
  5  7  2  0  0  0  0
  6 20  1  0  0  0  0
  7  6  1  0  0  0  0
  8 22  1  1  0  0  0
  8  1  1  0  0  0  0
  8  3  1  0  0  0  0
  9  2  1  1  0  0  0
 10 12  2  0  0  0  0
 11 12  1  0  0  0  0
 12  1  1  0  0  0  0
 13 10  1  0  0  0  0
 14 15  2  0  0  0  0
 15 13  1  0  0  0  0
 16 15  2  0  0  0  0
 17 15  1  0  0  0  0
 18 19  1  0  0  0  0
 18 17  1  0  0  0  0
 20 21  1  0  0  0  0
 23 22  1  0  0  0  0
 24 23  1  0  0  0  0
 25 27  1  0  0  0  0
 26 29  2  0  0  0  0
 27 24  1  1  0  0  0
 28 25  2  0  0  0  0
 29 27  1  0  0  0  0
 30 26  1  0  0  0  0
 30 28  1  0  0  0  0
M  END
>  <MODEL>
6

>  <REMARK>
 VINA RESULT:      -7.3      2.288      5.012
  Name = 
  10 active torsions:
  status: ('A' for Active; 'I' for Inactive)
    1  A    between atoms: C_1  and  C_25
    2  A    between atoms: N_4  and  C_5
    3  A    between atoms: N_4  and  S_22
    4  A    between atoms: O_6  and  C_19
    5  A    between atoms: C_7  and  C_17
    6  A    between atoms: N_8  and  N_10
    7  A    between atoms: N_8  and  C_15
    8  A    between atoms: N_10  and  C_13
    9  A    between atoms: C_15  and  C_27
   10  A    between atoms: C_17  and  S_22
                            x       y       z     vdW  Elec       q    Type
                         _______ _______ _______ _____ _____    ______ ____

>  <TORSDO>
F 10

$$$$
=
 OpenBabel11042412053D

 30 32  0  0  1  0  0  0  0  0999 V2000
  190.4780  177.2500  141.4640 C   0  0  0  0  0  0  0  0  0  0  0  0
  191.7410  176.4580  144.4970 C   0  0  0  0  0  3  0  0  0  0  0  0
  190.3520  178.2110  143.4740 C   0  0  2  0  0  3  0  0  0  0  0  0
  191.5450  176.8220  142.0650 N   0  0  0  0  0  0  0  0  0  0  0  0
  189.7680  178.5300  144.7810 C   0  0  0  0  0  3  0  0  0  0  0  0
  191.1040  176.6570  145.6700 C   0  0  0  0  0  0  0  0  0  0  0  0
  190.1570  177.7950  145.8300 C   0  0  0  0  0  3  0  0  0  0  0  0
  189.6970  178.1300  142.3280 C   0  0  2  0  0  3  0  0  0  0  0  0
  191.6320  177.4560  143.3750 C   0  0  2  0  0  3  0  0  0  0  0  0
  189.0860  177.4160  139.4720 C   0  0  0  0  0  3  0  0  0  0  0  0
  190.7960  175.7910  139.4830 O   0  0  0  0  0  1  0  0  0  0  0  0
  190.0980  176.8230  140.1040 C   0  0  0  0  0  0  0  0  0  0  0  0
  188.6570  177.0070  138.1030 C   0  0  0  0  0  2  0  0  0  0  0  0
  188.9930  178.1720  135.7090 O   0  0  0  0  0  0  0  0  0  0  0  0
  188.4320  178.4440  137.0770 S   0  0  0  0  0  0  0  0  0  0  0  0
  189.1440  179.6170  137.6900 O   0  0  0  0  0  0  0  0  0  0  0  0
  186.7390  178.7840  136.9590 N   0  0  0  0  0  2  0  0  0  0  0  0
  186.0250  177.7110  137.6310 C   0  0  0  0  0  2  0  0  0  0  0  0
  185.0380  178.3020  138.6160 C   0  0  0  0  0  1  0  0  0  0  0  0
  191.2830  175.7880  146.7510 O   0  0  0  0  0  0  0  0  0  0  0  0
  192.4750  175.7490  147.5250 C   0  0  0  0  0  1  0  0  0  0  0  0
  188.2900  178.5740  142.1000 C   0  0  0  0  0  2  0  0  0  0  0  0
  187.3730  177.6000  142.6640 N   0  0  0  0  0  2  0  0  0  0  0  0
  186.0960  178.1750  142.6150 N   0  0  0  0  0  2  0  0  0  0  0  0
  186.5000  177.4710  144.9060 C   0  0  0  0  0  3  0  0  0  0  0  0
  184.6280  179.3760  145.6680 N   0  0  0  0  0  0  0  0  0  0  0  0
  185.4710  177.9330  143.9040 C   0  0  1  0  0  3  0  0  0  0  0  0
  186.2870  177.6800  146.2130 C   0  0  0  0  0  3  0  0  0  0  0  0
  184.8150  179.1970  144.4010 C   0  0  0  0  0  3  0  0  0  0  0  0
  185.0180  178.3720  146.6440 C   0  0  0  0  0  2  0  0  0  0  0  0
  1  4  2  0  0  0  0
  1  8  1  0  0  0  0
  2  6  2  0  0  0  0
  3  5  1  1  0  0  0
  4  9  1  0  0  0  0
  5  7  2  0  0  0  0
  6  7  1  0  0  0  0
  6 20  1  0  0  0  0
  8 22  1  1  0  0  0
  8  3  1  0  0  0  0
  9  3  1  0  0  0  0
  9  2  1  1  0  0  0
 10 12  2  0  0  0  0
 11 12  1  0  0  0  0
 12  1  1  0  0  0  0
 13 10  1  0  0  0  0
 14 15  2  0  0  0  0
 15 16  2  0  0  0  0
 15 13  1  0  0  0  0
 17 15  1  0  0  0  0
 17 18  1  0  0  0  0
 18 19  1  0  0  0  0
 20 21  1  0  0  0  0
 22 23  1  0  0  0  0
 24 23  1  0  0  0  0
 25 28  2  0  0  0  0
 26 30  1  0  0  0  0
 27 24  1  6  0  0  0
 27 29  1  0  0  0  0
 27 25  1  0  0  0  0
 28 30  1  0  0  0  0
 29 26  2  0  0  0  0
M  END
>  <MODEL>
7

>  <REMARK>
 VINA RESULT:      -7.2      1.897      2.554
  Name = 
  10 active torsions:
  status: ('A' for Active; 'I' for Inactive)
    1  A    between atoms: C_1  and  C_25
    2  A    between atoms: N_4  and  C_5
    3  A    between atoms: N_4  and  S_22
    4  A    between atoms: O_6  and  C_19
    5  A    between atoms: C_7  and  C_17
    6  A    between atoms: N_8  and  N_10
    7  A    between atoms: N_8  and  C_15
    8  A    between atoms: N_10  and  C_13
    9  A    between atoms: C_15  and  C_27
   10  A    between atoms: C_17  and  S_22
                            x       y       z     vdW  Elec       q    Type
                         _______ _______ _______ _____ _____    ______ ____

>  <TORSDO>
F 10

$$$$
=
 OpenBabel11042412053D

 30 32  0  0  1  0  0  0  0  0999 V2000
  187.1340  178.4920  140.2730 C   0  0  0  0  0  0  0  0  0  0  0  0
  188.9020  177.2510  137.6730 C   0  0  0  0  0  3  0  0  0  0  0  0
  189.2510  177.8260  140.0390 C   0  0  2  0  0  3  0  0  0  0  0  0
  187.3520  178.6360  139.0030 N   0  0  0  0  0  0  0  0  0  0  0  0
  190.3900  176.9040  140.1080 C   0  0  0  0  0  3  0  0  0  0  0  0
  189.8570  176.3040  137.7770 C   0  0  0  0  0  0  0  0  0  0  0  0
  190.6850  176.2010  139.0090 C   0  0  0  0  0  3  0  0  0  0  0  0
  188.3150  177.9780  140.9600 C   0  0  2  0  0  3  0  0  0  0  0  0
  188.7470  178.3170  138.7260 C   0  0  2  0  0  3  0  0  0  0  0  0
  185.4290  178.0490  141.9560 C   0  0  0  0  0  3  0  0  0  0  0  0
  184.9960  179.7450  140.3740 O   0  0  0  0  0  1  0  0  0  0  0  0
  185.8250  178.7560  140.8980 C   0  0  0  0  0  0  0  0  0  0  0  0
  184.1070  178.2720  142.6090 C   0  0  0  0  0  2  0  0  0  0  0  0
  183.0230  179.0320  144.9440 O   0  0  0  0  0  0  0  0  0  0  0  0
  184.3340  179.0230  144.2080 S   0  0  0  0  0  0  0  0  0  0  0  0
  184.8270  180.4320  144.0370 O   0  0  0  0  0  0  0  0  0  0  0  0
  185.4970  178.1000  145.0960 N   0  0  0  0  0  2  0  0  0  0  0  0
  185.1970  178.2540  146.5100 C   0  0  0  0  0  2  0  0  0  0  0  0
  186.1840  179.2190  147.1330 C   0  0  0  0  0  1  0  0  0  0  0  0
  190.0730  175.3750  136.7550 O   0  0  0  0  0  0  0  0  0  0  0  0
  190.8220  174.1800  136.9390 C   0  0  0  0  0  1  0  0  0  0  0  0
  188.3620  177.4180  142.3440 C   0  0  0  0  0  2  0  0  0  0  0  0
  189.1570  178.2840  143.1950 N   0  0  0  0  0  2  0  0  0  0  0  0
  190.2820  177.5440  143.5820 N   0  0  0  0  0  2  0  0  0  0  0  0
  189.2300  177.4890  145.7720 C   0  0  0  0  0  3  0  0  0  0  0  0
  191.6750  176.6200  146.7630 N   0  0  0  0  0  0  0  0  0  0  0  0
  190.4880  177.7940  144.9980 C   0  0  1  0  0  3  0  0  0  0  0  0
  189.3190  177.1520  147.0670 C   0  0  0  0  0  3  0  0  0  0  0  0
  191.6170  176.9360  145.5110 C   0  0  0  0  0  3  0  0  0  0  0  0
  190.6800  177.0900  147.7130 C   0  0  0  0  0  2  0  0  0  0  0  0
  1 12  1  0  0  0  0
  1  8  1  0  0  0  0
  2  6  2  0  0  0  0
  3  5  1  6  0  0  0
  3  8  1  0  0  0  0
  4  1  2  0  0  0  0
  6  7  1  0  0  0  0
  7  5  2  0  0  0  0
  8 22  1  6  0  0  0
  9  2  1  6  0  0  0
  9  4  1  0  0  0  0
  9  3  1  0  0  0  0
 10 13  1  0  0  0  0
 11 12  1  0  0  0  0
 12 10  2  0  0  0  0
 13 15  1  0  0  0  0
 15 14  2  0  0  0  0
 15 17  1  0  0  0  0
 16 15  2  0  0  0  0
 17 18  1  0  0  0  0
 18 19  1  0  0  0  0
 20 21  1  0  0  0  0
 20  6  1  0  0  0  0
 22 23  1  0  0  0  0
 23 24  1  0  0  0  0
 25 28  2  0  0  0  0
 26 30  1  0  0  0  0
 27 24  1  6  0  0  0
 27 29  1  0  0  0  0
 27 25  1  0  0  0  0
 28 30  1  0  0  0  0
 29 26  2  0  0  0  0
M  END
>  <MODEL>
8

>  <REMARK>
 VINA RESULT:      -7.1      2.784      7.472
  Name = 
  10 active torsions:
  status: ('A' for Active; 'I' for Inactive)
    1  A    between atoms: C_1  and  C_25
    2  A    between atoms: N_4  and  C_5
    3  A    between atoms: N_4  and  S_22
    4  A    between atoms: O_6  and  C_19
    5  A    between atoms: C_7  and  C_17
    6  A    between atoms: N_8  and  N_10
    7  A    between atoms: N_8  and  C_15
    8  A    between atoms: N_10  and  C_13
    9  A    between atoms: C_15  and  C_27
   10  A    between atoms: C_17  and  S_22
                            x       y       z     vdW  Elec       q    Type
                         _______ _______ _______ _____ _____    ______ ____

>  <TORSDO>
F 10

$$$$
=
 OpenBabel11042412053D

 30 32  0  0  1  0  0  0  0  0999 V2000
  186.6180  178.1780  145.7600 C   0  0  0  0  0  0  0  0  0  0  0  0
  183.4550  179.1310  145.0430 C   0  0  0  0  0  3  0  0  0  0  0  0
  185.5780  178.7320  143.8650 C   0  0  2  0  0  3  0  0  0  0  0  0
  185.6430  178.9320  146.1660 N   0  0  0  0  0  0  0  0  0  0  0  0
  184.8540  178.5080  142.6100 C   0  0  0  0  0  3  0  0  0  0  0  0
  182.7860  178.7880  143.9230 C   0  0  0  0  0  0  0  0  0  0  0  0
  183.5180  178.5640  142.6460 C   0  0  0  0  0  3  0  0  0  0  0  0
  186.6050  178.0280  144.3090 C   0  0  2  0  0  3  0  0  0  0  0  0
  184.9280  179.4420  145.0030 C   0  0  2  0  0  3  0  0  0  0  0  0
  188.8250  177.3160  146.3250 C   0  0  0  0  0  3  0  0  0  0  0  0
  187.1160  177.0910  147.9340 O   0  0  0  0  0  1  0  0  0  0  0  0
  187.5580  177.5160  146.6840 C   0  0  0  0  0  0  0  0  0  0  0  0
  189.8060  176.6380  147.2200 C   0  0  0  0  0  2  0  0  0  0  0  0
  191.4980  175.5370  145.4520 O   0  0  0  0  0  0  0  0  0  0  0  0
  191.4210  176.6390  146.4710 S   0  0  0  0  0  0  0  0  0  0  0  0
  192.4670  176.4220  147.5290 O   0  0  0  0  0  0  0  0  0  0  0  0
  191.6770  178.1680  145.7010 N   0  0  0  0  0  2  0  0  0  0  0  0
  191.6370  177.9510  144.2640 C   0  0  0  0  0  2  0  0  0  0  0  0
  191.3020  179.2530  143.5670 C   0  0  0  0  0  1  0  0  0  0  0  0
  181.4010  178.5980  143.9340 O   0  0  0  0  0  0  0  0  0  0  0  0
  180.5870  178.7610  142.7780 C   0  0  0  0  0  1  0  0  0  0  0  0
  187.3750  177.0240  143.5150 C   0  0  0  0  0  2  0  0  0  0  0  0
  188.4450  177.6880  142.7930 N   0  0  0  0  0  2  0  0  0  0  0  0
  188.8690  176.7990  141.7970 N   0  0  0  0  0  2  0  0  0  0  0  0
  189.9420  176.7410  139.6170 C   0  0  0  0  0  3  0  0  0  0  0  0
  188.0290  178.5750  138.7880 N   0  0  0  0  0  0  0  0  0  0  0  0
  189.2510  177.6000  140.6470 C   0  0  1  0  0  3  0  0  0  0  0  0
  189.9160  177.1090  138.3290 C   0  0  0  0  0  3  0  0  0  0  0  0
  188.0290  178.2360  140.0360 C   0  0  0  0  0  3  0  0  0  0  0  0
  189.1970  178.3780  137.9460 C   0  0  0  0  0  2  0  0  0  0  0  0
  1  4  2  0  0  0  0
  1 12  1  0  0  0  0
  3  5  1  1  0  0  0
  3  8  1  0  0  0  0
  3  9  1  0  0  0  0
  5  7  2  0  0  0  0
  6 20  1  0  0  0  0
  6  2  2  0  0  0  0
  7  6  1  0  0  0  0
  8 22  1  1  0  0  0
  8  1  1  0  0  0  0
  9  2  1  1  0  0  0
  9  4  1  0  0  0  0
 10 12  2  0  0  0  0
 10 13  1  0  0  0  0
 12 11  1  0  0  0  0
 14 15  2  0  0  0  0
 15 13  1  0  0  0  0
 15 16  2  0  0  0  0
 17 15  1  0  0  0  0
 18 17  1  0  0  0  0
 19 18  1  0  0  0  0
 21 20  1  0  0  0  0
 23 22  1  0  0  0  0
 24 23  1  0  0  0  0
 25 27  1  0  0  0  0
 26 29  2  0  0  0  0
 27 24  1  1  0  0  0
 28 25  2  0  0  0  0
 29 27  1  0  0  0  0
 30 28  1  0  0  0  0
 30 26  1  0  0  0  0
M  END
>  <MODEL>
9

>  <REMARK>
 VINA RESULT:      -7.1      3.355      7.555
  Name = 
  10 active torsions:
  status: ('A' for Active; 'I' for Inactive)
    1  A    between atoms: C_1  and  C_25
    2  A    between atoms: N_4  and  C_5
    3  A    between atoms: N_4  and  S_22
    4  A    between atoms: O_6  and  C_19
    5  A    between atoms: C_7  and  C_17
    6  A    between atoms: N_8  and  N_10
    7  A    between atoms: N_8  and  C_15
    8  A    between atoms: N_10  and  C_13
    9  A    between atoms: C_15  and  C_27
   10  A    between atoms: C_17  and  S_22
                            x       y       z     vdW  Elec       q    Type
                         _______ _______ _______ _____ _____    ______ ____

>  <TORSDO>
F 10

$$$$
