=
 OpenBabel11032419183D

 25 27  0  0  1  0  0  0  0  0999 V2000
  189.4990  176.4190  142.4970 C   0  0  0  0  0  2  0  0  0  0  0  0
  188.4620  177.6120  138.0740 O   0  0  0  0  0  0  0  0  0  0  0  0
  188.3120  178.4460  140.7550 C   0  0  0  0  0  2  0  0  0  0  0  0
  188.6880  177.5820  143.0800 C   0  0  0  0  0  3  0  0  0  0  0  0
  190.1960  176.8540  141.2130 C   0  0  0  0  0  2  0  0  0  0  0  0
  187.6340  177.9920  142.0430 C   0  0  0  0  0  2  0  0  0  0  0  0
  189.2570  177.0630  138.8840 C   0  0  0  0  0  0  0  0  0  0  0  0
  189.2140  177.4000  140.2780 N   0  0  0  0  0  0  0  0  0  0  0  0
  184.6720  178.4530  144.6210 C   0  0  0  0  0  0  0  0  0  0  0  0
  185.7320  177.9230  144.0680 N   0  0  0  0  0  0  0  0  0  0  0  0
  188.0670  177.1770  144.3590 N   0  0  1  0  0  0  0  0  0  0  0  0
  183.4780  178.4060  143.9820 F   0  0  0  0  0  0  0  0  0  0  0  0
  188.1900  177.7760  146.7400 C   0  0  1  0  0  3  0  0  0  0  0  0
  185.7950  178.7960  146.7080 C   0  0  0  0  0  3  0  0  0  0  0  0
  186.7930  177.8020  146.2050 C   0  0  1  0  0  3  0  0  0  0  0  0
  188.2850  176.7850  147.8830 C   0  0  0  0  0  1  0  0  0  0  0  0
  184.7670  179.0480  145.9410 N   0  0  0  0  0  0  0  0  0  0  0  0
  190.1810  178.2120  145.3440 C   0  0  0  0  0  1  0  0  0  0  0  0
  188.9940  177.2640  145.5320 C   0  0  2  0  0  3  0  0  0  0  0  0
  187.0090  178.0940  144.7600 C   0  0  2  0  0  3  0  0  0  0  0  0
  190.2030  176.0290  138.3720 C   0  0  0  0  0  2  0  0  0  0  0  0
  191.2650  176.6700  137.6150 N   0  0  0  0  0  2  0  0  0  0  0  0
  192.5000  176.4640  138.3500 C   0  0  0  0  0  2  0  0  0  0  0  0
  193.5050  176.0690  136.4270 C   0  0  0  0  0  1  0  0  0  0  0  0
  193.5860  176.8640  137.5690 O   0  0  0  0  0  0  0  0  0  0  0  0
  1  4  1  0  0  0  0
  2  7  2  0  0  0  0
  3  6  1  0  0  0  0
  5  1  1  0  0  0  0
  6  4  1  0  0  0  0
  7  8  1  0  0  0  0
  8  3  1  0  0  0  0
  8  5  1  0  0  0  0
  9 17  1  0  0  0  0
 10  9  2  0  0  0  0
 11  4  1  6  0  0  0
 11 20  1  0  0  0  0
 11 19  1  0  0  0  0
 12  9  1  0  0  0  0
 13 16  1  1  0  0  0
 15 14  1  1  0  0  0
 15 13  1  0  0  0  0
 17 14  2  0  0  0  0
 19 18  1  6  0  0  0
 19 13  1  0  0  0  0
 20 10  1  6  0  0  0
 20 15  1  0  0  0  0
 21  7  1  0  0  0  0
 22 23  1  0  0  0  0
 22 21  1  0  0  0  0
 24 25  1  0  0  0  0
 25 23  1  0  0  0  0
M  END
>  <MODEL>
1

>  <REMARK>
 VINA RESULT:      -8.2      0.000      0.000
  Name = 
  5 active torsions:
  status: ('A' for Active; 'I' for Inactive)
    1  A    between atoms: N_4  and  C_15
    2  A    between atoms: O_8  and  C_16
    3  A    between atoms: C_10  and  N_12
    4  A    between atoms: C_10  and  C_23
    5  A    between atoms: N_12  and  C_16
                            x       y       z     vdW  Elec       q    Type
                         _______ _______ _______ _____ _____    ______ ____

>  <TORSDO>
F 5

$$$$
=
 OpenBabel11032419183D

 25 27  0  0  1  0  0  0  0  0999 V2000
  190.0510  176.9090  141.8650 C   0  0  0  0  0  2  0  0  0  0  0  0
  186.9130  178.2540  138.6410 O   0  0  0  0  0  0  0  0  0  0  0  0
  187.8270  178.7090  141.2600 C   0  0  0  0  0  2  0  0  0  0  0  0
  189.3780  177.7290  142.9720 C   0  0  0  0  0  3  0  0  0  0  0  0
  189.9900  177.6620  140.5400 C   0  0  0  0  0  2  0  0  0  0  0  0
  187.9110  177.9430  142.5770 C   0  0  0  0  0  2  0  0  0  0  0  0
  188.0790  177.8600  138.9100 C   0  0  0  0  0  0  0  0  0  0  0  0
  188.6050  178.0150  140.2370 N   0  0  0  0  0  0  0  0  0  0  0  0
  186.6620  177.7720  146.4190 C   0  0  0  0  0  0  0  0  0  0  0  0
  187.3130  177.4930  145.3190 N   0  0  0  0  0  0  0  0  0  0  0  0
  189.4970  177.0270  144.2680 N   0  0  1  0  0  0  0  0  0  0  0  0
  185.3100  177.6790  146.4490 F   0  0  0  0  0  0  0  0  0  0  0  0
  190.7850  177.2110  146.3530 C   0  0  1  0  0  3  0  0  0  0  0  0
  188.6720  177.8910  147.7130 C   0  0  0  0  0  3  0  0  0  0  0  0
  189.3090  177.1430  146.5860 C   0  0  1  0  0  3  0  0  0  0  0  0
  191.4710  176.0570  147.0570 C   0  0  0  0  0  1  0  0  0  0  0  0
  187.3910  178.1340  147.6190 N   0  0  0  0  0  0  0  0  0  0  0  0
  191.7900  178.1460  144.2990 C   0  0  0  0  0  1  0  0  0  0  0  0
  190.8850  177.0300  144.8290 C   0  0  2  0  0  3  0  0  0  0  0  0
  188.7600  177.7100  145.3220 C   0  0  2  0  0  3  0  0  0  0  0  0
  188.8770  177.1940  137.8400 C   0  0  0  0  0  2  0  0  0  0  0  0
  188.4060  175.8320  137.6540 N   0  0  0  0  0  2  0  0  0  0  0  0
  189.5410  175.0420  137.2130 C   0  0  0  0  0  2  0  0  0  0  0  0
  191.7060  174.7180  137.4870 C   0  0  0  0  0  1  0  0  0  0  0  0
  190.5530  175.0940  138.1730 O   0  0  0  0  0  0  0  0  0  0  0  0
  1  4  1  0  0  0  0
  2  7  2  0  0  0  0
  3  6  1  0  0  0  0
  5  1  1  0  0  0  0
  6  4  1  0  0  0  0
  7  8  1  0  0  0  0
  8  5  1  0  0  0  0
  8  3  1  0  0  0  0
  9 12  1  0  0  0  0
  9 17  1  0  0  0  0
 10  9  2  0  0  0  0
 11  4  1  6  0  0  0
 11 19  1  0  0  0  0
 11 20  1  0  0  0  0
 13 15  1  0  0  0  0
 13 16  1  1  0  0  0
 15 14  1  1  0  0  0
 17 14  2  0  0  0  0
 19 18  1  6  0  0  0
 19 13  1  0  0  0  0
 20 10  1  6  0  0  0
 20 15  1  0  0  0  0
 21  7  1  0  0  0  0
 22 21  1  0  0  0  0
 23 22  1  0  0  0  0
 23 25  1  0  0  0  0
 24 25  1  0  0  0  0
M  END
>  <MODEL>
2

>  <REMARK>
 VINA RESULT:      -8.0      1.851      2.316
  Name = 
  5 active torsions:
  status: ('A' for Active; 'I' for Inactive)
    1  A    between atoms: N_4  and  C_15
    2  A    between atoms: O_8  and  C_16
    3  A    between atoms: C_10  and  N_12
    4  A    between atoms: C_10  and  C_23
    5  A    between atoms: N_12  and  C_16
                            x       y       z     vdW  Elec       q    Type
                         _______ _______ _______ _____ _____    ______ ____

>  <TORSDO>
F 5

$$$$
=
 OpenBabel11032419183D

 25 27  0  0  1  0  0  0  0  0999 V2000
  189.4210  176.4280  142.5090 C   0  0  0  0  0  2  0  0  0  0  0  0
  188.2660  177.6370  138.1200 O   0  0  0  0  0  0  0  0  0  0  0  0
  188.1790  178.4570  140.8080 C   0  0  0  0  0  2  0  0  0  0  0  0
  188.6180  177.5840  143.1180 C   0  0  0  0  0  3  0  0  0  0  0  0
  190.0840  176.8740  141.2100 C   0  0  0  0  0  2  0  0  0  0  0  0
  187.5360  177.9920  142.1110 C   0  0  0  0  0  2  0  0  0  0  0  0
  189.0840  177.0890  138.9060 C   0  0  0  0  0  0  0  0  0  0  0  0
  189.0740  177.4190  140.3030 N   0  0  0  0  0  0  0  0  0  0  0  0
  184.6540  178.4600  144.7840 C   0  0  0  0  0  0  0  0  0  0  0  0
  185.6940  177.9300  144.1940 N   0  0  0  0  0  0  0  0  0  0  0  0
  188.0330  177.1690  144.4110 N   0  0  1  0  0  0  0  0  0  0  0  0
  183.4420  178.4270  144.1790 F   0  0  0  0  0  0  0  0  0  0  0  0
  188.2280  177.7420  146.7930 C   0  0  1  0  0  3  0  0  0  0  0  0
  185.8380  178.7750  146.8410 C   0  0  0  0  0  3  0  0  0  0  0  0
  186.8160  177.7810  146.2990 C   0  0  1  0  0  3  0  0  0  0  0  0
  188.3510  176.7390  147.9220 C   0  0  0  0  0  1  0  0  0  0  0  0
  184.7900  179.0410  146.1060 N   0  0  0  0  0  0  0  0  0  0  0  0
  190.1800  178.1820  145.3440 C   0  0  0  0  0  1  0  0  0  0  0  0
  188.9930  177.2390  145.5570 C   0  0  2  0  0  3  0  0  0  0  0  0
  186.9920  178.0870  144.8520 C   0  0  2  0  0  3  0  0  0  0  0  0
  190.0230  176.0630  138.3660 C   0  0  0  0  0  2  0  0  0  0  0  0
  191.1180  176.7200  137.6710 N   0  0  0  0  0  2  0  0  0  0  0  0
  191.3290  176.0000  136.4270 C   0  0  0  0  0  2  0  0  0  0  0  0
  190.0650  176.6450  134.7400 C   0  0  0  0  0  1  0  0  0  0  0  0
  190.1010  175.7550  135.8110 O   0  0  0  0  0  0  0  0  0  0  0  0
  1  4  1  0  0  0  0
  2  7  2  0  0  0  0
  3  6  1  0  0  0  0
  5  1  1  0  0  0  0
  6  4  1  0  0  0  0
  7  8  1  0  0  0  0
  8  3  1  0  0  0  0
  8  5  1  0  0  0  0
  9 17  1  0  0  0  0
 10  9  2  0  0  0  0
 11  4  1  6  0  0  0
 11 20  1  0  0  0  0
 11 19  1  0  0  0  0
 12  9  1  0  0  0  0
 13 16  1  1  0  0  0
 15 13  1  0  0  0  0
 15 14  1  1  0  0  0
 17 14  2  0  0  0  0
 19 18  1  6  0  0  0
 19 13  1  0  0  0  0
 20 10  1  6  0  0  0
 20 15  1  0  0  0  0
 21  7  1  0  0  0  0
 22 21  1  0  0  0  0
 23 22  1  0  0  0  0
 24 25  1  0  0  0  0
 25 23  1  0  0  0  0
M  END
>  <MODEL>
3

>  <REMARK>
 VINA RESULT:      -7.8      1.095      1.219
  Name = 
  5 active torsions:
  status: ('A' for Active; 'I' for Inactive)
    1  A    between atoms: N_4  and  C_15
    2  A    between atoms: O_8  and  C_16
    3  A    between atoms: C_10  and  N_12
    4  A    between atoms: C_10  and  C_23
    5  A    between atoms: N_12  and  C_16
                            x       y       z     vdW  Elec       q    Type
                         _______ _______ _______ _____ _____    ______ ____

>  <TORSDO>
F 5

$$$$
=
 OpenBabel11032419183D

 25 27  0  0  1  0  0  0  0  0999 V2000
  189.9010  176.6420  141.9650 C   0  0  0  0  0  2  0  0  0  0  0  0
  186.8600  178.2870  138.7870 O   0  0  0  0  0  0  0  0  0  0  0  0
  187.9190  178.7050  141.3570 C   0  0  0  0  0  2  0  0  0  0  0  0
  189.3840  177.5850  143.0590 C   0  0  0  0  0  3  0  0  0  0  0  0
  189.8950  177.3490  140.6140 C   0  0  0  0  0  2  0  0  0  0  0  0
  187.9460  177.9820  142.7000 C   0  0  0  0  0  2  0  0  0  0  0  0
  187.9720  177.7480  139.0360 C   0  0  0  0  0  0  0  0  0  0  0  0
  188.5600  177.8760  140.3390 N   0  0  0  0  0  0  0  0  0  0  0  0
  186.5830  177.7920  146.4310 C   0  0  0  0  0  0  0  0  0  0  0  0
  187.2550  177.4660  145.3570 N   0  0  0  0  0  0  0  0  0  0  0  0
  189.4540  176.9200  144.3770 N   0  0  1  0  0  0  0  0  0  0  0  0
  185.2290  177.7300  146.4280 F   0  0  0  0  0  0  0  0  0  0  0  0
  190.6920  177.1370  146.4890 C   0  0  1  0  0  3  0  0  0  0  0  0
  188.5620  177.9050  147.7730 C   0  0  0  0  0  3  0  0  0  0  0  0
  189.2090  177.1090  146.6850 C   0  0  1  0  0  3  0  0  0  0  0  0
  191.3330  175.9890  147.2450 C   0  0  0  0  0  1  0  0  0  0  0  0
  187.2890  178.1730  147.6390 N   0  0  0  0  0  0  0  0  0  0  0  0
  191.7700  177.9870  144.4350 C   0  0  0  0  0  1  0  0  0  0  0  0
  190.8270  176.9080  144.9740 C   0  0  2  0  0  3  0  0  0  0  0  0
  188.7060  177.6500  145.3910 C   0  0  2  0  0  3  0  0  0  0  0  0
  188.6340  176.9420  137.9700 C   0  0  0  0  0  2  0  0  0  0  0  0
  187.7200  176.7590  136.8550 N   0  0  0  0  0  2  0  0  0  0  0  0
  188.4980  176.8980  135.6360 C   0  0  0  0  0  2  0  0  0  0  0  0
  186.4880  177.6080  135.0700 C   0  0  0  0  0  1  0  0  0  0  0  0
  187.8370  177.7510  134.7510 O   0  0  0  0  0  0  0  0  0  0  0  0
  1  4  1  0  0  0  0
  2  7  2  0  0  0  0
  3  6  1  0  0  0  0
  5  1  1  0  0  0  0
  6  4  1  0  0  0  0
  7  8  1  0  0  0  0
  8  5  1  0  0  0  0
  8  3  1  0  0  0  0
  9 17  1  0  0  0  0
 10  9  2  0  0  0  0
 11  4  1  6  0  0  0
 11 19  1  0  0  0  0
 11 20  1  0  0  0  0
 12  9  1  0  0  0  0
 13 15  1  0  0  0  0
 13 16  1  1  0  0  0
 15 14  1  1  0  0  0
 17 14  2  0  0  0  0
 19 18  1  6  0  0  0
 19 13  1  0  0  0  0
 20 10  1  6  0  0  0
 20 15  1  0  0  0  0
 21  7  1  0  0  0  0
 22 21  1  0  0  0  0
 23 22  1  0  0  0  0
 25 24  1  0  0  0  0
 25 23  1  0  0  0  0
M  END
>  <MODEL>
4

>  <REMARK>
 VINA RESULT:      -7.7      2.429      2.976
  Name = 
  5 active torsions:
  status: ('A' for Active; 'I' for Inactive)
    1  A    between atoms: N_4  and  C_15
    2  A    between atoms: O_8  and  C_16
    3  A    between atoms: C_10  and  N_12
    4  A    between atoms: C_10  and  C_23
    5  A    between atoms: N_12  and  C_16
                            x       y       z     vdW  Elec       q    Type
                         _______ _______ _______ _____ _____    ______ ____

>  <TORSDO>
F 5

$$$$
=
 OpenBabel11032419183D

 25 27  0  0  1  0  0  0  0  0999 V2000
  184.8620  177.8100  142.4700 C   0  0  0  0  0  2  0  0  0  0  0  0
  180.6990  179.1420  144.1870 O   0  0  0  0  0  0  0  0  0  0  0  0
  183.4760  179.2470  144.6070 C   0  0  0  0  0  2  0  0  0  0  0  0
  185.6110  178.2630  143.7290 C   0  0  0  0  0  3  0  0  0  0  0  0
  183.7270  178.7790  142.1550 C   0  0  0  0  0  2  0  0  0  0  0  0
  184.6140  178.2720  144.8950 C   0  0  0  0  0  2  0  0  0  0  0  0
  181.4320  178.9270  143.1840 C   0  0  0  0  0  0  0  0  0  0  0  0
  182.8600  178.9190  143.3240 N   0  0  0  0  0  0  0  0  0  0  0  0
  187.9320  177.7210  147.4140 C   0  0  0  0  0  0  0  0  0  0  0  0
  187.0810  177.6310  146.4260 N   0  0  0  0  0  0  0  0  0  0  0  0
  186.7520  177.3600  143.9940 N   0  0  1  0  0  0  0  0  0  0  0  0
  187.5000  177.6130  148.6940 F   0  0  0  0  0  0  0  0  0  0  0  0
  189.1470  177.2120  143.4660 C   0  0  1  0  0  3  0  0  0  0  0  0
  189.8200  177.6440  145.9440 C   0  0  0  0  0  3  0  0  0  0  0  0
  188.8670  177.0950  144.9310 C   0  0  1  0  0  3  0  0  0  0  0  0
  189.8560  175.9650  142.9760 C   0  0  0  0  0  1  0  0  0  0  0  0
  189.3460  177.8880  147.1370 N   0  0  0  0  0  0  0  0  0  0  0  0
  187.7060  178.4780  141.9090 C   0  0  0  0  0  1  0  0  0  0  0  0
  187.7330  177.2830  142.8660 C   0  0  2  0  0  3  0  0  0  0  0  0
  187.5930  177.8560  145.0740 C   0  0  2  0  0  3  0  0  0  0  0  0
  180.7860  178.6390  141.8710 C   0  0  0  0  0  2  0  0  0  0  0  0
  179.5580  177.8900  142.0820 N   0  0  0  0  0  2  0  0  0  0  0  0
  179.4750  176.8970  141.0260 C   0  0  0  0  0  2  0  0  0  0  0  0
  179.3690  174.7490  140.5360 C   0  0  0  0  0  1  0  0  0  0  0  0
  179.1550  175.6540  141.5740 O   0  0  0  0  0  0  0  0  0  0  0  0
  1  4  1  0  0  0  0
  3  6  1  0  0  0  0
  4  6  1  0  0  0  0
  5  1  1  0  0  0  0
  5  8  1  0  0  0  0
  7  8  1  0  0  0  0
  7  2  2  0  0  0  0
  8  3  1  0  0  0  0
  9 12  1  0  0  0  0
 10  9  2  0  0  0  0
 11  4  1  6  0  0  0
 11 20  1  0  0  0  0
 13 16  1  6  0  0  0
 13 15  1  0  0  0  0
 14 17  2  0  0  0  0
 15 20  1  0  0  0  0
 15 14  1  1  0  0  0
 17  9  1  0  0  0  0
 19 18  1  6  0  0  0
 19 13  1  0  0  0  0
 19 11  1  0  0  0  0
 20 10  1  1  0  0  0
 21 22  1  0  0  0  0
 21  7  1  0  0  0  0
 23 25  1  0  0  0  0
 23 22  1  0  0  0  0
 24 25  1  0  0  0  0
M  END
>  <MODEL>
5

>  <REMARK>
 VINA RESULT:      -7.3      4.831      7.592
  Name = 
  5 active torsions:
  status: ('A' for Active; 'I' for Inactive)
    1  A    between atoms: N_4  and  C_15
    2  A    between atoms: O_8  and  C_16
    3  A    between atoms: C_10  and  N_12
    4  A    between atoms: C_10  and  C_23
    5  A    between atoms: N_12  and  C_16
                            x       y       z     vdW  Elec       q    Type
                         _______ _______ _______ _____ _____    ______ ____

>  <TORSDO>
F 5

$$$$
=
 OpenBabel11032419183D

 25 27  0  0  1  0  0  0  0  0999 V2000
  185.0530  177.8780  142.2660 C   0  0  0  0  0  2  0  0  0  0  0  0
  180.8640  179.2060  143.9230 O   0  0  0  0  0  0  0  0  0  0  0  0
  183.6340  179.2890  144.3980 C   0  0  0  0  0  2  0  0  0  0  0  0
  185.7790  178.3060  143.5460 C   0  0  0  0  0  3  0  0  0  0  0  0
  183.9290  178.8570  141.9440 C   0  0  0  0  0  2  0  0  0  0  0  0
  184.7600  178.3040  144.6930 C   0  0  0  0  0  2  0  0  0  0  0  0
  181.6150  179.0030  142.9320 C   0  0  0  0  0  0  0  0  0  0  0  0
  183.0410  178.9850  143.0980 N   0  0  0  0  0  0  0  0  0  0  0  0
  188.0130  177.6800  147.2710 C   0  0  0  0  0  0  0  0  0  0  0  0
  187.1840  177.6140  146.2620 N   0  0  0  0  0  0  0  0  0  0  0  0
  186.9100  177.3940  143.8180 N   0  0  1  0  0  0  0  0  0  0  0  0
  187.5510  177.5480  148.5390 F   0  0  0  0  0  0  0  0  0  0  0  0
  189.3160  177.2450  143.3430 C   0  0  1  0  0  3  0  0  0  0  0  0
  189.9340  177.6250  145.8440 C   0  0  0  0  0  3  0  0  0  0  0  0
  189.0020  177.1000  144.7980 C   0  0  1  0  0  3  0  0  0  0  0  0
  190.0310  176.0050  142.8440 C   0  0  0  0  0  1  0  0  0  0  0  0
  189.4340  177.8470  147.0310 N   0  0  0  0  0  0  0  0  0  0  0  0
  187.9170  178.5490  141.7790 C   0  0  0  0  0  1  0  0  0  0  0  0
  187.9170  177.3350  142.7120 C   0  0  2  0  0  3  0  0  0  0  0  0
  187.7290  177.8640  144.9270 C   0  0  2  0  0  3  0  0  0  0  0  0
  180.9940  178.7380  141.6020 C   0  0  0  0  0  2  0  0  0  0  0  0
  180.2920  179.9260  141.1440 N   0  0  0  0  0  2  0  0  0  0  0  0
  180.7940  180.2360  139.8170 C   0  0  0  0  0  2  0  0  0  0  0  0
  181.1490  181.8000  138.3040 C   0  0  0  0  0  1  0  0  0  0  0  0
  180.4300  181.5380  139.4690 O   0  0  0  0  0  0  0  0  0  0  0  0
  1  4  1  0  0  0  0
  3  6  1  0  0  0  0
  4  6  1  0  0  0  0
  5  1  1  0  0  0  0
  5  8  1  0  0  0  0
  7  8  1  0  0  0  0
  7  2  2  0  0  0  0
  8  3  1  0  0  0  0
  9 12  1  0  0  0  0
 10  9  2  0  0  0  0
 11  4  1  6  0  0  0
 11 20  1  0  0  0  0
 13 16  1  6  0  0  0
 13 15  1  0  0  0  0
 14 17  2  0  0  0  0
 15 20  1  0  0  0  0
 15 14  1  1  0  0  0
 17  9  1  0  0  0  0
 19 18  1  1  0  0  0
 19 13  1  0  0  0  0
 19 11  1  0  0  0  0
 20 10  1  1  0  0  0
 21  7  1  0  0  0  0
 22 21  1  0  0  0  0
 23 22  1  0  0  0  0
 24 25  1  0  0  0  0
 25 23  1  0  0  0  0
M  END
>  <MODEL>
6

>  <REMARK>
 VINA RESULT:      -7.1      4.628      7.270
  Name = 
  5 active torsions:
  status: ('A' for Active; 'I' for Inactive)
    1  A    between atoms: N_4  and  C_15
    2  A    between atoms: O_8  and  C_16
    3  A    between atoms: C_10  and  N_12
    4  A    between atoms: C_10  and  C_23
    5  A    between atoms: N_12  and  C_16
                            x       y       z     vdW  Elec       q    Type
                         _______ _______ _______ _____ _____    ______ ____

>  <TORSDO>
F 5

$$$$
=
 OpenBabel11032419183D

 25 27  0  0  1  0  0  0  0  0999 V2000
  187.9060  178.5560  141.7860 C   0  0  0  0  0  2  0  0  0  0  0  0
  191.0780  177.2560  138.5760 O   0  0  0  0  0  0  0  0  0  0  0  0
  189.9760  176.6140  141.0820 C   0  0  0  0  0  2  0  0  0  0  0  0
  188.4330  177.5550  142.8220 C   0  0  0  0  0  3  0  0  0  0  0  0
  187.9690  177.9500  140.3880 C   0  0  0  0  0  2  0  0  0  0  0  0
  189.8920  177.2350  142.4720 C   0  0  0  0  0  2  0  0  0  0  0  0
  189.9420  177.7360  138.8350 C   0  0  0  0  0  0  0  0  0  0  0  0
  189.3290  177.4920  140.1100 N   0  0  0  0  0  0  0  0  0  0  0  0
  190.8820  176.7950  146.3830 C   0  0  0  0  0  0  0  0  0  0  0  0
  190.3450  177.2720  145.2900 N   0  0  0  0  0  0  0  0  0  0  0  0
  188.3080  178.1190  144.1820 N   0  0  1  0  0  0  0  0  0  0  0  0
  192.2300  176.7150  146.4970 F   0  0  0  0  0  0  0  0  0  0  0  0
  186.8670  177.8690  146.1580 C   0  0  1  0  0  3  0  0  0  0  0  0
  188.7870  176.7850  147.5420 C   0  0  0  0  0  3  0  0  0  0  0  0
  188.3210  177.7260  146.4770 C   0  0  1  0  0  3  0  0  0  0  0  0
  186.2750  179.0140  146.9540 C   0  0  0  0  0  1  0  0  0  0  0  0
  190.0340  176.3970  147.4910 N   0  0  0  0  0  0  0  0  0  0  0  0
  185.9030  177.2970  143.9560 C   0  0  0  0  0  1  0  0  0  0  0  0
  186.8930  178.2270  144.6620 C   0  0  2  0  0  3  0  0  0  0  0  0
  188.8860  177.2380  145.1870 C   0  0  2  0  0  3  0  0  0  0  0  0
  189.2750  178.5940  137.8130 C   0  0  0  0  0  2  0  0  0  0  0  0
  188.6590  177.7560  136.7980 N   0  0  0  0  0  2  0  0  0  0  0  0
  187.4760  178.4550  136.3270 C   0  0  0  0  0  2  0  0  0  0  0  0
  185.6580  177.7470  137.3560 C   0  0  0  0  0  1  0  0  0  0  0  0
  186.6360  178.7390  137.4050 O   0  0  0  0  0  0  0  0  0  0  0  0
  1  4  1  0  0  0  0
  2  7  2  0  0  0  0
  3  6  1  0  0  0  0
  5  1  1  0  0  0  0
  6  4  1  0  0  0  0
  7  8  1  0  0  0  0
  8  5  1  0  0  0  0
  8  3  1  0  0  0  0
  9 12  1  0  0  0  0
  9 17  1  0  0  0  0
 10  9  2  0  0  0  0
 11  4  1  6  0  0  0
 11 19  1  0  0  0  0
 11 20  1  0  0  0  0
 13 15  1  0  0  0  0
 13 16  1  1  0  0  0
 15 14  1  1  0  0  0
 17 14  2  0  0  0  0
 19 18  1  6  0  0  0
 19 13  1  0  0  0  0
 20 10  1  1  0  0  0
 20 15  1  0  0  0  0
 21  7  1  0  0  0  0
 22 21  1  0  0  0  0
 23 22  1  0  0  0  0
 23 25  1  0  0  0  0
 24 25  1  0  0  0  0
M  END
>  <MODEL>
7

>  <REMARK>
 VINA RESULT:      -7.0      2.637      4.256
  Name = 
  5 active torsions:
  status: ('A' for Active; 'I' for Inactive)
    1  A    between atoms: N_4  and  C_15
    2  A    between atoms: O_8  and  C_16
    3  A    between atoms: C_10  and  N_12
    4  A    between atoms: C_10  and  C_23
    5  A    between atoms: N_12  and  C_16
                            x       y       z     vdW  Elec       q    Type
                         _______ _______ _______ _____ _____    ______ ____

>  <TORSDO>
F 5

$$$$
=
 OpenBabel11032419183D

 25 27  0  0  1  0  0  0  0  0999 V2000
  188.1370  177.5510  143.8000 C   0  0  0  0  0  2  0  0  0  0  0  0
  184.0420  179.2350  145.3660 O   0  0  0  0  0  0  0  0  0  0  0  0
  185.3960  178.2830  143.0930 C   0  0  0  0  0  2  0  0  0  0  0  0
  187.6980  177.6390  142.3340 C   0  0  0  0  0  3  0  0  0  0  0  0
  186.9630  177.1310  144.6780 C   0  0  0  0  0  2  0  0  0  0  0  0
  186.5880  178.6920  142.2340 C   0  0  0  0  0  2  0  0  0  0  0  0
  185.0650  178.5270  145.5700 C   0  0  0  0  0  0  0  0  0  0  0  0
  185.8380  178.0390  144.4640 N   0  0  0  0  0  0  0  0  0  0  0  0
  187.8780  178.1530  137.9790 C   0  0  0  0  0  0  0  0  0  0  0  0
  187.7920  178.3160  139.2740 N   0  0  0  0  0  0  0  0  0  0  0  0
  188.8540  177.9800  141.4770 N   0  0  1  0  0  0  0  0  0  0  0  0
  187.0240  178.8090  137.1550 F   0  0  0  0  0  0  0  0  0  0  0  0
  190.8710  176.8980  140.5840 C   0  0  1  0  0  3  0  0  0  0  0  0
  189.9450  176.9580  138.1510 C   0  0  0  0  0  3  0  0  0  0  0  0
  190.0420  177.5480  139.5220 C   0  0  1  0  0  3  0  0  0  0  0  0
  192.2610  177.5030  140.5930 C   0  0  0  0  0  1  0  0  0  0  0  0
  188.9170  177.3080  137.4230 N   0  0  0  0  0  0  0  0  0  0  0  0
  189.9240  176.0020  142.6820 C   0  0  0  0  0  1  0  0  0  0  0  0
  190.1210  177.2840  141.8690 C   0  0  2  0  0  3  0  0  0  0  0  0
  188.6750  177.5050  140.1130 C   0  0  2  0  0  3  0  0  0  0  0  0
  185.4770  178.2500  146.9770 C   0  0  0  0  0  2  0  0  0  0  0  0
  186.6750  179.0080  147.2950 N   0  0  0  0  0  2  0  0  0  0  0  0
  187.5390  178.1380  148.0740 C   0  0  0  0  0  2  0  0  0  0  0  0
  189.2790  176.9380  147.4450 C   0  0  0  0  0  1  0  0  0  0  0  0
  188.8540  178.2540  147.6230 O   0  0  0  0  0  0  0  0  0  0  0  0
  1  5  1  0  0  0  0
  2  7  2  0  0  0  0
  3  8  1  0  0  0  0
  4  1  1  0  0  0  0
  6  4  1  0  0  0  0
  6  3  1  0  0  0  0
  7 21  1  0  0  0  0
  8  5  1  0  0  0  0
  8  7  1  0  0  0  0
  9 10  2  0  0  0  0
 11 19  1  0  0  0  0
 11  4  1  1  0  0  0
 12  9  1  0  0  0  0
 13 16  1  1  0  0  0
 13 19  1  0  0  0  0
 15 14  1  6  0  0  0
 15 20  1  0  0  0  0
 15 13  1  0  0  0  0
 17  9  1  0  0  0  0
 17 14  2  0  0  0  0
 19 18  1  6  0  0  0
 20 10  1  6  0  0  0
 20 11  1  0  0  0  0
 21 22  1  0  0  0  0
 22 23  1  0  0  0  0
 24 25  1  0  0  0  0
 25 23  1  0  0  0  0
M  END
>  <MODEL>
8

>  <REMARK>
 VINA RESULT:      -7.0      3.608      7.435
  Name = 
  5 active torsions:
  status: ('A' for Active; 'I' for Inactive)
    1  A    between atoms: N_4  and  C_15
    2  A    between atoms: O_8  and  C_16
    3  A    between atoms: C_10  and  N_12
    4  A    between atoms: C_10  and  C_23
    5  A    between atoms: N_12  and  C_16
                            x       y       z     vdW  Elec       q    Type
                         _______ _______ _______ _____ _____    ______ ____

>  <TORSDO>
F 5

$$$$
=
 OpenBabel11032419183D

 25 27  0  0  1  0  0  0  0  0999 V2000
  187.1370  177.5710  142.7300 C   0  0  0  0  0  2  0  0  0  0  0  0
  182.6400  178.9160  142.8940 O   0  0  0  0  0  0  0  0  0  0  0  0
  185.1220  179.0970  144.2020 C   0  0  0  0  0  2  0  0  0  0  0  0
  187.4270  178.1060  144.1370 C   0  0  0  0  0  3  0  0  0  0  0  0
  186.1700  178.4990  142.0020 C   0  0  0  0  0  2  0  0  0  0  0  0
  186.1000  178.1610  144.9050 C   0  0  0  0  0  2  0  0  0  0  0  0
  183.6640  178.6600  142.2050 C   0  0  0  0  0  0  0  0  0  0  0  0
  184.9650  178.6870  142.8080 N   0  0  0  0  0  0  0  0  0  0  0  0
  188.2850  177.6930  148.4210 C   0  0  0  0  0  0  0  0  0  0  0  0
  187.8460  177.5620  147.1960 N   0  0  0  0  0  0  0  0  0  0  0  0
  188.4150  177.2410  144.8160 N   0  0  1  0  0  0  0  0  0  0  0  0
  187.4240  177.5950  149.4640 F   0  0  0  0  0  0  0  0  0  0  0  0
  190.8440  177.1530  145.1840 C   0  0  1  0  0  3  0  0  0  0  0  0
  190.5750  177.6460  147.7260 C   0  0  0  0  0  3  0  0  0  0  0  0
  190.0590  177.0530  146.4540 C   0  0  1  0  0  3  0  0  0  0  0  0
  191.7060  175.9190  145.0130 C   0  0  0  0  0  1  0  0  0  0  0  0
  189.7000  177.8970  148.6640 N   0  0  0  0  0  0  0  0  0  0  0  0
  190.0300  178.3510  143.1820 C   0  0  0  0  0  1  0  0  0  0  0  0
  189.7370  177.1740  144.1160 C   0  0  2  0  0  3  0  0  0  0  0  0
  188.8040  177.7790  146.1120 C   0  0  2  0  0  3  0  0  0  0  0  0
  183.4890  178.2870  140.7710 C   0  0  0  0  0  2  0  0  0  0  0  0
  184.0090  179.3470  139.9230 N   0  0  0  0  0  2  0  0  0  0  0  0
  184.3870  178.7370  138.6590 C   0  0  0  0  0  2  0  0  0  0  0  0
  186.2480  177.8060  137.9290 C   0  0  0  0  0  1  0  0  0  0  0  0
  185.7270  179.0150  138.3850 O   0  0  0  0  0  0  0  0  0  0  0  0
  1  4  1  0  0  0  0
  3  6  1  0  0  0  0
  4  6  1  0  0  0  0
  5  1  1  0  0  0  0
  5  8  1  0  0  0  0
  7  8  1  0  0  0  0
  7  2  2  0  0  0  0
  8  3  1  0  0  0  0
  9 17  1  0  0  0  0
  9 12  1  0  0  0  0
 10  9  2  0  0  0  0
 11  4  1  6  0  0  0
 11 20  1  0  0  0  0
 13 16  1  6  0  0  0
 13 15  1  0  0  0  0
 14 17  2  0  0  0  0
 15 14  1  1  0  0  0
 19 18  1  6  0  0  0
 19 11  1  0  0  0  0
 19 13  1  0  0  0  0
 20 15  1  0  0  0  0
 20 10  1  1  0  0  0
 21  7  1  0  0  0  0
 22 21  1  0  0  0  0
 23 22  1  0  0  0  0
 24 25  1  0  0  0  0
 25 23  1  0  0  0  0
M  END
>  <MODEL>
9

>  <REMARK>
 VINA RESULT:      -6.8      3.838      5.333
  Name = 
  5 active torsions:
  status: ('A' for Active; 'I' for Inactive)
    1  A    between atoms: N_4  and  C_15
    2  A    between atoms: O_8  and  C_16
    3  A    between atoms: C_10  and  N_12
    4  A    between atoms: C_10  and  C_23
    5  A    between atoms: N_12  and  C_16
                            x       y       z     vdW  Elec       q    Type
                         _______ _______ _______ _____ _____    ______ ____

>  <TORSDO>
F 5

$$$$
