=
 OpenBabel11032421293D

 26 29  0  0  1  0  0  0  0  0999 V2000
  186.8580  178.3560  139.7400 O   0  0  0  0  0  0  0  0  0  0  0  0
  190.8590  176.5550  138.1400 N   0  0  0  0  0  1  0  0  0  0  0  0
  186.4850  178.4660  142.1840 C   0  0  0  0  0  0  0  0  0  0  0  0
  184.6120  178.5510  140.6050 C   0  0  0  0  0  0  0  0  0  0  0  0
  190.4480  177.2490  140.8390 S   0  0  0  0  0  0  0  0  0  0  0  0
  185.9940  178.4770  140.8440 C   0  0  0  0  0  0  0  0  0  0  0  0
  188.9550  177.8160  138.7440 N   0  0  0  0  0  2  0  0  0  0  0  0
  190.0740  177.2700  139.0850 C   0  0  2  0  0  3  0  0  0  0  0  0
  188.6740  177.5390  141.0680 C   0  0  1  0  0  3  0  0  0  0  0  0
  188.2760  178.5340  142.5170 S   0  0  0  0  0  0  0  0  0  0  0  0
  185.5610  178.4620  143.2610 C   0  0  0  0  0  0  0  0  0  0  0  0
  188.2690  178.3780  139.8880 C   0  0  2  0  0  3  0  0  0  0  0  0
  184.1910  178.5470  142.9890 C   0  0  0  0  0  3  0  0  0  0  0  0
  183.7200  178.5970  141.6810 C   0  0  0  0  0  3  0  0  0  0  0  0
  186.6650  178.2260  147.3710 C   0  0  0  0  0  3  0  0  0  0  0  0
  185.7420  179.1300  146.9460 N   0  0  0  0  0  0  0  0  0  0  0  0
  185.3880  179.2230  145.6360 C   0  0  0  0  0  3  0  0  0  0  0  0
  185.9790  178.3880  144.6790 C   0  0  0  0  0  0  0  0  0  0  0  0
  186.9190  177.4430  145.1090 C   0  0  0  0  0  3  0  0  0  0  0  0
  187.2700  177.3620  146.4570 C   0  0  0  0  0  3  0  0  0  0  0  0
  184.0970  178.5840  139.1940 C   0  0  2  0  0  3  0  0  0  0  0  0
  183.3250  179.8370  138.9210 C   0  0  0  0  0  0  0  0  0  0  0  0
  183.9310  180.9360  138.8340 O   0  0  0  0  0  1  0  0  0  0  0  0
  181.9420  179.8000  138.7890 O   0  0  0  0  0  0  0  0  0  0  0  0
  183.2910  177.3350  138.8620 C   0  0  0  0  0  2  0  0  0  0  0  0
  183.9750  176.5540  137.8460 N   0  0  0  0  0  1  0  0  0  0  0  0
  1 12  1  0  0  0  0
  1  6  1  0  0  0  0
  3 10  1  0  0  0  0
  3 11  1  0  0  0  0
  4  6  1  0  0  0  0
  4 14  2  0  0  0  0
  6  3  2  0  0  0  0
  7  8  1  0  0  0  0
  8  2  1  1  0  0  0
  8  5  1  0  0  0  0
  9  5  1  6  0  0  0
  9 10  1  0  0  0  0
 11 18  1  0  0  0  0
 12  7  1  6  0  0  0
 12  9  1  0  0  0  0
 13 11  2  0  0  0  0
 14 13  1  0  0  0  0
 16 15  1  0  0  0  0
 17 16  2  0  0  0  0
 18 19  2  0  0  0  0
 18 17  1  0  0  0  0
 19 20  1  0  0  0  0
 20 15  2  0  0  0  0
 21 25  1  1  0  0  0
 21  4  1  0  0  0  0
 22 21  1  0  0  0  0
 23 22  1  0  0  0  0
 24 22  2  0  0  0  0
 26 25  1  0  0  0  0
M  END
>  <MODEL>
1

>  <REMARK>
 VINA RESULT:      -7.8      0.000      0.000
  Name = 
  4 active torsions:
  status: ('A' for Active; 'I' for Inactive)
    1  A    between atoms: C_1  and  C_22
    2  A    between atoms: C_8  and  C_23
    3  A    between atoms: C_9  and  C_22
    4  A    between atoms: C_13  and  C_22
                            x       y       z     vdW  Elec       q    Type
                         _______ _______ _______ _____ _____    ______ ____

>  <TORSDO>
F 4

$$$$
=
 OpenBabel11032421293D

 26 29  0  0  1  0  0  0  0  0999 V2000
  186.7820  178.5320  141.5300 O   0  0  0  0  0  0  0  0  0  0  0  0
  188.1900  177.4950  137.1990 N   0  0  0  0  0  1  0  0  0  0  0  0
  188.2040  177.8690  143.4440 C   0  0  0  0  0  0  0  0  0  0  0  0
  185.8180  178.3480  143.7370 C   0  0  0  0  0  0  0  0  0  0  0  0
  189.8670  177.3080  139.4540 S   0  0  0  0  0  0  0  0  0  0  0  0
  186.9450  178.2680  142.9030 C   0  0  0  0  0  0  0  0  0  0  0  0
  187.4870  178.4210  139.2560 N   0  0  0  0  0  2  0  0  0  0  0  0
  188.4100  177.8490  138.5580 C   0  0  2  0  0  3  0  0  0  0  0  0
  188.8210  177.4320  140.9290 C   0  0  1  0  0  3  0  0  0  0  0  0
  189.7110  177.9140  142.4190 S   0  0  0  0  0  0  0  0  0  0  0  0
  188.2840  177.4930  144.8090 C   0  0  0  0  0  0  0  0  0  0  0  0
  187.8850  178.5720  140.6390 C   0  0  2  0  0  3  0  0  0  0  0  0
  187.1440  177.5930  145.6150 C   0  0  0  0  0  3  0  0  0  0  0  0
  185.9290  178.0200  145.0910 C   0  0  0  0  0  3  0  0  0  0  0  0
  191.9330  176.1670  146.5680 C   0  0  0  0  0  3  0  0  0  0  0  0
  191.7610  176.1520  145.2190 N   0  0  0  0  0  0  0  0  0  0  0  0
  190.5990  176.5630  144.6440 C   0  0  0  0  0  3  0  0  0  0  0  0
  189.5320  177.0070  145.4380 C   0  0  0  0  0  0  0  0  0  0  0  0
  189.7050  177.0410  146.8280 C   0  0  0  0  0  3  0  0  0  0  0  0
  190.9050  176.6160  147.3990 C   0  0  0  0  0  3  0  0  0  0  0  0
  184.4980  178.7880  143.1700 C   0  0  2  0  0  3  0  0  0  0  0  0
  183.4430  178.8620  144.2300 C   0  0  0  0  0  0  0  0  0  0  0  0
  182.2640  178.5180  143.9600 O   0  0  0  0  0  0  0  0  0  0  0  0
  183.7510  179.3330  145.5020 O   0  0  0  0  0  1  0  0  0  0  0  0
  184.0700  177.9110  142.0000 C   0  0  0  0  0  2  0  0  0  0  0  0
  183.5820  178.7370  140.9090 N   0  0  0  0  0  1  0  0  0  0  0  0
  1  6  1  0  0  0  0
  3 11  1  0  0  0  0
  4 14  2  0  0  0  0
  6  3  2  0  0  0  0
  6  4  1  0  0  0  0
  8  2  1  1  0  0  0
  8  7  1  0  0  0  0
  8  5  1  0  0  0  0
  9  5  1  6  0  0  0
  9 10  1  0  0  0  0
 10  3  1  0  0  0  0
 11 18  1  0  0  0  0
 11 13  2  0  0  0  0
 12  7  1  6  0  0  0
 12  9  1  0  0  0  0
 12  1  1  0  0  0  0
 14 13  1  0  0  0  0
 15 20  1  0  0  0  0
 16 15  2  0  0  0  0
 17 16  1  0  0  0  0
 17 18  2  0  0  0  0
 18 19  1  0  0  0  0
 19 20  2  0  0  0  0
 21 25  1  6  0  0  0
 21  4  1  0  0  0  0
 21 22  1  0  0  0  0
 22 24  1  0  0  0  0
 23 22  2  0  0  0  0
 26 25  1  0  0  0  0
M  END
>  <MODEL>
2

>  <REMARK>
 VINA RESULT:      -7.7      2.958      3.920
  Name = 
  4 active torsions:
  status: ('A' for Active; 'I' for Inactive)
    1  A    between atoms: C_1  and  C_22
    2  A    between atoms: C_8  and  C_23
    3  A    between atoms: C_9  and  C_22
    4  A    between atoms: C_13  and  C_22
                            x       y       z     vdW  Elec       q    Type
                         _______ _______ _______ _____ _____    ______ ____

>  <TORSDO>
F 4

$$$$
=
 OpenBabel11032421293D

 26 29  0  0  1  0  0  0  0  0999 V2000
  190.7350  176.8530  144.4560 O   0  0  0  0  0  0  0  0  0  0  0  0
  192.4730  177.5540  140.1780 N   0  0  0  0  0  1  0  0  0  0  0  0
  188.3600  177.3980  144.8890 C   0  0  0  0  0  0  0  0  0  0  0  0
  189.9820  177.2330  146.7190 C   0  0  0  0  0  0  0  0  0  0  0  0
  189.7160  177.6080  140.7520 S   0  0  0  0  0  0  0  0  0  0  0  0
  189.6860  177.1410  145.3490 C   0  0  0  0  0  0  0  0  0  0  0  0
  191.7030  176.7960  142.2790 N   0  0  0  0  0  2  0  0  0  0  0  0
  191.4350  177.2230  141.0910 C   0  0  2  0  0  3  0  0  0  0  0  0
  189.5300  177.6670  142.5540 C   0  0  1  0  0  3  0  0  0  0  0  0
  187.9150  177.1280  143.1420 S   0  0  0  0  0  0  0  0  0  0  0  0
  187.3700  177.8080  145.8190 C   0  0  0  0  0  0  0  0  0  0  0  0
  190.5030  176.6440  143.0720 C   0  0  2  0  0  3  0  0  0  0  0  0
  187.6950  177.8790  147.1790 C   0  0  0  0  0  3  0  0  0  0  0  0
  188.9800  177.5910  147.6260 C   0  0  0  0  0  3  0  0  0  0  0  0
  183.4010  178.9030  144.7180 C   0  0  0  0  0  3  0  0  0  0  0  0
  183.7880  178.8970  146.0220 N   0  0  0  0  0  0  0  0  0  0  0  0
  185.0480  178.5400  146.3890 C   0  0  0  0  0  3  0  0  0  0  0  0
  185.9870  178.1550  145.4220 C   0  0  0  0  0  0  0  0  0  0  0  0
  185.6030  178.1740  144.0750 C   0  0  0  0  0  3  0  0  0  0  0  0
  184.3050  178.5430  143.7180 C   0  0  0  0  0  3  0  0  0  0  0  0
  191.3740  176.9420  147.2040 C   0  0  2  0  0  3  0  0  0  0  0  0
  191.6670  175.4750  147.1810 C   0  0  0  0  0  0  0  0  0  0  0  0
  191.0040  174.6950  147.9120 O   0  0  0  0  0  1  0  0  0  0  0  0
  192.6840  174.9700  146.3790 O   0  0  0  0  0  0  0  0  0  0  0  0
  191.6270  177.5520  148.5780 C   0  0  0  0  0  2  0  0  0  0  0  0
  192.8890  177.0700  149.1130 N   0  0  0  0  0  1  0  0  0  0  0  0
  1  6  1  0  0  0  0
  3  6  2  0  0  0  0
  3 11  1  0  0  0  0
  4 21  1  0  0  0  0
  4 14  2  0  0  0  0
  5  8  1  0  0  0  0
  6  4  1  0  0  0  0
  8  2  1  1  0  0  0
  8  7  1  0  0  0  0
  9  5  1  6  0  0  0
  9 12  1  0  0  0  0
  9 10  1  0  0  0  0
 10  3  1  0  0  0  0
 11 13  2  0  0  0  0
 12  7  1  6  0  0  0
 12  1  1  0  0  0  0
 13 14  1  0  0  0  0
 15 16  1  0  0  0  0
 16 17  2  0  0  0  0
 18 11  1  0  0  0  0
 18 17  1  0  0  0  0
 19 18  2  0  0  0  0
 20 19  1  0  0  0  0
 20 15  2  0  0  0  0
 21 25  1  1  0  0  0
 22 21  1  0  0  0  0
 22 23  1  0  0  0  0
 24 22  2  0  0  0  0
 25 26  1  0  0  0  0
M  END
>  <MODEL>
3

>  <REMARK>
 VINA RESULT:      -7.6      4.297      7.284
  Name = 
  4 active torsions:
  status: ('A' for Active; 'I' for Inactive)
    1  A    between atoms: C_1  and  C_22
    2  A    between atoms: C_8  and  C_23
    3  A    between atoms: C_9  and  C_22
    4  A    between atoms: C_13  and  C_22
                            x       y       z     vdW  Elec       q    Type
                         _______ _______ _______ _____ _____    ______ ____

>  <TORSDO>
F 4

$$$$
=
 OpenBabel11032421293D

 26 29  0  0  1  0  0  0  0  0999 V2000
  187.6050  177.5510  143.7870 O   0  0  0  0  0  0  0  0  0  0  0  0
  189.3460  177.8770  148.1080 N   0  0  0  0  0  1  0  0  0  0  0  0
  189.1590  177.2120  141.8900 C   0  0  0  0  0  0  0  0  0  0  0  0
  186.9060  178.1130  141.5440 C   0  0  0  0  0  0  0  0  0  0  0  0
  190.8510  176.9840  145.9010 S   0  0  0  0  0  0  0  0  0  0  0  0
  187.8890  177.6040  142.4090 C   0  0  0  0  0  0  0  0  0  0  0  0
  188.2520  177.3800  146.0740 N   0  0  0  0  0  2  0  0  0  0  0  0
  189.3360  177.3860  146.7740 C   0  0  2  0  0  3  0  0  0  0  0  0
  189.9120  177.3760  144.4010 C   0  0  1  0  0  3  0  0  0  0  0  0
  190.3900  176.4010  142.9630 S   0  0  0  0  0  0  0  0  0  0  0  0
  189.4360  177.4060  140.5120 C   0  0  0  0  0  0  0  0  0  0  0  0
  188.5020  176.9580  144.7130 C   0  0  2  0  0  3  0  0  0  0  0  0
  188.4310  177.9060  139.6760 C   0  0  0  0  0  3  0  0  0  0  0  0
  187.1820  178.2500  140.1800 C   0  0  0  0  0  3  0  0  0  0  0  0
  193.1800  176.5420  138.6680 C   0  0  0  0  0  3  0  0  0  0  0  0
  192.0120  176.1240  138.1090 N   0  0  0  0  0  0  0  0  0  0  0  0
  190.8110  176.3840  138.6920 C   0  0  0  0  0  3  0  0  0  0  0  0
  190.7460  177.0880  139.9020 C   0  0  0  0  0  0  0  0  0  0  0  0
  191.9420  177.5370  140.4770 C   0  0  0  0  0  3  0  0  0  0  0  0
  193.1650  177.2610  139.8640 C   0  0  0  0  0  3  0  0  0  0  0  0
  185.5620  178.5050  142.0880 C   0  0  2  0  0  3  0  0  0  0  0  0
  184.5510  178.6580  140.9950 C   0  0  0  0  0  0  0  0  0  0  0  0
  183.6690  177.7760  140.8340 O   0  0  0  0  0  1  0  0  0  0  0  0
  184.5950  179.7530  140.1390 O   0  0  0  0  0  0  0  0  0  0  0  0
  185.6520  179.7530  142.9580 C   0  0  0  0  0  2  0  0  0  0  0  0
  184.5740  179.7610  143.9320 N   0  0  0  0  0  1  0  0  0  0  0  0
  3  6  1  0  0  0  0
  3 10  1  0  0  0  0
  4 21  1  0  0  0  0
  4  6  2  0  0  0  0
  5  8  1  0  0  0  0
  6  1  1  0  0  0  0
  7  8  1  0  0  0  0
  8  2  1  6  0  0  0
  9 10  1  6  0  0  0
  9 12  1  0  0  0  0
  9  5  1  0  0  0  0
 11  3  2  0  0  0  0
 12  1  1  6  0  0  0
 12  7  1  0  0  0  0
 13 14  2  0  0  0  0
 13 11  1  0  0  0  0
 14  4  1  0  0  0  0
 15 20  1  0  0  0  0
 16 15  2  0  0  0  0
 16 17  1  0  0  0  0
 17 18  2  0  0  0  0
 18 19  1  0  0  0  0
 18 11  1  0  0  0  0
 20 19  2  0  0  0  0
 21 25  1  6  0  0  0
 22 21  1  0  0  0  0
 23 22  1  0  0  0  0
 24 22  2  0  0  0  0
 25 26  1  0  0  0  0
M  END
>  <MODEL>
4

>  <REMARK>
 VINA RESULT:      -7.0      2.499      6.261
  Name = 
  4 active torsions:
  status: ('A' for Active; 'I' for Inactive)
    1  A    between atoms: C_1  and  C_22
    2  A    between atoms: C_8  and  C_23
    3  A    between atoms: C_9  and  C_22
    4  A    between atoms: C_13  and  C_22
                            x       y       z     vdW  Elec       q    Type
                         _______ _______ _______ _____ _____    ______ ____

>  <TORSDO>
F 4

$$$$
=
 OpenBabel11032421293D

 26 29  0  0  1  0  0  0  0  0999 V2000
  187.5180  177.4960  144.4730 O   0  0  0  0  0  0  0  0  0  0  0  0
  191.5040  177.1260  146.8780 N   0  0  0  0  0  1  0  0  0  0  0  0
  187.6210  177.7680  142.0150 C   0  0  0  0  0  0  0  0  0  0  0  0
  185.6310  178.4250  143.2850 C   0  0  0  0  0  0  0  0  0  0  0  0
  191.3690  176.9180  144.0730 S   0  0  0  0  0  0  0  0  0  0  0  0
  186.9230  177.8750  143.2550 C   0  0  0  0  0  0  0  0  0  0  0  0
  189.3990  176.9320  145.8220 N   0  0  0  0  0  2  0  0  0  0  0  0
  190.6870  176.9300  145.7310 C   0  0  2  0  0  3  0  0  0  0  0  0
  189.7300  177.4940  143.5570 C   0  0  1  0  0  3  0  0  0  0  0  0
  189.2300  176.9130  141.9270 S   0  0  0  0  0  0  0  0  0  0  0  0
  187.0240  178.2820  140.8360 C   0  0  0  0  0  0  0  0  0  0  0  0
  188.7760  176.8420  144.5200 C   0  0  2  0  0  3  0  0  0  0  0  0
  185.7310  178.8130  140.8990 C   0  0  0  0  0  3  0  0  0  0  0  0
  185.0400  178.8800  142.1030 C   0  0  0  0  0  3  0  0  0  0  0  0
  189.0440  178.1780  137.0840 C   0  0  0  0  0  3  0  0  0  0  0  0
  189.6900  178.5710  138.2150 N   0  0  0  0  0  0  0  0  0  0  0  0
  189.0550  178.6180  139.4170 C   0  0  0  0  0  3  0  0  0  0  0  0
  187.7010  178.2700  139.5200 C   0  0  0  0  0  0  0  0  0  0  0  0
  187.0320  177.8490  138.3640 C   0  0  0  0  0  3  0  0  0  0  0  0
  187.7000  177.8060  137.1390 C   0  0  0  0  0  3  0  0  0  0  0  0
  184.8880  178.5180  144.5880 C   0  0  2  0  0  3  0  0  0  0  0  0
  183.5170  179.0870  144.3980 C   0  0  0  0  0  0  0  0  0  0  0  0
  183.3670  180.3330  144.3120 O   0  0  0  0  0  0  0  0  0  0  0  0
  182.4060  178.2530  144.3430 O   0  0  0  0  0  1  0  0  0  0  0  0
  185.6850  179.2880  145.6340 C   0  0  0  0  0  2  0  0  0  0  0  0
  185.2740  178.8890  146.9690 N   0  0  0  0  0  1  0  0  0  0  0  0
  3  6  1  0  0  0  0
  4 21  1  0  0  0  0
  5  8  1  0  0  0  0
  6  4  2  0  0  0  0
  6  1  1  0  0  0  0
  8  7  1  0  0  0  0
  8  2  1  6  0  0  0
  9 10  1  6  0  0  0
  9  5  1  0  0  0  0
  9 12  1  0  0  0  0
 10  3  1  0  0  0  0
 11 13  1  0  0  0  0
 11  3  2  0  0  0  0
 12  1  1  1  0  0  0
 12  7  1  0  0  0  0
 13 14  2  0  0  0  0
 14  4  1  0  0  0  0
 15 20  2  0  0  0  0
 15 16  1  0  0  0  0
 16 17  2  0  0  0  0
 17 18  1  0  0  0  0
 18 11  1  0  0  0  0
 19 18  2  0  0  0  0
 20 19  1  0  0  0  0
 21 25  1  1  0  0  0
 22 21  1  0  0  0  0
 23 22  2  0  0  0  0
 24 22  1  0  0  0  0
 25 26  1  0  0  0  0
M  END
>  <MODEL>
5

>  <REMARK>
 VINA RESULT:      -7.0      2.870      6.095
  Name = 
  4 active torsions:
  status: ('A' for Active; 'I' for Inactive)
    1  A    between atoms: C_1  and  C_22
    2  A    between atoms: C_8  and  C_23
    3  A    between atoms: C_9  and  C_22
    4  A    between atoms: C_13  and  C_22
                            x       y       z     vdW  Elec       q    Type
                         _______ _______ _______ _____ _____    ______ ____

>  <TORSDO>
F 4

$$$$
=
 OpenBabel11032421293D

 26 29  0  0  1  0  0  0  0  0999 V2000
  187.1060  178.5570  140.5110 O   0  0  0  0  0  0  0  0  0  0  0  0
  190.0860  177.0410  137.2510 N   0  0  0  0  0  1  0  0  0  0  0  0
  187.6310  178.1560  142.8970 C   0  0  0  0  0  0  0  0  0  0  0  0
  185.3400  178.6170  142.1590 C   0  0  0  0  0  0  0  0  0  0  0  0
  190.7250  177.1570  139.9920 S   0  0  0  0  0  0  0  0  0  0  0  0
  186.7030  178.4620  141.8570 C   0  0  0  0  0  0  0  0  0  0  0  0
  188.6520  178.1910  138.7360 N   0  0  0  0  0  2  0  0  0  0  0  0
  189.7600  177.5580  138.5350 C   0  0  2  0  0  3  0  0  0  0  0  0
  189.1830  177.4350  140.9040 C   0  0  1  0  0  3  0  0  0  0  0  0
  189.4230  178.1090  142.5580 S   0  0  0  0  0  0  0  0  0  0  0  0
  187.1520  177.9460  144.2150 C   0  0  0  0  0  0  0  0  0  0  0  0
  188.4730  178.5130  140.1340 C   0  0  2  0  0  3  0  0  0  0  0  0
  185.7900  178.1180  144.4840 C   0  0  0  0  0  3  0  0  0  0  0  0
  184.8950  178.4550  143.4740 C   0  0  0  0  0  3  0  0  0  0  0  0
  189.6280  176.7630  147.4770 C   0  0  0  0  0  3  0  0  0  0  0  0
  188.3230  177.0930  147.6740 N   0  0  0  0  0  0  0  0  0  0  0  0
  187.5240  177.4820  146.6440 C   0  0  0  0  0  3  0  0  0  0  0  0
  188.0340  177.5630  145.3400 C   0  0  0  0  0  0  0  0  0  0  0  0
  189.3720  177.2080  145.1250 C   0  0  0  0  0  3  0  0  0  0  0  0
  190.1760  176.8120  146.1940 C   0  0  0  0  0  3  0  0  0  0  0  0
  184.3670  178.9600  141.0670 C   0  0  2  0  0  3  0  0  0  0  0  0
  183.1370  178.1100  141.1420 C   0  0  0  0  0  0  0  0  0  0  0  0
  183.1090  177.0020  140.5480 O   0  0  0  0  0  0  0  0  0  0  0  0
  182.0170  178.5480  141.8400 O   0  0  0  0  0  1  0  0  0  0  0  0
  185.0220  178.8950  139.6920 C   0  0  0  0  0  2  0  0  0  0  0  0
  184.5140  179.9610  138.8470 N   0  0  0  0  0  1  0  0  0  0  0  0
  1  6  1  0  0  0  0
  3 11  1  0  0  0  0
  4 14  2  0  0  0  0
  6  4  1  0  0  0  0
  6  3  2  0  0  0  0
  8  2  1  1  0  0  0
  8  7  1  0  0  0  0
  8  5  1  0  0  0  0
  9  5  1  6  0  0  0
  9 10  1  0  0  0  0
 10  3  1  0  0  0  0
 11 13  2  0  0  0  0
 11 18  1  0  0  0  0
 12  7  1  6  0  0  0
 12  1  1  0  0  0  0
 12  9  1  0  0  0  0
 14 13  1  0  0  0  0
 15 16  1  0  0  0  0
 17 16  2  0  0  0  0
 18 17  1  0  0  0  0
 19 18  2  0  0  0  0
 19 20  1  0  0  0  0
 20 15  2  0  0  0  0
 21 25  1  6  0  0  0
 21 22  1  0  0  0  0
 21  4  1  0  0  0  0
 22 24  1  0  0  0  0
 23 22  2  0  0  0  0
 26 25  1  0  0  0  0
M  END
>  <MODEL>
6

>  <REMARK>
 VINA RESULT:      -6.9      1.797      2.297
  Name = 
  4 active torsions:
  status: ('A' for Active; 'I' for Inactive)
    1  A    between atoms: C_1  and  C_22
    2  A    between atoms: C_8  and  C_23
    3  A    between atoms: C_9  and  C_22
    4  A    between atoms: C_13  and  C_22
                            x       y       z     vdW  Elec       q    Type
                         _______ _______ _______ _____ _____    ______ ____

>  <TORSDO>
F 4

$$$$
=
 OpenBabel11032421293D

 26 29  0  0  1  0  0  0  0  0999 V2000
  190.0040  176.9620  143.3570 O   0  0  0  0  0  0  0  0  0  0  0  0
  193.4620  177.4840  140.2630 N   0  0  0  0  0  1  0  0  0  0  0  0
  187.7050  177.6110  142.7080 C   0  0  0  0  0  0  0  0  0  0  0  0
  188.3590  177.4290  145.0630 C   0  0  0  0  0  0  0  0  0  0  0  0
  190.7370  177.6620  139.5760 S   0  0  0  0  0  0  0  0  0  0  0  0
  188.6850  177.3140  143.7020 C   0  0  0  0  0  0  0  0  0  0  0  0
  191.8200  176.8110  141.8220 N   0  0  0  0  0  2  0  0  0  0  0  0
  192.1160  177.2180  140.6330 C   0  0  2  0  0  3  0  0  0  0  0  0
  189.7880  177.7740  141.1160 C   0  0  1  0  0  3  0  0  0  0  0  0
  188.0540  177.3150  140.9430 S   0  0  0  0  0  0  0  0  0  0  0  0
  186.4300  178.0840  143.1110 C   0  0  0  0  0  0  0  0  0  0  0  0
  190.3880  176.7270  142.0120 C   0  0  2  0  0  3  0  0  0  0  0  0
  186.1340  178.1770  144.4760 C   0  0  0  0  0  3  0  0  0  0  0  0
  187.0800  177.8500  145.4400 C   0  0  0  0  0  3  0  0  0  0  0  0
  183.4470  179.1600  140.2630 C   0  0  0  0  0  3  0  0  0  0  0  0
  184.7430  179.5350  140.0930 N   0  0  0  0  0  0  0  0  0  0  0  0
  185.7040  179.2070  140.9980 C   0  0  0  0  0  3  0  0  0  0  0  0
  185.3770  178.4760  142.1490 C   0  0  0  0  0  0  0  0  0  0  0  0
  184.0470  178.0710  142.3240 C   0  0  0  0  0  3  0  0  0  0  0  0
  183.0750  178.4160  141.3840 C   0  0  0  0  0  3  0  0  0  0  0  0
  189.3860  177.0960  146.1090 C   0  0  2  0  0  3  0  0  0  0  0  0
  188.8830  177.3980  147.4860 C   0  0  0  0  0  0  0  0  0  0  0  0
  189.1780  178.4930  148.0300 O   0  0  0  0  0  0  0  0  0  0  0  0
  188.1160  176.4680  148.1790 O   0  0  0  0  0  1  0  0  0  0  0  0
  190.7170  177.7810  145.8250 C   0  0  0  0  0  2  0  0  0  0  0  0
  191.8150  176.9450  146.2810 N   0  0  0  0  0  1  0  0  0  0  0  0
  1  6  1  0  0  0  0
  3 11  2  0  0  0  0
  3  6  1  0  0  0  0
  4 14  1  0  0  0  0
  4 21  1  0  0  0  0
  5  8  1  0  0  0  0
  6  4  2  0  0  0  0
  8  2  1  1  0  0  0
  8  7  1  0  0  0  0
  9  5  1  6  0  0  0
  9 12  1  0  0  0  0
 10  9  1  0  0  0  0
 10  3  1  0  0  0  0
 11 13  1  0  0  0  0
 12  7  1  1  0  0  0
 12  1  1  0  0  0  0
 13 14  2  0  0  0  0
 15 20  1  0  0  0  0
 16 15  2  0  0  0  0
 16 17  1  0  0  0  0
 17 18  2  0  0  0  0
 18 19  1  0  0  0  0
 18 11  1  0  0  0  0
 20 19  2  0  0  0  0
 21 25  1  6  0  0  0
 21 22  1  0  0  0  0
 22 23  2  0  0  0  0
 22 24  1  0  0  0  0
 25 26  1  0  0  0  0
M  END
>  <MODEL>
7

>  <REMARK>
 VINA RESULT:      -6.9      3.503      6.349
  Name = 
  4 active torsions:
  status: ('A' for Active; 'I' for Inactive)
    1  A    between atoms: C_1  and  C_22
    2  A    between atoms: C_8  and  C_23
    3  A    between atoms: C_9  and  C_22
    4  A    between atoms: C_13  and  C_22
                            x       y       z     vdW  Elec       q    Type
                         _______ _______ _______ _____ _____    ______ ____

>  <TORSDO>
F 4

$$$$
=
 OpenBabel11032421293D

 26 29  0  0  1  0  0  0  0  0999 V2000
  188.5380  177.9410  140.5050 O   0  0  0  0  0  0  0  0  0  0  0  0
  184.5550  179.9290  139.0930 N   0  0  0  0  0  1  0  0  0  0  0  0
  188.9180  177.6040  142.9280 C   0  0  0  0  0  0  0  0  0  0  0  0
  190.7850  177.6410  141.3410 C   0  0  0  0  0  0  0  0  0  0  0  0
  184.9650  178.9880  141.7160 S   0  0  0  0  0  0  0  0  0  0  0  0
  189.4040  177.7090  141.5910 C   0  0  0  0  0  0  0  0  0  0  0  0
  186.4460  178.5950  139.5720 N   0  0  0  0  0  2  0  0  0  0  0  0
  185.3340  179.1220  139.9660 C   0  0  2  0  0  3  0  0  0  0  0  0
  186.7370  178.6560  141.9100 C   0  0  1  0  0  3  0  0  0  0  0  0
  187.1260  177.5290  143.2600 S   0  0  0  0  0  0  0  0  0  0  0  0
  189.8440  177.4990  143.9970 C   0  0  0  0  0  0  0  0  0  0  0  0
  187.1270  177.9230  140.6560 C   0  0  2  0  0  3  0  0  0  0  0  0
  191.2120  177.4220  143.7130 C   0  0  0  0  0  3  0  0  0  0  0  0
  191.6780  177.4870  142.4050 C   0  0  0  0  0  3  0  0  0  0  0  0
  188.7310  177.4230  148.1110 C   0  0  0  0  0  3  0  0  0  0  0  0
  189.9800  177.0570  147.7180 N   0  0  0  0  0  0  0  0  0  0  0  0
  190.3460  177.0670  146.4080 C   0  0  0  0  0  3  0  0  0  0  0  0
  189.4310  177.4490  145.4170 C   0  0  0  0  0  0  0  0  0  0  0  0
  188.1470  177.8430  145.8140 C   0  0  0  0  0  3  0  0  0  0  0  0
  187.7890  177.8270  147.1630 C   0  0  0  0  0  3  0  0  0  0  0  0
  191.2940  177.7300  139.9300 C   0  0  2  0  0  3  0  0  0  0  0  0
  190.5480  176.8080  139.0180 C   0  0  0  0  0  0  0  0  0  0  0  0
  190.5550  175.5710  139.2410 O   0  0  0  0  0  1  0  0  0  0  0  0
  189.8690  177.3050  137.9110 O   0  0  0  0  0  0  0  0  0  0  0  0
  192.8000  177.5030  139.8630 C   0  0  0  0  0  2  0  0  0  0  0  0
  193.1860  177.1180  138.5160 N   0  0  0  0  0  1  0  0  0  0  0  0
  1 12  1  0  0  0  0
  1  6  1  0  0  0  0
  3 10  1  0  0  0  0
  3 11  1  0  0  0  0
  4  6  1  0  0  0  0
  4 14  2  0  0  0  0
  6  3  2  0  0  0  0
  7  8  1  0  0  0  0
  8  2  1  1  0  0  0
  8  5  1  0  0  0  0
  9  5  1  6  0  0  0
  9 10  1  0  0  0  0
 11 18  1  0  0  0  0
 12  7  1  6  0  0  0
 12  9  1  0  0  0  0
 13 11  2  0  0  0  0
 14 13  1  0  0  0  0
 16 15  1  0  0  0  0
 17 16  2  0  0  0  0
 18 19  2  0  0  0  0
 18 17  1  0  0  0  0
 19 20  1  0  0  0  0
 20 15  2  0  0  0  0
 21 25  1  1  0  0  0
 21  4  1  0  0  0  0
 22 23  1  0  0  0  0
 22 21  1  0  0  0  0
 24 22  2  0  0  0  0
 26 25  1  0  0  0  0
M  END
>  <MODEL>
8

>  <REMARK>
 VINA RESULT:      -6.9      2.883      5.679
  Name = 
  4 active torsions:
  status: ('A' for Active; 'I' for Inactive)
    1  A    between atoms: C_1  and  C_22
    2  A    between atoms: C_8  and  C_23
    3  A    between atoms: C_9  and  C_22
    4  A    between atoms: C_13  and  C_22
                            x       y       z     vdW  Elec       q    Type
                         _______ _______ _______ _____ _____    ______ ____

>  <TORSDO>
F 4

$$$$
=
 OpenBabel11032421293D

 26 29  0  0  1  0  0  0  0  0999 V2000
  187.2910  177.5130  142.6490 O   0  0  0  0  0  0  0  0  0  0  0  0
  183.4610  179.6780  144.2140 N   0  0  0  0  0  1  0  0  0  0  0  0
  189.1360  177.0460  144.2320 C   0  0  0  0  0  0  0  0  0  0  0  0
  189.5210  177.1100  141.8120 C   0  0  0  0  0  0  0  0  0  0  0  0
  185.4270  178.5960  145.9170 S   0  0  0  0  0  0  0  0  0  0  0  0
  188.6410  177.2040  142.9030 C   0  0  0  0  0  0  0  0  0  0  0  0
  185.1330  178.2700  143.3190 N   0  0  0  0  0  2  0  0  0  0  0  0
  184.5760  178.8070  144.3520 C   0  0  2  0  0  3  0  0  0  0  0  0
  186.8780  178.2060  144.9030 C   0  0  1  0  0  3  0  0  0  0  0  0
  187.9910  177.0030  145.6500 S   0  0  0  0  0  0  0  0  0  0  0  0
  190.5280  176.8620  144.4360 C   0  0  0  0  0  0  0  0  0  0  0  0
  186.3190  177.5270  143.6830 C   0  0  2  0  0  3  0  0  0  0  0  0
  191.3750  176.7620  143.3270 C   0  0  0  0  0  3  0  0  0  0  0  0
  190.8820  176.8780  142.0330 C   0  0  0  0  0  3  0  0  0  0  0  0
  192.1830  176.5320  148.3500 C   0  0  0  0  0  3  0  0  0  0  0  0
  191.2780  177.5030  148.0540 N   0  0  0  0  0  0  0  0  0  0  0  0
  190.7490  177.6260  146.8070 C   0  0  0  0  0  3  0  0  0  0  0  0
  191.1360  176.7530  145.7810 C   0  0  0  0  0  0  0  0  0  0  0  0
  192.0550  175.7390  146.0810 C   0  0  0  0  0  3  0  0  0  0  0  0
  192.5860  175.6280  147.3660 C   0  0  0  0  0  3  0  0  0  0  0  0
  188.9940  177.2560  140.4120 C   0  0  2  0  0  3  0  0  0  0  0  0
  190.0480  176.9460  139.3950 C   0  0  0  0  0  0  0  0  0  0  0  0
  190.6240  177.8850  138.7890 O   0  0  0  0  0  0  0  0  0  0  0  0
  190.3770  175.6280  139.0970 O   0  0  0  0  0  1  0  0  0  0  0  0
  188.3730  178.6280  140.1870 C   0  0  0  0  0  2  0  0  0  0  0  0
  187.2740  178.5300  139.2420 N   0  0  0  0  0  1  0  0  0  0  0  0
  1  6  1  0  0  0  0
  3 11  1  0  0  0  0
  3 10  1  0  0  0  0
  4 14  2  0  0  0  0
  4  6  1  0  0  0  0
  6  3  2  0  0  0  0
  7 12  1  0  0  0  0
  7  8  1  0  0  0  0
  8  2  1  6  0  0  0
  8  5  1  0  0  0  0
  9 10  1  1  0  0  0
  9  5  1  0  0  0  0
 11 18  1  0  0  0  0
 12  1  1  6  0  0  0
 12  9  1  0  0  0  0
 13 11  2  0  0  0  0
 14 13  1  0  0  0  0
 16 15  1  0  0  0  0
 17 16  2  0  0  0  0
 18 19  2  0  0  0  0
 18 17  1  0  0  0  0
 19 20  1  0  0  0  0
 20 15  2  0  0  0  0
 21 25  1  6  0  0  0
 21  4  1  0  0  0  0
 22 21  1  0  0  0  0
 23 22  2  0  0  0  0
 24 22  1  0  0  0  0
 26 25  1  0  0  0  0
M  END
>  <MODEL>
9

>  <REMARK>
 VINA RESULT:      -6.7      3.476      6.092
  Name = 
  4 active torsions:
  status: ('A' for Active; 'I' for Inactive)
    1  A    between atoms: C_1  and  C_22
    2  A    between atoms: C_8  and  C_23
    3  A    between atoms: C_9  and  C_22
    4  A    between atoms: C_13  and  C_22
                            x       y       z     vdW  Elec       q    Type
                         _______ _______ _______ _____ _____    ______ ____

>  <TORSDO>
F 4

$$$$
