=
 OpenBabel11042410413D

 44 47  0  0  1  0  0  0  0  0999 V2000
  185.7410  178.3150  137.9420 C   0  0  0  0  0  0  0  0  0  0  0  0
  183.6020  177.8410  141.6110 C   0  0  0  0  0  3  0  0  0  0  0  0
  182.6900  177.3960  140.5970 N   0  0  0  0  0  0  0  0  0  0  0  0
  184.3900  178.4260  137.6940 O   0  0  0  0  0  0  0  0  0  0  0  0
  187.9090  177.5640  138.0510 C   0  0  0  0  0  0  0  0  0  0  0  0
  184.8390  178.9650  139.9230 N   0  0  0  0  0  0  0  0  0  0  0  0
  182.7300  177.8030  139.3590 C   0  0  0  0  0  0  0  0  0  0  0  0
  186.7770  177.7220  137.2340 C   0  0  0  0  0  0  0  0  0  0  0  0
  186.6430  177.1990  135.8440 C   0  0  0  0  0  1  0  0  0  0  0  0
  181.7530  177.3000  138.4430 N   0  0  0  0  0  2  0  0  0  0  0  0
  187.5530  178.1450  139.6240 S   0  0  0  0  0  0  0  0  0  0  0  0
  184.6430  178.6090  141.2990 C   0  0  0  0  0  0  0  0  0  0  0  0
  186.0220  178.6800  139.1910 C   0  0  0  0  0  0  0  0  0  0  0  0
  183.7510  178.8370  138.9200 C   0  0  2  0  0  3  0  0  0  0  0  0
  189.0320  175.4510  137.2370 C   0  0  0  0  0  2  0  0  0  0  0  0
  189.2000  176.9330  137.6140 C   0  0  0  0  0  3  0  0  0  0  0  0
  191.6150  176.4900  138.2620 C   0  0  0  0  0  2  0  0  0  0  0  0
  190.3330  174.6600  137.4100 C   0  0  0  0  0  2  0  0  0  0  0  0
  190.2740  177.1150  138.6870 C   0  0  0  0  0  2  0  0  0  0  0  0
  191.4840  175.5290  137.1570 N   0  0  0  0  0  0  0  0  0  0  0  0
  192.6810  174.7000  137.1910 C   0  0  0  0  0  2  0  0  0  0  0  0
  194.9380  174.9610  135.9980 N   0  0  0  0  0  2  0  0  0  0  0  0
  195.7980  174.6780  137.1120 C   0  0  0  0  0  0  0  0  0  0  0  0
  193.5050  174.9060  135.9580 C   0  0  0  0  0  0  0  0  0  0  0  0
  192.9200  175.0970  134.8580 O   0  0  0  0  0  0  0  0  0  0  0  0
  197.0650  174.9180  136.9930 N   0  0  0  0  0  2  0  0  0  0  0  0
  195.3910  172.5500  138.3320 C   0  0  0  0  0  1  0  0  0  0  0  0
  195.2770  174.0620  138.3760 C   0  0  0  0  0  3  0  0  0  0  0  0
  196.0070  174.6030  139.5900 C   0  0  0  0  0  1  0  0  0  0  0  0
  185.2160  178.9880  143.6390 C   0  0  0  0  0  0  0  0  0  0  0  0
  183.6640  179.1820  145.3740 O   0  0  0  0  0  1  0  0  0  0  0  0
  185.5240  179.0870  142.3730 C   0  0  0  0  0  3  0  0  0  0  0  0
  184.9390  178.8830  144.9100 C   0  0  0  0  0  0  0  0  0  0  0  0
  185.9880  178.4200  145.8580 C   0  0  0  0  0  2  0  0  0  0  0  0
  186.5690  177.1760  145.3810 N   0  0  0  0  0  2  0  0  0  0  0  0
  188.0030  177.3900  145.3010 C   0  0  0  0  0  2  0  0  0  0  0  0
  187.6450  176.1210  143.3390 F   0  0  0  0  0  0  0  0  0  0  0  0
  188.5230  177.0110  143.9250 C   0  0  0  0  0  0  0  0  0  0  0  0
  188.6250  178.1390  143.1300 F   0  0  0  0  0  0  0  0  0  0  0  0
  189.7650  176.4140  144.0380 F   0  0  0  0  0  0  0  0  0  0  0  0
  181.5750  177.8220  137.0970 C   0  0  0  0  0  2  0  0  0  0  0  0
  180.4110  178.7920  137.0820 C   0  0  0  0  0  2  0  0  0  0  0  0
  180.7360  180.9250  138.2940 C   0  0  0  0  0  1  0  0  0  0  0  0
  180.9380  180.2070  136.9740 C   0  0  0  0  0  2  0  0  0  0  0  0
  1 13  2  0  0  0  0
  3  2  1  0  0  0  0
  4  1  1  0  0  0  0
  5 11  1  0  0  0  0
  6 12  1  0  0  0  0
  7  3  2  0  0  0  0
  8  1  1  0  0  0  0
  8  5  2  0  0  0  0
  9  8  1  0  0  0  0
 10  7  1  0  0  0  0
 12  2  2  0  0  0  0
 12 32  1  0  0  0  0
 13 11  1  0  0  0  0
 13  6  1  0  0  0  0
 14  4  1  6  0  0  0
 14  7  1  0  0  0  0
 14  6  1  0  0  0  0
 15 18  1  0  0  0  0
 15 16  1  0  0  0  0
 16  5  1  0  0  0  0
 16 19  1  0  0  0  0
 17 19  1  0  0  0  0
 20 21  1  0  0  0  0
 20 18  1  0  0  0  0
 20 17  1  0  0  0  0
 22 23  1  0  0  0  0
 23 28  1  0  0  0  0
 24 22  1  0  0  0  0
 24 21  1  0  0  0  0
 25 24  2  0  0  0  0
 26 23  2  0  0  0  0
 27 28  1  0  0  0  0
 28 29  1  0  0  0  0
 30 33  2  0  0  0  0
 32 30  2  0  0  0  0
 33 31  1  0  0  0  0
 33 34  1  0  0  0  0
 35 34  1  0  0  0  0
 36 35  1  0  0  0  0
 37 38  1  0  0  0  0
 38 40  1  0  0  0  0
 38 36  1  0  0  0  0
 39 38  1  0  0  0  0
 41 10  1  0  0  0  0
 42 41  1  0  0  0  0
 44 42  1  0  0  0  0
 44 43  1  0  0  0  0
M  END
>  <MODEL>
1

>  <REMARK>
 VINA RESULT:      -7.3      0.000      0.000
  Name = 
  12 active torsions:
  status: ('A' for Active; 'I' for Inactive)
    1  A    between atoms: N_4  and  C_19
    2  A    between atoms: N_4  and  C_26
    3  A    between atoms: C_8  and  N_30
    4  A    between atoms: C_8  and  C_42
    5  A    between atoms: C_10  and  C_26
    6  A    between atoms: C_12  and  C_32
    7  A    between atoms: C_15  and  C_24
    8  A    between atoms: C_17  and  C_20
    9  A    between atoms: C_17  and  N_44
   10  A    between atoms: C_19  and  C_41
   11  A    between atoms: C_22  and  C_42
   12  A    between atoms: C_31  and  C_38
                            x       y       z     vdW  Elec       q    Type
                         _______ _______ _______ _____ _____    ______ ____

>  <TORSDO>
F 12

$$$$
=
 OpenBabel11042410413D

 44 47  0  0  1  0  0  0  0  0999 V2000
  188.3880  178.2960  144.0450 C   0  0  0  0  0  0  0  0  0  0  0  0
  191.5390  176.2010  142.0580 C   0  0  0  0  0  3  0  0  0  0  0  0
  191.6560  175.8150  143.4350 N   0  0  0  0  0  0  0  0  0  0  0  0
  189.4140  178.0730  144.9380 O   0  0  0  0  0  0  0  0  0  0  0  0
  186.3900  178.2130  142.9170 C   0  0  0  0  0  0  0  0  0  0  0  0
  190.2420  178.0670  142.7530 N   0  0  0  0  0  0  0  0  0  0  0  0
  191.2400  176.5480  144.4300 C   0  0  0  0  0  0  0  0  0  0  0  0
  187.0070  178.2570  144.1780 C   0  0  0  0  0  0  0  0  0  0  0  0
  186.3000  178.1320  145.4840 C   0  0  0  0  0  1  0  0  0  0  0  0
  191.4290  176.0610  145.7620 N   0  0  0  0  0  2  0  0  0  0  0  0
  187.5960  178.1950  141.6990 S   0  0  0  0  0  0  0  0  0  0  0  0
  190.8640  177.2960  141.7150 C   0  0  0  0  0  0  0  0  0  0  0  0
  188.8540  178.3590  142.7990 C   0  0  0  0  0  0  0  0  0  0  0  0
  190.6300  177.9150  144.1780 C   0  0  2  0  0  3  0  0  0  0  0  0
  184.5310  178.2430  141.2040 C   0  0  0  0  0  2  0  0  0  0  0  0
  184.9070  178.1370  142.6920 C   0  0  0  0  0  3  0  0  0  0  0  0
  182.6600  179.1350  143.3260 C   0  0  0  0  0  2  0  0  0  0  0  0
  183.1150  178.7930  141.0030 C   0  0  0  0  0  2  0  0  0  0  0  0
  184.1850  179.1980  143.5240 C   0  0  0  0  0  2  0  0  0  0  0  0
  182.2590  178.3920  142.1220 N   0  0  0  0  0  0  0  0  0  0  0  0
  180.9000  178.8130  141.8130 C   0  0  0  0  0  2  0  0  0  0  0  0
  179.3140  176.7980  141.6930 N   0  0  0  0  0  2  0  0  0  0  0  0
  179.6710  176.3280  140.3840 C   0  0  0  0  0  0  0  0  0  0  0  0
  179.9020  177.8810  142.4280 C   0  0  0  0  0  0  0  0  0  0  0  0
  179.5210  178.0910  143.6110 O   0  0  0  0  0  0  0  0  0  0  0  0
  178.9310  175.4240  139.8290 N   0  0  0  0  0  2  0  0  0  0  0  0
  181.8800  175.6780  139.4460 C   0  0  0  0  0  1  0  0  0  0  0  0
  180.9020  176.8140  139.6790 C   0  0  0  0  0  3  0  0  0  0  0  0
  180.5510  177.4770  138.3600 C   0  0  0  0  0  1  0  0  0  0  0  0
  190.6910  176.8200  139.3290 C   0  0  0  0  0  0  0  0  0  0  0  0
  191.2790  174.7910  138.3310 O   0  0  0  0  0  1  0  0  0  0  0  0
  190.8120  177.6860  140.2990 C   0  0  0  0  0  3  0  0  0  0  0  0
  190.5530  175.9750  138.3440 C   0  0  0  0  0  0  0  0  0  0  0  0
  189.5950  176.2740  137.2450 C   0  0  0  0  0  2  0  0  0  0  0  0
  188.8170  177.4560  137.5780 N   0  0  0  0  0  2  0  0  0  0  0  0
  188.0350  177.7850  136.3980 C   0  0  0  0  0  2  0  0  0  0  0  0
  186.5920  175.9150  136.5150 F   0  0  0  0  0  0  0  0  0  0  0  0
  186.6050  177.2950  136.5530 C   0  0  0  0  0  0  0  0  0  0  0  0
  186.0870  177.7220  137.7630 F   0  0  0  0  0  0  0  0  0  0  0  0
  185.8250  177.7840  135.5210 F   0  0  0  0  0  0  0  0  0  0  0  0
  191.1880  176.8660  146.9490 C   0  0  0  0  0  2  0  0  0  0  0  0
  189.7540  176.6800  147.4020 C   0  0  0  0  0  2  0  0  0  0  0  0
  187.9050  177.7000  148.6930 C   0  0  0  0  0  1  0  0  0  0  0  0
  189.2820  177.9360  148.1030 C   0  0  0  0  0  2  0  0  0  0  0  0
  1  8  1  0  0  0  0
  1  4  1  0  0  0  0
  2  3  1  0  0  0  0
  3  7  2  0  0  0  0
  5  8  2  0  0  0  0
  6 13  1  0  0  0  0
  6 14  1  0  0  0  0
  7 10  1  0  0  0  0
  8  9  1  0  0  0  0
 10 41  1  0  0  0  0
 11 13  1  0  0  0  0
 11  5  1  0  0  0  0
 12  2  2  0  0  0  0
 12  6  1  0  0  0  0
 13  1  2  0  0  0  0
 14  7  1  6  0  0  0
 14  4  1  0  0  0  0
 15 16  1  0  0  0  0
 16  5  1  0  0  0  0
 16 19  1  0  0  0  0
 17 19  1  0  0  0  0
 18 15  1  0  0  0  0
 18 20  1  0  0  0  0
 20 17  1  0  0  0  0
 21 20  1  0  0  0  0
 21 24  1  0  0  0  0
 22 24  1  0  0  0  0
 23 22  1  0  0  0  0
 24 25  2  0  0  0  0
 26 23  2  0  0  0  0
 27 28  1  0  0  0  0
 28 23  1  0  0  0  0
 29 28  1  0  0  0  0
 30 32  2  0  0  0  0
 31 33  1  0  0  0  0
 32 12  1  0  0  0  0
 33 30  2  0  0  0  0
 34 35  1  0  0  0  0
 34 33  1  0  0  0  0
 36 38  1  0  0  0  0
 36 35  1  0  0  0  0
 37 38  1  0  0  0  0
 38 39  1  0  0  0  0
 40 38  1  0  0  0  0
 41 42  1  0  0  0  0
 42 44  1  0  0  0  0
 44 43  1  0  0  0  0
M  END
>  <MODEL>
2

>  <REMARK>
 VINA RESULT:      -7.2      3.740     10.759
  Name = 
  12 active torsions:
  status: ('A' for Active; 'I' for Inactive)
    1  A    between atoms: N_4  and  C_19
    2  A    between atoms: N_4  and  C_26
    3  A    between atoms: C_8  and  N_30
    4  A    between atoms: C_8  and  C_42
    5  A    between atoms: C_10  and  C_26
    6  A    between atoms: C_12  and  C_32
    7  A    between atoms: C_15  and  C_24
    8  A    between atoms: C_17  and  C_20
    9  A    between atoms: C_17  and  N_44
   10  A    between atoms: C_19  and  C_41
   11  A    between atoms: C_22  and  C_42
   12  A    between atoms: C_31  and  C_38
                            x       y       z     vdW  Elec       q    Type
                         _______ _______ _______ _____ _____    ______ ____

>  <TORSDO>
F 12

$$$$
=
 OpenBabel11042410413D

 44 47  0  0  1  0  0  0  0  0999 V2000
  186.7460  178.4460  139.0930 C   0  0  0  0  0  0  0  0  0  0  0  0
  184.8700  177.8140  142.8800 C   0  0  0  0  0  3  0  0  0  0  0  0
  183.7890  177.8400  141.9370 N   0  0  0  0  0  0  0  0  0  0  0  0
  185.4670  178.9560  139.0520 O   0  0  0  0  0  0  0  0  0  0  0  0
  188.6140  177.1480  138.7760 C   0  0  0  0  0  0  0  0  0  0  0  0
  186.2320  178.8930  141.2590 N   0  0  0  0  0  0  0  0  0  0  0  0
  183.8410  178.4640  140.7940 C   0  0  0  0  0  0  0  0  0  0  0  0
  187.5100  177.7590  138.1590 C   0  0  0  0  0  0  0  0  0  0  0  0
  187.1200  177.5830  136.7310 C   0  0  0  0  0  1  0  0  0  0  0  0
  182.6890  178.4320  139.9450 N   0  0  0  0  0  2  0  0  0  0  0  0
  188.5680  177.4690  140.4600 S   0  0  0  0  0  0  0  0  0  0  0  0
  186.0570  178.3300  142.5670 C   0  0  0  0  0  0  0  0  0  0  0  0
  187.2210  178.4630  140.3370 C   0  0  0  0  0  0  0  0  0  0  0  0
  185.0730  179.2620  140.4060 C   0  0  2  0  0  3  0  0  0  0  0  0
  190.8660  176.0100  138.9380 C   0  0  0  0  0  2  0  0  0  0  0  0
  189.6330  176.3030  138.0660 C   0  0  0  0  0  3  0  0  0  0  0  0
  191.0660  176.0980  135.9790 C   0  0  0  0  0  2  0  0  0  0  0  0
  192.1170  175.7360  138.0970 C   0  0  0  0  0  2  0  0  0  0  0  0
  190.0320  176.9500  136.7390 C   0  0  0  0  0  2  0  0  0  0  0  0
  191.7400  175.1060  136.8300 N   0  0  0  0  0  0  0  0  0  0  0  0
  192.9650  174.7370  136.1370 C   0  0  0  0  0  2  0  0  0  0  0  0
  194.1230  172.4630  135.8520 N   0  0  0  0  0  2  0  0  0  0  0  0
  195.3930  172.8010  136.4300 C   0  0  0  0  0  0  0  0  0  0  0  0
  192.9500  173.2860  135.7660 C   0  0  0  0  0  0  0  0  0  0  0  0
  191.8890  172.7850  135.3070 O   0  0  0  0  0  0  0  0  0  0  0  0
  196.3770  171.9720  136.2880 N   0  0  0  0  0  2  0  0  0  0  0  0
  195.4820  173.7640  138.7200 C   0  0  0  0  0  1  0  0  0  0  0  0
  195.5880  174.0510  137.2350 C   0  0  0  0  0  3  0  0  0  0  0  0
  196.9230  174.7000  136.9240 C   0  0  0  0  0  1  0  0  0  0  0  0
  186.8800  178.3460  144.8620 C   0  0  0  0  0  0  0  0  0  0  0  0
  185.6910  179.1690  146.6970 O   0  0  0  0  0  1  0  0  0  0  0  0
  187.1220  178.3310  143.5790 C   0  0  0  0  0  3  0  0  0  0  0  0
  186.6640  178.3420  146.1490 C   0  0  0  0  0  0  0  0  0  0  0  0
  187.4490  177.4310  147.0260 C   0  0  0  0  0  2  0  0  0  0  0  0
  188.7920  177.9570  147.2070 N   0  0  0  0  0  2  0  0  0  0  0  0
  189.7080  176.9100  146.7880 C   0  0  0  0  0  2  0  0  0  0  0  0
  189.9160  176.4730  144.4730 F   0  0  0  0  0  0  0  0  0  0  0  0
  190.3890  177.2880  145.4830 C   0  0  0  0  0  0  0  0  0  0  0  0
  190.1130  178.6070  145.1700 F   0  0  0  0  0  0  0  0  0  0  0  0
  191.7560  177.1190  145.5980 F   0  0  0  0  0  0  0  0  0  0  0  0
  182.5560  179.2440  138.7460 C   0  0  0  0  0  2  0  0  0  0  0  0
  181.0930  179.3400  138.3620 C   0  0  0  0  0  2  0  0  0  0  0  0
  181.4920  181.7810  138.2860 C   0  0  0  0  0  1  0  0  0  0  0  0
  180.8660  180.6050  137.5630 C   0  0  0  0  0  2  0  0  0  0  0  0
  1 13  2  0  0  0  0
  3  2  1  0  0  0  0
  4  1  1  0  0  0  0
  5 11  1  0  0  0  0
  6 12  1  0  0  0  0
  7  3  2  0  0  0  0
  8  5  2  0  0  0  0
  8  1  1  0  0  0  0
  9  8  1  0  0  0  0
 10  7  1  0  0  0  0
 12  2  2  0  0  0  0
 12 32  1  0  0  0  0
 13 11  1  0  0  0  0
 13  6  1  0  0  0  0
 14  4  1  6  0  0  0
 14  7  1  0  0  0  0
 14  6  1  0  0  0  0
 16  5  1  0  0  0  0
 16 15  1  0  0  0  0
 17 19  1  0  0  0  0
 17 20  1  0  0  0  0
 18 15  1  0  0  0  0
 19 16  1  0  0  0  0
 20 18  1  0  0  0  0
 21 20  1  0  0  0  0
 22 23  1  0  0  0  0
 23 28  1  0  0  0  0
 24 22  1  0  0  0  0
 24 21  1  0  0  0  0
 25 24  2  0  0  0  0
 26 23  2  0  0  0  0
 28 27  1  0  0  0  0
 29 28  1  0  0  0  0
 30 33  2  0  0  0  0
 32 30  2  0  0  0  0
 33 31  1  0  0  0  0
 33 34  1  0  0  0  0
 34 35  1  0  0  0  0
 36 35  1  0  0  0  0
 37 38  1  0  0  0  0
 38 40  1  0  0  0  0
 38 36  1  0  0  0  0
 39 38  1  0  0  0  0
 41 10  1  0  0  0  0
 42 41  1  0  0  0  0
 44 43  1  0  0  0  0
 44 42  1  0  0  0  0
M  END
>  <MODEL>
3

>  <REMARK>
 VINA RESULT:      -6.9      1.654      2.021
  Name = 
  12 active torsions:
  status: ('A' for Active; 'I' for Inactive)
    1  A    between atoms: N_4  and  C_19
    2  A    between atoms: N_4  and  C_26
    3  A    between atoms: C_8  and  N_30
    4  A    between atoms: C_8  and  C_42
    5  A    between atoms: C_10  and  C_26
    6  A    between atoms: C_12  and  C_32
    7  A    between atoms: C_15  and  C_24
    8  A    between atoms: C_17  and  C_20
    9  A    between atoms: C_17  and  N_44
   10  A    between atoms: C_19  and  C_41
   11  A    between atoms: C_22  and  C_42
   12  A    between atoms: C_31  and  C_38
                            x       y       z     vdW  Elec       q    Type
                         _______ _______ _______ _____ _____    ______ ____

>  <TORSDO>
F 12

$$$$
=
 OpenBabel11042410413D

 44 47  0  0  1  0  0  0  0  0999 V2000
  185.8540  178.2470  138.0410 C   0  0  0  0  0  0  0  0  0  0  0  0
  183.7380  177.7570  141.7210 C   0  0  0  0  0  3  0  0  0  0  0  0
  182.8670  177.2050  140.7230 N   0  0  0  0  0  0  0  0  0  0  0  0
  184.5000  178.2460  137.7850 O   0  0  0  0  0  0  0  0  0  0  0  0
  188.0720  177.6680  138.1840 C   0  0  0  0  0  0  0  0  0  0  0  0
  184.8950  178.9040  139.9920 N   0  0  0  0  0  0  0  0  0  0  0  0
  182.8830  177.5640  139.4700 C   0  0  0  0  0  0  0  0  0  0  0  0
  186.9350  177.7070  137.3590 C   0  0  0  0  0  0  0  0  0  0  0  0
  186.8490  177.1210  135.9910 C   0  0  0  0  0  1  0  0  0  0  0  0
  181.9520  176.9530  138.5730 N   0  0  0  0  0  2  0  0  0  0  0  0
  187.6650  178.2810  139.7320 S   0  0  0  0  0  0  0  0  0  0  0  0
  184.7200  178.5890  141.3810 C   0  0  0  0  0  0  0  0  0  0  0  0
  186.1000  178.6810  139.2750 C   0  0  0  0  0  0  0  0  0  0  0  0
  183.8250  178.6550  138.9930 C   0  0  2  0  0  3  0  0  0  0  0  0
  189.3430  175.6310  137.3940 C   0  0  0  0  0  2  0  0  0  0  0  0
  189.4090  177.1200  137.7750 C   0  0  0  0  0  3  0  0  0  0  0  0
  191.8320  176.8290  138.4760 C   0  0  0  0  0  2  0  0  0  0  0  0
  190.6870  174.9230  137.5950 C   0  0  0  0  0  2  0  0  0  0  0  0
  190.4460  177.3670  138.8720 C   0  0  0  0  0  2  0  0  0  0  0  0
  191.7870  175.8640  137.3680 N   0  0  0  0  0  0  0  0  0  0  0  0
  193.0320  175.1110  137.4280 C   0  0  0  0  0  2  0  0  0  0  0  0
  195.3160  175.4000  136.2920 N   0  0  0  0  0  2  0  0  0  0  0  0
  196.1490  174.9950  137.3900 C   0  0  0  0  0  0  0  0  0  0  0  0
  193.8830  175.3950  136.2290 C   0  0  0  0  0  0  0  0  0  0  0  0
  193.3220  175.6980  135.1410 O   0  0  0  0  0  0  0  0  0  0  0  0
  197.4230  175.2030  137.3090 N   0  0  0  0  0  2  0  0  0  0  0  0
  195.6790  172.7850  138.4270 C   0  0  0  0  0  1  0  0  0  0  0  0
  195.5880  174.2900  138.5880 C   0  0  0  0  0  3  0  0  0  0  0  0
  196.2960  174.7210  139.8580 C   0  0  0  0  0  1  0  0  0  0  0  0
  185.2740  179.0620  143.7080 C   0  0  0  0  0  0  0  0  0  0  0  0
  183.7280  179.1180  145.4590 O   0  0  0  0  0  1  0  0  0  0  0  0
  185.5560  179.1740  142.4380 C   0  0  0  0  0  3  0  0  0  0  0  0
  185.0220  178.9490  144.9830 C   0  0  0  0  0  0  0  0  0  0  0  0
  186.1250  178.6150  145.9260 C   0  0  0  0  0  2  0  0  0  0  0  0
  186.7540  177.3670  145.5250 N   0  0  0  0  0  2  0  0  0  0  0  0
  188.1890  177.5970  145.5530 C   0  0  0  0  0  2  0  0  0  0  0  0
  188.9960  178.4870  147.5900 F   0  0  0  0  0  0  0  0  0  0  0  0
  188.7500  177.2970  146.9330 C   0  0  0  0  0  0  0  0  0  0  0  0
  187.8390  176.5540  147.6630 F   0  0  0  0  0  0  0  0  0  0  0  0
  189.9330  176.5910  146.8170 F   0  0  0  0  0  0  0  0  0  0  0  0
  181.7410  177.4060  137.2070 C   0  0  0  0  0  2  0  0  0  0  0  0
  180.6820  178.4900  137.1920 C   0  0  0  0  0  2  0  0  0  0  0  0
  180.1200  180.7480  136.3480 C   0  0  0  0  0  1  0  0  0  0  0  0
  181.1350  179.6230  136.2970 C   0  0  0  0  0  2  0  0  0  0  0  0
  1 13  2  0  0  0  0
  3  2  1  0  0  0  0
  4  1  1  0  0  0  0
  5 11  1  0  0  0  0
  6 12  1  0  0  0  0
  7  3  2  0  0  0  0
  8  1  1  0  0  0  0
  8  5  2  0  0  0  0
  9  8  1  0  0  0  0
 10  7  1  0  0  0  0
 12  2  2  0  0  0  0
 12 32  1  0  0  0  0
 13 11  1  0  0  0  0
 13  6  1  0  0  0  0
 14  4  1  6  0  0  0
 14  7  1  0  0  0  0
 14  6  1  0  0  0  0
 15 18  1  0  0  0  0
 15 16  1  0  0  0  0
 16  5  1  0  0  0  0
 16 19  1  0  0  0  0
 17 19  1  0  0  0  0
 20 21  1  0  0  0  0
 20 18  1  0  0  0  0
 20 17  1  0  0  0  0
 22 23  1  0  0  0  0
 23 28  1  0  0  0  0
 24 22  1  0  0  0  0
 24 21  1  0  0  0  0
 25 24  2  0  0  0  0
 26 23  2  0  0  0  0
 27 28  1  0  0  0  0
 28 29  1  0  0  0  0
 30 33  2  0  0  0  0
 32 30  2  0  0  0  0
 33 31  1  0  0  0  0
 33 34  1  0  0  0  0
 35 36  1  0  0  0  0
 35 34  1  0  0  0  0
 36 38  1  0  0  0  0
 38 37  1  0  0  0  0
 38 39  1  0  0  0  0
 40 38  1  0  0  0  0
 41 10  1  0  0  0  0
 42 41  1  0  0  0  0
 44 43  1  0  0  0  0
 44 42  1  0  0  0  0
M  END
>  <MODEL>
4

>  <REMARK>
 VINA RESULT:      -6.8      1.135      1.320
  Name = 
  12 active torsions:
  status: ('A' for Active; 'I' for Inactive)
    1  A    between atoms: N_4  and  C_19
    2  A    between atoms: N_4  and  C_26
    3  A    between atoms: C_8  and  N_30
    4  A    between atoms: C_8  and  C_42
    5  A    between atoms: C_10  and  C_26
    6  A    between atoms: C_12  and  C_32
    7  A    between atoms: C_15  and  C_24
    8  A    between atoms: C_17  and  C_20
    9  A    between atoms: C_17  and  N_44
   10  A    between atoms: C_19  and  C_41
   11  A    between atoms: C_22  and  C_42
   12  A    between atoms: C_31  and  C_38
                            x       y       z     vdW  Elec       q    Type
                         _______ _______ _______ _____ _____    ______ ____

>  <TORSDO>
F 12

$$$$
=
 OpenBabel11042410413D

 44 47  0  0  1  0  0  0  0  0999 V2000
  189.8470  177.5940  138.6440 C   0  0  0  0  0  0  0  0  0  0  0  0
  187.8870  175.7140  135.3440 C   0  0  0  0  0  3  0  0  0  0  0  0
  189.1680  175.0710  135.4230 N   0  0  0  0  0  0  0  0  0  0  0  0
  190.7960  177.1440  137.7520 O   0  0  0  0  0  0  0  0  0  0  0  0
  188.4920  177.8480  140.4800 C   0  0  0  0  0  0  0  0  0  0  0  0
  188.7670  177.4940  136.6480 N   0  0  0  0  0  0  0  0  0  0  0  0
  190.2270  175.6300  135.9360 C   0  0  0  0  0  0  0  0  0  0  0  0
  189.8030  177.6170  140.0310 C   0  0  0  0  0  0  0  0  0  0  0  0
  190.9650  177.2960  140.9070 C   0  0  0  0  0  1  0  0  0  0  0  0
  191.4530  174.8920  135.9410 N   0  0  0  0  0  2  0  0  0  0  0  0
  187.4470  177.9820  139.1270 S   0  0  0  0  0  0  0  0  0  0  0  0
  187.6820  176.8930  135.9260 C   0  0  0  0  0  0  0  0  0  0  0  0
  188.7020  177.8590  138.0180 C   0  0  0  0  0  0  0  0  0  0  0  0
  190.1730  177.0550  136.4550 C   0  0  2  0  0  3  0  0  0  0  0  0
  188.4830  176.6460  142.7040 C   0  0  0  0  0  2  0  0  0  0  0  0
  188.0790  177.9080  141.9240 C   0  0  0  0  0  3  0  0  0  0  0  0
  186.1260  178.2590  143.5080 C   0  0  0  0  0  2  0  0  0  0  0  0
  187.5730  176.3980  143.9120 C   0  0  0  0  0  2  0  0  0  0  0  0
  186.5780  178.1760  142.0390 C   0  0  0  0  0  2  0  0  0  0  0  0
  187.0930  177.6740  144.4480 N   0  0  0  0  0  0  0  0  0  0  0  0
  186.3580  177.3910  145.6720 C   0  0  0  0  0  2  0  0  0  0  0  0
  187.2230  178.9250  147.5400 N   0  0  0  0  0  2  0  0  0  0  0  0
  188.4710  178.2620  147.7940 C   0  0  0  0  0  0  0  0  0  0  0  0
  186.2560  178.6170  146.5260 C   0  0  0  0  0  0  0  0  0  0  0  0
  185.2560  179.3720  146.3900 O   0  0  0  0  0  0  0  0  0  0  0  0
  189.1460  178.5980  148.8460 N   0  0  0  0  0  2  0  0  0  0  0  0
  190.0680  177.8630  145.9310 C   0  0  0  0  0  1  0  0  0  0  0  0
  189.0310  177.2430  146.8480 C   0  0  0  0  0  3  0  0  0  0  0  0
  189.6350  176.0720  147.5990 C   0  0  0  0  0  1  0  0  0  0  0  0
  185.3050  177.1380  136.4110 C   0  0  0  0  0  0  0  0  0  0  0  0
  183.9140  175.4130  137.1520 O   0  0  0  0  0  1  0  0  0  0  0  0
  186.3730  177.5430  135.7780 C   0  0  0  0  0  3  0  0  0  0  0  0
  184.2290  176.7620  137.0450 C   0  0  0  0  0  0  0  0  0  0  0  0
  183.3490  177.7840  137.6760 C   0  0  0  0  0  2  0  0  0  0  0  0
  182.5970  177.1830  138.7640 N   0  0  0  0  0  2  0  0  0  0  0  0
  183.4250  177.2950  139.9530 C   0  0  0  0  0  2  0  0  0  0  0  0
  184.0180  179.5590  140.2950 F   0  0  0  0  0  0  0  0  0  0  0  0
  183.1220  178.5860  140.6940 C   0  0  0  0  0  0  0  0  0  0  0  0
  181.8360  179.0070  140.4070 F   0  0  0  0  0  0  0  0  0  0  0  0
  183.2470  178.3880  142.0570 F   0  0  0  0  0  0  0  0  0  0  0  0
  192.7360  175.4750  136.3030 C   0  0  0  0  0  2  0  0  0  0  0  0
  193.2750  174.7800  137.5370 C   0  0  0  0  0  2  0  0  0  0  0  0
  195.0780  173.2890  138.3450 C   0  0  0  0  0  1  0  0  0  0  0  0
  194.6650  174.2530  137.2500 C   0  0  0  0  0  2  0  0  0  0  0  0
  1  8  1  0  0  0  0
  2  3  1  0  0  0  0
  2 12  2  0  0  0  0
  3  7  2  0  0  0  0
  4  1  1  0  0  0  0
  5 16  1  0  0  0  0
  6 13  1  0  0  0  0
  7 10  1  0  0  0  0
  8  5  2  0  0  0  0
  8  9  1  0  0  0  0
 10 41  1  0  0  0  0
 11  5  1  0  0  0  0
 12  6  1  0  0  0  0
 13  1  2  0  0  0  0
 13 11  1  0  0  0  0
 14  7  1  1  0  0  0
 14  6  1  0  0  0  0
 14  4  1  0  0  0  0
 15 18  1  0  0  0  0
 16 19  1  0  0  0  0
 16 15  1  0  0  0  0
 17 20  1  0  0  0  0
 18 20  1  0  0  0  0
 19 17  1  0  0  0  0
 20 21  1  0  0  0  0
 21 24  1  0  0  0  0
 22 23  1  0  0  0  0
 23 26  2  0  0  0  0
 24 22  1  0  0  0  0
 25 24  2  0  0  0  0
 27 28  1  0  0  0  0
 28 29  1  0  0  0  0
 28 23  1  0  0  0  0
 30 33  2  0  0  0  0
 32 12  1  0  0  0  0
 32 30  2  0  0  0  0
 33 31  1  0  0  0  0
 33 34  1  0  0  0  0
 34 35  1  0  0  0  0
 35 36  1  0  0  0  0
 36 38  1  0  0  0  0
 37 38  1  0  0  0  0
 38 40  1  0  0  0  0
 39 38  1  0  0  0  0
 41 42  1  0  0  0  0
 44 42  1  0  0  0  0
 44 43  1  0  0  0  0
M  END
>  <MODEL>
5

>  <REMARK>
 VINA RESULT:      -6.8      2.603      9.186
  Name = 
  12 active torsions:
  status: ('A' for Active; 'I' for Inactive)
    1  A    between atoms: N_4  and  C_19
    2  A    between atoms: N_4  and  C_26
    3  A    between atoms: C_8  and  N_30
    4  A    between atoms: C_8  and  C_42
    5  A    between atoms: C_10  and  C_26
    6  A    between atoms: C_12  and  C_32
    7  A    between atoms: C_15  and  C_24
    8  A    between atoms: C_17  and  C_20
    9  A    between atoms: C_17  and  N_44
   10  A    between atoms: C_19  and  C_41
   11  A    between atoms: C_22  and  C_42
   12  A    between atoms: C_31  and  C_38
                            x       y       z     vdW  Elec       q    Type
                         _______ _______ _______ _____ _____    ______ ____

>  <TORSDO>
F 12

$$$$
=
 OpenBabel11042410413D

 44 47  0  0  1  0  0  0  0  0999 V2000
  186.8400  177.8340  138.0650 C   0  0  0  0  0  0  0  0  0  0  0  0
  183.9960  177.8780  141.2540 C   0  0  0  0  0  3  0  0  0  0  0  0
  183.2670  177.3840  140.1220 N   0  0  0  0  0  0  0  0  0  0  0  0
  185.5770  177.9990  137.5400 O   0  0  0  0  0  0  0  0  0  0  0  0
  188.8790  176.9730  138.6770 C   0  0  0  0  0  0  0  0  0  0  0  0
  185.6240  178.7420  139.7540 N   0  0  0  0  0  0  0  0  0  0  0  0
  183.5800  177.6540  138.8860 C   0  0  0  0  0  0  0  0  0  0  0  0
  187.9440  177.1100  137.6380 C   0  0  0  0  0  0  0  0  0  0  0  0
  188.0430  176.4520  136.3040 C   0  0  0  0  0  1  0  0  0  0  0  0
  182.7640  177.1160  137.8410 N   0  0  0  0  0  2  0  0  0  0  0  0
  188.2700  177.7360  140.0870 S   0  0  0  0  0  0  0  0  0  0  0  0
  185.1360  178.5460  141.0900 C   0  0  0  0  0  0  0  0  0  0  0  0
  186.9000  178.3120  139.3060 C   0  0  0  0  0  0  0  0  0  0  0  0
  184.7460  178.5740  138.5690 C   0  0  2  0  0  3  0  0  0  0  0  0
  191.3560  177.1390  138.2000 C   0  0  0  0  0  2  0  0  0  0  0  0
  190.1760  176.2230  138.5690 C   0  0  0  0  0  3  0  0  0  0  0  0
  191.3530  174.2650  137.4600 C   0  0  0  0  0  2  0  0  0  0  0  0
  192.4780  176.3760  137.4870 C   0  0  0  0  0  2  0  0  0  0  0  0
  190.0430  175.0630  137.5810 C   0  0  0  0  0  2  0  0  0  0  0  0
  192.5260  174.9930  137.9670 N   0  0  0  0  0  0  0  0  0  0  0  0
  193.6920  174.3580  137.3700 C   0  0  0  0  0  2  0  0  0  0  0  0
  195.4340  172.9490  138.6230 N   0  0  0  0  0  2  0  0  0  0  0  0
  195.2840  171.7260  137.8860 C   0  0  0  0  0  0  0  0  0  0  0  0
  194.7900  174.2080  138.3770 C   0  0  0  0  0  0  0  0  0  0  0  0
  195.1180  175.2050  139.0740 O   0  0  0  0  0  0  0  0  0  0  0  0
  195.8460  170.6540  138.3460 N   0  0  0  0  0  2  0  0  0  0  0  0
  195.5010  171.8570  135.4130 C   0  0  0  0  0  1  0  0  0  0  0  0
  194.5500  171.6760  136.5800 C   0  0  0  0  0  3  0  0  0  0  0  0
  193.7860  170.3740  136.4320 C   0  0  0  0  0  1  0  0  0  0  0  0
  185.3150  179.0310  143.4730 C   0  0  0  0  0  0  0  0  0  0  0  0
  183.4970  179.2770  144.9200 O   0  0  0  0  0  1  0  0  0  0  0  0
  185.8250  179.0810  142.2710 C   0  0  0  0  0  3  0  0  0  0  0  0
  184.8330  178.9770  144.6840 C   0  0  0  0  0  0  0  0  0  0  0  0
  185.7160  178.5700  145.8110 C   0  0  0  0  0  2  0  0  0  0  0  0
  186.4330  177.3550  145.4610 N   0  0  0  0  0  2  0  0  0  0  0  0
  187.8480  177.6860  145.4830 C   0  0  0  0  0  2  0  0  0  0  0  0
  187.6320  176.4400  143.4840 F   0  0  0  0  0  0  0  0  0  0  0  0
  188.5340  177.1800  144.2250 C   0  0  0  0  0  0  0  0  0  0  0  0
  188.9780  178.2470  143.4660 F   0  0  0  0  0  0  0  0  0  0  0  0
  189.6070  176.3770  144.5640 F   0  0  0  0  0  0  0  0  0  0  0  0
  182.8930  177.5020  136.4450 C   0  0  0  0  0  2  0  0  0  0  0  0
  181.5170  177.5890  135.8160 C   0  0  0  0  0  2  0  0  0  0  0  0
  179.5400  178.6240  136.8860 C   0  0  0  0  0  1  0  0  0  0  0  0
  180.8680  178.8990  136.2070 C   0  0  0  0  0  2  0  0  0  0  0  0
  1 13  2  0  0  0  0
  3  2  1  0  0  0  0
  4  1  1  0  0  0  0
  5 11  1  0  0  0  0
  6 12  1  0  0  0  0
  7  3  2  0  0  0  0
  8  1  1  0  0  0  0
  8  5  2  0  0  0  0
  9  8  1  0  0  0  0
 10  7  1  0  0  0  0
 12  2  2  0  0  0  0
 12 32  1  0  0  0  0
 13  6  1  0  0  0  0
 13 11  1  0  0  0  0
 14  4  1  6  0  0  0
 14  7  1  0  0  0  0
 14  6  1  0  0  0  0
 15 16  1  0  0  0  0
 16  5  1  0  0  0  0
 17 19  1  0  0  0  0
 17 20  1  0  0  0  0
 18 20  1  0  0  0  0
 18 15  1  0  0  0  0
 19 16  1  0  0  0  0
 21 20  1  0  0  0  0
 21 24  1  0  0  0  0
 23 26  2  0  0  0  0
 23 22  1  0  0  0  0
 24 22  1  0  0  0  0
 24 25  2  0  0  0  0
 27 28  1  0  0  0  0
 28 23  1  0  0  0  0
 29 28  1  0  0  0  0
 30 33  2  0  0  0  0
 32 30  2  0  0  0  0
 33 31  1  0  0  0  0
 33 34  1  0  0  0  0
 35 36  1  0  0  0  0
 35 34  1  0  0  0  0
 37 38  1  0  0  0  0
 38 40  1  0  0  0  0
 38 36  1  0  0  0  0
 39 38  1  0  0  0  0
 41 10  1  0  0  0  0
 42 44  1  0  0  0  0
 42 41  1  0  0  0  0
 44 43  1  0  0  0  0
M  END
>  <MODEL>
6

>  <REMARK>
 VINA RESULT:      -6.7      1.563      2.096
  Name = 
  12 active torsions:
  status: ('A' for Active; 'I' for Inactive)
    1  A    between atoms: N_4  and  C_19
    2  A    between atoms: N_4  and  C_26
    3  A    between atoms: C_8  and  N_30
    4  A    between atoms: C_8  and  C_42
    5  A    between atoms: C_10  and  C_26
    6  A    between atoms: C_12  and  C_32
    7  A    between atoms: C_15  and  C_24
    8  A    between atoms: C_17  and  C_20
    9  A    between atoms: C_17  and  N_44
   10  A    between atoms: C_19  and  C_41
   11  A    between atoms: C_22  and  C_42
   12  A    between atoms: C_31  and  C_38
                            x       y       z     vdW  Elec       q    Type
                         _______ _______ _______ _____ _____    ______ ____

>  <TORSDO>
F 12

$$$$
=
 OpenBabel11042410413D

 44 47  0  0  1  0  0  0  0  0999 V2000
  186.4270  178.6140  142.3470 C   0  0  0  0  0  0  0  0  0  0  0  0
  189.9270  176.8010  140.6960 C   0  0  0  0  0  3  0  0  0  0  0  0
  189.9790  176.4880  142.0960 N   0  0  0  0  0  0  0  0  0  0  0  0
  187.4000  178.5440  143.3210 O   0  0  0  0  0  0  0  0  0  0  0  0
  184.5400  178.2630  141.0860 C   0  0  0  0  0  0  0  0  0  0  0  0
  188.3870  178.5390  141.2030 N   0  0  0  0  0  0  0  0  0  0  0  0
  189.4120  177.2120  143.0210 C   0  0  0  0  0  0  0  0  0  0  0  0
  185.0520  178.4280  142.3840 C   0  0  0  0  0  0  0  0  0  0  0  0
  184.2640  178.2810  143.6400 C   0  0  0  0  0  1  0  0  0  0  0  0
  189.5510  176.8050  144.3850 N   0  0  0  0  0  2  0  0  0  0  0  0
  185.8310  178.3280  139.9590 S   0  0  0  0  0  0  0  0  0  0  0  0
  189.1660  177.7990  140.2520 C   0  0  0  0  0  0  0  0  0  0  0  0
  186.9760  178.6760  141.1360 C   0  0  0  0  0  0  0  0  0  0  0  0
  188.6800  178.4910  142.6590 C   0  0  2  0  0  3  0  0  0  0  0  0
  182.9020  176.7980  139.8360 C   0  0  0  0  0  2  0  0  0  0  0  0
  183.0950  178.0140  140.7600 C   0  0  0  0  0  3  0  0  0  0  0  0
  180.9700  179.0500  139.8330 C   0  0  0  0  0  2  0  0  0  0  0  0
  181.6150  176.8990  139.0110 C   0  0  0  0  0  2  0  0  0  0  0  0
  182.4570  179.2700  140.1650 C   0  0  0  0  0  2  0  0  0  0  0  0
  180.5940  177.6310  139.7630 N   0  0  0  0  0  0  0  0  0  0  0  0
  179.3550  177.5720  139.0000 C   0  0  0  0  0  2  0  0  0  0  0  0
  178.9810  175.8810  137.1060 N   0  0  0  0  0  2  0  0  0  0  0  0
  179.2330  176.7530  135.9930 C   0  0  0  0  0  0  0  0  0  0  0  0
  179.1020  176.1820  138.5030 C   0  0  0  0  0  0  0  0  0  0  0  0
  178.9310  175.2570  139.3420 O   0  0  0  0  0  0  0  0  0  0  0  0
  178.9340  176.3400  134.8040 N   0  0  0  0  0  2  0  0  0  0  0  0
  181.2470  178.1290  135.5110 C   0  0  0  0  0  1  0  0  0  0  0  0
  179.8820  178.0930  136.1710 C   0  0  0  0  0  3  0  0  0  0  0  0
  179.0080  179.2020  135.6180 C   0  0  0  0  0  1  0  0  0  0  0  0
  189.8610  177.4310  137.9430 C   0  0  0  0  0  0  0  0  0  0  0  0
  191.8180  176.3270  137.3030 O   0  0  0  0  0  1  0  0  0  0  0  0
  189.1810  178.1210  138.8190 C   0  0  0  0  0  3  0  0  0  0  0  0
  190.5180  176.7450  137.0480 C   0  0  0  0  0  0  0  0  0  0  0  0
  189.8600  176.3930  135.7610 C   0  0  0  0  0  2  0  0  0  0  0  0
  188.6550  175.6210  136.0180 N   0  0  0  0  0  2  0  0  0  0  0  0
  187.5840  176.2630  135.2740 C   0  0  0  0  0  2  0  0  0  0  0  0
  185.3150  176.8000  135.6680 F   0  0  0  0  0  0  0  0  0  0  0  0
  186.5770  176.8900  136.2230 C   0  0  0  0  0  0  0  0  0  0  0  0
  186.5890  176.2230  137.4350 F   0  0  0  0  0  0  0  0  0  0  0  0
  186.8880  178.2220  136.4270 F   0  0  0  0  0  0  0  0  0  0  0  0
  189.1350  177.6270  145.5110 C   0  0  0  0  0  2  0  0  0  0  0  0
  189.4180  176.8910  146.8050 C   0  0  0  0  0  2  0  0  0  0  0  0
  187.9120  177.8580  148.5140 C   0  0  0  0  0  1  0  0  0  0  0  0
  189.3240  177.8590  147.9640 C   0  0  0  0  0  2  0  0  0  0  0  0
  1  8  1  0  0  0  0
  1  4  1  0  0  0  0
  2  3  1  0  0  0  0
  3  7  2  0  0  0  0
  5  8  2  0  0  0  0
  6 14  1  0  0  0  0
  7 10  1  0  0  0  0
  8  9  1  0  0  0  0
 10 41  1  0  0  0  0
 11  5  1  0  0  0  0
 11 13  1  0  0  0  0
 12  2  2  0  0  0  0
 12  6  1  0  0  0  0
 13  6  1  0  0  0  0
 13  1  2  0  0  0  0
 14  7  1  6  0  0  0
 14  4  1  0  0  0  0
 15 16  1  0  0  0  0
 16  5  1  0  0  0  0
 17 19  1  0  0  0  0
 18 20  1  0  0  0  0
 18 15  1  0  0  0  0
 19 16  1  0  0  0  0
 20 17  1  0  0  0  0
 21 20  1  0  0  0  0
 22 24  1  0  0  0  0
 23 28  1  0  0  0  0
 23 22  1  0  0  0  0
 24 21  1  0  0  0  0
 24 25  2  0  0  0  0
 26 23  2  0  0  0  0
 27 28  1  0  0  0  0
 29 28  1  0  0  0  0
 30 32  2  0  0  0  0
 32 12  1  0  0  0  0
 33 31  1  0  0  0  0
 33 30  2  0  0  0  0
 34 35  1  0  0  0  0
 34 33  1  0  0  0  0
 36 35  1  0  0  0  0
 36 38  1  0  0  0  0
 37 38  1  0  0  0  0
 38 40  1  0  0  0  0
 38 39  1  0  0  0  0
 41 42  1  0  0  0  0
 42 44  1  0  0  0  0
 44 43  1  0  0  0  0
M  END
>  <MODEL>
7

>  <REMARK>
 VINA RESULT:      -6.7      3.665     10.525
  Name = 
  12 active torsions:
  status: ('A' for Active; 'I' for Inactive)
    1  A    between atoms: N_4  and  C_19
    2  A    between atoms: N_4  and  C_26
    3  A    between atoms: C_8  and  N_30
    4  A    between atoms: C_8  and  C_42
    5  A    between atoms: C_10  and  C_26
    6  A    between atoms: C_12  and  C_32
    7  A    between atoms: C_15  and  C_24
    8  A    between atoms: C_17  and  C_20
    9  A    between atoms: C_17  and  N_44
   10  A    between atoms: C_19  and  C_41
   11  A    between atoms: C_22  and  C_42
   12  A    between atoms: C_31  and  C_38
                            x       y       z     vdW  Elec       q    Type
                         _______ _______ _______ _____ _____    ______ ____

>  <TORSDO>
F 12

$$$$
=
 OpenBabel11042410413D

 44 47  0  0  1  0  0  0  0  0999 V2000
  187.1620  178.4850  143.3800 C   0  0  0  0  0  0  0  0  0  0  0  0
  190.5470  176.3910  141.8240 C   0  0  0  0  0  3  0  0  0  0  0  0
  190.5800  176.1410  143.2370 N   0  0  0  0  0  0  0  0  0  0  0  0
  188.1290  178.4020  144.3580 O   0  0  0  0  0  0  0  0  0  0  0  0
  185.2580  178.1900  142.1310 C   0  0  0  0  0  0  0  0  0  0  0  0
  189.1140  178.2400  142.2460 N   0  0  0  0  0  0  0  0  0  0  0  0
  190.0580  176.9390  144.1260 C   0  0  0  0  0  0  0  0  0  0  0  0
  185.7790  178.3840  143.4220 C   0  0  0  0  0  0  0  0  0  0  0  0
  184.9840  178.3420  144.6820 C   0  0  0  0  0  1  0  0  0  0  0  0
  190.1720  176.5880  145.5080 N   0  0  0  0  0  2  0  0  0  0  0  0
  186.5500  178.1250  141.0060 S   0  0  0  0  0  0  0  0  0  0  0  0
  189.8470  177.4110  141.3320 C   0  0  0  0  0  0  0  0  0  0  0  0
  187.7140  178.4580  142.1690 C   0  0  0  0  0  0  0  0  0  0  0  0
  189.4040  178.2420  143.7030 C   0  0  2  0  0  3  0  0  0  0  0  0
  183.5350  177.9270  140.3010 C   0  0  0  0  0  2  0  0  0  0  0  0
  183.8010  178.0120  141.8130 C   0  0  0  0  0  3  0  0  0  0  0  0
  181.4720  178.9600  142.1660 C   0  0  0  0  0  2  0  0  0  0  0  0
  182.1160  178.3780  139.9380 C   0  0  0  0  0  2  0  0  0  0  0  0
  182.9730  179.1230  142.4610 C   0  0  0  0  0  2  0  0  0  0  0  0
  181.1950  178.0640  141.0330 N   0  0  0  0  0  0  0  0  0  0  0  0
  179.8470  178.3770  140.5820 C   0  0  0  0  0  2  0  0  0  0  0  0
  179.3220  178.6850  138.0880 N   0  0  0  0  0  2  0  0  0  0  0  0
  179.3780  180.1190  138.0380 C   0  0  0  0  0  0  0  0  0  0  0  0
  179.6080  177.8340  139.2070 C   0  0  0  0  0  0  0  0  0  0  0  0
  179.5980  176.5850  139.0390 O   0  0  0  0  0  0  0  0  0  0  0  0
  178.9480  180.7180  136.9740 N   0  0  0  0  0  2  0  0  0  0  0  0
  181.2190  181.6550  138.6950 C   0  0  0  0  0  1  0  0  0  0  0  0
  179.9700  180.9260  139.1540 C   0  0  0  0  0  3  0  0  0  0  0  0
  178.9640  181.9160  139.7080 C   0  0  0  0  0  1  0  0  0  0  0  0
  190.2120  176.7520  139.0130 C   0  0  0  0  0  0  0  0  0  0  0  0
  191.6030  175.0030  138.3290 O   0  0  0  0  0  1  0  0  0  0  0  0
  189.8810  177.6650  139.8850 C   0  0  0  0  0  3  0  0  0  0  0  0
  190.5220  175.8510  138.1210 C   0  0  0  0  0  0  0  0  0  0  0  0
  189.6990  175.7200  136.8880 C   0  0  0  0  0  2  0  0  0  0  0  0
  189.3110  177.0380  136.4120 N   0  0  0  0  0  2  0  0  0  0  0  0
  187.8710  177.0030  136.2200 C   0  0  0  0  0  2  0  0  0  0  0  0
  186.2990  178.3270  137.3890 F   0  0  0  0  0  0  0  0  0  0  0  0
  187.2740  178.3870  136.4130 C   0  0  0  0  0  0  0  0  0  0  0  0
  188.2580  179.2760  136.8070 F   0  0  0  0  0  0  0  0  0  0  0  0
  186.7050  178.8240  135.2310 F   0  0  0  0  0  0  0  0  0  0  0  0
  189.8070  177.4850  146.5930 C   0  0  0  0  0  2  0  0  0  0  0  0
  188.9530  176.7380  147.5990 C   0  0  0  0  0  2  0  0  0  0  0  0
  187.2810  178.5630  147.6250 C   0  0  0  0  0  1  0  0  0  0  0  0
  188.2230  177.7340  148.4750 C   0  0  0  0  0  2  0  0  0  0  0  0
  1  8  1  0  0  0  0
  1  4  1  0  0  0  0
  2  3  1  0  0  0  0
  3  7  2  0  0  0  0
  5  8  2  0  0  0  0
  6 14  1  0  0  0  0
  7 10  1  0  0  0  0
  8  9  1  0  0  0  0
 10 41  1  0  0  0  0
 11  5  1  0  0  0  0
 11 13  1  0  0  0  0
 12  2  2  0  0  0  0
 12  6  1  0  0  0  0
 13  6  1  0  0  0  0
 13  1  2  0  0  0  0
 14  7  1  1  0  0  0
 14  4  1  0  0  0  0
 15 16  1  0  0  0  0
 16  5  1  0  0  0  0
 16 19  1  0  0  0  0
 17 19  1  0  0  0  0
 18 15  1  0  0  0  0
 18 20  1  0  0  0  0
 20 17  1  0  0  0  0
 21 20  1  0  0  0  0
 22 24  1  0  0  0  0
 23 22  1  0  0  0  0
 23 28  1  0  0  0  0
 24 21  1  0  0  0  0
 25 24  2  0  0  0  0
 26 23  2  0  0  0  0
 27 28  1  0  0  0  0
 28 29  1  0  0  0  0
 30 32  2  0  0  0  0
 32 12  1  0  0  0  0
 33 31  1  0  0  0  0
 33 30  2  0  0  0  0
 34 33  1  0  0  0  0
 35 34  1  0  0  0  0
 36 35  1  0  0  0  0
 36 38  1  0  0  0  0
 38 39  1  0  0  0  0
 38 37  1  0  0  0  0
 40 38  1  0  0  0  0
 41 42  1  0  0  0  0
 42 44  1  0  0  0  0
 43 44  1  0  0  0  0
M  END
>  <MODEL>
8

>  <REMARK>
 VINA RESULT:      -6.7      3.567     10.758
  Name = 
  12 active torsions:
  status: ('A' for Active; 'I' for Inactive)
    1  A    between atoms: N_4  and  C_19
    2  A    between atoms: N_4  and  C_26
    3  A    between atoms: C_8  and  N_30
    4  A    between atoms: C_8  and  C_42
    5  A    between atoms: C_10  and  C_26
    6  A    between atoms: C_12  and  C_32
    7  A    between atoms: C_15  and  C_24
    8  A    between atoms: C_17  and  C_20
    9  A    between atoms: C_17  and  N_44
   10  A    between atoms: C_19  and  C_41
   11  A    between atoms: C_22  and  C_42
   12  A    between atoms: C_31  and  C_38
                            x       y       z     vdW  Elec       q    Type
                         _______ _______ _______ _____ _____    ______ ____

>  <TORSDO>
F 12

$$$$
=
 OpenBabel11042410413D

 44 47  0  0  1  0  0  0  0  0999 V2000
  187.1230  178.7970  142.4390 C   0  0  0  0  0  0  0  0  0  0  0  0
  190.3990  176.2680  141.3760 C   0  0  0  0  0  3  0  0  0  0  0  0
  190.2340  176.0770  142.7890 N   0  0  0  0  0  0  0  0  0  0  0  0
  187.9500  178.6480  143.5310 O   0  0  0  0  0  0  0  0  0  0  0  0
  185.3590  178.6650  140.9740 C   0  0  0  0  0  0  0  0  0  0  0  0
  189.1530  178.2830  141.5620 N   0  0  0  0  0  0  0  0  0  0  0  0
  189.7070  176.9670  143.5820 C   0  0  0  0  0  0  0  0  0  0  0  0
  185.7420  178.8550  142.3120 C   0  0  0  0  0  0  0  0  0  0  0  0
  184.8030  178.9590  143.4650 C   0  0  0  0  0  1  0  0  0  0  0  0
  189.6130  176.6670  144.9780 N   0  0  0  0  0  2  0  0  0  0  0  0
  186.7600  178.4050  140.0190 S   0  0  0  0  0  0  0  0  0  0  0  0
  189.8870  177.3370  140.7710 C   0  0  0  0  0  0  0  0  0  0  0  0
  187.8080  178.6550  141.3070 C   0  0  0  0  0  0  0  0  0  0  0  0
  189.2660  178.3160  143.0430 C   0  0  2  0  0  3  0  0  0  0  0  0
  183.3730  177.2120  140.3960 C   0  0  0  0  0  2  0  0  0  0  0  0
  183.9390  178.6390  140.4840 C   0  0  0  0  0  3  0  0  0  0  0  0
  182.3770  179.3700  138.6210 C   0  0  0  0  0  2  0  0  0  0  0  0
  182.2520  177.0980  139.3570 C   0  0  0  0  0  2  0  0  0  0  0  0
  183.8240  179.3660  139.1430 C   0  0  0  0  0  2  0  0  0  0  0  0
  181.5210  178.3650  139.2690 N   0  0  0  0  0  0  0  0  0  0  0  0
  180.3850  178.1600  138.3820 C   0  0  0  0  0  2  0  0  0  0  0  0
  179.2360  180.1540  137.2450 N   0  0  0  0  0  2  0  0  0  0  0  0
  179.6630  179.9010  135.8980 C   0  0  0  0  0  0  0  0  0  0  0  0
  179.4700  179.3450  138.4070 C   0  0  0  0  0  0  0  0  0  0  0  0
  178.9350  179.6790  139.4980 O   0  0  0  0  0  0  0  0  0  0  0  0
  179.4730  180.8210  135.0070 N   0  0  0  0  0  2  0  0  0  0  0  0
  179.3150  177.8120  134.5960 C   0  0  0  0  0  1  0  0  0  0  0  0
  180.2610  178.5880  135.4920 C   0  0  0  0  0  3  0  0  0  0  0  0
  181.5930  178.7860  134.7940 C   0  0  0  0  0  1  0  0  0  0  0  0
  190.2630  176.5230  138.5030 C   0  0  0  0  0  0  0  0  0  0  0  0
  191.1630  174.4340  137.9710 O   0  0  0  0  0  1  0  0  0  0  0  0
  190.1230  177.5220  139.3330 C   0  0  0  0  0  3  0  0  0  0  0  0
  190.3870  175.5420  137.6520 C   0  0  0  0  0  0  0  0  0  0  0  0
  189.6760  175.6030  136.3460 C   0  0  0  0  0  2  0  0  0  0  0  0
  189.2410  176.9650  136.0860 N   0  0  0  0  0  2  0  0  0  0  0  0
  187.9170  176.8730  135.4940 C   0  0  0  0  0  2  0  0  0  0  0  0
  186.5580  178.6380  134.7000 F   0  0  0  0  0  0  0  0  0  0  0  0
  187.0860  178.0930  135.8540 C   0  0  0  0  0  0  0  0  0  0  0  0
  186.0520  177.7290  136.6980 F   0  0  0  0  0  0  0  0  0  0  0  0
  187.8800  179.0370  136.4790 F   0  0  0  0  0  0  0  0  0  0  0  0
  189.2290  177.6470  145.9830 C   0  0  0  0  0  2  0  0  0  0  0  0
  188.1340  177.0690  146.8570 C   0  0  0  0  0  2  0  0  0  0  0  0
  186.1310  178.5230  146.8720 C   0  0  0  0  0  1  0  0  0  0  0  0
  187.4280  178.1930  147.5850 C   0  0  0  0  0  2  0  0  0  0  0  0
  1  4  1  0  0  0  0
  2  3  1  0  0  0  0
  3  7  2  0  0  0  0
  5  8  2  0  0  0  0
  6 14  1  0  0  0  0
  7 10  1  0  0  0  0
  8  1  1  0  0  0  0
  8  9  1  0  0  0  0
 10 41  1  0  0  0  0
 11  5  1  0  0  0  0
 11 13  1  0  0  0  0
 12  2  2  0  0  0  0
 12  6  1  0  0  0  0
 13  6  1  0  0  0  0
 13  1  2  0  0  0  0
 14  4  1  1  0  0  0
 14  7  1  0  0  0  0
 15 16  1  0  0  0  0
 16  5  1  0  0  0  0
 17 19  1  0  0  0  0
 17 20  1  0  0  0  0
 18 15  1  0  0  0  0
 19 16  1  0  0  0  0
 20 18  1  0  0  0  0
 21 24  1  0  0  0  0
 21 20  1  0  0  0  0
 22 24  1  0  0  0  0
 23 22  1  0  0  0  0
 24 25  2  0  0  0  0
 26 23  2  0  0  0  0
 27 28  1  0  0  0  0
 28 23  1  0  0  0  0
 29 28  1  0  0  0  0
 30 32  2  0  0  0  0
 32 12  1  0  0  0  0
 33 31  1  0  0  0  0
 33 30  2  0  0  0  0
 34 33  1  0  0  0  0
 35 34  1  0  0  0  0
 36 38  1  0  0  0  0
 36 35  1  0  0  0  0
 37 38  1  0  0  0  0
 38 40  1  0  0  0  0
 38 39  1  0  0  0  0
 41 42  1  0  0  0  0
 42 44  1  0  0  0  0
 43 44  1  0  0  0  0
M  END
>  <MODEL>
9

>  <REMARK>
 VINA RESULT:      -6.6      3.588     10.413
  Name = 
  12 active torsions:
  status: ('A' for Active; 'I' for Inactive)
    1  A    between atoms: N_4  and  C_19
    2  A    between atoms: N_4  and  C_26
    3  A    between atoms: C_8  and  N_30
    4  A    between atoms: C_8  and  C_42
    5  A    between atoms: C_10  and  C_26
    6  A    between atoms: C_12  and  C_32
    7  A    between atoms: C_15  and  C_24
    8  A    between atoms: C_17  and  C_20
    9  A    between atoms: C_17  and  N_44
   10  A    between atoms: C_19  and  C_41
   11  A    between atoms: C_22  and  C_42
   12  A    between atoms: C_31  and  C_38
                            x       y       z     vdW  Elec       q    Type
                         _______ _______ _______ _____ _____    ______ ____

>  <TORSDO>
F 12

$$$$
