=
 OpenBabel11042412323D

 68 75  0  0  1  0  0  0  0  0999 V2000
  191.2130  174.2110  135.4200 N   0  0  0  0  0  2  0  0  0  0  0  0
  189.9820  174.5760  134.7380 C   0  0  1  0  0  3  0  0  0  0  0  0
  188.8700  173.8770  135.2930 O   0  0  0  0  0  0  0  0  0  0  0  0
  187.3840  172.0550  135.2780 C   0  0  0  0  0  2  0  0  0  0  0  0
  188.5150  172.6000  134.8630 C   0  0  0  0  0  3  0  0  0  0  0  0
  189.7690  176.0830  134.7870 C   0  0  0  0  0  2  0  0  0  0  0  0
  183.6990  178.8630  139.5270 N   0  0  0  0  0  0  0  0  0  0  0  0
  187.3630  176.0160  134.5940 C   0  0  0  0  0  3  0  0  0  0  0  0
  185.9770  177.3630  136.9980 N   0  0  0  0  0  0  0  0  0  0  0  0
  187.3540  177.5370  137.3290 C   0  0  0  0  0  3  0  0  0  0  0  0
  184.9000  178.4900  138.9960 C   0  0  0  0  0  3  0  0  0  0  0  0
  184.8890  177.8400  137.7700 C   0  0  0  0  0  0  0  0  0  0  0  0
  188.4130  176.3890  135.3300 C   0  0  0  0  0  0  0  0  0  0  0  0
  182.5230  177.9800  137.6650 N   0  0  0  0  0  0  0  0  0  0  0  0
  183.8990  176.9340  135.8940 N   0  0  0  0  0  2  0  0  0  0  0  0
  185.3290  176.8070  135.8470 C   0  0  0  0  0  0  0  0  0  0  0  0
  185.9280  176.2170  134.8200 C   0  0  0  0  0  3  0  0  0  0  0  0
  188.3880  177.1190  136.6070 C   0  0  0  0  0  3  0  0  0  0  0  0
  183.7100  177.5990  137.1350 C   0  0  0  0  0  0  0  0  0  0  0  0
  182.5160  178.6160  138.8740 C   0  0  0  0  0  0  0  0  0  0  0  0
  181.2030  179.0360  139.4750 C   0  0  2  0  0  3  0  0  0  0  0  0
  180.9030  180.5420  139.3340 C   0  0  2  0  0  3  0  0  0  0  0  0
  179.8850  180.9610  140.1990 O   0  0  0  0  0  1  0  0  0  0  0  0
  180.6780  181.0210  137.8820 C   0  0  1  0  0  0  0  0  0  0  0  0
  179.6590  183.1970  137.7900 C   0  0  0  0  0  2  0  0  0  0  0  0
  179.3340  181.7310  137.7810 C   0  0  0  0  0  2  0  0  0  0  0  0
  181.7170  181.9980  137.5480 N   0  0  0  0  0  2  0  0  0  0  0  0
  181.0510  183.2540  137.2220 C   0  0  0  0  0  2  0  0  0  0  0  0
  180.7450  179.8810  136.8530 C   0  0  0  0  0  2  0  0  0  0  0  0
  179.3550  178.1630  135.8530 N   0  0  0  0  0  1  0  0  0  0  0  0
  179.4090  179.5730  136.1910 C   0  0  0  0  0  2  0  0  0  0  0  0
  180.9910  178.4660  140.8830 C   0  0  0  0  0  2  0  0  0  0  0  0
  180.4520  179.4980  141.8620 C   0  0  0  0  0  2  0  0  0  0  0  0
  178.9360  177.9140  141.6240 C   0  0  0  0  0  1  0  0  0  0  0  0
  179.1600  179.1410  142.2460 O   0  0  0  0  0  0  0  0  0  0  0  0
  190.9380  174.3650  136.8390 C   0  0  0  0  0  2  0  0  0  0  0  0
  194.0490  174.7420  137.0440 C   0  0  1  0  0  3  0  0  0  0  0  0
  194.2780  175.5730  138.3050 C   0  0  1  0  0  3  0  0  0  0  0  0
  193.2990  175.5620  135.9720 C   0  0  2  0  0  3  0  0  0  0  0  0
  193.0570  175.5710  139.1840 C   0  0  0  0  0  3  0  0  0  0  0  0
  194.2510  176.3790  135.1110 C   0  0  0  0  0  1  0  0  0  0  0  0
  191.3810  175.7510  137.3330 C   0  0  1  0  0  3  0  0  0  0  0  0
  191.7840  175.7090  138.7880 C   0  0  0  0  0  0  0  0  0  0  0  0
  192.3240  176.4330  136.5180 O   0  0  0  0  0  0  0  0  0  0  0  0
  195.3670  175.0870  139.0340 O   0  0  0  0  0  0  0  0  0  0  0  0
  195.5500  176.0150  140.0630 C   0  0  0  0  0  1  0  0  0  0  0  0
  195.2450  174.2160  136.5400 O   0  0  0  0  0  0  0  0  0  0  0  0
  195.1730  172.8490  136.8080 C   0  0  0  0  0  1  0  0  0  0  0  0
  190.8100  175.7490  139.7970 O   0  0  0  0  0  0  0  0  0  0  0  0
  188.8320  176.9620  140.2090 C   0  0  0  0  0  1  0  0  0  0  0  0
  190.3360  176.9240  140.4640 C   0  0  2  0  0  0  0  0  0  0  0  0
  190.9410  178.1770  139.8130 C   0  0  0  0  0  2  0  0  0  0  0  0
  190.3110  178.5050  138.6260 F   0  0  0  0  0  0  0  0  0  0  0  0
  190.6470  176.8190  141.8510 O   0  0  0  0  0  0  0  0  0  0  0  0
  189.4750  175.4650  143.4690 O   0  0  0  0  0  1  0  0  0  0  0  0
  189.1110  177.9020  143.3900 C   0  0  1  0  0  3  0  0  0  0  0  0
  189.5110  176.6160  142.6720 C   0  0  1  0  0  0  0  0  0  0  0  0
  188.1970  177.2820  142.3340 C   0  0  0  0  0  2  0  0  0  0  0  0
  188.5660  177.6610  144.8080 C   0  0  1  0  0  3  0  0  0  0  0  0
  189.4670  177.1790  147.1670 C   0  0  0  0  0  2  0  0  0  0  0  0
  190.1310  175.9600  146.9290 O   0  0  0  0  0  0  0  0  0  0  0  0
  191.7750  176.9850  145.5140 C   0  0  0  0  0  2  0  0  0  0  0  0
  191.5000  176.2580  146.8300 C   0  0  0  0  0  2  0  0  0  0  0  0
  190.9870  178.2940  145.4870 C   0  0  0  0  0  2  0  0  0  0  0  0
  189.5310  178.0930  145.9360 C   0  0  1  0  0  3  0  0  0  0  0  0
  186.2000  177.0450  144.9300 O   0  0  0  0  0  0  0  0  0  0  0  0
  187.1030  178.1270  144.9700 C   0  0  1  0  0  3  0  0  0  0  0  0
  186.4710  177.5890  146.1990 C   0  0  0  0  0  2  0  0  0  0  0  0
  1 36  1  0  0  0  0
  2  6  1  1  0  0  0
  2  3  1  0  0  0  0
  2  1  1  0  0  0  0
  5  4  2  0  0  0  0
  5  3  1  0  0  0  0
  6 13  1  0  0  0  0
  8 17  1  0  0  0  0
  8 13  2  0  0  0  0
  9 10  1  0  0  0  0
  9 12  1  0  0  0  0
 11  7  1  0  0  0  0
 12 11  2  0  0  0  0
 13 18  1  0  0  0  0
 14 20  1  0  0  0  0
 15 19  1  0  0  0  0
 16 15  1  0  0  0  0
 16  9  1  0  0  0  0
 17 16  2  0  0  0  0
 18 10  2  0  0  0  0
 19 14  2  0  0  0  0
 19 12  1  0  0  0  0
 20 21  1  0  0  0  0
 20  7  2  0  0  0  0
 21 32  1  1  0  0  0
 22 21  1  0  0  0  0
 22 23  1  1  0  0  0
 24 29  1  6  0  0  0
 24 22  1  0  0  0  0
 26 25  1  0  0  0  0
 26 24  1  0  0  0  0
 27 24  1  0  0  0  0
 28 27  1  0  0  0  0
 28 25  1  0  0  0  0
 30 31  1  0  0  0  0
 31 29  1  0  0  0  0
 32 33  1  0  0  0  0
 33 35  1  0  0  0  0
 34 35  1  0  0  0  0
 37 47  1  6  0  0  0
 37 38  1  0  0  0  0
 38 45  1  1  0  0  0
 38 40  1  0  0  0  0
 39 41  1  1  0  0  0
 39 44  1  0  0  0  0
 39 37  1  0  0  0  0
 42 36  1  6  0  0  0
 42 43  1  0  0  0  0
 43 40  2  0  0  0  0
 43 49  1  0  0  0  0
 44 42  1  0  0  0  0
 45 46  1  0  0  0  0
 47 48  1  0  0  0  0
 49 51  1  0  0  0  0
 51 50  1  6  0  0  0
 51 54  1  0  0  0  0
 52 51  1  0  0  0  0
 53 52  1  0  0  0  0
 54 57  1  0  0  0  0
 56 59  1  1  0  0  0
 57 56  1  0  0  0  0
 57 55  1  1  0  0  0
 58 57  1  0  0  0  0
 58 56  1  0  0  0  0
 59 67  1  6  0  0  0
 61 60  1  0  0  0  0
 62 63  1  0  0  0  0
 63 61  1  0  0  0  0
 64 62  1  0  0  0  0
 64 65  1  0  0  0  0
 65 59  1  6  0  0  0
 65 60  1  0  0  0  0
 66 67  1  0  0  0  0
 66 68  1  0  0  0  0
 67 68  1  1  0  0  0
M  END
>  <MODEL>
1

>  <REMARK>
 VINA RESULT:      -5.0      0.000      0.000
  Name = 
  25 active torsions:
  status: ('A' for Active; 'I' for Inactive)
    1  A    between atoms: C_1  and  C_12
    2  A    between atoms: C_1  and  C_23
    3  A    between atoms: C_1  and  C_65
    4  A    between atoms: C_2  and  C_8
    5  A    between atoms: C_2  and  C_23
    6  A    between atoms: C_6  and  O_49
    7  A    between atoms: C_8  and  C_67
    8  A    between atoms: C_12  and  C_42
    9  A    between atoms: O_13  and  C_17
   10  A    between atoms: C_14  and  C_39
   11  A    between atoms: N_20  and  C_31
   12  A    between atoms: N_20  and  C_56
   13  A    between atoms: O_24  and  C_25
   14  A    between atoms: O_24  and  C_64
   15  A    between atoms: C_26  and  C_40
   16  A    between atoms: C_26  and  C_56
   17  A    between atoms: C_31  and  C_43
   18  A    between atoms: C_33  and  C_39
   19  A    between atoms: C_38  and  C_64
   20  A    between atoms: C_39  and  C_68
   21  A    between atoms: C_42  and  O_51
   22  A    between atoms: C_48  and  O_63
   23  A    between atoms: C_53  and  O_66
   24  A    between atoms: C_56  and  O_66
   25  A    between atoms: O_63  and  C_64
                            x       y       z     vdW  Elec       q    Type
                         _______ _______ _______ _____ _____    ______ ____

>  <TORSDO>
F 25

$$$$
=
 OpenBabel11042412323D

 68 75  0  0  1  0  0  0  0  0999 V2000
  191.5460  174.6030  135.3730 N   0  0  0  0  0  2  0  0  0  0  0  0
  190.3320  174.8840  134.6230 C   0  0  1  0  0  3  0  0  0  0  0  0
  189.2270  174.1630  135.1630 O   0  0  0  0  0  0  0  0  0  0  0  0
  188.6450  171.9360  134.6840 C   0  0  0  0  0  2  0  0  0  0  0  0
  189.3020  172.7990  135.4390 C   0  0  0  0  0  3  0  0  0  0  0  0
  190.0560  176.3810  134.5940 C   0  0  0  0  0  2  0  0  0  0  0  0
  183.8960  179.5500  138.9600 N   0  0  0  0  0  0  0  0  0  0  0  0
  187.6710  176.0050  134.5950 C   0  0  0  0  0  3  0  0  0  0  0  0
  186.2320  177.7370  136.7040 N   0  0  0  0  0  0  0  0  0  0  0  0
  187.5900  178.1380  136.8840 C   0  0  0  0  0  3  0  0  0  0  0  0
  185.1100  179.1930  138.4480 C   0  0  0  0  0  3  0  0  0  0  0  0
  185.1270  178.2660  137.4150 C   0  0  0  0  0  0  0  0  0  0  0  0
  188.6970  176.6590  135.1440 C   0  0  0  0  0  0  0  0  0  0  0  0
  182.7600  178.1140  137.4490 N   0  0  0  0  0  0  0  0  0  0  0  0
  184.1780  176.8250  135.8850 N   0  0  0  0  0  2  0  0  0  0  0  0
  185.6090  176.8490  135.7670 C   0  0  0  0  0  0  0  0  0  0  0  0
  186.2330  176.0950  134.8690 C   0  0  0  0  0  3  0  0  0  0  0  0
  188.6360  177.6720  136.2100 C   0  0  0  0  0  3  0  0  0  0  0  0
  183.9620  177.7480  136.9420 C   0  0  0  0  0  0  0  0  0  0  0  0
  182.7260  179.0220  138.4710 C   0  0  0  0  0  0  0  0  0  0  0  0
  181.3970  179.4290  139.0470 C   0  0  2  0  0  3  0  0  0  0  0  0
  180.3000  178.3550  138.9090 C   0  0  2  0  0  3  0  0  0  0  0  0
  179.2090  178.8100  138.1590 O   0  0  0  0  0  1  0  0  0  0  0  0
  179.8690  177.6990  140.2400 C   0  0  1  0  0  0  0  0  0  0  0  0
  181.1410  178.5180  142.1090 C   0  0  0  0  0  2  0  0  0  0  0  0
  181.1000  177.4150  141.0910 C   0  0  0  0  0  2  0  0  0  0  0  0
  179.0350  178.6510  140.9780 N   0  0  0  0  0  2  0  0  0  0  0  0
  179.6990  178.9260  142.2480 C   0  0  0  0  0  2  0  0  0  0  0  0
  179.0600  176.4080  140.0430 C   0  0  0  0  0  2  0  0  0  0  0  0
  179.4010  174.1220  140.7780 N   0  0  0  0  0  1  0  0  0  0  0  0
  179.1080  175.4660  141.2380 C   0  0  0  0  0  2  0  0  0  0  0  0
  180.9770  180.8400  138.6160 C   0  0  0  0  0  2  0  0  0  0  0  0
  180.2610  181.6040  139.7190 C   0  0  0  0  0  2  0  0  0  0  0  0
  179.6360  182.6170  137.8620 C   0  0  0  0  0  1  0  0  0  0  0  0
  179.2210  182.3490  139.1660 O   0  0  0  0  0  0  0  0  0  0  0  0
  191.1730  174.6850  136.7750 C   0  0  0  0  0  2  0  0  0  0  0  0
  194.2500  175.3130  136.7700 C   0  0  1  0  0  3  0  0  0  0  0  0
  194.5190  176.0500  138.0800 C   0  0  1  0  0  3  0  0  0  0  0  0
  193.3480  176.1530  135.8400 C   0  0  2  0  0  3  0  0  0  0  0  0
  193.3810  175.8670  139.0480 C   0  0  0  0  0  3  0  0  0  0  0  0
  194.1540  177.1200  134.9870 C   0  0  0  0  0  1  0  0  0  0  0  0
  191.5440  176.0580  137.3580 C   0  0  1  0  0  3  0  0  0  0  0  0
  192.0720  175.9260  138.7670 C   0  0  0  0  0  0  0  0  0  0  0  0
  192.3570  176.8860  136.5380 O   0  0  0  0  0  0  0  0  0  0  0  0
  195.7010  175.6000  138.6750 O   0  0  0  0  0  0  0  0  0  0  0  0
  195.2840  174.7370  139.6910 C   0  0  0  0  0  1  0  0  0  0  0  0
  195.4360  174.9380  136.1270 O   0  0  0  0  0  0  0  0  0  0  0  0
  195.1720  173.6730  135.6020 C   0  0  0  0  0  1  0  0  0  0  0  0
  191.1880  175.7950  139.8490 O   0  0  0  0  0  0  0  0  0  0  0  0
  189.5910  177.4950  140.1830 C   0  0  0  0  0  1  0  0  0  0  0  0
  190.8300  176.8280  140.7730 C   0  0  2  0  0  0  0  0  0  0  0  0
  191.9380  177.8900  140.8290 C   0  0  0  0  0  2  0  0  0  0  0  0
  192.5950  177.8970  142.0460 F   0  0  0  0  0  0  0  0  0  0  0  0
  190.5710  176.2350  142.0440 O   0  0  0  0  0  0  0  0  0  0  0  0
  188.5500  175.4890  143.1320 O   0  0  0  0  0  1  0  0  0  0  0  0
  189.2990  177.8260  143.3660 C   0  0  1  0  0  3  0  0  0  0  0  0
  189.2840  176.5330  142.5560 C   0  0  1  0  0  0  0  0  0  0  0  0
  188.5240  177.7380  142.0530 C   0  0  0  0  0  2  0  0  0  0  0  0
  188.3490  177.7950  144.5760 C   0  0  1  0  0  3  0  0  0  0  0  0
  188.7250  177.5270  147.1050 C   0  0  0  0  0  2  0  0  0  0  0  0
  189.5910  176.4160  147.1050 O   0  0  0  0  0  0  0  0  0  0  0  0
  191.3630  177.6360  146.0420 C   0  0  0  0  0  2  0  0  0  0  0  0
  190.8900  176.9160  147.3030 C   0  0  0  0  0  2  0  0  0  0  0  0
  190.4270  178.8090  145.7490 C   0  0  0  0  0  2  0  0  0  0  0  0
  188.9500  178.4030  145.8650 C   0  0  1  0  0  3  0  0  0  0  0  0
  186.0120  177.1870  144.1790 O   0  0  0  0  0  0  0  0  0  0  0  0
  186.9210  178.2640  144.2230 C   0  0  1  0  0  3  0  0  0  0  0  0
  185.9560  178.0090  145.3190 C   0  0  0  0  0  2  0  0  0  0  0  0
  1 36  1  0  0  0  0
  2  6  1  1  0  0  0
  2  3  1  0  0  0  0
  2  1  1  0  0  0  0
  3  5  1  0  0  0  0
  4  5  2  0  0  0  0
  6 13  1  0  0  0  0
  8 17  1  0  0  0  0
  8 13  2  0  0  0  0
  9 10  1  0  0  0  0
  9 12  1  0  0  0  0
 11  7  1  0  0  0  0
 12 11  2  0  0  0  0
 13 18  1  0  0  0  0
 14 20  1  0  0  0  0
 15 19  1  0  0  0  0
 16 15  1  0  0  0  0
 16  9  1  0  0  0  0
 17 16  2  0  0  0  0
 18 10  2  0  0  0  0
 19 12  1  0  0  0  0
 19 14  2  0  0  0  0
 20  7  2  0  0  0  0
 20 21  1  0  0  0  0
 21 32  1  6  0  0  0
 22 23  1  1  0  0  0
 22 21  1  0  0  0  0
 22 24  1  0  0  0  0
 24 29  1  6  0  0  0
 24 27  1  0  0  0  0
 24 26  1  0  0  0  0
 25 28  1  0  0  0  0
 26 25  1  0  0  0  0
 27 28  1  0  0  0  0
 29 31  1  0  0  0  0
 30 31  1  0  0  0  0
 32 33  1  0  0  0  0
 34 35  1  0  0  0  0
 35 33  1  0  0  0  0
 37 47  1  6  0  0  0
 37 38  1  0  0  0  0
 38 45  1  1  0  0  0
 38 40  1  0  0  0  0
 39 41  1  1  0  0  0
 39 44  1  0  0  0  0
 39 37  1  0  0  0  0
 42 36  1  6  0  0  0
 42 43  1  0  0  0  0
 43 40  2  0  0  0  0
 43 49  1  0  0  0  0
 44 42  1  0  0  0  0
 45 46  1  0  0  0  0
 48 47  1  0  0  0  0
 49 51  1  0  0  0  0
 51 50  1  6  0  0  0
 51 52  1  0  0  0  0
 51 54  1  0  0  0  0
 52 53  1  0  0  0  0
 54 57  1  0  0  0  0
 56 59  1  1  0  0  0
 57 55  1  1  0  0  0
 57 56  1  0  0  0  0
 58 57  1  0  0  0  0
 58 56  1  0  0  0  0
 59 67  1  6  0  0  0
 61 60  1  0  0  0  0
 61 63  1  0  0  0  0
 62 63  1  0  0  0  0
 64 65  1  0  0  0  0
 64 62  1  0  0  0  0
 65 59  1  6  0  0  0
 65 60  1  0  0  0  0
 66 67  1  0  0  0  0
 66 68  1  0  0  0  0
 67 68  1  1  0  0  0
M  END
>  <MODEL>
2

>  <REMARK>
 VINA RESULT:      -4.6      1.416      2.467
  Name = 
  25 active torsions:
  status: ('A' for Active; 'I' for Inactive)
    1  A    between atoms: C_1  and  C_12
    2  A    between atoms: C_1  and  C_23
    3  A    between atoms: C_1  and  C_65
    4  A    between atoms: C_2  and  C_8
    5  A    between atoms: C_2  and  C_23
    6  A    between atoms: C_6  and  O_49
    7  A    between atoms: C_8  and  C_67
    8  A    between atoms: C_12  and  C_42
    9  A    between atoms: O_13  and  C_17
   10  A    between atoms: C_14  and  C_39
   11  A    between atoms: N_20  and  C_31
   12  A    between atoms: N_20  and  C_56
   13  A    between atoms: O_24  and  C_25
   14  A    between atoms: O_24  and  C_64
   15  A    between atoms: C_26  and  C_40
   16  A    between atoms: C_26  and  C_56
   17  A    between atoms: C_31  and  C_43
   18  A    between atoms: C_33  and  C_39
   19  A    between atoms: C_38  and  C_64
   20  A    between atoms: C_39  and  C_68
   21  A    between atoms: C_42  and  O_51
   22  A    between atoms: C_48  and  O_63
   23  A    between atoms: C_53  and  O_66
   24  A    between atoms: C_56  and  O_66
   25  A    between atoms: O_63  and  C_64
                            x       y       z     vdW  Elec       q    Type
                         _______ _______ _______ _____ _____    ______ ____

>  <TORSDO>
F 25

$$$$
=
 OpenBabel11042412323D

 68 75  0  0  1  0  0  0  0  0999 V2000
  184.3800  179.7820  142.2730 N   0  0  0  0  0  2  0  0  0  0  0  0
  184.9950  179.3120  143.5030 C   0  0  1  0  0  3  0  0  0  0  0  0
  184.0950  179.4440  144.6010 O   0  0  0  0  0  0  0  0  0  0  0  0
  185.4570  178.4770  146.2550 C   0  0  0  0  0  2  0  0  0  0  0  0
  184.2490  178.7040  145.7710 C   0  0  0  0  0  3  0  0  0  0  0  0
  185.4730  177.8740  143.3480 C   0  0  0  0  0  2  0  0  0  0  0  0
  191.9130  175.7700  138.7500 N   0  0  0  0  0  0  0  0  0  0  0  0
  186.1600  178.4560  141.1080 C   0  0  0  0  0  3  0  0  0  0  0  0
  188.8230  177.1050  140.3320 N   0  0  0  0  0  0  0  0  0  0  0  0
  188.6280  176.6090  141.6560 C   0  0  0  0  0  3  0  0  0  0  0  0
  191.0080  175.9580  139.7540 C   0  0  0  0  0  3  0  0  0  0  0  0
  189.9050  176.7580  139.4870 C   0  0  0  0  0  0  0  0  0  0  0  0
  186.4480  177.7800  142.2230 C   0  0  0  0  0  0  0  0  0  0  0  0
  190.6480  177.1200  137.2630 N   0  0  0  0  0  0  0  0  0  0  0  0
  188.5640  178.0950  138.1710 N   0  0  0  0  0  2  0  0  0  0  0  0
  188.0140  177.9340  139.4870 C   0  0  0  0  0  0  0  0  0  0  0  0
  186.8750  178.5230  139.8290 C   0  0  0  0  0  3  0  0  0  0  0  0
  187.6070  176.9030  142.4550 C   0  0  0  0  0  3  0  0  0  0  0  0
  189.7510  177.3200  138.2580 C   0  0  0  0  0  0  0  0  0  0  0  0
  191.7430  176.3400  137.5110 C   0  0  0  0  0  0  0  0  0  0  0  0
  192.7510  176.1180  136.4170 C   0  0  2  0  0  3  0  0  0  0  0  0
  192.3130  175.0790  135.3640 C   0  0  2  0  0  3  0  0  0  0  0  0
  191.1680  175.4850  134.6690 O   0  0  0  0  0  1  0  0  0  0  0  0
  192.2000  173.6330  135.8950 C   0  0  1  0  0  0  0  0  0  0  0  0
  189.9530  173.0760  136.5460 C   0  0  0  0  0  2  0  0  0  0  0  0
  191.2530  173.5990  137.0880 C   0  0  0  0  0  2  0  0  0  0  0  0
  191.6140  172.7970  134.8440 N   0  0  0  0  0  2  0  0  0  0  0  0
  190.3710  172.2400  135.3670 C   0  0  0  0  0  2  0  0  0  0  0  0
  193.5560  173.0260  136.2870 C   0  0  0  0  0  2  0  0  0  0  0  0
  194.8550  171.0420  136.7970 N   0  0  0  0  0  1  0  0  0  0  0  0
  193.5290  171.5120  136.4430 C   0  0  0  0  0  2  0  0  0  0  0  0
  194.1730  175.9290  136.9570 C   0  0  0  0  0  2  0  0  0  0  0  0
  195.2260  175.9350  135.8590 C   0  0  0  0  0  2  0  0  0  0  0  0
  195.7480  178.0680  135.6520 C   0  0  0  0  0  1  0  0  0  0  0  0
  196.2170  176.8640  136.1740 O   0  0  0  0  0  0  0  0  0  0  0  0
  183.6340  178.6510  141.7470 C   0  0  0  0  0  2  0  0  0  0  0  0
  180.5680  178.0660  141.4100 C   0  0  1  0  0  3  0  0  0  0  0  0
  180.4120  177.4990  140.0000 C   0  0  1  0  0  3  0  0  0  0  0  0
  181.0230  179.5400  141.3640 C   0  0  2  0  0  3  0  0  0  0  0  0
  181.7380  177.0540  139.4460 C   0  0  0  0  0  3  0  0  0  0  0  0
  179.8450  180.4960  141.2440 C   0  0  0  0  0  1  0  0  0  0  0  0
  183.0750  178.9670  140.3510 C   0  0  1  0  0  3  0  0  0  0  0  0
  182.9040  177.7080  139.5340 C   0  0  0  0  0  0  0  0  0  0  0  0
  181.9320  179.8100  140.3120 O   0  0  0  0  0  0  0  0  0  0  0  0
  179.5260  176.4180  139.9900 O   0  0  0  0  0  0  0  0  0  0  0  0
  180.2810  175.3420  139.5160 C   0  0  0  0  0  1  0  0  0  0  0  0
  179.3990  177.9160  142.1660 O   0  0  0  0  0  0  0  0  0  0  0  0
  179.8440  177.6500  143.4620 C   0  0  0  0  0  1  0  0  0  0  0  0
  184.0020  177.1330  138.8760 O   0  0  0  0  0  0  0  0  0  0  0  0
  185.4170  177.3000  136.9990 C   0  0  0  0  0  1  0  0  0  0  0  0
  184.0650  176.7880  137.4880 C   0  0  2  0  0  0  0  0  0  0  0  0
  182.9810  177.5460  136.7080 C   0  0  0  0  0  2  0  0  0  0  0  0
  182.8320  178.8490  137.1500 F   0  0  0  0  0  0  0  0  0  0  0  0
  183.9460  175.3730  137.3620 O   0  0  0  0  0  0  0  0  0  0  0  0
  183.4700  174.7650  135.0760 O   0  0  0  0  0  1  0  0  0  0  0  0
  182.0940  173.8670  136.9130 C   0  0  1  0  0  3  0  0  0  0  0  0
  183.0080  174.9680  136.3810 C   0  0  1  0  0  0  0  0  0  0  0  0
  181.5350  175.2470  136.5740 C   0  0  0  0  0  2  0  0  0  0  0  0
  181.7060  172.8320  135.8440 C   0  0  1  0  0  3  0  0  0  0  0  0
  183.1440  170.9850  134.7780 C   0  0  0  0  0  2  0  0  0  0  0  0
  184.3620  171.6770  134.6390 O   0  0  0  0  0  0  0  0  0  0  0  0
  184.6900  171.8370  137.0110 C   0  0  0  0  0  2  0  0  0  0  0  0
  185.1910  171.2520  135.6910 C   0  0  0  0  0  2  0  0  0  0  0  0
  183.2690  171.3390  137.2760 C   0  0  0  0  0  2  0  0  0  0  0  0
  182.3820  171.4530  136.0260 C   0  0  1  0  0  3  0  0  0  0  0  0
  179.7760  171.5540  135.0470 O   0  0  0  0  0  0  0  0  0  0  0  0
  180.1860  172.7960  135.5740 C   0  0  1  0  0  3  0  0  0  0  0  0
  179.4890  171.7850  136.4050 C   0  0  0  0  0  2  0  0  0  0  0  0
  1  2  1  0  0  0  0
  2  6  1  6  0  0  0
  2  3  1  0  0  0  0
  3  5  1  0  0  0  0
  5  4  2  0  0  0  0
  7 11  1  0  0  0  0
  8 13  2  0  0  0  0
  9 10  1  0  0  0  0
 10 18  2  0  0  0  0
 12 11  2  0  0  0  0
 12  9  1  0  0  0  0
 13 18  1  0  0  0  0
 13  6  1  0  0  0  0
 14 20  1  0  0  0  0
 14 19  2  0  0  0  0
 15 19  1  0  0  0  0
 15 16  1  0  0  0  0
 16 17  2  0  0  0  0
 16  9  1  0  0  0  0
 17  8  1  0  0  0  0
 19 12  1  0  0  0  0
 20  7  2  0  0  0  0
 21 32  1  1  0  0  0
 21 20  1  0  0  0  0
 22 23  1  1  0  0  0
 22 24  1  0  0  0  0
 22 21  1  0  0  0  0
 24 29  1  1  0  0  0
 24 26  1  0  0  0  0
 25 26  1  0  0  0  0
 27 28  1  0  0  0  0
 27 24  1  0  0  0  0
 28 25  1  0  0  0  0
 29 31  1  0  0  0  0
 31 30  1  0  0  0  0
 33 35  1  0  0  0  0
 33 32  1  0  0  0  0
 34 35  1  0  0  0  0
 36  1  1  0  0  0  0
 37 47  1  6  0  0  0
 38 45  1  1  0  0  0
 38 37  1  0  0  0  0
 39 41  1  6  0  0  0
 39 37  1  0  0  0  0
 40 43  2  0  0  0  0
 40 38  1  0  0  0  0
 42 36  1  1  0  0  0
 43 42  1  0  0  0  0
 44 42  1  0  0  0  0
 44 39  1  0  0  0  0
 46 45  1  0  0  0  0
 47 48  1  0  0  0  0
 49 43  1  0  0  0  0
 51 50  1  6  0  0  0
 51 49  1  0  0  0  0
 52 53  1  0  0  0  0
 52 51  1  0  0  0  0
 54 51  1  0  0  0  0
 56 59  1  6  0  0  0
 57 55  1  6  0  0  0
 57 58  1  0  0  0  0
 57 56  1  0  0  0  0
 57 54  1  0  0  0  0
 58 56  1  0  0  0  0
 59 67  1  1  0  0  0
 60 65  1  0  0  0  0
 61 60  1  0  0  0  0
 61 63  1  0  0  0  0
 62 64  1  0  0  0  0
 63 62  1  0  0  0  0
 65 59  1  6  0  0  0
 65 64  1  0  0  0  0
 66 67  1  0  0  0  0
 66 68  1  0  0  0  0
 67 68  1  1  0  0  0
M  END
>  <MODEL>
3

>  <REMARK>
 VINA RESULT:      -4.6      3.472     12.023
  Name = 
  25 active torsions:
  status: ('A' for Active; 'I' for Inactive)
    1  A    between atoms: C_1  and  C_12
    2  A    between atoms: C_1  and  C_23
    3  A    between atoms: C_1  and  C_65
    4  A    between atoms: C_2  and  C_8
    5  A    between atoms: C_2  and  C_23
    6  A    between atoms: C_6  and  O_49
    7  A    between atoms: C_8  and  C_67
    8  A    between atoms: C_12  and  C_42
    9  A    between atoms: O_13  and  C_17
   10  A    between atoms: C_14  and  C_39
   11  A    between atoms: N_20  and  C_31
   12  A    between atoms: N_20  and  C_56
   13  A    between atoms: O_24  and  C_25
   14  A    between atoms: O_24  and  C_64
   15  A    between atoms: C_26  and  C_40
   16  A    between atoms: C_26  and  C_56
   17  A    between atoms: C_31  and  C_43
   18  A    between atoms: C_33  and  C_39
   19  A    between atoms: C_38  and  C_64
   20  A    between atoms: C_39  and  C_68
   21  A    between atoms: C_42  and  O_51
   22  A    between atoms: C_48  and  O_63
   23  A    between atoms: C_53  and  O_66
   24  A    between atoms: C_56  and  O_66
   25  A    between atoms: O_63  and  C_64
                            x       y       z     vdW  Elec       q    Type
                         _______ _______ _______ _____ _____    ______ ____

>  <TORSDO>
F 25

$$$$
=
 OpenBabel11042412323D

 68 75  0  0  1  0  0  0  0  0999 V2000
  185.2290  174.0760  136.0590 N   0  0  0  0  0  2  0  0  0  0  0  0
  185.9970  173.1090  136.8260 C   0  0  1  0  0  3  0  0  0  0  0  0
  185.1380  172.3020  137.6270 O   0  0  0  0  0  0  0  0  0  0  0  0
  183.4810  171.0120  136.5710 C   0  0  0  0  0  2  0  0  0  0  0  0
  183.8070  172.0770  137.2820 C   0  0  0  0  0  3  0  0  0  0  0  0
  186.8570  172.2550  135.9030 C   0  0  0  0  0  2  0  0  0  0  0  0
  194.9510  172.8090  134.7930 N   0  0  0  0  0  0  0  0  0  0  0  0
  188.6040  173.4490  137.0680 C   0  0  0  0  0  3  0  0  0  0  0  0
  191.3780  172.9370  135.8190 N   0  0  0  0  0  0  0  0  0  0  0  0
  190.5360  172.1560  134.9720 C   0  0  0  0  0  3  0  0  0  0  0  0
  193.6260  172.4830  134.7420 C   0  0  0  0  0  3  0  0  0  0  0  0
  192.7780  173.0850  135.6610 C   0  0  0  0  0  0  0  0  0  0  0  0
  188.2960  172.6100  136.0750 C   0  0  0  0  0  0  0  0  0  0  0  0
  194.5850  174.2960  136.6070 N   0  0  0  0  0  0  0  0  0  0  0  0
  192.2550  174.4860  137.4170 N   0  0  0  0  0  2  0  0  0  0  0  0
  191.0890  173.8160  136.9150 C   0  0  0  0  0  0  0  0  0  0  0  0
  189.8950  174.0240  137.4570 C   0  0  0  0  0  3  0  0  0  0  0  0
  189.2190  172.0260  135.0890 C   0  0  0  0  0  3  0  0  0  0  0  0
  193.2710  173.9700  136.5680 C   0  0  0  0  0  0  0  0  0  0  0  0
  195.4350  173.7080  135.7120 C   0  0  0  0  0  0  0  0  0  0  0  0
  196.8980  174.0560  135.7510 C   0  0  2  0  0  3  0  0  0  0  0  0
  197.7440  173.1070  136.6250 C   0  0  2  0  0  3  0  0  0  0  0  0
  199.1030  173.1590  136.2940 O   0  0  0  0  0  1  0  0  0  0  0  0
  197.2110  171.6590  136.7060 C   0  0  1  0  0  0  0  0  0  0  0  0
  197.9290  170.3210  134.8420 C   0  0  0  0  0  2  0  0  0  0  0  0
  196.7990  171.1880  135.3180 C   0  0  0  0  0  2  0  0  0  0  0  0
  198.2980  170.7890  137.1600 N   0  0  0  0  0  2  0  0  0  0  0  0
  198.5340  169.7980  136.1170 C   0  0  0  0  0  2  0  0  0  0  0  0
  196.0340  171.5030  137.6820 C   0  0  0  0  0  2  0  0  0  0  0  0
  194.3990  169.7280  137.4410 N   0  0  0  0  0  1  0  0  0  0  0  0
  195.6940  170.0550  138.0060 C   0  0  0  0  0  2  0  0  0  0  0  0
  197.1410  175.5500  136.0000 C   0  0  0  0  0  2  0  0  0  0  0  0
  196.5090  176.4340  134.9350 C   0  0  0  0  0  2  0  0  0  0  0  0
  196.4140  178.6330  134.7990 C   0  0  0  0  0  1  0  0  0  0  0  0
  195.9400  177.5530  135.5410 O   0  0  0  0  0  0  0  0  0  0  0  0
  186.1160  174.5390  135.0060 C   0  0  0  0  0  2  0  0  0  0  0  0
  187.7040  176.4160  136.9590 C   0  0  1  0  0  3  0  0  0  0  0  0
  186.7710  177.5920  137.2450 C   0  0  1  0  0  3  0  0  0  0  0  0
  188.1330  176.4020  135.4760 C   0  0  2  0  0  3  0  0  0  0  0  0
  185.3550  177.2650  136.8580 C   0  0  0  0  0  3  0  0  0  0  0  0
  189.3560  177.2720  135.2280 C   0  0  0  0  0  1  0  0  0  0  0  0
  185.9180  176.0410  134.7470 C   0  0  1  0  0  3  0  0  0  0  0  0
  184.9520  176.6420  135.7410 C   0  0  0  0  0  0  0  0  0  0  0  0
  187.1020  176.8110  134.5940 O   0  0  0  0  0  0  0  0  0  0  0  0
  186.8060  177.9400  138.5980 O   0  0  0  0  0  0  0  0  0  0  0  0
  185.6630  177.3540  139.1480 C   0  0  0  0  0  1  0  0  0  0  0  0
  188.8150  176.4100  137.8110 O   0  0  0  0  0  0  0  0  0  0  0  0
  189.1460  177.7560  137.9730 C   0  0  0  0  0  1  0  0  0  0  0  0
  183.5680  176.5100  135.5570 O   0  0  0  0  0  0  0  0  0  0  0  0
  183.1530  178.1400  137.2070 C   0  0  0  0  0  1  0  0  0  0  0  0
  182.5520  176.9490  136.4640 C   0  0  2  0  0  0  0  0  0  0  0  0
  182.2690  175.8580  137.5060 C   0  0  0  0  0  2  0  0  0  0  0  0
  183.0420  174.7290  137.3040 F   0  0  0  0  0  0  0  0  0  0  0  0
  181.3930  177.3100  135.7150 O   0  0  0  0  0  0  0  0  0  0  0  0
  179.7480  176.7710  137.3960 O   0  0  0  0  0  1  0  0  0  0  0  0
  180.5450  179.0880  137.1340 C   0  0  1  0  0  3  0  0  0  0  0  0
  180.3000  177.7130  136.5200 C   0  0  1  0  0  0  0  0  0  0  0  0
  179.4360  178.8810  136.1030 C   0  0  0  0  0  2  0  0  0  0  0  0
  179.9660  179.2320  138.5520 C   0  0  1  0  0  3  0  0  0  0  0  0
  181.5310  178.3030  140.3680 C   0  0  0  0  0  2  0  0  0  0  0  0
  181.2300  179.1880  141.4220 O   0  0  0  0  0  0  0  0  0  0  0  0
  178.9870  178.3670  141.6420 C   0  0  0  0  0  2  0  0  0  0  0  0
  180.3640  178.5030  142.2900 C   0  0  0  0  0  2  0  0  0  0  0  0
  179.1160  177.5650  140.3470 C   0  0  0  0  0  2  0  0  0  0  0  0
  180.2970  178.0490  139.4910 C   0  0  1  0  0  3  0  0  0  0  0  0
  179.8230  181.6570  138.2460 O   0  0  0  0  0  0  0  0  0  0  0  0
  180.1940  180.6380  139.1480 C   0  0  1  0  0  3  0  0  0  0  0  0
  178.9310  181.3980  139.3030 C   0  0  0  0  0  2  0  0  0  0  0  0
  1  2  1  0  0  0  0
  2  6  1  6  0  0  0
  2  3  1  0  0  0  0
  4  5  2  0  0  0  0
  5  3  1  0  0  0  0
  6 13  1  0  0  0  0
  7 20  2  0  0  0  0
  8 17  1  0  0  0  0
  9 16  1  0  0  0  0
 10 18  2  0  0  0  0
 10  9  1  0  0  0  0
 11  7  1  0  0  0  0
 11 12  2  0  0  0  0
 12  9  1  0  0  0  0
 12 19  1  0  0  0  0
 13  8  2  0  0  0  0
 16 15  1  0  0  0  0
 16 17  2  0  0  0  0
 18 13  1  0  0  0  0
 19 14  2  0  0  0  0
 19 15  1  0  0  0  0
 20 21  1  0  0  0  0
 20 14  1  0  0  0  0
 21 32  1  1  0  0  0
 21 22  1  0  0  0  0
 22 23  1  6  0  0  0
 22 24  1  0  0  0  0
 24 27  1  0  0  0  0
 24 29  1  1  0  0  0
 25 26  1  0  0  0  0
 25 28  1  0  0  0  0
 26 24  1  0  0  0  0
 28 27  1  0  0  0  0
 29 31  1  0  0  0  0
 30 31  1  0  0  0  0
 33 35  1  0  0  0  0
 33 32  1  0  0  0  0
 34 35  1  0  0  0  0
 36  1  1  0  0  0  0
 37 38  1  0  0  0  0
 37 47  1  1  0  0  0
 38 45  1  1  0  0  0
 39 41  1  1  0  0  0
 39 37  1  0  0  0  0
 40 38  1  0  0  0  0
 42 36  1  1  0  0  0
 42 43  1  0  0  0  0
 43 40  2  0  0  0  0
 44 42  1  0  0  0  0
 44 39  1  0  0  0  0
 45 46  1  0  0  0  0
 47 48  1  0  0  0  0
 49 43  1  0  0  0  0
 49 51  1  0  0  0  0
 51 50  1  1  0  0  0
 51 52  1  0  0  0  0
 53 52  1  0  0  0  0
 54 51  1  0  0  0  0
 54 57  1  0  0  0  0
 56 59  1  1  0  0  0
 57 56  1  0  0  0  0
 57 55  1  1  0  0  0
 58 57  1  0  0  0  0
 58 56  1  0  0  0  0
 59 67  1  1  0  0  0
 60 61  1  0  0  0  0
 61 63  1  0  0  0  0
 62 63  1  0  0  0  0
 64 62  1  0  0  0  0
 65 59  1  1  0  0  0
 65 64  1  0  0  0  0
 65 60  1  0  0  0  0
 66 67  1  0  0  0  0
 66 68  1  0  0  0  0
 67 68  1  1  0  0  0
M  END
>  <MODEL>
4

>  <REMARK>
 VINA RESULT:      -3.5      4.223     11.971
  Name = 
  25 active torsions:
  status: ('A' for Active; 'I' for Inactive)
    1  A    between atoms: C_1  and  C_12
    2  A    between atoms: C_1  and  C_23
    3  A    between atoms: C_1  and  C_65
    4  A    between atoms: C_2  and  C_8
    5  A    between atoms: C_2  and  C_23
    6  A    between atoms: C_6  and  O_49
    7  A    between atoms: C_8  and  C_67
    8  A    between atoms: C_12  and  C_42
    9  A    between atoms: O_13  and  C_17
   10  A    between atoms: C_14  and  C_39
   11  A    between atoms: N_20  and  C_31
   12  A    between atoms: N_20  and  C_56
   13  A    between atoms: O_24  and  C_25
   14  A    between atoms: O_24  and  C_64
   15  A    between atoms: C_26  and  C_40
   16  A    between atoms: C_26  and  C_56
   17  A    between atoms: C_31  and  C_43
   18  A    between atoms: C_33  and  C_39
   19  A    between atoms: C_38  and  C_64
   20  A    between atoms: C_39  and  C_68
   21  A    between atoms: C_42  and  O_51
   22  A    between atoms: C_48  and  O_63
   23  A    between atoms: C_53  and  O_66
   24  A    between atoms: C_56  and  O_66
   25  A    between atoms: O_63  and  C_64
                            x       y       z     vdW  Elec       q    Type
                         _______ _______ _______ _____ _____    ______ ____

>  <TORSDO>
F 25

$$$$
=
 OpenBabel11042412323D

 68 75  0  0  1  0  0  0  0  0999 V2000
  192.2670  174.3670  136.1540 N   0  0  0  0  0  2  0  0  0  0  0  0
  191.4170  174.1210  135.0000 C   0  0  1  0  0  3  0  0  0  0  0  0
  190.5310  173.0310  135.2480 O   0  0  0  0  0  0  0  0  0  0  0  0
  192.1320  171.4350  134.6010 C   0  0  0  0  0  2  0  0  0  0  0  0
  190.9070  171.7100  135.0160 C   0  0  0  0  0  3  0  0  0  0  0  0
  190.6510  175.3810  134.6200 C   0  0  0  0  0  2  0  0  0  0  0  0
  183.5780  177.3110  138.2660 N   0  0  0  0  0  0  0  0  0  0  0  0
  188.5580  174.2070  134.8840 C   0  0  0  0  0  3  0  0  0  0  0  0
  186.5040  175.8600  136.4870 N   0  0  0  0  0  0  0  0  0  0  0  0
  187.6220  176.7470  136.4560 C   0  0  0  0  0  3  0  0  0  0  0  0
  184.8610  177.2710  137.8020 C   0  0  0  0  0  3  0  0  0  0  0  0
  185.2530  176.1500  137.0840 C   0  0  0  0  0  0  0  0  0  0  0  0
  189.2590  175.3120  135.1520 C   0  0  0  0  0  0  0  0  0  0  0  0
  183.0950  175.1910  137.3140 N   0  0  0  0  0  0  0  0  0  0  0  0
  184.9480  174.0850  136.1020 N   0  0  0  0  0  2  0  0  0  0  0  0
  186.2810  174.5760  135.8910 C   0  0  0  0  0  0  0  0  0  0  0  0
  187.1710  173.8620  135.2120 C   0  0  0  0  0  3  0  0  0  0  0  0
  188.7940  176.5030  135.8800 C   0  0  0  0  0  3  0  0  0  0  0  0
  184.3700  175.1400  136.8580 C   0  0  0  0  0  0  0  0  0  0  0  0
  182.6950  176.2860  138.0270 C   0  0  0  0  0  0  0  0  0  0  0  0
  181.2830  176.3490  138.5450 C   0  0  2  0  0  3  0  0  0  0  0  0
  180.5930  177.7090  138.3130 C   0  0  2  0  0  3  0  0  0  0  0  0
  180.8170  178.1990  137.0220 O   0  0  0  0  0  1  0  0  0  0  0  0
  180.8720  178.7670  139.4040 C   0  0  1  0  0  0  0  0  0  0  0  0
  181.1760  180.9660  138.4790 C   0  0  0  0  0  2  0  0  0  0  0  0
  181.9330  179.7420  138.9100 C   0  0  0  0  0  2  0  0  0  0  0  0
  179.6440  179.5330  139.6320 N   0  0  0  0  0  2  0  0  0  0  0  0
  179.9320  180.9290  139.3250 C   0  0  0  0  0  2  0  0  0  0  0  0
  181.3090  178.1540  140.7430 C   0  0  0  0  0  2  0  0  0  0  0  0
  181.1520  179.5720  142.7040 N   0  0  0  0  0  1  0  0  0  0  0  0
  180.4440  178.5760  141.9230 C   0  0  0  0  0  2  0  0  0  0  0  0
  181.1540  175.7940  139.9680 C   0  0  0  0  0  2  0  0  0  0  0  0
  179.7610  175.2620  140.2690 C   0  0  0  0  0  2  0  0  0  0  0  0
  179.0550  173.8290  138.7480 C   0  0  0  0  0  1  0  0  0  0  0  0
  179.0310  175.1820  139.0850 O   0  0  0  0  0  0  0  0  0  0  0  0
  191.3660  174.6920  137.2460 C   0  0  0  0  0  2  0  0  0  0  0  0
  194.3820  175.1730  137.9740 C   0  0  1  0  0  3  0  0  0  0  0  0
  194.3660  176.0050  139.2550 C   0  0  1  0  0  3  0  0  0  0  0  0
  193.7970  175.9730  136.7900 C   0  0  2  0  0  3  0  0  0  0  0  0
  193.0150  175.9570  139.9150 C   0  0  0  0  0  3  0  0  0  0  0  0
  194.8520  176.8250  136.1030 C   0  0  0  0  0  1  0  0  0  0  0  0
  191.6710  176.0900  137.8060 C   0  0  1  0  0  3  0  0  0  0  0  0
  191.8230  176.0540  139.3090 C   0  0  0  0  0  0  0  0  0  0  0  0
  192.7150  176.8080  137.1630 O   0  0  0  0  0  0  0  0  0  0  0  0
  195.3320  175.5520  140.1590 O   0  0  0  0  0  0  0  0  0  0  0  0
  196.1970  176.6350  140.3300 C   0  0  0  0  0  1  0  0  0  0  0  0
  195.6630  174.6900  137.6800 O   0  0  0  0  0  0  0  0  0  0  0  0
  195.6050  173.3260  137.9690 C   0  0  0  0  0  1  0  0  0  0  0  0
  190.6910  176.0560  140.1380 O   0  0  0  0  0  0  0  0  0  0  0  0
  189.2240  177.8730  140.4510 C   0  0  0  0  0  1  0  0  0  0  0  0
  190.3500  177.0660  141.0930 C   0  0  2  0  0  0  0  0  0  0  0  0
  191.5360  178.0200  141.2960 C   0  0  0  0  0  2  0  0  0  0  0  0
  192.2420  177.7380  142.4510 F   0  0  0  0  0  0  0  0  0  0  0  0
  189.9390  176.4330  142.3030 O   0  0  0  0  0  0  0  0  0  0  0  0
  187.5800  176.7780  142.6750 O   0  0  0  0  0  1  0  0  0  0  0  0
  189.2030  177.2460  144.4690 C   0  0  1  0  0  3  0  0  0  0  0  0
  188.9020  177.1220  142.9790 C   0  0  1  0  0  0  0  0  0  0  0  0
  189.1580  178.4850  143.5780 C   0  0  0  0  0  2  0  0  0  0  0  0
  187.9470  177.1490  145.3520 C   0  0  1  0  0  3  0  0  0  0  0  0
  189.6590  176.1380  146.9830 C   0  0  0  0  0  2  0  0  0  0  0  0
  190.5650  177.2110  147.0790 O   0  0  0  0  0  0  0  0  0  0  0  0
  188.9730  178.6250  148.1850 C   0  0  0  0  0  2  0  0  0  0  0  0
  190.2930  177.8630  148.2940 C   0  0  0  0  0  2  0  0  0  0  0  0
  187.8430  177.6360  147.8970 C   0  0  0  0  0  2  0  0  0  0  0  0
  188.2230  176.6430  146.7870 C   0  0  1  0  0  3  0  0  0  0  0  0
  185.8800  178.1500  144.5050 O   0  0  0  0  0  0  0  0  0  0  0  0
  187.0510  178.4020  145.2510 C   0  0  1  0  0  3  0  0  0  0  0  0
  185.7330  178.2080  145.9030 C   0  0  0  0  0  2  0  0  0  0  0  0
  1 36  1  0  0  0  0
  2  6  1  1  0  0  0
  2  3  1  0  0  0  0
  2  1  1  0  0  0  0
  4  5  2  0  0  0  0
  5  3  1  0  0  0  0
  6 13  1  0  0  0  0
  8 13  2  0  0  0  0
  8 17  1  0  0  0  0
  9 12  1  0  0  0  0
 10  9  1  0  0  0  0
 11  7  1  0  0  0  0
 12 11  2  0  0  0  0
 13 18  1  0  0  0  0
 14 20  1  0  0  0  0
 15 19  1  0  0  0  0
 16 15  1  0  0  0  0
 16  9  1  0  0  0  0
 17 16  2  0  0  0  0
 18 10  2  0  0  0  0
 19 12  1  0  0  0  0
 19 14  2  0  0  0  0
 20  7  2  0  0  0  0
 20 21  1  0  0  0  0
 21 32  1  1  0  0  0
 22 23  1  6  0  0  0
 22 21  1  0  0  0  0
 22 24  1  0  0  0  0
 24 27  1  0  0  0  0
 24 29  1  1  0  0  0
 25 26  1  0  0  0  0
 25 28  1  0  0  0  0
 26 24  1  0  0  0  0
 28 27  1  0  0  0  0
 29 31  1  0  0  0  0
 31 30  1  0  0  0  0
 32 33  1  0  0  0  0
 34 35  1  0  0  0  0
 35 33  1  0  0  0  0
 37 47  1  6  0  0  0
 37 38  1  0  0  0  0
 38 40  1  0  0  0  0
 38 45  1  1  0  0  0
 39 41  1  1  0  0  0
 39 44  1  0  0  0  0
 39 37  1  0  0  0  0
 42 36  1  6  0  0  0
 42 43  1  0  0  0  0
 43 40  2  0  0  0  0
 43 49  1  0  0  0  0
 44 42  1  0  0  0  0
 45 46  1  0  0  0  0
 47 48  1  0  0  0  0
 49 51  1  0  0  0  0
 51 50  1  6  0  0  0
 51 52  1  0  0  0  0
 51 54  1  0  0  0  0
 52 53  1  0  0  0  0
 54 57  1  0  0  0  0
 56 59  1  1  0  0  0
 57 55  1  6  0  0  0
 57 58  1  0  0  0  0
 57 56  1  0  0  0  0
 58 56  1  0  0  0  0
 59 67  1  1  0  0  0
 60 61  1  0  0  0  0
 61 63  1  0  0  0  0
 62 63  1  0  0  0  0
 64 62  1  0  0  0  0
 65 59  1  6  0  0  0
 65 60  1  0  0  0  0
 65 64  1  0  0  0  0
 66 67  1  0  0  0  0
 66 68  1  0  0  0  0
 67 68  1  1  0  0  0
M  END
>  <MODEL>
5

>  <REMARK>
 VINA RESULT:      -3.4      1.980      2.654
  Name = 
  25 active torsions:
  status: ('A' for Active; 'I' for Inactive)
    1  A    between atoms: C_1  and  C_12
    2  A    between atoms: C_1  and  C_23
    3  A    between atoms: C_1  and  C_65
    4  A    between atoms: C_2  and  C_8
    5  A    between atoms: C_2  and  C_23
    6  A    between atoms: C_6  and  O_49
    7  A    between atoms: C_8  and  C_67
    8  A    between atoms: C_12  and  C_42
    9  A    between atoms: O_13  and  C_17
   10  A    between atoms: C_14  and  C_39
   11  A    between atoms: N_20  and  C_31
   12  A    between atoms: N_20  and  C_56
   13  A    between atoms: O_24  and  C_25
   14  A    between atoms: O_24  and  C_64
   15  A    between atoms: C_26  and  C_40
   16  A    between atoms: C_26  and  C_56
   17  A    between atoms: C_31  and  C_43
   18  A    between atoms: C_33  and  C_39
   19  A    between atoms: C_38  and  C_64
   20  A    between atoms: C_39  and  C_68
   21  A    between atoms: C_42  and  O_51
   22  A    between atoms: C_48  and  O_63
   23  A    between atoms: C_53  and  O_66
   24  A    between atoms: C_56  and  O_66
   25  A    between atoms: O_63  and  C_64
                            x       y       z     vdW  Elec       q    Type
                         _______ _______ _______ _____ _____    ______ ____

>  <TORSDO>
F 25

$$$$
=
 OpenBabel11042412323D

 68 75  0  0  1  0  0  0  0  0999 V2000
  188.2280  177.8780  145.0090 N   0  0  0  0  0  2  0  0  0  0  0  0
  187.2670  177.4160  145.9980 C   0  0  1  0  0  3  0  0  0  0  0  0
  187.9340  176.8940  147.1450 O   0  0  0  0  0  0  0  0  0  0  0  0
  187.2600  177.5970  149.2850 C   0  0  0  0  0  2  0  0  0  0  0  0
  188.1310  177.6580  148.2930 C   0  0  0  0  0  3  0  0  0  0  0  0
  186.3080  178.5360  146.3770 C   0  0  0  0  0  2  0  0  0  0  0  0
  182.0590  179.6910  139.4740 N   0  0  0  0  0  0  0  0  0  0  0  0
  183.9910  178.1940  145.7900 C   0  0  0  0  0  3  0  0  0  0  0  0
  183.4140  178.9900  142.8650 N   0  0  0  0  0  0  0  0  0  0  0  0
  184.8110  179.2630  142.9640 C   0  0  0  0  0  3  0  0  0  0  0  0
  183.0080  179.6530  140.4540 C   0  0  0  0  0  3  0  0  0  0  0  0
  182.6360  179.1510  141.6930 C   0  0  0  0  0  0  0  0  0  0  0  0
  185.1940  178.6100  145.3870 C   0  0  0  0  0  0  0  0  0  0  0  0
  180.4310  178.7450  140.9190 N   0  0  0  0  0  0  0  0  0  0  0  0
  181.1740  178.2300  143.2210 N   0  0  0  0  0  2  0  0  0  0  0  0
  182.4790  178.4200  143.7910 C   0  0  0  0  0  0  0  0  0  0  0  0
  182.7280  178.0900  145.0520 C   0  0  0  0  0  3  0  0  0  0  0  0
  185.5630  179.0940  144.0470 C   0  0  0  0  0  3  0  0  0  0  0  0
  181.3650  178.7130  141.8990 C   0  0  0  0  0  0  0  0  0  0  0  0
  180.7790  179.2410  139.6930 C   0  0  0  0  0  0  0  0  0  0  0  0
  179.7480  179.2890  138.5990 C   0  0  2  0  0  3  0  0  0  0  0  0
  180.0520  178.3540  137.4120 C   0  0  2  0  0  3  0  0  0  0  0  0
  178.9530  178.2170  136.5550 O   0  0  0  0  0  1  0  0  0  0  0  0
  180.6670  176.9920  137.8050 C   0  0  1  0  0  0  0  0  0  0  0  0
  181.0420  175.5790  135.8960 C   0  0  0  0  0  2  0  0  0  0  0  0
  180.0360  175.8860  136.9680 C   0  0  0  0  0  2  0  0  0  0  0  0
  182.0970  177.0200  137.4900 N   0  0  0  0  0  2  0  0  0  0  0  0
  182.3560  175.9590  136.5230 C   0  0  0  0  0  2  0  0  0  0  0  0
  180.5120  176.6690  139.2990 C   0  0  0  0  0  2  0  0  0  0  0  0
  178.9450  175.9910  141.0220 N   0  0  0  0  0  1  0  0  0  0  0  0
  179.2850  175.8270  139.6210 C   0  0  0  0  0  2  0  0  0  0  0  0
  179.3690  180.7240  138.2110 C   0  0  0  0  0  2  0  0  0  0  0  0
  179.5970  181.0140  136.7350 C   0  0  0  0  0  2  0  0  0  0  0  0
  180.7680  182.8440  137.1110 C   0  0  0  0  0  1  0  0  0  0  0  0
  180.8640  181.5670  136.5620 O   0  0  0  0  0  0  0  0  0  0  0  0
  187.7100  177.4450  143.7230 C   0  0  0  0  0  2  0  0  0  0  0  0
  190.8060  177.8540  144.0550 C   0  0  1  0  0  3  0  0  0  0  0  0
  191.4290  177.3310  142.7620 C   0  0  1  0  0  3  0  0  0  0  0  0
  190.1480  176.7070  144.8520 C   0  0  2  0  0  3  0  0  0  0  0  0
  190.3940  177.1970  141.6780 C   0  0  0  0  0  3  0  0  0  0  0  0
  191.1420  176.0020  145.7620 C   0  0  0  0  0  1  0  0  0  0  0  0
  188.5690  176.3080  143.1450 C   0  0  1  0  0  3  0  0  0  0  0  0
  189.1570  176.6960  141.8090 C   0  0  0  0  0  0  0  0  0  0  0  0
  189.5270  175.7380  144.0250 O   0  0  0  0  0  0  0  0  0  0  0  0
  192.4470  178.1790  142.3180 O   0  0  0  0  0  0  0  0  0  0  0  0
  192.5920  177.8830  140.9600 C   0  0  0  0  0  1  0  0  0  0  0  0
  191.7340  178.5520  144.8370 O   0  0  0  0  0  0  0  0  0  0  0  0
  191.2180  179.8450  144.9320 C   0  0  0  0  0  1  0  0  0  0  0  0
  188.3870  176.6020  140.6390 O   0  0  0  0  0  0  0  0  0  0  0  0
  188.4150  178.9510  140.4600 C   0  0  0  0  0  1  0  0  0  0  0  0
  188.1560  177.6550  139.6970 C   0  0  2  0  0  0  0  0  0  0  0  0
  186.6800  177.6640  139.2710 C   0  0  0  0  0  2  0  0  0  0  0  0
  185.8420  178.0560  140.2990 F   0  0  0  0  0  0  0  0  0  0  0  0
  189.0460  177.4880  138.5960 O   0  0  0  0  0  0  0  0  0  0  0  0
  188.1910  177.5960  136.3420 O   0  0  0  0  0  1  0  0  0  0  0  0
  189.1310  175.4920  137.2160 C   0  0  1  0  0  3  0  0  0  0  0  0
  188.4580  176.8350  137.4850 C   0  0  1  0  0  0  0  0  0  0  0  0
  187.6770  175.5550  137.6800 C   0  0  0  0  0  2  0  0  0  0  0  0
  189.2230  175.1490  135.7190 C   0  0  1  0  0  3  0  0  0  0  0  0
  191.5710  176.1500  136.0290 C   0  0  0  0  0  2  0  0  0  0  0  0
  192.0440  175.3370  137.0770 O   0  0  0  0  0  0  0  0  0  0  0  0
  192.0640  173.3660  135.7090 C   0  0  0  0  0  2  0  0  0  0  0  0
  192.8940  174.3810  136.4940 C   0  0  0  0  0  2  0  0  0  0  0  0
  191.3050  174.0880  134.5960 C   0  0  0  0  0  2  0  0  0  0  0  0
  190.6250  175.3680  135.1070 C   0  0  1  0  0  3  0  0  0  0  0  0
  188.7410  172.8460  136.3950 O   0  0  0  0  0  0  0  0  0  0  0  0
  188.5510  173.8020  135.3750 C   0  0  1  0  0  3  0  0  0  0  0  0
  187.4720  173.4490  136.3290 C   0  0  0  0  0  2  0  0  0  0  0  0
  1  2  1  0  0  0  0
  2  6  1  1  0  0  0
  2  3  1  0  0  0  0
  3  5  1  0  0  0  0
  5  4  2  0  0  0  0
  7 20  2  0  0  0  0
  7 11  1  0  0  0  0
  9 10  1  0  0  0  0
  9 16  1  0  0  0  0
 10 18  2  0  0  0  0
 11 12  2  0  0  0  0
 12 19  1  0  0  0  0
 12  9  1  0  0  0  0
 13  8  2  0  0  0  0
 13  6  1  0  0  0  0
 14 19  2  0  0  0  0
 15 16  1  0  0  0  0
 16 17  2  0  0  0  0
 17  8  1  0  0  0  0
 18 13  1  0  0  0  0
 19 15  1  0  0  0  0
 20 14  1  0  0  0  0
 21 32  1  6  0  0  0
 21 20  1  0  0  0  0
 22 23  1  1  0  0  0
 22 24  1  0  0  0  0
 22 21  1  0  0  0  0
 24 29  1  1  0  0  0
 25 28  1  0  0  0  0
 25 26  1  0  0  0  0
 26 24  1  0  0  0  0
 27 24  1  0  0  0  0
 28 27  1  0  0  0  0
 29 31  1  0  0  0  0
 31 30  1  0  0  0  0
 33 32  1  0  0  0  0
 35 33  1  0  0  0  0
 35 34  1  0  0  0  0
 36  1  1  0  0  0  0
 37 47  1  1  0  0  0
 37 39  1  0  0  0  0
 38 45  1  6  0  0  0
 38 37  1  0  0  0  0
 39 41  1  6  0  0  0
 40 43  2  0  0  0  0
 40 38  1  0  0  0  0
 42 36  1  1  0  0  0
 42 44  1  0  0  0  0
 43 42  1  0  0  0  0
 44 39  1  0  0  0  0
 46 45  1  0  0  0  0
 47 48  1  0  0  0  0
 49 43  1  0  0  0  0
 51 50  1  1  0  0  0
 51 49  1  0  0  0  0
 52 51  1  0  0  0  0
 52 53  1  0  0  0  0
 54 51  1  0  0  0  0
 56 59  1  6  0  0  0
 56 57  1  0  0  0  0
 56 58  1  0  0  0  0
 57 55  1  6  0  0  0
 57 58  1  0  0  0  0
 57 54  1  0  0  0  0
 59 65  1  1  0  0  0
 60 61  1  0  0  0  0
 62 63  1  0  0  0  0
 63 61  1  0  0  0  0
 64 62  1  0  0  0  0
 65 64  1  1  0  0  0
 65 60  1  0  0  0  0
 67 59  1  1  0  0  0
 67 68  1  0  0  0  0
 67 66  1  0  0  0  0
 68 66  1  0  0  0  0
M  END
>  <MODEL>
6

>  <REMARK>
 VINA RESULT:      -2.7      2.544      7.975
  Name = 
  25 active torsions:
  status: ('A' for Active; 'I' for Inactive)
    1  A    between atoms: C_1  and  C_12
    2  A    between atoms: C_1  and  C_23
    3  A    between atoms: C_1  and  C_65
    4  A    between atoms: C_2  and  C_8
    5  A    between atoms: C_2  and  C_23
    6  A    between atoms: C_6  and  O_49
    7  A    between atoms: C_8  and  C_67
    8  A    between atoms: C_12  and  C_42
    9  A    between atoms: O_13  and  C_17
   10  A    between atoms: C_14  and  C_39
   11  A    between atoms: N_20  and  C_31
   12  A    between atoms: N_20  and  C_56
   13  A    between atoms: O_24  and  C_25
   14  A    between atoms: O_24  and  C_64
   15  A    between atoms: C_26  and  C_40
   16  A    between atoms: C_26  and  C_56
   17  A    between atoms: C_31  and  C_43
   18  A    between atoms: C_33  and  C_39
   19  A    between atoms: C_38  and  C_64
   20  A    between atoms: C_39  and  C_68
   21  A    between atoms: C_42  and  O_51
   22  A    between atoms: C_48  and  O_63
   23  A    between atoms: C_53  and  O_66
   24  A    between atoms: C_56  and  O_66
   25  A    between atoms: O_63  and  C_64
                            x       y       z     vdW  Elec       q    Type
                         _______ _______ _______ _____ _____    ______ ____

>  <TORSDO>
F 25

$$$$
=
 OpenBabel11042412323D

 68 75  0  0  1  0  0  0  0  0999 V2000
  188.2060  177.8070  145.0320 N   0  0  0  0  0  2  0  0  0  0  0  0
  187.1570  177.3940  145.9500 C   0  0  1  0  0  3  0  0  0  0  0  0
  187.7120  176.9720  147.1940 O   0  0  0  0  0  0  0  0  0  0  0  0
  188.1100  178.9820  148.3460 C   0  0  0  0  0  2  0  0  0  0  0  0
  187.6210  177.7540  148.3430 C   0  0  0  0  0  3  0  0  0  0  0  0
  186.1450  178.5150  146.1470 C   0  0  0  0  0  2  0  0  0  0  0  0
  183.1130  178.5030  138.5420 N   0  0  0  0  0  0  0  0  0  0  0  0
  183.9000  178.6260  145.2670 C   0  0  0  0  0  3  0  0  0  0  0  0
  183.8680  178.5800  142.1820 N   0  0  0  0  0  0  0  0  0  0  0  0
  185.2660  178.4930  142.4540 C   0  0  0  0  0  3  0  0  0  0  0  0
  183.9100  178.5290  139.6490 C   0  0  0  0  0  3  0  0  0  0  0  0
  183.2890  178.5610  140.8900 C   0  0  0  0  0  0  0  0  0  0  0  0
  185.2050  178.5620  144.9900 C   0  0  0  0  0  0  0  0  0  0  0  0
  181.1470  178.5240  139.8710 N   0  0  0  0  0  0  0  0  0  0  0  0
  181.4800  178.5860  142.3210 N   0  0  0  0  0  2  0  0  0  0  0  0
  182.7220  178.5970  143.0430 C   0  0  0  0  0  0  0  0  0  0  0  0
  182.7390  178.6290  144.3700 C   0  0  0  0  0  3  0  0  0  0  0  0
  185.8270  178.4840  143.6590 C   0  0  0  0  0  3  0  0  0  0  0  0
  181.9310  178.5600  140.9750 C   0  0  0  0  0  0  0  0  0  0  0  0
  181.7430  178.4980  138.6410 C   0  0  0  0  0  0  0  0  0  0  0  0
  180.8810  178.4670  137.4080 C   0  0  2  0  0  3  0  0  0  0  0  0
  181.2910  177.3870  136.3860 C   0  0  2  0  0  3  0  0  0  0  0  0
  180.8200  177.6750  135.0990 O   0  0  0  0  0  1  0  0  0  0  0  0
  180.9760  175.9380  136.8200 C   0  0  1  0  0  0  0  0  0  0  0  0
  182.6680  175.0360  138.2700 C   0  0  0  0  0  2  0  0  0  0  0  0
  182.2590  175.1170  136.8280 C   0  0  0  0  0  2  0  0  0  0  0  0
  180.4630  175.9650  138.1920 N   0  0  0  0  0  2  0  0  0  0  0  0
  181.3670  175.1700  139.0150 C   0  0  0  0  0  2  0  0  0  0  0  0
  179.9250  175.2560  135.9300 C   0  0  0  0  0  2  0  0  0  0  0  0
  178.9940  173.3750  137.1460 N   0  0  0  0  0  1  0  0  0  0  0  0
  179.8940  173.7400  136.0680 C   0  0  0  0  0  2  0  0  0  0  0  0
  180.6540  179.8630  136.8150 C   0  0  0  0  0  2  0  0  0  0  0  0
  179.4140  180.5460  137.3740 C   0  0  0  0  0  2  0  0  0  0  0  0
  178.9570  181.9140  135.7060 C   0  0  0  0  0  1  0  0  0  0  0  0
  179.4280  181.8930  137.0180 O   0  0  0  0  0  0  0  0  0  0  0  0
  187.7750  177.3640  143.7160 C   0  0  0  0  0  2  0  0  0  0  0  0
  190.8320  177.9440  144.1370 C   0  0  1  0  0  3  0  0  0  0  0  0
  191.5210  177.4450  142.8680 C   0  0  1  0  0  3  0  0  0  0  0  0
  190.2130  176.7700  144.9260 C   0  0  2  0  0  3  0  0  0  0  0  0
  190.5290  177.2450  141.7550 C   0  0  0  0  0  3  0  0  0  0  0  0
  191.2160  176.1290  145.8720 C   0  0  0  0  0  1  0  0  0  0  0  0
  188.7110  176.2710  143.1760 C   0  0  1  0  0  3  0  0  0  0  0  0
  189.3180  176.6790  141.8540 C   0  0  0  0  0  0  0  0  0  0  0  0
  189.6710  175.7620  144.0910 O   0  0  0  0  0  0  0  0  0  0  0  0
  192.5060  178.3430  142.4450 O   0  0  0  0  0  0  0  0  0  0  0  0
  192.6890  178.0610  141.0890 C   0  0  0  0  0  1  0  0  0  0  0  0
  191.6970  178.6990  144.9390 O   0  0  0  0  0  0  0  0  0  0  0  0
  191.8500  179.9070  144.2580 C   0  0  0  0  0  1  0  0  0  0  0  0
  188.5900  176.5330  140.6630 O   0  0  0  0  0  0  0  0  0  0  0  0
  187.8570  178.7700  140.7630 C   0  0  0  0  0  1  0  0  0  0  0  0
  188.1250  177.5960  139.8250 C   0  0  2  0  0  0  0  0  0  0  0  0
  186.7850  177.2110  139.1820 C   0  0  0  0  0  2  0  0  0  0  0  0
  186.3050  178.1970  138.3400 F   0  0  0  0  0  0  0  0  0  0  0  0
  189.1320  177.8940  138.8610 O   0  0  0  0  0  0  0  0  0  0  0  0
  190.4510  175.8740  138.8140 O   0  0  0  0  0  1  0  0  0  0  0  0
  188.4540  176.0890  137.3850 C   0  0  1  0  0  3  0  0  0  0  0  0
  189.5920  176.7580  138.1510 C   0  0  1  0  0  0  0  0  0  0  0  0
  189.6070  176.7580  136.6400 C   0  0  0  0  0  2  0  0  0  0  0  0
  188.5750  174.5560  137.3350 C   0  0  1  0  0  3  0  0  0  0  0  0
  187.2370  172.5510  136.4400 C   0  0  0  0  0  2  0  0  0  0  0  0
  186.0410  172.7160  137.1640 O   0  0  0  0  0  0  0  0  0  0  0  0
  185.4890  174.7600  136.0360 C   0  0  0  0  0  2  0  0  0  0  0  0
  185.1140  173.3000  136.2850 C   0  0  0  0  0  2  0  0  0  0  0  0
  186.8760  174.8220  135.3950 C   0  0  0  0  0  2  0  0  0  0  0  0
  187.8790  173.9080  136.1170 C   0  0  1  0  0  3  0  0  0  0  0  0
  190.4360  173.1120  136.6690 O   0  0  0  0  0  0  0  0  0  0  0  0
  190.0110  174.0630  137.6200 C   0  0  1  0  0  3  0  0  0  0  0  0
  190.9550  174.4130  136.5320 C   0  0  0  0  0  2  0  0  0  0  0  0
  1  2  1  0  0  0  0
  2  6  1  1  0  0  0
  2  3  1  0  0  0  0
  3  5  1  0  0  0  0
  5  4  2  0  0  0  0
  7 20  2  0  0  0  0
  7 11  1  0  0  0  0
  9 10  1  0  0  0  0
  9 16  1  0  0  0  0
 10 18  2  0  0  0  0
 11 12  2  0  0  0  0
 12 19  1  0  0  0  0
 12  9  1  0  0  0  0
 13  8  2  0  0  0  0
 13  6  1  0  0  0  0
 14 19  2  0  0  0  0
 15 16  1  0  0  0  0
 16 17  2  0  0  0  0
 17  8  1  0  0  0  0
 18 13  1  0  0  0  0
 19 15  1  0  0  0  0
 20 14  1  0  0  0  0
 21 32  1  6  0  0  0
 21 20  1  0  0  0  0
 22 23  1  6  0  0  0
 22 24  1  0  0  0  0
 22 21  1  0  0  0  0
 24 29  1  6  0  0  0
 24 26  1  0  0  0  0
 24 27  1  0  0  0  0
 25 28  1  0  0  0  0
 26 25  1  0  0  0  0
 27 28  1  0  0  0  0
 29 31  1  0  0  0  0
 31 30  1  0  0  0  0
 32 33  1  0  0  0  0
 34 35  1  0  0  0  0
 35 33  1  0  0  0  0
 36  1  1  0  0  0  0
 37 39  1  0  0  0  0
 37 47  1  1  0  0  0
 38 45  1  6  0  0  0
 38 37  1  0  0  0  0
 39 41  1  6  0  0  0
 40 43  2  0  0  0  0
 40 38  1  0  0  0  0
 42 36  1  1  0  0  0
 42 44  1  0  0  0  0
 43 42  1  0  0  0  0
 44 39  1  0  0  0  0
 46 45  1  0  0  0  0
 48 47  1  0  0  0  0
 49 43  1  0  0  0  0
 51 49  1  0  0  0  0
 51 50  1  1  0  0  0
 52 51  1  0  0  0  0
 53 52  1  0  0  0  0
 54 51  1  0  0  0  0
 56 59  1  1  0  0  0
 56 57  1  0  0  0  0
 57 55  1  1  0  0  0
 57 54  1  0  0  0  0
 58 56  1  0  0  0  0
 58 57  1  0  0  0  0
 59 65  1  6  0  0  0
 60 61  1  0  0  0  0
 62 63  1  0  0  0  0
 63 61  1  0  0  0  0
 64 62  1  0  0  0  0
 65 64  1  1  0  0  0
 65 60  1  0  0  0  0
 66 67  1  0  0  0  0
 67 59  1  6  0  0  0
 68 66  1  0  0  0  0
 68 67  1  0  0  0  0
M  END
>  <MODEL>
7

>  <REMARK>
 VINA RESULT:      -2.6      2.739      7.941
  Name = 
  25 active torsions:
  status: ('A' for Active; 'I' for Inactive)
    1  A    between atoms: C_1  and  C_12
    2  A    between atoms: C_1  and  C_23
    3  A    between atoms: C_1  and  C_65
    4  A    between atoms: C_2  and  C_8
    5  A    between atoms: C_2  and  C_23
    6  A    between atoms: C_6  and  O_49
    7  A    between atoms: C_8  and  C_67
    8  A    between atoms: C_12  and  C_42
    9  A    between atoms: O_13  and  C_17
   10  A    between atoms: C_14  and  C_39
   11  A    between atoms: N_20  and  C_31
   12  A    between atoms: N_20  and  C_56
   13  A    between atoms: O_24  and  C_25
   14  A    between atoms: O_24  and  C_64
   15  A    between atoms: C_26  and  C_40
   16  A    between atoms: C_26  and  C_56
   17  A    between atoms: C_31  and  C_43
   18  A    between atoms: C_33  and  C_39
   19  A    between atoms: C_38  and  C_64
   20  A    between atoms: C_39  and  C_68
   21  A    between atoms: C_42  and  O_51
   22  A    between atoms: C_48  and  O_63
   23  A    between atoms: C_53  and  O_66
   24  A    between atoms: C_56  and  O_66
   25  A    between atoms: O_63  and  C_64
                            x       y       z     vdW  Elec       q    Type
                         _______ _______ _______ _____ _____    ______ ____

>  <TORSDO>
F 25

$$$$
=
 OpenBabel11042412323D

 68 75  0  0  1  0  0  0  0  0999 V2000
  193.3050  177.2630  136.7300 N   0  0  0  0  0  2  0  0  0  0  0  0
  193.4190  177.0250  135.3000 C   0  0  1  0  0  3  0  0  0  0  0  0
  194.7670  177.1920  134.8660 O   0  0  0  0  0  0  0  0  0  0  0  0
  196.6730  178.5430  134.6140 C   0  0  0  0  0  2  0  0  0  0  0  0
  195.5190  178.3110  135.2140 C   0  0  0  0  0  3  0  0  0  0  0  0
  192.8890  175.6430  134.9430 C   0  0  0  0  0  2  0  0  0  0  0  0
  184.8870  176.9380  136.0980 N   0  0  0  0  0  0  0  0  0  0  0  0
  191.1760  174.4260  136.1330 C   0  0  0  0  0  3  0  0  0  0  0  0
  188.4340  175.8290  135.9590 N   0  0  0  0  0  0  0  0  0  0  0  0
  189.2530  176.7090  135.1900 C   0  0  0  0  0  3  0  0  0  0  0  0
  186.2090  177.0270  135.7710 C   0  0  0  0  0  3  0  0  0  0  0  0
  187.0440  175.9930  136.1730 C   0  0  0  0  0  0  0  0  0  0  0  0
  191.4770  175.5040  135.4040 C   0  0  0  0  0  0  0  0  0  0  0  0
  185.2230  174.8510  137.1770 N   0  0  0  0  0  0  0  0  0  0  0  0
  187.5380  173.9790  137.1810 N   0  0  0  0  0  2  0  0  0  0  0  0
  188.7070  174.5750  136.5970 C   0  0  0  0  0  0  0  0  0  0  0  0
  189.8910  173.9800  136.6800 C   0  0  0  0  0  3  0  0  0  0  0  0
  190.5530  176.5580  134.9570 C   0  0  0  0  0  3  0  0  0  0  0  0
  186.5380  174.9360  136.8640 C   0  0  0  0  0  0  0  0  0  0  0  0
  184.3880  175.8630  136.7930 C   0  0  0  0  0  0  0  0  0  0  0  0
  182.9270  175.7820  137.1420 C   0  0  2  0  0  3  0  0  0  0  0  0
  182.6430  175.8200  138.6580 C   0  0  2  0  0  3  0  0  0  0  0  0
  182.2490  174.5700  139.1500 O   0  0  0  0  0  1  0  0  0  0  0  0
  181.6990  176.9570  139.1080 C   0  0  1  0  0  0  0  0  0  0  0  0
  180.0730  177.5090  137.4250 C   0  0  0  0  0  2  0  0  0  0  0  0
  181.4320  177.8930  137.9370 C   0  0  0  0  0  2  0  0  0  0  0  0
  180.4170  176.3660  139.5000 N   0  0  0  0  0  2  0  0  0  0  0  0
  179.3880  176.9320  138.6340 C   0  0  0  0  0  2  0  0  0  0  0  0
  182.2420  177.7550  140.3030 C   0  0  0  0  0  2  0  0  0  0  0  0
  184.1020  178.9400  141.3140 N   0  0  0  0  0  1  0  0  0  0  0  0
  183.6870  178.2060  140.1330 C   0  0  0  0  0  2  0  0  0  0  0  0
  182.2000  174.6700  136.3770 C   0  0  0  0  0  2  0  0  0  0  0  0
  180.7590  175.0270  136.0470 C   0  0  0  0  0  2  0  0  0  0  0  0
  180.3450  173.4020  134.6140 C   0  0  0  0  0  1  0  0  0  0  0  0
  180.5200  174.7820  134.6950 O   0  0  0  0  0  0  0  0  0  0  0  0
  194.6270  177.0140  137.2780 C   0  0  0  0  0  2  0  0  0  0  0  0
  195.7700  174.1160  136.8850 C   0  0  1  0  0  3  0  0  0  0  0  0
  194.8320  173.1970  137.6650 C   0  0  1  0  0  3  0  0  0  0  0  0
  196.5330  175.0610  137.8370 C   0  0  2  0  0  3  0  0  0  0  0  0
  193.5360  173.8920  137.9850 C   0  0  0  0  0  3  0  0  0  0  0  0
  197.8060  174.4230  138.3730 C   0  0  0  0  0  1  0  0  0  0  0  0
  194.5400  176.1210  138.5260 C   0  0  1  0  0  3  0  0  0  0  0  0
  193.3880  175.1500  138.4220 C   0  0  0  0  0  0  0  0  0  0  0  0
  195.7510  175.4980  138.9340 O   0  0  0  0  0  0  0  0  0  0  0  0
  194.5590  172.0310  136.9450 O   0  0  0  0  0  0  0  0  0  0  0  0
  193.6350  171.3350  137.7280 C   0  0  0  0  0  1  0  0  0  0  0  0
  196.6500  173.3950  136.0690 O   0  0  0  0  0  0  0  0  0  0  0  0
  196.0920  173.4680  134.7920 C   0  0  0  0  0  1  0  0  0  0  0  0
  192.0810  175.5630  138.7250 O   0  0  0  0  0  0  0  0  0  0  0  0
  190.8150  177.5350  138.9700 C   0  0  0  0  0  1  0  0  0  0  0  0
  191.7130  176.5420  139.7030 C   0  0  2  0  0  0  0  0  0  0  0  0
  192.9570  177.3110  140.1700 C   0  0  0  0  0  2  0  0  0  0  0  0
  192.8900  178.6560  139.8550 F   0  0  0  0  0  0  0  0  0  0  0  0
  191.0350  175.8880  140.7730 O   0  0  0  0  0  0  0  0  0  0  0  0
  190.2840  177.8420  141.9740 O   0  0  0  0  0  1  0  0  0  0  0  0
  190.7610  175.7470  143.1810 C   0  0  1  0  0  3  0  0  0  0  0  0
  191.0070  176.6430  141.9710 C   0  0  1  0  0  0  0  0  0  0  0  0
  192.0950  176.4710  143.0060 C   0  0  0  0  0  2  0  0  0  0  0  0
  189.9040  176.4170  144.2680 C   0  0  1  0  0  3  0  0  0  0  0  0
  190.2530  178.4520  145.8000 C   0  0  0  0  0  2  0  0  0  0  0  0
  189.0560  178.4070  146.5400 O   0  0  0  0  0  0  0  0  0  0  0  0
  189.6450  176.3440  147.6120 C   0  0  0  0  0  2  0  0  0  0  0  0
  189.3700  177.8370  147.7840 C   0  0  0  0  0  2  0  0  0  0  0  0
  190.8370  176.1560  146.6730 C   0  0  0  0  0  2  0  0  0  0  0  0
  190.7230  177.0400  145.4220 C   0  0  1  0  0  3  0  0  0  0  0  0
  187.7550  176.5550  143.1040 O   0  0  0  0  0  0  0  0  0  0  0  0
  188.7940  177.3150  143.6810 C   0  0  1  0  0  3  0  0  0  0  0  0
  187.4910  177.1220  144.3640 C   0  0  0  0  0  2  0  0  0  0  0  0
  1 36  1  0  0  0  0
  2  6  1  1  0  0  0
  2  1  1  0  0  0  0
  3  5  1  0  0  0  0
  3  2  1  0  0  0  0
  4  5  2  0  0  0  0
  6 13  1  0  0  0  0
  7 20  2  0  0  0  0
  8 17  1  0  0  0  0
  9 12  1  0  0  0  0
  9 16  1  0  0  0  0
 10  9  1  0  0  0  0
 11  7  1  0  0  0  0
 11 12  2  0  0  0  0
 12 19  1  0  0  0  0
 13  8  2  0  0  0  0
 16 17  2  0  0  0  0
 16 15  1  0  0  0  0
 18 10  2  0  0  0  0
 18 13  1  0  0  0  0
 19 14  2  0  0  0  0
 19 15  1  0  0  0  0
 20 21  1  0  0  0  0
 20 14  1  0  0  0  0
 21 32  1  1  0  0  0
 21 22  1  0  0  0  0
 22 24  1  0  0  0  0
 22 23  1  6  0  0  0
 24 27  1  0  0  0  0
 24 29  1  1  0  0  0
 25 26  1  0  0  0  0
 25 28  1  0  0  0  0
 26 24  1  0  0  0  0
 28 27  1  0  0  0  0
 31 29  1  0  0  0  0
 31 30  1  0  0  0  0
 33 32  1  0  0  0  0
 34 35  1  0  0  0  0
 35 33  1  0  0  0  0
 37 47  1  1  0  0  0
 37 38  1  0  0  0  0
 37 39  1  0  0  0  0
 38 45  1  6  0  0  0
 38 40  1  0  0  0  0
 39 41  1  1  0  0  0
 39 44  1  0  0  0  0
 40 43  2  0  0  0  0
 42 36  1  6  0  0  0
 42 44  1  0  0  0  0
 43 42  1  0  0  0  0
 43 49  1  0  0  0  0
 45 46  1  0  0  0  0
 48 47  1  0  0  0  0
 49 51  1  0  0  0  0
 51 50  1  6  0  0  0
 51 52  1  0  0  0  0
 51 54  1  0  0  0  0
 53 52  1  0  0  0  0
 54 57  1  0  0  0  0
 56 59  1  1  0  0  0
 57 55  1  6  0  0  0
 57 58  1  0  0  0  0
 57 56  1  0  0  0  0
 58 56  1  0  0  0  0
 59 67  1  6  0  0  0
 60 61  1  0  0  0  0
 61 63  1  0  0  0  0
 62 63  1  0  0  0  0
 64 62  1  0  0  0  0
 65 59  1  6  0  0  0
 65 60  1  0  0  0  0
 65 64  1  0  0  0  0
 66 67  1  0  0  0  0
 66 68  1  0  0  0  0
 67 68  1  1  0  0  0
M  END
>  <MODEL>
8

>  <REMARK>
 VINA RESULT:      -2.3      2.562      4.510
  Name = 
  25 active torsions:
  status: ('A' for Active; 'I' for Inactive)
    1  A    between atoms: C_1  and  C_12
    2  A    between atoms: C_1  and  C_23
    3  A    between atoms: C_1  and  C_65
    4  A    between atoms: C_2  and  C_8
    5  A    between atoms: C_2  and  C_23
    6  A    between atoms: C_6  and  O_49
    7  A    between atoms: C_8  and  C_67
    8  A    between atoms: C_12  and  C_42
    9  A    between atoms: O_13  and  C_17
   10  A    between atoms: C_14  and  C_39
   11  A    between atoms: N_20  and  C_31
   12  A    between atoms: N_20  and  C_56
   13  A    between atoms: O_24  and  C_25
   14  A    between atoms: O_24  and  C_64
   15  A    between atoms: C_26  and  C_40
   16  A    between atoms: C_26  and  C_56
   17  A    between atoms: C_31  and  C_43
   18  A    between atoms: C_33  and  C_39
   19  A    between atoms: C_38  and  C_64
   20  A    between atoms: C_39  and  C_68
   21  A    between atoms: C_42  and  O_51
   22  A    between atoms: C_48  and  O_63
   23  A    between atoms: C_53  and  O_66
   24  A    between atoms: C_56  and  O_66
   25  A    between atoms: O_63  and  C_64
                            x       y       z     vdW  Elec       q    Type
                         _______ _______ _______ _____ _____    ______ ____

>  <TORSDO>
F 25

$$$$
=
 OpenBabel11042412323D

 68 75  0  0  1  0  0  0  0  0999 V2000
  193.5140  177.0910  136.3600 N   0  0  0  0  0  2  0  0  0  0  0  0
  193.8010  176.4050  135.1110 C   0  0  1  0  0  3  0  0  0  0  0  0
  195.2050  176.2220  134.9450 O   0  0  0  0  0  0  0  0  0  0  0  0
  195.8680  178.4770  134.9110 C   0  0  0  0  0  2  0  0  0  0  0  0
  196.1190  177.2260  135.2550 C   0  0  0  0  0  3  0  0  0  0  0  0
  193.0580  175.0770  135.0470 C   0  0  0  0  0  2  0  0  0  0  0  0
  185.2080  174.0620  137.1420 N   0  0  0  0  0  0  0  0  0  0  0  0
  191.1050  176.4840  134.8560 C   0  0  0  0  0  3  0  0  0  0  0  0
  188.5760  175.0990  135.9520 N   0  0  0  0  0  0  0  0  0  0  0  0
  189.5700  174.1010  136.1830 C   0  0  0  0  0  3  0  0  0  0  0  0
  186.5380  173.9100  136.8770 C   0  0  0  0  0  3  0  0  0  0  0  0
  187.2110  174.9850  136.3130 C   0  0  0  0  0  0  0  0  0  0  0  0
  191.5950  175.3010  135.2370 C   0  0  0  0  0  0  0  0  0  0  0  0
  185.2300  176.2900  136.3230 N   0  0  0  0  0  0  0  0  0  0  0  0
  187.4000  177.1280  135.4820 N   0  0  0  0  0  2  0  0  0  0  0  0
  188.6580  176.4350  135.4400 C   0  0  0  0  0  0  0  0  0  0  0  0
  189.7450  177.0240  134.9580 C   0  0  0  0  0  3  0  0  0  0  0  0
  190.8580  174.1990  135.8750 C   0  0  0  0  0  3  0  0  0  0  0  0
  186.5480  176.1430  136.0480 C   0  0  0  0  0  0  0  0  0  0  0  0
  184.5510  175.2390  136.8740 C   0  0  0  0  0  0  0  0  0  0  0  0
  183.0850  175.3890  137.1760 C   0  0  2  0  0  3  0  0  0  0  0  0
  182.7710  175.5700  138.6750 C   0  0  2  0  0  3  0  0  0  0  0  0
  181.7330  174.7320  139.1000 O   0  0  0  0  0  1  0  0  0  0  0  0
  182.5640  177.0360  139.1170 C   0  0  1  0  0  0  0  0  0  0  0  0
  180.7150  178.0750  137.9850 C   0  0  0  0  0  2  0  0  0  0  0  0
  182.2030  177.8880  137.9070 C   0  0  0  0  0  2  0  0  0  0  0  0
  181.4310  177.0860  140.0440 N   0  0  0  0  0  2  0  0  0  0  0  0
  180.4190  177.9560  139.4550 C   0  0  0  0  0  2  0  0  0  0  0  0
  183.7900  177.6300  139.8280 C   0  0  0  0  0  2  0  0  0  0  0  0
  185.5120  179.3380  139.8840 N   0  0  0  0  0  1  0  0  0  0  0  0
  184.3730  178.8500  139.1280 C   0  0  0  0  0  2  0  0  0  0  0  0
  182.2270  174.3390  136.4590 C   0  0  0  0  0  2  0  0  0  0  0  0
  180.9350  174.9160  135.9000 C   0  0  0  0  0  2  0  0  0  0  0  0
  180.5180  172.9120  135.0800 C   0  0  0  0  0  1  0  0  0  0  0  0
  180.6070  174.2550  134.7170 O   0  0  0  0  0  0  0  0  0  0  0  0
  194.7570  177.0750  137.1140 C   0  0  0  0  0  2  0  0  0  0  0  0
  195.9400  174.1790  137.3800 C   0  0  1  0  0  3  0  0  0  0  0  0
  194.9320  173.4010  138.2250 C   0  0  1  0  0  3  0  0  0  0  0  0
  196.6040  175.3000  138.2080 C   0  0  2  0  0  3  0  0  0  0  0  0
  193.6100  174.1160  138.2830 C   0  0  0  0  0  3  0  0  0  0  0  0
  197.8190  174.7990  138.9730 C   0  0  0  0  0  1  0  0  0  0  0  0
  194.5510  176.4270  138.4920 C   0  0  1  0  0  3  0  0  0  0  0  0
  193.4160  175.4300  138.4610 C   0  0  0  0  0  0  0  0  0  0  0  0
  195.7170  175.9170  139.1240 O   0  0  0  0  0  0  0  0  0  0  0  0
  194.7350  172.1160  137.7120 O   0  0  0  0  0  0  0  0  0  0  0  0
  195.7840  171.3560  138.2370 C   0  0  0  0  0  1  0  0  0  0  0  0
  196.8980  173.3360  136.8010 O   0  0  0  0  0  0  0  0  0  0  0  0
  196.5550  173.2840  135.4500 C   0  0  0  0  0  1  0  0  0  0  0  0
  192.0850  175.8650  138.5550 O   0  0  0  0  0  0  0  0  0  0  0  0
  192.5530  177.8450  139.7430 C   0  0  0  0  0  1  0  0  0  0  0  0
  191.5460  176.7100  139.5770 C   0  0  2  0  0  0  0  0  0  0  0  0
  191.4890  175.9510  140.9100 C   0  0  0  0  0  2  0  0  0  0  0  0
  192.3380  176.4940  141.8580 F   0  0  0  0  0  0  0  0  0  0  0  0
  190.2680  177.1800  139.1550 O   0  0  0  0  0  0  0  0  0  0  0  0
  189.2870  176.1130  141.0850 O   0  0  0  0  0  1  0  0  0  0  0  0
  189.1930  178.5640  140.8360 C   0  0  1  0  0  3  0  0  0  0  0  0
  189.2980  177.1870  140.1870 C   0  0  1  0  0  0  0  0  0  0  0  0
  188.0270  177.9910  140.0330 C   0  0  0  0  0  2  0  0  0  0  0  0
  188.9110  178.5020  142.3470 C   0  0  1  0  0  3  0  0  0  0  0  0
  188.0830  176.6160  143.8870 C   0  0  0  0  0  2  0  0  0  0  0  0
  188.0800  177.2960  145.1210 O   0  0  0  0  0  0  0  0  0  0  0  0
  186.3110  178.7710  144.4500 C   0  0  0  0  0  2  0  0  0  0  0  0
  186.7450  177.6440  145.3870 C   0  0  0  0  0  2  0  0  0  0  0  0
  186.4110  178.2890  143.0020 C   0  0  0  0  0  2  0  0  0  0  0  0
  187.7400  177.5670  142.7320 C   0  0  1  0  0  3  0  0  0  0  0  0
  191.1980  179.2480  142.7950 O   0  0  0  0  0  0  0  0  0  0  0  0
  190.1960  178.3370  143.1870 C   0  0  1  0  0  3  0  0  0  0  0  0
  190.5090  179.5460  143.9850 C   0  0  0  0  0  2  0  0  0  0  0  0
  1 36  1  0  0  0  0
  2  6  1  1  0  0  0
  2  1  1  0  0  0  0
  3  2  1  0  0  0  0
  3  5  1  0  0  0  0
  4  5  2  0  0  0  0
  6 13  1  0  0  0  0
  8 17  1  0  0  0  0
  8 13  2  0  0  0  0
  9 10  1  0  0  0  0
  9 12  1  0  0  0  0
 11  7  1  0  0  0  0
 12 11  2  0  0  0  0
 13 18  1  0  0  0  0
 14 20  1  0  0  0  0
 15 19  1  0  0  0  0
 16 15  1  0  0  0  0
 16  9  1  0  0  0  0
 17 16  2  0  0  0  0
 18 10  2  0  0  0  0
 19 12  1  0  0  0  0
 19 14  2  0  0  0  0
 20  7  2  0  0  0  0
 20 21  1  0  0  0  0
 21 32  1  1  0  0  0
 21 22  1  0  0  0  0
 22 23  1  6  0  0  0
 22 24  1  0  0  0  0
 24 29  1  1  0  0  0
 24 27  1  0  0  0  0
 25 28  1  0  0  0  0
 26 25  1  0  0  0  0
 26 24  1  0  0  0  0
 28 27  1  0  0  0  0
 31 29  1  0  0  0  0
 31 30  1  0  0  0  0
 33 32  1  0  0  0  0
 35 34  1  0  0  0  0
 35 33  1  0  0  0  0
 37 47  1  1  0  0  0
 37 39  1  0  0  0  0
 37 38  1  0  0  0  0
 38 45  1  6  0  0  0
 38 40  1  0  0  0  0
 39 41  1  1  0  0  0
 39 44  1  0  0  0  0
 40 43  2  0  0  0  0
 42 36  1  6  0  0  0
 42 44  1  0  0  0  0
 43 42  1  0  0  0  0
 43 49  1  0  0  0  0
 45 46  1  0  0  0  0
 48 47  1  0  0  0  0
 49 51  1  0  0  0  0
 51 50  1  1  0  0  0
 51 52  1  0  0  0  0
 52 53  1  0  0  0  0
 54 51  1  0  0  0  0
 54 57  1  0  0  0  0
 56 59  1  1  0  0  0
 57 56  1  0  0  0  0
 57 55  1  1  0  0  0
 58 57  1  0  0  0  0
 58 56  1  0  0  0  0
 59 65  1  6  0  0  0
 60 61  1  0  0  0  0
 61 63  1  0  0  0  0
 62 63  1  0  0  0  0
 64 62  1  0  0  0  0
 65 64  1  1  0  0  0
 65 60  1  0  0  0  0
 66 67  1  0  0  0  0
 66 68  1  0  0  0  0
 67 59  1  6  0  0  0
 67 68  1  0  0  0  0
M  END
>  <MODEL>
9

>  <REMARK>
 VINA RESULT:      -2.2      2.615      4.759
  Name = 
  25 active torsions:
  status: ('A' for Active; 'I' for Inactive)
    1  A    between atoms: C_1  and  C_12
    2  A    between atoms: C_1  and  C_23
    3  A    between atoms: C_1  and  C_65
    4  A    between atoms: C_2  and  C_8
    5  A    between atoms: C_2  and  C_23
    6  A    between atoms: C_6  and  O_49
    7  A    between atoms: C_8  and  C_67
    8  A    between atoms: C_12  and  C_42
    9  A    between atoms: O_13  and  C_17
   10  A    between atoms: C_14  and  C_39
   11  A    between atoms: N_20  and  C_31
   12  A    between atoms: N_20  and  C_56
   13  A    between atoms: O_24  and  C_25
   14  A    between atoms: O_24  and  C_64
   15  A    between atoms: C_26  and  C_40
   16  A    between atoms: C_26  and  C_56
   17  A    between atoms: C_31  and  C_43
   18  A    between atoms: C_33  and  C_39
   19  A    between atoms: C_38  and  C_64
   20  A    between atoms: C_39  and  C_68
   21  A    between atoms: C_42  and  O_51
   22  A    between atoms: C_48  and  O_63
   23  A    between atoms: C_53  and  O_66
   24  A    between atoms: C_56  and  O_66
   25  A    between atoms: O_63  and  C_64
                            x       y       z     vdW  Elec       q    Type
                         _______ _______ _______ _____ _____    ______ ____

>  <TORSDO>
F 25

$$$$
