=
 OpenBabel11042410443D

 38 42  0  0  1  0  0  0  0  0999 V2000
  191.4410  176.5910  138.5260 C   0  0  0  0  0  0  0  0  0  0  0  0
  190.7910  177.2400  139.6110 N   0  0  0  0  0  0  0  0  0  0  0  0
  186.6780  176.9170  137.2660 C   0  0  0  0  0  3  0  0  0  0  0  0
  188.5770  175.4360  137.0170 C   0  0  0  0  0  0  0  0  0  0  0  0
  186.0090  176.2060  136.2710 C   0  0  0  0  0  3  0  0  0  0  0  0
  187.9670  176.5510  137.6710 C   0  0  0  0  0  0  0  0  0  0  0  0
  189.9490  174.9830  137.2060 C   0  0  0  0  0  3  0  0  0  0  0  0
  187.8560  174.7480  136.0340 C   0  0  0  0  0  3  0  0  0  0  0  0
  189.5180  177.4770  139.7930 C   0  0  0  0  0  0  0  0  0  0  0  0
  186.6030  175.1380  135.6850 N   0  0  0  0  0  0  0  0  0  0  0  0
  190.7700  175.7450  137.8300 C   0  0  0  0  0  0  0  0  0  0  0  0
  188.4730  177.3010  138.8050 N   0  0  0  0  0  2  0  0  0  0  0  0
  187.6190  178.5290  141.0710 C   0  0  0  0  0  1  0  0  0  0  0  0
  189.1200  178.2170  141.0320 C   0  0  1  0  0  3  0  0  0  0  0  0
  189.6340  177.5550  142.2420 N   0  0  0  0  0  0  0  0  0  0  0  0
  188.7440  177.2490  144.4420 C   0  0  2  0  0  3  0  0  0  0  0  0
  189.1480  178.2780  143.4130 C   0  0  0  0  0  2  0  0  0  0  0  0
  189.1610  176.1690  142.3540 C   0  0  0  0  0  2  0  0  0  0  0  0
  188.3730  176.0300  143.6390 C   0  0  0  0  0  2  0  0  0  0  0  0
  185.5330  178.6620  146.9290 C   0  0  0  0  0  3  0  0  0  0  0  0
  187.8150  177.8900  146.6680 C   0  0  0  0  0  3  0  0  0  0  0  0
  186.3560  178.0400  144.7390 C   0  0  0  0  0  3  0  0  0  0  0  0
  187.6100  177.7300  145.2930 C   0  0  0  0  0  0  0  0  0  0  0  0
  186.7790  178.3540  147.4850 C   0  0  0  0  0  3  0  0  0  0  0  0
  185.3220  178.5050  145.5570 C   0  0  0  0  0  3  0  0  0  0  0  0
  192.9290  176.5910  138.4570 C   0  0  0  0  0  2  0  0  0  0  0  0
  193.3890  175.4120  137.7390 N   0  0  0  0  0  2  0  0  0  0  0  0
  195.0390  173.6180  137.3050 N   0  0  0  0  0  0  0  0  0  0  0  0
  195.3030  175.1550  139.0460 O   0  0  0  0  0  0  0  0  0  0  0  0
  194.2940  173.2130  136.1870 N   0  0  0  0  0  1  0  0  0  0  0  0
  194.6080  174.7470  138.0760 C   0  0  0  0  0  0  0  0  0  0  0  0
  196.2920  172.9410  137.6270 C   0  0  1  0  0  3  0  0  0  0  0  0
  196.0780  171.4360  137.6820 C   0  0  0  0  0  1  0  0  0  0  0  0
  197.3620  173.3050  136.6050 C   0  0  0  0  0  2  0  0  0  0  0  0
  198.1830  174.5030  137.0590 C   0  0  0  0  0  0  0  0  0  0  0  0
  197.7100  175.7050  136.5950 O   0  0  0  0  0  0  0  0  0  0  0  0
  198.8280  175.1830  136.0550 O   0  0  0  0  0  0  0  0  0  0  0  0
  198.8480  174.5850  138.4190 C   0  0  0  0  0  1  0  0  0  0  0  0
  1  2  1  0  0  0  0
  2  9  2  0  0  0  0
  3  6  1  0  0  0  0
  4  7  1  0  0  0  0
  4  6  2  0  0  0  0
  5  3  2  0  0  0  0
  6 12  1  0  0  0  0
  7 11  2  0  0  0  0
  8  4  1  0  0  0  0
  9 14  1  0  0  0  0
 10  8  2  0  0  0  0
 10  5  1  0  0  0  0
 11  1  2  0  0  0  0
 12  9  1  0  0  0  0
 14 13  1  1  0  0  0
 14 15  1  0  0  0  0
 15 18  1  0  0  0  0
 15 17  1  0  0  0  0
 16 23  1  6  0  0  0
 17 16  1  0  0  0  0
 18 19  1  0  0  0  0
 19 16  1  0  0  0  0
 20 24  1  0  0  0  0
 21 24  2  0  0  0  0
 22 23  2  0  0  0  0
 22 25  1  0  0  0  0
 23 21  1  0  0  0  0
 25 20  2  0  0  0  0
 26  1  1  0  0  0  0
 27 31  1  0  0  0  0
 27 26  1  0  0  0  0
 28 32  1  0  0  0  0
 28 31  1  0  0  0  0
 30 28  1  0  0  0  0
 31 29  2  0  0  0  0
 32 33  1  6  0  0  0
 34 35  1  0  0  0  0
 34 32  1  0  0  0  0
 35 38  1  0  0  0  0
 36 35  1  0  0  0  0
 37 36  1  0  0  0  0
 37 35  1  0  0  0  0
M  END
>  <MODEL>
1

>  <REMARK>
 VINA RESULT:      -9.0      0.000      0.000
  Name = 
  8 active torsions:
  status: ('A' for Active; 'I' for Inactive)
    1  A    between atoms: N_1  and  C_9
    2  A    between atoms: C_3  and  C_19
    3  A    between atoms: N_4  and  C_19
    4  A    between atoms: N_5  and  C_10
    5  A    between atoms: C_7  and  C_33
    6  A    between atoms: C_9  and  C_29
    7  A    between atoms: C_10  and  C_33
    8  A    between atoms: C_12  and  C_28
                            x       y       z     vdW  Elec       q    Type
                         _______ _______ _______ _____ _____    ______ ____

>  <TORSDO>
F 8

$$$$
=
 OpenBabel11042410443D

 38 42  0  0  1  0  0  0  0  0999 V2000
  187.2440  178.0990  137.6330 C   0  0  0  0  0  0  0  0  0  0  0  0
  187.6350  178.4440  138.9550 N   0  0  0  0  0  0  0  0  0  0  0  0
  191.4520  175.6630  138.4920 C   0  0  0  0  0  3  0  0  0  0  0  0
  190.2680  176.7640  136.6900 C   0  0  0  0  0  0  0  0  0  0  0  0
  192.3030  175.0760  137.5570 C   0  0  0  0  0  3  0  0  0  0  0  0
  190.4240  176.5240  138.0900 C   0  0  0  0  0  0  0  0  0  0  0  0
  189.1880  177.5210  136.0700 C   0  0  0  0  0  3  0  0  0  0  0  0
  191.1590  176.1600  135.7940 C   0  0  0  0  0  3  0  0  0  0  0  0
  188.7220  178.1280  139.6080 C   0  0  0  0  0  0  0  0  0  0  0  0
  192.1470  175.3410  136.2370 N   0  0  0  0  0  0  0  0  0  0  0  0
  188.1620  177.8240  136.7770 C   0  0  0  0  0  0  0  0  0  0  0  0
  189.7130  177.1580  139.1840 N   0  0  0  0  0  2  0  0  0  0  0  0
  187.5040  179.0070  141.6290 C   0  0  0  0  0  1  0  0  0  0  0  0
  188.8530  178.6140  141.0180 C   0  0  1  0  0  3  0  0  0  0  0  0
  189.6430  177.6800  141.8370 N   0  0  0  0  0  0  0  0  0  0  0  0
  189.5240  177.0180  144.1330 C   0  0  2  0  0  3  0  0  0  0  0  0
  189.7040  178.1930  143.2020 C   0  0  0  0  0  2  0  0  0  0  0  0
  189.0310  176.3470  141.8950 C   0  0  0  0  0  2  0  0  0  0  0  0
  188.7180  176.0210  143.3410 C   0  0  0  0  0  2  0  0  0  0  0  0
  187.4920  178.1320  147.7550 C   0  0  0  0  0  3  0  0  0  0  0  0
  187.4740  177.7290  145.3660 C   0  0  0  0  0  3  0  0  0  0  0  0
  189.5260  177.4610  146.6270 C   0  0  0  0  0  3  0  0  0  0  0  0
  188.8380  177.4150  145.4030 C   0  0  0  0  0  0  0  0  0  0  0  0
  186.8030  178.0880  146.5390 C   0  0  0  0  0  3  0  0  0  0  0  0
  188.8530  177.8190  147.7990 C   0  0  0  0  0  3  0  0  0  0  0  0
  185.8710  178.4350  137.1630 C   0  0  0  0  0  2  0  0  0  0  0  0
  184.8870  177.9090  138.0960 N   0  0  0  0  0  2  0  0  0  0  0  0
  183.2740  178.1710  139.9560 N   0  0  0  0  0  0  0  0  0  0  0  0
  184.4100  179.9920  139.0290 O   0  0  0  0  0  0  0  0  0  0  0  0
  183.0990  176.7790  139.9900 N   0  0  0  0  0  1  0  0  0  0  0  0
  184.2000  178.7480  139.0270 C   0  0  0  0  0  0  0  0  0  0  0  0
  182.5790  179.0140  140.9240 C   0  0  1  0  0  3  0  0  0  0  0  0
  181.2360  179.4580  140.3660 C   0  0  0  0  0  1  0  0  0  0  0  0
  182.4050  178.2670  142.2410 C   0  0  0  0  0  2  0  0  0  0  0  0
  183.4550  178.6810  143.2610 C   0  0  0  0  0  0  0  0  0  0  0  0
  184.5120  179.3690  142.7200 O   0  0  0  0  0  0  0  0  0  0  0  0
  184.6850  178.0910  143.1070 O   0  0  0  0  0  0  0  0  0  0  0  0
  183.1140  179.0920  144.6810 C   0  0  0  0  0  1  0  0  0  0  0  0
  1  2  1  0  0  0  0
  2  9  2  0  0  0  0
  4  6  2  0  0  0  0
  5  3  2  0  0  0  0
  6  3  1  0  0  0  0
  6 12  1  0  0  0  0
  7  4  1  0  0  0  0
  7 11  2  0  0  0  0
  8 10  2  0  0  0  0
  8  4  1  0  0  0  0
  9 14  1  0  0  0  0
 10  5  1  0  0  0  0
 11  1  2  0  0  0  0
 12  9  1  0  0  0  0
 14 13  1  1  0  0  0
 14 15  1  0  0  0  0
 15 18  1  0  0  0  0
 15 17  1  0  0  0  0
 16 23  1  1  0  0  0
 17 16  1  0  0  0  0
 18 19  1  0  0  0  0
 19 16  1  0  0  0  0
 20 25  1  0  0  0  0
 21 23  2  0  0  0  0
 21 24  1  0  0  0  0
 22 25  2  0  0  0  0
 23 22  1  0  0  0  0
 24 20  2  0  0  0  0
 26  1  1  0  0  0  0
 26 27  1  0  0  0  0
 27 31  1  0  0  0  0
 28 30  1  0  0  0  0
 28 32  1  0  0  0  0
 31 29  2  0  0  0  0
 31 28  1  0  0  0  0
 32 33  1  6  0  0  0
 32 34  1  0  0  0  0
 34 35  1  0  0  0  0
 35 38  1  0  0  0  0
 36 37  1  0  0  0  0
 36 35  1  0  0  0  0
 37 35  1  0  0  0  0
M  END
>  <MODEL>
2

>  <REMARK>
 VINA RESULT:      -8.8      4.676      8.605
  Name = 
  8 active torsions:
  status: ('A' for Active; 'I' for Inactive)
    1  A    between atoms: N_1  and  C_9
    2  A    between atoms: C_3  and  C_19
    3  A    between atoms: N_4  and  C_19
    4  A    between atoms: N_5  and  C_10
    5  A    between atoms: C_7  and  C_33
    6  A    between atoms: C_9  and  C_29
    7  A    between atoms: C_10  and  C_33
    8  A    between atoms: C_12  and  C_28
                            x       y       z     vdW  Elec       q    Type
                         _______ _______ _______ _____ _____    ______ ____

>  <TORSDO>
F 8

$$$$
=
 OpenBabel11042410443D

 38 42  0  0  1  0  0  0  0  0999 V2000
  186.6880  178.4900  140.6490 C   0  0  0  0  0  0  0  0  0  0  0  0
  185.7040  178.7110  139.6480 N   0  0  0  0  0  0  0  0  0  0  0  0
  182.3480  178.5790  143.0000 C   0  0  0  0  0  3  0  0  0  0  0  0
  184.6600  179.2140  143.3280 C   0  0  0  0  0  0  0  0  0  0  0  0
  182.1200  178.7470  144.3640 C   0  0  0  0  0  3  0  0  0  0  0  0
  183.6110  178.8130  142.4440 C   0  0  0  0  0  0  0  0  0  0  0  0
  186.0620  179.3810  142.9660 C   0  0  0  0  0  3  0  0  0  0  0  0
  184.3750  179.3820  144.6890 C   0  0  0  0  0  3  0  0  0  0  0  0
  184.4170  178.9010  139.7770 C   0  0  0  0  0  0  0  0  0  0  0  0
  183.1290  179.1510  145.1750 N   0  0  0  0  0  0  0  0  0  0  0  0
  186.4650  178.9330  141.8340 C   0  0  0  0  0  0  0  0  0  0  0  0
  183.6530  178.7270  140.9970 N   0  0  0  0  0  2  0  0  0  0  0  0
  183.7390  177.8880  137.5740 C   0  0  0  0  0  1  0  0  0  0  0  0
  183.6110  179.0800  138.5290 C   0  0  1  0  0  3  0  0  0  0  0  0
  182.2250  179.4680  138.8350 N   0  0  0  0  0  0  0  0  0  0  0  0
  180.7600  181.1380  137.9430 C   0  0  2  0  0  3  0  0  0  0  0  0
  182.0860  180.9060  138.6280 C   0  0  0  0  0  2  0  0  0  0  0  0
  181.2600  178.8020  137.9500 C   0  0  0  0  0  2  0  0  0  0  0  0
  180.4930  179.8620  137.1870 C   0  0  0  0  0  2  0  0  0  0  0  0
  180.8300  184.5350  135.3080 C   0  0  0  0  0  3  0  0  0  0  0  0
  180.4310  182.1770  135.6980 C   0  0  0  0  0  3  0  0  0  0  0  0
  181.1900  183.5960  137.5100 C   0  0  0  0  0  3  0  0  0  0  0  0
  180.8030  182.3300  137.0390 C   0  0  0  0  0  0  0  0  0  0  0  0
  180.4450  183.2770  134.8340 C   0  0  0  0  0  3  0  0  0  0  0  0
  181.2020  184.6940  136.6450 C   0  0  0  0  0  3  0  0  0  0  0  0
  188.0750  178.1250  140.2460 C   0  0  0  0  0  2  0  0  0  0  0  0
  188.9920  178.3800  141.3460 N   0  0  0  0  0  2  0  0  0  0  0  0
  190.1130  177.7340  143.4570 N   0  0  0  0  0  0  0  0  0  0  0  0
  188.6790  176.2830  142.3150 O   0  0  0  0  0  0  0  0  0  0  0  0
  190.6740  179.0170  143.5440 N   0  0  0  0  0  1  0  0  0  0  0  0
  189.2360  177.4130  142.3700 C   0  0  0  0  0  0  0  0  0  0  0  0
  190.3560  176.7610  144.5180 C   0  0  1  0  0  3  0  0  0  0  0  0
  191.6540  176.0130  144.2580 C   0  0  0  0  0  1  0  0  0  0  0  0
  190.3900  177.4610  145.8720 C   0  0  0  0  0  2  0  0  0  0  0  0
  189.0350  177.4080  146.5620 C   0  0  0  0  0  0  0  0  0  0  0  0
  189.0340  177.9490  147.8230 O   0  0  0  0  0  0  0  0  0  0  0  0
  188.9770  176.6110  147.6780 O   0  0  0  0  0  0  0  0  0  0  0  0
  187.7210  177.5690  145.8210 C   0  0  0  0  0  1  0  0  0  0  0  0
  1 11  2  0  0  0  0
  2  9  2  0  0  0  0
  2  1  1  0  0  0  0
  3  5  1  0  0  0  0
  4  8  2  0  0  0  0
  5 10  2  0  0  0  0
  6  3  2  0  0  0  0
  6  4  1  0  0  0  0
  7  4  1  0  0  0  0
  8 10  1  0  0  0  0
  9 12  1  0  0  0  0
 11  7  2  0  0  0  0
 12  6  1  0  0  0  0
 14 13  1  1  0  0  0
 14 15  1  0  0  0  0
 14  9  1  0  0  0  0
 16 23  1  6  0  0  0
 16 17  1  0  0  0  0
 17 15  1  0  0  0  0
 18 15  1  0  0  0  0
 19 16  1  0  0  0  0
 19 18  1  0  0  0  0
 20 25  1  0  0  0  0
 21 23  2  0  0  0  0
 23 22  1  0  0  0  0
 24 20  2  0  0  0  0
 24 21  1  0  0  0  0
 25 22  2  0  0  0  0
 26  1  1  0  0  0  0
 26 27  1  0  0  0  0
 27 31  1  0  0  0  0
 28 30  1  0  0  0  0
 28 32  1  0  0  0  0
 29 31  2  0  0  0  0
 31 28  1  0  0  0  0
 32 33  1  6  0  0  0
 32 34  1  0  0  0  0
 34 35  1  0  0  0  0
 35 37  1  0  0  0  0
 35 36  1  0  0  0  0
 37 36  1  0  0  0  0
 38 35  1  0  0  0  0
M  END
>  <MODEL>
3

>  <REMARK>
 VINA RESULT:      -8.8      5.725      9.934
  Name = 
  8 active torsions:
  status: ('A' for Active; 'I' for Inactive)
    1  A    between atoms: N_1  and  C_9
    2  A    between atoms: C_3  and  C_19
    3  A    between atoms: N_4  and  C_19
    4  A    between atoms: N_5  and  C_10
    5  A    between atoms: C_7  and  C_33
    6  A    between atoms: C_9  and  C_29
    7  A    between atoms: C_10  and  C_33
    8  A    between atoms: C_12  and  C_28
                            x       y       z     vdW  Elec       q    Type
                         _______ _______ _______ _____ _____    ______ ____

>  <TORSDO>
F 8

$$$$
=
 OpenBabel11042410443D

 38 42  0  0  1  0  0  0  0  0999 V2000
  187.9700  178.6110  137.8740 C   0  0  0  0  0  0  0  0  0  0  0  0
  188.2040  178.5770  139.2750 N   0  0  0  0  0  0  0  0  0  0  0  0
  183.5250  178.8760  140.0070 C   0  0  0  0  0  3  0  0  0  0  0  0
  184.6010  177.9500  138.0460 C   0  0  0  0  0  0  0  0  0  0  0  0
  182.2830  178.6430  139.4200 C   0  0  0  0  0  3  0  0  0  0  0  0
  184.7110  178.5320  139.3470 C   0  0  0  0  0  0  0  0  0  0  0  0
  185.7110  177.6430  137.1540 C   0  0  0  0  0  3  0  0  0  0  0  0
  183.3280  177.7240  137.5080 C   0  0  0  0  0  3  0  0  0  0  0  0
  187.3440  178.5320  140.2590 C   0  0  0  0  0  0  0  0  0  0  0  0
  182.2080  178.0670  138.1950 N   0  0  0  0  0  0  0  0  0  0  0  0
  186.8720  178.1170  137.4260 C   0  0  0  0  0  0  0  0  0  0  0  0
  185.9110  178.7120  140.1410 N   0  0  0  0  0  2  0  0  0  0  0  0
  186.9120  177.9110  142.6620 C   0  0  0  0  0  1  0  0  0  0  0  0
  187.8850  178.5370  141.6550 C   0  0  1  0  0  3  0  0  0  0  0  0
  189.2490  177.9870  141.7050 N   0  0  0  0  0  0  0  0  0  0  0  0
  190.6030  177.1330  143.4840 C   0  0  2  0  0  3  0  0  0  0  0  0
  189.8500  178.3440  142.9860 C   0  0  0  0  0  2  0  0  0  0  0  0
  189.2550  176.5220  141.6100 C   0  0  0  0  0  2  0  0  0  0  0  0
  189.8920  175.9590  142.8630 C   0  0  0  0  0  2  0  0  0  0  0  0
  190.5590  176.9200  147.7780 C   0  0  0  0  0  3  0  0  0  0  0  0
  189.5230  177.5760  145.6890 C   0  0  0  0  0  3  0  0  0  0  0  0
  191.6790  176.4720  145.6790 C   0  0  0  0  0  3  0  0  0  0  0  0
  190.6130  177.0610  144.9780 C   0  0  0  0  0  0  0  0  0  0  0  0
  189.4960  177.5080  147.0850 C   0  0  0  0  0  3  0  0  0  0  0  0
  191.6500  176.4030  147.0750 C   0  0  0  0  0  3  0  0  0  0  0  0
  189.1120  178.8350  136.9450 C   0  0  0  0  0  2  0  0  0  0  0  0
  189.4330  177.5980  136.2500 N   0  0  0  0  0  2  0  0  0  0  0  0
  190.7440  175.5140  135.9800 N   0  0  0  0  0  0  0  0  0  0  0  0
  191.0410  176.9430  137.8060 O   0  0  0  0  0  0  0  0  0  0  0  0
  190.1100  175.2830  134.7500 N   0  0  0  0  0  1  0  0  0  0  0  0
  190.4330  176.6960  136.7290 C   0  0  0  0  0  0  0  0  0  0  0  0
  191.7750  174.5940  136.4500 C   0  0  1  0  0  3  0  0  0  0  0  0
  191.3460  173.1550  136.2110 C   0  0  0  0  0  1  0  0  0  0  0  0
  193.0990  174.8930  135.7550 C   0  0  0  0  0  2  0  0  0  0  0  0
  194.1540  175.3680  136.7440 C   0  0  0  0  0  0  0  0  0  0  0  0
  194.1620  176.7270  136.9340 O   0  0  0  0  0  0  0  0  0  0  0  0
  195.1430  176.1560  136.2100 O   0  0  0  0  0  0  0  0  0  0  0  0
  194.5600  174.5710  137.9690 C   0  0  0  0  0  1  0  0  0  0  0  0
  1  2  1  0  0  0  0
  2  9  2  0  0  0  0
  4  6  1  0  0  0  0
  5  3  1  0  0  0  0
  6  3  2  0  0  0  0
  6 12  1  0  0  0  0
  7 11  2  0  0  0  0
  7  4  1  0  0  0  0
  8  4  2  0  0  0  0
  8 10  1  0  0  0  0
  9 14  1  0  0  0  0
 10  5  2  0  0  0  0
 11  1  2  0  0  0  0
 12  9  1  0  0  0  0
 14 15  1  0  0  0  0
 14 13  1  1  0  0  0
 15 17  1  0  0  0  0
 16 23  1  1  0  0  0
 17 16  1  0  0  0  0
 18 15  1  0  0  0  0
 18 19  1  0  0  0  0
 19 16  1  0  0  0  0
 21 24  2  0  0  0  0
 22 25  1  0  0  0  0
 23 22  2  0  0  0  0
 23 21  1  0  0  0  0
 24 20  1  0  0  0  0
 25 20  2  0  0  0  0
 26  1  1  0  0  0  0
 27 31  1  0  0  0  0
 27 26  1  0  0  0  0
 28 32  1  0  0  0  0
 28 31  1  0  0  0  0
 30 28  1  0  0  0  0
 31 29  2  0  0  0  0
 32 33  1  6  0  0  0
 34 32  1  0  0  0  0
 34 35  1  0  0  0  0
 35 36  1  0  0  0  0
 35 38  1  0  0  0  0
 37 35  1  0  0  0  0
 37 36  1  0  0  0  0
M  END
>  <MODEL>
4

>  <REMARK>
 VINA RESULT:      -8.8      2.723      4.181
  Name = 
  8 active torsions:
  status: ('A' for Active; 'I' for Inactive)
    1  A    between atoms: N_1  and  C_9
    2  A    between atoms: C_3  and  C_19
    3  A    between atoms: N_4  and  C_19
    4  A    between atoms: N_5  and  C_10
    5  A    between atoms: C_7  and  C_33
    6  A    between atoms: C_9  and  C_29
    7  A    between atoms: C_10  and  C_33
    8  A    between atoms: C_12  and  C_28
                            x       y       z     vdW  Elec       q    Type
                         _______ _______ _______ _____ _____    ______ ____

>  <TORSDO>
F 8

$$$$
=
 OpenBabel11042410443D

 38 42  0  0  1  0  0  0  0  0999 V2000
  184.4980  178.2630  139.5340 C   0  0  0  0  0  0  0  0  0  0  0  0
  185.0240  178.5660  140.8190 N   0  0  0  0  0  0  0  0  0  0  0  0
  180.5960  178.9560  142.4780 C   0  0  0  0  0  3  0  0  0  0  0  0
  181.2930  177.6090  140.5920 C   0  0  0  0  0  0  0  0  0  0  0  0
  179.2760  178.5710  142.2500 C   0  0  0  0  0  3  0  0  0  0  0  0
  181.6350  178.4840  141.6690 C   0  0  0  0  0  0  0  0  0  0  0  0
  182.2080  177.1170  139.5700 C   0  0  0  0  0  3  0  0  0  0  0  0
  179.9540  177.2430  140.4140 C   0  0  0  0  0  3  0  0  0  0  0  0
  184.3960  178.7420  141.9520 C   0  0  0  0  0  0  0  0  0  0  0  0
  178.9840  177.7200  141.2350 N   0  0  0  0  0  0  0  0  0  0  0  0
  183.3650  177.6600  139.4640 C   0  0  0  0  0  0  0  0  0  0  0  0
  182.9610  178.8660  142.1160 N   0  0  0  0  0  2  0  0  0  0  0  0
  184.5380  180.1290  144.0500 C   0  0  0  0  0  1  0  0  0  0  0  0
  185.2180  179.0860  143.1560 C   0  0  1  0  0  3  0  0  0  0  0  0
  185.6640  177.8750  143.8650 N   0  0  0  0  0  0  0  0  0  0  0  0
  187.8250  176.9790  144.3680 C   0  0  2  0  0  3  0  0  0  0  0  0
  186.9020  177.4040  143.2510 C   0  0  0  0  0  2  0  0  0  0  0  0
  185.9490  178.1410  145.2800 C   0  0  0  0  0  2  0  0  0  0  0  0
  187.4020  177.8100  145.5510 C   0  0  0  0  0  2  0  0  0  0  0  0
  191.9670  177.6290  143.4110 C   0  0  0  0  0  3  0  0  0  0  0  0
  189.9620  178.2430  144.6250 C   0  0  0  0  0  3  0  0  0  0  0  0
  189.9270  176.3650  143.0950 C   0  0  0  0  0  3  0  0  0  0  0  0
  189.2630  177.1970  144.0120 C   0  0  0  0  0  0  0  0  0  0  0  0
  191.3110  178.4600  144.3250 C   0  0  0  0  0  3  0  0  0  0  0  0
  191.2750  176.5820  142.7970 C   0  0  0  0  0  3  0  0  0  0  0  0
  185.4000  178.2790  138.3490 C   0  0  0  0  0  2  0  0  0  0  0  0
  186.7880  178.2870  138.7860 N   0  0  0  0  0  2  0  0  0  0  0  0
  189.1230  177.4700  138.6770 N   0  0  0  0  0  0  0  0  0  0  0  0
  187.4720  176.7180  137.2030 O   0  0  0  0  0  0  0  0  0  0  0  0
  189.4390  178.2450  139.8030 N   0  0  0  0  0  1  0  0  0  0  0  0
  187.7800  177.4580  138.1770 C   0  0  0  0  0  0  0  0  0  0  0  0
  190.1410  176.6140  138.0750 C   0  0  1  0  0  3  0  0  0  0  0  0
  190.2960  176.9410  136.5980 C   0  0  0  0  0  1  0  0  0  0  0  0
  191.4650  176.7760  138.8130 C   0  0  0  0  0  2  0  0  0  0  0  0
  192.5790  175.9860  138.1420 C   0  0  0  0  0  0  0  0  0  0  0  0
  193.8170  176.1980  138.6930 O   0  0  0  0  0  0  0  0  0  0  0  0
  193.5250  176.7420  137.4960 O   0  0  0  0  0  0  0  0  0  0  0  0
  192.3830  174.5890  137.5830 C   0  0  0  0  0  1  0  0  0  0  0  0
  1  2  1  0  0  0  0
  2  9  2  0  0  0  0
  4  6  1  0  0  0  0
  5  3  1  0  0  0  0
  6 12  1  0  0  0  0
  6  3  2  0  0  0  0
  7  4  1  0  0  0  0
  8  4  2  0  0  0  0
  8 10  1  0  0  0  0
  9 12  1  0  0  0  0
  9 14  1  0  0  0  0
 10  5  2  0  0  0  0
 11  1  2  0  0  0  0
 11  7  2  0  0  0  0
 14 15  1  0  0  0  0
 14 13  1  1  0  0  0
 15 18  1  0  0  0  0
 16 23  1  6  0  0  0
 16 19  1  0  0  0  0
 17 15  1  0  0  0  0
 17 16  1  0  0  0  0
 18 19  1  0  0  0  0
 20 24  1  0  0  0  0
 22 23  2  0  0  0  0
 23 21  1  0  0  0  0
 24 21  2  0  0  0  0
 25 22  1  0  0  0  0
 25 20  2  0  0  0  0
 26 27  1  0  0  0  0
 26  1  1  0  0  0  0
 28 30  1  0  0  0  0
 29 31  2  0  0  0  0
 31 28  1  0  0  0  0
 31 27  1  0  0  0  0
 32 33  1  6  0  0  0
 32 28  1  0  0  0  0
 32 34  1  0  0  0  0
 35 36  1  0  0  0  0
 35 34  1  0  0  0  0
 37 35  1  0  0  0  0
 37 36  1  0  0  0  0
 38 35  1  0  0  0  0
M  END
>  <MODEL>
5

>  <REMARK>
 VINA RESULT:      -8.5      3.912      6.631
  Name = 
  8 active torsions:
  status: ('A' for Active; 'I' for Inactive)
    1  A    between atoms: N_1  and  C_9
    2  A    between atoms: C_3  and  C_19
    3  A    between atoms: N_4  and  C_19
    4  A    between atoms: N_5  and  C_10
    5  A    between atoms: C_7  and  C_33
    6  A    between atoms: C_9  and  C_29
    7  A    between atoms: C_10  and  C_33
    8  A    between atoms: C_12  and  C_28
                            x       y       z     vdW  Elec       q    Type
                         _______ _______ _______ _____ _____    ______ ____

>  <TORSDO>
F 8

$$$$
=
 OpenBabel11042410443D

 38 42  0  0  1  0  0  0  0  0999 V2000
  186.9250  177.7900  137.7440 C   0  0  0  0  0  0  0  0  0  0  0  0
  187.2560  178.1900  139.0670 N   0  0  0  0  0  0  0  0  0  0  0  0
  191.4480  176.0120  138.6180 C   0  0  0  0  0  3  0  0  0  0  0  0
  190.1180  176.9230  136.8110 C   0  0  0  0  0  0  0  0  0  0  0  0
  192.3800  175.5590  137.6870 C   0  0  0  0  0  3  0  0  0  0  0  0
  190.3030  176.7090  138.2130 C   0  0  0  0  0  0  0  0  0  0  0  0
  188.9390  177.5100  136.1880 C   0  0  0  0  0  3  0  0  0  0  0  0
  191.0930  176.4590  135.9190 C   0  0  0  0  0  3  0  0  0  0  0  0
  188.3760  178.0400  139.7240 C   0  0  0  0  0  0  0  0  0  0  0  0
  192.1910  175.7980  136.3660 N   0  0  0  0  0  0  0  0  0  0  0  0
  187.8770  177.6550  136.8910 C   0  0  0  0  0  0  0  0  0  0  0  0
  189.5030  177.2290  139.3040 N   0  0  0  0  0  2  0  0  0  0  0  0
  187.0380  178.6320  141.7740 C   0  0  0  0  0  1  0  0  0  0  0  0
  188.4280  178.5400  141.1340 C   0  0  1  0  0  3  0  0  0  0  0  0
  189.4170  177.7970  141.9320 N   0  0  0  0  0  0  0  0  0  0  0  0
  189.5440  177.2180  144.2500 C   0  0  2  0  0  3  0  0  0  0  0  0
  189.4570  178.3670  143.2740 C   0  0  0  0  0  2  0  0  0  0  0  0
  189.0600  176.3790  142.0670 C   0  0  0  0  0  2  0  0  0  0  0  0
  188.8900  176.0620  143.5380 C   0  0  0  0  0  2  0  0  0  0  0  0
  187.5390  178.1090  147.9480 C   0  0  0  0  0  3  0  0  0  0  0  0
  187.5010  177.8410  145.5400 C   0  0  0  0  0  3  0  0  0  0  0  0
  189.5670  177.5210  146.7640 C   0  0  0  0  0  3  0  0  0  0  0  0
  188.8670  177.5370  145.5460 C   0  0  0  0  0  0  0  0  0  0  0  0
  186.8380  178.1280  146.7380 C   0  0  0  0  0  3  0  0  0  0  0  0
  188.9020  177.8060  147.9610 C   0  0  0  0  0  3  0  0  0  0  0  0
  185.5200  177.9170  137.2690 C   0  0  0  0  0  2  0  0  0  0  0  0
  184.6480  178.2440  138.3880 N   0  0  0  0  0  2  0  0  0  0  0  0
  182.4180  178.6780  139.3720 N   0  0  0  0  0  0  0  0  0  0  0  0
  182.6890  178.0340  137.1410 O   0  0  0  0  0  0  0  0  0  0  0  0
  183.0310  179.0430  140.5810 N   0  0  0  0  0  1  0  0  0  0  0  0
  183.2270  178.3050  138.2490 C   0  0  0  0  0  0  0  0  0  0  0  0
  180.9670  178.7620  139.2390 C   0  0  1  0  0  3  0  0  0  0  0  0
  180.2930  177.8070  140.2120 C   0  0  0  0  0  1  0  0  0  0  0  0
  180.5020  180.1950  139.4690 C   0  0  0  0  0  2  0  0  0  0  0  0
  180.7580  181.0680  138.2490 C   0  0  0  0  0  0  0  0  0  0  0  0
  181.8970  181.8280  138.3420 O   0  0  0  0  0  0  0  0  0  0  0  0
  180.6960  182.4210  138.4740 O   0  0  0  0  0  0  0  0  0  0  0  0
  180.4180  180.6370  136.8350 C   0  0  0  0  0  1  0  0  0  0  0  0
  1  2  1  0  0  0  0
  2  9  2  0  0  0  0
  4  6  2  0  0  0  0
  5  3  2  0  0  0  0
  6  3  1  0  0  0  0
  6 12  1  0  0  0  0
  7  4  1  0  0  0  0
  7 11  2  0  0  0  0
  8 10  2  0  0  0  0
  8  4  1  0  0  0  0
  9 14  1  0  0  0  0
 10  5  1  0  0  0  0
 11  1  2  0  0  0  0
 12  9  1  0  0  0  0
 14 13  1  1  0  0  0
 14 15  1  0  0  0  0
 15 18  1  0  0  0  0
 15 17  1  0  0  0  0
 16 23  1  1  0  0  0
 17 16  1  0  0  0  0
 18 19  1  0  0  0  0
 19 16  1  0  0  0  0
 20 25  1  0  0  0  0
 21 23  2  0  0  0  0
 21 24  1  0  0  0  0
 22 25  2  0  0  0  0
 23 22  1  0  0  0  0
 24 20  2  0  0  0  0
 26  1  1  0  0  0  0
 26 27  1  0  0  0  0
 28 30  1  0  0  0  0
 29 31  2  0  0  0  0
 31 27  1  0  0  0  0
 31 28  1  0  0  0  0
 32 28  1  0  0  0  0
 32 34  1  0  0  0  0
 32 33  1  1  0  0  0
 35 36  1  0  0  0  0
 35 37  1  0  0  0  0
 35 34  1  0  0  0  0
 36 37  1  0  0  0  0
 38 35  1  0  0  0  0
M  END
>  <MODEL>
6

>  <REMARK>
 VINA RESULT:      -8.3      5.272      9.414
  Name = 
  8 active torsions:
  status: ('A' for Active; 'I' for Inactive)
    1  A    between atoms: N_1  and  C_9
    2  A    between atoms: C_3  and  C_19
    3  A    between atoms: N_4  and  C_19
    4  A    between atoms: N_5  and  C_10
    5  A    between atoms: C_7  and  C_33
    6  A    between atoms: C_9  and  C_29
    7  A    between atoms: C_10  and  C_33
    8  A    between atoms: C_12  and  C_28
                            x       y       z     vdW  Elec       q    Type
                         _______ _______ _______ _____ _____    ______ ____

>  <TORSDO>
F 8

$$$$
=
 OpenBabel11042410443D

 38 42  0  0  1  0  0  0  0  0999 V2000
  188.1120  178.0710  141.7670 C   0  0  0  0  0  0  0  0  0  0  0  0
  186.9190  178.1770  142.5320 N   0  0  0  0  0  0  0  0  0  0  0  0
  189.3170  176.7330  146.3640 C   0  0  0  0  0  3  0  0  0  0  0  0
  190.2550  177.8760  144.4470 C   0  0  0  0  0  0  0  0  0  0  0  0
  190.5920  176.6440  146.9190 C   0  0  0  0  0  3  0  0  0  0  0  0
  189.1110  177.3540  145.1260 C   0  0  0  0  0  0  0  0  0  0  0  0
  190.2650  178.4400  143.1030 C   0  0  0  0  0  3  0  0  0  0  0  0
  191.5120  177.7720  145.0560 C   0  0  0  0  0  3  0  0  0  0  0  0
  186.7410  178.0180  143.8180 C   0  0  0  0  0  0  0  0  0  0  0  0
  191.6560  177.1700  146.2630 N   0  0  0  0  0  0  0  0  0  0  0  0
  189.2360  178.2720  142.3560 C   0  0  0  0  0  0  0  0  0  0  0  0
  187.7170  177.4860  144.7490 N   0  0  0  0  0  2  0  0  0  0  0  0
  185.3230  178.3750  145.8680 C   0  0  0  0  0  1  0  0  0  0  0  0
  185.3500  178.1630  144.3500 C   0  0  1  0  0  3  0  0  0  0  0  0
  184.5820  179.1580  143.5840 N   0  0  0  0  0  0  0  0  0  0  0  0
  182.8770  178.9740  141.9150 C   0  0  2  0  0  3  0  0  0  0  0  0
  184.3020  178.6120  142.2590 C   0  0  0  0  0  2  0  0  0  0  0  0
  183.2920  179.4620  144.2150 C   0  0  0  0  0  2  0  0  0  0  0  0
  182.1840  179.1070  143.2460 C   0  0  0  0  0  2  0  0  0  0  0  0
  181.0890  175.9540  139.4310 C   0  0  0  0  0  3  0  0  0  0  0  0
  183.0500  177.0880  140.2900 C   0  0  0  0  0  3  0  0  0  0  0  0
  180.8390  177.7870  140.9910 C   0  0  0  0  0  3  0  0  0  0  0  0
  182.2350  177.9370  141.0470 C   0  0  0  0  0  0  0  0  0  0  0  0
  182.4790  176.0990  139.4820 C   0  0  0  0  0  3  0  0  0  0  0  0
  180.2700  176.7970  140.1850 C   0  0  0  0  0  3  0  0  0  0  0  0
  188.0370  178.1280  140.2800 C   0  0  0  0  0  2  0  0  0  0  0  0
  189.0690  177.2820  139.7020 N   0  0  0  0  0  2  0  0  0  0  0  0
  189.9400  175.7970  137.9220 N   0  0  0  0  0  0  0  0  0  0  0  0
  187.8700  176.8680  137.7450 O   0  0  0  0  0  0  0  0  0  0  0  0
  191.0640  175.5180  138.7150 N   0  0  0  0  0  1  0  0  0  0  0  0
  188.9120  176.6590  138.4250 C   0  0  0  0  0  0  0  0  0  0  0  0
  189.7840  175.1410  136.6270 C   0  0  1  0  0  3  0  0  0  0  0  0
  190.9440  175.5010  135.7120 C   0  0  0  0  0  1  0  0  0  0  0  0
  189.6810  173.6320  136.8130 C   0  0  0  0  0  2  0  0  0  0  0  0
  188.2920  173.1200  136.4630 C   0  0  0  0  0  0  0  0  0  0  0  0
  187.8170  172.1690  137.3320 O   0  0  0  0  0  0  0  0  0  0  0  0
  188.2290  171.7960  136.1050 O   0  0  0  0  0  0  0  0  0  0  0  0
  187.2120  173.9980  135.8610 C   0  0  0  0  0  1  0  0  0  0  0  0
  1 11  2  0  0  0  0
  1  2  1  0  0  0  0
  2  9  2  0  0  0  0
  3  5  1  0  0  0  0
  4  8  2  0  0  0  0
  4  6  1  0  0  0  0
  6  3  2  0  0  0  0
  7  4  1  0  0  0  0
  8 10  1  0  0  0  0
  9 14  1  0  0  0  0
  9 12  1  0  0  0  0
 10  5  2  0  0  0  0
 11  7  2  0  0  0  0
 12  6  1  0  0  0  0
 14 13  1  1  0  0  0
 15 18  1  0  0  0  0
 15 14  1  0  0  0  0
 16 23  1  6  0  0  0
 16 17  1  0  0  0  0
 16 19  1  0  0  0  0
 17 15  1  0  0  0  0
 19 18  1  0  0  0  0
 20 24  2  0  0  0  0
 20 25  1  0  0  0  0
 21 23  2  0  0  0  0
 22 23  1  0  0  0  0
 24 21  1  0  0  0  0
 25 22  2  0  0  0  0
 26  1  1  0  0  0  0
 27 26  1  0  0  0  0
 28 31  1  0  0  0  0
 28 30  1  0  0  0  0
 29 31  2  0  0  0  0
 31 27  1  0  0  0  0
 32 33  1  6  0  0  0
 32 34  1  0  0  0  0
 32 28  1  0  0  0  0
 35 34  1  0  0  0  0
 35 36  1  0  0  0  0
 37 35  1  0  0  0  0
 37 36  1  0  0  0  0
 38 35  1  0  0  0  0
M  END
>  <MODEL>
7

>  <REMARK>
 VINA RESULT:      -8.2      4.313      7.685
  Name = 
  8 active torsions:
  status: ('A' for Active; 'I' for Inactive)
    1  A    between atoms: N_1  and  C_9
    2  A    between atoms: C_3  and  C_19
    3  A    between atoms: N_4  and  C_19
    4  A    between atoms: N_5  and  C_10
    5  A    between atoms: C_7  and  C_33
    6  A    between atoms: C_9  and  C_29
    7  A    between atoms: C_10  and  C_33
    8  A    between atoms: C_12  and  C_28
                            x       y       z     vdW  Elec       q    Type
                         _______ _______ _______ _____ _____    ______ ____

>  <TORSDO>
F 8

$$$$
=
 OpenBabel11042410443D

 38 42  0  0  1  0  0  0  0  0999 V2000
  186.0870  178.1090  138.1390 C   0  0  0  0  0  0  0  0  0  0  0  0
  186.6800  178.4130  139.3940 N   0  0  0  0  0  0  0  0  0  0  0  0
  190.7080  176.3830  137.9190 C   0  0  0  0  0  3  0  0  0  0  0  0
  189.0260  177.3970  136.5040 C   0  0  0  0  0  0  0  0  0  0  0  0
  191.4320  176.0280  136.7820 C   0  0  0  0  0  3  0  0  0  0  0  0
  189.4980  177.0800  137.8150 C   0  0  0  0  0  0  0  0  0  0  0  0
  187.7380  178.0010  136.1850 C   0  0  0  0  0  3  0  0  0  0  0  0
  189.7990  177.0290  135.3960 C   0  0  0  0  0  3  0  0  0  0  0  0
  187.9130  178.2400  139.7930 C   0  0  0  0  0  0  0  0  0  0  0  0
  190.9710  176.3630  135.5520 N   0  0  0  0  0  0  0  0  0  0  0  0
  186.8430  178.0650  137.1010 C   0  0  0  0  0  0  0  0  0  0  0  0
  188.9360  177.4940  139.0860 N   0  0  0  0  0  2  0  0  0  0  0  0
  187.0200  178.6550  142.1110 C   0  0  0  0  0  1  0  0  0  0  0  0
  188.2510  178.6310  141.1980 C   0  0  1  0  0  3  0  0  0  0  0  0
  189.3790  177.8410  141.7190 N   0  0  0  0  0  0  0  0  0  0  0  0
  189.9540  177.0590  143.9060 C   0  0  2  0  0  3  0  0  0  0  0  0
  189.6750  178.2890  143.0760 C   0  0  0  0  0  2  0  0  0  0  0  0
  189.0620  176.4090  141.7880 C   0  0  0  0  0  2  0  0  0  0  0  0
  189.1810  175.9570  143.2290 C   0  0  0  0  0  2  0  0  0  0  0  0
  188.6970  177.5690  147.9860 C   0  0  0  0  0  3  0  0  0  0  0  0
  188.1980  177.5270  145.6150 C   0  0  0  0  0  3  0  0  0  0  0  0
  190.4590  177.1250  146.3860 C   0  0  0  0  0  3  0  0  0  0  0  0
  189.5390  177.2450  145.3310 C   0  0  0  0  0  0  0  0  0  0  0  0
  187.7770  177.6900  146.9390 C   0  0  0  0  0  3  0  0  0  0  0  0
  190.0370  177.2870  147.7090 C   0  0  0  0  0  3  0  0  0  0  0  0
  184.6120  178.2370  137.9750 C   0  0  0  0  0  2  0  0  0  0  0  0
  184.1590  177.3720  136.8960 N   0  0  0  0  0  2  0  0  0  0  0  0
  183.1670  175.2690  136.0460 N   0  0  0  0  0  0  0  0  0  0  0  0
  183.3590  175.7170  138.3320 O   0  0  0  0  0  0  0  0  0  0  0  0
  183.4470  175.6770  134.7320 N   0  0  0  0  0  1  0  0  0  0  0  0
  183.5520  176.1020  137.1460 C   0  0  0  0  0  0  0  0  0  0  0  0
  182.5630  173.9620  136.2870 C   0  0  1  0  0  3  0  0  0  0  0  0
  181.0800  173.9990  135.9540 C   0  0  0  0  0  1  0  0  0  0  0  0
  183.2810  172.8940  135.4710 C   0  0  0  0  0  2  0  0  0  0  0  0
  184.2390  172.0840  136.3320 C   0  0  0  0  0  0  0  0  0  0  0  0
  185.0360  171.2260  135.6160 O   0  0  0  0  0  0  0  0  0  0  0  0
  184.0150  170.7290  136.3410 O   0  0  0  0  0  0  0  0  0  0  0  0
  184.8950  172.6340  137.5840 C   0  0  0  0  0  1  0  0  0  0  0  0
  1  2  1  0  0  0  0
  2  9  2  0  0  0  0
  4  6  2  0  0  0  0
  5  3  2  0  0  0  0
  6  3  1  0  0  0  0
  6 12  1  0  0  0  0
  7  4  1  0  0  0  0
  7 11  2  0  0  0  0
  8 10  2  0  0  0  0
  8  4  1  0  0  0  0
  9 14  1  0  0  0  0
 10  5  1  0  0  0  0
 11  1  2  0  0  0  0
 12  9  1  0  0  0  0
 14 15  1  0  0  0  0
 14 13  1  1  0  0  0
 15 18  1  0  0  0  0
 15 17  1  0  0  0  0
 16 23  1  1  0  0  0
 17 16  1  0  0  0  0
 18 19  1  0  0  0  0
 19 16  1  0  0  0  0
 21 24  1  0  0  0  0
 22 25  2  0  0  0  0
 23 21  2  0  0  0  0
 23 22  1  0  0  0  0
 24 20  2  0  0  0  0
 25 20  1  0  0  0  0
 26  1  1  0  0  0  0
 27 31  1  0  0  0  0
 27 26  1  0  0  0  0
 28 32  1  0  0  0  0
 28 31  1  0  0  0  0
 30 28  1  0  0  0  0
 31 29  2  0  0  0  0
 32 33  1  6  0  0  0
 34 32  1  0  0  0  0
 34 35  1  0  0  0  0
 35 37  1  0  0  0  0
 35 38  1  0  0  0  0
 36 35  1  0  0  0  0
 36 37  1  0  0  0  0
M  END
>  <MODEL>
8

>  <REMARK>
 VINA RESULT:      -7.9      4.860      7.939
  Name = 
  8 active torsions:
  status: ('A' for Active; 'I' for Inactive)
    1  A    between atoms: N_1  and  C_9
    2  A    between atoms: C_3  and  C_19
    3  A    between atoms: N_4  and  C_19
    4  A    between atoms: N_5  and  C_10
    5  A    between atoms: C_7  and  C_33
    6  A    between atoms: C_9  and  C_29
    7  A    between atoms: C_10  and  C_33
    8  A    between atoms: C_12  and  C_28
                            x       y       z     vdW  Elec       q    Type
                         _______ _______ _______ _____ _____    ______ ____

>  <TORSDO>
F 8

$$$$
=
 OpenBabel11042410443D

 38 42  0  0  1  0  0  0  0  0999 V2000
  185.1480  178.9960  140.8040 C   0  0  0  0  0  0  0  0  0  0  0  0
  186.4370  178.3980  140.7760 N   0  0  0  0  0  0  0  0  0  0  0  0
  186.5660  178.5910  145.5160 C   0  0  0  0  0  3  0  0  0  0  0  0
  184.5690  178.4730  144.1520 C   0  0  0  0  0  0  0  0  0  0  0  0
  185.7670  178.6660  146.6560 C   0  0  0  0  0  3  0  0  0  0  0  0
  185.9960  178.4850  144.2420 C   0  0  0  0  0  0  0  0  0  0  0  0
  183.7940  178.4960  142.9180 C   0  0  0  0  0  3  0  0  0  0  0  0
  183.8140  178.5360  145.3290 C   0  0  0  0  0  3  0  0  0  0  0  0
  187.1910  178.0050  141.7700 C   0  0  0  0  0  0  0  0  0  0  0  0
  184.4170  178.6280  146.5420 N   0  0  0  0  0  0  0  0  0  0  0  0
  184.3920  178.7700  141.8180 C   0  0  0  0  0  0  0  0  0  0  0  0
  186.9550  178.2810  143.1740 N   0  0  0  0  0  2  0  0  0  0  0  0
  188.6800  177.1070  139.9480 C   0  0  0  0  0  1  0  0  0  0  0  0
  188.5330  177.4310  141.4400 C   0  0  1  0  0  3  0  0  0  0  0  0
  189.6210  178.2530  141.9940 N   0  0  0  0  0  0  0  0  0  0  0  0
  190.9540  178.0810  143.9740 C   0  0  2  0  0  3  0  0  0  0  0  0
  189.5430  178.2100  143.4500 C   0  0  0  0  0  2  0  0  0  0  0  0
  190.9440  177.7460  141.6090 C   0  0  0  0  0  2  0  0  0  0  0  0
  191.7110  177.3940  142.8670 C   0  0  0  0  0  2  0  0  0  0  0  0
  191.0230  175.8600  147.6550 C   0  0  0  0  0  3  0  0  0  0  0  0
  189.9710  177.4740  146.1860 C   0  0  0  0  0  3  0  0  0  0  0  0
  192.0480  176.4110  145.5320 C   0  0  0  0  0  3  0  0  0  0  0  0
  191.0030  177.3080  145.2540 C   0  0  0  0  0  0  0  0  0  0  0  0
  189.9810  176.7530  147.3840 C   0  0  0  0  0  3  0  0  0  0  0  0
  192.0550  175.6900  146.7290 C   0  0  0  0  0  3  0  0  0  0  0  0
  184.5560  179.5190  139.5420 C   0  0  0  0  0  2  0  0  0  0  0  0
  185.3360  179.0600  138.4030 N   0  0  0  0  0  2  0  0  0  0  0  0
  185.7640  177.5030  136.5260 N   0  0  0  0  0  0  0  0  0  0  0  0
  183.8520  177.3450  137.8620 O   0  0  0  0  0  0  0  0  0  0  0  0
  186.9970  178.1320  136.2950 N   0  0  0  0  0  1  0  0  0  0  0  0
  184.9330  177.9430  137.6080 C   0  0  0  0  0  0  0  0  0  0  0  0
  185.3720  176.3520  135.7180 C   0  0  1  0  0  3  0  0  0  0  0  0
  184.4440  176.7880  134.5960 C   0  0  0  0  0  1  0  0  0  0  0  0
  186.6100  175.6550  135.1650 C   0  0  0  0  0  2  0  0  0  0  0  0
  186.9300  174.3860  135.9410 C   0  0  0  0  0  0  0  0  0  0  0  0
  187.1890  174.6010  137.2710 O   0  0  0  0  0  0  0  0  0  0  0  0
  188.2080  174.3120  136.4390 O   0  0  0  0  0  0  0  0  0  0  0  0
  186.2780  173.0480  135.6480 C   0  0  0  0  0  1  0  0  0  0  0  0
  1 11  2  0  0  0  0
  2  1  1  0  0  0  0
  2  9  2  0  0  0  0
  3  5  1  0  0  0  0
  4  6  1  0  0  0  0
  4  8  2  0  0  0  0
  6  3  2  0  0  0  0
  7  4  1  0  0  0  0
  8 10  1  0  0  0  0
  9 12  1  0  0  0  0
 10  5  2  0  0  0  0
 11  7  2  0  0  0  0
 12  6  1  0  0  0  0
 14 13  1  6  0  0  0
 14  9  1  0  0  0  0
 14 15  1  0  0  0  0
 15 17  1  0  0  0  0
 16 23  1  1  0  0  0
 17 16  1  0  0  0  0
 18 15  1  0  0  0  0
 18 19  1  0  0  0  0
 19 16  1  0  0  0  0
 21 24  2  0  0  0  0
 22 25  1  0  0  0  0
 23 22  2  0  0  0  0
 23 21  1  0  0  0  0
 24 20  1  0  0  0  0
 25 20  2  0  0  0  0
 26  1  1  0  0  0  0
 27 26  1  0  0  0  0
 28 31  1  0  0  0  0
 30 28  1  0  0  0  0
 31 29  2  0  0  0  0
 31 27  1  0  0  0  0
 32 33  1  6  0  0  0
 32 28  1  0  0  0  0
 34 32  1  0  0  0  0
 34 35  1  0  0  0  0
 35 37  1  0  0  0  0
 35 36  1  0  0  0  0
 37 36  1  0  0  0  0
 38 35  1  0  0  0  0
M  END
>  <MODEL>
9

>  <REMARK>
 VINA RESULT:      -7.9      5.127      8.174
  Name = 
  8 active torsions:
  status: ('A' for Active; 'I' for Inactive)
    1  A    between atoms: N_1  and  C_9
    2  A    between atoms: C_3  and  C_19
    3  A    between atoms: N_4  and  C_19
    4  A    between atoms: N_5  and  C_10
    5  A    between atoms: C_7  and  C_33
    6  A    between atoms: C_9  and  C_29
    7  A    between atoms: C_10  and  C_33
    8  A    between atoms: C_12  and  C_28
                            x       y       z     vdW  Elec       q    Type
                         _______ _______ _______ _____ _____    ______ ____

>  <TORSDO>
F 8

$$$$
