=
 OpenBabel11032419573D

 52 56  0  0  1  0  0  0  0  0999 V2000
  190.9670  173.9140  136.5710 N   0  0  0  0  0  2  0  0  0  0  0  0
  189.7200  175.6970  137.8880 C   0  0  0  0  0  0  0  0  0  0  0  0
  191.9710  175.4560  138.1200 N   0  0  0  0  0  0  0  0  0  0  0  0
  192.1400  173.2100  136.1530 C   0  0  0  0  0  0  0  0  0  0  0  0
  190.0820  176.6190  138.7730 C   0  0  0  0  0  0  0  0  0  0  0  0
  192.0300  172.2780  135.3130 O   0  0  0  0  0  0  0  0  0  0  0  0
  193.4270  173.5470  136.6760 N   0  0  0  0  0  2  0  0  0  0  0  0
  191.5600  176.5600  138.9810 C   0  0  0  0  0  2  0  0  0  0  0  0
  190.9290  174.9930  137.5140 C   0  0  0  0  0  0  0  0  0  0  0  0
  194.5470  172.9050  136.2610 O   0  0  0  0  0  0  0  0  0  0  0  0
  198.6970  174.4720  136.2350 C   0  0  0  0  0  2  0  0  0  0  0  0
  196.4330  173.1230  137.7310 C   0  0  1  0  0  3  0  0  0  0  0  0
  195.6020  173.7540  136.6070 C   0  0  1  0  0  3  0  0  0  0  0  0
  196.4100  174.1010  135.3580 C   0  0  0  0  0  2  0  0  0  0  0  0
  197.1590  171.8450  137.3270 C   0  0  0  0  0  1  0  0  0  0  0  0
  197.3280  174.1500  138.4280 C   0  0  0  0  0  2  0  0  0  0  0  0
  198.6860  174.4270  137.7650 C   0  0  0  0  0  2  0  0  0  0  0  0
  197.4720  175.1520  135.6430 C   0  0  0  0  0  2  0  0  0  0  0  0
  189.2550  177.6790  139.2750 N   0  0  0  0  0  2  0  0  0  0  0  0
  188.6570  177.7300  140.5750 C   0  0  0  0  0  0  0  0  0  0  0  0
  187.4590  177.9240  143.0850 C   0  0  0  0  0  0  0  0  0  0  0  0
  186.9400  178.5750  142.0050 N   0  0  0  0  0  0  0  0  0  0  0  0
  189.2240  177.0690  141.6700 C   0  0  0  0  0  3  0  0  0  0  0  0
  187.5090  178.4990  140.7720 C   0  0  0  0  0  3  0  0  0  0  0  0
  188.6240  177.1590  142.9260 C   0  0  0  0  0  3  0  0  0  0  0  0
  185.5630  178.2400  146.9180 C   0  0  0  0  0  3  0  0  0  0  0  0
  186.9040  177.8520  146.8280 C   0  0  0  0  0  0  0  0  0  0  0  0
  184.8390  178.5290  145.7580 C   0  0  0  0  0  3  0  0  0  0  0  0
  185.4540  178.4260  144.5070 C   0  0  0  0  0  3  0  0  0  0  0  0
  186.7990  178.0330  144.4030 C   0  0  0  0  0  0  0  0  0  0  0  0
  187.5170  177.7460  145.5750 C   0  0  0  0  0  3  0  0  0  0  0  0
  189.0190  178.2190  148.0400 C   0  0  0  0  0  1  0  0  0  0  0  0
  187.6700  177.5260  148.0630 C   0  0  0  0  0  2  0  0  0  0  0  0
  188.3950  175.5780  137.2020 C   0  0  0  0  0  2  0  0  0  0  0  0
  188.3870  177.4250  135.4620 C   0  0  0  0  0  2  0  0  0  0  0  0
  185.3760  176.1910  135.2350 C   0  0  0  0  0  0  0  0  0  0  0  0
  187.0040  177.9800  135.7840 C   0  0  0  0  0  2  0  0  0  0  0  0
  184.1370  176.1130  135.6280 N   0  0  0  0  0  0  0  0  0  0  0  0
  185.9800  177.4880  134.7750 C   0  0  0  0  0  2  0  0  0  0  0  0
  187.6380  175.0720  134.8020 C   0  0  0  0  0  2  0  0  0  0  0  0
  188.5220  175.9250  135.7210 C   0  0  2  0  0  3  0  0  0  0  0  0
  186.1920  174.9320  135.2870 C   0  0  0  0  0  2  0  0  0  0  0  0
  182.8230  177.7800  136.9110 N   0  0  0  0  0  2  0  0  0  0  0  0
  183.1530  177.1630  135.6670 C   0  0  0  0  0  0  0  0  0  0  0  0
  182.5600  177.5440  134.6240 O   0  0  0  0  0  0  0  0  0  0  0  0
  183.5090  177.4350  138.1490 C   0  0  0  0  0  2  0  0  0  0  0  0
  183.1450  178.4080  139.2700 C   0  0  2  0  0  3  0  0  0  0  0  0
  185.2290  179.2710  138.4790 O   0  0  0  0  0  1  0  0  0  0  0  0
  184.2610  179.4210  139.4730 C   0  0  0  0  0  2  0  0  0  0  0  0
  182.8420  177.6770  140.5760 C   0  0  0  0  0  2  0  0  0  0  0  0
  182.7540  178.6470  141.7440 C   0  0  0  0  0  2  0  0  0  0  0  0
  181.4230  178.9920  141.9740 O   0  0  0  0  0  1  0  0  0  0  0  0
  1  9  1  0  0  0  0
  2  5  2  0  0  0  0
  3  8  1  0  0  0  0
  4  1  1  0  0  0  0
  4  7  1  0  0  0  0
  5  8  1  0  0  0  0
  5 19  1  0  0  0  0
  6  4  2  0  0  0  0
  9  2  1  0  0  0  0
  9  3  2  0  0  0  0
 10  7  1  0  0  0  0
 11 17  1  0  0  0  0
 12 15  1  6  0  0  0
 12 16  1  0  0  0  0
 13 10  1  6  0  0  0
 13 12  1  0  0  0  0
 14 18  1  0  0  0  0
 14 13  1  0  0  0  0
 17 16  1  0  0  0  0
 18 11  1  0  0  0  0
 19 20  1  0  0  0  0
 20 24  2  0  0  0  0
 20 23  1  0  0  0  0
 21 30  1  0  0  0  0
 22 21  2  0  0  0  0
 23 25  2  0  0  0  0
 24 22  1  0  0  0  0
 25 21  1  0  0  0  0
 27 26  1  0  0  0  0
 27 33  1  0  0  0  0
 28 26  2  0  0  0  0
 29 28  1  0  0  0  0
 30 29  2  0  0  0  0
 30 31  1  0  0  0  0
 31 27  2  0  0  0  0
 32 33  1  0  0  0  0
 34  2  1  0  0  0  0
 35 41  1  0  0  0  0
 35 37  1  0  0  0  0
 36 42  1  0  0  0  0
 36 38  2  0  0  0  0
 38 44  1  0  0  0  0
 39 36  1  0  0  0  0
 39 37  1  0  0  0  0
 40 42  1  0  0  0  0
 40 41  1  0  0  0  0
 41 34  1  1  0  0  0
 43 46  1  0  0  0  0
 44 43  1  0  0  0  0
 45 44  2  0  0  0  0
 47 46  1  6  0  0  0
 47 49  1  0  0  0  0
 47 50  1  0  0  0  0
 48 49  1  0  0  0  0
 50 51  1  0  0  0  0
 51 52  1  0  0  0  0
M  END
>  <MODEL>
1

>  <REMARK>
 VINA RESULT:      -8.4      0.000      0.000
  Name = 
  14 active torsions:
  status: ('A' for Active; 'I' for Inactive)
    1  A    between atoms: C_2  and  C_49
    2  A    between atoms: O_4  and  C_19
    3  A    between atoms: O_4  and  N_23
    4  A    between atoms: N_5  and  C_39
    5  A    between atoms: N_6  and  C_9
    6  A    between atoms: N_6  and  C_18
    7  A    between atoms: C_10  and  C_24
    8  A    between atoms: C_10  and  C_33
    9  A    between atoms: C_14  and  C_44
   10  A    between atoms: C_17  and  C_22
   11  A    between atoms: C_24  and  C_39
   12  A    between atoms: C_24  and  C_50
   13  A    between atoms: N_28  and  C_29
   14  A    between atoms: C_41  and  C_49
                            x       y       z     vdW  Elec       q    Type
                         _______ _______ _______ _____ _____    ______ ____

>  <TORSDO>
F 14

$$$$
=
 OpenBabel11032419573D

 52 56  0  0  1  0  0  0  0  0999 V2000
  186.3540  178.6220  141.6920 N   0  0  0  0  0  2  0  0  0  0  0  0
  188.5550  178.1650  140.5030 C   0  0  0  0  0  0  0  0  0  0  0  0
  186.6300  178.4020  139.3130 N   0  0  0  0  0  0  0  0  0  0  0  0
  184.9490  178.8870  141.7380 C   0  0  0  0  0  0  0  0  0  0  0  0
  188.9070  178.0080  139.2320 C   0  0  0  0  0  0  0  0  0  0  0  0
  184.3930  179.0640  142.8540 O   0  0  0  0  0  0  0  0  0  0  0  0
  184.1710  178.9490  140.5400 N   0  0  0  0  0  2  0  0  0  0  0  0
  187.7080  178.1690  138.3570 C   0  0  0  0  0  2  0  0  0  0  0  0
  187.1270  178.4020  140.5050 C   0  0  0  0  0  0  0  0  0  0  0  0
  182.8450  179.2300  140.5740 O   0  0  0  0  0  0  0  0  0  0  0  0
  180.9530  175.6830  138.6990 C   0  0  0  0  0  2  0  0  0  0  0  0
  180.6930  178.1780  140.3980 C   0  0  1  0  0  3  0  0  0  0  0  0
  182.2090  177.9860  140.5290 C   0  0  1  0  0  3  0  0  0  0  0  0
  182.8250  177.1360  139.4190 C   0  0  0  0  0  2  0  0  0  0  0  0
  180.2580  178.8180  139.0850 C   0  0  0  0  0  1  0  0  0  0  0  0
  179.9210  176.9070  140.7550 C   0  0  0  0  0  2  0  0  0  0  0  0
  179.7500  175.8780  139.6270 C   0  0  0  0  0  2  0  0  0  0  0  0
  182.2870  175.7140  139.4280 C   0  0  0  0  0  2  0  0  0  0  0  0
  190.2490  177.9440  138.7290 N   0  0  0  0  0  2  0  0  0  0  0  0
  190.9180  176.7630  138.2720 C   0  0  0  0  0  0  0  0  0  0  0  0
  192.2970  174.5220  137.3540 C   0  0  0  0  0  0  0  0  0  0  0  0
  192.9630  175.6140  137.8240 N   0  0  0  0  0  0  0  0  0  0  0  0
  190.2080  175.6650  137.7750 C   0  0  0  0  0  3  0  0  0  0  0  0
  192.3120  176.7200  138.2740 C   0  0  0  0  0  3  0  0  0  0  0  0
  190.8950  174.5400  137.3190 C   0  0  0  0  0  3  0  0  0  0  0  0
  194.4970  171.0970  136.0040 C   0  0  0  0  0  3  0  0  0  0  0  0
  195.0340  171.9330  136.9880 C   0  0  0  0  0  0  0  0  0  0  0  0
  193.2410  171.3750  135.4600 C   0  0  0  0  0  3  0  0  0  0  0  0
  192.5210  172.4900  135.8980 C   0  0  0  0  0  3  0  0  0  0  0  0
  193.0510  173.3400  136.8830 C   0  0  0  0  0  0  0  0  0  0  0  0
  194.3140  173.0510  137.4230 C   0  0  0  0  0  3  0  0  0  0  0  0
  197.3300  172.7940  137.2500 C   0  0  0  0  0  1  0  0  0  0  0  0
  196.3820  171.6480  137.5540 C   0  0  0  0  0  2  0  0  0  0  0  0
  189.4680  178.3390  141.6750 C   0  0  0  0  0  2  0  0  0  0  0  0
  190.4030  175.9860  141.8420 C   0  0  0  0  0  2  0  0  0  0  0  0
  191.3170  177.3380  144.6660 C   0  0  0  0  0  0  0  0  0  0  0  0
  190.0160  175.7320  143.2940 C   0  0  0  0  0  2  0  0  0  0  0  0
  191.0830  177.6800  145.9010 N   0  0  0  0  0  0  0  0  0  0  0  0
  191.2160  175.9100  144.2090 C   0  0  0  0  0  2  0  0  0  0  0  0
  191.9410  177.9820  142.2680 C   0  0  0  0  0  2  0  0  0  0  0  0
  190.7030  177.4520  141.5340 C   0  0  2  0  0  3  0  0  0  0  0  0
  191.6630  178.4370  143.7040 C   0  0  0  0  0  2  0  0  0  0  0  0
  189.5830  177.1040  147.7890 N   0  0  0  0  0  2  0  0  0  0  0  0
  190.7430  176.8250  147.0070 C   0  0  0  0  0  0  0  0  0  0  0  0
  191.4590  175.8360  147.3150 O   0  0  0  0  0  0  0  0  0  0  0  0
  188.6730  178.1930  147.4580 C   0  0  0  0  0  2  0  0  0  0  0  0
  187.4510  177.6780  146.6990 C   0  0  2  0  0  3  0  0  0  0  0  0
  187.0920  176.8190  144.4980 O   0  0  0  0  0  1  0  0  0  0  0  0
  187.6250  177.8980  145.2040 C   0  0  0  0  0  2  0  0  0  0  0  0
  186.1630  178.3360  147.1890 C   0  0  0  0  0  2  0  0  0  0  0  0
  185.4890  179.1270  146.0780 C   0  0  0  0  0  2  0  0  0  0  0  0
  184.1080  178.9430  146.1350 O   0  0  0  0  0  1  0  0  0  0  0  0
  1  4  1  0  0  0  0
  2  9  1  0  0  0  0
  2 34  1  0  0  0  0
  3  9  2  0  0  0  0
  4  6  2  0  0  0  0
  5  2  2  0  0  0  0
  7 10  1  0  0  0  0
  7  4  1  0  0  0  0
  8  5  1  0  0  0  0
  8  3  1  0  0  0  0
  9  1  1  0  0  0  0
 11 18  1  0  0  0  0
 11 17  1  0  0  0  0
 12 15  1  6  0  0  0
 12 13  1  0  0  0  0
 12 16  1  0  0  0  0
 13 10  1  6  0  0  0
 14 18  1  0  0  0  0
 14 13  1  0  0  0  0
 17 16  1  0  0  0  0
 19  5  1  0  0  0  0
 20 24  1  0  0  0  0
 20 19  1  0  0  0  0
 21 22  1  0  0  0  0
 22 24  2  0  0  0  0
 23 20  2  0  0  0  0
 25 21  2  0  0  0  0
 25 23  1  0  0  0  0
 26 27  1  0  0  0  0
 27 31  2  0  0  0  0
 27 33  1  0  0  0  0
 28 29  1  0  0  0  0
 28 26  2  0  0  0  0
 29 30  2  0  0  0  0
 30 21  1  0  0  0  0
 30 31  1  0  0  0  0
 32 33  1  0  0  0  0
 35 37  1  0  0  0  0
 36 38  2  0  0  0  0
 37 39  1  0  0  0  0
 38 44  1  0  0  0  0
 39 36  1  0  0  0  0
 40 42  1  0  0  0  0
 41 34  1  1  0  0  0
 41 35  1  0  0  0  0
 41 40  1  0  0  0  0
 42 36  1  0  0  0  0
 44 45  2  0  0  0  0
 44 43  1  0  0  0  0
 46 43  1  0  0  0  0
 47 49  1  6  0  0  0
 47 50  1  0  0  0  0
 47 46  1  0  0  0  0
 48 49  1  0  0  0  0
 51 52  1  0  0  0  0
 51 50  1  0  0  0  0
M  END
>  <MODEL>
2

>  <REMARK>
 VINA RESULT:      -8.4      3.285     11.260
  Name = 
  14 active torsions:
  status: ('A' for Active; 'I' for Inactive)
    1  A    between atoms: C_2  and  C_49
    2  A    between atoms: O_4  and  C_19
    3  A    between atoms: O_4  and  N_23
    4  A    between atoms: N_5  and  C_39
    5  A    between atoms: N_6  and  C_9
    6  A    between atoms: N_6  and  C_18
    7  A    between atoms: C_10  and  C_24
    8  A    between atoms: C_10  and  C_33
    9  A    between atoms: C_14  and  C_44
   10  A    between atoms: C_17  and  C_22
   11  A    between atoms: C_24  and  C_39
   12  A    between atoms: C_24  and  C_50
   13  A    between atoms: N_28  and  C_29
   14  A    between atoms: C_41  and  C_49
                            x       y       z     vdW  Elec       q    Type
                         _______ _______ _______ _____ _____    ______ ____

>  <TORSDO>
F 14

$$$$
=
 OpenBabel11032419573D

 52 56  0  0  1  0  0  0  0  0999 V2000
  186.5490  178.7500  140.5110 N   0  0  0  0  0  2  0  0  0  0  0  0
  188.9490  178.1200  139.9560 C   0  0  0  0  0  0  0  0  0  0  0  0
  187.3640  178.1740  138.3240 N   0  0  0  0  0  0  0  0  0  0  0  0
  185.1810  179.0190  140.1840 C   0  0  0  0  0  0  0  0  0  0  0  0
  189.5820  177.7730  138.8420 C   0  0  0  0  0  0  0  0  0  0  0  0
  184.3870  179.3610  141.1000 O   0  0  0  0  0  0  0  0  0  0  0  0
  184.7080  178.8990  138.8410 N   0  0  0  0  0  2  0  0  0  0  0  0
  188.6270  177.8000  137.6940 C   0  0  0  0  0  2  0  0  0  0  0  0
  187.5690  178.3540  139.5860 C   0  0  0  0  0  0  0  0  0  0  0  0
  183.4210  179.1810  138.5190 O   0  0  0  0  0  0  0  0  0  0  0  0
  180.5030  176.2660  136.8850 C   0  0  0  0  0  2  0  0  0  0  0  0
  182.8690  176.8490  138.6870 C   0  0  1  0  0  3  0  0  0  0  0  0
  182.9820  178.0790  137.7780 C   0  0  1  0  0  3  0  0  0  0  0  0
  181.6870  178.4360  137.0510 C   0  0  0  0  0  2  0  0  0  0  0  0
  181.7970  176.9690  139.7640 C   0  0  0  0  0  1  0  0  0  0  0  0
  182.8000  175.5480  137.8850 C   0  0  0  0  0  2  0  0  0  0  0  0
  181.4080  175.1350  137.3810 C   0  0  0  0  0  2  0  0  0  0  0  0
  181.2480  177.3340  136.0990 C   0  0  0  0  0  2  0  0  0  0  0  0
  191.0020  177.6350  138.6850 N   0  0  0  0  0  2  0  0  0  0  0  0
  191.6800  176.4820  138.1730 C   0  0  0  0  0  0  0  0  0  0  0  0
  192.9380  174.1790  137.2340 C   0  0  0  0  0  0  0  0  0  0  0  0
  191.6220  174.1660  137.5900 N   0  0  0  0  0  0  0  0  0  0  0  0
  193.0370  176.5190  137.8350 C   0  0  0  0  0  3  0  0  0  0  0  0
  190.9880  175.2760  138.0550 C   0  0  0  0  0  3  0  0  0  0  0  0
  193.6680  175.3700  137.3600 C   0  0  0  0  0  3  0  0  0  0  0  0
  194.8160  170.6080  135.7790 C   0  0  0  0  0  3  0  0  0  0  0  0
  195.5360  171.5060  136.5740 C   0  0  0  0  0  0  0  0  0  0  0  0
  193.4820  170.8720  135.4590 C   0  0  0  0  0  3  0  0  0  0  0  0
  192.8670  172.0350  135.9310 C   0  0  0  0  0  3  0  0  0  0  0  0
  193.5800  172.9470  136.7270 C   0  0  0  0  0  0  0  0  0  0  0  0
  194.9200  172.6710  137.0430 C   0  0  0  0  0  3  0  0  0  0  0  0
  197.6530  172.5140  137.3350 C   0  0  0  0  0  1  0  0  0  0  0  0
  196.9640  171.2340  136.8990 C   0  0  0  0  0  2  0  0  0  0  0  0
  189.5690  178.4690  141.2720 C   0  0  0  0  0  2  0  0  0  0  0  0
  190.1610  176.0950  141.9430 C   0  0  0  0  0  2  0  0  0  0  0  0
  190.2730  177.7060  144.7770 C   0  0  0  0  0  0  0  0  0  0  0  0
  189.3140  176.0400  143.2090 C   0  0  0  0  0  2  0  0  0  0  0  0
  189.6990  178.2060  145.8350 N   0  0  0  0  0  0  0  0  0  0  0  0
  190.1780  176.2440  144.4430 C   0  0  0  0  0  2  0  0  0  0  0  0
  191.6800  178.0210  142.6620 C   0  0  0  0  0  2  0  0  0  0  0  0
  190.6890  177.4920  141.6180 C   0  0  2  0  0  3  0  0  0  0  0  0
  191.0130  178.6590  143.8840 C   0  0  0  0  0  2  0  0  0  0  0  0
  187.5680  177.2110  146.6190 N   0  0  0  0  0  2  0  0  0  0  0  0
  188.9440  177.5110  146.8440 C   0  0  0  0  0  0  0  0  0  0  0  0
  189.4690  177.1720  147.9370 O   0  0  0  0  0  0  0  0  0  0  0  0
  186.9080  177.5160  145.3560 C   0  0  0  0  0  2  0  0  0  0  0  0
  185.9420  178.6900  145.5090 C   0  0  2  0  0  3  0  0  0  0  0  0
  185.7290  179.7980  147.6150 O   0  0  0  0  0  1  0  0  0  0  0  0
  185.3110  178.6790  146.8930 C   0  0  0  0  0  2  0  0  0  0  0  0
  184.8620  178.6770  144.4290 C   0  0  0  0  0  2  0  0  0  0  0  0
  183.4950  179.0000  145.0120 C   0  0  0  0  0  2  0  0  0  0  0  0
  182.5010  178.7240  144.0730 O   0  0  0  0  0  1  0  0  0  0  0  0
  2 34  1  0  0  0  0
  3  9  2  0  0  0  0
  4  1  1  0  0  0  0
  4  6  2  0  0  0  0
  5  2  2  0  0  0  0
  7  4  1  0  0  0  0
  8  3  1  0  0  0  0
  8  5  1  0  0  0  0
  9  2  1  0  0  0  0
  9  1  1  0  0  0  0
 10  7  1  0  0  0  0
 11 17  1  0  0  0  0
 12 15  1  6  0  0  0
 13 10  1  1  0  0  0
 13 12  1  0  0  0  0
 14 13  1  0  0  0  0
 16 12  1  0  0  0  0
 17 16  1  0  0  0  0
 18 11  1  0  0  0  0
 18 14  1  0  0  0  0
 19  5  1  0  0  0  0
 20 19  1  0  0  0  0
 21 25  2  0  0  0  0
 21 22  1  0  0  0  0
 22 24  2  0  0  0  0
 23 20  2  0  0  0  0
 24 20  1  0  0  0  0
 25 23  1  0  0  0  0
 26 27  1  0  0  0  0
 27 33  1  0  0  0  0
 27 31  2  0  0  0  0
 28 26  2  0  0  0  0
 28 29  1  0  0  0  0
 29 30  2  0  0  0  0
 30 31  1  0  0  0  0
 30 21  1  0  0  0  0
 33 32  1  0  0  0  0
 35 37  1  0  0  0  0
 36 38  2  0  0  0  0
 37 39  1  0  0  0  0
 38 44  1  0  0  0  0
 39 36  1  0  0  0  0
 40 42  1  0  0  0  0
 41 34  1  1  0  0  0
 41 35  1  0  0  0  0
 41 40  1  0  0  0  0
 42 36  1  0  0  0  0
 43 44  1  0  0  0  0
 44 45  2  0  0  0  0
 46 47  1  0  0  0  0
 46 43  1  0  0  0  0
 47 50  1  6  0  0  0
 47 49  1  0  0  0  0
 49 48  1  0  0  0  0
 50 51  1  0  0  0  0
 52 51  1  0  0  0  0
M  END
>  <MODEL>
3

>  <REMARK>
 VINA RESULT:      -8.2      3.227     10.851
  Name = 
  14 active torsions:
  status: ('A' for Active; 'I' for Inactive)
    1  A    between atoms: C_2  and  C_49
    2  A    between atoms: O_4  and  C_19
    3  A    between atoms: O_4  and  N_23
    4  A    between atoms: N_5  and  C_39
    5  A    between atoms: N_6  and  C_9
    6  A    between atoms: N_6  and  C_18
    7  A    between atoms: C_10  and  C_24
    8  A    between atoms: C_10  and  C_33
    9  A    between atoms: C_14  and  C_44
   10  A    between atoms: C_17  and  C_22
   11  A    between atoms: C_24  and  C_39
   12  A    between atoms: C_24  and  C_50
   13  A    between atoms: N_28  and  C_29
   14  A    between atoms: C_41  and  C_49
                            x       y       z     vdW  Elec       q    Type
                         _______ _______ _______ _____ _____    ______ ____

>  <TORSDO>
F 14

$$$$
=
 OpenBabel11032419573D

 52 56  0  0  1  0  0  0  0  0999 V2000
  191.4270  173.6730  136.4070 N   0  0  0  0  0  2  0  0  0  0  0  0
  190.7090  175.5160  138.0050 C   0  0  0  0  0  0  0  0  0  0  0  0
  192.9170  175.1150  137.6240 N   0  0  0  0  0  0  0  0  0  0  0  0
  192.3910  172.8960  135.6910 C   0  0  0  0  0  0  0  0  0  0  0  0
  191.3600  176.3960  138.7570 C   0  0  0  0  0  0  0  0  0  0  0  0
  191.9940  171.9870  134.9140 O   0  0  0  0  0  0  0  0  0  0  0  0
  193.7920  173.1330  135.8480 N   0  0  0  0  0  2  0  0  0  0  0  0
  192.8310  176.2310  138.5610 C   0  0  0  0  0  2  0  0  0  0  0  0
  191.7200  174.7360  137.3220 C   0  0  0  0  0  0  0  0  0  0  0  0
  194.7110  172.4210  135.1500 O   0  0  0  0  0  0  0  0  0  0  0  0
  199.0550  172.7280  135.9910 C   0  0  0  0  0  2  0  0  0  0  0  0
  196.1930  173.1140  136.9070 C   0  0  1  0  0  3  0  0  0  0  0  0
  195.9300  173.0590  135.3980 C   0  0  1  0  0  3  0  0  0  0  0  0
  197.0370  172.3740  134.5990 C   0  0  0  0  0  2  0  0  0  0  0  0
  196.3990  171.7490  137.5540 C   0  0  0  0  0  1  0  0  0  0  0  0
  197.2730  174.1390  137.2640 C   0  0  0  0  0  2  0  0  0  0  0  0
  198.7270  173.6530  137.1660 C   0  0  0  0  0  2  0  0  0  0  0  0
  198.3570  173.1230  134.6990 C   0  0  0  0  0  2  0  0  0  0  0  0
  190.7760  177.5020  139.4600 N   0  0  0  0  0  2  0  0  0  0  0  0
  190.3040  177.4810  140.8120 C   0  0  0  0  0  0  0  0  0  0  0  0
  189.3080  177.4980  143.4150 C   0  0  0  0  0  0  0  0  0  0  0  0
  188.4740  177.6020  142.3420 N   0  0  0  0  0  0  0  0  0  0  0  0
  191.1850  177.3940  141.8950 C   0  0  0  0  0  3  0  0  0  0  0  0
  188.9370  177.6000  141.0630 C   0  0  0  0  0  3  0  0  0  0  0  0
  190.6900  177.3970  143.1990 C   0  0  0  0  0  3  0  0  0  0  0  0
  187.6810  177.5000  147.3830 C   0  0  0  0  0  3  0  0  0  0  0  0
  186.8780  177.8550  146.2950 C   0  0  0  0  0  0  0  0  0  0  0  0
  189.0170  177.1410  147.1790 C   0  0  0  0  0  3  0  0  0  0  0  0
  189.5500  177.1390  145.8870 C   0  0  0  0  0  3  0  0  0  0  0  0
  188.7540  177.4980  144.7860 C   0  0  0  0  0  0  0  0  0  0  0  0
  187.4140  177.8560  145.0030 C   0  0  0  0  0  3  0  0  0  0  0  0
  184.8560  178.7710  145.2220 C   0  0  0  0  0  1  0  0  0  0  0  0
  185.4600  178.2560  146.5150 C   0  0  0  0  0  2  0  0  0  0  0  0
  189.2440  175.5010  137.7010 C   0  0  0  0  0  2  0  0  0  0  0  0
  189.1820  177.6710  136.3860 C   0  0  0  0  0  2  0  0  0  0  0  0
  186.0470  177.1820  137.1420 C   0  0  0  0  0  0  0  0  0  0  0  0
  188.1990  178.4080  137.2870 C   0  0  0  0  0  2  0  0  0  0  0  0
  185.0380  177.2730  137.9610 N   0  0  0  0  0  0  0  0  0  0  0  0
  186.8040  178.3970  136.6830 C   0  0  0  0  0  2  0  0  0  0  0  0
  187.6270  175.7530  135.7220 C   0  0  0  0  0  2  0  0  0  0  0  0
  188.9670  176.1580  136.3510 C   0  0  2  0  0  3  0  0  0  0  0  0
  186.4450  175.8060  136.6950 C   0  0  0  0  0  2  0  0  0  0  0  0
  183.0760  178.4880  138.8680 N   0  0  0  0  0  2  0  0  0  0  0  0
  184.4600  178.4650  138.5250 C   0  0  0  0  0  0  0  0  0  0  0  0
  185.1500  179.5020  138.7110 O   0  0  0  0  0  0  0  0  0  0  0  0
  182.2290  177.3090  138.7390 C   0  0  0  0  0  2  0  0  0  0  0  0
  181.2960  177.1670  139.9400 C   0  0  2  0  0  3  0  0  0  0  0  0
  179.3810  175.9020  140.6050 O   0  0  0  0  0  1  0  0  0  0  0  0
  179.9790  176.5350  139.5150 C   0  0  0  0  0  2  0  0  0  0  0  0
  181.0470  178.5100  140.6250 C   0  0  0  0  0  2  0  0  0  0  0  0
  179.9380  179.2860  139.9320 C   0  0  0  0  0  2  0  0  0  0  0  0
  180.2090  180.6530  139.9870 O   0  0  0  0  0  1  0  0  0  0  0  0
  1  9  1  0  0  0  0
  2  5  2  0  0  0  0
  3  8  1  0  0  0  0
  4  7  1  0  0  0  0
  4  1  1  0  0  0  0
  5 19  1  0  0  0  0
  6  4  2  0  0  0  0
  8  5  1  0  0  0  0
  9  3  2  0  0  0  0
  9  2  1  0  0  0  0
 10  7  1  0  0  0  0
 11 17  1  0  0  0  0
 12 16  1  0  0  0  0
 12 15  1  6  0  0  0
 13 10  1  1  0  0  0
 13 12  1  0  0  0  0
 14 18  1  0  0  0  0
 14 13  1  0  0  0  0
 17 16  1  0  0  0  0
 18 11  1  0  0  0  0
 19 20  1  0  0  0  0
 20 24  2  0  0  0  0
 20 23  1  0  0  0  0
 21 30  1  0  0  0  0
 22 21  2  0  0  0  0
 23 25  2  0  0  0  0
 24 22  1  0  0  0  0
 25 21  1  0  0  0  0
 27 33  1  0  0  0  0
 27 26  2  0  0  0  0
 28 26  1  0  0  0  0
 29 28  2  0  0  0  0
 30 31  2  0  0  0  0
 30 29  1  0  0  0  0
 31 27  1  0  0  0  0
 32 33  1  0  0  0  0
 34  2  1  0  0  0  0
 35 37  1  0  0  0  0
 36 38  2  0  0  0  0
 38 44  1  0  0  0  0
 39 36  1  0  0  0  0
 39 37  1  0  0  0  0
 40 41  1  0  0  0  0
 40 42  1  0  0  0  0
 41 35  1  0  0  0  0
 41 34  1  1  0  0  0
 42 36  1  0  0  0  0
 44 45  2  0  0  0  0
 44 43  1  0  0  0  0
 46 43  1  0  0  0  0
 47 46  1  6  0  0  0
 47 50  1  0  0  0  0
 49 47  1  0  0  0  0
 49 48  1  0  0  0  0
 51 52  1  0  0  0  0
 51 50  1  0  0  0  0
M  END
>  <MODEL>
4

>  <REMARK>
 VINA RESULT:      -7.9      1.606      2.472
  Name = 
  14 active torsions:
  status: ('A' for Active; 'I' for Inactive)
    1  A    between atoms: C_2  and  C_49
    2  A    between atoms: O_4  and  C_19
    3  A    between atoms: O_4  and  N_23
    4  A    between atoms: N_5  and  C_39
    5  A    between atoms: N_6  and  C_9
    6  A    between atoms: N_6  and  C_18
    7  A    between atoms: C_10  and  C_24
    8  A    between atoms: C_10  and  C_33
    9  A    between atoms: C_14  and  C_44
   10  A    between atoms: C_17  and  C_22
   11  A    between atoms: C_24  and  C_39
   12  A    between atoms: C_24  and  C_50
   13  A    between atoms: N_28  and  C_29
   14  A    between atoms: C_41  and  C_49
                            x       y       z     vdW  Elec       q    Type
                         _______ _______ _______ _____ _____    ______ ____

>  <TORSDO>
F 14

$$$$
=
 OpenBabel11032419573D

 52 56  0  0  1  0  0  0  0  0999 V2000
  185.5840  174.2390  135.9140 N   0  0  0  0  0  2  0  0  0  0  0  0
  185.3990  176.5020  137.0590 C   0  0  0  0  0  0  0  0  0  0  0  0
  183.5280  175.3900  136.3930 N   0  0  0  0  0  0  0  0  0  0  0  0
  185.0510  173.0560  135.3100 C   0  0  0  0  0  0  0  0  0  0  0  0
  184.3840  177.2870  137.4010 C   0  0  0  0  0  0  0  0  0  0  0  0
  185.8420  172.1660  134.8990 O   0  0  0  0  0  0  0  0  0  0  0  0
  183.6400  172.8750  135.1640 N   0  0  0  0  0  2  0  0  0  0  0  0
  183.0960  176.6330  137.0250 C   0  0  0  0  0  2  0  0  0  0  0  0
  184.8180  175.3350  136.4290 C   0  0  0  0  0  0  0  0  0  0  0  0
  183.1270  171.7440  134.6210 O   0  0  0  0  0  0  0  0  0  0  0  0
  179.3390  173.3730  136.2570 C   0  0  0  0  0  2  0  0  0  0  0  0
  181.3190  171.0880  136.0590 C   0  0  1  0  0  3  0  0  0  0  0  0
  181.7450  171.8500  134.7980 C   0  0  1  0  0  3  0  0  0  0  0  0
  181.3410  173.3240  134.7980 C   0  0  0  0  0  2  0  0  0  0  0  0
  181.8630  171.6770  137.3560 C   0  0  0  0  0  1  0  0  0  0  0  0
  179.8140  170.8170  136.0850 C   0  0  0  0  0  2  0  0  0  0  0  0
  178.9310  171.9470  136.6360 C   0  0  0  0  0  2  0  0  0  0  0  0
  179.8300  173.4980  134.8230 C   0  0  0  0  0  2  0  0  0  0  0  0
  184.4650  178.4600  138.2240 N   0  0  0  0  0  2  0  0  0  0  0  0
  184.6000  178.4760  139.6490 C   0  0  0  0  0  0  0  0  0  0  0  0
  184.7700  178.5470  142.4310 C   0  0  0  0  0  0  0  0  0  0  0  0
  183.5680  178.4070  141.8030 N   0  0  0  0  0  0  0  0  0  0  0  0
  185.8440  178.6420  140.2660 C   0  0  0  0  0  3  0  0  0  0  0  0
  183.4600  178.3740  140.4480 C   0  0  0  0  0  3  0  0  0  0  0  0
  185.9340  178.6730  141.6580 C   0  0  0  0  0  3  0  0  0  0  0  0
  184.9820  178.6150  146.7130 C   0  0  0  0  0  3  0  0  0  0  0  0
  186.0910  178.2150  145.9630 C   0  0  0  0  0  0  0  0  0  0  0  0
  183.8020  178.9960  146.0690 C   0  0  0  0  0  3  0  0  0  0  0  0
  183.7290  178.9750  144.6730 C   0  0  0  0  0  3  0  0  0  0  0  0
  184.8360  178.5710  143.9080 C   0  0  0  0  0  0  0  0  0  0  0  0
  186.0160  178.1910  144.5650 C   0  0  0  0  0  3  0  0  0  0  0  0
  188.4300  177.5100  145.6290 C   0  0  0  0  0  1  0  0  0  0  0  0
  187.3420  177.7890  146.6490 C   0  0  0  0  0  2  0  0  0  0  0  0
  186.8290  176.6450  137.4750 C   0  0  0  0  0  2  0  0  0  0  0  0
  188.6660  176.2560  135.7680 C   0  0  0  0  0  2  0  0  0  0  0  0
  190.2190  177.8220  138.1710 C   0  0  0  0  0  0  0  0  0  0  0  0
  189.7530  175.8410  136.7530 C   0  0  0  0  0  2  0  0  0  0  0  0
  190.8410  177.8360  139.3170 N   0  0  0  0  0  0  0  0  0  0  0  0
  190.7080  176.9940  137.0170 C   0  0  0  0  0  2  0  0  0  0  0  0
  188.2850  178.6090  136.6900 C   0  0  0  0  0  2  0  0  0  0  0  0
  187.6610  177.2510  136.3470 C   0  0  2  0  0  3  0  0  0  0  0  0
  188.9710  178.6490  138.0590 C   0  0  0  0  0  2  0  0  0  0  0  0
  192.3410  176.8910  141.0490 N   0  0  0  0  0  2  0  0  0  0  0  0
  192.0500  177.1440  139.6750 C   0  0  0  0  0  0  0  0  0  0  0  0
  192.8730  176.7660  138.8000 O   0  0  0  0  0  0  0  0  0  0  0  0
  191.4100  177.2430  142.1130 C   0  0  0  0  0  2  0  0  0  0  0  0
  190.9670  176.0040  142.8900 C   0  0  2  0  0  3  0  0  0  0  0  0
  188.8810  177.0490  142.3750 O   0  0  0  0  0  1  0  0  0  0  0  0
  189.4530  175.8680  142.8490 C   0  0  0  0  0  2  0  0  0  0  0  0
  191.4630  176.0370  144.3340 C   0  0  0  0  0  2  0  0  0  0  0  0
  191.6750  177.4640  144.8130 C   0  0  0  0  0  2  0  0  0  0  0  0
  191.8730  177.4770  146.1940 O   0  0  0  0  0  1  0  0  0  0  0  0
  1  9  1  0  0  0  0
  2  5  2  0  0  0  0
  2 34  1  0  0  0  0
  3  9  2  0  0  0  0
  3  8  1  0  0  0  0
  4  1  1  0  0  0  0
  5 19  1  0  0  0  0
  6  4  2  0  0  0  0
  7  4  1  0  0  0  0
  8  5  1  0  0  0  0
  9  2  1  0  0  0  0
 10  7  1  0  0  0  0
 11 17  1  0  0  0  0
 12 16  1  0  0  0  0
 12 15  1  1  0  0  0
 13 10  1  1  0  0  0
 13 12  1  0  0  0  0
 14 13  1  0  0  0  0
 14 18  1  0  0  0  0
 16 17  1  0  0  0  0
 18 11  1  0  0  0  0
 19 20  1  0  0  0  0
 20 23  2  0  0  0  0
 20 24  1  0  0  0  0
 21 30  1  0  0  0  0
 22 21  1  0  0  0  0
 23 25  1  0  0  0  0
 24 22  2  0  0  0  0
 25 21  2  0  0  0  0
 27 33  1  0  0  0  0
 27 26  2  0  0  0  0
 28 26  1  0  0  0  0
 29 28  2  0  0  0  0
 30 31  2  0  0  0  0
 30 29  1  0  0  0  0
 31 27  1  0  0  0  0
 32 33  1  0  0  0  0
 35 41  1  0  0  0  0
 35 37  1  0  0  0  0
 36 38  2  0  0  0  0
 37 39  1  0  0  0  0
 38 44  1  0  0  0  0
 39 36  1  0  0  0  0
 40 42  1  0  0  0  0
 41 40  1  0  0  0  0
 41 34  1  1  0  0  0
 42 36  1  0  0  0  0
 43 46  1  0  0  0  0
 44 43  1  0  0  0  0
 45 44  2  0  0  0  0
 47 46  1  1  0  0  0
 47 50  1  0  0  0  0
 48 49  1  0  0  0  0
 49 47  1  0  0  0  0
 50 51  1  0  0  0  0
 51 52  1  0  0  0  0
M  END
>  <MODEL>
5

>  <REMARK>
 VINA RESULT:      -7.5      3.743      8.884
  Name = 
  14 active torsions:
  status: ('A' for Active; 'I' for Inactive)
    1  A    between atoms: C_2  and  C_49
    2  A    between atoms: O_4  and  C_19
    3  A    between atoms: O_4  and  N_23
    4  A    between atoms: N_5  and  C_39
    5  A    between atoms: N_6  and  C_9
    6  A    between atoms: N_6  and  C_18
    7  A    between atoms: C_10  and  C_24
    8  A    between atoms: C_10  and  C_33
    9  A    between atoms: C_14  and  C_44
   10  A    between atoms: C_17  and  C_22
   11  A    between atoms: C_24  and  C_39
   12  A    between atoms: C_24  and  C_50
   13  A    between atoms: N_28  and  C_29
   14  A    between atoms: C_41  and  C_49
                            x       y       z     vdW  Elec       q    Type
                         _______ _______ _______ _____ _____    ______ ____

>  <TORSDO>
F 14

$$$$
=
 OpenBabel11032419573D

 52 56  0  0  1  0  0  0  0  0999 V2000
  187.3080  178.1590  141.2000 N   0  0  0  0  0  2  0  0  0  0  0  0
  188.8780  177.8040  139.2300 C   0  0  0  0  0  0  0  0  0  0  0  0
  189.6140  177.4960  141.3620 N   0  0  0  0  0  0  0  0  0  0  0  0
  186.9710  178.1640  142.5910 C   0  0  0  0  0  0  0  0  0  0  0  0
  190.1530  177.4520  139.1140 C   0  0  0  0  0  0  0  0  0  0  0  0
  185.8020  178.4790  142.9380 O   0  0  0  0  0  0  0  0  0  0  0  0
  187.9400  177.8230  143.5850 N   0  0  0  0  0  2  0  0  0  0  0  0
  190.7300  177.2010  140.4680 C   0  0  0  0  0  2  0  0  0  0  0  0
  188.5880  177.8240  140.6490 C   0  0  0  0  0  0  0  0  0  0  0  0
  187.6200  177.7970  144.9020 O   0  0  0  0  0  0  0  0  0  0  0  0
  191.3000  176.3540  146.9150 C   0  0  0  0  0  2  0  0  0  0  0  0
  188.6190  177.7550  147.0850 C   0  0  1  0  0  3  0  0  0  0  0  0
  188.8410  177.8990  145.5750 C   0  0  1  0  0  3  0  0  0  0  0  0
  189.8310  176.8920  144.9940 C   0  0  0  0  0  2  0  0  0  0  0  0
  188.1220  176.3780  147.5120 C   0  0  0  0  0  1  0  0  0  0  0  0
  189.8160  178.2600  147.8930 C   0  0  0  0  0  2  0  0  0  0  0  0
  190.9630  177.2590  148.1040 C   0  0  0  0  0  2  0  0  0  0  0  0
  191.2270  177.0680  145.5740 C   0  0  0  0  0  2  0  0  0  0  0  0
  190.8270  177.1130  137.8930 N   0  0  0  0  0  2  0  0  0  0  0  0
  191.9440  176.2260  137.7710 C   0  0  0  0  0  0  0  0  0  0  0  0
  194.1720  174.5740  137.4890 C   0  0  0  0  0  0  0  0  0  0  0  0
  194.3100  175.9220  137.6440 N   0  0  0  0  0  0  0  0  0  0  0  0
  191.7720  174.8490  137.5920 C   0  0  0  0  0  3  0  0  0  0  0  0
  193.2380  176.7480  137.7790 C   0  0  0  0  0  3  0  0  0  0  0  0
  192.8840  174.0190  137.4560 C   0  0  0  0  0  3  0  0  0  0  0  0
  197.6580  172.1080  137.0960 C   0  0  0  0  0  3  0  0  0  0  0  0
  197.7630  173.4960  136.9670 C   0  0  0  0  0  0  0  0  0  0  0  0
  196.4160  171.5210  137.3560 C   0  0  0  0  0  3  0  0  0  0  0  0
  195.2780  172.3220  137.4850 C   0  0  0  0  0  3  0  0  0  0  0  0
  195.3690  173.7180  137.3530 C   0  0  0  0  0  0  0  0  0  0  0  0
  196.6220  174.2970  137.0930 C   0  0  0  0  0  3  0  0  0  0  0  0
  199.0450  174.8030  135.3160 C   0  0  0  0  0  1  0  0  0  0  0  0
  199.0820  174.1200  136.6710 C   0  0  0  0  0  2  0  0  0  0  0  0
  187.8640  177.8960  138.1340 C   0  0  0  0  0  2  0  0  0  0  0  0
  187.9640  177.7070  135.6050 C   0  0  0  0  0  2  0  0  0  0  0  0
  185.3430  175.9230  136.3700 C   0  0  0  0  0  0  0  0  0  0  0  0
  186.4720  177.8790  135.3450 C   0  0  0  0  0  2  0  0  0  0  0  0
  184.0760  175.8100  136.6520 N   0  0  0  0  0  0  0  0  0  0  0  0
  185.8140  176.5350  135.0810 C   0  0  0  0  0  2  0  0  0  0  0  0
  187.7960  175.5840  137.0190 C   0  0  0  0  0  2  0  0  0  0  0  0
  188.2800  177.0380  136.9420 C   0  0  2  0  0  3  0  0  0  0  0  0
  186.3200  175.4420  137.4030 C   0  0  0  0  0  2  0  0  0  0  0  0
  182.2080  177.3620  136.1500 N   0  0  0  0  0  2  0  0  0  0  0  0
  182.9510  176.1850  135.8370 C   0  0  0  0  0  0  0  0  0  0  0  0
  182.5930  175.4840  134.8520 O   0  0  0  0  0  0  0  0  0  0  0  0
  182.5980  178.2530  137.2340 C   0  0  0  0  0  2  0  0  0  0  0  0
  182.0990  177.7340  138.5820 C   0  0  2  0  0  3  0  0  0  0  0  0
  180.6640  179.6080  138.2090 O   0  0  0  0  0  1  0  0  0  0  0  0
  180.8320  178.4670  138.9950 C   0  0  0  0  0  2  0  0  0  0  0  0
  183.1670  177.8600  139.6670 C   0  0  0  0  0  2  0  0  0  0  0  0
  184.4160  178.5460  139.1350 C   0  0  0  0  0  2  0  0  0  0  0  0
  184.6160  179.7520  139.8060 O   0  0  0  0  0  1  0  0  0  0  0  0
  1  4  1  0  0  0  0
  2  9  1  0  0  0  0
  4  6  2  0  0  0  0
  4  7  1  0  0  0  0
  5  2  2  0  0  0  0
  5  8  1  0  0  0  0
  7 10  1  0  0  0  0
  8  3  1  0  0  0  0
  9  1  1  0  0  0  0
  9  3  2  0  0  0  0
 11 17  1  0  0  0  0
 12 15  1  6  0  0  0
 12 16  1  0  0  0  0
 13 10  1  6  0  0  0
 13 12  1  0  0  0  0
 14 18  1  0  0  0  0
 14 13  1  0  0  0  0
 16 17  1  0  0  0  0
 18 11  1  0  0  0  0
 19  5  1  0  0  0  0
 20 24  1  0  0  0  0
 20 19  1  0  0  0  0
 21 22  1  0  0  0  0
 22 24  2  0  0  0  0
 23 20  2  0  0  0  0
 25 21  2  0  0  0  0
 25 23  1  0  0  0  0
 26 28  1  0  0  0  0
 27 31  1  0  0  0  0
 27 26  2  0  0  0  0
 28 29  2  0  0  0  0
 30 29  1  0  0  0  0
 30 21  1  0  0  0  0
 31 30  2  0  0  0  0
 32 33  1  0  0  0  0
 33 27  1  0  0  0  0
 34  2  1  0  0  0  0
 35 41  1  0  0  0  0
 36 38  2  0  0  0  0
 36 42  1  0  0  0  0
 37 35  1  0  0  0  0
 39 37  1  0  0  0  0
 39 36  1  0  0  0  0
 40 42  1  0  0  0  0
 41 40  1  0  0  0  0
 41 34  1  1  0  0  0
 43 46  1  0  0  0  0
 44 43  1  0  0  0  0
 44 38  1  0  0  0  0
 45 44  2  0  0  0  0
 47 46  1  6  0  0  0
 47 49  1  0  0  0  0
 47 50  1  0  0  0  0
 48 49  1  0  0  0  0
 51 50  1  0  0  0  0
 51 52  1  0  0  0  0
M  END
>  <MODEL>
6

>  <REMARK>
 VINA RESULT:      -7.3      2.755      8.898
  Name = 
  14 active torsions:
  status: ('A' for Active; 'I' for Inactive)
    1  A    between atoms: C_2  and  C_49
    2  A    between atoms: O_4  and  C_19
    3  A    between atoms: O_4  and  N_23
    4  A    between atoms: N_5  and  C_39
    5  A    between atoms: N_6  and  C_9
    6  A    between atoms: N_6  and  C_18
    7  A    between atoms: C_10  and  C_24
    8  A    between atoms: C_10  and  C_33
    9  A    between atoms: C_14  and  C_44
   10  A    between atoms: C_17  and  C_22
   11  A    between atoms: C_24  and  C_39
   12  A    between atoms: C_24  and  C_50
   13  A    between atoms: N_28  and  C_29
   14  A    between atoms: C_41  and  C_49
                            x       y       z     vdW  Elec       q    Type
                         _______ _______ _______ _____ _____    ______ ____

>  <TORSDO>
F 14

$$$$
=
 OpenBabel11032419573D

 52 56  0  0  1  0  0  0  0  0999 V2000
  191.3400  173.4260  136.4340 N   0  0  0  0  0  2  0  0  0  0  0  0
  190.5260  175.4270  137.7760 C   0  0  0  0  0  0  0  0  0  0  0  0
  192.7520  175.0900  137.4430 N   0  0  0  0  0  0  0  0  0  0  0  0
  192.3440  172.6100  135.8230 C   0  0  0  0  0  0  0  0  0  0  0  0
  191.1300  176.4300  138.4030 C   0  0  0  0  0  0  0  0  0  0  0  0
  191.9940  171.5880  135.1750 O   0  0  0  0  0  0  0  0  0  0  0  0
  193.7300  172.9360  135.9420 N   0  0  0  0  0  2  0  0  0  0  0  0
  192.6090  176.3140  138.2240 C   0  0  0  0  0  2  0  0  0  0  0  0
  191.5760  174.6150  137.1990 C   0  0  0  0  0  0  0  0  0  0  0  0
  194.6850  172.1850  135.3400 O   0  0  0  0  0  0  0  0  0  0  0  0
  198.9350  173.1860  136.1210 C   0  0  0  0  0  2  0  0  0  0  0  0
  196.0020  173.6280  136.7370 C   0  0  1  0  0  3  0  0  0  0  0  0
  195.8360  172.9780  135.3580 C   0  0  1  0  0  3  0  0  0  0  0  0
  197.0380  172.1450  134.9160 C   0  0  0  0  0  2  0  0  0  0  0  0
  196.2680  172.6370  137.8640 C   0  0  0  0  0  1  0  0  0  0  0  0
  196.9790  174.8050  136.7030 C   0  0  0  0  0  2  0  0  0  0  0  0
  198.4680  174.4540  136.8410 C   0  0  0  0  0  2  0  0  0  0  0  0
  198.2900  172.9940  134.7580 C   0  0  0  0  0  2  0  0  0  0  0  0
  190.4900  177.5890  138.9550 N   0  0  0  0  0  2  0  0  0  0  0  0
  189.7890  177.6440  140.2030 C   0  0  0  0  0  0  0  0  0  0  0  0
  188.4580  177.6580  142.6520 C   0  0  0  0  0  0  0  0  0  0  0  0
  189.6000  176.9350  142.4760 N   0  0  0  0  0  0  0  0  0  0  0  0
  188.6070  178.3780  140.3490 C   0  0  0  0  0  3  0  0  0  0  0  0
  190.2650  176.9100  141.2900 C   0  0  0  0  0  3  0  0  0  0  0  0
  187.9410  178.3910  141.5740 C   0  0  0  0  0  3  0  0  0  0  0  0
  186.5000  177.6570  146.4670 C   0  0  0  0  0  3  0  0  0  0  0  0
  187.8650  177.3650  146.3790 C   0  0  0  0  0  0  0  0  0  0  0  0
  185.7720  177.9520  145.3120 C   0  0  0  0  0  3  0  0  0  0  0  0
  186.4070  177.9530  144.0670 C   0  0  0  0  0  3  0  0  0  0  0  0
  187.7760  177.6580  143.9640 C   0  0  0  0  0  0  0  0  0  0  0  0
  188.4990  177.3620  145.1320 C   0  0  0  0  0  3  0  0  0  0  0  0
  189.0550  178.3010  148.3240 C   0  0  0  0  0  1  0  0  0  0  0  0
  188.6370  177.0300  147.6080 C   0  0  0  0  0  2  0  0  0  0  0  0
  189.0650  175.2990  137.4830 C   0  0  0  0  0  2  0  0  0  0  0  0
  188.4770  177.4880  136.3420 C   0  0  0  0  0  2  0  0  0  0  0  0
  185.5710  176.0550  136.7190 C   0  0  0  0  0  0  0  0  0  0  0  0
  187.2520  177.8170  137.1880 C   0  0  0  0  0  2  0  0  0  0  0  0
  184.5180  175.7690  137.4300 N   0  0  0  0  0  0  0  0  0  0  0  0
  185.9750  177.4750  136.4400 C   0  0  0  0  0  2  0  0  0  0  0  0
  187.6080  175.2900  135.3690 C   0  0  0  0  0  2  0  0  0  0  0  0
  188.7160  175.9890  136.1670 C   0  0  2  0  0  3  0  0  0  0  0  0
  186.3880  174.9030  136.2100 C   0  0  0  0  0  2  0  0  0  0  0  0
  182.2440  176.2470  138.2960 N   0  0  0  0  0  2  0  0  0  0  0  0
  183.5740  176.6820  138.0210 C   0  0  0  0  0  0  0  0  0  0  0  0
  183.8930  177.8700  138.2890 O   0  0  0  0  0  0  0  0  0  0  0  0
  181.8200  174.8710  138.0710 C   0  0  0  0  0  2  0  0  0  0  0  0
  180.8900  174.7720  136.8620 C   0  0  2  0  0  3  0  0  0  0  0  0
  181.0950  172.4020  137.0890 O   0  0  0  0  0  1  0  0  0  0  0  0
  180.1790  173.4270  136.8500 C   0  0  0  0  0  2  0  0  0  0  0  0
  181.6430  174.9900  135.5510 C   0  0  0  0  0  2  0  0  0  0  0  0
  181.1530  176.2400  134.8350 C   0  0  0  0  0  2  0  0  0  0  0  0
  180.1700  176.8690  135.5980 O   0  0  0  0  0  1  0  0  0  0  0  0
  1  9  1  0  0  0  0
  2  5  2  0  0  0  0
  3  8  1  0  0  0  0
  4  7  1  0  0  0  0
  4  1  1  0  0  0  0
  5 19  1  0  0  0  0
  6  4  2  0  0  0  0
  8  5  1  0  0  0  0
  9  3  2  0  0  0  0
  9  2  1  0  0  0  0
 10  7  1  0  0  0  0
 11 17  1  0  0  0  0
 12 15  1  1  0  0  0
 13 10  1  1  0  0  0
 13 12  1  0  0  0  0
 14 13  1  0  0  0  0
 16 12  1  0  0  0  0
 16 17  1  0  0  0  0
 18 14  1  0  0  0  0
 18 11  1  0  0  0  0
 19 20  1  0  0  0  0
 20 23  2  0  0  0  0
 20 24  1  0  0  0  0
 21 30  1  0  0  0  0
 22 21  1  0  0  0  0
 23 25  1  0  0  0  0
 24 22  2  0  0  0  0
 25 21  2  0  0  0  0
 27 26  1  0  0  0  0
 27 33  1  0  0  0  0
 28 26  2  0  0  0  0
 29 28  1  0  0  0  0
 30 29  2  0  0  0  0
 30 31  1  0  0  0  0
 31 27  2  0  0  0  0
 33 32  1  0  0  0  0
 34  2  1  0  0  0  0
 35 37  1  0  0  0  0
 36 38  2  0  0  0  0
 38 44  1  0  0  0  0
 39 36  1  0  0  0  0
 39 37  1  0  0  0  0
 40 41  1  0  0  0  0
 40 42  1  0  0  0  0
 41 35  1  0  0  0  0
 41 34  1  1  0  0  0
 42 36  1  0  0  0  0
 44 45  2  0  0  0  0
 44 43  1  0  0  0  0
 46 43  1  0  0  0  0
 47 50  1  6  0  0  0
 47 46  1  0  0  0  0
 49 47  1  0  0  0  0
 49 48  1  0  0  0  0
 51 50  1  0  0  0  0
 51 52  1  0  0  0  0
M  END
>  <MODEL>
7

>  <REMARK>
 VINA RESULT:      -7.3      1.791      2.803
  Name = 
  14 active torsions:
  status: ('A' for Active; 'I' for Inactive)
    1  A    between atoms: C_2  and  C_49
    2  A    between atoms: O_4  and  C_19
    3  A    between atoms: O_4  and  N_23
    4  A    between atoms: N_5  and  C_39
    5  A    between atoms: N_6  and  C_9
    6  A    between atoms: N_6  and  C_18
    7  A    between atoms: C_10  and  C_24
    8  A    between atoms: C_10  and  C_33
    9  A    between atoms: C_14  and  C_44
   10  A    between atoms: C_17  and  C_22
   11  A    between atoms: C_24  and  C_39
   12  A    between atoms: C_24  and  C_50
   13  A    between atoms: N_28  and  C_29
   14  A    between atoms: C_41  and  C_49
                            x       y       z     vdW  Elec       q    Type
                         _______ _______ _______ _____ _____    ______ ____

>  <TORSDO>
F 14

$$$$
=
 OpenBabel11032419573D

 52 56  0  0  1  0  0  0  0  0999 V2000
  182.7800  179.0130  143.1010 N   0  0  0  0  0  2  0  0  0  0  0  0
  185.3020  178.9510  142.7810 C   0  0  0  0  0  0  0  0  0  0  0  0
  183.9080  178.7660  140.9920 N   0  0  0  0  0  0  0  0  0  0  0  0
  181.4250  179.0010  142.6410 C   0  0  0  0  0  0  0  0  0  0  0  0
  186.0990  178.8210  141.7270 C   0  0  0  0  0  0  0  0  0  0  0  0
  180.4900  179.1060  143.4790 O   0  0  0  0  0  0  0  0  0  0  0  0
  181.1200  178.8680  141.2500 N   0  0  0  0  0  2  0  0  0  0  0  0
  185.2760  178.7140  140.4860 C   0  0  0  0  0  2  0  0  0  0  0  0
  183.9460  178.9050  142.2750 C   0  0  0  0  0  0  0  0  0  0  0  0
  179.8400  178.8860  140.8050 O   0  0  0  0  0  0  0  0  0  0  0  0
  181.7590  178.4230  136.8320 C   0  0  0  0  0  2  0  0  0  0  0  0
  179.7290  179.8200  138.5950 C   0  0  1  0  0  3  0  0  0  0  0  0
  179.9230  178.5600  139.4470 C   0  0  1  0  0  3  0  0  0  0  0  0
  181.2340  177.8240  139.1780 C   0  0  0  0  0  2  0  0  0  0  0  0
  180.8370  180.8550  138.7530 C   0  0  0  0  0  1  0  0  0  0  0  0
  179.3990  179.4820  137.1390 C   0  0  0  0  0  2  0  0  0  0  0  0
  180.5980  179.2090  136.2180 C   0  0  0  0  0  2  0  0  0  0  0  0
  181.3080  177.2990  137.7520 C   0  0  0  0  0  2  0  0  0  0  0  0
  187.5230  179.0020  141.7180 N   0  0  0  0  0  2  0  0  0  0  0  0
  188.4570  178.2570  140.9290 C   0  0  0  0  0  0  0  0  0  0  0  0
  190.2210  176.8290  139.3100 C   0  0  0  0  0  0  0  0  0  0  0  0
  189.5390  177.9060  138.8280 N   0  0  0  0  0  0  0  0  0  0  0  0
  189.1280  177.1420  141.4440 C   0  0  0  0  0  3  0  0  0  0  0  0
  188.6700  178.6160  139.5970 C   0  0  0  0  0  3  0  0  0  0  0  0
  190.0150  176.4290  140.6390 C   0  0  0  0  0  3  0  0  0  0  0  0
  192.9270  174.6920  136.7600 C   0  0  0  0  0  3  0  0  0  0  0  0
  191.5660  174.3730  136.7630 C   0  0  0  0  0  0  0  0  0  0  0  0
  193.4080  175.7100  137.5870 C   0  0  0  0  0  3  0  0  0  0  0  0
  192.5290  176.4090  138.4190 C   0  0  0  0  0  3  0  0  0  0  0  0
  191.1600  176.0950  138.4350 C   0  0  0  0  0  0  0  0  0  0  0  0
  190.6870  175.0700  137.6000 C   0  0  0  0  0  3  0  0  0  0  0  0
  190.1040  173.8290  134.8540 C   0  0  0  0  0  1  0  0  0  0  0  0
  191.0550  173.2740  135.8970 C   0  0  0  0  0  2  0  0  0  0  0  0
  185.7000  179.3420  144.1690 C   0  0  0  0  0  2  0  0  0  0  0  0
  184.9970  179.0730  146.5920 C   0  0  0  0  0  2  0  0  0  0  0  0
  187.7350  177.3100  146.4260 C   0  0  0  0  0  0  0  0  0  0  0  0
  186.3810  179.2350  147.2090 C   0  0  0  0  0  2  0  0  0  0  0  0
  189.0340  177.2040  146.4540 N   0  0  0  0  0  0  0  0  0  0  0  0
  186.9640  177.8820  147.5820 C   0  0  0  0  0  2  0  0  0  0  0  0
  185.5120  176.9960  145.1960 C   0  0  0  0  0  2  0  0  0  0  0  0
  185.0150  178.4470  145.1990 C   0  0  2  0  0  3  0  0  0  0  0  0
  187.0380  176.8630  145.1740 C   0  0  0  0  0  2  0  0  0  0  0  0
  191.2570  177.0360  147.5380 N   0  0  0  0  0  2  0  0  0  0  0  0
  189.9270  177.5510  147.5280 C   0  0  0  0  0  0  0  0  0  0  0  0
  189.5550  178.2930  148.4750 O   0  0  0  0  0  0  0  0  0  0  0  0
  191.7780  176.2220  146.4470 C   0  0  0  0  0  2  0  0  0  0  0  0
  191.2800  176.7290  145.0950 C   0  0  2  0  0  3  0  0  0  0  0  0
  192.4310  174.7750  144.3430 O   0  0  0  0  0  1  0  0  0  0  0  0
  191.3620  175.6240  144.0530 C   0  0  0  0  0  2  0  0  0  0  0  0
  192.0560  177.9600  144.6320 C   0  0  0  0  0  2  0  0  0  0  0  0
  191.3380  178.6700  143.4940 C   0  0  0  0  0  2  0  0  0  0  0  0
  190.7220  179.8270  143.9700 O   0  0  0  0  0  1  0  0  0  0  0  0
  2 34  1  0  0  0  0
  3  9  2  0  0  0  0
  4  1  1  0  0  0  0
  4  6  2  0  0  0  0
  5  2  2  0  0  0  0
  7  4  1  0  0  0  0
  8  3  1  0  0  0  0
  8  5  1  0  0  0  0
  9  2  1  0  0  0  0
  9  1  1  0  0  0  0
 10  7  1  0  0  0  0
 11 18  1  0  0  0  0
 12 15  1  6  0  0  0
 12 13  1  0  0  0  0
 13 10  1  1  0  0  0
 14 13  1  0  0  0  0
 16 12  1  0  0  0  0
 17 11  1  0  0  0  0
 17 16  1  0  0  0  0
 18 14  1  0  0  0  0
 19  5  1  0  0  0  0
 20 23  1  0  0  0  0
 20 19  1  0  0  0  0
 21 25  1  0  0  0  0
 22 21  2  0  0  0  0
 22 24  1  0  0  0  0
 24 20  2  0  0  0  0
 25 23  2  0  0  0  0
 26 27  2  0  0  0  0
 26 28  1  0  0  0  0
 27 31  1  0  0  0  0
 28 29  2  0  0  0  0
 29 30  1  0  0  0  0
 30 21  1  0  0  0  0
 31 30  2  0  0  0  0
 32 33  1  0  0  0  0
 33 27  1  0  0  0  0
 35 37  1  0  0  0  0
 36 38  2  0  0  0  0
 36 39  1  0  0  0  0
 37 39  1  0  0  0  0
 38 44  1  0  0  0  0
 40 41  1  0  0  0  0
 41 34  1  6  0  0  0
 41 35  1  0  0  0  0
 42 40  1  0  0  0  0
 42 36  1  0  0  0  0
 44 43  1  0  0  0  0
 44 45  2  0  0  0  0
 46 43  1  0  0  0  0
 47 49  1  6  0  0  0
 47 46  1  0  0  0  0
 49 48  1  0  0  0  0
 50 47  1  0  0  0  0
 51 52  1  0  0  0  0
 51 50  1  0  0  0  0
M  END
>  <MODEL>
8

>  <REMARK>
 VINA RESULT:      -7.1      3.664     11.909
  Name = 
  14 active torsions:
  status: ('A' for Active; 'I' for Inactive)
    1  A    between atoms: C_2  and  C_49
    2  A    between atoms: O_4  and  C_19
    3  A    between atoms: O_4  and  N_23
    4  A    between atoms: N_5  and  C_39
    5  A    between atoms: N_6  and  C_9
    6  A    between atoms: N_6  and  C_18
    7  A    between atoms: C_10  and  C_24
    8  A    between atoms: C_10  and  C_33
    9  A    between atoms: C_14  and  C_44
   10  A    between atoms: C_17  and  C_22
   11  A    between atoms: C_24  and  C_39
   12  A    between atoms: C_24  and  C_50
   13  A    between atoms: N_28  and  C_29
   14  A    between atoms: C_41  and  C_49
                            x       y       z     vdW  Elec       q    Type
                         _______ _______ _______ _____ _____    ______ ____

>  <TORSDO>
F 14

$$$$
=
 OpenBabel11032419573D

 52 56  0  0  1  0  0  0  0  0999 V2000
  185.0010  177.1820  138.2510 N   0  0  0  0  0  2  0  0  0  0  0  0
  186.9530  176.6610  136.7070 C   0  0  0  0  0  0  0  0  0  0  0  0
  184.9990  177.4670  135.8630 N   0  0  0  0  0  0  0  0  0  0  0  0
  183.6800  177.6500  138.5400 C   0  0  0  0  0  0  0  0  0  0  0  0
  187.1450  176.7430  135.3950 C   0  0  0  0  0  0  0  0  0  0  0  0
  183.2780  177.6550  139.7340 O   0  0  0  0  0  0  0  0  0  0  0  0
  182.8150  178.1060  137.4980 N   0  0  0  0  0  2  0  0  0  0  0  0
  185.9170  177.2880  134.7430 C   0  0  0  0  0  2  0  0  0  0  0  0
  185.6000  177.1160  136.9510 C   0  0  0  0  0  0  0  0  0  0  0  0
  181.5740  178.5800  137.7680 O   0  0  0  0  0  0  0  0  0  0  0  0
  180.2670  182.8120  137.5220 C   0  0  0  0  0  2  0  0  0  0  0  0
  180.5410  180.0920  136.2150 C   0  0  1  0  0  3  0  0  0  0  0  0
  181.5860  179.9050  137.3220 C   0  0  1  0  0  3  0  0  0  0  0  0
  181.4060  180.8470  138.5110 C   0  0  0  0  0  2  0  0  0  0  0  0
  179.1010  179.9150  136.6810 C   0  0  0  0  0  1  0  0  0  0  0  0
  180.7800  181.3730  135.4120 C   0  0  0  0  0  2  0  0  0  0  0  0
  180.1870  182.6630  136.0010 C   0  0  0  0  0  2  0  0  0  0  0  0
  181.5740  182.3050  138.1110 C   0  0  0  0  0  2  0  0  0  0  0  0
  188.3970  176.5810  134.7130 N   0  0  0  0  0  2  0  0  0  0  0  0
  189.3120  175.4940  134.8870 C   0  0  0  0  0  0  0  0  0  0  0  0
  191.1660  173.4340  135.1840 C   0  0  0  0  0  0  0  0  0  0  0  0
  191.5570  174.7390  135.1950 N   0  0  0  0  0  0  0  0  0  0  0  0
  188.8850  174.1620  134.8500 C   0  0  0  0  0  3  0  0  0  0  0  0
  190.6720  175.7610  135.0490 C   0  0  0  0  0  3  0  0  0  0  0  0
  189.8090  173.1290  135.0030 C   0  0  0  0  0  3  0  0  0  0  0  0
  194.0790  170.3280  135.6940 C   0  0  0  0  0  3  0  0  0  0  0  0
  194.2890  171.5870  136.2650 C   0  0  0  0  0  0  0  0  0  0  0  0
  192.9180  170.0780  134.9580 C   0  0  0  0  0  3  0  0  0  0  0  0
  191.9660  171.0880  134.7900 C   0  0  0  0  0  3  0  0  0  0  0  0
  192.1670  172.3590  135.3540 C   0  0  0  0  0  0  0  0  0  0  0  0
  193.3370  172.5990  136.0920 C   0  0  0  0  0  3  0  0  0  0  0  0
  196.4120  170.6220  137.0630 C   0  0  0  0  0  1  0  0  0  0  0  0
  195.5360  171.8600  137.0320 C   0  0  0  0  0  2  0  0  0  0  0  0
  187.9920  176.4160  137.7550 C   0  0  0  0  0  2  0  0  0  0  0  0
  190.3750  177.2330  138.0620 C   0  0  0  0  0  2  0  0  0  0  0  0
  189.1460  177.4090  141.0780 C   0  0  0  0  0  0  0  0  0  0  0  0
  190.6670  176.4790  139.3530 C   0  0  0  0  0  2  0  0  0  0  0  0
  188.8400  176.8710  142.2240 N   0  0  0  0  0  0  0  0  0  0  0  0
  190.5540  177.4050  140.5530 C   0  0  0  0  0  2  0  0  0  0  0  0
  188.4370  178.6440  138.9500 C   0  0  0  0  0  2  0  0  0  0  0  0
  188.9070  177.6290  137.9010 C   0  0  2  0  0  3  0  0  0  0  0  0
  188.0250  178.0120  140.2830 C   0  0  0  0  0  2  0  0  0  0  0  0
  189.8160  176.7470  144.5000 N   0  0  0  0  0  2  0  0  0  0  0  0
  189.7240  176.2400  143.1700 C   0  0  0  0  0  0  0  0  0  0  0  0
  190.4340  175.2530  142.8440 O   0  0  0  0  0  0  0  0  0  0  0  0
  188.9820  177.8460  144.9670 C   0  0  0  0  0  2  0  0  0  0  0  0
  187.6990  177.3270  145.6160 C   0  0  2  0  0  3  0  0  0  0  0  0
  185.6440  178.2790  146.3760 O   0  0  0  0  0  1  0  0  0  0  0  0
  186.5350  178.2540  145.3030 C   0  0  0  0  0  2  0  0  0  0  0  0
  187.8580  177.1580  147.1250 C   0  0  0  0  0  2  0  0  0  0  0  0
  188.9830  178.0290  147.6630 C   0  0  0  0  0  2  0  0  0  0  0  0
  188.8050  178.2460  149.0290 O   0  0  0  0  0  1  0  0  0  0  0  0
  1  4  1  0  0  0  0
  2  9  1  0  0  0  0
  2 34  1  0  0  0  0
  3  9  2  0  0  0  0
  4  6  2  0  0  0  0
  5  2  2  0  0  0  0
  7 10  1  0  0  0  0
  7  4  1  0  0  0  0
  8  5  1  0  0  0  0
  8  3  1  0  0  0  0
  9  1  1  0  0  0  0
 11 18  1  0  0  0  0
 12 15  1  1  0  0  0
 12 13  1  0  0  0  0
 13 10  1  1  0  0  0
 13 14  1  0  0  0  0
 16 17  1  0  0  0  0
 16 12  1  0  0  0  0
 17 11  1  0  0  0  0
 18 14  1  0  0  0  0
 19 20  1  0  0  0  0
 19  5  1  0  0  0  0
 20 24  1  0  0  0  0
 21 22  1  0  0  0  0
 21 30  1  0  0  0  0
 23 20  2  0  0  0  0
 23 25  1  0  0  0  0
 24 22  2  0  0  0  0
 25 21  2  0  0  0  0
 26 27  1  0  0  0  0
 27 33  1  0  0  0  0
 28 26  2  0  0  0  0
 29 28  1  0  0  0  0
 29 30  2  0  0  0  0
 30 31  1  0  0  0  0
 31 27  2  0  0  0  0
 33 32  1  0  0  0  0
 35 37  1  0  0  0  0
 36 38  2  0  0  0  0
 37 39  1  0  0  0  0
 38 44  1  0  0  0  0
 39 36  1  0  0  0  0
 40 42  1  0  0  0  0
 41 34  1  1  0  0  0
 41 35  1  0  0  0  0
 41 40  1  0  0  0  0
 42 36  1  0  0  0  0
 43 46  1  0  0  0  0
 44 43  1  0  0  0  0
 45 44  2  0  0  0  0
 47 46  1  1  0  0  0
 47 50  1  0  0  0  0
 49 47  1  0  0  0  0
 49 48  1  0  0  0  0
 50 51  1  0  0  0  0
 51 52  1  0  0  0  0
M  END
>  <MODEL>
9

>  <REMARK>
 VINA RESULT:      -7.0      3.219     11.314
  Name = 
  14 active torsions:
  status: ('A' for Active; 'I' for Inactive)
    1  A    between atoms: C_2  and  C_49
    2  A    between atoms: O_4  and  C_19
    3  A    between atoms: O_4  and  N_23
    4  A    between atoms: N_5  and  C_39
    5  A    between atoms: N_6  and  C_9
    6  A    between atoms: N_6  and  C_18
    7  A    between atoms: C_10  and  C_24
    8  A    between atoms: C_10  and  C_33
    9  A    between atoms: C_14  and  C_44
   10  A    between atoms: C_17  and  C_22
   11  A    between atoms: C_24  and  C_39
   12  A    between atoms: C_24  and  C_50
   13  A    between atoms: N_28  and  C_29
   14  A    between atoms: C_41  and  C_49
                            x       y       z     vdW  Elec       q    Type
                         _______ _______ _______ _____ _____    ______ ____

>  <TORSDO>
F 14

$$$$
