=
 OpenBabel11042410543D

 26 29  0  0  1  0  0  0  0  0999 V2000
  187.4840  178.2360  142.4940 C   0  0  2  0  0  3  0  0  0  0  0  0
  184.6120  178.2500  144.6030 C   0  0  0  0  0  2  0  0  0  0  0  0
  186.6930  178.0290  143.7400 C   0  0  0  0  0  0  0  0  0  0  0  0
  185.5000  179.2090  146.6430 N   0  0  0  0  0  0  0  0  0  0  0  0
  186.3220  178.5360  141.5570 C   0  0  0  0  0  0  0  0  0  0  0  0
  188.4520  178.1900  146.9620 C   0  0  0  0  0  3  0  0  0  0  0  0
  188.2310  177.9620  145.6680 C   0  0  0  0  0  3  0  0  0  0  0  0
  186.4750  178.8260  140.3420 O   0  0  0  0  0  0  0  0  0  0  0  0
  185.3260  178.1580  143.4980 C   0  0  0  0  0  0  0  0  0  0  0  0
  186.9200  178.0490  145.0350 C   0  0  2  0  0  3  0  0  0  0  0  0
  186.3090  179.4740  147.6250 C   0  0  0  0  0  0  0  0  0  0  0  0
  185.9910  180.5540  148.4940 N   0  0  0  0  0  1  0  0  0  0  0  0
  185.5930  178.0680  145.7460 C   0  0  2  0  0  3  0  0  0  0  0  0
  187.4890  178.7020  147.8980 N   0  0  0  0  0  2  0  0  0  0  0  0
  185.0170  178.4950  142.1630 N   0  0  0  0  0  2  0  0  0  0  0  0
  189.8980  175.2500  142.9030 C   0  0  0  0  0  2  0  0  0  0  0  0
  189.5090  177.3580  141.1750 C   0  0  2  0  0  3  0  0  0  0  0  0
  191.0580  176.2560  142.8430 C   0  0  1  0  0  3  0  0  0  0  0  0
  188.5560  175.9550  143.0990 C   0  0  0  0  0  2  0  0  0  0  0  0
  188.2480  176.9870  141.9900 C   0  0  1  0  0  3  0  0  0  0  0  0
  190.7100  177.5500  142.0950 C   0  0  0  0  0  2  0  0  0  0  0  0
  191.6030  178.4490  144.1870 C   0  0  0  0  0  1  0  0  0  0  0  0
  191.6330  176.6650  144.5170 S   0  0  0  0  0  0  0  0  0  0  0  0
  189.3110  178.5350  140.3480 N   0  0  0  0  0  2  0  0  0  0  0  0
  189.3420  178.3310  137.7990 N   0  0  0  0  0  0  0  0  0  0  0  0
  189.3280  178.4240  138.9530 C   0  0  0  0  0  0  0  0  0  0  0  0
  1  5  1  6  0  0  0
  1  3  1  0  0  0  0
  3 10  1  0  0  0  0
  4 11  2  0  0  0  0
  5 15  1  0  0  0  0
  6 14  1  0  0  0  0
  7  6  2  0  0  0  0
  8  5  2  0  0  0  0
  9  3  2  0  0  0  0
  9  2  1  0  0  0  0
 10  7  1  1  0  0  0
 10 13  1  0  0  0  0
 11 14  1  0  0  0  0
 11 12  1  0  0  0  0
 13  2  1  6  0  0  0
 13  4  1  0  0  0  0
 15  9  1  0  0  0  0
 16 19  1  0  0  0  0
 17 24  1  1  0  0  0
 17 20  1  0  0  0  0
 17 21  1  0  0  0  0
 18 16  1  0  0  0  0
 18 23  1  1  0  0  0
 20  1  1  0  0  0  0
 20 19  1  1  0  0  0
 21 18  1  0  0  0  0
 22 23  1  0  0  0  0
 25 26  3  0  0  0  0
 26 24  1  0  0  0  0
M  END
>  <MODEL>
1

>  <REMARK>
 VINA RESULT:      -6.8      0.000      0.000
  Name = 
  4 active torsions:
  status: ('A' for Active; 'I' for Inactive)
    1  A    between atoms: C_2  and  C_15
    2  A    between atoms: C_4  and  N_12
    3  A    between atoms: S_6  and  C_8
    4  A    between atoms: C_10  and  N_12
                            x       y       z     vdW  Elec       q    Type
                         _______ _______ _______ _____ _____    ______ ____

>  <TORSDO>
F 4

$$$$
=
 OpenBabel11042410543D

 26 29  0  0  1  0  0  0  0  0999 V2000
  188.4480  177.4280  145.4800 C   0  0  2  0  0  3  0  0  0  0  0  0
  185.2380  178.9730  145.3900 C   0  0  0  0  0  2  0  0  0  0  0  0
  187.3180  178.2170  144.9130 C   0  0  0  0  0  0  0  0  0  0  0  0
  184.4420  178.3330  143.1920 N   0  0  0  0  0  0  0  0  0  0  0  0
  187.9300  177.3200  146.9080 C   0  0  0  0  0  0  0  0  0  0  0  0
  186.9170  178.2990  141.2610 C   0  0  0  0  0  3  0  0  0  0  0  0
  187.5100  178.2440  142.4530 C   0  0  0  0  0  3  0  0  0  0  0  0
  188.5340  176.6870  147.8130 O   0  0  0  0  0  0  0  0  0  0  0  0
  186.3700  178.5160  145.8900 C   0  0  0  0  0  0  0  0  0  0  0  0
  186.8200  178.4580  143.7200 C   0  0  2  0  0  3  0  0  0  0  0  0
  184.4280  178.0690  141.9210 C   0  0  0  0  0  0  0  0  0  0  0  0
  183.2790  177.4360  141.3700 N   0  0  0  0  0  1  0  0  0  0  0  0
  185.4650  179.0920  143.8940 C   0  0  2  0  0  3  0  0  0  0  0  0
  185.5030  178.4210  141.0350 N   0  0  0  0  0  2  0  0  0  0  0  0
  186.6720  177.9730  147.1570 N   0  0  0  0  0  2  0  0  0  0  0  0
  191.4290  179.1990  143.7820 C   0  0  0  0  0  2  0  0  0  0  0  0
  191.0040  177.1660  145.5890 C   0  0  2  0  0  3  0  0  0  0  0  0
  191.9130  177.8150  143.3200 C   0  0  1  0  0  3  0  0  0  0  0  0
  189.9940  179.1440  144.3060 C   0  0  0  0  0  2  0  0  0  0  0  0
  189.8170  178.1520  145.4780 C   0  0  1  0  0  3  0  0  0  0  0  0
  191.4220  176.6650  144.2110 C   0  0  0  0  0  2  0  0  0  0  0  0
  190.2810  176.1630  142.0860 C   0  0  0  0  0  1  0  0  0  0  0  0
  191.4050  177.5040  141.6040 S   0  0  0  0  0  0  0  0  0  0  0  0
  190.7160  176.0470  146.4700 N   0  0  0  0  0  2  0  0  0  0  0  0
  192.4580  175.2800  148.1780 N   0  0  0  0  0  0  0  0  0  0  0  0
  191.6690  175.6270  147.4050 C   0  0  0  0  0  0  0  0  0  0  0  0
  1  3  1  6  0  0  0
  1  5  1  0  0  0  0
  2  9  1  0  0  0  0
  3  9  2  0  0  0  0
  4 13  1  0  0  0  0
  5 15  1  0  0  0  0
  5  8  2  0  0  0  0
  6  7  2  0  0  0  0
  9 15  1  0  0  0  0
 10  7  1  1  0  0  0
 10 13  1  0  0  0  0
 10  3  1  0  0  0  0
 11  4  2  0  0  0  0
 12 11  1  0  0  0  0
 13  2  1  1  0  0  0
 14  6  1  0  0  0  0
 14 11  1  0  0  0  0
 16 19  1  0  0  0  0
 17 24  1  1  0  0  0
 18 23  1  6  0  0  0
 18 16  1  0  0  0  0
 18 21  1  0  0  0  0
 20 19  1  6  0  0  0
 20  1  1  0  0  0  0
 20 17  1  0  0  0  0
 21 17  1  0  0  0  0
 23 22  1  0  0  0  0
 24 26  1  0  0  0  0
 26 25  3  0  0  0  0
M  END
>  <MODEL>
2

>  <REMARK>
 VINA RESULT:      -6.7      2.631      5.285
  Name = 
  4 active torsions:
  status: ('A' for Active; 'I' for Inactive)
    1  A    between atoms: C_2  and  C_15
    2  A    between atoms: C_4  and  N_12
    3  A    between atoms: S_6  and  C_8
    4  A    between atoms: C_10  and  N_12
                            x       y       z     vdW  Elec       q    Type
                         _______ _______ _______ _____ _____    ______ ____

>  <TORSDO>
F 4

$$$$
=
 OpenBabel11042410543D

 26 29  0  0  1  0  0  0  0  0999 V2000
  182.5720  177.5250  140.0200 C   0  0  2  0  0  3  0  0  0  0  0  0
  185.7350  178.9920  140.7540 C   0  0  0  0  0  2  0  0  0  0  0  0
  183.5690  178.3380  140.7750 C   0  0  0  0  0  0  0  0  0  0  0  0
  185.9490  178.5490  143.1270 N   0  0  0  0  0  0  0  0  0  0  0  0
  183.4120  177.2680  138.7770 C   0  0  0  0  0  0  0  0  0  0  0  0
  183.0840  178.7620  144.3920 C   0  0  0  0  0  3  0  0  0  0  0  0
  182.7930  178.6060  143.1010 C   0  0  0  0  0  3  0  0  0  0  0  0
  183.0140  176.5660  137.8110 O   0  0  0  0  0  0  0  0  0  0  0  0
  184.7370  178.5180  140.0350 C   0  0  0  0  0  0  0  0  0  0  0  0
  183.7760  178.6810  142.0270 C   0  0  2  0  0  3  0  0  0  0  0  0
  185.6440  178.4080  144.3820 C   0  0  0  0  0  0  0  0  0  0  0  0
  186.5960  177.8030  145.2490 N   0  0  0  0  0  1  0  0  0  0  0  0
  185.1610  179.2620  142.1340 C   0  0  2  0  0  3  0  0  0  0  0  0
  184.4060  178.8700  144.9450 N   0  0  0  0  0  2  0  0  0  0  0  0
  184.7230  177.8620  138.7860 N   0  0  0  0  0  2  0  0  0  0  0  0
  179.8950  180.2750  140.4480 C   0  0  0  0  0  2  0  0  0  0  0  0
  180.0020  177.5470  140.1000 C   0  0  2  0  0  3  0  0  0  0  0  0
  179.3230  179.4540  141.6150 C   0  0  1  0  0  3  0  0  0  0  0  0
  181.2770  179.7710  140.0340 C   0  0  0  0  0  2  0  0  0  0  0  0
  181.2780  178.2800  139.6260 C   0  0  1  0  0  3  0  0  0  0  0  0
  179.6400  177.9550  141.5240 C   0  0  0  0  0  2  0  0  0  0  0  0
  179.2830  178.6760  144.1260 C   0  0  0  0  0  1  0  0  0  0  0  0
  179.9230  180.1010  143.2030 S   0  0  0  0  0  0  0  0  0  0  0  0
  180.1220  176.1020  140.0020 N   0  0  0  0  0  2  0  0  0  0  0  0
  178.9310  174.6000  141.6950 N   0  0  0  0  0  0  0  0  0  0  0  0
  179.4700  175.2790  140.9290 C   0  0  0  0  0  0  0  0  0  0  0  0
  1  5  1  6  0  0  0
  1  3  1  0  0  0  0
  3 10  1  0  0  0  0
  4 11  2  0  0  0  0
  5 15  1  0  0  0  0
  6 14  1  0  0  0  0
  7  6  2  0  0  0  0
  8  5  2  0  0  0  0
  9  2  1  0  0  0  0
  9  3  2  0  0  0  0
 10 13  1  0  0  0  0
 10  7  1  6  0  0  0
 11 14  1  0  0  0  0
 11 12  1  0  0  0  0
 13  2  1  6  0  0  0
 13  4  1  0  0  0  0
 15  9  1  0  0  0  0
 16 18  1  0  0  0  0
 17 24  1  1  0  0  0
 17 21  1  0  0  0  0
 18 23  1  1  0  0  0
 19 16  1  0  0  0  0
 20  1  1  0  0  0  0
 20 19  1  1  0  0  0
 20 17  1  0  0  0  0
 21 18  1  0  0  0  0
 23 22  1  0  0  0  0
 24 26  1  0  0  0  0
 26 25  3  0  0  0  0
M  END
>  <MODEL>
3

>  <REMARK>
 VINA RESULT:      -6.4      4.969      7.769
  Name = 
  4 active torsions:
  status: ('A' for Active; 'I' for Inactive)
    1  A    between atoms: C_2  and  C_15
    2  A    between atoms: C_4  and  N_12
    3  A    between atoms: S_6  and  C_8
    4  A    between atoms: C_10  and  N_12
                            x       y       z     vdW  Elec       q    Type
                         _______ _______ _______ _____ _____    ______ ____

>  <TORSDO>
F 4

$$$$
=
 OpenBabel11042410543D

 26 29  0  0  1  0  0  0  0  0999 V2000
  190.4240  175.8870  137.9240 C   0  0  2  0  0  3  0  0  0  0  0  0
  192.8600  177.2630  140.1320 C   0  0  0  0  0  2  0  0  0  0  0  0
  190.9550  176.7360  139.0290 C   0  0  0  0  0  0  0  0  0  0  0  0
  191.7260  177.1240  142.2690 N   0  0  0  0  0  0  0  0  0  0  0  0
  191.7600  175.4230  137.3600 C   0  0  0  0  0  0  0  0  0  0  0  0
  188.6750  177.6590  141.7590 C   0  0  0  0  0  3  0  0  0  0  0  0
  189.0990  177.3510  140.5340 C   0  0  0  0  0  3  0  0  0  0  0  0
  191.8570  174.6220  136.3930 O   0  0  0  0  0  0  0  0  0  0  0  0
  192.3490  176.7530  139.0280 C   0  0  0  0  0  0  0  0  0  0  0  0
  190.5030  177.2290  140.1600 C   0  0  2  0  0  3  0  0  0  0  0  0
  190.7870  177.1670  143.1650 C   0  0  0  0  0  0  0  0  0  0  0  0
  191.0540  176.6300  144.4550 N   0  0  0  0  0  1  0  0  0  0  0  0
  191.6770  177.7420  140.9530 C   0  0  2  0  0  3  0  0  0  0  0  0
  189.5030  177.7660  142.9280 N   0  0  0  0  0  2  0  0  0  0  0  0
  192.9240  175.9400  138.0280 N   0  0  0  0  0  2  0  0  0  0  0  0
  187.9610  178.5860  136.6750 C   0  0  0  0  0  2  0  0  0  0  0  0
  188.3790  175.8830  136.3650 C   0  0  2  0  0  3  0  0  0  0  0  0
  186.8180  177.6940  137.1850 C   0  0  1  0  0  3  0  0  0  0  0  0
  189.3150  178.1170  137.2070 C   0  0  0  0  0  2  0  0  0  0  0  0
  189.6370  176.6530  136.8320 C   0  0  1  0  0  3  0  0  0  0  0  0
  187.1850  176.2050  137.2560 C   0  0  0  0  0  2  0  0  0  0  0  0
  184.5060  178.1740  138.3440 C   0  0  0  0  0  1  0  0  0  0  0  0
  186.2560  178.2530  138.8200 S   0  0  0  0  0  0  0  0  0  0  0  0
  188.5950  174.4470  136.3070 N   0  0  0  0  0  2  0  0  0  0  0  0
  186.8220  172.8460  137.2180 N   0  0  0  0  0  0  0  0  0  0  0  0
  187.6250  173.5710  136.8060 C   0  0  0  0  0  0  0  0  0  0  0  0
  1  5  1  6  0  0  0
  1  3  1  0  0  0  0
  3 10  1  0  0  0  0
  4 11  2  0  0  0  0
  5 15  1  0  0  0  0
  6 14  1  0  0  0  0
  7  6  2  0  0  0  0
  8  5  2  0  0  0  0
  9  3  2  0  0  0  0
  9  2  1  0  0  0  0
 10  7  1  6  0  0  0
 10 13  1  0  0  0  0
 11 12  1  0  0  0  0
 13  2  1  6  0  0  0
 13  4  1  0  0  0  0
 14 11  1  0  0  0  0
 15  9  1  0  0  0  0
 16 18  1  0  0  0  0
 16 19  1  0  0  0  0
 17 24  1  1  0  0  0
 17 20  1  0  0  0  0
 17 21  1  0  0  0  0
 18 21  1  0  0  0  0
 18 23  1  1  0  0  0
 20 19  1  1  0  0  0
 20  1  1  0  0  0  0
 22 23  1  0  0  0  0
 24 26  1  0  0  0  0
 26 25  3  0  0  0  0
M  END
>  <MODEL>
4

>  <REMARK>
 VINA RESULT:      -6.1      4.283      7.010
  Name = 
  4 active torsions:
  status: ('A' for Active; 'I' for Inactive)
    1  A    between atoms: C_2  and  C_15
    2  A    between atoms: C_4  and  N_12
    3  A    between atoms: S_6  and  C_8
    4  A    between atoms: C_10  and  N_12
                            x       y       z     vdW  Elec       q    Type
                         _______ _______ _______ _____ _____    ______ ____

>  <TORSDO>
F 4

$$$$
=
 OpenBabel11042410543D

 26 29  0  0  1  0  0  0  0  0999 V2000
  182.0160  176.6770  139.1590 C   0  0  2  0  0  3  0  0  0  0  0  0
  185.0080  178.3970  138.2750 C   0  0  0  0  0  2  0  0  0  0  0  0
  183.1040  177.6890  139.2730 C   0  0  0  0  0  0  0  0  0  0  0  0
  186.1310  178.5710  140.4150 N   0  0  0  0  0  0  0  0  0  0  0  0
  182.3690  176.1470  137.7760 C   0  0  0  0  0  0  0  0  0  0  0  0
  183.9260  178.9880  142.6100 C   0  0  0  0  0  3  0  0  0  0  0  0
  183.2060  178.5030  141.6000 C   0  0  0  0  0  3  0  0  0  0  0  0
  181.7400  175.2110  137.2170 O   0  0  0  0  0  0  0  0  0  0  0  0
  183.8870  177.7210  138.1190 C   0  0  0  0  0  0  0  0  0  0  0  0
  183.7090  178.3420  140.2400 C   0  0  2  0  0  3  0  0  0  0  0  0
  186.3280  178.7380  141.6880 C   0  0  0  0  0  0  0  0  0  0  0  0
  187.6010  178.4060  142.2280 N   0  0  0  0  0  1  0  0  0  0  0  0
  184.9490  178.9820  139.6740 C   0  0  2  0  0  3  0  0  0  0  0  0
  185.3330  179.2810  142.5700 N   0  0  0  0  0  2  0  0  0  0  0  0
  183.5020  176.7730  137.1480 N   0  0  0  0  0  2  0  0  0  0  0  0
  179.3150  179.2690  140.1060 C   0  0  0  0  0  2  0  0  0  0  0  0
  179.6400  176.5360  140.1330 C   0  0  2  0  0  3  0  0  0  0  0  0
  179.2750  178.6290  141.5030 C   0  0  1  0  0  3  0  0  0  0  0  0
  180.5310  178.7950  139.3090 C   0  0  0  0  0  2  0  0  0  0  0  0
  180.5810  177.2600  139.1410 C   0  0  1  0  0  3  0  0  0  0  0  0
  179.7290  177.1630  141.5200 C   0  0  0  0  0  2  0  0  0  0  0  0
  180.1120  178.3390  143.9790 C   0  0  0  0  0  1  0  0  0  0  0  0
  180.2870  179.5850  142.6710 S   0  0  0  0  0  0  0  0  0  0  0  0
  179.9000  175.1080  140.2040 N   0  0  0  0  0  2  0  0  0  0  0  0
  178.9310  173.7230  142.1230 N   0  0  0  0  0  0  0  0  0  0  0  0
  179.3690  174.3500  141.2550 C   0  0  0  0  0  0  0  0  0  0  0  0
  1  5  1  6  0  0  0
  1  3  1  0  0  0  0
  3 10  1  0  0  0  0
  4 11  2  0  0  0  0
  7  6  2  0  0  0  0
  8  5  2  0  0  0  0
  9  2  1  0  0  0  0
  9  3  2  0  0  0  0
 10  7  1  6  0  0  0
 11 12  1  0  0  0  0
 11 14  1  0  0  0  0
 13  2  1  6  0  0  0
 13 10  1  0  0  0  0
 13  4  1  0  0  0  0
 14  6  1  0  0  0  0
 15  5  1  0  0  0  0
 15  9  1  0  0  0  0
 16 18  1  0  0  0  0
 17 24  1  1  0  0  0
 17 21  1  0  0  0  0
 18 21  1  0  0  0  0
 18 23  1  1  0  0  0
 19 16  1  0  0  0  0
 20  1  1  0  0  0  0
 20 19  1  1  0  0  0
 20 17  1  0  0  0  0
 23 22  1  0  0  0  0
 24 26  1  0  0  0  0
 26 25  3  0  0  0  0
M  END
>  <MODEL>
5

>  <REMARK>
 VINA RESULT:      -5.9      5.503      8.473
  Name = 
  4 active torsions:
  status: ('A' for Active; 'I' for Inactive)
    1  A    between atoms: C_2  and  C_15
    2  A    between atoms: C_4  and  N_12
    3  A    between atoms: S_6  and  C_8
    4  A    between atoms: C_10  and  N_12
                            x       y       z     vdW  Elec       q    Type
                         _______ _______ _______ _____ _____    ______ ____

>  <TORSDO>
F 4

$$$$
=
 OpenBabel11042410543D

 26 29  0  0  1  0  0  0  0  0999 V2000
  183.7520  177.7530  139.1880 C   0  0  2  0  0  3  0  0  0  0  0  0
  186.6010  179.0050  140.9230 C   0  0  0  0  0  2  0  0  0  0  0  0
  184.5060  178.4640  140.2590 C   0  0  0  0  0  0  0  0  0  0  0  0
  186.0890  178.4060  143.2150 N   0  0  0  0  0  0  0  0  0  0  0  0
  184.9140  177.5280  138.2300 C   0  0  0  0  0  0  0  0  0  0  0  0
  182.9860  178.6910  143.5970 C   0  0  0  0  0  3  0  0  0  0  0  0
  183.0850  178.6300  142.2700 C   0  0  0  0  0  3  0  0  0  0  0  0
  184.7970  176.9080  137.1410 O   0  0  0  0  0  0  0  0  0  0  0  0
  185.8460  178.6280  139.9100 C   0  0  0  0  0  0  0  0  0  0  0  0
  184.3440  178.7190  141.5390 C   0  0  2  0  0  3  0  0  0  0  0  0
  185.4220  178.2050  144.3110 C   0  0  0  0  0  0  0  0  0  0  0  0
  186.0550  177.4990  145.3720 N   0  0  0  0  0  1  0  0  0  0  0  0
  185.6540  179.2180  142.0890 C   0  0  2  0  0  3  0  0  0  0  0  0
  184.0880  178.6960  144.5190 N   0  0  0  0  0  2  0  0  0  0  0  0
  186.1810  178.0510  138.6660 N   0  0  0  0  0  2  0  0  0  0  0  0
  181.0040  180.4630  139.0810 C   0  0  0  0  0  2  0  0  0  0  0  0
  181.3220  177.8290  138.3490 C   0  0  2  0  0  3  0  0  0  0  0  0
  180.0830  179.4750  139.8140 C   0  0  1  0  0  3  0  0  0  0  0  0
  182.4590  179.9980  139.1100 C   0  0  0  0  0  2  0  0  0  0  0  0
  182.6580  178.5960  138.4880 C   0  0  1  0  0  3  0  0  0  0  0  0
  180.4640  178.0040  139.5970 C   0  0  0  0  0  2  0  0  0  0  0  0
  178.9450  181.2520  141.3840 C   0  0  0  0  0  1  0  0  0  0  0  0
  180.0560  179.8320  141.5950 S   0  0  0  0  0  0  0  0  0  0  0  0
  181.5190  176.4180  138.0630 N   0  0  0  0  0  2  0  0  0  0  0  0
  179.6190  174.7530  138.4580 N   0  0  0  0  0  0  0  0  0  0  0  0
  180.4790  175.5060  138.2790 C   0  0  0  0  0  0  0  0  0  0  0  0
  1  5  1  6  0  0  0
  1  3  1  0  0  0  0
  3 10  1  0  0  0  0
  4 11  2  0  0  0  0
  5 15  1  0  0  0  0
  6 14  1  0  0  0  0
  7  6  2  0  0  0  0
  8  5  2  0  0  0  0
  9  3  2  0  0  0  0
  9  2  1  0  0  0  0
 10 13  1  0  0  0  0
 10  7  1  6  0  0  0
 11 14  1  0  0  0  0
 11 12  1  0  0  0  0
 13  2  1  6  0  0  0
 13  4  1  0  0  0  0
 15  9  1  0  0  0  0
 16 19  1  0  0  0  0
 16 18  1  0  0  0  0
 17 24  1  1  0  0  0
 17 20  1  0  0  0  0
 17 21  1  0  0  0  0
 18 23  1  1  0  0  0
 20 19  1  1  0  0  0
 20  1  1  0  0  0  0
 21 18  1  0  0  0  0
 22 23  1  0  0  0  0
 24 26  1  0  0  0  0
 26 25  3  0  0  0  0
M  END
>  <MODEL>
6

>  <REMARK>
 VINA RESULT:      -5.6      4.971      7.487
  Name = 
  4 active torsions:
  status: ('A' for Active; 'I' for Inactive)
    1  A    between atoms: C_2  and  C_15
    2  A    between atoms: C_4  and  N_12
    3  A    between atoms: S_6  and  C_8
    4  A    between atoms: C_10  and  N_12
                            x       y       z     vdW  Elec       q    Type
                         _______ _______ _______ _____ _____    ______ ____

>  <TORSDO>
F 4

$$$$
=
 OpenBabel11042410543D

 26 29  0  0  1  0  0  0  0  0999 V2000
  185.9840  177.5490  138.1650 C   0  0  2  0  0  3  0  0  0  0  0  0
  183.2400  176.1870  136.3470 C   0  0  0  0  0  2  0  0  0  0  0  0
  185.2790  176.6390  137.2190 C   0  0  0  0  0  0  0  0  0  0  0  0
  183.5790  173.8060  136.6490 N   0  0  0  0  0  0  0  0  0  0  0  0
  184.8450  178.5320  138.3960 C   0  0  0  0  0  0  0  0  0  0  0  0
  186.6740  173.2840  136.6690 C   0  0  0  0  0  3  0  0  0  0  0  0
  186.6240  174.5930  136.9170 C   0  0  0  0  0  3  0  0  0  0  0  0
  184.9300  179.5120  139.1820 O   0  0  0  0  0  0  0  0  0  0  0  0
  183.9860  177.0880  136.9560 C   0  0  0  0  0  0  0  0  0  0  0  0
  185.4170  175.4030  136.7950 C   0  0  2  0  0  3  0  0  0  0  0  0
  184.1690  172.6540  136.7580 C   0  0  0  0  0  0  0  0  0  0  0  0
  183.4100  171.5430  137.2190 N   0  0  0  0  0  1  0  0  0  0  0  0
  184.1570  175.0090  136.0700 C   0  0  2  0  0  3  0  0  0  0  0  0
  185.5430  172.4410  136.3980 N   0  0  0  0  0  2  0  0  0  0  0  0
  183.6350  178.2530  137.6710 N   0  0  0  0  0  2  0  0  0  0  0  0
  189.0540  177.8780  135.8450 C   0  0  0  0  0  2  0  0  0  0  0  0
  188.4350  178.2530  138.5020 C   0  0  2  0  0  3  0  0  0  0  0  0
  189.8140  176.9630  136.8200 C   0  0  1  0  0  3  0  0  0  0  0  0
  187.5510  177.8660  136.1250 C   0  0  0  0  0  2  0  0  0  0  0  0
  187.2020  178.2970  137.5680 C   0  0  1  0  0  3  0  0  0  0  0  0
  189.2590  176.9950  138.2510 C   0  0  0  0  0  2  0  0  0  0  0  0
  191.0830  174.7360  137.4080 C   0  0  0  0  0  1  0  0  0  0  0  0
  189.8170  175.2500  136.2140 S   0  0  0  0  0  0  0  0  0  0  0  0
  188.0730  178.3500  139.9060 N   0  0  0  0  0  2  0  0  0  0  0  0
  189.6730  177.4870  141.7050 N   0  0  0  0  0  0  0  0  0  0  0  0
  188.9490  177.8780  140.8900 C   0  0  0  0  0  0  0  0  0  0  0  0
  1  3  1  6  0  0  0
  1  5  1  0  0  0  0
  2  9  1  0  0  0  0
  4 11  2  0  0  0  0
  5  8  2  0  0  0  0
  6  7  2  0  0  0  0
  9  3  2  0  0  0  0
  9 15  1  0  0  0  0
 10  7  1  6  0  0  0
 10  3  1  0  0  0  0
 11 12  1  0  0  0  0
 13  2  1  1  0  0  0
 13  4  1  0  0  0  0
 13 10  1  0  0  0  0
 14  6  1  0  0  0  0
 14 11  1  0  0  0  0
 15  5  1  0  0  0  0
 16 19  1  0  0  0  0
 16 18  1  0  0  0  0
 17 24  1  1  0  0  0
 18 23  1  6  0  0  0
 18 21  1  0  0  0  0
 20 19  1  6  0  0  0
 20  1  1  0  0  0  0
 20 17  1  0  0  0  0
 21 17  1  0  0  0  0
 23 22  1  0  0  0  0
 24 26  1  0  0  0  0
 26 25  3  0  0  0  0
M  END
>  <MODEL>
7

>  <REMARK>
 VINA RESULT:      -5.5      5.059      8.035
  Name = 
  4 active torsions:
  status: ('A' for Active; 'I' for Inactive)
    1  A    between atoms: C_2  and  C_15
    2  A    between atoms: C_4  and  N_12
    3  A    between atoms: S_6  and  C_8
    4  A    between atoms: C_10  and  N_12
                            x       y       z     vdW  Elec       q    Type
                         _______ _______ _______ _____ _____    ______ ____

>  <TORSDO>
F 4

$$$$
=
 OpenBabel11042410543D

 26 29  0  0  1  0  0  0  0  0999 V2000
  188.2580  176.7930  138.1460 C   0  0  2  0  0  3  0  0  0  0  0  0
  185.0320  177.1280  136.6720 C   0  0  0  0  0  2  0  0  0  0  0  0
  187.1300  176.4820  137.2230 C   0  0  0  0  0  0  0  0  0  0  0  0
  184.2890  174.8230  136.5760 N   0  0  0  0  0  0  0  0  0  0  0  0
  187.7130  178.0970  138.7090 C   0  0  0  0  0  0  0  0  0  0  0  0
  186.8030  173.0420  135.9740 C   0  0  0  0  0  3  0  0  0  0  0  0
  187.3720  174.1660  136.4060 C   0  0  0  0  0  3  0  0  0  0  0  0
  188.3070  178.7650  139.5960 O   0  0  0  0  0  0  0  0  0  0  0  0
  186.1590  177.4820  137.2590 C   0  0  0  0  0  0  0  0  0  0  0  0
  186.6540  175.4190  136.6140 C   0  0  2  0  0  3  0  0  0  0  0  0
  184.3050  173.5340  136.4180 C   0  0  0  0  0  0  0  0  0  0  0  0
  183.1750  172.7830  136.8470 N   0  0  0  0  0  1  0  0  0  0  0  0
  185.2880  175.7550  136.0770 C   0  0  2  0  0  3  0  0  0  0  0  0
  185.3930  172.8340  135.7940 N   0  0  0  0  0  2  0  0  0  0  0  0
  186.4420  178.5130  138.1790 N   0  0  0  0  0  2  0  0  0  0  0  0
  190.8920  176.2680  135.3720 C   0  0  0  0  0  2  0  0  0  0  0  0
  190.7790  176.2830  138.1220 C   0  0  2  0  0  3  0  0  0  0  0  0
  191.2420  174.9280  136.0380 C   0  0  1  0  0  3  0  0  0  0  0  0
  189.5870  176.8430  135.9210 C   0  0  0  0  0  2  0  0  0  0  0  0
  189.6180  177.0550  137.4520 C   0  0  1  0  0  3  0  0  0  0  0  0
  190.9070  174.8810  137.5360 C   0  0  0  0  0  2  0  0  0  0  0  0
  191.8410  172.4640  135.3400 C   0  0  0  0  0  1  0  0  0  0  0  0
  190.4000  173.5580  135.1920 S   0  0  0  0  0  0  0  0  0  0  0  0
  190.6420  176.2170  139.5670 N   0  0  0  0  0  2  0  0  0  0  0  0
  191.9320  177.8500  141.0540 N   0  0  0  0  0  0  0  0  0  0  0  0
  191.3480  177.1110  140.3810 C   0  0  0  0  0  0  0  0  0  0  0  0
  1  3  1  6  0  0  0
  1  5  1  0  0  0  0
  2  9  1  0  0  0  0
  3  9  2  0  0  0  0
  5  8  2  0  0  0  0
  6  7  2  0  0  0  0
  9 15  1  0  0  0  0
 10  7  1  6  0  0  0
 10  3  1  0  0  0  0
 11  4  2  0  0  0  0
 11 12  1  0  0  0  0
 13  4  1  0  0  0  0
 13 10  1  0  0  0  0
 13  2  1  1  0  0  0
 14  6  1  0  0  0  0
 14 11  1  0  0  0  0
 15  5  1  0  0  0  0
 16 19  1  0  0  0  0
 16 18  1  0  0  0  0
 17 24  1  1  0  0  0
 18 23  1  6  0  0  0
 18 21  1  0  0  0  0
 20 19  1  6  0  0  0
 20 17  1  0  0  0  0
 20  1  1  0  0  0  0
 21 17  1  0  0  0  0
 23 22  1  0  0  0  0
 24 26  1  0  0  0  0
 26 25  3  0  0  0  0
M  END
>  <MODEL>
8

>  <REMARK>
 VINA RESULT:      -5.5      5.691      8.263
  Name = 
  4 active torsions:
  status: ('A' for Active; 'I' for Inactive)
    1  A    between atoms: C_2  and  C_15
    2  A    between atoms: C_4  and  N_12
    3  A    between atoms: S_6  and  C_8
    4  A    between atoms: C_10  and  N_12
                            x       y       z     vdW  Elec       q    Type
                         _______ _______ _______ _____ _____    ______ ____

>  <TORSDO>
F 4

$$$$
=
 OpenBabel11042410543D

 26 29  0  0  1  0  0  0  0  0999 V2000
  187.4670  177.7470  142.6700 C   0  0  2  0  0  3  0  0  0  0  0  0
  187.3290  178.6140  139.2160 C   0  0  0  0  0  2  0  0  0  0  0  0
  187.9830  177.9960  141.2930 C   0  0  0  0  0  0  0  0  0  0  0  0
  188.6770  176.8680  138.2130 N   0  0  0  0  0  0  0  0  0  0  0  0
  186.0630  178.3000  142.4690 C   0  0  0  0  0  0  0  0  0  0  0  0
  190.9980  176.1950  140.2150 C   0  0  0  0  0  3  0  0  0  0  0  0
  190.1320  176.8180  141.0130 C   0  0  0  0  0  3  0  0  0  0  0  0
  185.1830  178.2860  143.3690 O   0  0  0  0  0  0  0  0  0  0  0  0
  187.0210  178.6180  140.4990 C   0  0  0  0  0  0  0  0  0  0  0  0
  188.9600  177.5450  140.5390 C   0  0  2  0  0  3  0  0  0  0  0  0
  189.6310  176.0060  138.0300 C   0  0  0  0  0  0  0  0  0  0  0  0
  189.4860  175.0410  136.9950 N   0  0  0  0  0  1  0  0  0  0  0  0
  188.7140  178.0000  139.1250 C   0  0  2  0  0  3  0  0  0  0  0  0
  190.8440  176.0050  138.7990 N   0  0  0  0  0  2  0  0  0  0  0  0
  185.7890  178.8220  141.1560 N   0  0  0  0  0  2  0  0  0  0  0  0
  190.5550  178.8380  144.7160 C   0  0  0  0  0  2  0  0  0  0  0  0
  188.0140  177.8850  145.1790 C   0  0  2  0  0  3  0  0  0  0  0  0
  190.4970  177.4730  145.4200 C   0  0  1  0  0  3  0  0  0  0  0  0
  189.6620  178.8660  143.4760 C   0  0  0  0  0  2  0  0  0  0  0  0
  188.1830  178.5430  143.7890 C   0  0  1  0  0  3  0  0  0  0  0  0
  189.0980  176.8400  145.4190 C   0  0  0  0  0  2  0  0  0  0  0  0
  192.0560  175.5270  146.2560 C   0  0  0  0  0  1  0  0  0  0  0  0
  191.6800  176.3180  144.6670 S   0  0  0  0  0  0  0  0  0  0  0  0
  186.6970  177.2990  145.3600 N   0  0  0  0  0  2  0  0  0  0  0  0
  185.0250  178.3750  146.9680 N   0  0  0  0  0  0  0  0  0  0  0  0
  185.7820  177.8880  146.2400 C   0  0  0  0  0  0  0  0  0  0  0  0
  1  3  1  6  0  0  0
  1 20  1  0  0  0  0
  2  9  1  0  0  0  0
  4 13  1  0  0  0  0
  5  1  1  0  0  0  0
  5  8  2  0  0  0  0
  6  7  2  0  0  0  0
  9 15  1  0  0  0  0
  9  3  2  0  0  0  0
 10  7  1  1  0  0  0
 10  3  1  0  0  0  0
 11  4  2  0  0  0  0
 11 14  1  0  0  0  0
 12 11  1  0  0  0  0
 13  2  1  1  0  0  0
 13 10  1  0  0  0  0
 14  6  1  0  0  0  0
 15  5  1  0  0  0  0
 16 18  1  0  0  0  0
 17 24  1  6  0  0  0
 17 21  1  0  0  0  0
 18 23  1  6  0  0  0
 19 16  1  0  0  0  0
 20 19  1  6  0  0  0
 20 17  1  0  0  0  0
 21 18  1  0  0  0  0
 23 22  1  0  0  0  0
 24 26  1  0  0  0  0
 26 25  3  0  0  0  0
M  END
>  <MODEL>
9

>  <REMARK>
 VINA RESULT:      -5.4      1.892      6.194
  Name = 
  4 active torsions:
  status: ('A' for Active; 'I' for Inactive)
    1  A    between atoms: C_2  and  C_15
    2  A    between atoms: C_4  and  N_12
    3  A    between atoms: S_6  and  C_8
    4  A    between atoms: C_10  and  N_12
                            x       y       z     vdW  Elec       q    Type
                         _______ _______ _______ _____ _____    ______ ____

>  <TORSDO>
F 4

$$$$
