=
 OpenBabel11042410303D

 35 39  0  0  1  0  0  0  0  0999 V2000
  186.3800  178.1850  142.1170 C   0  0  1  0  0  3  0  0  0  0  0  0
  185.9570  177.8980  145.8530 C   0  0  0  0  0  2  0  0  0  0  0  0
  185.1990  179.0760  142.2440 C   0  0  0  0  0  0  0  0  0  0  0  0
  184.6820  179.4380  143.9140 S   0  0  0  0  0  0  0  0  0  0  0  0
  190.3050  178.3870  143.0860 C   0  0  0  0  0  2  0  0  0  0  0  0
  187.8100  177.0880  143.8690 C   0  0  1  0  0  3  0  0  0  0  0  0
  189.7550  177.4030  145.3410 C   0  0  0  0  0  0  0  0  0  0  0  0
  185.4630  177.8680  144.3980 C   0  0  1  0  0  3  0  0  0  0  0  0
  187.4250  178.3150  145.9610 C   0  0  0  0  0  2  0  0  0  0  0  0
  187.6020  179.0320  141.7270 C   0  0  0  0  0  2  0  0  0  0  0  0
  188.7290  178.1880  141.1140 C   0  0  0  0  0  2  0  0  0  0  0  0
  184.5630  179.4530  141.2750 O   0  0  0  0  0  0  0  0  0  0  0  0
  188.2980  177.4910  145.0540 C   0  0  1  0  0  3  0  0  0  0  0  0
  186.5370  177.5810  143.4400 N   0  0  1  0  0  0  0  0  0  0  0  0
  190.6650  177.7920  144.4280 C   0  0  0  0  0  3  0  0  0  0  0  0
  189.5710  177.4080  142.1410 C   0  0  2  0  0  0  0  0  0  0  0  0
  188.6900  176.5290  142.8960 N   0  0  0  0  0  2  0  0  0  0  0  0
  190.2190  176.8990  146.6510 C   0  0  0  0  0  0  0  0  0  0  0  0
  189.3930  176.4460  147.4870 O   0  0  0  0  0  0  0  0  0  0  0  0
  191.6060  176.9090  146.9830 N   0  0  0  0  0  1  0  0  0  0  0  0
  190.5930  176.5310  141.4150 C   0  0  0  0  0  2  0  0  0  0  0  0
  191.5770  177.3210  140.5580 C   0  0  0  0  0  2  0  0  0  0  0  0
  191.5900  176.8000  139.1280 C   0  0  0  0  0  2  0  0  0  0  0  0
  190.5860  175.7580  138.9510 N   0  0  0  0  0  2  0  0  0  0  0  0
  190.4260  175.5270  137.5220 C   0  0  2  0  0  3  0  0  0  0  0  0
  191.7160  174.9710  136.9510 C   0  0  0  0  0  1  0  0  0  0  0  0
  190.0890  176.8360  136.8180 C   0  0  0  0  0  2  0  0  0  0  0  0
  188.0790  177.9400  137.7210 C   0  0  0  0  0  3  0  0  0  0  0  0
  185.9410  178.8290  138.2290 O   0  0  0  0  0  0  0  0  0  0  0  0
  188.6220  177.1070  136.8520 C   0  0  0  0  0  0  0  0  0  0  0  0
  187.4910  176.3020  135.7190 S   0  0  0  0  0  0  0  0  0  0  0  0
  186.6450  178.0360  137.5510 C   0  0  0  0  0  0  0  0  0  0  0  0
  186.0730  177.1640  136.4860 C   0  0  2  0  0  3  0  0  0  0  0  0
  185.7670  174.8950  137.1760 O   0  0  0  0  0  1  0  0  0  0  0  0
  185.1280  176.1320  137.0800 C   0  0  0  0  0  2  0  0  0  0  0  0
  1 10  1  1  0  0  0
  1  3  1  0  0  0  0
  1 14  1  0  0  0  0
  2  9  1  0  0  0  0
  3  4  1  0  0  0  0
  4  8  1  0  0  0  0
  5 15  1  0  0  0  0
  6 17  1  6  0  0  0
  6 13  1  0  0  0  0
  7 18  1  0  0  0  0
  8  2  1  1  0  0  0
 11 10  1  0  0  0  0
 11 16  1  0  0  0  0
 12  3  2  0  0  0  0
 13  7  1  0  0  0  0
 13  9  1  6  0  0  0
 14  6  1  0  0  0  0
 14  8  1  0  0  0  0
 15  7  2  0  0  0  0
 16 17  1  0  0  0  0
 16  5  1  0  0  0  0
 18 20  1  0  0  0  0
 18 19  2  0  0  0  0
 21 16  1  0  0  0  0
 22 21  1  0  0  0  0
 23 22  1  0  0  0  0
 24 23  1  0  0  0  0
 25 24  1  0  0  0  0
 26 25  1  0  0  0  0
 27 30  1  0  0  0  0
 27 25  1  0  0  0  0
 30 28  2  0  0  0  0
 31 33  1  0  0  0  0
 31 30  1  0  0  0  0
 32 28  1  0  0  0  0
 32 29  2  0  0  0  0
 33 35  1  0  0  0  0
 33 32  1  0  0  0  0
 35 34  1  0  0  0  0
M  END
>  <MODEL>
1

>  <REMARK>
 VINA RESULT:      -8.4      0.000      0.000
  Name = 
  9 active torsions:
  status: ('A' for Active; 'I' for Inactive)
    1  A    between atoms: C_2  and  C_4
    2  A    between atoms: C_2  and  N_32
    3  A    between atoms: C_4  and  C_11
    4  A    between atoms: C_12  and  C_13
    5  A    between atoms: C_21  and  C_24
    6  A    between atoms: C_22  and  C_33
    7  A    between atoms: C_22  and  C_34
    8  A    between atoms: C_27  and  N_32
    9  A    between atoms: C_27  and  C_33
                            x       y       z     vdW  Elec       q    Type
                         _______ _______ _______ _____ _____    ______ ____

>  <TORSDO>
F 9

$$$$
=
 OpenBabel11042410303D

 35 39  0  0  1  0  0  0  0  0999 V2000
  186.4110  177.8630  142.9000 C   0  0  1  0  0  3  0  0  0  0  0  0
  187.1420  177.3470  146.5630 C   0  0  0  0  0  2  0  0  0  0  0  0
  185.2870  178.6720  143.4340 C   0  0  0  0  0  0  0  0  0  0  0  0
  185.2800  178.9100  145.2030 S   0  0  0  0  0  0  0  0  0  0  0  0
  190.4350  178.2500  142.6720 C   0  0  0  0  0  2  0  0  0  0  0  0
  188.3460  176.7610  144.0670 C   0  0  1  0  0  3  0  0  0  0  0  0
  190.6280  177.1130  144.9140 C   0  0  0  0  0  0  0  0  0  0  0  0
  186.2360  177.3670  145.3220 C   0  0  1  0  0  3  0  0  0  0  0  0
  188.5560  177.8470  146.2600 C   0  0  0  0  0  2  0  0  0  0  0  0
  187.4240  178.8030  142.2250 C   0  0  0  0  0  2  0  0  0  0  0  0
  188.3500  178.0640  141.2480 C   0  0  0  0  0  2  0  0  0  0  0  0
  184.3750  179.0620  142.7260 O   0  0  0  0  0  0  0  0  0  0  0  0
  189.1500  177.1280  145.0790 C   0  0  1  0  0  3  0  0  0  0  0  0
  186.9840  177.1980  144.0710 N   0  0  1  0  0  0  0  0  0  0  0  0
  191.2050  177.6050  143.8010 C   0  0  0  0  0  3  0  0  0  0  0  0
  189.4930  177.2810  141.9210 C   0  0  2  0  0  0  0  0  0  0  0  0
  188.9160  176.3100  142.8400 N   0  0  0  0  0  2  0  0  0  0  0  0
  191.4840  176.5680  145.9880 C   0  0  0  0  0  0  0  0  0  0  0  0
  192.0910  175.4760  145.8250 O   0  0  0  0  0  0  0  0  0  0  0  0
  191.6440  177.2720  147.2180 N   0  0  0  0  0  1  0  0  0  0  0  0
  190.2850  176.5080  140.8650 C   0  0  0  0  0  2  0  0  0  0  0  0
  190.7690  177.3770  139.7080 C   0  0  0  0  0  2  0  0  0  0  0  0
  190.4720  176.7120  138.3710 C   0  0  0  0  0  2  0  0  0  0  0  0
  189.3640  177.3800  137.7000 N   0  0  0  0  0  2  0  0  0  0  0  0
  188.2500  176.4440  137.6340 C   0  0  2  0  0  3  0  0  0  0  0  0
  188.7520  175.0910  137.1690 C   0  0  0  0  0  1  0  0  0  0  0  0
  187.1990  176.9530  136.6540 C   0  0  0  0  0  2  0  0  0  0  0  0
  186.0870  178.4470  138.2680 C   0  0  0  0  0  3  0  0  0  0  0  0
  184.6380  179.7300  139.6360 O   0  0  0  0  0  0  0  0  0  0  0  0
  186.0020  177.4830  137.3700 C   0  0  0  0  0  0  0  0  0  0  0  0
  184.3610  176.8280  137.0680 S   0  0  0  0  0  0  0  0  0  0  0  0
  184.7920  178.7870  138.8170 C   0  0  0  0  0  0  0  0  0  0  0  0
  183.6530  177.9720  138.3060 C   0  0  2  0  0  3  0  0  0  0  0  0
  183.1070  175.7970  139.1380 O   0  0  0  0  0  1  0  0  0  0  0  0
  183.0230  177.1600  139.4260 C   0  0  0  0  0  2  0  0  0  0  0  0
  1 10  1  1  0  0  0
  1  3  1  0  0  0  0
  1 14  1  0  0  0  0
  3  4  1  0  0  0  0
  4  8  1  0  0  0  0
  5 15  1  0  0  0  0
  6 17  1  6  0  0  0
  6 14  1  0  0  0  0
  6 13  1  0  0  0  0
  7 13  1  0  0  0  0
  7 18  1  0  0  0  0
  8  2  1  1  0  0  0
  9  2  1  0  0  0  0
 11 16  1  0  0  0  0
 11 10  1  0  0  0  0
 12  3  2  0  0  0  0
 13  9  1  6  0  0  0
 14  8  1  0  0  0  0
 15  7  2  0  0  0  0
 16  5  1  0  0  0  0
 16 17  1  0  0  0  0
 18 20  1  0  0  0  0
 19 18  2  0  0  0  0
 21 16  1  0  0  0  0
 22 21  1  0  0  0  0
 23 22  1  0  0  0  0
 24 23  1  0  0  0  0
 25 24  1  0  0  0  0
 26 25  1  0  0  0  0
 27 30  1  0  0  0  0
 27 25  1  0  0  0  0
 28 32  1  0  0  0  0
 30 28  2  0  0  0  0
 31 30  1  0  0  0  0
 31 33  1  0  0  0  0
 32 29  2  0  0  0  0
 33 32  1  0  0  0  0
 33 35  1  0  0  0  0
 34 35  1  0  0  0  0
M  END
>  <MODEL>
2

>  <REMARK>
 VINA RESULT:      -8.2      1.643      1.919
  Name = 
  9 active torsions:
  status: ('A' for Active; 'I' for Inactive)
    1  A    between atoms: C_2  and  C_4
    2  A    between atoms: C_2  and  N_32
    3  A    between atoms: C_4  and  C_11
    4  A    between atoms: C_12  and  C_13
    5  A    between atoms: C_21  and  C_24
    6  A    between atoms: C_22  and  C_33
    7  A    between atoms: C_22  and  C_34
    8  A    between atoms: C_27  and  N_32
    9  A    between atoms: C_27  and  C_33
                            x       y       z     vdW  Elec       q    Type
                         _______ _______ _______ _____ _____    ______ ____

>  <TORSDO>
F 9

$$$$
=
 OpenBabel11042410303D

 35 39  0  0  1  0  0  0  0  0999 V2000
  186.7870  178.1850  142.0320 C   0  0  1  0  0  3  0  0  0  0  0  0
  186.1370  177.6990  145.7140 C   0  0  0  0  0  2  0  0  0  0  0  0
  185.5600  179.0150  142.1200 C   0  0  0  0  0  0  0  0  0  0  0  0
  184.9190  179.2720  143.7660 S   0  0  0  0  0  0  0  0  0  0  0  0
  190.6280  178.5140  143.2710 C   0  0  0  0  0  2  0  0  0  0  0  0
  188.1510  177.0700  143.8250 C   0  0  1  0  0  3  0  0  0  0  0  0
  189.9790  177.3990  145.4370 C   0  0  0  0  0  0  0  0  0  0  0  0
  185.7410  177.7180  144.2300 C   0  0  1  0  0  3  0  0  0  0  0  0
  187.5730  178.1760  145.9400 C   0  0  0  0  0  2  0  0  0  0  0  0
  187.9900  179.1030  141.7640 C   0  0  0  0  0  2  0  0  0  0  0  0
  189.1940  178.3410  141.1910 C   0  0  0  0  0  2  0  0  0  0  0  0
  184.9710  179.4100  141.1280 O   0  0  0  0  0  0  0  0  0  0  0  0
  188.5410  177.4360  145.0570 C   0  0  1  0  0  3  0  0  0  0  0  0
  186.8870  177.5250  143.3340 N   0  0  1  0  0  0  0  0  0  0  0  0
  190.9270  177.8710  144.6050 C   0  0  0  0  0  3  0  0  0  0  0  0
  190.0040  177.5500  142.2360 C   0  0  2  0  0  0  0  0  0  0  0  0
  189.1180  176.5970  142.8890 N   0  0  0  0  0  2  0  0  0  0  0  0
  190.3810  176.8530  146.7510 C   0  0  0  0  0  0  0  0  0  0  0  0
  189.5120  176.4030  147.5450 O   0  0  0  0  0  0  0  0  0  0  0  0
  191.7540  176.8200  147.1340 N   0  0  0  0  0  1  0  0  0  0  0  0
  191.1110  176.7550  141.5410 C   0  0  0  0  0  2  0  0  0  0  0  0
  191.5370  177.3450  140.2000 C   0  0  0  0  0  2  0  0  0  0  0  0
  192.9950  177.0200  139.9040 C   0  0  0  0  0  2  0  0  0  0  0  0
  193.1990  176.8300  138.4740 N   0  0  0  0  0  2  0  0  0  0  0  0
  192.2980  175.7760  138.0280 C   0  0  2  0  0  3  0  0  0  0  0  0
  193.0970  174.5270  137.7110 C   0  0  0  0  0  1  0  0  0  0  0  0
  191.5510  176.2250  136.7770 C   0  0  0  0  0  2  0  0  0  0  0  0
  189.2230  175.4330  136.9470 C   0  0  0  0  0  3  0  0  0  0  0  0
  186.9080  175.0700  137.3020 O   0  0  0  0  0  0  0  0  0  0  0  0
  190.0980  176.4170  137.0540 C   0  0  0  0  0  0  0  0  0  0  0  0
  189.4350  178.0110  137.5360 S   0  0  0  0  0  0  0  0  0  0  0  0
  187.8810  175.8680  137.2700 C   0  0  0  0  0  0  0  0  0  0  0  0
  187.7480  177.3130  137.6070 C   0  0  2  0  0  3  0  0  0  0  0  0
  187.1660  179.3920  136.5770 O   0  0  0  0  0  1  0  0  0  0  0  0
  186.8730  178.0280  136.5890 C   0  0  0  0  0  2  0  0  0  0  0  0
  1 10  1  1  0  0  0
  1  3  1  0  0  0  0
  1 14  1  0  0  0  0
  2  9  1  0  0  0  0
  3  4  1  0  0  0  0
  4  8  1  0  0  0  0
  5 15  1  0  0  0  0
  6 17  1  6  0  0  0
  6 13  1  0  0  0  0
  7 18  1  0  0  0  0
  8  2  1  1  0  0  0
 11 10  1  0  0  0  0
 11 16  1  0  0  0  0
 12  3  2  0  0  0  0
 13  7  1  0  0  0  0
 13  9  1  6  0  0  0
 14  6  1  0  0  0  0
 14  8  1  0  0  0  0
 15  7  2  0  0  0  0
 16 17  1  0  0  0  0
 16  5  1  0  0  0  0
 18 20  1  0  0  0  0
 18 19  2  0  0  0  0
 21 16  1  0  0  0  0
 22 21  1  0  0  0  0
 23 22  1  0  0  0  0
 24 23  1  0  0  0  0
 25 24  1  0  0  0  0
 26 25  1  0  0  0  0
 27 30  1  0  0  0  0
 27 25  1  0  0  0  0
 28 30  2  0  0  0  0
 28 32  1  0  0  0  0
 30 31  1  0  0  0  0
 31 33  1  0  0  0  0
 32 29  2  0  0  0  0
 32 33  1  0  0  0  0
 34 35  1  0  0  0  0
 35 33  1  0  0  0  0
M  END
>  <MODEL>
3

>  <REMARK>
 VINA RESULT:      -7.8      1.103      1.685
  Name = 
  9 active torsions:
  status: ('A' for Active; 'I' for Inactive)
    1  A    between atoms: C_2  and  C_4
    2  A    between atoms: C_2  and  N_32
    3  A    between atoms: C_4  and  C_11
    4  A    between atoms: C_12  and  C_13
    5  A    between atoms: C_21  and  C_24
    6  A    between atoms: C_22  and  C_33
    7  A    between atoms: C_22  and  C_34
    8  A    between atoms: C_27  and  N_32
    9  A    between atoms: C_27  and  C_33
                            x       y       z     vdW  Elec       q    Type
                         _______ _______ _______ _____ _____    ______ ____

>  <TORSDO>
F 9

$$$$
=
 OpenBabel11042410303D

 35 39  0  0  1  0  0  0  0  0999 V2000
  186.4620  177.8830  142.9790 C   0  0  1  0  0  3  0  0  0  0  0  0
  186.8920  177.4610  146.7010 C   0  0  0  0  0  2  0  0  0  0  0  0
  185.2900  178.6920  143.3990 C   0  0  0  0  0  0  0  0  0  0  0  0
  185.1350  178.9710  145.1550 S   0  0  0  0  0  0  0  0  0  0  0  0
  190.4870  178.3090  143.0740 C   0  0  0  0  0  2  0  0  0  0  0  0
  188.3040  176.8310  144.3290 C   0  0  1  0  0  3  0  0  0  0  0  0
  190.5040  177.2280  145.3520 C   0  0  0  0  0  0  0  0  0  0  0  0
  186.0910  177.4420  145.3900 C   0  0  1  0  0  3  0  0  0  0  0  0
  188.3210  177.9700  146.5040 C   0  0  0  0  0  2  0  0  0  0  0  0
  187.5180  178.8180  142.3680 C   0  0  0  0  0  2  0  0  0  0  0  0
  188.5280  178.0670  141.4880 C   0  0  0  0  0  2  0  0  0  0  0  0
  184.4360  179.0550  142.6090 O   0  0  0  0  0  0  0  0  0  0  0  0
  189.0170  177.2290  145.3940 C   0  0  1  0  0  3  0  0  0  0  0  0
  186.9420  177.2520  144.2090 N   0  0  1  0  0  0  0  0  0  0  0  0
  191.1670  177.7000  144.2790 C   0  0  0  0  0  3  0  0  0  0  0  0
  189.6190  177.3130  142.2730 C   0  0  2  0  0  0  0  0  0  0  0  0
  188.9770  176.3570  143.1640 N   0  0  0  0  0  2  0  0  0  0  0  0
  191.2740  176.7170  146.5060 C   0  0  0  0  0  0  0  0  0  0  0  0
  191.1320  177.2360  147.6450 O   0  0  0  0  0  0  0  0  0  0  0  0
  192.1780  175.6260  146.3490 N   0  0  0  0  0  1  0  0  0  0  0  0
  190.5030  176.5250  141.3040 C   0  0  0  0  0  2  0  0  0  0  0  0
  190.1790  176.7800  139.8350 C   0  0  0  0  0  2  0  0  0  0  0  0
  191.4530  176.8680  139.0070 C   0  0  0  0  0  2  0  0  0  0  0  0
  191.1780  176.5710  137.6070 N   0  0  0  0  0  2  0  0  0  0  0  0
  192.1700  175.6070  137.1500 C   0  0  2  0  0  3  0  0  0  0  0  0
  191.5700  174.2150  137.1710 C   0  0  0  0  0  1  0  0  0  0  0  0
  193.3890  175.6430  138.0640 C   0  0  0  0  0  2  0  0  0  0  0  0
  195.1880  173.9600  138.1190 C   0  0  0  0  0  3  0  0  0  0  0  0
  196.9550  172.4280  137.7340 O   0  0  0  0  0  0  0  0  0  0  0  0
  194.5370  174.9030  137.4640 C   0  0  0  0  0  0  0  0  0  0  0  0
  195.1250  175.2610  135.8090 S   0  0  0  0  0  0  0  0  0  0  0  0
  196.2570  173.3910  137.3260 C   0  0  0  0  0  0  0  0  0  0  0  0
  196.4350  173.9980  135.9760 C   0  0  2  0  0  3  0  0  0  0  0  0
  197.7520  175.9360  136.4580 O   0  0  0  0  0  1  0  0  0  0  0  0
  197.7920  174.6750  135.8620 C   0  0  0  0  0  2  0  0  0  0  0  0
  1 10  1  1  0  0  0
  1  3  1  0  0  0  0
  1 14  1  0  0  0  0
  3  4  1  0  0  0  0
  4  8  1  0  0  0  0
  5 15  1  0  0  0  0
  6 17  1  6  0  0  0
  6 13  1  0  0  0  0
  7 13  1  0  0  0  0
  7 18  1  0  0  0  0
  8  2  1  1  0  0  0
  9  2  1  0  0  0  0
 11 16  1  0  0  0  0
 11 10  1  0  0  0  0
 12  3  2  0  0  0  0
 13  9  1  6  0  0  0
 14  6  1  0  0  0  0
 14  8  1  0  0  0  0
 15  7  2  0  0  0  0
 16  5  1  0  0  0  0
 16 17  1  0  0  0  0
 18 19  2  0  0  0  0
 20 18  1  0  0  0  0
 21 16  1  0  0  0  0
 22 21  1  0  0  0  0
 23 22  1  0  0  0  0
 24 23  1  0  0  0  0
 25 26  1  0  0  0  0
 25 24  1  0  0  0  0
 25 27  1  0  0  0  0
 30 27  1  0  0  0  0
 30 28  2  0  0  0  0
 31 33  1  0  0  0  0
 31 30  1  0  0  0  0
 32 29  2  0  0  0  0
 32 28  1  0  0  0  0
 33 32  1  0  0  0  0
 35 33  1  0  0  0  0
 35 34  1  0  0  0  0
M  END
>  <MODEL>
4

>  <REMARK>
 VINA RESULT:      -7.7      3.688      5.112
  Name = 
  9 active torsions:
  status: ('A' for Active; 'I' for Inactive)
    1  A    between atoms: C_2  and  C_4
    2  A    between atoms: C_2  and  N_32
    3  A    between atoms: C_4  and  C_11
    4  A    between atoms: C_12  and  C_13
    5  A    between atoms: C_21  and  C_24
    6  A    between atoms: C_22  and  C_33
    7  A    between atoms: C_22  and  C_34
    8  A    between atoms: C_27  and  N_32
    9  A    between atoms: C_27  and  C_33
                            x       y       z     vdW  Elec       q    Type
                         _______ _______ _______ _____ _____    ______ ____

>  <TORSDO>
F 9

$$$$
=
 OpenBabel11042410303D

 35 39  0  0  1  0  0  0  0  0999 V2000
  186.5840  177.8750  143.0630 C   0  0  1  0  0  3  0  0  0  0  0  0
  187.0940  177.4010  146.7690 C   0  0  0  0  0  2  0  0  0  0  0  0
  185.4400  178.7030  143.5200 C   0  0  0  0  0  0  0  0  0  0  0  0
  185.3330  178.9650  145.2830 S   0  0  0  0  0  0  0  0  0  0  0  0
  190.6180  178.2180  143.0660 C   0  0  0  0  0  2  0  0  0  0  0  0
  188.4350  176.7700  144.3550 C   0  0  1  0  0  3  0  0  0  0  0  0
  190.6680  177.1090  145.3300 C   0  0  0  0  0  0  0  0  0  0  0  0
  186.2620  177.4140  145.4770 C   0  0  1  0  0  3  0  0  0  0  0  0
  188.5290  177.8820  146.5430 C   0  0  0  0  0  2  0  0  0  0  0  0
  187.6440  178.7960  142.4370 C   0  0  0  0  0  2  0  0  0  0  0  0
  188.6180  178.0340  141.5250 C   0  0  0  0  0  2  0  0  0  0  0  0
  184.5750  179.0930  142.7550 O   0  0  0  0  0  0  0  0  0  0  0  0
  189.1830  177.1410  145.4080 C   0  0  1  0  0  3  0  0  0  0  0  0
  187.0800  177.2200  144.2740 N   0  0  1  0  0  0  0  0  0  0  0  0
  191.3140  177.5810  144.2460 C   0  0  0  0  0  3  0  0  0  0  0  0
  189.7110  177.2490  142.2740 C   0  0  2  0  0  0  0  0  0  0  0  0
  189.0710  176.2960  143.1700 N   0  0  0  0  0  2  0  0  0  0  0  0
  191.4540  176.5690  146.4590 C   0  0  0  0  0  0  0  0  0  0  0  0
  192.1420  175.5240  146.3120 O   0  0  0  0  0  0  0  0  0  0  0  0
  191.4530  177.2270  147.7240 N   0  0  0  0  0  1  0  0  0  0  0  0
  190.5550  176.4540  141.2760 C   0  0  0  0  0  2  0  0  0  0  0  0
  190.7970  177.1880  139.9600 C   0  0  0  0  0  2  0  0  0  0  0  0
  190.3520  176.3390  138.7770 C   0  0  0  0  0  2  0  0  0  0  0  0
  190.3660  177.1220  137.5480 N   0  0  0  0  0  2  0  0  0  0  0  0
  189.2120  176.7280  136.7510 C   0  0  2  0  0  3  0  0  0  0  0  0
  189.0480  177.6870  135.5880 C   0  0  0  0  0  1  0  0  0  0  0  0
  187.9530  176.7590  137.6090 C   0  0  0  0  0  2  0  0  0  0  0  0
  185.6480  176.2330  136.9130 C   0  0  0  0  0  3  0  0  0  0  0  0
  183.6130  175.3540  136.0740 O   0  0  0  0  0  0  0  0  0  0  0  0
  186.9030  175.8510  137.0630 C   0  0  0  0  0  0  0  0  0  0  0  0
  187.2740  174.1630  136.5880 S   0  0  0  0  0  0  0  0  0  0  0  0
  184.8250  175.1770  136.3640 C   0  0  0  0  0  0  0  0  0  0  0  0
  185.5280  173.8850  136.1240 C   0  0  2  0  0  3  0  0  0  0  0  0
  185.3000  173.0000  138.3350 O   0  0  0  0  0  1  0  0  0  0  0  0
  184.9520  172.7840  137.0010 C   0  0  0  0  0  2  0  0  0  0  0  0
  1 10  1  1  0  0  0
  1  3  1  0  0  0  0
  1 14  1  0  0  0  0
  3  4  1  0  0  0  0
  4  8  1  0  0  0  0
  5 15  1  0  0  0  0
  6 17  1  6  0  0  0
  6 13  1  0  0  0  0
  7 13  1  0  0  0  0
  7 18  1  0  0  0  0
  8  2  1  1  0  0  0
  9  2  1  0  0  0  0
 11 16  1  0  0  0  0
 11 10  1  0  0  0  0
 12  3  2  0  0  0  0
 13  9  1  6  0  0  0
 14  6  1  0  0  0  0
 14  8  1  0  0  0  0
 15  7  2  0  0  0  0
 16  5  1  0  0  0  0
 16 17  1  0  0  0  0
 18 20  1  0  0  0  0
 19 18  2  0  0  0  0
 21 16  1  0  0  0  0
 22 21  1  0  0  0  0
 23 22  1  0  0  0  0
 24 23  1  0  0  0  0
 25 24  1  0  0  0  0
 25 27  1  0  0  0  0
 26 25  1  0  0  0  0
 28 30  2  0  0  0  0
 29 32  2  0  0  0  0
 30 27  1  0  0  0  0
 31 30  1  0  0  0  0
 32 28  1  0  0  0  0
 33 32  1  0  0  0  0
 33 31  1  0  0  0  0
 33 35  1  0  0  0  0
 35 34  1  0  0  0  0
M  END
>  <MODEL>
5

>  <REMARK>
 VINA RESULT:      -7.6      1.552      2.038
  Name = 
  9 active torsions:
  status: ('A' for Active; 'I' for Inactive)
    1  A    between atoms: C_2  and  C_4
    2  A    between atoms: C_2  and  N_32
    3  A    between atoms: C_4  and  C_11
    4  A    between atoms: C_12  and  C_13
    5  A    between atoms: C_21  and  C_24
    6  A    between atoms: C_22  and  C_33
    7  A    between atoms: C_22  and  C_34
    8  A    between atoms: C_27  and  N_32
    9  A    between atoms: C_27  and  C_33
                            x       y       z     vdW  Elec       q    Type
                         _______ _______ _______ _____ _____    ______ ____

>  <TORSDO>
F 9

$$$$
=
 OpenBabel11042410303D

 35 39  0  0  1  0  0  0  0  0999 V2000
  191.1000  176.5760  144.9490 C   0  0  1  0  0  3  0  0  0  0  0  0
  189.1610  177.4980  148.0480 C   0  0  0  0  0  2  0  0  0  0  0  0
  191.7920  175.6580  145.8870 C   0  0  0  0  0  0  0  0  0  0  0  0
  191.1020  175.5700  147.5310 S   0  0  0  0  0  0  0  0  0  0  0  0
  187.4450  176.7700  143.2180 C   0  0  0  0  0  2  0  0  0  0  0  0
  189.0850  178.0450  145.2700 C   0  0  1  0  0  3  0  0  0  0  0  0
  186.6280  178.1060  145.1950 C   0  0  0  0  0  0  0  0  0  0  0  0
  190.4450  177.2410  147.2450 C   0  0  1  0  0  3  0  0  0  0  0  0
  187.8980  177.1890  147.2420 C   0  0  0  0  0  2  0  0  0  0  0  0
  190.2680  175.7430  143.9610 C   0  0  0  0  0  2  0  0  0  0  0  0
  189.9090  176.5270  142.6890 C   0  0  0  0  0  2  0  0  0  0  0  0
  192.8220  175.0790  145.5870 O   0  0  0  0  0  0  0  0  0  0  0  0
  187.9140  177.8870  145.9090 C   0  0  1  0  0  3  0  0  0  0  0  0
  190.2550  177.4140  145.8000 N   0  0  1  0  0  0  0  0  0  0  0  0
  186.4310  177.6130  143.9570 C   0  0  0  0  0  3  0  0  0  0  0  0
  188.7470  177.5230  142.8610 C   0  0  2  0  0  0  0  0  0  0  0  0
  189.0960  178.4720  143.9090 N   0  0  0  0  0  2  0  0  0  0  0  0
  185.5390  178.8600  145.8510 C   0  0  0  0  0  0  0  0  0  0  0  0
  185.7280  179.4030  146.9720 O   0  0  0  0  0  0  0  0  0  0  0  0
  184.2660  178.9920  145.2230 N   0  0  0  0  0  1  0  0  0  0  0  0
  188.5450  178.3130  141.5670 C   0  0  0  0  0  2  0  0  0  0  0  0
  188.8300  177.5030  140.3060 C   0  0  0  0  0  2  0  0  0  0  0  0
  189.0480  178.4210  139.1100 C   0  0  0  0  0  2  0  0  0  0  0  0
  188.6800  177.7470  137.8710 N   0  0  0  0  0  2  0  0  0  0  0  0
  187.3290  177.2250  138.0280 C   0  0  2  0  0  3  0  0  0  0  0  0
  187.1810  175.9530  137.2180 C   0  0  0  0  0  1  0  0  0  0  0  0
  186.3150  178.2530  137.5390 C   0  0  0  0  0  2  0  0  0  0  0  0
  185.3740  178.6180  139.7870 C   0  0  0  0  0  3  0  0  0  0  0  0
  184.0780  179.0030  141.7330 O   0  0  0  0  0  0  0  0  0  0  0  0
  185.1830  178.3970  138.4990 C   0  0  0  0  0  0  0  0  0  0  0  0
  183.4760  178.2600  137.9690 S   0  0  0  0  0  0  0  0  0  0  0  0
  184.1230  178.7220  140.5070 C   0  0  0  0  0  0  0  0  0  0  0  0
  182.8980  178.5200  139.6830 C   0  0  2  0  0  3  0  0  0  0  0  0
  182.8400  176.1320  139.8000 O   0  0  0  0  0  1  0  0  0  0  0  0
  182.1350  177.2870  140.1400 C   0  0  0  0  0  2  0  0  0  0  0  0
  1 10  1  6  0  0  0
  1 14  1  0  0  0  0
  1  3  1  0  0  0  0
  3  4  1  0  0  0  0
  5 15  1  0  0  0  0
  6 17  1  6  0  0  0
  6 14  1  0  0  0  0
  6 13  1  0  0  0  0
  7 18  1  0  0  0  0
  7 13  1  0  0  0  0
  8  4  1  0  0  0  0
  8  2  1  1  0  0  0
  9  2  1  0  0  0  0
 11 16  1  0  0  0  0
 11 10  1  0  0  0  0
 12  3  2  0  0  0  0
 13  9  1  6  0  0  0
 14  8  1  0  0  0  0
 15  7  2  0  0  0  0
 16  5  1  0  0  0  0
 16 17  1  0  0  0  0
 18 19  2  0  0  0  0
 20 18  1  0  0  0  0
 21 16  1  0  0  0  0
 22 21  1  0  0  0  0
 23 22  1  0  0  0  0
 24 25  1  0  0  0  0
 24 23  1  0  0  0  0
 26 25  1  0  0  0  0
 27 25  1  0  0  0  0
 27 30  1  0  0  0  0
 28 32  1  0  0  0  0
 30 28  2  0  0  0  0
 31 30  1  0  0  0  0
 31 33  1  0  0  0  0
 32 29  2  0  0  0  0
 33 35  1  0  0  0  0
 33 32  1  0  0  0  0
 34 35  1  0  0  0  0
M  END
>  <MODEL>
6

>  <REMARK>
 VINA RESULT:      -7.3      2.705      4.677
  Name = 
  9 active torsions:
  status: ('A' for Active; 'I' for Inactive)
    1  A    between atoms: C_2  and  C_4
    2  A    between atoms: C_2  and  N_32
    3  A    between atoms: C_4  and  C_11
    4  A    between atoms: C_12  and  C_13
    5  A    between atoms: C_21  and  C_24
    6  A    between atoms: C_22  and  C_33
    7  A    between atoms: C_22  and  C_34
    8  A    between atoms: C_27  and  N_32
    9  A    between atoms: C_27  and  C_33
                            x       y       z     vdW  Elec       q    Type
                         _______ _______ _______ _____ _____    ______ ____

>  <TORSDO>
F 9

$$$$
=
 OpenBabel11042410303D

 35 39  0  0  1  0  0  0  0  0999 V2000
  191.2930  177.0870  145.4370 C   0  0  1  0  0  3  0  0  0  0  0  0
  187.8410  177.9950  146.6530 C   0  0  0  0  0  2  0  0  0  0  0  0
  191.3790  176.4280  146.7650 C   0  0  0  0  0  0  0  0  0  0  0  0
  189.8680  176.4100  147.7160 S   0  0  0  0  0  0  0  0  0  0  0  0
  189.3360  176.3990  141.9610 C   0  0  0  0  0  2  0  0  0  0  0  0
  189.3580  178.1870  144.2690 C   0  0  1  0  0  3  0  0  0  0  0  0
  187.4130  177.7860  142.8190 C   0  0  0  0  0  0  0  0  0  0  0  0
  189.3680  177.8860  146.7800 C   0  0  1  0  0  3  0  0  0  0  0  0
  187.3170  177.3660  145.3600 C   0  0  0  0  0  2  0  0  0  0  0  0
  191.2660  176.0040  144.3470 C   0  0  0  0  0  2  0  0  0  0  0  0
  191.6550  176.5530  142.9660 C   0  0  0  0  0  2  0  0  0  0  0  0
  192.4330  176.0190  147.2190 O   0  0  0  0  0  0  0  0  0  0  0  0
  188.0520  177.8930  144.1580 C   0  0  1  0  0  3  0  0  0  0  0  0
  190.0440  177.8490  145.4780 N   0  0  1  0  0  0  0  0  0  0  0  0
  188.0170  177.1220  141.8140 C   0  0  0  0  0  3  0  0  0  0  0  0
  190.5340  177.3320  142.2500 C   0  0  2  0  0  0  0  0  0  0  0  0
  190.1270  178.4450  143.0960 N   0  0  0  0  0  2  0  0  0  0  0  0
  186.0880  178.3980  142.5830 C   0  0  0  0  0  0  0  0  0  0  0  0
  185.0360  177.7630  142.8590 O   0  0  0  0  0  0  0  0  0  0  0  0
  185.9830  179.7170  142.0510 N   0  0  0  0  0  1  0  0  0  0  0  0
  191.0630  177.9130  140.9380 C   0  0  0  0  0  2  0  0  0  0  0  0
  192.2870  177.1810  140.3950 C   0  0  0  0  0  2  0  0  0  0  0  0
  192.0660  176.7540  138.9510 C   0  0  0  0  0  2  0  0  0  0  0  0
  190.9280  175.8490  138.8500 N   0  0  0  0  0  2  0  0  0  0  0  0
  190.3840  175.9590  137.5040 C   0  0  2  0  0  3  0  0  0  0  0  0
  191.4350  175.5340  136.4970 C   0  0  0  0  0  1  0  0  0  0  0  0
  189.9760  177.4010  137.2240 C   0  0  0  0  0  2  0  0  0  0  0  0
  187.8720  178.1970  138.2310 C   0  0  0  0  0  3  0  0  0  0  0  0
  185.6650  178.8390  138.8090 O   0  0  0  0  0  0  0  0  0  0  0  0
  188.4930  177.5590  137.2560 C   0  0  0  0  0  0  0  0  0  0  0  0
  187.4470  176.8740  135.9720 S   0  0  0  0  0  0  0  0  0  0  0  0
  186.4380  178.2190  138.0340 C   0  0  0  0  0  0  0  0  0  0  0  0
  185.9540  177.4970  136.8230 C   0  0  2  0  0  3  0  0  0  0  0  0
  185.3190  175.2380  136.3610 O   0  0  0  0  0  1  0  0  0  0  0  0
  185.0770  176.3170  137.2120 C   0  0  0  0  0  2  0  0  0  0  0  0
  1 10  1  6  0  0  0
  1 14  1  0  0  0  0
  1  3  1  0  0  0  0
  3 12  2  0  0  0  0
  3  4  1  0  0  0  0
  5 16  1  0  0  0  0
  6 17  1  6  0  0  0
  6 14  1  0  0  0  0
  7 13  1  0  0  0  0
  8  2  1  6  0  0  0
  8  4  1  0  0  0  0
  9  2  1  0  0  0  0
 11 10  1  0  0  0  0
 13  6  1  0  0  0  0
 13  9  1  6  0  0  0
 14  8  1  0  0  0  0
 15  5  1  0  0  0  0
 15  7  2  0  0  0  0
 16 11  1  0  0  0  0
 16 17  1  0  0  0  0
 18  7  1  0  0  0  0
 18 19  2  0  0  0  0
 20 18  1  0  0  0  0
 21 16  1  0  0  0  0
 22 21  1  0  0  0  0
 23 22  1  0  0  0  0
 24 23  1  0  0  0  0
 25 24  1  0  0  0  0
 26 25  1  0  0  0  0
 27 30  1  0  0  0  0
 27 25  1  0  0  0  0
 30 28  2  0  0  0  0
 31 33  1  0  0  0  0
 31 30  1  0  0  0  0
 32 28  1  0  0  0  0
 32 29  2  0  0  0  0
 33 35  1  0  0  0  0
 33 32  1  0  0  0  0
 34 35  1  0  0  0  0
M  END
>  <MODEL>
7

>  <REMARK>
 VINA RESULT:      -7.3      1.807      3.936
  Name = 
  9 active torsions:
  status: ('A' for Active; 'I' for Inactive)
    1  A    between atoms: C_2  and  C_4
    2  A    between atoms: C_2  and  N_32
    3  A    between atoms: C_4  and  C_11
    4  A    between atoms: C_12  and  C_13
    5  A    between atoms: C_21  and  C_24
    6  A    between atoms: C_22  and  C_33
    7  A    between atoms: C_22  and  C_34
    8  A    between atoms: C_27  and  N_32
    9  A    between atoms: C_27  and  C_33
                            x       y       z     vdW  Elec       q    Type
                         _______ _______ _______ _____ _____    ______ ____

>  <TORSDO>
F 9

$$$$
=
 OpenBabel11042410303D

 35 39  0  0  1  0  0  0  0  0999 V2000
  190.9300  176.5990  144.5470 C   0  0  1  0  0  3  0  0  0  0  0  0
  189.4680  177.3890  147.9320 C   0  0  0  0  0  2  0  0  0  0  0  0
  191.7080  175.6050  145.3280 C   0  0  0  0  0  0  0  0  0  0  0  0
  191.2460  175.4380  147.0440 S   0  0  0  0  0  0  0  0  0  0  0  0
  187.0820  177.0060  143.3540 C   0  0  0  0  0  2  0  0  0  0  0  0
  189.0340  178.1050  145.2260 C   0  0  1  0  0  3  0  0  0  0  0  0
  186.5940  178.2430  145.4950 C   0  0  0  0  0  0  0  0  0  0  0  0
  190.6200  177.1430  146.9460 C   0  0  1  0  0  3  0  0  0  0  0  0
  188.0960  177.1660  147.2920 C   0  0  0  0  0  2  0  0  0  0  0  0
  189.9390  175.8530  143.6390 C   0  0  0  0  0  2  0  0  0  0  0  0
  189.4400  176.7220  142.4750 C   0  0  0  0  0  2  0  0  0  0  0  0
  192.6650  175.0160  144.8560 O   0  0  0  0  0  0  0  0  0  0  0  0
  187.9560  177.9430  146.0110 C   0  0  1  0  0  3  0  0  0  0  0  0
  190.2400  177.4080  145.5530 N   0  0  1  0  0  0  0  0  0  0  0  0
  186.2110  177.8320  144.2710 C   0  0  0  0  0  3  0  0  0  0  0  0
  188.3500  177.7400  142.8620 C   0  0  2  0  0  0  0  0  0  0  0  0
  188.8750  178.6120  143.9030 N   0  0  0  0  0  2  0  0  0  0  0  0
  185.6340  178.9870  146.3380 C   0  0  0  0  0  0  0  0  0  0  0  0
  186.0470  179.7380  147.2610 O   0  0  0  0  0  0  0  0  0  0  0  0
  184.2300  178.8750  146.1110 N   0  0  0  0  0  1  0  0  0  0  0  0
  188.0040  178.6130  141.6550 C   0  0  0  0  0  2  0  0  0  0  0  0
  188.7890  178.2540  140.3960 C   0  0  0  0  0  2  0  0  0  0  0  0
  187.8550  177.7830  139.2910 C   0  0  0  0  0  2  0  0  0  0  0  0
  188.0010  178.6160  138.1040 N   0  0  0  0  0  2  0  0  0  0  0  0
  189.1530  178.1320  137.3560 C   0  0  2  0  0  3  0  0  0  0  0  0
  188.8930  178.2850  135.8700 C   0  0  0  0  0  1  0  0  0  0  0  0
  189.3990  176.6610  137.6730 C   0  0  0  0  0  2  0  0  0  0  0  0
  191.6870  176.6380  138.5880 C   0  0  0  0  0  3  0  0  0  0  0  0
  193.9760  176.3410  139.1260 O   0  0  0  0  0  0  0  0  0  0  0  0
  190.8530  176.3300  137.6130 C   0  0  0  0  0  0  0  0  0  0  0  0
  191.5700  175.5010  136.1950 S   0  0  0  0  0  0  0  0  0  0  0  0
  193.0390  176.2100  138.2970 C   0  0  0  0  0  0  0  0  0  0  0  0
  193.2250  175.5620  136.9680 C   0  0  2  0  0  3  0  0  0  0  0  0
  195.4600  175.9110  136.1920 O   0  0  0  0  0  1  0  0  0  0  0  0
  194.1520  176.3860  136.0890 C   0  0  0  0  0  2  0  0  0  0  0  0
  1 10  1  6  0  0  0
  1  3  1  0  0  0  0
  1 14  1  0  0  0  0
  3  4  1  0  0  0  0
  5 15  1  0  0  0  0
  6 17  1  6  0  0  0
  6 14  1  0  0  0  0
  6 13  1  0  0  0  0
  7 13  1  0  0  0  0
  7 18  1  0  0  0  0
  8  4  1  0  0  0  0
  8  2  1  1  0  0  0
  9  2  1  0  0  0  0
 11 16  1  0  0  0  0
 11 10  1  0  0  0  0
 12  3  2  0  0  0  0
 13  9  1  6  0  0  0
 14  8  1  0  0  0  0
 15  7  2  0  0  0  0
 16  5  1  0  0  0  0
 16 17  1  0  0  0  0
 18 19  2  0  0  0  0
 20 18  1  0  0  0  0
 21 16  1  0  0  0  0
 22 21  1  0  0  0  0
 23 22  1  0  0  0  0
 24 23  1  0  0  0  0
 25 27  1  0  0  0  0
 25 24  1  0  0  0  0
 26 25  1  0  0  0  0
 30 27  1  0  0  0  0
 30 28  2  0  0  0  0
 31 33  1  0  0  0  0
 31 30  1  0  0  0  0
 32 28  1  0  0  0  0
 32 29  2  0  0  0  0
 33 32  1  0  0  0  0
 35 34  1  0  0  0  0
 35 33  1  0  0  0  0
M  END
>  <MODEL>
8

>  <REMARK>
 VINA RESULT:      -7.3      3.321      5.309
  Name = 
  9 active torsions:
  status: ('A' for Active; 'I' for Inactive)
    1  A    between atoms: C_2  and  C_4
    2  A    between atoms: C_2  and  N_32
    3  A    between atoms: C_4  and  C_11
    4  A    between atoms: C_12  and  C_13
    5  A    between atoms: C_21  and  C_24
    6  A    between atoms: C_22  and  C_33
    7  A    between atoms: C_22  and  C_34
    8  A    between atoms: C_27  and  N_32
    9  A    between atoms: C_27  and  C_33
                            x       y       z     vdW  Elec       q    Type
                         _______ _______ _______ _____ _____    ______ ____

>  <TORSDO>
F 9

$$$$
=
 OpenBabel11042410303D

 35 39  0  0  1  0  0  0  0  0999 V2000
  186.7860  177.6370  146.2440 C   0  0  1  0  0  3  0  0  0  0  0  0
  189.9100  177.0280  144.2220 C   0  0  0  0  0  2  0  0  0  0  0  0
  187.7650  177.8150  147.3460 C   0  0  0  0  0  0  0  0  0  0  0  0
  189.4830  177.8040  146.8620 S   0  0  0  0  0  0  0  0  0  0  0  0
  185.6770  179.7290  142.9600 C   0  0  0  0  0  2  0  0  0  0  0  0
  187.1300  177.3300  143.7730 C   0  0  1  0  0  3  0  0  0  0  0  0
  187.4480  178.5120  141.6400 C   0  0  0  0  0  0  0  0  0  0  0  0
  188.9760  176.8150  145.4230 C   0  0  1  0  0  3  0  0  0  0  0  0
  189.4020  178.1170  143.2750 C   0  0  0  0  0  2  0  0  0  0  0  0
  186.1380  178.9950  145.9300 C   0  0  0  0  0  2  0  0  0  0  0  0
  184.8110  178.8510  145.1710 C   0  0  0  0  0  2  0  0  0  0  0  0
  187.4230  177.8640  148.5150 O   0  0  0  0  0  0  0  0  0  0  0  0
  187.9710  177.8740  142.8780 C   0  0  1  0  0  3  0  0  0  0  0  0
  187.5770  177.1390  145.1180 N   0  0  1  0  0  0  0  0  0  0  0  0
  186.3860  179.3390  141.6830 C   0  0  0  0  0  3  0  0  0  0  0  0
  184.9660  178.5530  143.6670 C   0  0  2  0  0  0  0  0  0  0  0  0
  185.7280  177.3220  143.5110 N   0  0  0  0  0  2  0  0  0  0  0  0
  188.1080  178.2550  140.3430 C   0  0  0  0  0  0  0  0  0  0  0  0
  189.2740  177.7780  140.3060 O   0  0  0  0  0  0  0  0  0  0  0  0
  187.4330  178.5310  139.1180 N   0  0  0  0  0  1  0  0  0  0  0  0
  183.5900  178.3320  143.0380 C   0  0  0  0  0  2  0  0  0  0  0  0
  182.4520  178.9990  143.8060 C   0  0  0  0  0  2  0  0  0  0  0  0
  181.1040  178.6380  143.1980 C   0  0  0  0  0  2  0  0  0  0  0  0
  180.7940  179.5170  142.0770 N   0  0  0  0  0  2  0  0  0  0  0  0
  179.6460  178.9600  141.3740 C   0  0  2  0  0  3  0  0  0  0  0  0
  179.3860  177.5500  141.8660 C   0  0  0  0  0  1  0  0  0  0  0  0
  179.9190  178.9260  139.8750 C   0  0  0  0  0  2  0  0  0  0  0  0
  182.1740  179.8020  139.4020 C   0  0  0  0  0  3  0  0  0  0  0  0
  184.4740  180.2210  139.0140 O   0  0  0  0  0  0  0  0  0  0  0  0
  181.3760  178.7680  139.5940 C   0  0  0  0  0  0  0  0  0  0  0  0
  182.1410  177.1510  139.4800 S   0  0  0  0  0  0  0  0  0  0  0  0
  183.5390  179.3910  139.1510 C   0  0  0  0  0  0  0  0  0  0  0  0
  183.7590  177.9170  139.1150 C   0  0  2  0  0  3  0  0  0  0  0  0
  183.1400  177.4660  136.8490 O   0  0  0  0  0  1  0  0  0  0  0  0
  184.2180  177.4720  137.7350 C   0  0  0  0  0  2  0  0  0  0  0  0
  1 10  1  6  0  0  0
  1  3  1  0  0  0  0
  3 12  2  0  0  0  0
  4  3  1  0  0  0  0
  5 16  1  0  0  0  0
  6 17  1  1  0  0  0
  6 14  1  0  0  0  0
  7 15  2  0  0  0  0
  7 13  1  0  0  0  0
  8  2  1  6  0  0  0
  8  4  1  0  0  0  0
  9  2  1  0  0  0  0
 11 10  1  0  0  0  0
 13  9  1  1  0  0  0
 13  6  1  0  0  0  0
 14  8  1  0  0  0  0
 14  1  1  0  0  0  0
 15  5  1  0  0  0  0
 16 11  1  0  0  0  0
 17 16  1  0  0  0  0
 18  7  1  0  0  0  0
 19 18  2  0  0  0  0
 20 18  1  0  0  0  0
 21 16  1  0  0  0  0
 21 22  1  0  0  0  0
 23 22  1  0  0  0  0
 24 23  1  0  0  0  0
 25 26  1  0  0  0  0
 25 24  1  0  0  0  0
 27 25  1  0  0  0  0
 28 30  2  0  0  0  0
 29 32  2  0  0  0  0
 30 27  1  0  0  0  0
 31 30  1  0  0  0  0
 32 28  1  0  0  0  0
 33 32  1  0  0  0  0
 33 31  1  0  0  0  0
 34 35  1  0  0  0  0
 35 33  1  0  0  0  0
M  END
>  <MODEL>
9

>  <REMARK>
 VINA RESULT:      -7.2      3.298      6.725
  Name = 
  9 active torsions:
  status: ('A' for Active; 'I' for Inactive)
    1  A    between atoms: C_2  and  C_4
    2  A    between atoms: C_2  and  N_32
    3  A    between atoms: C_4  and  C_11
    4  A    between atoms: C_12  and  C_13
    5  A    between atoms: C_21  and  C_24
    6  A    between atoms: C_22  and  C_33
    7  A    between atoms: C_22  and  C_34
    8  A    between atoms: C_27  and  N_32
    9  A    between atoms: C_27  and  C_33
                            x       y       z     vdW  Elec       q    Type
                         _______ _______ _______ _____ _____    ______ ____

>  <TORSDO>
F 9

$$$$
