=
 OpenBabel11032421223D

 58 62  0  0  1  0  0  0  0  0999 V2000
  186.2770  180.1090  141.4680 O   0  0  0  0  0  1  0  0  0  0  0  0
  182.9050  178.4740  140.9660 C   0  0  1  0  0  3  0  0  0  0  0  0
  185.3070  178.2720  140.2850 C   0  0  0  0  0  2  0  0  0  0  0  0
  183.9540  178.8740  139.9240 C   0  0  0  0  0  2  0  0  0  0  0  0
  184.7120  178.7950  142.6630 C   0  0  0  0  0  0  0  0  0  0  0  0
  183.2310  178.9820  145.8370 O   0  0  0  0  0  0  0  0  0  0  0  0
  183.5600  178.8850  144.6230 C   0  0  0  0  0  0  0  0  0  0  0  0
  183.4070  178.7750  142.3720 C   0  0  0  0  0  0  0  0  0  0  0  0
  182.6230  178.7900  143.5650 N   0  0  0  0  0  0  0  0  0  0  0  0
  185.7980  178.8130  141.6240 C   0  0  2  0  0  3  0  0  0  0  0  0
  184.9650  178.8820  144.1370 C   0  0  1  0  0  3  0  0  0  0  0  0
  186.5960  177.7260  145.5390 C   0  0  0  0  0  0  0  0  0  0  0  0
  185.6640  177.6560  144.6270 C   0  0  0  0  0  3  0  0  0  0  0  0
  187.5440  177.8000  146.4340 C   0  0  0  0  0  3  0  0  0  0  0  0
  191.0960  176.6020  146.8420 C   0  0  0  0  0  3  0  0  0  0  0  0
  188.9260  177.4310  146.1500 C   0  0  0  0  0  0  0  0  0  0  0  0
  191.6020  176.8350  145.5570 C   0  0  0  0  0  3  0  0  0  0  0  0
  189.4370  177.6450  144.8660 C   0  0  0  0  0  3  0  0  0  0  0  0
  189.7620  176.8970  147.1370 C   0  0  0  0  0  3  0  0  0  0  0  0
  190.7760  177.3490  144.5590 C   0  0  0  0  0  0  0  0  0  0  0  0
  191.3290  177.6250  143.2650 N   0  0  0  0  0  2  0  0  0  0  0  0
  190.9300  177.0110  142.0360 C   0  0  0  0  0  0  0  0  0  0  0  0
  191.2820  177.6470  140.7990 N   0  0  0  0  0  2  0  0  0  0  0  0
  190.2760  175.9360  142.0440 O   0  0  0  0  0  0  0  0  0  0  0  0
  191.2020  177.0810  139.4870 C   0  0  0  0  0  0  0  0  0  0  0  0
  189.7990  175.6690  137.8310 C   0  0  0  0  0  2  0  0  0  0  0  0
  192.3260  176.6490  138.9180 C   0  0  0  0  0  3  0  0  0  0  0  0
  191.1500  174.9760  137.5730 C   0  0  0  0  0  2  0  0  0  0  0  0
  192.2950  175.9850  137.5800 C   0  0  2  0  0  3  0  0  0  0  0  0
  193.6190  175.2800  137.3300 C   0  0  0  0  0  1  0  0  0  0  0  0
  189.8720  176.9010  138.7740 C   0  0  2  0  0  3  0  0  0  0  0  0
  189.4760  177.9940  136.6580 O   0  0  0  0  0  1  0  0  0  0  0  0
  189.4640  178.1770  138.0370 C   0  0  1  0  0  3  0  0  0  0  0  0
  188.1840  178.5770  138.4310 O   0  0  0  0  0  0  0  0  0  0  0  0
  187.3720  178.2780  137.3460 C   0  0  0  0  0  1  0  0  0  0  0  0
  181.5010  179.0180  140.6610 C   0  0  2  0  0  3  0  0  0  0  0  0
  181.2030  180.0150  141.5820 O   0  0  0  0  0  1  0  0  0  0  0  0
  180.4050  177.9620  140.7630 C   0  0  0  0  0  2  0  0  0  0  0  0
  180.8370  176.6730  140.0840 C   0  0  0  0  0  2  0  0  0  0  0  0
  178.9310  175.7830  139.0170 O   0  0  0  0  0  0  0  0  0  0  0  0
  179.9810  176.3940  138.8820 C   0  0  0  0  0  0  0  0  0  0  0  0
  181.9060  177.1320  137.4820 C   0  0  2  0  0  3  0  0  0  0  0  0
  179.4870  178.3410  137.0250 S   0  0  0  0  0  0  0  0  0  0  0  0
  180.4090  176.8430  137.5100 C   0  0  2  0  0  3  0  0  0  0  0  0
  180.9950  179.3440  137.1660 C   0  0  1  0  0  3  0  0  0  0  0  0
  182.1470  178.4500  136.7690 C   0  0  0  0  0  2  0  0  0  0  0  0
  183.4320  176.4450  135.6380 C   0  0  0  0  0  1  0  0  0  0  0  0
  182.7050  175.9750  136.8830 C   0  0  2  0  0  3  0  0  0  0  0  0
  181.8440  174.8510  136.5520 N   0  0  0  0  0  2  0  0  0  0  0  0
  182.2350  173.4950  136.7620 C   0  0  0  0  0  0  0  0  0  0  0  0
  183.3750  173.2160  137.2230 O   0  0  0  0  0  0  0  0  0  0  0  0
  181.2880  172.4050  136.4240 C   0  0  0  0  0  1  0  0  0  0  0  0
  180.9160  180.4530  136.3160 O   0  0  0  0  0  0  0  0  0  0  0  0
  180.4670  182.7910  136.3180 C   0  0  0  0  0  1  0  0  0  0  0  0
  181.5910  181.6960  138.2340 C   0  0  0  0  0  1  0  0  0  0  0  0
  180.5550  181.5150  137.1420 C   0  0  0  0  0  3  0  0  0  0  0  0
  180.4850  178.1390  144.2150 O   0  0  0  0  0  1  0  0  0  0  0  0
  181.2320  179.1920  143.7000 C   0  0  0  0  0  2  0  0  0  0  0  0
  2 36  1  6  0  0  0
  2  8  1  0  0  0  0
  3 10  1  0  0  0  0
  4  3  1  0  0  0  0
  4  2  1  0  0  0  0
  5 11  1  0  0  0  0
  7  6  2  0  0  0  0
  8  5  2  0  0  0  0
  8  9  1  0  0  0  0
  9 58  1  0  0  0  0
  9  7  1  0  0  0  0
 10  1  1  6  0  0  0
 10  5  1  0  0  0  0
 11  7  1  0  0  0  0
 11 13  1  1  0  0  0
 12 14  2  0  0  0  0
 13 12  2  0  0  0  0
 15 19  1  0  0  0  0
 16 14  1  0  0  0  0
 16 19  2  0  0  0  0
 17 15  2  0  0  0  0
 18 16  1  0  0  0  0
 20 18  2  0  0  0  0
 20 17  1  0  0  0  0
 21 20  1  0  0  0  0
 22 24  2  0  0  0  0
 22 21  1  0  0  0  0
 23 22  1  0  0  0  0
 25 23  1  0  0  0  0
 26 31  1  0  0  0  0
 27 25  2  0  0  0  0
 28 29  1  0  0  0  0
 28 26  1  0  0  0  0
 29 30  1  1  0  0  0
 29 27  1  0  0  0  0
 31 33  1  6  0  0  0
 31 25  1  0  0  0  0
 33 32  1  6  0  0  0
 33 34  1  0  0  0  0
 35 34  1  0  0  0  0
 36 38  1  0  0  0  0
 36 37  1  1  0  0  0
 39 38  1  0  0  0  0
 41 40  2  0  0  0  0
 41 39  1  0  0  0  0
 42 48  1  6  0  0  0
 42 44  1  0  0  0  0
 43 45  1  0  0  0  0
 43 44  1  0  0  0  0
 44 41  1  1  0  0  0
 45 53  1  6  0  0  0
 46 45  1  0  0  0  0
 46 42  1  0  0  0  0
 48 47  1  6  0  0  0
 49 50  1  0  0  0  0
 49 48  1  0  0  0  0
 50 51  2  0  0  0  0
 52 50  1  0  0  0  0
 53 56  1  0  0  0  0
 54 56  1  0  0  0  0
 56 55  1  0  0  0  0
 58 57  1  0  0  0  0
M  END
>  <MODEL>
1

>  <REMARK>
 VINA RESULT:      -9.1      0.000      0.000
  Name = 
  16 active torsions:
  status: ('A' for Active; 'I' for Inactive)
    1  A    between atoms: C_1  and  N_32
    2  A    between atoms: C_4  and  C_22
    3  A    between atoms: C_4  and  C_28
    4  A    between atoms: N_7  and  C_54
    5  A    between atoms: C_8  and  C_11
    6  A    between atoms: C_8  and  C_22
    7  A    between atoms: C_10  and  C_50
    8  A    between atoms: C_14  and  N_44
    9  A    between atoms: O_17  and  C_34
   10  A    between atoms: C_20  and  C_55
   11  A    between atoms: N_27  and  C_55
   12  A    between atoms: C_28  and  C_38
   13  A    between atoms: C_29  and  C_56
   14  A    between atoms: C_34  and  C_58
   15  A    between atoms: O_39  and  C_48
   16  A    between atoms: O_39  and  C_49
                            x       y       z     vdW  Elec       q    Type
                         _______ _______ _______ _____ _____    ______ ____

>  <TORSDO>
F 16

$$$$
=
 OpenBabel11032421223D

 58 62  0  0  1  0  0  0  0  0999 V2000
  186.3150  180.0900  141.5100 O   0  0  0  0  0  1  0  0  0  0  0  0
  183.0470  178.3010  140.8680 C   0  0  1  0  0  3  0  0  0  0  0  0
  185.4890  178.1860  140.3240 C   0  0  0  0  0  2  0  0  0  0  0  0
  184.1350  178.7210  139.8740 C   0  0  0  0  0  2  0  0  0  0  0  0
  184.7420  178.7380  142.6520 C   0  0  0  0  0  0  0  0  0  0  0  0
  183.0810  178.9370  145.7340 O   0  0  0  0  0  0  0  0  0  0  0  0
  183.4810  178.8250  144.5430 C   0  0  0  0  0  0  0  0  0  0  0  0
  183.4570  178.6560  142.2900 C   0  0  0  0  0  0  0  0  0  0  0  0
  182.6080  178.6650  143.4380 N   0  0  0  0  0  0  0  0  0  0  0  0
  185.8830  178.7790  141.6730 C   0  0  2  0  0  3  0  0  0  0  0  0
  184.9090  178.8710  144.1340 C   0  0  1  0  0  3  0  0  0  0  0  0
  186.6220  177.8320  145.5290 C   0  0  0  0  0  0  0  0  0  0  0  0
  185.6290  177.6870  144.6930 C   0  0  0  0  0  3  0  0  0  0  0  0
  187.6300  177.9770  146.3470 C   0  0  0  0  0  3  0  0  0  0  0  0
  191.1440  176.6340  146.6060 C   0  0  0  0  0  3  0  0  0  0  0  0
  188.9870  177.5620  146.0070 C   0  0  0  0  0  0  0  0  0  0  0  0
  191.6160  176.8770  145.3090 C   0  0  0  0  0  3  0  0  0  0  0  0
  189.4620  177.7860  144.7110 C   0  0  0  0  0  3  0  0  0  0  0  0
  189.8330  176.9730  146.9530 C   0  0  0  0  0  3  0  0  0  0  0  0
  190.7780  177.4460  144.3520 C   0  0  0  0  0  0  0  0  0  0  0  0
  191.2980  177.7310  143.0470 N   0  0  0  0  0  2  0  0  0  0  0  0
  190.9950  177.0070  141.8490 C   0  0  0  0  0  0  0  0  0  0  0  0
  191.2670  177.6230  140.5830 N   0  0  0  0  0  2  0  0  0  0  0  0
  190.4950  175.8540  141.9120 O   0  0  0  0  0  0  0  0  0  0  0  0
  191.2760  176.9860  139.3010 C   0  0  0  0  0  0  0  0  0  0  0  0
  189.9450  175.5700  137.5890 C   0  0  0  0  0  2  0  0  0  0  0  0
  192.4170  176.4530  138.8700 C   0  0  0  0  0  3  0  0  0  0  0  0
  191.2650  174.7800  137.5040 C   0  0  0  0  0  2  0  0  0  0  0  0
  192.4700  175.7150  137.5720 C   0  0  2  0  0  3  0  0  0  0  0  0
  193.7610  174.9150  137.4930 C   0  0  0  0  0  1  0  0  0  0  0  0
  190.0110  176.8480  138.4680 C   0  0  2  0  0  3  0  0  0  0  0  0
  189.3290  177.7780  136.3470 O   0  0  0  0  0  1  0  0  0  0  0  0
  189.7630  178.1020  137.6290 C   0  0  1  0  0  3  0  0  0  0  0  0
  188.8030  178.9140  138.2410 O   0  0  0  0  0  0  0  0  0  0  0  0
  188.2220  178.1050  139.2060 C   0  0  0  0  0  1  0  0  0  0  0  0
  181.6410  178.7770  140.4720 C   0  0  2  0  0  3  0  0  0  0  0  0
  180.7450  177.7380  140.6920 O   0  0  0  0  0  1  0  0  0  0  0  0
  181.5260  179.1740  139.0040 C   0  0  0  0  0  2  0  0  0  0  0  0
  181.4730  177.9420  138.1170 C   0  0  0  0  0  2  0  0  0  0  0  0
  181.0720  179.4800  136.3740 O   0  0  0  0  0  0  0  0  0  0  0  0
  181.3720  178.3330  136.6710 C   0  0  0  0  0  0  0  0  0  0  0  0
  181.5340  175.9050  136.1320 C   0  0  2  0  0  3  0  0  0  0  0  0
  183.2620  177.5940  134.8360 S   0  0  0  0  0  0  0  0  0  0  0  0
  181.6190  177.3240  135.5800 C   0  0  2  0  0  3  0  0  0  0  0  0
  183.8770  176.0530  135.5750 C   0  0  1  0  0  3  0  0  0  0  0  0
  182.7080  175.0960  135.6120 C   0  0  0  0  0  2  0  0  0  0  0  0
  179.4380  176.0630  134.7970 C   0  0  0  0  0  1  0  0  0  0  0  0
  180.1840  175.2520  135.8390 C   0  0  2  0  0  3  0  0  0  0  0  0
  179.3760  175.1400  137.0430 N   0  0  0  0  0  2  0  0  0  0  0  0
  179.8030  174.4100  138.1910 C   0  0  0  0  0  0  0  0  0  0  0  0
  180.9070  173.7980  138.1930 O   0  0  0  0  0  0  0  0  0  0  0  0
  178.9320  174.3650  139.3900 C   0  0  0  0  0  1  0  0  0  0  0  0
  184.9180  175.5290  134.7990 O   0  0  0  0  0  0  0  0  0  0  0  0
  187.2530  175.0770  134.8920 C   0  0  0  0  0  1  0  0  0  0  0  0
  185.9210  175.3880  136.9560 C   0  0  0  0  0  1  0  0  0  0  0  0
  186.0790  175.8200  135.5110 C   0  0  0  0  0  3  0  0  0  0  0  0
  181.0360  180.3700  143.2470 O   0  0  0  0  0  1  0  0  0  0  0  0
  181.1970  179.0110  143.4870 C   0  0  0  0  0  2  0  0  0  0  0  0
  2 36  1  6  0  0  0
  2  8  1  0  0  0  0
  3 10  1  0  0  0  0
  4  3  1  0  0  0  0
  4  2  1  0  0  0  0
  5 11  1  0  0  0  0
  7  6  2  0  0  0  0
  8  5  2  0  0  0  0
  8  9  1  0  0  0  0
  9 58  1  0  0  0  0
  9  7  1  0  0  0  0
 10  1  1  6  0  0  0
 10  5  1  0  0  0  0
 11  7  1  0  0  0  0
 11 13  1  1  0  0  0
 12 14  2  0  0  0  0
 13 12  2  0  0  0  0
 15 19  1  0  0  0  0
 16 14  1  0  0  0  0
 16 19  2  0  0  0  0
 17 15  2  0  0  0  0
 18 16  1  0  0  0  0
 20 18  2  0  0  0  0
 20 17  1  0  0  0  0
 21 20  1  0  0  0  0
 22 24  2  0  0  0  0
 22 21  1  0  0  0  0
 23 22  1  0  0  0  0
 25 23  1  0  0  0  0
 26 31  1  0  0  0  0
 27 25  2  0  0  0  0
 28 29  1  0  0  0  0
 28 26  1  0  0  0  0
 29 30  1  1  0  0  0
 29 27  1  0  0  0  0
 31 33  1  6  0  0  0
 31 25  1  0  0  0  0
 33 32  1  6  0  0  0
 33 34  1  0  0  0  0
 34 35  1  0  0  0  0
 36 37  1  6  0  0  0
 38 36  1  0  0  0  0
 39 38  1  0  0  0  0
 40 41  2  0  0  0  0
 41 39  1  0  0  0  0
 42 48  1  6  0  0  0
 43 45  1  0  0  0  0
 43 44  1  0  0  0  0
 44 42  1  0  0  0  0
 44 41  1  1  0  0  0
 45 53  1  6  0  0  0
 45 46  1  0  0  0  0
 46 42  1  0  0  0  0
 48 47  1  6  0  0  0
 48 49  1  0  0  0  0
 49 50  1  0  0  0  0
 50 51  2  0  0  0  0
 50 52  1  0  0  0  0
 53 56  1  0  0  0  0
 54 56  1  0  0  0  0
 56 55  1  0  0  0  0
 57 58  1  0  0  0  0
M  END
>  <MODEL>
2

>  <REMARK>
 VINA RESULT:      -8.5      1.503      2.851
  Name = 
  16 active torsions:
  status: ('A' for Active; 'I' for Inactive)
    1  A    between atoms: C_1  and  N_32
    2  A    between atoms: C_4  and  C_22
    3  A    between atoms: C_4  and  C_28
    4  A    between atoms: N_7  and  C_54
    5  A    between atoms: C_8  and  C_11
    6  A    between atoms: C_8  and  C_22
    7  A    between atoms: C_10  and  C_50
    8  A    between atoms: C_14  and  N_44
    9  A    between atoms: O_17  and  C_34
   10  A    between atoms: C_20  and  C_55
   11  A    between atoms: N_27  and  C_55
   12  A    between atoms: C_28  and  C_38
   13  A    between atoms: C_29  and  C_56
   14  A    between atoms: C_34  and  C_58
   15  A    between atoms: O_39  and  C_48
   16  A    between atoms: O_39  and  C_49
                            x       y       z     vdW  Elec       q    Type
                         _______ _______ _______ _____ _____    ______ ____

>  <TORSDO>
F 16

$$$$
=
 OpenBabel11032421223D

 58 62  0  0  1  0  0  0  0  0999 V2000
  188.8510  179.5170  137.6420 O   0  0  0  0  0  1  0  0  0  0  0  0
  185.8510  178.0670  139.4280 C   0  0  1  0  0  3  0  0  0  0  0  0
  187.2280  177.7850  137.3560 C   0  0  0  0  0  2  0  0  0  0  0  0
  186.0050  178.4660  137.9570 C   0  0  0  0  0  2  0  0  0  0  0  0
  188.3420  178.2220  139.5580 C   0  0  0  0  0  0  0  0  0  0  0  0
  189.2720  178.3270  142.9380 O   0  0  0  0  0  0  0  0  0  0  0  0
  188.7340  178.2730  141.7980 C   0  0  0  0  0  0  0  0  0  0  0  0
  187.1600  178.2770  140.1790 C   0  0  0  0  0  0  0  0  0  0  0  0
  187.3320  178.2710  141.5960 N   0  0  0  0  0  0  0  0  0  0  0  0
  188.5020  178.2390  138.0630 C   0  0  2  0  0  3  0  0  0  0  0  0
  189.4910  178.2270  140.5190 C   0  0  1  0  0  3  0  0  0  0  0  0
  191.3170  176.8420  139.6790 C   0  0  0  0  0  0  0  0  0  0  0  0
  190.2580  176.9470  140.4350 C   0  0  0  0  0  3  0  0  0  0  0  0
  192.3640  176.7300  138.9060 C   0  0  0  0  0  3  0  0  0  0  0  0
  193.6120  174.4750  136.1530 C   0  0  0  0  0  3  0  0  0  0  0  0
  192.4030  175.8310  137.7580 C   0  0  0  0  0  0  0  0  0  0  0  0
  192.4150  174.1850  135.4860 C   0  0  0  0  0  3  0  0  0  0  0  0
  191.2110  175.5230  137.0950 C   0  0  0  0  0  3  0  0  0  0  0  0
  193.6060  175.2940  137.2870 C   0  0  0  0  0  3  0  0  0  0  0  0
  191.2070  174.6990  135.9560 C   0  0  0  0  0  0  0  0  0  0  0  0
  190.0010  174.4290  135.2280 N   0  0  0  0  0  2  0  0  0  0  0  0
  188.7520  174.0270  135.7990 C   0  0  0  0  0  0  0  0  0  0  0  0
  187.5580  174.1700  135.0170 N   0  0  0  0  0  2  0  0  0  0  0  0
  188.7050  173.5640  136.9680 O   0  0  0  0  0  0  0  0  0  0  0  0
  186.2730  173.6060  135.2990 C   0  0  0  0  0  0  0  0  0  0  0  0
  184.2510  173.5490  136.9160 C   0  0  0  0  0  2  0  0  0  0  0  0
  186.0580  172.3330  134.9700 C   0  0  0  0  0  3  0  0  0  0  0  0
  184.3970  172.0260  136.7420 C   0  0  0  0  0  2  0  0  0  0  0  0
  184.7610  171.6710  135.3030 C   0  0  2  0  0  3  0  0  0  0  0  0
  184.9050  170.1640  135.1530 C   0  0  0  0  0  1  0  0  0  0  0  0
  185.1920  174.3970  136.0180 C   0  0  2  0  0  3  0  0  0  0  0  0
  183.0210  175.0310  135.1750 O   0  0  0  0  0  1  0  0  0  0  0  0
  184.3880  175.2500  135.0370 C   0  0  1  0  0  3  0  0  0  0  0  0
  184.6520  176.6080  135.2440 O   0  0  0  0  0  0  0  0  0  0  0  0
  183.4150  177.2270  135.1450 C   0  0  0  0  0  1  0  0  0  0  0  0
  184.6210  178.6890  140.1060 C   0  0  2  0  0  3  0  0  0  0  0  0
  183.7610  177.6660  140.4870 O   0  0  0  0  0  1  0  0  0  0  0  0
  183.8360  179.6270  139.1940 C   0  0  0  0  0  2  0  0  0  0  0  0
  182.5620  178.9580  138.7040 C   0  0  0  0  0  2  0  0  0  0  0  0
  181.3130  179.6890  140.5660 O   0  0  0  0  0  0  0  0  0  0  0  0
  181.3560  179.5760  139.3500 C   0  0  0  0  0  0  0  0  0  0  0  0
  180.5220  179.9570  137.0330 C   0  0  2  0  0  3  0  0  0  0  0  0
  179.7620  181.7630  138.9510 S   0  0  0  0  0  0  0  0  0  0  0  0
  180.1910  180.0440  138.5190 C   0  0  2  0  0  3  0  0  0  0  0  0
  180.3700  182.3450  137.3410 C   0  0  1  0  0  3  0  0  0  0  0  0
  180.0890  181.2410  136.3490 C   0  0  0  0  0  2  0  0  0  0  0  0
  178.9800  179.1070  135.2710 C   0  0  0  0  0  1  0  0  0  0  0  0
  179.9310  178.7060  136.3830 C   0  0  2  0  0  3  0  0  0  0  0  0
  179.2300  177.8840  137.3550 N   0  0  0  0  0  2  0  0  0  0  0  0
  179.6910  176.5910  137.7440 C   0  0  0  0  0  0  0  0  0  0  0  0
  180.7280  176.0930  137.2270 O   0  0  0  0  0  0  0  0  0  0  0  0
  178.9330  175.8260  138.7640 C   0  0  0  0  0  1  0  0  0  0  0  0
  179.7050  183.5200  136.9720 O   0  0  0  0  0  0  0  0  0  0  0  0
  180.8650  185.1160  135.6400 C   0  0  0  0  0  1  0  0  0  0  0  0
  181.9930  183.9290  137.4990 C   0  0  0  0  0  1  0  0  0  0  0  0
  180.6770  184.5160  137.0260 C   0  0  0  0  0  3  0  0  0  0  0  0
  185.7600  177.6410  143.1920 O   0  0  0  0  0  1  0  0  0  0  0  0
  186.3870  178.7310  142.6000 C   0  0  0  0  0  2  0  0  0  0  0  0
  2 36  1  1  0  0  0
  2  8  1  0  0  0  0
  3  4  1  0  0  0  0
  3 10  1  0  0  0  0
  4  2  1  0  0  0  0
  5  8  2  0  0  0  0
  5 11  1  0  0  0  0
  7  6  2  0  0  0  0
  8  9  1  0  0  0  0
  9  7  1  0  0  0  0
  9 58  1  0  0  0  0
 10  1  1  6  0  0  0
 10  5  1  0  0  0  0
 11 13  1  1  0  0  0
 11  7  1  0  0  0  0
 12 13  2  0  0  0  0
 14 12  2  0  0  0  0
 15 19  1  0  0  0  0
 16 14  1  0  0  0  0
 17 20  1  0  0  0  0
 17 15  2  0  0  0  0
 18 16  1  0  0  0  0
 19 16  2  0  0  0  0
 20 18  2  0  0  0  0
 21 22  1  0  0  0  0
 21 20  1  0  0  0  0
 22 24  2  0  0  0  0
 23 25  1  0  0  0  0
 23 22  1  0  0  0  0
 25 31  1  0  0  0  0
 27 25  2  0  0  0  0
 27 29  1  0  0  0  0
 28 26  1  0  0  0  0
 29 30  1  1  0  0  0
 29 28  1  0  0  0  0
 31 33  1  6  0  0  0
 31 26  1  0  0  0  0
 33 32  1  1  0  0  0
 33 34  1  0  0  0  0
 35 34  1  0  0  0  0
 36 37  1  6  0  0  0
 38 36  1  0  0  0  0
 39 38  1  0  0  0  0
 39 41  1  0  0  0  0
 41 40  2  0  0  0  0
 42 48  1  6  0  0  0
 42 44  1  0  0  0  0
 44 43  1  0  0  0  0
 44 41  1  1  0  0  0
 45 53  1  6  0  0  0
 45 43  1  0  0  0  0
 46 42  1  0  0  0  0
 46 45  1  0  0  0  0
 48 47  1  6  0  0  0
 48 49  1  0  0  0  0
 49 50  1  0  0  0  0
 50 52  1  0  0  0  0
 51 50  2  0  0  0  0
 53 56  1  0  0  0  0
 54 56  1  0  0  0  0
 56 55  1  0  0  0  0
 58 57  1  0  0  0  0
M  END
>  <MODEL>
3

>  <REMARK>
 VINA RESULT:      -7.1      2.791      6.122
  Name = 
  16 active torsions:
  status: ('A' for Active; 'I' for Inactive)
    1  A    between atoms: C_1  and  N_32
    2  A    between atoms: C_4  and  C_22
    3  A    between atoms: C_4  and  C_28
    4  A    between atoms: N_7  and  C_54
    5  A    between atoms: C_8  and  C_11
    6  A    between atoms: C_8  and  C_22
    7  A    between atoms: C_10  and  C_50
    8  A    between atoms: C_14  and  N_44
    9  A    between atoms: O_17  and  C_34
   10  A    between atoms: C_20  and  C_55
   11  A    between atoms: N_27  and  C_55
   12  A    between atoms: C_28  and  C_38
   13  A    between atoms: C_29  and  C_56
   14  A    between atoms: C_34  and  C_58
   15  A    between atoms: O_39  and  C_48
   16  A    between atoms: O_39  and  C_49
                            x       y       z     vdW  Elec       q    Type
                         _______ _______ _______ _____ _____    ______ ____

>  <TORSDO>
F 16

$$$$
=
 OpenBabel11032421223D

 58 62  0  0  1  0  0  0  0  0999 V2000
  187.7870  179.4850  136.7030 O   0  0  0  0  0  1  0  0  0  0  0  0
  189.5820  177.1100  139.0340 C   0  0  1  0  0  3  0  0  0  0  0  0
  187.2960  177.9810  138.4950 C   0  0  0  0  0  2  0  0  0  0  0  0
  188.5370  178.1830  139.3570 C   0  0  0  0  0  2  0  0  0  0  0  0
  188.8850  177.3870  136.6500 C   0  0  0  0  0  0  0  0  0  0  0  0
  191.3260  175.9200  134.6030 O   0  0  0  0  0  0  0  0  0  0  0  0
  190.5720  176.3800  135.5050 C   0  0  0  0  0  0  0  0  0  0  0  0
  189.8260  177.0380  137.5330 C   0  0  0  0  0  0  0  0  0  0  0  0
  190.9020  176.3620  136.8830 N   0  0  0  0  0  0  0  0  0  0  0  0
  187.6350  178.1390  137.0160 C   0  0  2  0  0  3  0  0  0  0  0  0
  189.2560  177.0210  135.2460 C   0  0  1  0  0  3  0  0  0  0  0  0
  187.0140  176.1510  134.8290 C   0  0  0  0  0  0  0  0  0  0  0  0
  188.3050  176.0100  134.6930 C   0  0  0  0  0  3  0  0  0  0  0  0
  185.7230  176.2810  134.9840 C   0  0  0  0  0  3  0  0  0  0  0  0
  184.3100  173.0850  136.4010 C   0  0  0  0  0  3  0  0  0  0  0  0
  184.9260  175.3410  135.7640 C   0  0  0  0  0  0  0  0  0  0  0  0
  183.2910  173.5870  137.2200 C   0  0  0  0  0  3  0  0  0  0  0  0
  183.9150  175.8330  136.5970 C   0  0  0  0  0  3  0  0  0  0  0  0
  185.1270  173.9590  135.6770 C   0  0  0  0  0  3  0  0  0  0  0  0
  183.0910  174.9620  137.3300 C   0  0  0  0  0  0  0  0  0  0  0  0
  182.0100  175.4500  138.1350 N   0  0  0  0  0  2  0  0  0  0  0  0
  182.1060  176.4680  139.1360 C   0  0  0  0  0  0  0  0  0  0  0  0
  180.9060  177.1190  139.5770 N   0  0  0  0  0  2  0  0  0  0  0  0
  183.2250  176.7870  139.6150 O   0  0  0  0  0  0  0  0  0  0  0  0
  180.7560  177.9630  140.7230 C   0  0  0  0  0  0  0  0  0  0  0  0
  181.7440  179.9190  142.1030 C   0  0  0  0  0  2  0  0  0  0  0  0
  180.2280  177.4380  141.8270 C   0  0  0  0  0  3  0  0  0  0  0  0
  181.4310  178.9890  143.2900 C   0  0  0  0  0  2  0  0  0  0  0  0
  180.1130  178.2500  143.0760 C   0  0  2  0  0  3  0  0  0  0  0  0
  179.8250  177.3340  144.2560 C   0  0  0  0  0  1  0  0  0  0  0  0
  181.2460  179.4020  140.7260 C   0  0  2  0  0  3  0  0  0  0  0  0
  179.5560  181.0780  141.1310 O   0  0  0  0  0  1  0  0  0  0  0  0
  180.1950  180.3440  140.1370 C   0  0  1  0  0  3  0  0  0  0  0  0
  180.7890  181.2270  139.2300 O   0  0  0  0  0  0  0  0  0  0  0  0
  181.6630  180.4410  138.4940 C   0  0  0  0  0  1  0  0  0  0  0  0
  190.8570  177.2240  139.8830 C   0  0  2  0  0  3  0  0  0  0  0  0
  191.2140  175.9530  140.3160 O   0  0  0  0  0  1  0  0  0  0  0  0
  190.6860  178.0960  141.1220 C   0  0  0  0  0  2  0  0  0  0  0  0
  191.6360  177.6560  142.2240 C   0  0  0  0  0  2  0  0  0  0  0  0
  191.3800  179.2090  143.9810 O   0  0  0  0  0  0  0  0  0  0  0  0
  191.1250  178.0880  143.5680 C   0  0  0  0  0  0  0  0  0  0  0  0
  188.8520  177.5790  144.4560 C   0  0  2  0  0  3  0  0  0  0  0  0
  190.9820  177.1110  146.1200 S   0  0  0  0  0  0  0  0  0  0  0  0
  190.3150  177.1480  144.4220 C   0  0  2  0  0  3  0  0  0  0  0  0
  189.5140  177.9830  146.7410 C   0  0  1  0  0  3  0  0  0  0  0  0
  188.3510  177.5320  145.8880 C   0  0  0  0  0  2  0  0  0  0  0  0
  188.8280  175.6800  142.8440 C   0  0  0  0  0  1  0  0  0  0  0  0
  187.9890  176.7630  143.4950 C   0  0  2  0  0  3  0  0  0  0  0  0
  187.3950  177.6050  142.4690 N   0  0  0  0  0  2  0  0  0  0  0  0
  186.1300  178.2420  142.6340 C   0  0  0  0  0  0  0  0  0  0  0  0
  185.4520  178.0700  143.6840 O   0  0  0  0  0  0  0  0  0  0  0  0
  185.6050  179.1080  141.5500 C   0  0  0  0  0  1  0  0  0  0  0  0
  189.2950  177.6560  148.0850 O   0  0  0  0  0  0  0  0  0  0  0  0
  187.3360  178.7840  148.8320 C   0  0  0  0  0  1  0  0  0  0  0  0
  187.5780  176.3320  149.0750 C   0  0  0  0  0  1  0  0  0  0  0  0
  187.9120  177.5250  148.2020 C   0  0  0  0  0  3  0  0  0  0  0  0
  192.5030  174.8600  137.6560 O   0  0  0  0  0  1  0  0  0  0  0  0
  192.2620  176.1980  137.3690 C   0  0  0  0  0  2  0  0  0  0  0  0
  2  4  1  0  0  0  0
  2 36  1  1  0  0  0
  3  4  1  0  0  0  0
  5 10  1  0  0  0  0
  5  8  2  0  0  0  0
  6  7  2  0  0  0  0
  7  9  1  0  0  0  0
  8  2  1  0  0  0  0
  9 58  1  0  0  0  0
  9  8  1  0  0  0  0
 10  1  1  1  0  0  0
 10  3  1  0  0  0  0
 11 13  1  1  0  0  0
 11  7  1  0  0  0  0
 11  5  1  0  0  0  0
 12 14  2  0  0  0  0
 13 12  2  0  0  0  0
 14 16  1  0  0  0  0
 15 17  1  0  0  0  0
 16 18  2  0  0  0  0
 17 20  2  0  0  0  0
 18 20  1  0  0  0  0
 19 16  1  0  0  0  0
 19 15  2  0  0  0  0
 20 21  1  0  0  0  0
 21 22  1  0  0  0  0
 22 23  1  0  0  0  0
 22 24  2  0  0  0  0
 23 25  1  0  0  0  0
 25 31  1  0  0  0  0
 25 27  2  0  0  0  0
 26 28  1  0  0  0  0
 27 29  1  0  0  0  0
 29 28  1  0  0  0  0
 29 30  1  1  0  0  0
 31 33  1  1  0  0  0
 31 26  1  0  0  0  0
 33 32  1  1  0  0  0
 34 33  1  0  0  0  0
 35 34  1  0  0  0  0
 36 37  1  1  0  0  0
 36 38  1  0  0  0  0
 38 39  1  0  0  0  0
 39 41  1  0  0  0  0
 41 40  2  0  0  0  0
 42 48  1  6  0  0  0
 42 46  1  0  0  0  0
 43 45  1  0  0  0  0
 44 41  1  6  0  0  0
 44 42  1  0  0  0  0
 44 43  1  0  0  0  0
 45 53  1  1  0  0  0
 46 45  1  0  0  0  0
 48 47  1  6  0  0  0
 49 50  1  0  0  0  0
 49 48  1  0  0  0  0
 50 51  2  0  0  0  0
 52 50  1  0  0  0  0
 53 56  1  0  0  0  0
 56 54  1  0  0  0  0
 56 55  1  0  0  0  0
 58 57  1  0  0  0  0
M  END
>  <MODEL>
4

>  <REMARK>
 VINA RESULT:      -6.6      3.045     10.892
  Name = 
  16 active torsions:
  status: ('A' for Active; 'I' for Inactive)
    1  A    between atoms: C_1  and  N_32
    2  A    between atoms: C_4  and  C_22
    3  A    between atoms: C_4  and  C_28
    4  A    between atoms: N_7  and  C_54
    5  A    between atoms: C_8  and  C_11
    6  A    between atoms: C_8  and  C_22
    7  A    between atoms: C_10  and  C_50
    8  A    between atoms: C_14  and  N_44
    9  A    between atoms: O_17  and  C_34
   10  A    between atoms: C_20  and  C_55
   11  A    between atoms: N_27  and  C_55
   12  A    between atoms: C_28  and  C_38
   13  A    between atoms: C_29  and  C_56
   14  A    between atoms: C_34  and  C_58
   15  A    between atoms: O_39  and  C_48
   16  A    between atoms: O_39  and  C_49
                            x       y       z     vdW  Elec       q    Type
                         _______ _______ _______ _____ _____    ______ ____

>  <TORSDO>
F 16

$$$$
=
 OpenBabel11032421223D

 58 62  0  0  1  0  0  0  0  0999 V2000
  184.9060  179.9410  138.3380 O   0  0  0  0  0  1  0  0  0  0  0  0
  187.4750  177.8040  140.1050 C   0  0  1  0  0  3  0  0  0  0  0  0
  185.0010  178.1180  139.8810 C   0  0  0  0  0  2  0  0  0  0  0  0
  186.2410  178.5080  140.6760 C   0  0  0  0  0  2  0  0  0  0  0  0
  186.4730  178.2330  137.8560 C   0  0  0  0  0  0  0  0  0  0  0  0
  188.9590  177.7650  135.4270 O   0  0  0  0  0  0  0  0  0  0  0  0
  188.2190  177.8770  136.4430 C   0  0  0  0  0  0  0  0  0  0  0  0
  187.5630  178.0160  138.6000 C   0  0  0  0  0  0  0  0  0  0  0  0
  188.6940  177.7450  137.7720 N   0  0  0  0  0  0  0  0  0  0  0  0
  185.1250  178.5710  138.4300 C   0  0  2  0  0  3  0  0  0  0  0  0
  186.7660  178.1840  136.3880 C   0  0  1  0  0  3  0  0  0  0  0  0
  185.9880  175.8720  136.2990 C   0  0  0  0  0  0  0  0  0  0  0  0
  186.0370  177.0510  135.7410 C   0  0  0  0  0  3  0  0  0  0  0  0
  185.9570  174.6860  136.8460 C   0  0  0  0  0  3  0  0  0  0  0  0
  186.5050  171.2000  135.5170 C   0  0  0  0  0  3  0  0  0  0  0  0
  186.5710  173.5170  136.2270 C   0  0  0  0  0  0  0  0  0  0  0  0
  187.8450  171.2780  135.1150 C   0  0  0  0  0  3  0  0  0  0  0  0
  187.9030  173.5890  135.8090 C   0  0  0  0  0  3  0  0  0  0  0  0
  185.8690  172.3160  136.0690 C   0  0  0  0  0  3  0  0  0  0  0  0
  188.5500  172.4720  135.2500 C   0  0  0  0  0  0  0  0  0  0  0  0
  189.9340  172.5140  134.8790 N   0  0  0  0  0  2  0  0  0  0  0  0
  191.0120  172.9450  135.7160 C   0  0  0  0  0  0  0  0  0  0  0  0
  192.3520  172.5730  135.3620 N   0  0  0  0  0  2  0  0  0  0  0  0
  190.7840  173.6310  136.7460 O   0  0  0  0  0  0  0  0  0  0  0  0
  193.5640  173.1020  135.9100 C   0  0  0  0  0  0  0  0  0  0  0  0
  195.0100  173.4210  138.0340 C   0  0  0  0  0  2  0  0  0  0  0  0
  194.0420  174.2360  135.4020 C   0  0  0  0  0  3  0  0  0  0  0  0
  195.1370  174.8600  137.5010 C   0  0  0  0  0  2  0  0  0  0  0  0
  195.2650  174.8720  135.9790 C   0  0  2  0  0  3  0  0  0  0  0  0
  195.3830  176.3020  135.4730 C   0  0  0  0  0  1  0  0  0  0  0  0
  194.2640  172.4420  137.0870 C   0  0  2  0  0  3  0  0  0  0  0  0
  194.6650  170.6490  135.5220 O   0  0  0  0  0  1  0  0  0  0  0  0
  195.1930  171.3210  136.6190 C   0  0  1  0  0  3  0  0  0  0  0  0
  196.4440  171.8400  136.2740 O   0  0  0  0  0  0  0  0  0  0  0  0
  197.3530  171.0690  136.9830 C   0  0  0  0  0  1  0  0  0  0  0  0
  188.7690  178.1220  140.8700 C   0  0  2  0  0  3  0  0  0  0  0  0
  189.4270  176.9280  141.1400 O   0  0  0  0  0  1  0  0  0  0  0  0
  188.5300  178.8220  142.2040 C   0  0  0  0  0  2  0  0  0  0  0  0
  188.6370  177.8350  143.3540 C   0  0  0  0  0  2  0  0  0  0  0  0
  186.7920  176.4350  143.8020 O   0  0  0  0  0  0  0  0  0  0  0  0
  187.2820  177.5470  143.9340 C   0  0  0  0  0  0  0  0  0  0  0  0
  185.7840  178.0300  145.8660 C   0  0  2  0  0  3  0  0  0  0  0  0
  185.3040  179.3950  143.5370 S   0  0  0  0  0  0  0  0  0  0  0  0
  186.5120  178.6170  144.6610 C   0  0  2  0  0  3  0  0  0  0  0  0
  183.9290  178.6300  144.4450 C   0  0  1  0  0  3  0  0  0  0  0  0
  184.3580  178.5500  145.8910 C   0  0  0  0  0  2  0  0  0  0  0  0
  186.1820  179.6600  147.7070 C   0  0  0  0  0  1  0  0  0  0  0  0
  186.5350  178.2850  147.1730 C   0  0  2  0  0  3  0  0  0  0  0  0
  187.9740  178.1870  146.9860 N   0  0  0  0  0  2  0  0  0  0  0  0
  188.7620  177.1710  147.6020 C   0  0  0  0  0  0  0  0  0  0  0  0
  188.2340  176.3210  148.3710 O   0  0  0  0  0  0  0  0  0  0  0  0
  190.2210  177.1230  147.3400 C   0  0  0  0  0  1  0  0  0  0  0  0
  182.7750  179.4110  144.3160 O   0  0  0  0  0  0  0  0  0  0  0  0
  181.7390  179.1040  142.1940 C   0  0  0  0  0  1  0  0  0  0  0  0
  180.5140  178.6560  144.2990 C   0  0  0  0  0  1  0  0  0  0  0  0
  181.8710  178.6060  143.6260 C   0  0  0  0  0  3  0  0  0  0  0  0
  190.7010  176.6220  138.1200 O   0  0  0  0  0  1  0  0  0  0  0  0
  190.0970  177.8730  138.1280 C   0  0  0  0  0  2  0  0  0  0  0  0
  2  4  1  0  0  0  0
  2 36  1  1  0  0  0
  3  4  1  0  0  0  0
  5 10  1  0  0  0  0
  5  8  2  0  0  0  0
  6  7  2  0  0  0  0
  7  9  1  0  0  0  0
  8  2  1  0  0  0  0
  9 58  1  0  0  0  0
  9  8  1  0  0  0  0
 10  1  1  1  0  0  0
 10  3  1  0  0  0  0
 11 13  1  6  0  0  0
 11  7  1  0  0  0  0
 11  5  1  0  0  0  0
 12 14  2  0  0  0  0
 13 12  2  0  0  0  0
 15 19  1  0  0  0  0
 16 14  1  0  0  0  0
 17 20  1  0  0  0  0
 17 15  2  0  0  0  0
 18 16  1  0  0  0  0
 19 16  2  0  0  0  0
 20 18  2  0  0  0  0
 21 20  1  0  0  0  0
 21 22  1  0  0  0  0
 22 24  2  0  0  0  0
 23 22  1  0  0  0  0
 23 25  1  0  0  0  0
 25 31  1  0  0  0  0
 27 25  2  0  0  0  0
 27 29  1  0  0  0  0
 28 26  1  0  0  0  0
 29 30  1  6  0  0  0
 29 28  1  0  0  0  0
 31 33  1  6  0  0  0
 31 26  1  0  0  0  0
 33 32  1  6  0  0  0
 34 33  1  0  0  0  0
 34 35  1  0  0  0  0
 36 37  1  1  0  0  0
 36 38  1  0  0  0  0
 38 39  1  0  0  0  0
 39 41  1  0  0  0  0
 40 41  2  0  0  0  0
 42 46  1  0  0  0  0
 42 48  1  1  0  0  0
 43 45  1  0  0  0  0
 43 44  1  0  0  0  0
 44 41  1  6  0  0  0
 44 42  1  0  0  0  0
 45 53  1  1  0  0  0
 45 46  1  0  0  0  0
 48 47  1  6  0  0  0
 49 48  1  0  0  0  0
 49 50  1  0  0  0  0
 50 51  2  0  0  0  0
 52 50  1  0  0  0  0
 54 56  1  0  0  0  0
 56 55  1  0  0  0  0
 56 53  1  0  0  0  0
 57 58  1  0  0  0  0
M  END
>  <MODEL>
5

>  <REMARK>
 VINA RESULT:      -6.5      3.725      9.037
  Name = 
  16 active torsions:
  status: ('A' for Active; 'I' for Inactive)
    1  A    between atoms: C_1  and  N_32
    2  A    between atoms: C_4  and  C_22
    3  A    between atoms: C_4  and  C_28
    4  A    between atoms: N_7  and  C_54
    5  A    between atoms: C_8  and  C_11
    6  A    between atoms: C_8  and  C_22
    7  A    between atoms: C_10  and  C_50
    8  A    between atoms: C_14  and  N_44
    9  A    between atoms: O_17  and  C_34
   10  A    between atoms: C_20  and  C_55
   11  A    between atoms: N_27  and  C_55
   12  A    between atoms: C_28  and  C_38
   13  A    between atoms: C_29  and  C_56
   14  A    between atoms: C_34  and  C_58
   15  A    between atoms: O_39  and  C_48
   16  A    between atoms: O_39  and  C_49
                            x       y       z     vdW  Elec       q    Type
                         _______ _______ _______ _____ _____    ______ ____

>  <TORSDO>
F 16

$$$$
=
 OpenBabel11032421223D

 58 62  0  0  1  0  0  0  0  0999 V2000
  184.8580  179.5270  137.9900 O   0  0  0  0  0  1  0  0  0  0  0  0
  186.0690  176.2470  136.5510 C   0  0  1  0  0  3  0  0  0  0  0  0
  186.3320  177.7310  138.5520 C   0  0  0  0  0  2  0  0  0  0  0  0
  186.8770  177.3930  137.1690 C   0  0  0  0  0  2  0  0  0  0  0  0
  184.0610  177.3380  137.5650 C   0  0  0  0  0  0  0  0  0  0  0  0
  181.1920  175.9950  136.0620 O   0  0  0  0  0  0  0  0  0  0  0  0
  182.3330  176.3400  136.4740 C   0  0  0  0  0  0  0  0  0  0  0  0
  184.5780  176.5490  136.6170 C   0  0  0  0  0  0  0  0  0  0  0  0
  183.5440  175.8580  135.9170 N   0  0  0  0  0  0  0  0  0  0  0  0
  184.8900  178.2190  138.4590 C   0  0  2  0  0  3  0  0  0  0  0  0
  182.5640  177.3100  137.5770 C   0  0  1  0  0  3  0  0  0  0  0  0
  181.4670  177.4940  139.7500 C   0  0  0  0  0  0  0  0  0  0  0  0
  182.0560  176.7400  138.8610 C   0  0  0  0  0  3  0  0  0  0  0  0
  180.8970  178.2530  140.6480 C   0  0  0  0  0  3  0  0  0  0  0  0
  181.2560  178.9680  144.3320 C   0  0  0  0  0  3  0  0  0  0  0  0
  181.4730  178.4760  141.9690 C   0  0  0  0  0  0  0  0  0  0  0  0
  182.6500  178.9940  144.4620 C   0  0  0  0  0  3  0  0  0  0  0  0
  182.8640  178.4880  142.1130 C   0  0  0  0  0  3  0  0  0  0  0  0
  180.6690  178.7080  143.0910 C   0  0  0  0  0  3  0  0  0  0  0  0
  183.4630  178.7460  143.3580 C   0  0  0  0  0  0  0  0  0  0  0  0
  184.8870  178.8270  143.5040 N   0  0  0  0  0  2  0  0  0  0  0  0
  185.6410  178.3490  144.6230 C   0  0  0  0  0  0  0  0  0  0  0  0
  187.0520  178.1440  144.4670 N   0  0  0  0  0  2  0  0  0  0  0  0
  185.0720  178.1100  145.7190 O   0  0  0  0  0  0  0  0  0  0  0  0
  188.0090  177.9210  145.5080 C   0  0  0  0  0  0  0  0  0  0  0  0
  189.8540  176.3620  146.4410 C   0  0  0  0  0  2  0  0  0  0  0  0
  187.6970  178.3080  146.7440 C   0  0  0  0  0  3  0  0  0  0  0  0
  189.1130  176.5950  147.7710 C   0  0  0  0  0  2  0  0  0  0  0  0
  188.6260  178.0370  147.8820 C   0  0  2  0  0  3  0  0  0  0  0  0
  187.8920  178.2450  149.1980 C   0  0  0  0  0  1  0  0  0  0  0  0
  189.3210  177.1990  145.2470 C   0  0  2  0  0  3  0  0  0  0  0  0
  191.6710  177.6550  144.9300 O   0  0  0  0  0  1  0  0  0  0  0  0
  190.3910  178.1650  144.7370 C   0  0  1  0  0  3  0  0  0  0  0  0
  190.2050  178.4190  143.3740 O   0  0  0  0  0  0  0  0  0  0  0  0
  191.4860  178.4390  142.8420 C   0  0  0  0  0  1  0  0  0  0  0  0
  186.5730  175.8230  135.1630 C   0  0  2  0  0  3  0  0  0  0  0  0
  186.6140  174.4350  135.1130 O   0  0  0  0  0  1  0  0  0  0  0  0
  187.9750  176.3320  134.8450 C   0  0  0  0  0  2  0  0  0  0  0  0
  188.9760  175.1890  134.8570 C   0  0  0  0  0  2  0  0  0  0  0  0
  190.8820  176.5750  134.7550 O   0  0  0  0  0  0  0  0  0  0  0  0
  190.3160  175.6630  135.3400 C   0  0  0  0  0  0  0  0  0  0  0  0
  192.4130  175.5170  136.6800 C   0  0  2  0  0  3  0  0  0  0  0  0
  190.9840  173.2020  136.3320 S   0  0  0  0  0  0  0  0  0  0  0  0
  190.9810  175.0160  136.5270 C   0  0  2  0  0  3  0  0  0  0  0  0
  192.7840  173.2080  136.0870 C   0  0  1  0  0  3  0  0  0  0  0  0
  193.3310  174.3350  136.9320 C   0  0  0  0  0  2  0  0  0  0  0  0
  193.9790  176.7410  138.1810 C   0  0  0  0  0  1  0  0  0  0  0  0
  192.5320  176.6030  137.7490 C   0  0  2  0  0  3  0  0  0  0  0  0
  191.7010  176.3040  138.9040 N   0  0  0  0  0  2  0  0  0  0  0  0
  190.4680  176.9740  139.1600 C   0  0  0  0  0  0  0  0  0  0  0  0
  190.0600  177.8890  138.3940 O   0  0  0  0  0  0  0  0  0  0  0  0
  189.6660  176.5920  140.3460 C   0  0  0  0  0  1  0  0  0  0  0  0
  193.3280  171.9830  136.4900 O   0  0  0  0  0  0  0  0  0  0  0  0
  194.7510  171.7070  134.6010 C   0  0  0  0  0  1  0  0  0  0  0  0
  195.4740  171.0180  136.8670 C   0  0  0  0  0  1  0  0  0  0  0  0
  194.6600  172.0300  136.0850 C   0  0  0  0  0  3  0  0  0  0  0  0
  183.1760  173.9450  134.6450 O   0  0  0  0  0  1  0  0  0  0  0  0
  183.6230  175.2590  134.5940 C   0  0  0  0  0  2  0  0  0  0  0  0
  2 36  1  6  0  0  0
  2  8  1  0  0  0  0
  2  4  1  0  0  0  0
  4  3  1  0  0  0  0
  5 11  1  0  0  0  0
  5 10  1  0  0  0  0
  6  7  2  0  0  0  0
  7 11  1  0  0  0  0
  8  5  2  0  0  0  0
  9  7  1  0  0  0  0
  9  8  1  0  0  0  0
 10  1  1  6  0  0  0
 10  3  1  0  0  0  0
 11 13  1  1  0  0  0
 12 14  2  0  0  0  0
 13 12  2  0  0  0  0
 14 16  1  0  0  0  0
 15 17  1  0  0  0  0
 16 18  2  0  0  0  0
 16 19  1  0  0  0  0
 18 20  1  0  0  0  0
 19 15  2  0  0  0  0
 20 21  1  0  0  0  0
 20 17  2  0  0  0  0
 21 22  1  0  0  0  0
 22 24  2  0  0  0  0
 23 22  1  0  0  0  0
 23 25  1  0  0  0  0
 25 27  2  0  0  0  0
 26 28  1  0  0  0  0
 27 29  1  0  0  0  0
 28 29  1  0  0  0  0
 29 30  1  1  0  0  0
 31 33  1  1  0  0  0
 31 25  1  0  0  0  0
 31 26  1  0  0  0  0
 33 32  1  6  0  0  0
 34 33  1  0  0  0  0
 35 34  1  0  0  0  0
 36 37  1  1  0  0  0
 38 39  1  0  0  0  0
 38 36  1  0  0  0  0
 39 41  1  0  0  0  0
 40 41  2  0  0  0  0
 42 46  1  0  0  0  0
 42 48  1  1  0  0  0
 43 44  1  0  0  0  0
 44 41  1  6  0  0  0
 44 42  1  0  0  0  0
 45 43  1  0  0  0  0
 45 53  1  1  0  0  0
 45 46  1  0  0  0  0
 48 47  1  1  0  0  0
 48 49  1  0  0  0  0
 49 50  1  0  0  0  0
 50 52  1  0  0  0  0
 51 50  2  0  0  0  0
 54 56  1  0  0  0  0
 56 53  1  0  0  0  0
 56 55  1  0  0  0  0
 58 57  1  0  0  0  0
 58  9  1  0  0  0  0
M  END
>  <MODEL>
6

>  <REMARK>
 VINA RESULT:      -6.4      2.914      9.681
  Name = 
  16 active torsions:
  status: ('A' for Active; 'I' for Inactive)
    1  A    between atoms: C_1  and  N_32
    2  A    between atoms: C_4  and  C_22
    3  A    between atoms: C_4  and  C_28
    4  A    between atoms: N_7  and  C_54
    5  A    between atoms: C_8  and  C_11
    6  A    between atoms: C_8  and  C_22
    7  A    between atoms: C_10  and  C_50
    8  A    between atoms: C_14  and  N_44
    9  A    between atoms: O_17  and  C_34
   10  A    between atoms: C_20  and  C_55
   11  A    between atoms: N_27  and  C_55
   12  A    between atoms: C_28  and  C_38
   13  A    between atoms: C_29  and  C_56
   14  A    between atoms: C_34  and  C_58
   15  A    between atoms: O_39  and  C_48
   16  A    between atoms: O_39  and  C_49
                            x       y       z     vdW  Elec       q    Type
                         _______ _______ _______ _____ _____    ______ ____

>  <TORSDO>
F 16

$$$$
=
 OpenBabel11032421223D

 58 62  0  0  1  0  0  0  0  0999 V2000
  188.8650  179.5240  138.7250 O   0  0  0  0  0  1  0  0  0  0  0  0
  186.6240  178.0010  141.3620 C   0  0  1  0  0  3  0  0  0  0  0  0
  187.0480  177.9790  138.8940 C   0  0  0  0  0  2  0  0  0  0  0  0
  186.2500  178.6300  140.0160 C   0  0  0  0  0  2  0  0  0  0  0  0
  188.9700  177.9630  140.5030 C   0  0  0  0  0  0  0  0  0  0  0  0
  191.1350  177.4360  143.2110 O   0  0  0  0  0  0  0  0  0  0  0  0
  190.1970  177.6100  142.3850 C   0  0  0  0  0  0  0  0  0  0  0  0
  188.1350  177.9930  141.5460 C   0  0  0  0  0  0  0  0  0  0  0  0
  188.8370  177.7380  142.7630 N   0  0  0  0  0  0  0  0  0  0  0  0
  188.5430  178.2200  139.0840 C   0  0  2  0  0  3  0  0  0  0  0  0
  190.3910  177.7290  140.9160 C   0  0  1  0  0  3  0  0  0  0  0  0
  191.7670  176.4010  139.3990 C   0  0  0  0  0  0  0  0  0  0  0  0
  190.8940  176.4320  140.3690 C   0  0  0  0  0  3  0  0  0  0  0  0
  192.6230  176.3690  138.4130 C   0  0  0  0  0  3  0  0  0  0  0  0
  192.8330  175.3690  134.7830 C   0  0  0  0  0  3  0  0  0  0  0  0
  192.2980  175.8080  137.1060 C   0  0  0  0  0  0  0  0  0  0  0  0
  191.5700  174.7950  134.5940 C   0  0  0  0  0  3  0  0  0  0  0  0
  191.0450  175.2190  136.9100 C   0  0  0  0  0  3  0  0  0  0  0  0
  193.1980  175.8720  136.0360 C   0  0  0  0  0  3  0  0  0  0  0  0
  190.6720  174.7080  135.6550 C   0  0  0  0  0  0  0  0  0  0  0  0
  189.3660  174.1620  135.4250 N   0  0  0  0  0  2  0  0  0  0  0  0
  188.1340  174.7080  135.9070 C   0  0  0  0  0  0  0  0  0  0  0  0
  186.9070  174.2940  135.2900 N   0  0  0  0  0  2  0  0  0  0  0  0
  188.1320  175.5400  136.8510 O   0  0  0  0  0  0  0  0  0  0  0  0
  185.5800  174.5200  135.7780 C   0  0  0  0  0  0  0  0  0  0  0  0
  183.0590  174.0010  135.4870 C   0  0  0  0  0  2  0  0  0  0  0  0
  185.2860  175.7220  136.2700 C   0  0  0  0  0  3  0  0  0  0  0  0
  182.9190  175.5230  135.6770 C   0  0  0  0  0  2  0  0  0  0  0  0
  183.8990  176.0380  136.7280 C   0  0  2  0  0  3  0  0  0  0  0  0
  183.7480  177.5420  136.8950 C   0  0  0  0  0  1  0  0  0  0  0  0
  184.5000  173.4540  135.6800 C   0  0  2  0  0  3  0  0  0  0  0  0
  184.9380  173.1510  138.0350 O   0  0  0  0  0  1  0  0  0  0  0  0
  184.5640  172.4930  136.8680 C   0  0  1  0  0  3  0  0  0  0  0  0
  183.3210  171.8860  137.0680 O   0  0  0  0  0  0  0  0  0  0  0  0
  183.4240  170.6560  136.4350 C   0  0  0  0  0  1  0  0  0  0  0  0
  185.8400  178.5830  142.5480 C   0  0  2  0  0  3  0  0  0  0  0  0
  185.4190  177.5340  143.3570 O   0  0  0  0  0  1  0  0  0  0  0  0
  184.5970  179.3620  142.1310 C   0  0  0  0  0  2  0  0  0  0  0  0
  183.5400  178.4260  141.5690 C   0  0  0  0  0  2  0  0  0  0  0  0
  182.1500  179.0170  143.3800 O   0  0  0  0  0  0  0  0  0  0  0  0
  182.2060  178.6900  142.2040 C   0  0  0  0  0  0  0  0  0  0  0  0
  181.2300  178.0360  140.0060 C   0  0  2  0  0  3  0  0  0  0  0  0
  180.0610  180.1410  141.3200 S   0  0  0  0  0  0  0  0  0  0  0  0
  180.9320  178.5410  141.4140 C   0  0  2  0  0  3  0  0  0  0  0  0
  180.4380  180.2690  139.5470 C   0  0  1  0  0  3  0  0  0  0  0  0
  180.4420  178.8590  139.0030 C   0  0  0  0  0  2  0  0  0  0  0  0
  182.3120  175.7990  139.8430 C   0  0  0  0  0  1  0  0  0  0  0  0
  180.9860  176.5340  139.8680 C   0  0  2  0  0  3  0  0  0  0  0  0
  180.2320  176.2270  138.6630 N   0  0  0  0  0  2  0  0  0  0  0  0
  179.7140  174.9270  138.3900 C   0  0  0  0  0  0  0  0  0  0  0  0
  179.9190  173.9700  139.1860 O   0  0  0  0  0  0  0  0  0  0  0  0
  178.9320  174.7020  137.1500 C   0  0  0  0  0  1  0  0  0  0  0  0
  179.4650  181.0430  138.9040 O   0  0  0  0  0  0  0  0  0  0  0  0
  181.2660  182.3380  138.0390 C   0  0  0  0  0  1  0  0  0  0  0  0
  179.0740  182.2560  136.8900 C   0  0  0  0  0  1  0  0  0  0  0  0
  180.0650  181.4610  137.7180 C   0  0  0  0  0  3  0  0  0  0  0  0
  188.1460  176.9300  144.8320 O   0  0  0  0  0  1  0  0  0  0  0  0
  188.4190  178.0850  144.1110 C   0  0  0  0  0  2  0  0  0  0  0  0
  2  8  1  0  0  0  0
  2 36  1  1  0  0  0
  3 10  1  0  0  0  0
  3  4  1  0  0  0  0
  4  2  1  0  0  0  0
  5 11  1  0  0  0  0
  5  8  2  0  0  0  0
  7  9  1  0  0  0  0
  7  6  2  0  0  0  0
  8  9  1  0  0  0  0
  9 58  1  0  0  0  0
 10  1  1  1  0  0  0
 10  5  1  0  0  0  0
 11 13  1  6  0  0  0
 11  7  1  0  0  0  0
 12 13  2  0  0  0  0
 14 12  2  0  0  0  0
 15 19  1  0  0  0  0
 16 14  1  0  0  0  0
 17 15  2  0  0  0  0
 17 20  1  0  0  0  0
 18 16  1  0  0  0  0
 19 16  2  0  0  0  0
 20 18  2  0  0  0  0
 21 20  1  0  0  0  0
 21 22  1  0  0  0  0
 22 24  2  0  0  0  0
 23 25  1  0  0  0  0
 23 22  1  0  0  0  0
 25 27  2  0  0  0  0
 26 28  1  0  0  0  0
 26 31  1  0  0  0  0
 27 29  1  0  0  0  0
 28 29  1  0  0  0  0
 29 30  1  6  0  0  0
 31 25  1  0  0  0  0
 31 33  1  1  0  0  0
 33 34  1  0  0  0  0
 33 32  1  1  0  0  0
 35 34  1  0  0  0  0
 36 37  1  1  0  0  0
 38 36  1  0  0  0  0
 39 38  1  0  0  0  0
 39 41  1  0  0  0  0
 41 40  2  0  0  0  0
 42 48  1  1  0  0  0
 42 44  1  0  0  0  0
 43 44  1  0  0  0  0
 44 41  1  1  0  0  0
 45 53  1  6  0  0  0
 45 43  1  0  0  0  0
 46 45  1  0  0  0  0
 46 42  1  0  0  0  0
 48 47  1  6  0  0  0
 49 48  1  0  0  0  0
 50 49  1  0  0  0  0
 50 51  2  0  0  0  0
 52 50  1  0  0  0  0
 55 56  1  0  0  0  0
 56 54  1  0  0  0  0
 56 53  1  0  0  0  0
 58 57  1  0  0  0  0
M  END
>  <MODEL>
7

>  <REMARK>
 VINA RESULT:      -6.4      2.263      6.597
  Name = 
  16 active torsions:
  status: ('A' for Active; 'I' for Inactive)
    1  A    between atoms: C_1  and  N_32
    2  A    between atoms: C_4  and  C_22
    3  A    between atoms: C_4  and  C_28
    4  A    between atoms: N_7  and  C_54
    5  A    between atoms: C_8  and  C_11
    6  A    between atoms: C_8  and  C_22
    7  A    between atoms: C_10  and  C_50
    8  A    between atoms: C_14  and  N_44
    9  A    between atoms: O_17  and  C_34
   10  A    between atoms: C_20  and  C_55
   11  A    between atoms: N_27  and  C_55
   12  A    between atoms: C_28  and  C_38
   13  A    between atoms: C_29  and  C_56
   14  A    between atoms: C_34  and  C_58
   15  A    between atoms: O_39  and  C_48
   16  A    between atoms: O_39  and  C_49
                            x       y       z     vdW  Elec       q    Type
                         _______ _______ _______ _____ _____    ______ ____

>  <TORSDO>
F 16

$$$$
