=
 OpenBabel11032419423D

 45 50  0  0  1  0  0  0  0  0999 V2000
  182.4770  178.7150  142.8170 C   0  0  0  0  0  3  0  0  0  0  0  0
  184.5860  178.7020  141.6730 C   0  0  0  0  0  0  0  0  0  0  0  0
  183.9600  179.0030  140.4960 C   0  0  0  0  0  0  0  0  0  0  0  0
  182.5690  179.1540  140.4120 C   0  0  0  0  0  0  0  0  0  0  0  0
  187.4030  176.0530  137.0620 C   0  0  1  0  0  3  0  0  0  0  0  0
  187.3030  178.5850  139.3970 C   0  0  0  0  0  2  0  0  0  0  0  0
  183.8730  178.5510  142.8750 C   0  0  0  0  0  0  0  0  0  0  0  0
  188.0490  177.1750  137.8580 C   0  0  0  0  0  2  0  0  0  0  0  0
  181.8440  179.4130  139.1190 C   0  0  2  0  0  3  0  0  0  0  0  0
  182.7330  177.0740  138.3100 C   0  0  1  0  0  3  0  0  0  0  0  0
  185.9020  178.5380  141.4590 N   0  0  0  0  0  0  0  0  0  0  0  0
  184.8540  179.0450  139.4960 N   0  0  0  0  0  2  0  0  0  0  0  0
  187.4920  177.2260  139.1370 O   0  0  0  0  0  0  0  0  0  0  0  0
  183.6990  177.0140  137.1260 C   0  0  2  0  0  3  0  0  0  0  0  0
  186.0630  176.5080  136.5030 C   0  0  0  0  0  2  0  0  0  0  0  0
  181.8310  179.0080  141.5980 C   0  0  0  0  0  3  0  0  0  0  0  0
  180.8850  178.1860  137.3430 O   0  0  0  0  0  0  0  0  0  0  0  0
  183.1160  176.3880  136.0200 O   0  0  0  0  0  1  0  0  0  0  0  0
  184.9710  176.2940  137.5380 C   0  0  0  0  0  2  0  0  0  0  0  0
  186.0200  178.7650  140.1280 C   0  0  0  0  0  0  0  0  0  0  0  0
  181.7530  178.2140  138.2020 C   0  0  0  0  0  0  0  0  0  0  0  0
  181.6700  175.7330  140.0150 O   0  0  0  0  0  1  0  0  0  0  0  0
  182.0840  175.7420  138.6830 C   0  0  0  0  0  2  0  0  0  0  0  0
  184.4660  178.2420  144.1060 O   0  0  0  0  0  0  0  0  0  0  0  0
  185.0920  179.1980  144.9470 C   0  0  0  0  0  1  0  0  0  0  0  0
  188.3250  175.6440  135.9200 C   0  0  0  0  0  2  0  0  0  0  0  0
  189.0090  174.3970  136.2460 N   0  0  0  0  0  0  0  0  0  0  0  0
  188.4250  173.3170  135.4630 C   0  0  0  0  0  1  0  0  0  0  0  0
  190.4630  174.5220  136.0280 C   0  0  0  0  0  2  0  0  0  0  0  0
  192.6820  174.2310  137.2740 C   0  0  0  0  0  2  0  0  0  0  0  0
  191.5970  176.4160  137.3800 C   0  0  0  0  0  2  0  0  0  0  0  0
  193.6760  175.2500  137.8110 C   0  0  0  0  0  2  0  0  0  0  0  0
  192.8880  176.4990  138.1660 C   0  0  0  0  0  2  0  0  0  0  0  0
  191.3370  174.9310  137.2330 C   0  0  0  0  0  3  0  0  0  0  0  0
  182.3760  180.6500  138.4030 C   0  0  0  0  0  2  0  0  0  0  0  0
  178.9320  184.1850  135.5670 C   0  0  0  0  0  2  0  0  0  0  0  0
  179.1510  185.3300  136.3690 O   0  0  0  0  0  0  0  0  0  0  0  0
  179.8710  183.4050  137.4980 C   0  0  2  0  0  3  0  0  0  0  0  0
  180.5590  180.7780  136.5450 C   0  0  0  0  0  2  0  0  0  0  0  0
  179.2740  185.4420  138.7640 C   0  0  0  0  0  1  0  0  0  0  0  0
  181.2680  181.4080  137.7450 C   0  0  0  0  0  0  0  0  0  0  0  0
  179.8810  183.1260  136.0510 C   0  0  1  0  0  3  0  0  0  0  0  0
  179.9030  184.9050  137.4930 C   0  0  2  0  0  3  0  0  0  0  0  0
  181.0050  182.6730  138.1430 C   0  0  0  0  0  3  0  0  0  0  0  0
  179.4790  181.6720  135.8830 C   0  0  0  0  0  2  0  0  0  0  0  0
  1  7  1  0  0  0  0
  2  7  2  0  0  0  0
  3  2  1  0  0  0  0
  4  3  2  0  0  0  0
  4 16  1  0  0  0  0
  5 26  1  6  0  0  0
  5  8  1  0  0  0  0
  6 20  1  0  0  0  0
  7 24  1  0  0  0  0
  8 13  1  0  0  0  0
  9 35  1  6  0  0  0
  9  4  1  0  0  0  0
 10 23  1  6  0  0  0
 11  2  1  0  0  0  0
 12 20  1  0  0  0  0
 12  3  1  0  0  0  0
 13  6  1  0  0  0  0
 14 18  1  6  0  0  0
 14 19  1  0  0  0  0
 14 10  1  0  0  0  0
 15  5  1  0  0  0  0
 15 19  1  0  0  0  0
 16  1  2  0  0  0  0
 17 21  2  0  0  0  0
 20 11  2  0  0  0  0
 21 10  1  0  0  0  0
 21  9  1  0  0  0  0
 23 22  1  0  0  0  0
 24 25  1  0  0  0  0
 26 27  1  0  0  0  0
 28 27  1  0  0  0  0
 29 27  1  0  0  0  0
 29 34  1  0  0  0  0
 30 32  1  0  0  0  0
 31 33  1  0  0  0  0
 32 33  1  0  0  0  0
 34 30  1  0  0  0  0
 34 31  1  0  0  0  0
 36 37  1  0  0  0  0
 37 43  1  0  0  0  0
 38 44  1  1  0  0  0
 39 41  1  0  0  0  0
 41 44  2  0  0  0  0
 41 35  1  0  0  0  0
 42 36  1  6  0  0  0
 42 38  1  0  0  0  0
 43 38  1  0  0  0  0
 43 40  1  1  0  0  0
 45 42  1  0  0  0  0
 45 39  1  0  0  0  0
M  END
>  <MODEL>
1

>  <REMARK>
 VINA RESULT:      -6.8      0.000      0.000
  Name = 
  8 active torsions:
  status: ('A' for Active; 'I' for Inactive)
    1  A    between atoms: C_7  and  C_11
    2  A    between atoms: C_7  and  N_18
    3  A    between atoms: C_13  and  O_34
    4  A    between atoms: N_18  and  C_22
    5  A    between atoms: C_21  and  C_44
    6  A    between atoms: C_22  and  C_26
    7  A    between atoms: C_23  and  C_44
    8  A    between atoms: C_24  and  C_42
                            x       y       z     vdW  Elec       q    Type
                         _______ _______ _______ _____ _____    ______ ____

>  <TORSDO>
F 8

$$$$
=
 OpenBabel11032419423D

 45 50  0  0  1  0  0  0  0  0999 V2000
  182.3470  178.6970  142.6980 C   0  0  0  0  0  3  0  0  0  0  0  0
  184.4950  178.6850  141.6300 C   0  0  0  0  0  0  0  0  0  0  0  0
  183.9100  178.9680  140.4290 C   0  0  0  0  0  0  0  0  0  0  0  0
  182.5220  179.1090  140.2930 C   0  0  0  0  0  0  0  0  0  0  0  0
  187.4930  176.0000  137.1560 C   0  0  1  0  0  3  0  0  0  0  0  0
  187.2930  178.5590  139.4560 C   0  0  0  0  0  2  0  0  0  0  0  0
  183.7400  178.5430  142.8080 C   0  0  0  0  0  0  0  0  0  0  0  0
  188.1030  177.1370  137.9610 C   0  0  0  0  0  2  0  0  0  0  0  0
  181.8420  179.3470  138.9720 C   0  0  2  0  0  3  0  0  0  0  0  0
  182.7750  177.0060  138.2240 C   0  0  1  0  0  3  0  0  0  0  0  0
  185.8190  178.5270  141.4660 N   0  0  0  0  0  0  0  0  0  0  0  0
  184.8390  179.0040  139.4610 N   0  0  0  0  0  2  0  0  0  0  0  0
  187.5000  177.1990  139.2180 O   0  0  0  0  0  0  0  0  0  0  0  0
  183.7830  176.9370  137.0760 C   0  0  2  0  0  3  0  0  0  0  0  0
  186.1710  176.4410  136.5440 C   0  0  0  0  0  2  0  0  0  0  0  0
  181.7420  178.9720  141.4530 C   0  0  0  0  0  3  0  0  0  0  0  0
  180.9560  178.0930  137.1770 O   0  0  0  0  0  0  0  0  0  0  0  0
  183.2440  176.2950  135.9570 O   0  0  0  0  0  1  0  0  0  0  0  0
  185.0450  176.2310  137.5420 C   0  0  0  0  0  2  0  0  0  0  0  0
  185.9840  178.7400  140.1380 C   0  0  0  0  0  0  0  0  0  0  0  0
  181.7930  178.1370  138.0670 C   0  0  0  0  0  0  0  0  0  0  0  0
  181.0240  175.8590  139.4310 O   0  0  0  0  0  1  0  0  0  0  0  0
  182.1210  175.6730  138.5880 C   0  0  0  0  0  2  0  0  0  0  0  0
  184.2910  178.2530  144.0630 O   0  0  0  0  0  0  0  0  0  0  0  0
  184.8750  179.2240  144.9170 C   0  0  0  0  0  1  0  0  0  0  0  0
  188.4580  175.5850  136.0530 C   0  0  0  0  0  2  0  0  0  0  0  0
  188.7650  174.1620  136.1620 N   0  0  0  0  0  0  0  0  0  0  0  0
  189.9310  173.9930  137.0200 C   0  0  0  0  0  1  0  0  0  0  0  0
  187.5960  173.4080  136.6550 C   0  0  0  0  0  2  0  0  0  0  0  0
  187.6520  171.2380  135.2940 C   0  0  0  0  0  2  0  0  0  0  0  0
  185.4790  172.0380  136.0690 C   0  0  0  0  0  2  0  0  0  0  0  0
  186.6310  170.1210  135.1400 C   0  0  0  0  0  2  0  0  0  0  0  0
  185.2570  170.7430  135.3170 C   0  0  0  0  0  2  0  0  0  0  0  0
  186.8660  172.4840  135.6560 C   0  0  0  0  0  3  0  0  0  0  0  0
  182.3920  180.5800  138.2600 C   0  0  0  0  0  2  0  0  0  0  0  0
  178.9560  184.3210  135.6940 C   0  0  0  0  0  2  0  0  0  0  0  0
  179.0210  185.3330  136.6820 O   0  0  0  0  0  0  0  0  0  0  0  0
  179.7800  183.2950  137.5600 C   0  0  2  0  0  3  0  0  0  0  0  0
  180.7370  180.9020  136.2790 C   0  0  0  0  0  2  0  0  0  0  0  0
  178.9310  185.0610  139.0650 C   0  0  0  0  0  1  0  0  0  0  0  0
  181.2930  181.3690  137.6250 C   0  0  0  0  0  0  0  0  0  0  0  0
  179.9350  183.2550  136.0960 C   0  0  1  0  0  3  0  0  0  0  0  0
  179.7030  184.7750  137.7930 C   0  0  2  0  0  3  0  0  0  0  0  0
  180.9050  182.5350  138.1890 C   0  0  0  0  0  3  0  0  0  0  0  0
  179.6560  181.8270  135.6640 C   0  0  0  0  0  2  0  0  0  0  0  0
  1  7  1  0  0  0  0
  2  7  2  0  0  0  0
  3  2  1  0  0  0  0
  4  3  2  0  0  0  0
  4 16  1  0  0  0  0
  5 26  1  6  0  0  0
  5  8  1  0  0  0  0
  6 20  1  0  0  0  0
  7 24  1  0  0  0  0
  8 13  1  0  0  0  0
  9 35  1  6  0  0  0
  9  4  1  0  0  0  0
 10 23  1  6  0  0  0
 11  2  1  0  0  0  0
 12 20  1  0  0  0  0
 12  3  1  0  0  0  0
 13  6  1  0  0  0  0
 14 18  1  6  0  0  0
 14 19  1  0  0  0  0
 14 10  1  0  0  0  0
 15  5  1  0  0  0  0
 15 19  1  0  0  0  0
 16  1  2  0  0  0  0
 17 21  2  0  0  0  0
 20 11  2  0  0  0  0
 21 10  1  0  0  0  0
 21  9  1  0  0  0  0
 23 22  1  0  0  0  0
 24 25  1  0  0  0  0
 26 27  1  0  0  0  0
 27 29  1  0  0  0  0
 27 28  1  0  0  0  0
 30 34  1  0  0  0  0
 32 30  1  0  0  0  0
 32 33  1  0  0  0  0
 33 31  1  0  0  0  0
 34 31  1  0  0  0  0
 34 29  1  0  0  0  0
 36 42  1  0  0  0  0
 36 37  1  0  0  0  0
 37 43  1  0  0  0  0
 38 43  1  0  0  0  0
 38 44  1  1  0  0  0
 39 41  1  0  0  0  0
 41 44  2  0  0  0  0
 41 35  1  0  0  0  0
 42 45  1  6  0  0  0
 42 38  1  0  0  0  0
 43 40  1  1  0  0  0
 45 39  1  0  0  0  0
M  END
>  <MODEL>
2

>  <REMARK>
 VINA RESULT:      -6.7      1.135      2.687
  Name = 
  8 active torsions:
  status: ('A' for Active; 'I' for Inactive)
    1  A    between atoms: C_7  and  C_11
    2  A    between atoms: C_7  and  N_18
    3  A    between atoms: C_13  and  O_34
    4  A    between atoms: N_18  and  C_22
    5  A    between atoms: C_21  and  C_44
    6  A    between atoms: C_22  and  C_26
    7  A    between atoms: C_23  and  C_44
    8  A    between atoms: C_24  and  C_42
                            x       y       z     vdW  Elec       q    Type
                         _______ _______ _______ _____ _____    ______ ____

>  <TORSDO>
F 8

$$$$
=
 OpenBabel11032419423D

 45 50  0  0  1  0  0  0  0  0999 V2000
  181.4710  181.5080  138.2630 C   0  0  0  0  0  3  0  0  0  0  0  0
  180.2150  179.5170  138.7260 C   0  0  0  0  0  0  0  0  0  0  0  0
  181.3520  178.8880  139.1500 C   0  0  0  0  0  0  0  0  0  0  0  0
  182.6020  179.5210  139.1330 C   0  0  0  0  0  0  0  0  0  0  0  0
  180.0170  173.6660  137.3300 C   0  0  1  0  0  3  0  0  0  0  0  0
  178.9950  176.2500  139.3700 C   0  0  0  0  0  2  0  0  0  0  0  0
  180.2300  180.8470  138.2720 C   0  0  0  0  0  0  0  0  0  0  0  0
  179.0860  174.2760  138.3660 C   0  0  0  0  0  2  0  0  0  0  0  0
  183.8820  178.8320  139.5230 C   0  0  2  0  0  3  0  0  0  0  0  0
  183.4610  177.2040  137.5010 C   0  0  1  0  0  3  0  0  0  0  0  0
  179.1780  178.6640  138.7740 N   0  0  0  0  0  0  0  0  0  0  0  0
  181.0780  177.6170  139.4850 N   0  0  0  0  0  2  0  0  0  0  0  0
  178.9310  175.6400  138.1150 O   0  0  0  0  0  0  0  0  0  0  0  0
  183.2150  175.7200  137.7780 C   0  0  2  0  0  3  0  0  0  0  0  0
  181.4670  173.9400  137.7020 C   0  0  0  0  0  2  0  0  0  0  0  0
  182.6460  180.8510  138.6830 C   0  0  0  0  0  3  0  0  0  0  0  0
  185.5710  177.5190  138.5190 O   0  0  0  0  0  0  0  0  0  0  0  0
  184.2580  174.9270  137.2910 O   0  0  0  0  0  1  0  0  0  0  0  0
  181.8900  175.2970  137.1670 C   0  0  0  0  0  2  0  0  0  0  0  0
  179.7460  177.5290  139.2500 C   0  0  0  0  0  0  0  0  0  0  0  0
  184.3900  177.8350  138.5060 C   0  0  0  0  0  0  0  0  0  0  0  0
  182.6580  177.6490  135.2660 O   0  0  0  0  0  1  0  0  0  0  0  0
  183.8070  177.5410  136.0510 C   0  0  0  0  0  2  0  0  0  0  0  0
  179.0940  181.5360  137.8270 O   0  0  0  0  0  0  0  0  0  0  0  0
  179.1320  182.8150  137.2130 C   0  0  0  0  0  1  0  0  0  0  0  0
  179.7780  172.1630  137.2550 C   0  0  0  0  0  2  0  0  0  0  0  0
  179.3090  171.7940  135.9230 N   0  0  0  0  0  0  0  0  0  0  0  0
  178.9360  173.0020  135.1990 C   0  0  0  0  0  1  0  0  0  0  0  0
  180.3300  171.0060  135.2060 C   0  0  0  0  0  2  0  0  0  0  0  0
  182.3950  169.6820  135.9460 C   0  0  0  0  0  2  0  0  0  0  0  0
  182.7540  171.8680  134.9180 C   0  0  0  0  0  2  0  0  0  0  0  0
  183.8630  169.8160  135.5720 C   0  0  0  0  0  2  0  0  0  0  0  0
  184.1100  171.2780  135.2450 C   0  0  0  0  0  2  0  0  0  0  0  0
  181.7780  171.0530  135.7410 C   0  0  0  0  0  3  0  0  0  0  0  0
  183.8070  178.2380  140.9260 C   0  0  0  0  0  2  0  0  0  0  0  0
  188.7920  177.6630  143.6120 C   0  0  0  0  0  2  0  0  0  0  0  0
  188.2940  177.0470  144.7850 O   0  0  0  0  0  0  0  0  0  0  0  0
  186.5440  178.0660  143.6030 C   0  0  2  0  0  3  0  0  0  0  0  0
  186.3230  178.8950  140.8560 C   0  0  0  0  0  2  0  0  0  0  0  0
  186.3250  177.6330  146.0260 C   0  0  0  0  0  1  0  0  0  0  0  0
  185.1170  178.3660  141.6340 C   0  0  0  0  0  0  0  0  0  0  0  0
  187.6380  177.7820  142.6580 C   0  0  1  0  0  3  0  0  0  0  0  0
  186.8800  177.1150  144.7140 C   0  0  2  0  0  3  0  0  0  0  0  0
  185.2350  177.8990  142.8970 C   0  0  0  0  0  3  0  0  0  0  0  0
  187.6530  178.9180  141.6510 C   0  0  0  0  0  2  0  0  0  0  0  0
  1  7  2  0  0  0  0
  1 16  1  0  0  0  0
  2 11  1  0  0  0  0
  2  3  2  0  0  0  0
  3 12  1  0  0  0  0
  4  3  1  0  0  0  0
  4  9  1  0  0  0  0
  5 26  1  1  0  0  0
  5 15  1  0  0  0  0
  5  8  1  0  0  0  0
  7  2  1  0  0  0  0
  9 35  1  1  0  0  0
 10 23  1  6  0  0  0
 10 14  1  0  0  0  0
 10 21  1  0  0  0  0
 11 20  2  0  0  0  0
 13  8  1  0  0  0  0
 13  6  1  0  0  0  0
 14 18  1  6  0  0  0
 16  4  2  0  0  0  0
 19 15  1  0  0  0  0
 19 14  1  0  0  0  0
 20  6  1  0  0  0  0
 20 12  1  0  0  0  0
 21 17  2  0  0  0  0
 21  9  1  0  0  0  0
 22 23  1  0  0  0  0
 24  7  1  0  0  0  0
 25 24  1  0  0  0  0
 27 26  1  0  0  0  0
 28 27  1  0  0  0  0
 29 34  1  0  0  0  0
 29 27  1  0  0  0  0
 31 33  1  0  0  0  0
 31 34  1  0  0  0  0
 32 30  1  0  0  0  0
 33 32  1  0  0  0  0
 34 30  1  0  0  0  0
 35 41  1  0  0  0  0
 36 37  1  0  0  0  0
 38 44  1  6  0  0  0
 38 43  1  0  0  0  0
 39 41  1  0  0  0  0
 39 45  1  0  0  0  0
 41 44  2  0  0  0  0
 42 45  1  6  0  0  0
 42 38  1  0  0  0  0
 42 36  1  0  0  0  0
 43 37  1  0  0  0  0
 43 40  1  1  0  0  0
M  END
>  <MODEL>
3

>  <REMARK>
 VINA RESULT:      -6.3      3.794      8.297
  Name = 
  8 active torsions:
  status: ('A' for Active; 'I' for Inactive)
    1  A    between atoms: C_7  and  C_11
    2  A    between atoms: C_7  and  N_18
    3  A    between atoms: C_13  and  O_34
    4  A    between atoms: N_18  and  C_22
    5  A    between atoms: C_21  and  C_44
    6  A    between atoms: C_22  and  C_26
    7  A    between atoms: C_23  and  C_44
    8  A    between atoms: C_24  and  C_42
                            x       y       z     vdW  Elec       q    Type
                         _______ _______ _______ _____ _____    ______ ____

>  <TORSDO>
F 8

$$$$
=
 OpenBabel11032419423D

 45 50  0  0  1  0  0  0  0  0999 V2000
  182.1440  180.6840  137.9830 C   0  0  0  0  0  3  0  0  0  0  0  0
  182.0300  178.3360  137.5050 C   0  0  0  0  0  0  0  0  0  0  0  0
  183.0370  178.0960  138.3970 C   0  0  0  0  0  0  0  0  0  0  0  0
  183.6620  179.1300  139.1080 C   0  0  0  0  0  0  0  0  0  0  0  0
  185.4550  173.7620  135.6180 C   0  0  1  0  0  3  0  0  0  0  0  0
  182.5240  174.8520  137.0660 C   0  0  0  0  0  2  0  0  0  0  0  0
  181.5430  179.6330  137.2670 C   0  0  0  0  0  0  0  0  0  0  0  0
  184.0160  173.5560  136.0630 C   0  0  0  0  0  2  0  0  0  0  0  0
  184.8220  178.9070  140.0400 C   0  0  2  0  0  3  0  0  0  0  0  0
  186.1670  178.0610  137.9450 C   0  0  1  0  0  3  0  0  0  0  0  0
  181.6650  177.1880  136.9100 N   0  0  0  0  0  0  0  0  0  0  0  0
  183.3450  176.7900  138.4030 N   0  0  0  0  0  2  0  0  0  0  0  0
  183.3010  174.7450  135.9110 O   0  0  0  0  0  0  0  0  0  0  0  0
  186.6290  176.6050  137.8960 C   0  0  2  0  0  3  0  0  0  0  0  0
  186.2560  174.4320  136.7240 C   0  0  0  0  0  2  0  0  0  0  0  0
  183.1960  180.4370  138.8890 C   0  0  0  0  0  3  0  0  0  0  0  0
  187.1800  178.7990  139.9500 O   0  0  0  0  0  0  0  0  0  0  0  0
  188.0230  176.5060  137.9530 O   0  0  0  0  0  1  0  0  0  0  0  0
  186.0980  175.9400  136.6380 C   0  0  0  0  0  2  0  0  0  0  0  0
  182.4820  176.2770  137.4930 C   0  0  0  0  0  0  0  0  0  0  0  0
  186.1330  178.6110  139.3480 C   0  0  0  0  0  0  0  0  0  0  0  0
  188.0750  179.4480  137.4230 O   0  0  0  0  0  1  0  0  0  0  0  0
  186.8480  178.9890  136.9410 C   0  0  0  0  0  2  0  0  0  0  0  0
  180.5150  179.9320  136.3640 O   0  0  0  0  0  0  0  0  0  0  0  0
  180.7300  180.4350  135.0550 C   0  0  0  0  0  1  0  0  0  0  0  0
  186.0780  172.4150  135.2730 C   0  0  0  0  0  2  0  0  0  0  0  0
  187.5000  172.4190  135.6010 N   0  0  0  0  0  0  0  0  0  0  0  0
  187.9610  171.0430  135.7300 C   0  0  0  0  0  1  0  0  0  0  0  0
  188.2700  173.1740  134.5940 C   0  0  0  0  0  2  0  0  0  0  0  0
  189.7720  175.2460  134.7200 C   0  0  0  0  0  2  0  0  0  0  0  0
  189.9970  173.5680  136.4810 C   0  0  0  0  0  2  0  0  0  0  0  0
  190.5680  175.8420  135.8710 C   0  0  0  0  0  2  0  0  0  0  0  0
  190.9620  174.6940  136.7850 C   0  0  0  0  0  2  0  0  0  0  0  0
  189.6290  173.7660  135.0250 C   0  0  0  0  0  3  0  0  0  0  0  0
  184.4950  177.8820  141.1230 C   0  0  0  0  0  2  0  0  0  0  0  0
  179.9020  178.7460  144.3710 C   0  0  0  0  0  2  0  0  0  0  0  0
  178.9310  178.5880  143.3540 O   0  0  0  0  0  0  0  0  0  0  0  0
  181.0440  178.9470  142.4040 C   0  0  2  0  0  3  0  0  0  0  0  0
  183.6970  178.6480  143.4780 C   0  0  0  0  0  2  0  0  0  0  0  0
  178.9950  179.4550  141.1170 C   0  0  0  0  0  1  0  0  0  0  0  0
  183.3910  178.3670  142.0050 C   0  0  0  0  0  0  0  0  0  0  0  0
  181.2320  178.4060  143.7610 C   0  0  1  0  0  3  0  0  0  0  0  0
  179.6330  178.5190  142.1250 C   0  0  2  0  0  3  0  0  0  0  0  0
  182.1310  178.4260  141.5170 C   0  0  0  0  0  3  0  0  0  0  0  0
  182.4730  179.0710  144.3290 C   0  0  0  0  0  2  0  0  0  0  0  0
  1 16  1  0  0  0  0
  2  3  2  0  0  0  0
  3 12  1  0  0  0  0
  3  4  1  0  0  0  0
  4  9  1  0  0  0  0
  5 26  1  1  0  0  0
  5  8  1  0  0  0  0
  5 15  1  0  0  0  0
  6 20  1  0  0  0  0
  7  2  1  0  0  0  0
  7  1  2  0  0  0  0
  9 35  1  1  0  0  0
 10 23  1  6  0  0  0
 10 21  1  0  0  0  0
 11 20  2  0  0  0  0
 11  2  1  0  0  0  0
 13  8  1  0  0  0  0
 13  6  1  0  0  0  0
 14 10  1  0  0  0  0
 14 18  1  6  0  0  0
 16  4  2  0  0  0  0
 19 15  1  0  0  0  0
 19 14  1  0  0  0  0
 20 12  1  0  0  0  0
 21 17  2  0  0  0  0
 21  9  1  0  0  0  0
 23 22  1  0  0  0  0
 24  7  1  0  0  0  0
 25 24  1  0  0  0  0
 26 27  1  0  0  0  0
 27 28  1  0  0  0  0
 29 34  1  0  0  0  0
 29 27  1  0  0  0  0
 30 34  1  0  0  0  0
 30 32  1  0  0  0  0
 31 33  1  0  0  0  0
 32 33  1  0  0  0  0
 34 31  1  0  0  0  0
 35 41  1  0  0  0  0
 37 36  1  0  0  0  0
 38 44  1  6  0  0  0
 38 42  1  0  0  0  0
 39 45  1  0  0  0  0
 41 39  1  0  0  0  0
 42 45  1  1  0  0  0
 42 36  1  0  0  0  0
 43 40  1  6  0  0  0
 43 38  1  0  0  0  0
 43 37  1  0  0  0  0
 44 41  2  0  0  0  0
M  END
>  <MODEL>
4

>  <REMARK>
 VINA RESULT:      -6.1      2.516      5.765
  Name = 
  8 active torsions:
  status: ('A' for Active; 'I' for Inactive)
    1  A    between atoms: C_7  and  C_11
    2  A    between atoms: C_7  and  N_18
    3  A    between atoms: C_13  and  O_34
    4  A    between atoms: N_18  and  C_22
    5  A    between atoms: C_21  and  C_44
    6  A    between atoms: C_22  and  C_26
    7  A    between atoms: C_23  and  C_44
    8  A    between atoms: C_24  and  C_42
                            x       y       z     vdW  Elec       q    Type
                         _______ _______ _______ _____ _____    ______ ____

>  <TORSDO>
F 8

$$$$
=
 OpenBabel11032419423D

 45 50  0  0  1  0  0  0  0  0999 V2000
  182.4930  180.5470  138.2690 C   0  0  0  0  0  3  0  0  0  0  0  0
  182.3010  178.1850  137.8930 C   0  0  0  0  0  0  0  0  0  0  0  0
  183.3700  177.9580  138.7120 C   0  0  0  0  0  0  0  0  0  0  0  0
  184.0670  179.0040  139.3320 C   0  0  0  0  0  0  0  0  0  0  0  0
  185.4870  173.4760  135.9220 C   0  0  1  0  0  3  0  0  0  0  0  0
  182.6980  174.6780  137.5510 C   0  0  0  0  0  2  0  0  0  0  0  0
  181.8200  179.4820  137.6440 C   0  0  0  0  0  0  0  0  0  0  0  0
  184.0840  173.3150  136.4860 C   0  0  0  0  0  2  0  0  0  0  0  0
  185.2920  178.7920  140.1800 C   0  0  2  0  0  3  0  0  0  0  0  0
  186.4540  177.8420  138.0210 C   0  0  1  0  0  3  0  0  0  0  0  0
  181.8710  177.0230  137.3720 N   0  0  0  0  0  0  0  0  0  0  0  0
  183.6550  176.6470  138.7450 N   0  0  0  0  0  2  0  0  0  0  0  0
  183.3800  174.5120  136.3440 O   0  0  0  0  0  0  0  0  0  0  0  0
  186.8860  176.3760  137.9910 C   0  0  2  0  0  3  0  0  0  0  0  0
  186.3840  174.1690  136.9370 C   0  0  0  0  0  2  0  0  0  0  0  0
  183.6080  180.3120  139.1010 C   0  0  0  0  0  3  0  0  0  0  0  0
  187.6340  178.6330  139.9110 O   0  0  0  0  0  0  0  0  0  0  0  0
  188.2780  176.2510  137.9440 O   0  0  0  0  0  1  0  0  0  0  0  0
  186.2460  175.6760  136.8050 C   0  0  0  0  0  2  0  0  0  0  0  0
  182.7150  176.1180  137.9240 C   0  0  0  0  0  0  0  0  0  0  0  0
  186.5400  178.4440  139.4000 C   0  0  0  0  0  0  0  0  0  0  0  0
  188.2100  179.3790  137.3930 O   0  0  0  0  0  1  0  0  0  0  0  0
  187.0710  178.7190  136.9310 C   0  0  0  0  0  2  0  0  0  0  0  0
  180.7290  179.7680  136.8120 O   0  0  0  0  0  0  0  0  0  0  0  0
  180.5110  181.0270  136.1940 C   0  0  0  0  0  1  0  0  0  0  0  0
  186.0570  172.1040  135.5830 C   0  0  0  0  0  2  0  0  0  0  0  0
  187.5160  172.1520  135.5800 N   0  0  0  0  0  0  0  0  0  0  0  0
  188.0340  170.8250  135.2760 C   0  0  0  0  0  1  0  0  0  0  0  0
  188.0070  173.1730  134.6340 C   0  0  0  0  0  2  0  0  0  0  0  0
  189.5520  175.2160  134.6370 C   0  0  0  0  0  2  0  0  0  0  0  0
  190.0680  173.3990  136.1840 C   0  0  0  0  0  2  0  0  0  0  0  0
  190.5640  175.7110  135.6590 C   0  0  0  0  0  2  0  0  0  0  0  0
  191.0980  174.4890  136.3880 C   0  0  0  0  0  2  0  0  0  0  0  0
  189.4360  173.7180  134.8460 C   0  0  0  0  0  3  0  0  0  0  0  0
  185.0340  177.8150  141.3230 C   0  0  0  0  0  2  0  0  0  0  0  0
  188.5340  177.4790  145.7980 C   0  0  0  0  0  2  0  0  0  0  0  0
  187.5510  177.6240  146.8070 O   0  0  0  0  0  0  0  0  0  0  0  0
  186.6960  178.3240  144.7380 C   0  0  2  0  0  3  0  0  0  0  0  0
  187.5340  177.7740  142.0410 C   0  0  0  0  0  2  0  0  0  0  0  0
  185.7020  179.1550  146.8440 C   0  0  0  0  0  1  0  0  0  0  0  0
  186.0590  177.9650  142.4000 C   0  0  0  0  0  0  0  0  0  0  0  0
  187.8050  177.3870  144.4880 C   0  0  1  0  0  3  0  0  0  0  0  0
  186.3410  177.9660  146.1520 C   0  0  2  0  0  3  0  0  0  0  0  0
  185.6560  178.1400  143.6780 C   0  0  0  0  0  3  0  0  0  0  0  0
  188.5140  177.8730  143.2370 C   0  0  0  0  0  2  0  0  0  0  0  0
  1 16  1  0  0  0  0
  2  3  2  0  0  0  0
  3 12  1  0  0  0  0
  3  4  1  0  0  0  0
  4  9  1  0  0  0  0
  5 26  1  1  0  0  0
  5  8  1  0  0  0  0
  5 15  1  0  0  0  0
  6 20  1  0  0  0  0
  7  2  1  0  0  0  0
  7  1  2  0  0  0  0
  9 35  1  1  0  0  0
 10 23  1  6  0  0  0
 10 21  1  0  0  0  0
 11  2  1  0  0  0  0
 11 20  2  0  0  0  0
 13  8  1  0  0  0  0
 13  6  1  0  0  0  0
 14 18  1  6  0  0  0
 14 10  1  0  0  0  0
 16  4  2  0  0  0  0
 19 15  1  0  0  0  0
 19 14  1  0  0  0  0
 20 12  1  0  0  0  0
 21 17  2  0  0  0  0
 21  9  1  0  0  0  0
 23 22  1  0  0  0  0
 24  7  1  0  0  0  0
 25 24  1  0  0  0  0
 27 26  1  0  0  0  0
 28 27  1  0  0  0  0
 29 34  1  0  0  0  0
 29 27  1  0  0  0  0
 30 34  1  0  0  0  0
 30 32  1  0  0  0  0
 31 33  1  0  0  0  0
 32 33  1  0  0  0  0
 34 31  1  0  0  0  0
 35 41  1  0  0  0  0
 36 37  1  0  0  0  0
 38 44  1  6  0  0  0
 38 43  1  0  0  0  0
 39 41  1  0  0  0  0
 39 45  1  0  0  0  0
 41 44  2  0  0  0  0
 42 45  1  6  0  0  0
 42 38  1  0  0  0  0
 42 36  1  0  0  0  0
 43 37  1  0  0  0  0
 43 40  1  1  0  0  0
M  END
>  <MODEL>
5

>  <REMARK>
 VINA RESULT:      -5.5      2.456      7.125
  Name = 
  8 active torsions:
  status: ('A' for Active; 'I' for Inactive)
    1  A    between atoms: C_7  and  C_11
    2  A    between atoms: C_7  and  N_18
    3  A    between atoms: C_13  and  O_34
    4  A    between atoms: N_18  and  C_22
    5  A    between atoms: C_21  and  C_44
    6  A    between atoms: C_22  and  C_26
    7  A    between atoms: C_23  and  C_44
    8  A    between atoms: C_24  and  C_42
                            x       y       z     vdW  Elec       q    Type
                         _______ _______ _______ _____ _____    ______ ____

>  <TORSDO>
F 8

$$$$
=
 OpenBabel11032419423D

 45 50  0  0  1  0  0  0  0  0999 V2000
  192.7330  175.5100  135.0660 C   0  0  0  0  0  3  0  0  0  0  0  0
  192.1790  176.0090  137.3470 C   0  0  0  0  0  0  0  0  0  0  0  0
  190.9800  175.3710  137.2050 C   0  0  0  0  0  0  0  0  0  0  0  0
  190.5840  174.7930  135.9910 C   0  0  0  0  0  0  0  0  0  0  0  0
  187.9570  178.7300  140.6600 C   0  0  1  0  0  3  0  0  0  0  0  0
  190.6890  176.6360  140.5030 C   0  0  0  0  0  2  0  0  0  0  0  0
  193.1010  176.0990  136.2890 C   0  0  0  0  0  0  0  0  0  0  0  0
  189.1150  177.9800  141.2970 C   0  0  0  0  0  2  0  0  0  0  0  0
  189.2400  174.1490  135.7820 C   0  0  2  0  0  3  0  0  0  0  0  0
  188.1880  176.5120  136.2510 C   0  0  1  0  0  3  0  0  0  0  0  0
  192.2720  176.5360  138.5790 N   0  0  0  0  0  0  0  0  0  0  0  0
  190.2700  175.4680  138.3400 N   0  0  0  0  0  2  0  0  0  0  0  0
  190.1930  177.9380  140.4110 O   0  0  0  0  0  0  0  0  0  0  0  0
  187.3000  176.7010  137.4820 C   0  0  2  0  0  3  0  0  0  0  0  0
  187.1940  177.8140  139.7140 C   0  0  0  0  0  2  0  0  0  0  0  0
  191.4860  174.8680  134.9160 C   0  0  0  0  0  3  0  0  0  0  0  0
  187.0560  174.7670  135.1290 O   0  0  0  0  0  0  0  0  0  0  0  0
  185.9740  176.9600  137.1230 O   0  0  0  0  0  1  0  0  0  0  0  0
  187.8490  177.8250  138.3440 C   0  0  0  0  0  2  0  0  0  0  0  0
  191.0970  176.1740  139.1490 C   0  0  0  0  0  0  0  0  0  0  0  0
  188.0900  175.1240  135.6740 C   0  0  0  0  0  0  0  0  0  0  0  0
  186.7560  177.9830  134.9790 O   0  0  0  0  0  1  0  0  0  0  0  0
  188.0840  177.6200  135.2040 C   0  0  0  0  0  2  0  0  0  0  0  0
  194.3430  176.7410  136.3830 O   0  0  0  0  0  0  0  0  0  0  0  0
  194.8800  177.5810  135.3730 C   0  0  0  0  0  1  0  0  0  0  0  0
  187.0220  179.2390  141.7500 C   0  0  0  0  0  2  0  0  0  0  0  0
  186.2620  178.1310  142.3200 N   0  0  0  0  0  0  0  0  0  0  0  0
  187.0420  177.5210  143.3880 C   0  0  0  0  0  1  0  0  0  0  0  0
  184.9380  178.5850  142.7860 C   0  0  0  0  0  2  0  0  0  0  0  0
  183.9930  177.8800  140.5110 C   0  0  0  0  0  2  0  0  0  0  0  0
  182.4110  178.6040  142.2240 C   0  0  0  0  0  2  0  0  0  0  0  0
  182.5880  177.4820  140.0850 C   0  0  0  0  0  2  0  0  0  0  0  0
  181.6190  178.2210  140.9920 C   0  0  0  0  0  2  0  0  0  0  0  0
  183.8310  178.7740  141.7260 C   0  0  0  0  0  3  0  0  0  0  0  0
  188.9700  173.0470  136.8030 C   0  0  0  0  0  2  0  0  0  0  0  0
  184.2690  170.6920  134.6230 C   0  0  0  0  0  2  0  0  0  0  0  0
  183.3380  171.6060  135.1740 O   0  0  0  0  0  0  0  0  0  0  0  0
  185.3920  171.7720  136.2930 C   0  0  2  0  0  3  0  0  0  0  0  0
  188.0500  170.9690  135.5360 C   0  0  0  0  0  2  0  0  0  0  0  0
  183.3070  172.5050  137.3990 C   0  0  0  0  0  1  0  0  0  0  0  0
  187.8000  172.2110  136.3930 C   0  0  0  0  0  0  0  0  0  0  0  0
  185.6390  171.2130  134.9530 C   0  0  1  0  0  3  0  0  0  0  0  0
  184.0560  172.4220  136.0840 C   0  0  2  0  0  3  0  0  0  0  0  0
  186.5500  172.6370  136.6800 C   0  0  0  0  0  3  0  0  0  0  0  0
  186.7710  170.2120  135.0970 C   0  0  0  0  0  2  0  0  0  0  0  0
  1  7  1  0  0  0  0
  2 11  1  0  0  0  0
  3  2  1  0  0  0  0
  3 12  1  0  0  0  0
  4  3  2  0  0  0  0
  5  8  1  0  0  0  0
  5 26  1  1  0  0  0
  7 24  1  0  0  0  0
  7  2  2  0  0  0  0
  9  4  1  0  0  0  0
  9 35  1  1  0  0  0
 10 23  1  6  0  0  0
 10 14  1  0  0  0  0
 11 20  2  0  0  0  0
 12 20  1  0  0  0  0
 13  6  1  0  0  0  0
 13  8  1  0  0  0  0
 14 18  1  6  0  0  0
 14 19  1  0  0  0  0
 15  5  1  0  0  0  0
 16  1  2  0  0  0  0
 16  4  1  0  0  0  0
 17 21  2  0  0  0  0
 19 15  1  0  0  0  0
 20  6  1  0  0  0  0
 21  9  1  0  0  0  0
 21 10  1  0  0  0  0
 22 23  1  0  0  0  0
 25 24  1  0  0  0  0
 26 27  1  0  0  0  0
 27 29  1  0  0  0  0
 27 28  1  0  0  0  0
 30 34  1  0  0  0  0
 32 30  1  0  0  0  0
 32 33  1  0  0  0  0
 33 31  1  0  0  0  0
 34 31  1  0  0  0  0
 34 29  1  0  0  0  0
 36 37  1  0  0  0  0
 37 43  1  0  0  0  0
 38 44  1  6  0  0  0
 39 41  1  0  0  0  0
 41 44  2  0  0  0  0
 41 35  1  0  0  0  0
 42 36  1  1  0  0  0
 42 45  1  0  0  0  0
 42 38  1  0  0  0  0
 43 38  1  0  0  0  0
 43 40  1  1  0  0  0
 45 39  1  0  0  0  0
M  END
>  <MODEL>
6

>  <REMARK>
 VINA RESULT:      -5.3      4.041      9.823
  Name = 
  8 active torsions:
  status: ('A' for Active; 'I' for Inactive)
    1  A    between atoms: C_7  and  C_11
    2  A    between atoms: C_7  and  N_18
    3  A    between atoms: C_13  and  O_34
    4  A    between atoms: N_18  and  C_22
    5  A    between atoms: C_21  and  C_44
    6  A    between atoms: C_22  and  C_26
    7  A    between atoms: C_23  and  C_44
    8  A    between atoms: C_24  and  C_42
                            x       y       z     vdW  Elec       q    Type
                         _______ _______ _______ _____ _____    ______ ____

>  <TORSDO>
F 8

$$$$
=
 OpenBabel11032419423D

 45 50  0  0  1  0  0  0  0  0999 V2000
  180.4110  179.6110  141.5880 C   0  0  0  0  0  3  0  0  0  0  0  0
  180.2890  177.2640  141.1060 C   0  0  0  0  0  0  0  0  0  0  0  0
  181.1990  177.4150  140.0970 C   0  0  0  0  0  0  0  0  0  0  0  0
  181.7430  178.6640  139.7670 C   0  0  0  0  0  0  0  0  0  0  0  0
  179.0760  173.4590  136.6050 C   0  0  1  0  0  3  0  0  0  0  0  0
  180.3690  173.9860  139.7550 C   0  0  0  0  0  2  0  0  0  0  0  0
  179.8650  178.3510  141.8900 C   0  0  0  0  0  0  0  0  0  0  0  0
  179.5590  172.9690  137.9600 C   0  0  0  0  0  2  0  0  0  0  0  0
  182.6890  178.8740  138.6160 C   0  0  2  0  0  3  0  0  0  0  0  0
  180.7320  178.0930  137.0440 C   0  0  1  0  0  3  0  0  0  0  0  0
  179.8750  175.9870  141.1580 N   0  0  0  0  0  0  0  0  0  0  0  0
  181.3970  176.2420  139.4760 N   0  0  0  0  0  2  0  0  0  0  0  0
  179.2370  173.9080  138.9420 O   0  0  0  0  0  0  0  0  0  0  0  0
  180.8960  176.8050  136.2350 C   0  0  2  0  0  3  0  0  0  0  0  0
  180.0640  174.4610  136.0260 C   0  0  0  0  0  2  0  0  0  0  0  0
  181.3360  179.7680  140.5350 C   0  0  0  0  0  3  0  0  0  0  0  0
  182.5960  179.3430  136.3030 O   0  0  0  0  0  0  0  0  0  0  0  0
  180.9550  177.0650  134.8620 O   0  0  0  0  0  1  0  0  0  0  0  0
  179.7550  175.8530  136.5490 C   0  0  0  0  0  2  0  0  0  0  0  0
  180.5800  175.4020  140.1590 C   0  0  0  0  0  0  0  0  0  0  0  0
  182.0370  178.8160  137.2530 C   0  0  0  0  0  0  0  0  0  0  0  0
  179.2290  179.9050  137.5840 O   0  0  0  0  0  1  0  0  0  0  0  0
  179.5940  179.0040  136.5840 C   0  0  0  0  0  2  0  0  0  0  0  0
  178.9360  178.2490  142.9340 O   0  0  0  0  0  0  0  0  0  0  0  0
  179.2630  178.4100  144.3060 C   0  0  0  0  0  1  0  0  0  0  0  0
  178.9310  172.2730  135.6590 C   0  0  0  0  0  2  0  0  0  0  0  0
  179.7510  171.1570  136.1210 N   0  0  0  0  0  0  0  0  0  0  0  0
  179.0080  169.9170  135.9440 C   0  0  0  0  0  1  0  0  0  0  0  0
  181.0490  171.1350  135.4210 C   0  0  0  0  0  2  0  0  0  0  0  0
  183.5150  170.4730  135.6380 C   0  0  0  0  0  2  0  0  0  0  0  0
  182.7930  172.5420  136.7170 C   0  0  0  0  0  2  0  0  0  0  0  0
  184.7430  171.2830  136.0240 C   0  0  0  0  0  2  0  0  0  0  0  0
  184.2780  172.3810  136.9650 C   0  0  0  0  0  2  0  0  0  0  0  0
  182.3300  171.1670  136.2830 C   0  0  0  0  0  3  0  0  0  0  0  0
  183.9140  177.9700  138.7110 C   0  0  0  0  0  2  0  0  0  0  0  0
  186.8190  178.2810  143.5950 C   0  0  0  0  0  2  0  0  0  0  0  0
  185.7110  178.1820  144.4700 O   0  0  0  0  0  0  0  0  0  0  0  0
  184.9870  178.7350  142.3100 C   0  0  2  0  0  3  0  0  0  0  0  0
  186.2540  178.4540  139.7410 C   0  0  0  0  0  2  0  0  0  0  0  0
  183.5830  179.2740  144.2710 C   0  0  0  0  0  1  0  0  0  0  0  0
  184.7400  178.3100  139.9090 C   0  0  0  0  0  0  0  0  0  0  0  0
  186.2960  178.0680  142.2030 C   0  0  1  0  0  3  0  0  0  0  0  0
  184.5460  178.2710  143.6670 C   0  0  2  0  0  3  0  0  0  0  0  0
  184.1530  178.3590  141.1260 C   0  0  0  0  0  3  0  0  0  0  0  0
  187.0330  178.7300  141.0520 C   0  0  0  0  0  2  0  0  0  0  0  0
  1  7  1  0  0  0  0
  2 11  1  0  0  0  0
  2  7  2  0  0  0  0
  3  2  1  0  0  0  0
  4  3  2  0  0  0  0
  4 16  1  0  0  0  0
  5 26  1  6  0  0  0
  5  8  1  0  0  0  0
  6 20  1  0  0  0  0
  7 24  1  0  0  0  0
  8 13  1  0  0  0  0
  9 35  1  6  0  0  0
  9  4  1  0  0  0  0
 10 23  1  6  0  0  0
 10 21  1  0  0  0  0
 12  3  1  0  0  0  0
 12 20  1  0  0  0  0
 13  6  1  0  0  0  0
 14 18  1  6  0  0  0
 14 19  1  0  0  0  0
 14 10  1  0  0  0  0
 15 19  1  0  0  0  0
 15  5  1  0  0  0  0
 16  1  2  0  0  0  0
 17 21  2  0  0  0  0
 20 11  2  0  0  0  0
 21  9  1  0  0  0  0
 23 22  1  0  0  0  0
 24 25  1  0  0  0  0
 26 27  1  0  0  0  0
 28 27  1  0  0  0  0
 29 27  1  0  0  0  0
 29 34  1  0  0  0  0
 30 32  1  0  0  0  0
 30 34  1  0  0  0  0
 31 33  1  0  0  0  0
 32 33  1  0  0  0  0
 34 31  1  0  0  0  0
 35 41  1  0  0  0  0
 36 37  1  0  0  0  0
 38 44  1  6  0  0  0
 38 43  1  0  0  0  0
 39 41  1  0  0  0  0
 39 45  1  0  0  0  0
 41 44  2  0  0  0  0
 42 45  1  6  0  0  0
 42 38  1  0  0  0  0
 42 36  1  0  0  0  0
 43 40  1  1  0  0  0
 43 37  1  0  0  0  0
M  END
>  <MODEL>
7

>  <REMARK>
 VINA RESULT:      -5.1      4.224      7.412
  Name = 
  8 active torsions:
  status: ('A' for Active; 'I' for Inactive)
    1  A    between atoms: C_7  and  C_11
    2  A    between atoms: C_7  and  N_18
    3  A    between atoms: C_13  and  O_34
    4  A    between atoms: N_18  and  C_22
    5  A    between atoms: C_21  and  C_44
    6  A    between atoms: C_22  and  C_26
    7  A    between atoms: C_23  and  C_44
    8  A    between atoms: C_24  and  C_42
                            x       y       z     vdW  Elec       q    Type
                         _______ _______ _______ _____ _____    ______ ____

>  <TORSDO>
F 8

$$$$
=
 OpenBabel11032419423D

 45 50  0  0  1  0  0  0  0  0999 V2000
  178.9460  180.7510  136.4900 C   0  0  0  0  0  3  0  0  0  0  0  0
  181.1770  180.6840  137.3710 C   0  0  0  0  0  0  0  0  0  0  0  0
  181.1670  179.3190  137.3170 C   0  0  0  0  0  0  0  0  0  0  0  0
  180.0490  178.6000  136.8720 C   0  0  0  0  0  0  0  0  0  0  0  0
  184.3450  178.3840  141.9410 C   0  0  1  0  0  3  0  0  0  0  0  0
  184.3050  179.9140  138.8530 C   0  0  0  0  0  2  0  0  0  0  0  0
  180.0730  181.4500  136.9570 C   0  0  0  0  0  0  0  0  0  0  0  0
  185.0100  179.1580  140.8140 C   0  0  0  0  0  2  0  0  0  0  0  0
  179.9800  177.0970  136.8700 C   0  0  2  0  0  3  0  0  0  0  0  0
  180.2200  177.2200  139.4860 C   0  0  1  0  0  3  0  0  0  0  0  0
  182.3330  181.1100  137.9060 N   0  0  0  0  0  0  0  0  0  0  0  0
  182.3150  178.8300  137.8110 N   0  0  0  0  0  2  0  0  0  0  0  0
  184.0850  180.0230  140.2280 O   0  0  0  0  0  0  0  0  0  0  0  0
  181.4600  176.6210  140.1490 C   0  0  2  0  0  3  0  0  0  0  0  0
  183.5500  177.2160  141.3780 C   0  0  0  0  0  2  0  0  0  0  0  0
  178.9310  179.3410  136.4520 C   0  0  0  0  0  3  0  0  0  0  0  0
  179.3630  175.3450  138.3290 O   0  0  0  0  0  0  0  0  0  0  0  0
  181.1370  175.5100  140.9340 O   0  0  0  0  0  1  0  0  0  0  0  0
  182.1580  177.6800  140.9840 C   0  0  0  0  0  2  0  0  0  0  0  0
  182.9960  179.9530  138.1470 C   0  0  0  0  0  0  0  0  0  0  0  0
  179.8130  176.4780  138.2390 C   0  0  0  0  0  0  0  0  0  0  0  0
  179.2480  178.7050  141.1250 O   0  0  0  0  0  1  0  0  0  0  0  0
  179.0560  177.5080  140.4340 C   0  0  0  0  0  2  0  0  0  0  0  0
  180.0330  182.8500  136.9930 O   0  0  0  0  0  0  0  0  0  0  0  0
  180.6220  183.6860  136.0090 C   0  0  0  0  0  1  0  0  0  0  0  0
  185.4120  177.8680  142.9000 C   0  0  0  0  0  2  0  0  0  0  0  0
  185.4310  178.6780  144.1140 N   0  0  0  0  0  0  0  0  0  0  0  0
  184.0840  179.1630  144.3820 C   0  0  0  0  0  1  0  0  0  0  0  0
  185.9840  177.9110  145.2470 C   0  0  0  0  0  2  0  0  0  0  0  0
  187.7850  177.8720  147.0690 C   0  0  0  0  0  2  0  0  0  0  0  0
  188.4700  177.3580  144.7820 C   0  0  0  0  0  2  0  0  0  0  0  0
  189.1740  177.2530  147.0970 C   0  0  0  0  0  2  0  0  0  0  0  0
  189.6920  177.2490  145.6690 C   0  0  0  0  0  2  0  0  0  0  0  0
  187.4680  178.1370  145.6090 C   0  0  0  0  0  3  0  0  0  0  0  0
  181.1340  176.4730  136.0900 C   0  0  0  0  0  2  0  0  0  0  0  0
  179.7630  171.0040  135.3140 C   0  0  0  0  0  2  0  0  0  0  0  0
  180.9540  170.4450  135.8350 O   0  0  0  0  0  0  0  0  0  0  0  0
  181.2740  172.7160  135.3490 C   0  0  2  0  0  3  0  0  0  0  0  0
  179.4030  174.8730  134.9880 C   0  0  0  0  0  2  0  0  0  0  0  0
  183.2070  171.1800  135.4560 C   0  0  0  0  0  1  0  0  0  0  0  0
  180.7800  175.1010  135.6150 C   0  0  0  0  0  0  0  0  0  0  0  0
  179.8340  172.4850  135.5570 C   0  0  1  0  0  3  0  0  0  0  0  0
  181.8530  171.5200  136.0460 C   0  0  2  0  0  3  0  0  0  0  0  0
  181.6270  174.0770  135.8620 C   0  0  0  0  0  3  0  0  0  0  0  0
  179.1000  173.4040  134.5980 C   0  0  0  0  0  2  0  0  0  0  0  0
  1  7  1  0  0  0  0
  2 11  1  0  0  0  0
  3  2  1  0  0  0  0
  3 12  1  0  0  0  0
  4  3  2  0  0  0  0
  5 26  1  1  0  0  0
  6 13  1  0  0  0  0
  7 24  1  0  0  0  0
  7  2  2  0  0  0  0
  8  5  1  0  0  0  0
  9 35  1  1  0  0  0
  9  4  1  0  0  0  0
  9 21  1  0  0  0  0
 10 14  1  0  0  0  0
 10 23  1  1  0  0  0
 11 20  2  0  0  0  0
 12 20  1  0  0  0  0
 13  8  1  0  0  0  0
 14 18  1  1  0  0  0
 14 19  1  0  0  0  0
 15  5  1  0  0  0  0
 16  1  2  0  0  0  0
 16  4  1  0  0  0  0
 19 15  1  0  0  0  0
 20  6  1  0  0  0  0
 21 17  2  0  0  0  0
 21 10  1  0  0  0  0
 23 22  1  0  0  0  0
 25 24  1  0  0  0  0
 26 27  1  0  0  0  0
 27 28  1  0  0  0  0
 27 29  1  0  0  0  0
 29 34  1  0  0  0  0
 30 32  1  0  0  0  0
 31 34  1  0  0  0  0
 31 33  1  0  0  0  0
 33 32  1  0  0  0  0
 34 30  1  0  0  0  0
 36 42  1  0  0  0  0
 36 37  1  0  0  0  0
 37 43  1  0  0  0  0
 38 42  1  0  0  0  0
 38 44  1  1  0  0  0
 38 43  1  0  0  0  0
 39 41  1  0  0  0  0
 41 44  2  0  0  0  0
 41 35  1  0  0  0  0
 42 45  1  6  0  0  0
 43 40  1  6  0  0  0
 45 39  1  0  0  0  0
M  END
>  <MODEL>
8

>  <REMARK>
 VINA RESULT:      -4.9      4.278      8.067
  Name = 
  8 active torsions:
  status: ('A' for Active; 'I' for Inactive)
    1  A    between atoms: C_7  and  C_11
    2  A    between atoms: C_7  and  N_18
    3  A    between atoms: C_13  and  O_34
    4  A    between atoms: N_18  and  C_22
    5  A    between atoms: C_21  and  C_44
    6  A    between atoms: C_22  and  C_26
    7  A    between atoms: C_23  and  C_44
    8  A    between atoms: C_24  and  C_42
                            x       y       z     vdW  Elec       q    Type
                         _______ _______ _______ _____ _____    ______ ____

>  <TORSDO>
F 8

$$$$
=
 OpenBabel11032419423D

 45 50  0  0  1  0  0  0  0  0999 V2000
  192.8210  175.6540  136.9830 C   0  0  0  0  0  3  0  0  0  0  0  0
  191.2360  176.4010  138.6220 C   0  0  0  0  0  0  0  0  0  0  0  0
  190.2800  175.5890  138.0810 C   0  0  0  0  0  0  0  0  0  0  0  0
  190.5330  174.7880  136.9590 C   0  0  0  0  0  0  0  0  0  0  0  0
  185.8100  178.9640  139.0710 C   0  0  1  0  0  3  0  0  0  0  0  0
  188.4070  177.2710  140.5750 C   0  0  0  0  0  2  0  0  0  0  0  0
  192.5390  176.4620  138.0990 C   0  0  0  0  0  0  0  0  0  0  0  0
  186.5730  178.4840  140.2950 C   0  0  0  0  0  2  0  0  0  0  0  0
  189.4810  173.9400  136.2950 C   0  0  2  0  0  3  0  0  0  0  0  0
  188.2040  176.1770  135.7680 C   0  0  1  0  0  3  0  0  0  0  0  0
  190.7100  177.1110  139.6340 N   0  0  0  0  0  0  0  0  0  0  0  0
  189.1160  175.7510  138.7300 N   0  0  0  0  0  2  0  0  0  0  0  0
  187.9410  178.4630  140.0170 O   0  0  0  0  0  0  0  0  0  0  0  0
  186.8340  176.4190  136.4020 C   0  0  2  0  0  3  0  0  0  0  0  0
  185.6320  177.8220  138.0810 C   0  0  0  0  0  2  0  0  0  0  0  0
  191.8280  174.8300  136.4150 C   0  0  0  0  0  3  0  0  0  0  0  0
  187.8290  174.1450  134.6200 O   0  0  0  0  0  0  0  0  0  0  0  0
  185.8190  176.4350  135.4410 O   0  0  0  0  0  1  0  0  0  0  0  0
  186.8520  177.7230  137.1820 C   0  0  0  0  0  2  0  0  0  0  0  0
  189.4270  176.6770  139.6700 C   0  0  0  0  0  0  0  0  0  0  0  0
  188.4650  174.7190  135.4910 C   0  0  0  0  0  0  0  0  0  0  0  0
  189.8280  177.6240  134.7160 O   0  0  0  0  0  1  0  0  0  0  0  0
  188.5430  177.0930  134.5940 C   0  0  0  0  0  2  0  0  0  0  0  0
  193.5540  177.2780  138.6160 O   0  0  0  0  0  0  0  0  0  0  0  0
  193.6580  177.6450  139.9830 C   0  0  0  0  0  1  0  0  0  0  0  0
  184.4460  179.4930  139.4980 C   0  0  0  0  0  2  0  0  0  0  0  0
  183.6590  178.4230  140.1040 N   0  0  0  0  0  0  0  0  0  0  0  0
  183.5750  178.6510  141.5400 C   0  0  0  0  0  1  0  0  0  0  0  0
  182.3280  178.3300  139.4750 C   0  0  0  0  0  2  0  0  0  0  0  0
  180.9700  176.1810  139.1510 C   0  0  0  0  0  2  0  0  0  0  0  0
  181.6640  177.4000  137.1520 C   0  0  0  0  0  2  0  0  0  0  0  0
  180.1890  175.6560  137.9560 C   0  0  0  0  0  2  0  0  0  0  0  0
  180.8660  176.1930  136.7070 C   0  0  0  0  0  2  0  0  0  0  0  0
  182.0390  177.0990  138.5880 C   0  0  0  0  0  3  0  0  0  0  0  0
  188.8250  172.9730  137.2770 C   0  0  0  0  0  2  0  0  0  0  0  0
  183.9770  171.6730  134.5940 C   0  0  0  0  0  2  0  0  0  0  0  0
  183.1450  172.6020  135.2640 O   0  0  0  0  0  0  0  0  0  0  0  0
  185.1430  172.2990  136.4540 C   0  0  2  0  0  3  0  0  0  0  0  0
  187.7100  171.2770  135.6490 C   0  0  0  0  0  2  0  0  0  0  0  0
  183.1160  173.1170  137.6080 C   0  0  0  0  0  1  0  0  0  0  0  0
  187.5800  172.3840  136.6970 C   0  0  0  0  0  0  0  0  0  0  0  0
  185.3840  171.9410  135.0460 C   0  0  1  0  0  3  0  0  0  0  0  0
  183.9150  173.1510  136.3200 C   0  0  2  0  0  3  0  0  0  0  0  0
  186.3810  172.9230  137.0160 C   0  0  0  0  0  3  0  0  0  0  0  0
  186.3680  170.7850  135.0500 C   0  0  0  0  0  2  0  0  0  0  0  0
  1  7  1  0  0  0  0
  2 11  1  0  0  0  0
  3  2  1  0  0  0  0
  3 12  1  0  0  0  0
  4  3  2  0  0  0  0
  5 26  1  1  0  0  0
  5  8  1  0  0  0  0
  7 24  1  0  0  0  0
  7  2  2  0  0  0  0
  9  4  1  0  0  0  0
  9 35  1  1  0  0  0
 10 23  1  6  0  0  0
 10 14  1  0  0  0  0
 11 20  2  0  0  0  0
 12 20  1  0  0  0  0
 13  8  1  0  0  0  0
 13  6  1  0  0  0  0
 14 18  1  6  0  0  0
 14 19  1  0  0  0  0
 15  5  1  0  0  0  0
 16  4  1  0  0  0  0
 16  1  2  0  0  0  0
 17 21  2  0  0  0  0
 19 15  1  0  0  0  0
 20  6  1  0  0  0  0
 21 10  1  0  0  0  0
 21  9  1  0  0  0  0
 23 22  1  0  0  0  0
 24 25  1  0  0  0  0
 26 27  1  0  0  0  0
 27 28  1  0  0  0  0
 29 27  1  0  0  0  0
 31 34  1  0  0  0  0
 32 30  1  0  0  0  0
 33 31  1  0  0  0  0
 33 32  1  0  0  0  0
 34 30  1  0  0  0  0
 34 29  1  0  0  0  0
 36 37  1  0  0  0  0
 37 43  1  0  0  0  0
 38 44  1  6  0  0  0
 39 41  1  0  0  0  0
 41 44  2  0  0  0  0
 41 35  1  0  0  0  0
 42 36  1  1  0  0  0
 42 45  1  0  0  0  0
 42 38  1  0  0  0  0
 43 38  1  0  0  0  0
 43 40  1  1  0  0  0
 45 39  1  0  0  0  0
M  END
>  <MODEL>
9

>  <REMARK>
 VINA RESULT:      -4.8      3.717      9.413
  Name = 
  8 active torsions:
  status: ('A' for Active; 'I' for Inactive)
    1  A    between atoms: C_7  and  C_11
    2  A    between atoms: C_7  and  N_18
    3  A    between atoms: C_13  and  O_34
    4  A    between atoms: N_18  and  C_22
    5  A    between atoms: C_21  and  C_44
    6  A    between atoms: C_22  and  C_26
    7  A    between atoms: C_23  and  C_44
    8  A    between atoms: C_24  and  C_42
                            x       y       z     vdW  Elec       q    Type
                         _______ _______ _______ _____ _____    ______ ____

>  <TORSDO>
F 8

$$$$
