=
 OpenBabel11042412583D

 42 47  0  0  1  0  0  0  0  0999 V2000
  188.5500  178.4670  139.9930 C   0  0  2  0  0  3  0  0  0  0  0  0
  188.0690  178.8890  141.3300 C   0  0  1  0  0  3  0  0  0  0  0  0
  185.7520  178.7530  140.5340 C   0  0  0  0  0  0  0  0  0  0  0  0
  186.6060  178.8520  141.5050 N   0  0  0  0  0  0  0  0  0  0  0  0
  187.5070  177.9450  139.0080 C   0  0  1  0  0  3  0  0  0  0  0  0
  188.5870  177.5260  141.1270 N   0  0  0  0  0  0  0  0  0  0  0  0
  186.2080  178.5650  139.2020 N   0  0  0  0  0  2  0  0  0  0  0  0
  183.9970  178.7840  140.8880 S   0  0  0  0  0  0  0  0  0  0  0  0
  184.2160  178.1990  142.5960 C   0  0  0  0  0  2  0  0  0  0  0  0
  184.2220  178.9140  144.9700 C   0  0  0  0  0  1  0  0  0  0  0  0
  183.7400  179.2570  143.5740 C   0  0  0  0  0  2  0  0  0  0  0  0
  189.9530  177.5040  141.6510 C   0  0  0  0  0  2  0  0  0  0  0  0
  190.5390  175.3640  142.9120 C   0  0  0  0  0  1  0  0  0  0  0  0
  190.0430  176.8020  143.0140 C   0  0  1  0  0  3  0  0  0  0  0  0
  191.0330  177.7890  144.1970 S   0  0  0  0  0  0  0  0  0  0  0  0
  189.9190  177.5820  147.6750 C   0  0  0  0  0  0  0  0  0  0  0  0
  191.3090  177.3940  147.8050 N   0  0  0  0  0  0  0  0  0  0  0  0
  191.8410  176.8200  146.6300 N   0  0  0  0  0  0  0  0  0  0  0  0
  189.5170  177.2400  146.4260 C   0  0  0  0  0  0  0  0  0  0  0  0
  187.2620  177.8620  146.9610 C   0  0  0  0  0  3  0  0  0  0  0  0
  188.1840  177.3570  146.0260 C   0  0  0  0  0  3  0  0  0  0  0  0
  190.7080  176.7500  145.6760 C   0  0  1  0  0  3  0  0  0  0  0  0
  189.0430  178.1170  148.6180 C   0  0  0  0  0  3  0  0  0  0  0  0
  187.6910  178.2520  148.2500 C   0  0  0  0  0  3  0  0  0  0  0  0
  187.9880  178.1000  137.5810 C   0  0  0  0  0  2  0  0  0  0  0  0
  189.4520  177.6970  137.5320 C   0  0  0  0  0  2  0  0  0  0  0  0
  190.2930  176.7000  134.9620 C   0  0  0  0  0  1  0  0  0  0  0  0
  190.5740  175.9700  136.2820 C   0  0  2  0  0  3  0  0  0  0  0  0
  190.7020  174.4560  136.0170 C   0  0  2  0  0  3  0  0  0  0  0  0
  188.2770  175.7130  136.9400 C   0  0  0  0  0  2  0  0  0  0  0  0
  189.7610  173.6310  136.9000 C   0  0  0  0  0  2  0  0  0  0  0  0
  188.3270  174.1810  136.8510 C   0  0  0  0  0  2  0  0  0  0  0  0
  189.5780  176.2560  137.3320 N   0  0  0  0  0  0  0  0  0  0  0  0
  192.1110  174.0090  136.2270 C   0  0  0  0  0  0  0  0  0  0  0  0
  193.0250  174.8600  136.9340 N   0  0  0  0  0  2  0  0  0  0  0  0
  192.4750  172.8900  135.7800 O   0  0  0  0  0  0  0  0  0  0  0  0
  195.3700  175.0500  136.3010 C   0  0  0  0  0  3  0  0  0  0  0  0
  194.4060  174.6030  137.2110 C   0  0  0  0  0  0  0  0  0  0  0  0
  197.1290  174.1090  137.6720 C   0  0  0  0  0  3  0  0  0  0  0  0
  196.7280  174.8080  136.5280 C   0  0  0  0  0  3  0  0  0  0  0  0
  196.1740  173.6500  138.5800 C   0  0  0  0  0  3  0  0  0  0  0  0
  194.8150  173.8910  138.3500 C   0  0  0  0  0  3  0  0  0  0  0  0
  1  6  1  1  0  0  0
  1  2  1  0  0  0  0
  2  4  1  6  0  0  0
  3  8  1  0  0  0  0
  3  4  2  0  0  0  0
  5 25  1  6  0  0  0
  5  7  1  0  0  0  0
  5  1  1  0  0  0  0
  6  2  1  0  0  0  0
  6 12  1  0  0  0  0
  7  3  1  0  0  0  0
  8  9  1  0  0  0  0
  9 11  1  0  0  0  0
 11 10  1  0  0  0  0
 12 14  1  0  0  0  0
 14 13  1  6  0  0  0
 14 15  1  0  0  0  0
 16 17  1  0  0  0  0
 16 23  1  0  0  0  0
 18 17  2  0  0  0  0
 19 16  2  0  0  0  0
 20 24  1  0  0  0  0
 21 19  1  0  0  0  0
 21 20  2  0  0  0  0
 22 15  1  6  0  0  0
 22 19  1  0  0  0  0
 22 18  1  0  0  0  0
 24 23  2  0  0  0  0
 26 25  1  0  0  0  0
 28 27  1  6  0  0  0
 28 33  1  0  0  0  0
 29 34  1  1  0  0  0
 29 28  1  0  0  0  0
 29 31  1  0  0  0  0
 30 33  1  0  0  0  0
 32 31  1  0  0  0  0
 32 30  1  0  0  0  0
 33 26  1  0  0  0  0
 34 35  1  0  0  0  0
 35 38  1  0  0  0  0
 36 34  2  0  0  0  0
 37 40  2  0  0  0  0
 37 38  1  0  0  0  0
 38 42  2  0  0  0  0
 39 41  2  0  0  0  0
 40 39  1  0  0  0  0
 42 41  1  0  0  0  0
M  END
>  <MODEL>
1

>  <REMARK>
 VINA RESULT:      -8.7      0.000      0.000
  Name = 
  12 active torsions:
  status: ('A' for Active; 'I' for Inactive)
    1  A    between atoms: C_7  and  C_8
    2  A    between atoms: N_11  and  C_19
    3  A    between atoms: C_12  and  C_29
    4  A    between atoms: S_15  and  C_29
    5  A    between atoms: S_15  and  C_32
    6  A    between atoms: C_18  and  C_26
    7  A    between atoms: C_18  and  N_35
    8  A    between atoms: S_22  and  C_26
    9  A    between atoms: S_22  and  C_31
   10  A    between atoms: N_30  and  C_40
   11  A    between atoms: C_34  and  C_39
   12  A    between atoms: C_39  and  C_40
                            x       y       z     vdW  Elec       q    Type
                         _______ _______ _______ _____ _____    ______ ____

>  <TORSDO>
F 12

$$$$
=
 OpenBabel11042412583D

 42 47  0  0  1  0  0  0  0  0999 V2000
  184.4000  175.6080  136.6880 C   0  0  2  0  0  3  0  0  0  0  0  0
  183.0400  175.6470  136.1000 C   0  0  1  0  0  3  0  0  0  0  0  0
  182.9960  173.1950  136.0500 C   0  0  0  0  0  0  0  0  0  0  0  0
  182.3850  174.3350  135.9600 N   0  0  0  0  0  0  0  0  0  0  0  0
  184.9110  174.2550  137.1780 C   0  0  1  0  0  3  0  0  0  0  0  0
  183.2380  175.9630  137.5240 N   0  0  0  0  0  0  0  0  0  0  0  0
  184.3710  173.1500  136.4040 N   0  0  0  0  0  2  0  0  0  0  0  0
  182.0840  171.6750  135.7970 S   0  0  0  0  0  0  0  0  0  0  0  0
  180.4660  172.4740  136.0220 C   0  0  0  0  0  2  0  0  0  0  0  0
  179.8740  173.1590  138.3300 C   0  0  0  0  0  1  0  0  0  0  0  0
  179.8390  172.0220  137.3270 C   0  0  0  0  0  2  0  0  0  0  0  0
  183.2010  177.4200  137.6490 C   0  0  0  0  0  2  0  0  0  0  0  0
  184.0010  179.4290  139.0050 C   0  0  0  0  0  1  0  0  0  0  0  0
  183.8650  177.9110  138.9440 C   0  0  1  0  0  3  0  0  0  0  0  0
  183.0110  177.2370  140.4160 S   0  0  0  0  0  0  0  0  0  0  0  0
  182.8080  178.9570  143.6380 C   0  0  0  0  0  0  0  0  0  0  0  0
  181.4920  179.0890  143.1570 N   0  0  0  0  0  0  0  0  0  0  0  0
  181.4790  179.0810  141.7450 N   0  0  0  0  0  0  0  0  0  0  0  0
  183.6660  178.7690  142.6050 C   0  0  0  0  0  0  0  0  0  0  0  0
  185.5030  178.5790  144.1380 C   0  0  0  0  0  3  0  0  0  0  0  0
  185.0350  178.5830  142.8110 C   0  0  0  0  0  3  0  0  0  0  0  0
  182.8810  178.8190  141.3390 C   0  0  1  0  0  3  0  0  0  0  0  0
  183.2270  178.9250  144.9680 C   0  0  0  0  0  3  0  0  0  0  0  0
  184.6000  178.7380  145.2140 C   0  0  0  0  0  3  0  0  0  0  0  0
  186.4240  174.2270  137.2020 C   0  0  0  0  0  2  0  0  0  0  0  0
  186.9290  175.4700  136.4870 C   0  0  0  0  0  2  0  0  0  0  0  0
  187.0560  178.3120  136.9470 C   0  0  0  0  0  1  0  0  0  0  0  0
  187.7050  177.2780  137.8770 C   0  0  2  0  0  3  0  0  0  0  0  0
  188.9110  177.9160  138.5960 C   0  0  2  0  0  3  0  0  0  0  0  0
  189.1460  176.2970  136.2230 C   0  0  0  0  0  2  0  0  0  0  0  0
  190.1940  177.1020  138.4120 C   0  0  0  0  0  2  0  0  0  0  0  0
  190.4270  176.7580  136.9320 C   0  0  0  0  0  2  0  0  0  0  0  0
  188.0820  176.0280  137.1890 N   0  0  0  0  0  0  0  0  0  0  0  0
  188.6210  178.0790  140.0520 C   0  0  0  0  0  0  0  0  0  0  0  0
  189.4840  177.4600  141.0180 N   0  0  0  0  0  2  0  0  0  0  0  0
  187.6240  178.7580  140.4090 O   0  0  0  0  0  0  0  0  0  0  0  0
  190.1530  178.3790  143.1730 C   0  0  0  0  0  3  0  0  0  0  0  0
  189.3500  177.4960  142.4430 C   0  0  0  0  0  0  0  0  0  0  0  0
  189.1620  177.6000  145.2410 C   0  0  0  0  0  3  0  0  0  0  0  0
  190.0600  178.4350  144.5670 C   0  0  0  0  0  3  0  0  0  0  0  0
  188.3630  176.7100  144.5210 C   0  0  0  0  0  3  0  0  0  0  0  0
  188.4580  176.6520  143.1260 C   0  0  0  0  0  3  0  0  0  0  0  0
  1  5  1  0  0  0  0
  1  6  1  1  0  0  0
  2  4  1  1  0  0  0
  2  1  1  0  0  0  0
  2  6  1  0  0  0  0
  3  7  1  0  0  0  0
  4  3  2  0  0  0  0
  5 25  1  6  0  0  0
  6 12  1  0  0  0  0
  7  5  1  0  0  0  0
  8  9  1  0  0  0  0
  8  3  1  0  0  0  0
  9 11  1  0  0  0  0
 11 10  1  0  0  0  0
 12 14  1  0  0  0  0
 14 13  1  1  0  0  0
 14 15  1  0  0  0  0
 16 23  1  0  0  0  0
 17 16  1  0  0  0  0
 18 17  2  0  0  0  0
 19 21  1  0  0  0  0
 19 16  2  0  0  0  0
 20 24  1  0  0  0  0
 21 20  2  0  0  0  0
 22 15  1  1  0  0  0
 22 18  1  0  0  0  0
 22 19  1  0  0  0  0
 23 24  2  0  0  0  0
 26 33  1  0  0  0  0
 26 25  1  0  0  0  0
 28 27  1  6  0  0  0
 28 29  1  0  0  0  0
 29 34  1  1  0  0  0
 30 32  1  0  0  0  0
 30 33  1  0  0  0  0
 31 29  1  0  0  0  0
 32 31  1  0  0  0  0
 33 28  1  0  0  0  0
 34 36  2  0  0  0  0
 34 35  1  0  0  0  0
 35 38  1  0  0  0  0
 37 40  1  0  0  0  0
 38 42  1  0  0  0  0
 38 37  2  0  0  0  0
 40 39  2  0  0  0  0
 41 39  1  0  0  0  0
 42 41  2  0  0  0  0
M  END
>  <MODEL>
2

>  <REMARK>
 VINA RESULT:      -8.6      4.019      7.542
  Name = 
  12 active torsions:
  status: ('A' for Active; 'I' for Inactive)
    1  A    between atoms: C_7  and  C_8
    2  A    between atoms: N_11  and  C_19
    3  A    between atoms: C_12  and  C_29
    4  A    between atoms: S_15  and  C_29
    5  A    between atoms: S_15  and  C_32
    6  A    between atoms: C_18  and  C_26
    7  A    between atoms: C_18  and  N_35
    8  A    between atoms: S_22  and  C_26
    9  A    between atoms: S_22  and  C_31
   10  A    between atoms: N_30  and  C_40
   11  A    between atoms: C_34  and  C_39
   12  A    between atoms: C_39  and  C_40
                            x       y       z     vdW  Elec       q    Type
                         _______ _______ _______ _____ _____    ______ ____

>  <TORSDO>
F 12

$$$$
=
 OpenBabel11042412583D

 42 47  0  0  1  0  0  0  0  0999 V2000
  183.4020  178.3770  138.1750 C   0  0  2  0  0  3  0  0  0  0  0  0
  182.0260  177.8670  137.9720 C   0  0  1  0  0  3  0  0  0  0  0  0
  182.9360  175.8030  137.0080 C   0  0  0  0  0  0  0  0  0  0  0  0
  181.9410  176.4740  137.4990 N   0  0  0  0  0  0  0  0  0  0  0  0
  184.5490  177.3870  137.9840 C   0  0  1  0  0  3  0  0  0  0  0  0
  182.6080  177.9070  139.3240 N   0  0  0  0  0  0  0  0  0  0  0  0
  184.2390  176.3690  136.9950 N   0  0  0  0  0  2  0  0  0  0  0  0
  182.6750  174.1350  136.4120 S   0  0  0  0  0  0  0  0  0  0  0  0
  184.4520  173.8030  136.2210 C   0  0  0  0  0  2  0  0  0  0  0  0
  186.4830  173.0200  137.4080 C   0  0  0  0  0  1  0  0  0  0  0  0
  184.9660  173.0160  137.4120 C   0  0  0  0  0  2  0  0  0  0  0  0
  182.0500  179.0800  139.9970 C   0  0  0  0  0  2  0  0  0  0  0  0
  180.8960  178.5730  142.2170 C   0  0  0  0  0  1  0  0  0  0  0  0
  182.1880  178.9950  141.5240 C   0  0  1  0  0  3  0  0  0  0  0  0
  183.6020  177.9350  141.9990 S   0  0  0  0  0  0  0  0  0  0  0  0
  185.2950  178.5540  145.1820 C   0  0  0  0  0  0  0  0  0  0  0  0
  184.0310  179.1310  145.4100 N   0  0  0  0  0  0  0  0  0  0  0  0
  183.4620  179.5690  144.1950 N   0  0  0  0  0  0  0  0  0  0  0  0
  185.5530  178.5060  143.8510 C   0  0  0  0  0  0  0  0  0  0  0  0
  187.6540  177.4270  144.2770 C   0  0  0  0  0  3  0  0  0  0  0  0
  186.7340  177.9550  143.3520 C   0  0  0  0  0  3  0  0  0  0  0  0
  184.4040  179.1320  143.1370 C   0  0  1  0  0  3  0  0  0  0  0  0
  186.1640  178.0110  146.1270 C   0  0  0  0  0  3  0  0  0  0  0  0
  187.3640  177.4440  145.6600 C   0  0  0  0  0  3  0  0  0  0  0  0
  185.8360  178.1100  137.6500 C   0  0  0  0  0  2  0  0  0  0  0  0
  186.6150  177.2550  136.6640 C   0  0  0  0  0  2  0  0  0  0  0  0
  188.8290  179.0350  137.1510 C   0  0  0  0  0  1  0  0  0  0  0  0
  188.5300  177.8050  138.0190 C   0  0  2  0  0  3  0  0  0  0  0  0
  189.8370  177.2940  138.6580 C   0  0  2  0  0  3  0  0  0  0  0  0
  188.7010  176.1830  136.2530 C   0  0  0  0  0  2  0  0  0  0  0  0
  190.0820  175.8110  138.3720 C   0  0  0  0  0  2  0  0  0  0  0  0
  189.9260  175.4990  136.8760 C   0  0  0  0  0  2  0  0  0  0  0  0
  187.8270  176.7320  137.2900 N   0  0  0  0  0  0  0  0  0  0  0  0
  189.8190  177.5280  140.1330 C   0  0  0  0  0  0  0  0  0  0  0  0
  190.9570  177.1510  140.9230 N   0  0  0  0  0  2  0  0  0  0  0  0
  188.8050  178.0540  140.6600 O   0  0  0  0  0  0  0  0  0  0  0  0
  191.0740  176.1320  143.1320 C   0  0  0  0  0  3  0  0  0  0  0  0
  191.1060  177.2850  142.3400 C   0  0  0  0  0  0  0  0  0  0  0  0
  191.3630  177.4730  145.1280 C   0  0  0  0  0  3  0  0  0  0  0  0
  191.2040  176.2220  144.5210 C   0  0  0  0  0  3  0  0  0  0  0  0
  191.3860  178.6290  144.3460 C   0  0  0  0  0  3  0  0  0  0  0  0
  191.2540  178.5380  142.9560 C   0  0  0  0  0  3  0  0  0  0  0  0
  1  6  1  1  0  0  0
  2  4  1  6  0  0  0
  2  1  1  0  0  0  0
  2  6  1  0  0  0  0
  3  4  2  0  0  0  0
  5 25  1  6  0  0  0
  5  1  1  0  0  0  0
  6 12  1  0  0  0  0
  7  3  1  0  0  0  0
  7  5  1  0  0  0  0
  8  3  1  0  0  0  0
  9  8  1  0  0  0  0
  9 11  1  0  0  0  0
 10 11  1  0  0  0  0
 12 14  1  0  0  0  0
 14 15  1  0  0  0  0
 14 13  1  1  0  0  0
 16 17  1  0  0  0  0
 16 23  1  0  0  0  0
 18 17  2  0  0  0  0
 19 16  2  0  0  0  0
 20 24  1  0  0  0  0
 21 19  1  0  0  0  0
 21 20  2  0  0  0  0
 22 15  1  6  0  0  0
 22 19  1  0  0  0  0
 22 18  1  0  0  0  0
 24 23  2  0  0  0  0
 26 33  1  0  0  0  0
 26 25  1  0  0  0  0
 28 27  1  6  0  0  0
 28 29  1  0  0  0  0
 29 34  1  1  0  0  0
 30 32  1  0  0  0  0
 30 33  1  0  0  0  0
 31 29  1  0  0  0  0
 32 31  1  0  0  0  0
 33 28  1  0  0  0  0
 34 36  2  0  0  0  0
 34 35  1  0  0  0  0
 35 38  1  0  0  0  0
 37 40  1  0  0  0  0
 38 42  1  0  0  0  0
 38 37  2  0  0  0  0
 40 39  2  0  0  0  0
 41 39  1  0  0  0  0
 42 41  2  0  0  0  0
M  END
>  <MODEL>
3

>  <REMARK>
 VINA RESULT:      -8.6      3.707      6.392
  Name = 
  12 active torsions:
  status: ('A' for Active; 'I' for Inactive)
    1  A    between atoms: C_7  and  C_8
    2  A    between atoms: N_11  and  C_19
    3  A    between atoms: C_12  and  C_29
    4  A    between atoms: S_15  and  C_29
    5  A    between atoms: S_15  and  C_32
    6  A    between atoms: C_18  and  C_26
    7  A    between atoms: C_18  and  N_35
    8  A    between atoms: S_22  and  C_26
    9  A    between atoms: S_22  and  C_31
   10  A    between atoms: N_30  and  C_40
   11  A    between atoms: C_34  and  C_39
   12  A    between atoms: C_39  and  C_40
                            x       y       z     vdW  Elec       q    Type
                         _______ _______ _______ _____ _____    ______ ____

>  <TORSDO>
F 12

$$$$
=
 OpenBabel11042412583D

 42 47  0  0  1  0  0  0  0  0999 V2000
  188.6410  177.3310  138.6770 C   0  0  2  0  0  3  0  0  0  0  0  0
  189.6900  176.3520  139.0490 C   0  0  1  0  0  3  0  0  0  0  0  0
  190.5340  176.3880  136.7460 C   0  0  0  0  0  0  0  0  0  0  0  0
  190.6800  176.0700  137.9950 N   0  0  0  0  0  0  0  0  0  0  0  0
  188.7680  178.0060  137.3140 C   0  0  1  0  0  3  0  0  0  0  0  0
  189.8010  177.7540  139.4830 N   0  0  0  0  0  0  0  0  0  0  0  0
  189.4090  177.1490  136.3320 N   0  0  0  0  0  2  0  0  0  0  0  0
  191.7930  175.9270  135.5600 S   0  0  0  0  0  0  0  0  0  0  0  0
  193.0430  175.6010  136.8400 C   0  0  0  0  0  2  0  0  0  0  0  0
  194.4030  173.7310  137.7330 C   0  0  0  0  0  1  0  0  0  0  0  0
  193.8570  174.3740  136.4730 C   0  0  0  0  0  2  0  0  0  0  0  0
  189.3820  177.8040  140.8840 C   0  0  0  0  0  2  0  0  0  0  0  0
  191.8950  177.4830  141.1950 C   0  0  0  0  0  1  0  0  0  0  0  0
  190.5170  177.4190  141.8450 C   0  0  1  0  0  3  0  0  0  0  0  0
  190.4360  178.4050  143.3850 S   0  0  0  0  0  0  0  0  0  0  0  0
  189.5120  177.2640  146.7360 C   0  0  0  0  0  0  0  0  0  0  0  0
  190.8880  176.9690  146.7000 N   0  0  0  0  0  0  0  0  0  0  0  0
  191.3070  176.7310  145.3730 N   0  0  0  0  0  0  0  0  0  0  0  0
  189.0140  177.3220  145.4750 C   0  0  0  0  0  0  0  0  0  0  0  0
  186.8460  177.8880  146.3370 C   0  0  0  0  0  3  0  0  0  0  0  0
  187.6730  177.6240  145.2290 C   0  0  0  0  0  3  0  0  0  0  0  0
  190.1190  177.0030  144.5280 C   0  0  1  0  0  3  0  0  0  0  0  0
  188.7340  177.5530  147.8560 C   0  0  0  0  0  3  0  0  0  0  0  0
  187.3780  177.8640  147.6460 C   0  0  0  0  0  3  0  0  0  0  0  0
  187.4210  178.4960  136.8270 C   0  0  0  0  0  2  0  0  0  0  0  0
  186.6930  177.3210  136.1960 C   0  0  0  0  0  2  0  0  0  0  0  0
  185.2600  174.9890  137.0990 C   0  0  0  0  0  1  0  0  0  0  0  0
  184.8440  176.4230  137.4530 C   0  0  2  0  0  3  0  0  0  0  0  0
  183.3240  176.4720  137.7100 C   0  0  2  0  0  3  0  0  0  0  0  0
  184.5380  177.1800  135.1930 C   0  0  0  0  0  2  0  0  0  0  0  0
  182.6250  177.5290  136.8520 C   0  0  0  0  0  2  0  0  0  0  0  0
  183.0310  177.4060  135.3750 C   0  0  0  0  0  2  0  0  0  0  0  0
  185.2570  177.4180  136.4440 N   0  0  0  0  0  0  0  0  0  0  0  0
  183.0500  176.7320  139.1550 C   0  0  0  0  0  0  0  0  0  0  0  0
  183.6870  177.8400  139.8070 N   0  0  0  0  0  2  0  0  0  0  0  0
  182.2610  175.9740  139.7770 O   0  0  0  0  0  0  0  0  0  0  0  0
  184.6840  178.1810  142.0040 C   0  0  0  0  0  3  0  0  0  0  0  0
  183.5540  178.2250  141.1800 C   0  0  0  0  0  0  0  0  0  0  0  0
  183.3630  178.9380  143.8870 C   0  0  0  0  0  3  0  0  0  0  0  0
  184.5930  178.5380  143.3520 C   0  0  0  0  0  3  0  0  0  0  0  0
  182.2290  178.9760  143.0740 C   0  0  0  0  0  3  0  0  0  0  0  0
  182.3200  178.6170  141.7250 C   0  0  0  0  0  3  0  0  0  0  0  0
  1  2  1  0  0  0  0
  1  6  1  1  0  0  0
  2  4  1  6  0  0  0
  2  6  1  0  0  0  0
  3  4  2  0  0  0  0
  5 25  1  6  0  0  0
  5  1  1  0  0  0  0
  6 12  1  0  0  0  0
  7  3  1  0  0  0  0
  7  5  1  0  0  0  0
  8  3  1  0  0  0  0
  8  9  1  0  0  0  0
 11  9  1  0  0  0  0
 11 10  1  0  0  0  0
 12 14  1  0  0  0  0
 14 13  1  6  0  0  0
 14 15  1  0  0  0  0
 16 23  1  0  0  0  0
 17 16  1  0  0  0  0
 18 17  2  0  0  0  0
 19 16  2  0  0  0  0
 20 24  1  0  0  0  0
 21 19  1  0  0  0  0
 21 20  2  0  0  0  0
 22 15  1  6  0  0  0
 22 18  1  0  0  0  0
 22 19  1  0  0  0  0
 24 23  2  0  0  0  0
 26 33  1  0  0  0  0
 26 25  1  0  0  0  0
 28 27  1  6  0  0  0
 28 29  1  0  0  0  0
 29 34  1  1  0  0  0
 30 32  1  0  0  0  0
 30 33  1  0  0  0  0
 31 29  1  0  0  0  0
 32 31  1  0  0  0  0
 33 28  1  0  0  0  0
 34 36  2  0  0  0  0
 34 35  1  0  0  0  0
 35 38  1  0  0  0  0
 37 40  1  0  0  0  0
 38 42  1  0  0  0  0
 38 37  2  0  0  0  0
 40 39  2  0  0  0  0
 41 39  1  0  0  0  0
 42 41  2  0  0  0  0
M  END
>  <MODEL>
4

>  <REMARK>
 VINA RESULT:      -8.5      3.100      7.774
  Name = 
  12 active torsions:
  status: ('A' for Active; 'I' for Inactive)
    1  A    between atoms: C_7  and  C_8
    2  A    between atoms: N_11  and  C_19
    3  A    between atoms: C_12  and  C_29
    4  A    between atoms: S_15  and  C_29
    5  A    between atoms: S_15  and  C_32
    6  A    between atoms: C_18  and  C_26
    7  A    between atoms: C_18  and  N_35
    8  A    between atoms: S_22  and  C_26
    9  A    between atoms: S_22  and  C_31
   10  A    between atoms: N_30  and  C_40
   11  A    between atoms: C_34  and  C_39
   12  A    between atoms: C_39  and  C_40
                            x       y       z     vdW  Elec       q    Type
                         _______ _______ _______ _____ _____    ______ ____

>  <TORSDO>
F 12

$$$$
=
 OpenBabel11042412583D

 42 47  0  0  1  0  0  0  0  0999 V2000
  189.2990  177.3650  139.5230 C   0  0  2  0  0  3  0  0  0  0  0  0
  190.3410  176.3780  139.8900 C   0  0  1  0  0  3  0  0  0  0  0  0
  191.1590  176.3850  137.5780 C   0  0  0  0  0  0  0  0  0  0  0  0
  191.3160  176.0760  138.8270 N   0  0  0  0  0  0  0  0  0  0  0  0
  189.4170  178.0270  138.1520 C   0  0  1  0  0  3  0  0  0  0  0  0
  190.4720  177.7820  140.3110 N   0  0  0  0  0  0  0  0  0  0  0  0
  190.0370  177.1540  137.1700 N   0  0  0  0  0  2  0  0  0  0  0  0
  192.3990  175.9000  136.3800 S   0  0  0  0  0  0  0  0  0  0  0  0
  193.2310  174.7650  137.5320 C   0  0  0  0  0  2  0  0  0  0  0  0
  194.9700  175.3820  135.8770 C   0  0  0  0  0  1  0  0  0  0  0  0
  194.6990  174.6420  137.1720 C   0  0  0  0  0  2  0  0  0  0  0  0
  190.0710  177.8490  141.7160 C   0  0  0  0  0  2  0  0  0  0  0  0
  191.3970  176.4670  143.4040 C   0  0  0  0  0  1  0  0  0  0  0  0
  190.2230  176.4980  142.4300 C   0  0  1  0  0  3  0  0  0  0  0  0
  188.6540  175.9970  143.2280 S   0  0  0  0  0  0  0  0  0  0  0  0
  187.0580  177.9950  145.8440 C   0  0  0  0  0  0  0  0  0  0  0  0
  186.1300  178.1040  144.7910 N   0  0  0  0  0  0  0  0  0  0  0  0
  186.7800  177.9720  143.5450 N   0  0  0  0  0  0  0  0  0  0  0  0
  188.2890  177.7040  145.3540 C   0  0  0  0  0  0  0  0  0  0  0  0
  189.1780  177.6230  147.5810 C   0  0  0  0  0  3  0  0  0  0  0  0
  189.3880  177.5180  146.1940 C   0  0  0  0  0  3  0  0  0  0  0  0
  188.1920  177.6550  143.8680 C   0  0  1  0  0  3  0  0  0  0  0  0
  186.8020  178.0730  147.2130 C   0  0  0  0  0  3  0  0  0  0  0  0
  187.8870  177.8890  148.0900 C   0  0  0  0  0  3  0  0  0  0  0  0
  188.0690  178.5270  137.6770 C   0  0  0  0  0  2  0  0  0  0  0  0
  187.7130  177.7810  136.4020 C   0  0  0  0  0  2  0  0  0  0  0  0
  186.5370  175.2280  137.0390 C   0  0  0  0  0  1  0  0  0  0  0  0
  185.8020  176.5630  137.2200 C   0  0  2  0  0  3  0  0  0  0  0  0
  184.2810  176.3360  137.1030 C   0  0  2  0  0  3  0  0  0  0  0  0
  185.9260  177.2510  134.9200 C   0  0  0  0  0  2  0  0  0  0  0  0
  183.6360  177.2480  136.0560 C   0  0  0  0  0  2  0  0  0  0  0  0
  184.4040  177.2000  134.7260 C   0  0  0  0  0  2  0  0  0  0  0  0
  186.2660  177.6160  136.2950 N   0  0  0  0  0  0  0  0  0  0  0  0
  183.6220  176.5420  138.4270 C   0  0  0  0  0  0  0  0  0  0  0  0
  183.5960  177.8550  139.0070 N   0  0  0  0  0  2  0  0  0  0  0  0
  183.0970  175.5600  139.0130 O   0  0  0  0  0  0  0  0  0  0  0  0
  181.6800  178.6050  140.3120 C   0  0  0  0  0  3  0  0  0  0  0  0
  183.0270  178.2300  140.2660 C   0  0  0  0  0  0  0  0  0  0  0  0
  181.8530  179.0070  142.6930 C   0  0  0  0  0  3  0  0  0  0  0  0
  181.0910  178.9900  141.5190 C   0  0  0  0  0  3  0  0  0  0  0  0
  183.2000  178.6440  142.6550 C   0  0  0  0  0  3  0  0  0  0  0  0
  183.7890  178.2610  141.4460 C   0  0  0  0  0  3  0  0  0  0  0  0
  1  2  1  0  0  0  0
  1  6  1  1  0  0  0
  2  4  1  6  0  0  0
  2  6  1  0  0  0  0
  3  4  2  0  0  0  0
  5 25  1  6  0  0  0
  5  1  1  0  0  0  0
  6 12  1  0  0  0  0
  7  3  1  0  0  0  0
  7  5  1  0  0  0  0
  8  9  1  0  0  0  0
  8  3  1  0  0  0  0
 10 11  1  0  0  0  0
 11  9  1  0  0  0  0
 12 14  1  0  0  0  0
 14 15  1  0  0  0  0
 14 13  1  1  0  0  0
 16 23  1  0  0  0  0
 17 16  1  0  0  0  0
 18 22  1  0  0  0  0
 18 17  2  0  0  0  0
 19 16  2  0  0  0  0
 19 21  1  0  0  0  0
 20 24  1  0  0  0  0
 21 20  2  0  0  0  0
 22 15  1  1  0  0  0
 22 19  1  0  0  0  0
 23 24  2  0  0  0  0
 26 25  1  0  0  0  0
 28 27  1  6  0  0  0
 29 28  1  0  0  0  0
 29 34  1  1  0  0  0
 30 33  1  0  0  0  0
 31 29  1  0  0  0  0
 32 30  1  0  0  0  0
 32 31  1  0  0  0  0
 33 26  1  0  0  0  0
 33 28  1  0  0  0  0
 34 35  1  0  0  0  0
 34 36  2  0  0  0  0
 35 38  1  0  0  0  0
 37 40  1  0  0  0  0
 38 37  2  0  0  0  0
 38 42  1  0  0  0  0
 40 39  2  0  0  0  0
 41 39  1  0  0  0  0
 42 41  2  0  0  0  0
M  END
>  <MODEL>
5

>  <REMARK>
 VINA RESULT:      -8.3      3.018      7.943
  Name = 
  12 active torsions:
  status: ('A' for Active; 'I' for Inactive)
    1  A    between atoms: C_7  and  C_8
    2  A    between atoms: N_11  and  C_19
    3  A    between atoms: C_12  and  C_29
    4  A    between atoms: S_15  and  C_29
    5  A    between atoms: S_15  and  C_32
    6  A    between atoms: C_18  and  C_26
    7  A    between atoms: C_18  and  N_35
    8  A    between atoms: S_22  and  C_26
    9  A    between atoms: S_22  and  C_31
   10  A    between atoms: N_30  and  C_40
   11  A    between atoms: C_34  and  C_39
   12  A    between atoms: C_39  and  C_40
                            x       y       z     vdW  Elec       q    Type
                         _______ _______ _______ _____ _____    ______ ____

>  <TORSDO>
F 12

$$$$
=
 OpenBabel11042412583D

 42 47  0  0  1  0  0  0  0  0999 V2000
  183.7570  176.7990  137.1270 C   0  0  2  0  0  3  0  0  0  0  0  0
  182.6990  175.7660  137.0310 C   0  0  1  0  0  3  0  0  0  0  0  0
  184.4140  174.0490  136.6700 C   0  0  0  0  0  0  0  0  0  0  0  0
  183.1890  174.3790  136.9410 N   0  0  0  0  0  0  0  0  0  0  0  0
  185.2010  176.3120  137.2350 C   0  0  1  0  0  3  0  0  0  0  0  0
  183.0520  176.3420  138.3380 N   0  0  0  0  0  0  0  0  0  0  0  0
  185.4100  175.0530  136.5420 N   0  0  0  0  0  2  0  0  0  0  0  0
  184.8570  172.3200  136.5310 S   0  0  0  0  0  0  0  0  0  0  0  0
  186.4270  172.6730  135.6840 C   0  0  0  0  0  2  0  0  0  0  0  0
  188.8980  172.5490  135.8380 C   0  0  0  0  0  1  0  0  0  0  0  0
  187.5950  172.2330  136.5460 C   0  0  0  0  0  2  0  0  0  0  0  0
  182.0250  177.3310  138.6630 C   0  0  0  0  0  2  0  0  0  0  0  0
  181.2320  179.2400  137.1640 C   0  0  0  0  0  1  0  0  0  0  0  0
  182.3390  178.7140  138.0710 C   0  0  1  0  0  3  0  0  0  0  0  0
  182.7750  179.9070  139.3880 S   0  0  0  0  0  0  0  0  0  0  0  0
  184.6250  179.2690  142.4790 C   0  0  0  0  0  0  0  0  0  0  0  0
  185.6670  179.5030  141.5620 N   0  0  0  0  0  0  0  0  0  0  0  0
  185.2630  179.1520  140.2550 N   0  0  0  0  0  0  0  0  0  0  0  0
  183.5100  178.8610  141.8240 C   0  0  0  0  0  0  0  0  0  0  0  0
  182.3050  178.7610  143.8970 C   0  0  0  0  0  3  0  0  0  0  0  0
  182.3200  178.5850  142.5010 C   0  0  0  0  0  3  0  0  0  0  0  0
  183.8340  178.7740  140.3720 C   0  0  1  0  0  3  0  0  0  0  0  0
  184.6410  179.4870  143.8560 C   0  0  0  0  0  3  0  0  0  0  0  0
  183.4590  179.2210  144.5710 C   0  0  0  0  0  3  0  0  0  0  0  0
  186.1650  177.3760  136.7550 C   0  0  0  0  0  2  0  0  0  0  0  0
  187.3860  176.6780  136.1780 C   0  0  0  0  0  2  0  0  0  0  0  0
  188.9510  178.9520  137.0070 C   0  0  0  0  0  1  0  0  0  0  0  0
  188.6250  177.7720  137.9310 C   0  0  2  0  0  3  0  0  0  0  0  0
  189.7280  177.6330  139.0000 C   0  0  2  0  0  3  0  0  0  0  0  0
  189.6550  176.0760  136.5750 C   0  0  0  0  0  2  0  0  0  0  0  0
  190.3250  176.2240  139.0380 C   0  0  0  0  0  2  0  0  0  0  0  0
  190.7200  175.7490  137.6310 C   0  0  0  0  0  2  0  0  0  0  0  0
  188.4070  176.5040  137.2070 N   0  0  0  0  0  0  0  0  0  0  0  0
  189.1930  177.9910  140.3480 C   0  0  0  0  0  0  0  0  0  0  0  0
  189.3860  177.0880  141.4480 N   0  0  0  0  0  2  0  0  0  0  0  0
  188.5830  179.0810  140.4980 O   0  0  0  0  0  0  0  0  0  0  0  0
  189.8180  177.7740  143.7450 C   0  0  0  0  0  3  0  0  0  0  0  0
  188.9300  177.2600  142.7940 C   0  0  0  0  0  0  0  0  0  0  0  0
  188.1160  177.5950  145.4580 C   0  0  0  0  0  3  0  0  0  0  0  0
  189.4150  177.9450  145.0730 C   0  0  0  0  0  3  0  0  0  0  0  0
  187.2270  177.0720  144.5180 C   0  0  0  0  0  3  0  0  0  0  0  0
  187.6320  176.8990  143.1900 C   0  0  0  0  0  3  0  0  0  0  0  0
  1  5  1  0  0  0  0
  1  6  1  1  0  0  0
  2  4  1  1  0  0  0
  2  1  1  0  0  0  0
  2  6  1  0  0  0  0
  3  4  2  0  0  0  0
  5 25  1  6  0  0  0
  6 12  1  0  0  0  0
  7  3  1  0  0  0  0
  7  5  1  0  0  0  0
  8  3  1  0  0  0  0
  9  8  1  0  0  0  0
  9 11  1  0  0  0  0
 10 11  1  0  0  0  0
 14 13  1  1  0  0  0
 14 12  1  0  0  0  0
 14 15  1  0  0  0  0
 16 23  1  0  0  0  0
 17 16  1  0  0  0  0
 18 22  1  0  0  0  0
 18 17  2  0  0  0  0
 19 16  2  0  0  0  0
 19 21  1  0  0  0  0
 20 24  1  0  0  0  0
 21 20  2  0  0  0  0
 22 15  1  6  0  0  0
 22 19  1  0  0  0  0
 23 24  2  0  0  0  0
 26 25  1  0  0  0  0
 26 33  1  0  0  0  0
 28 27  1  6  0  0  0
 28 29  1  0  0  0  0
 29 31  1  0  0  0  0
 29 34  1  1  0  0  0
 30 33  1  0  0  0  0
 30 32  1  0  0  0  0
 32 31  1  0  0  0  0
 33 28  1  0  0  0  0
 34 36  2  0  0  0  0
 34 35  1  0  0  0  0
 35 38  1  0  0  0  0
 37 40  1  0  0  0  0
 38 42  1  0  0  0  0
 38 37  2  0  0  0  0
 40 39  2  0  0  0  0
 41 39  1  0  0  0  0
 42 41  2  0  0  0  0
M  END
>  <MODEL>
6

>  <REMARK>
 VINA RESULT:      -8.3      3.604      7.659
  Name = 
  12 active torsions:
  status: ('A' for Active; 'I' for Inactive)
    1  A    between atoms: C_7  and  C_8
    2  A    between atoms: N_11  and  C_19
    3  A    between atoms: C_12  and  C_29
    4  A    between atoms: S_15  and  C_29
    5  A    between atoms: S_15  and  C_32
    6  A    between atoms: C_18  and  C_26
    7  A    between atoms: C_18  and  N_35
    8  A    between atoms: S_22  and  C_26
    9  A    between atoms: S_22  and  C_31
   10  A    between atoms: N_30  and  C_40
   11  A    between atoms: C_34  and  C_39
   12  A    between atoms: C_39  and  C_40
                            x       y       z     vdW  Elec       q    Type
                         _______ _______ _______ _____ _____    ______ ____

>  <TORSDO>
F 12

$$$$
=
 OpenBabel11042412583D

 42 47  0  0  1  0  0  0  0  0999 V2000
  189.4540  177.6750  138.5150 C   0  0  2  0  0  3  0  0  0  0  0  0
  190.0720  177.5970  137.1710 C   0  0  1  0  0  3  0  0  0  0  0  0
  191.9390  176.3120  138.1070 C   0  0  0  0  0  0  0  0  0  0  0  0
  191.2690  176.7440  137.0840 N   0  0  0  0  0  0  0  0  0  0  0  0
  190.0490  176.7920  139.6090 C   0  0  1  0  0  3  0  0  0  0  0  0
  188.8910  176.7790  137.4890 N   0  0  0  0  0  0  0  0  0  0  0  0
  191.4720  176.5680  139.4230 N   0  0  0  0  0  2  0  0  0  0  0  0
  193.4160  175.3310  137.8520 S   0  0  0  0  0  0  0  0  0  0  0  0
  192.5050  173.9460  137.1050 C   0  0  0  0  0  2  0  0  0  0  0  0
  192.5880  172.1210  135.4300 C   0  0  0  0  0  1  0  0  0  0  0  0
  193.3720  173.2460  136.0770 C   0  0  0  0  0  2  0  0  0  0  0  0
  187.7330  177.4460  136.8940 C   0  0  0  0  0  2  0  0  0  0  0  0
  186.7280  175.1220  137.2180 C   0  0  0  0  0  1  0  0  0  0  0  0
  186.6370  176.4530  136.4780 C   0  0  1  0  0  3  0  0  0  0  0  0
  184.9770  177.2080  136.6220 S   0  0  0  0  0  0  0  0  0  0  0  0
  183.4250  178.7420  139.5590 C   0  0  0  0  0  0  0  0  0  0  0  0
  184.4540  179.6560  139.2650 N   0  0  0  0  0  0  0  0  0  0  0  0
  185.5260  179.0030  138.6200 N   0  0  0  0  0  0  0  0  0  0  0  0
  183.7270  177.5200  139.0530 C   0  0  0  0  0  0  0  0  0  0  0  0
  181.6360  176.6510  139.8470 C   0  0  0  0  0  3  0  0  0  0  0  0
  182.8580  176.4360  139.1840 C   0  0  0  0  0  3  0  0  0  0  0  0
  185.0700  177.6070  138.4130 C   0  0  1  0  0  3  0  0  0  0  0  0
  182.2100  179.0040  140.1910 C   0  0  0  0  0  3  0  0  0  0  0  0
  181.3070  177.9350  140.3390 C   0  0  0  0  0  3  0  0  0  0  0  0
  189.7510  177.3580  140.9810 C   0  0  0  0  0  2  0  0  0  0  0  0
  191.0200  177.2710  141.8120 C   0  0  0  0  0  2  0  0  0  0  0  0
  190.9010  179.3780  143.7750 C   0  0  0  0  0  1  0  0  0  0  0  0
  190.0690  178.0910  143.8680 C   0  0  2  0  0  3  0  0  0  0  0  0
  189.7550  177.7850  145.3470 C   0  0  2  0  0  3  0  0  0  0  0  0
  191.9310  176.5710  143.8980 C   0  0  0  0  0  2  0  0  0  0  0  0
  190.1810  176.3720  145.7510 C   0  0  0  0  0  2  0  0  0  0  0  0
  191.6270  176.0810  145.3210 C   0  0  0  0  0  2  0  0  0  0  0  0
  190.7000  176.9370  143.1980 N   0  0  0  0  0  0  0  0  0  0  0  0
  188.2980  177.9700  145.6170 C   0  0  0  0  0  0  0  0  0  0  0  0
  187.3890  178.1240  144.5160 N   0  0  0  0  0  2  0  0  0  0  0  0
  187.8890  177.9870  146.8070 O   0  0  0  0  0  0  0  0  0  0  0  0
  185.2450  178.4200  143.3970 C   0  0  0  0  0  3  0  0  0  0  0  0
  185.9730  178.3250  144.5880 C   0  0  0  0  0  0  0  0  0  0  0  0
  183.2000  178.7500  144.6510 C   0  0  0  0  0  3  0  0  0  0  0  0
  183.8630  178.6290  143.4240 C   0  0  0  0  0  3  0  0  0  0  0  0
  183.9200  178.6670  145.8440 C   0  0  0  0  0  3  0  0  0  0  0  0
  185.3040  178.4600  145.8150 C   0  0  0  0  0  3  0  0  0  0  0  0
  1  6  1  6  0  0  0
  1  5  1  0  0  0  0
  2  4  1  1  0  0  0
  2  6  1  0  0  0  0
  2  1  1  0  0  0  0
  3  7  1  0  0  0  0
  4  3  2  0  0  0  0
  5 25  1  1  0  0  0
  7  5  1  0  0  0  0
  8  3  1  0  0  0  0
  9  8  1  0  0  0  0
 10 11  1  0  0  0  0
 11  9  1  0  0  0  0
 12  6  1  0  0  0  0
 14 15  1  0  0  0  0
 14 12  1  0  0  0  0
 14 13  1  1  0  0  0
 16 23  1  0  0  0  0
 17 16  1  0  0  0  0
 18 17  2  0  0  0  0
 19 21  1  0  0  0  0
 19 16  2  0  0  0  0
 20 24  1  0  0  0  0
 21 20  2  0  0  0  0
 22 15  1  6  0  0  0
 22 18  1  0  0  0  0
 22 19  1  0  0  0  0
 23 24  2  0  0  0  0
 25 26  1  0  0  0  0
 26 33  1  0  0  0  0
 28 27  1  1  0  0  0
 28 29  1  0  0  0  0
 29 34  1  6  0  0  0
 29 31  1  0  0  0  0
 30 32  1  0  0  0  0
 32 31  1  0  0  0  0
 33 28  1  0  0  0  0
 33 30  1  0  0  0  0
 34 36  2  0  0  0  0
 35 38  1  0  0  0  0
 35 34  1  0  0  0  0
 37 40  2  0  0  0  0
 37 38  1  0  0  0  0
 38 42  2  0  0  0  0
 39 41  2  0  0  0  0
 40 39  1  0  0  0  0
 42 41  1  0  0  0  0
M  END
>  <MODEL>
7

>  <REMARK>
 VINA RESULT:      -8.0      3.292      9.817
  Name = 
  12 active torsions:
  status: ('A' for Active; 'I' for Inactive)
    1  A    between atoms: C_7  and  C_8
    2  A    between atoms: N_11  and  C_19
    3  A    between atoms: C_12  and  C_29
    4  A    between atoms: S_15  and  C_29
    5  A    between atoms: S_15  and  C_32
    6  A    between atoms: C_18  and  C_26
    7  A    between atoms: C_18  and  N_35
    8  A    between atoms: S_22  and  C_26
    9  A    between atoms: S_22  and  C_31
   10  A    between atoms: N_30  and  C_40
   11  A    between atoms: C_34  and  C_39
   12  A    between atoms: C_39  and  C_40
                            x       y       z     vdW  Elec       q    Type
                         _______ _______ _______ _____ _____    ______ ____

>  <TORSDO>
F 12

$$$$
=
 OpenBabel11042412583D

 42 47  0  0  1  0  0  0  0  0999 V2000
  188.1580  177.5600  136.9640 C   0  0  2  0  0  3  0  0  0  0  0  0
  189.5270  177.5360  137.5310 C   0  0  1  0  0  3  0  0  0  0  0  0
  188.6130  178.0290  139.7530 C   0  0  0  0  0  0  0  0  0  0  0  0
  189.5960  177.6480  138.9980 N   0  0  0  0  0  0  0  0  0  0  0  0
  186.9940  177.5840  137.9520 C   0  0  1  0  0  3  0  0  0  0  0  0
  188.8620  176.2790  137.1510 N   0  0  0  0  0  0  0  0  0  0  0  0
  187.3330  178.2710  139.1870 N   0  0  0  0  0  2  0  0  0  0  0  0
  188.8560  178.1800  141.5200 S   0  0  0  0  0  0  0  0  0  0  0  0
  190.0950  176.8500  141.5790 C   0  0  0  0  0  2  0  0  0  0  0  0
  191.2630  176.0500  143.6140 C   0  0  0  0  0  1  0  0  0  0  0  0
  189.9460  176.0550  142.8620 C   0  0  0  0  0  2  0  0  0  0  0  0
  189.4140  175.8740  135.8580 C   0  0  0  0  0  2  0  0  0  0  0  0
  189.4850  173.4100  136.5210 C   0  0  0  0  0  1  0  0  0  0  0  0
  189.0310  174.4340  135.4860 C   0  0  1  0  0  3  0  0  0  0  0  0
  187.2420  174.3020  135.1270 S   0  0  0  0  0  0  0  0  0  0  0  0
  184.7280  172.3190  136.8960 C   0  0  0  0  0  0  0  0  0  0  0  0
  184.7810  173.4860  137.6820 N   0  0  0  0  0  0  0  0  0  0  0  0
  186.0540  174.0870  137.5880 N   0  0  0  0  0  0  0  0  0  0  0  0
  185.8870  172.1670  136.2080 C   0  0  0  0  0  0  0  0  0  0  0  0
  185.0300  170.1820  135.1650 C   0  0  0  0  0  3  0  0  0  0  0  0
  186.0850  171.0980  135.3320 C   0  0  0  0  0  3  0  0  0  0  0  0
  186.7980  173.2830  136.5890 C   0  0  1  0  0  3  0  0  0  0  0  0
  183.6470  171.4530  136.7330 C   0  0  0  0  0  3  0  0  0  0  0  0
  183.8100  170.3650  135.8550 C   0  0  0  0  0  3  0  0  0  0  0  0
  185.7550  178.1730  137.3120 C   0  0  0  0  0  2  0  0  0  0  0  0
  184.5570  177.3570  137.7680 C   0  0  0  0  0  2  0  0  0  0  0  0
  182.5730  176.1070  139.4440 C   0  0  0  0  0  1  0  0  0  0  0  0
  183.1680  177.4920  139.7320 C   0  0  2  0  0  3  0  0  0  0  0  0
  182.1510  178.3350  140.5280 C   0  0  2  0  0  3  0  0  0  0  0  0
  182.4780  178.5140  137.6690 C   0  0  0  0  0  2  0  0  0  0  0  0
  181.8640  179.6820  139.8590 C   0  0  0  0  0  2  0  0  0  0  0  0
  181.5370  179.5050  138.3680 C   0  0  0  0  0  2  0  0  0  0  0  0
  183.6250  178.1950  138.5180 N   0  0  0  0  0  0  0  0  0  0  0  0
  182.6380  178.5570  141.9220 C   0  0  0  0  0  0  0  0  0  0  0  0
  183.9800  178.1850  142.2690 N   0  0  0  0  0  2  0  0  0  0  0  0
  181.8630  179.0690  142.7700 O   0  0  0  0  0  0  0  0  0  0  0  0
  185.9510  177.9500  143.6820 C   0  0  0  0  0  3  0  0  0  0  0  0
  184.6060  178.3090  143.5510 C   0  0  0  0  0  0  0  0  0  0  0  0
  185.8890  178.4990  146.0390 C   0  0  0  0  0  3  0  0  0  0  0  0
  186.5950  178.0450  144.9190 C   0  0  0  0  0  3  0  0  0  0  0  0
  184.5430  178.8500  145.9200 C   0  0  0  0  0  3  0  0  0  0  0  0
  183.9000  178.7520  144.6820 C   0  0  0  0  0  3  0  0  0  0  0  0
  1  6  1  1  0  0  0
  1  2  1  0  0  0  0
  1  5  1  0  0  0  0
  2  4  1  1  0  0  0
  3  8  1  0  0  0  0
  4  3  2  0  0  0  0
  5 25  1  6  0  0  0
  5  7  1  0  0  0  0
  6  2  1  0  0  0  0
  7  3  1  0  0  0  0
  8  9  1  0  0  0  0
  9 11  1  0  0  0  0
 11 10  1  0  0  0  0
 12  6  1  0  0  0  0
 14 12  1  0  0  0  0
 14 13  1  1  0  0  0
 15 14  1  0  0  0  0
 16 17  1  0  0  0  0
 18 17  2  0  0  0  0
 19 22  1  0  0  0  0
 19 16  2  0  0  0  0
 20 21  2  0  0  0  0
 20 24  1  0  0  0  0
 21 19  1  0  0  0  0
 22 15  1  6  0  0  0
 22 18  1  0  0  0  0
 23 16  1  0  0  0  0
 24 23  2  0  0  0  0
 25 26  1  0  0  0  0
 26 33  1  0  0  0  0
 28 27  1  6  0  0  0
 28 29  1  0  0  0  0
 29 34  1  1  0  0  0
 30 32  1  0  0  0  0
 30 33  1  0  0  0  0
 31 29  1  0  0  0  0
 32 31  1  0  0  0  0
 33 28  1  0  0  0  0
 34 35  1  0  0  0  0
 34 36  2  0  0  0  0
 35 38  1  0  0  0  0
 37 40  1  0  0  0  0
 38 37  2  0  0  0  0
 38 42  1  0  0  0  0
 40 39  2  0  0  0  0
 41 39  1  0  0  0  0
 42 41  2  0  0  0  0
M  END
>  <MODEL>
8

>  <REMARK>
 VINA RESULT:      -8.0      4.304      9.918
  Name = 
  12 active torsions:
  status: ('A' for Active; 'I' for Inactive)
    1  A    between atoms: C_7  and  C_8
    2  A    between atoms: N_11  and  C_19
    3  A    between atoms: C_12  and  C_29
    4  A    between atoms: S_15  and  C_29
    5  A    between atoms: S_15  and  C_32
    6  A    between atoms: C_18  and  C_26
    7  A    between atoms: C_18  and  N_35
    8  A    between atoms: S_22  and  C_26
    9  A    between atoms: S_22  and  C_31
   10  A    between atoms: N_30  and  C_40
   11  A    between atoms: C_34  and  C_39
   12  A    between atoms: C_39  and  C_40
                            x       y       z     vdW  Elec       q    Type
                         _______ _______ _______ _____ _____    ______ ____

>  <TORSDO>
F 12

$$$$
=
 OpenBabel11042412583D

 42 47  0  0  1  0  0  0  0  0999 V2000
  186.0120  177.7140  144.6250 C   0  0  2  0  0  3  0  0  0  0  0  0
  185.6620  178.2490  145.9610 C   0  0  1  0  0  3  0  0  0  0  0  0
  187.9210  177.7240  146.7600 C   0  0  0  0  0  0  0  0  0  0  0  0
  186.7820  178.3250  146.9150 N   0  0  0  0  0  0  0  0  0  0  0  0
  187.4850  177.4130  144.3570 C   0  0  1  0  0  3  0  0  0  0  0  0
  185.8950  179.1680  144.8350 N   0  0  0  0  0  0  0  0  0  0  0  0
  188.1930  177.0140  145.5610 N   0  0  0  0  0  2  0  0  0  0  0  0
  189.1740  177.8530  148.0330 S   0  0  0  0  0  0  0  0  0  0  0  0
  190.1750  176.5010  147.3440 C   0  0  0  0  0  2  0  0  0  0  0  0
  192.4240  175.6320  147.9220 C   0  0  0  0  0  1  0  0  0  0  0  0
  191.6500  176.8430  147.4400 C   0  0  0  0  0  2  0  0  0  0  0  0
  184.5820  179.5900  144.3470 C   0  0  0  0  0  2  0  0  0  0  0  0
  182.5590  178.9050  142.9490 C   0  0  0  0  0  1  0  0  0  0  0  0
  184.0240  178.6380  143.2780 C   0  0  1  0  0  3  0  0  0  0  0  0
  185.0770  178.6410  141.7810 S   0  0  0  0  0  0  0  0  0  0  0  0
  183.6460  178.1380  138.4520 C   0  0  0  0  0  0  0  0  0  0  0  0
  184.1660  179.4430  138.3490 N   0  0  0  0  0  0  0  0  0  0  0  0
  184.1890  180.0670  139.6150 N   0  0  0  0  0  0  0  0  0  0  0  0
  183.4050  177.8330  139.7520 C   0  0  0  0  0  0  0  0  0  0  0  0
  182.6790  175.6350  139.1210 C   0  0  0  0  0  3  0  0  0  0  0  0
  182.9090  176.5850  140.1330 C   0  0  0  0  0  3  0  0  0  0  0  0
  183.7460  179.0270  140.5760 C   0  0  1  0  0  3  0  0  0  0  0  0
  183.4640  177.2130  137.4250 C   0  0  0  0  0  3  0  0  0  0  0  0
  182.9660  175.9430  137.7720 C   0  0  0  0  0  3  0  0  0  0  0  0
  187.6350  176.3830  143.2580 C   0  0  0  0  0  2  0  0  0  0  0  0
  189.0920  176.3650  142.8260 C   0  0  0  0  0  2  0  0  0  0  0  0
  191.5690  177.5450  141.9440 C   0  0  0  0  0  1  0  0  0  0  0  0
  190.6300  176.7640  141.0150 C   0  0  2  0  0  3  0  0  0  0  0  0
  190.8030  177.2640  139.5660 C   0  0  2  0  0  3  0  0  0  0  0  0
  188.7090  178.1740  141.3260 C   0  0  0  0  0  2  0  0  0  0  0  0
  189.4740  177.6870  138.9360 C   0  0  0  0  0  2  0  0  0  0  0  0
  188.6940  178.6340  139.8610 C   0  0  0  0  0  2  0  0  0  0  0  0
  189.2170  176.8070  141.4400 N   0  0  0  0  0  0  0  0  0  0  0  0
  191.4470  176.2110  138.7260 C   0  0  0  0  0  0  0  0  0  0  0  0
  192.7690  176.4280  138.2120 N   0  0  0  0  0  2  0  0  0  0  0  0
  190.8200  175.1470  138.4860 O   0  0  0  0  0  0  0  0  0  0  0  0
  194.1290  174.4210  137.9670 C   0  0  0  0  0  3  0  0  0  0  0  0
  193.5290  175.5410  137.3820 C   0  0  0  0  0  0  0  0  0  0  0  0
  195.0560  173.7760  135.8250 C   0  0  0  0  0  3  0  0  0  0  0  0
  194.8890  173.5380  137.1940 C   0  0  0  0  0  3  0  0  0  0  0  0
  194.4680  174.8960  135.2350 C   0  0  0  0  0  3  0  0  0  0  0  0
  193.7100  175.7810  136.0100 C   0  0  0  0  0  3  0  0  0  0  0  0
  1  6  1  6  0  0  0
  1  2  1  0  0  0  0
  2  4  1  1  0  0  0
  3  4  2  0  0  0  0
  3  8  1  0  0  0  0
  5 25  1  6  0  0  0
  5  1  1  0  0  0  0
  5  7  1  0  0  0  0
  6  2  1  0  0  0  0
  7  3  1  0  0  0  0
  9 11  1  0  0  0  0
  9  8  1  0  0  0  0
 11 10  1  0  0  0  0
 12  6  1  0  0  0  0
 14 13  1  6  0  0  0
 14 12  1  0  0  0  0
 15 14  1  0  0  0  0
 16 19  1  0  0  0  0
 17 16  1  0  0  0  0
 17 18  2  0  0  0  0
 18 22  1  0  0  0  0
 19 21  2  0  0  0  0
 19 22  1  0  0  0  0
 20 21  1  0  0  0  0
 22 15  1  1  0  0  0
 23 24  1  0  0  0  0
 23 16  2  0  0  0  0
 24 20  2  0  0  0  0
 26 25  1  0  0  0  0
 28 33  1  0  0  0  0
 28 27  1  1  0  0  0
 29 34  1  6  0  0  0
 29 28  1  0  0  0  0
 30 33  1  0  0  0  0
 31 29  1  0  0  0  0
 31 32  1  0  0  0  0
 32 30  1  0  0  0  0
 33 26  1  0  0  0  0
 35 34  1  0  0  0  0
 36 34  2  0  0  0  0
 38 37  1  0  0  0  0
 38 35  1  0  0  0  0
 39 40  1  0  0  0  0
 40 37  2  0  0  0  0
 41 39  2  0  0  0  0
 41 42  1  0  0  0  0
 42 38  2  0  0  0  0
M  END
>  <MODEL>
9

>  <REMARK>
 VINA RESULT:      -7.9      2.488      7.006
  Name = 
  12 active torsions:
  status: ('A' for Active; 'I' for Inactive)
    1  A    between atoms: C_7  and  C_8
    2  A    between atoms: N_11  and  C_19
    3  A    between atoms: C_12  and  C_29
    4  A    between atoms: S_15  and  C_29
    5  A    between atoms: S_15  and  C_32
    6  A    between atoms: C_18  and  C_26
    7  A    between atoms: C_18  and  N_35
    8  A    between atoms: S_22  and  C_26
    9  A    between atoms: S_22  and  C_31
   10  A    between atoms: N_30  and  C_40
   11  A    between atoms: C_34  and  C_39
   12  A    between atoms: C_39  and  C_40
                            x       y       z     vdW  Elec       q    Type
                         _______ _______ _______ _____ _____    ______ ____

>  <TORSDO>
F 12

$$$$
