=
 OpenBabel11042412263D

 26 30  0  0  0  0  0  0  0  0999 V2000
  190.0310  177.0280  145.2320 C   0  0  0  0  0  0  0  0  0  0  0  0
  183.4540  178.9680  144.3430 C   0  0  0  0  0  3  0  0  0  0  0  0
  192.0040  176.5270  146.5080 N   0  0  0  0  0  0  0  0  0  0  0  0
  185.0990  178.5990  146.0370 C   0  0  0  0  0  3  0  0  0  0  0  0
  184.3570  178.6120  143.3300 C   0  0  0  0  0  3  0  0  0  0  0  0
  187.3510  177.8470  145.2400 C   0  0  0  0  0  0  0  0  0  0  0  0
  186.0220  178.2400  145.0550 C   0  0  0  0  0  0  0  0  0  0  0  0
  189.3340  177.1420  143.9920 C   0  0  0  0  0  0  0  0  0  0  0  0
  188.0220  177.7390  146.4550 C   0  0  0  0  0  3  0  0  0  0  0  0
  190.0370  177.2190  147.6690 C   0  0  0  0  0  3  0  0  0  0  0  0
  183.8390  178.9540  145.6560 N   0  0  0  0  0  0  0  0  0  0  0  0
  185.6410  178.2500  143.7220 C   0  0  0  0  0  0  0  0  0  0  0  0
  186.9320  177.7780  142.7460 S   0  0  0  0  0  0  0  0  0  0  0  0
  189.3600  177.3300  146.4540 C   0  0  0  0  0  0  0  0  0  0  0  0
  191.3710  176.6240  145.3090 C   0  0  0  0  0  3  0  0  0  0  0  0
  191.3700  176.8130  147.6750 C   0  0  0  0  0  3  0  0  0  0  0  0
  187.9990  177.5540  144.0420 C   0  0  0  0  0  0  0  0  0  0  0  0
  190.7380  177.6240  142.0570 C   0  0  0  0  0  3  0  0  0  0  0  0
  189.9080  176.8640  142.7000 N   0  0  0  0  0  0  0  0  0  0  0  0
  190.9730  176.3270  138.5210 C   0  0  0  0  0  3  0  0  0  0  0  0
  192.3310  176.5460  138.2770 C   0  0  0  0  0  0  0  0  0  0  0  0
  191.2620  177.2430  140.7440 C   0  0  0  0  0  0  0  0  0  0  0  0
  190.4390  176.6780  139.7610 C   0  0  0  0  0  3  0  0  0  0  0  0
  192.6140  177.4450  140.4570 C   0  0  0  0  0  3  0  0  0  0  0  0
  193.1160  177.0970  139.2430 N   0  0  0  0  0  0  0  0  0  0  0  0
  193.0220  176.1140  136.7290 Cl  0  0  0  0  0  0  0  0  0  0  0  0
  1 15  1  0  0  0  0
  1 14  1  0  0  0  0
  2 11  1  0  0  0  0
  3 16  1  0  0  0  0
  5 12  1  0  0  0  0
  5  2  2  0  0  0  0
  6  9  1  0  0  0  0
  7  6  1  0  0  0  0
  7  4  1  0  0  0  0
  8 17  1  0  0  0  0
  8  1  2  0  0  0  0
 10 16  2  0  0  0  0
 11  4  2  0  0  0  0
 12  7  2  0  0  0  0
 13 12  1  0  0  0  0
 13 17  1  0  0  0  0
 14  9  2  0  0  0  0
 14 10  1  0  0  0  0
 15  3  2  0  0  0  0
 17  6  2  0  0  0  0
 18 19  2  0  0  0  0
 19  8  1  0  0  0  0
 20 23  1  0  0  0  0
 21 20  2  0  0  0  0
 21 25  1  0  0  0  0
 22 18  1  0  0  0  0
 23 22  2  0  0  0  0
 24 22  1  0  0  0  0
 25 24  2  0  0  0  0
 26 21  1  0  0  0  0
M  END
>  <MODEL>
1

>  <REMARK>
 VINA RESULT:     -11.0      0.000      0.000
  Name = 
  2 active torsions:
  status: ('A' for Active; 'I' for Inactive)
    1  A    between atoms: C_3  and  C_9
    2  A    between atoms: N_6  and  C_14
                            x       y       z     vdW  Elec       q    Type
                         _______ _______ _______ _____ _____    ______ ____

>  <TORSDO>
F 2

$$$$
=
 OpenBabel11042412263D

 26 30  0  0  0  0  0  0  0  0999 V2000
  185.9940  178.1340  143.5520 C   0  0  0  0  0  0  0  0  0  0  0  0
  191.7940  176.5050  146.9470 C   0  0  0  0  0  3  0  0  0  0  0  0
  183.7020  178.8300  143.3570 N   0  0  0  0  0  0  0  0  0  0  0  0
  189.5380  177.2160  147.2980 C   0  0  0  0  0  3  0  0  0  0  0  0
  191.6180  176.4960  145.5550 C   0  0  0  0  0  3  0  0  0  0  0  0
  188.1550  177.5470  145.2370 C   0  0  0  0  0  0  0  0  0  0  0  0
  189.3290  177.2160  145.9190 C   0  0  0  0  0  0  0  0  0  0  0  0
  187.2350  177.7270  142.9770 C   0  0  0  0  0  0  0  0  0  0  0  0
  186.9480  177.9440  145.8080 C   0  0  0  0  0  3  0  0  0  0  0  0
  184.6570  178.6370  145.5350 C   0  0  0  0  0  3  0  0  0  0  0  0
  190.7650  176.8600  147.7760 N   0  0  0  0  0  0  0  0  0  0  0  0
  190.3660  176.8590  145.0710 C   0  0  0  0  0  0  0  0  0  0  0  0
  189.8560  176.9420  143.4650 S   0  0  0  0  0  0  0  0  0  0  0  0
  185.8680  178.2380  144.9690 C   0  0  0  0  0  0  0  0  0  0  0  0
  184.8690  178.4450  142.7750 C   0  0  0  0  0  3  0  0  0  0  0  0
  183.5760  178.9310  144.7060 C   0  0  0  0  0  3  0  0  0  0  0  0
  188.2860  177.4440  143.8540 C   0  0  0  0  0  0  0  0  0  0  0  0
  187.9230  178.5120  140.7730 C   0  0  0  0  0  3  0  0  0  0  0  0
  187.4770  177.5870  141.5640 N   0  0  0  0  0  0  0  0  0  0  0  0
  187.2990  177.8310  137.1140 C   0  0  0  0  0  3  0  0  0  0  0  0
  188.6170  177.7890  136.6520 C   0  0  0  0  0  0  0  0  0  0  0  0
  188.1340  178.2610  139.3460 C   0  0  0  0  0  0  0  0  0  0  0  0
  187.0600  178.0690  138.4680 C   0  0  0  0  0  3  0  0  0  0  0  0
  189.4360  178.2110  138.8410 C   0  0  0  0  0  3  0  0  0  0  0  0
  189.6490  177.9790  137.5190 N   0  0  0  0  0  0  0  0  0  0  0  0
  188.9400  177.4940  134.9590 Cl  0  0  0  0  0  0  0  0  0  0  0  0
  1 14  1  0  0  0  0
  2 11  1  0  0  0  0
  3 16  1  0  0  0  0
  4 11  2  0  0  0  0
  5  2  2  0  0  0  0
  6  9  1  0  0  0  0
  6  7  1  0  0  0  0
  7  4  1  0  0  0  0
  8  1  2  0  0  0  0
  8 17  1  0  0  0  0
 12  5  1  0  0  0  0
 12  7  2  0  0  0  0
 13 17  1  0  0  0  0
 13 12  1  0  0  0  0
 14 10  1  0  0  0  0
 14  9  2  0  0  0  0
 15  3  2  0  0  0  0
 15  1  1  0  0  0  0
 16 10  2  0  0  0  0
 17  6  2  0  0  0  0
 18 19  2  0  0  0  0
 19  8  1  0  0  0  0
 20 23  1  0  0  0  0
 21 20  2  0  0  0  0
 21 25  1  0  0  0  0
 22 18  1  0  0  0  0
 23 22  2  0  0  0  0
 24 22  1  0  0  0  0
 25 24  2  0  0  0  0
 26 21  1  0  0  0  0
M  END
>  <MODEL>
2

>  <REMARK>
 VINA RESULT:     -10.1      2.290      5.171
  Name = 
  2 active torsions:
  status: ('A' for Active; 'I' for Inactive)
    1  A    between atoms: C_3  and  C_9
    2  A    between atoms: N_6  and  C_14
                            x       y       z     vdW  Elec       q    Type
                         _______ _______ _______ _____ _____    ______ ____

>  <TORSDO>
F 2

$$$$
=
 OpenBabel11042412263D

 26 30  0  0  0  0  0  0  0  0999 V2000
  185.3330  178.2120  142.9210 C   0  0  0  0  0  0  0  0  0  0  0  0
  189.3870  177.7280  148.5030 C   0  0  0  0  0  3  0  0  0  0  0  0
  183.2810  178.6380  141.7460 N   0  0  0  0  0  0  0  0  0  0  0  0
  187.1540  178.2590  147.8330 C   0  0  0  0  0  3  0  0  0  0  0  0
  189.7700  177.4780  147.1760 C   0  0  0  0  0  3  0  0  0  0  0  0
  186.6780  178.1180  145.3780 C   0  0  0  0  0  0  0  0  0  0  0  0
  187.5010  178.0190  146.5040 C   0  0  0  0  0  0  0  0  0  0  0  0
  186.7110  177.8420  142.9470 C   0  0  0  0  0  0  0  0  0  0  0  0
  185.3340  178.4800  145.3640 C   0  0  0  0  0  3  0  0  0  0  0  0
  183.3130  178.8910  144.1180 C   0  0  0  0  0  3  0  0  0  0  0  0
  188.1060  178.1080  148.7980 N   0  0  0  0  0  0  0  0  0  0  0  0
  188.7970  177.6340  146.1940 C   0  0  0  0  0  0  0  0  0  0  0  0
  188.9540  177.4090  144.5310 S   0  0  0  0  0  0  0  0  0  0  0  0
  184.6600  178.5280  144.1390 C   0  0  0  0  0  0  0  0  0  0  0  0
  184.5930  178.2820  141.7320 C   0  0  0  0  0  3  0  0  0  0  0  0
  182.6350  178.9410  142.9020 C   0  0  0  0  0  3  0  0  0  0  0  0
  187.3430  177.8080  144.1940 C   0  0  0  0  0  0  0  0  0  0  0  0
  188.3080  178.2910  141.1600 C   0  0  0  0  0  3  0  0  0  0  0  0
  187.4910  177.5030  141.7840 N   0  0  0  0  0  0  0  0  0  0  0  0
  189.4780  177.8520  137.5990 C   0  0  0  0  0  3  0  0  0  0  0  0
  190.5150  176.9390  137.8000 C   0  0  0  0  0  0  0  0  0  0  0  0
  189.0540  177.8410  139.9830 C   0  0  0  0  0  0  0  0  0  0  0  0
  188.7460  178.3030  138.6970 C   0  0  0  0  0  3  0  0  0  0  0  0
  190.1000  176.9280  140.1390 C   0  0  0  0  0  3  0  0  0  0  0  0
  190.8030  176.5000  139.0560 N   0  0  0  0  0  0  0  0  0  0  0  0
  191.4470  176.3600  136.4380 Cl  0  0  0  0  0  0  0  0  0  0  0  0
  1  8  2  0  0  0  0
  1 14  1  0  0  0  0
  2 11  1  0  0  0  0
  3 16  1  0  0  0  0
  4 11  2  0  0  0  0
  5  2  2  0  0  0  0
  6  7  1  0  0  0  0
  7  4  1  0  0  0  0
  8 17  1  0  0  0  0
  9  6  1  0  0  0  0
 10 14  1  0  0  0  0
 12  7  2  0  0  0  0
 12  5  1  0  0  0  0
 13 12  1  0  0  0  0
 14  9  2  0  0  0  0
 15  3  2  0  0  0  0
 15  1  1  0  0  0  0
 16 10  2  0  0  0  0
 17 13  1  0  0  0  0
 17  6  2  0  0  0  0
 18 19  2  0  0  0  0
 19  8  1  0  0  0  0
 20 21  2  0  0  0  0
 20 23  1  0  0  0  0
 21 25  1  0  0  0  0
 22 24  1  0  0  0  0
 22 18  1  0  0  0  0
 23 22  2  0  0  0  0
 25 24  2  0  0  0  0
 26 21  1  0  0  0  0
M  END
>  <MODEL>
3

>  <REMARK>
 VINA RESULT:      -9.8      1.980      4.883
  Name = 
  2 active torsions:
  status: ('A' for Active; 'I' for Inactive)
    1  A    between atoms: C_3  and  C_9
    2  A    between atoms: N_6  and  C_14
                            x       y       z     vdW  Elec       q    Type
                         _______ _______ _______ _____ _____    ______ ____

>  <TORSDO>
F 2

$$$$
=
 OpenBabel11042412263D

 26 30  0  0  0  0  0  0  0  0999 V2000
  187.6120  177.8290  145.8230 C   0  0  0  0  0  0  0  0  0  0  0  0
  191.5500  177.4210  140.1540 C   0  0  0  0  0  3  0  0  0  0  0  0
  187.1960  177.9360  148.1870 N   0  0  0  0  0  0  0  0  0  0  0  0
  191.6810  177.5020  142.5400 C   0  0  0  0  0  3  0  0  0  0  0  0
  190.1500  177.4930  140.1870 C   0  0  0  0  0  3  0  0  0  0  0  0
  189.4970  177.6580  143.7570 C   0  0  0  0  0  0  0  0  0  0  0  0
  190.2900  177.5750  142.6080 C   0  0  0  0  0  0  0  0  0  0  0  0
  187.1610  177.8030  144.4700 C   0  0  0  0  0  0  0  0  0  0  0  0
  189.9480  177.6830  145.0740 C   0  0  0  0  0  3  0  0  0  0  0  0
  189.4540  177.7940  147.4290 C   0  0  0  0  0  3  0  0  0  0  0  0
  192.2750  177.4270  141.3140 N   0  0  0  0  0  0  0  0  0  0  0  0
  189.5460  177.5700  141.4370 C   0  0  0  0  0  0  0  0  0  0  0  0
  187.9010  177.6670  141.7940 S   0  0  0  0  0  0  0  0  0  0  0  0
  189.0090  177.7680  146.1080 C   0  0  0  0  0  0  0  0  0  0  0  0
  186.7310  177.9140  146.9100 C   0  0  0  0  0  3  0  0  0  0  0  0
  188.5250  177.8790  148.4640 C   0  0  0  0  0  3  0  0  0  0  0  0
  188.1350  177.7170  143.4710 C   0  0  0  0  0  0  0  0  0  0  0  0
  185.1100  178.9330  143.7890 C   0  0  0  0  0  3  0  0  0  0  0  0
  185.7800  177.8580  144.0650 N   0  0  0  0  0  0  0  0  0  0  0  0
  181.3370  178.9420  143.8950 C   0  0  0  0  0  3  0  0  0  0  0  0
  181.0620  178.7510  142.5390 C   0  0  0  0  0  0  0  0  0  0  0  0
  183.7040  178.8740  143.3850 C   0  0  0  0  0  0  0  0  0  0  0  0
  182.6660  179.0030  144.3170 C   0  0  0  0  0  3  0  0  0  0  0  0
  183.3820  178.6850  142.0390 C   0  0  0  0  0  3  0  0  0  0  0  0
  182.0820  178.6280  141.6470 N   0  0  0  0  0  0  0  0  0  0  0  0
  179.4030  178.6710  141.9880 Cl  0  0  0  0  0  0  0  0  0  0  0  0
  1 14  1  0  0  0  0
  1 15  1  0  0  0  0
  2  5  2  0  0  0  0
  2 11  1  0  0  0  0
  3 16  1  0  0  0  0
  4  7  1  0  0  0  0
  5 12  1  0  0  0  0
  6  9  1  0  0  0  0
  7  6  1  0  0  0  0
  8  1  2  0  0  0  0
  9 14  2  0  0  0  0
 10 16  2  0  0  0  0
 11  4  2  0  0  0  0
 12 13  1  0  0  0  0
 12  7  2  0  0  0  0
 13 17  1  0  0  0  0
 14 10  1  0  0  0  0
 15  3  2  0  0  0  0
 17  6  2  0  0  0  0
 17  8  1  0  0  0  0
 18 19  2  0  0  0  0
 19  8  1  0  0  0  0
 20 23  1  0  0  0  0
 21 20  2  0  0  0  0
 22 18  1  0  0  0  0
 22 23  2  0  0  0  0
 24 22  1  0  0  0  0
 25 24  2  0  0  0  0
 25 21  1  0  0  0  0
 26 21  1  0  0  0  0
M  END
>  <MODEL>
4

>  <REMARK>
 VINA RESULT:      -9.7      3.418      7.188
  Name = 
  2 active torsions:
  status: ('A' for Active; 'I' for Inactive)
    1  A    between atoms: C_3  and  C_9
    2  A    between atoms: N_6  and  C_14
                            x       y       z     vdW  Elec       q    Type
                         _______ _______ _______ _____ _____    ______ ____

>  <TORSDO>
F 2

$$$$
=
 OpenBabel11042412263D

 26 30  0  0  0  0  0  0  0  0999 V2000
  188.6380  177.4580  145.2300 C   0  0  0  0  0  0  0  0  0  0  0  0
  182.2840  179.0030  142.9800 C   0  0  0  0  0  3  0  0  0  0  0  0
  190.3480  177.1380  146.8870 N   0  0  0  0  0  0  0  0  0  0  0  0
  183.5880  178.8260  144.9760 C   0  0  0  0  0  3  0  0  0  0  0  0
  183.3770  178.6280  142.1840 C   0  0  0  0  0  3  0  0  0  0  0  0
  185.9780  178.1390  144.6730 C   0  0  0  0  0  0  0  0  0  0  0  0
  184.6940  178.4520  144.2140 C   0  0  0  0  0  0  0  0  0  0  0  0
  188.1880  177.4570  143.8760 C   0  0  0  0  0  0  0  0  0  0  0  0
  186.4070  178.1430  145.9980 C   0  0  0  0  0  3  0  0  0  0  0  0
  188.1710  177.8040  147.6030 C   0  0  0  0  0  3  0  0  0  0  0  0
  182.4120  179.0920  144.3390 N   0  0  0  0  0  0  0  0  0  0  0  0
  184.5750  178.3580  142.8360 C   0  0  0  0  0  0  0  0  0  0  0  0
  186.0460  177.8900  142.1570 S   0  0  0  0  0  0  0  0  0  0  0  0
  187.7350  177.8030  146.2780 C   0  0  0  0  0  0  0  0  0  0  0  0
  189.9530  177.1270  145.5870 C   0  0  0  0  0  3  0  0  0  0  0  0
  189.4920  177.4660  147.8910 C   0  0  0  0  0  3  0  0  0  0  0  0
  186.8530  177.8030  143.6440 C   0  0  0  0  0  0  0  0  0  0  0  0
  189.6180  177.9720  141.9690 C   0  0  0  0  0  3  0  0  0  0  0  0
  189.0080  177.1260  142.7390 N   0  0  0  0  0  0  0  0  0  0  0  0
  190.6520  176.6990  138.5700 C   0  0  0  0  0  3  0  0  0  0  0  0
  192.0390  176.6900  138.7310 C   0  0  0  0  0  0  0  0  0  0  0  0
  190.4300  177.5250  140.8350 C   0  0  0  0  0  0  0  0  0  0  0  0
  189.8460  177.1190  139.6280 C   0  0  0  0  0  3  0  0  0  0  0  0
  191.8220  177.5000  140.9540 C   0  0  0  0  0  3  0  0  0  0  0  0
  192.5900  177.0870  139.9100 N   0  0  0  0  0  0  0  0  0  0  0  0
  193.0680  176.1680  137.4170 Cl  0  0  0  0  0  0  0  0  0  0  0  0
  1 15  1  0  0  0  0
  1 14  1  0  0  0  0
  2 11  1  0  0  0  0
  3 16  1  0  0  0  0
  5 12  1  0  0  0  0
  5  2  2  0  0  0  0
  6  9  1  0  0  0  0
  7  6  1  0  0  0  0
  7  4  1  0  0  0  0
  8  1  2  0  0  0  0
  9 14  2  0  0  0  0
 10 16  2  0  0  0  0
 11  4  2  0  0  0  0
 12  7  2  0  0  0  0
 13 12  1  0  0  0  0
 13 17  1  0  0  0  0
 14 10  1  0  0  0  0
 15  3  2  0  0  0  0
 17  8  1  0  0  0  0
 17  6  2  0  0  0  0
 18 19  2  0  0  0  0
 19  8  1  0  0  0  0
 20 21  2  0  0  0  0
 20 23  1  0  0  0  0
 21 25  1  0  0  0  0
 22 24  1  0  0  0  0
 22 18  1  0  0  0  0
 23 22  2  0  0  0  0
 25 24  2  0  0  0  0
 26 21  1  0  0  0  0
M  END
>  <MODEL>
5

>  <REMARK>
 VINA RESULT:      -9.6      1.054      1.404
  Name = 
  2 active torsions:
  status: ('A' for Active; 'I' for Inactive)
    1  A    between atoms: C_3  and  C_9
    2  A    between atoms: N_6  and  C_14
                            x       y       z     vdW  Elec       q    Type
                         _______ _______ _______ _____ _____    ______ ____

>  <TORSDO>
F 2

$$$$
=
 OpenBabel11042412263D

 26 30  0  0  0  0  0  0  0  0999 V2000
  186.3560  178.0630  144.7220 C   0  0  0  0  0  0  0  0  0  0  0  0
  180.4120  179.3930  141.4470 C   0  0  0  0  0  3  0  0  0  0  0  0
  187.7990  177.8780  146.6340 N   0  0  0  0  0  0  0  0  0  0  0  0
  181.4040  179.3710  143.6230 C   0  0  0  0  0  3  0  0  0  0  0  0
  181.6100  178.9710  140.8510 C   0  0  0  0  0  3  0  0  0  0  0  0
  183.8100  178.6830  143.7280 C   0  0  0  0  0  0  0  0  0  0  0  0
  182.6100  178.9510  143.0630 C   0  0  0  0  0  0  0  0  0  0  0  0
  186.1120  177.9610  143.3200 C   0  0  0  0  0  0  0  0  0  0  0  0
  184.0370  178.7850  145.0990 C   0  0  0  0  0  3  0  0  0  0  0  0
  185.5420  178.5760  146.9690 C   0  0  0  0  0  3  0  0  0  0  0  0
  180.3360  179.5810  142.8000 N   0  0  0  0  0  0  0  0  0  0  0  0
  182.6970  178.7570  141.6920 C   0  0  0  0  0  0  0  0  0  0  0  0
  184.2510  178.2530  141.2750 S   0  0  0  0  0  0  0  0  0  0  0  0
  185.3080  178.4760  145.5970 C   0  0  0  0  0  0  0  0  0  0  0  0
  187.6020  177.7700  145.2930 C   0  0  0  0  0  3  0  0  0  0  0  0
  186.8050  178.2700  147.4730 C   0  0  0  0  0  3  0  0  0  0  0  0
  184.8280  178.2800  142.8680 C   0  0  0  0  0  0  0  0  0  0  0  0
  187.9040  178.3420  141.7110 C   0  0  0  0  0  3  0  0  0  0  0  0
  187.0910  177.5560  142.3440 N   0  0  0  0  0  0  0  0  0  0  0  0
  189.7940  177.7350  138.5010 C   0  0  0  0  0  3  0  0  0  0  0  0
  190.7180  176.7860  138.9450 C   0  0  0  0  0  0  0  0  0  0  0  0
  188.8640  177.8210  140.7350 C   0  0  0  0  0  0  0  0  0  0  0  0
  188.8640  178.2530  139.4020 C   0  0  0  0  0  3  0  0  0  0  0  0
  189.8060  176.8710  141.1370 C   0  0  0  0  0  3  0  0  0  0  0  0
  190.7050  176.3780  140.2430 N   0  0  0  0  0  0  0  0  0  0  0  0
  191.8930  176.1230  137.8320 Cl  0  0  0  0  0  0  0  0  0  0  0  0
  1 15  1  0  0  0  0
  1 14  1  0  0  0  0
  2 11  1  0  0  0  0
  3 16  1  0  0  0  0
  5  2  2  0  0  0  0
  5 12  1  0  0  0  0
  6  9  1  0  0  0  0
  7  4  1  0  0  0  0
  7  6  1  0  0  0  0
  8  1  2  0  0  0  0
  9 14  2  0  0  0  0
 10 16  2  0  0  0  0
 11  4  2  0  0  0  0
 12  7  2  0  0  0  0
 13 12  1  0  0  0  0
 13 17  1  0  0  0  0
 14 10  1  0  0  0  0
 15  3  2  0  0  0  0
 17  8  1  0  0  0  0
 17  6  2  0  0  0  0
 18 19  2  0  0  0  0
 19  8  1  0  0  0  0
 20 21  2  0  0  0  0
 20 23  1  0  0  0  0
 21 25  1  0  0  0  0
 22 24  1  0  0  0  0
 22 18  1  0  0  0  0
 23 22  2  0  0  0  0
 25 24  2  0  0  0  0
 26 21  1  0  0  0  0
M  END
>  <MODEL>
6

>  <REMARK>
 VINA RESULT:      -9.6      2.389      3.597
  Name = 
  2 active torsions:
  status: ('A' for Active; 'I' for Inactive)
    1  A    between atoms: C_3  and  C_9
    2  A    between atoms: N_6  and  C_14
                            x       y       z     vdW  Elec       q    Type
                         _______ _______ _______ _____ _____    ______ ____

>  <TORSDO>
F 2

$$$$
=
 OpenBabel11042412263D

 26 30  0  0  0  0  0  0  0  0999 V2000
  188.5600  177.6020  141.2880 C   0  0  0  0  0  0  0  0  0  0  0  0
  190.9680  176.7650  147.7160 C   0  0  0  0  0  3  0  0  0  0  0  0
  188.7400  177.8130  138.9020 N   0  0  0  0  0  0  0  0  0  0  0  0
  191.6800  176.9150  145.4390 C   0  0  0  0  0  3  0  0  0  0  0  0
  189.6230  176.9250  147.3490 C   0  0  0  0  0  3  0  0  0  0  0  0
  189.8710  177.2460  143.7390 C   0  0  0  0  0  0  0  0  0  0  0  0
  190.3540  177.0770  145.0400 C   0  0  0  0  0  0  0  0  0  0  0  0
  187.7910  177.5580  142.4900 C   0  0  0  0  0  0  0  0  0  0  0  0
  190.6310  177.2870  142.5730 C   0  0  0  0  0  3  0  0  0  0  0  0
  190.7340  177.5050  140.1760 C   0  0  0  0  0  3  0  0  0  0  0  0
  191.9530  176.7630  146.7670 N   0  0  0  0  0  0  0  0  0  0  0  0
  189.3480  177.0790  145.9950 C   0  0  0  0  0  0  0  0  0  0  0  0
  187.8470  177.2890  145.2560 S   0  0  0  0  0  0  0  0  0  0  0  0
  189.9790  177.4640  141.3480 C   0  0  0  0  0  0  0  0  0  0  0  0
  187.9760  177.7760  140.0260 C   0  0  0  0  0  3  0  0  0  0  0  0
  190.0910  177.6820  138.9520 C   0  0  0  0  0  3  0  0  0  0  0  0
  188.4860  177.3790  143.6900 C   0  0  0  0  0  0  0  0  0  0  0  0
  185.6980  178.7910  142.6970 C   0  0  0  0  0  3  0  0  0  0  0  0
  186.3580  177.6850  142.5510 N   0  0  0  0  0  0  0  0  0  0  0  0
  182.1470  179.0030  143.9570 C   0  0  0  0  0  3  0  0  0  0  0  0
  181.4570  178.8220  142.7570 C   0  0  0  0  0  0  0  0  0  0  0  0
  184.2340  178.8060  142.7460 C   0  0  0  0  0  0  0  0  0  0  0  0
  183.5420  178.9950  143.9490 C   0  0  0  0  0  3  0  0  0  0  0  0
  183.5040  178.6290  141.5680 C   0  0  0  0  0  3  0  0  0  0  0  0
  182.1450  178.6410  141.5960 N   0  0  0  0  0  0  0  0  0  0  0  0
  179.7080  178.8300  142.7440 Cl  0  0  0  0  0  0  0  0  0  0  0  0
  1 14  1  0  0  0  0
  1  8  1  0  0  0  0
  3 16  2  0  0  0  0
  3 15  1  0  0  0  0
  4 11  1  0  0  0  0
  5  2  1  0  0  0  0
  6  7  1  0  0  0  0
  7  4  2  0  0  0  0
  7 12  1  0  0  0  0
  8 19  1  0  0  0  0
  8 17  2  0  0  0  0
  9  6  2  0  0  0  0
 10 14  2  0  0  0  0
 11  2  2  0  0  0  0
 12  5  2  0  0  0  0
 13 12  1  0  0  0  0
 14  9  1  0  0  0  0
 15  1  2  0  0  0  0
 16 10  1  0  0  0  0
 17  6  1  0  0  0  0
 17 13  1  0  0  0  0
 18 22  1  0  0  0  0
 19 18  2  0  0  0  0
 21 20  2  0  0  0  0
 22 23  2  0  0  0  0
 23 20  1  0  0  0  0
 24 25  2  0  0  0  0
 24 22  1  0  0  0  0
 25 21  1  0  0  0  0
 26 21  1  0  0  0  0
M  END
>  <MODEL>
7

>  <REMARK>
 VINA RESULT:      -9.4      3.493      7.525
  Name = 
  2 active torsions:
  status: ('A' for Active; 'I' for Inactive)
    1  A    between atoms: C_3  and  C_9
    2  A    between atoms: N_6  and  C_14
                            x       y       z     vdW  Elec       q    Type
                         _______ _______ _______ _____ _____    ______ ____

>  <TORSDO>
F 2

$$$$
=
 OpenBabel11042412263D

 26 30  0  0  0  0  0  0  0  0999 V2000
  185.8820  178.2450  142.9940 C   0  0  0  0  0  0  0  0  0  0  0  0
  189.1200  178.0840  136.8860 C   0  0  0  0  0  3  0  0  0  0  0  0
  184.0260  178.6340  144.4700 N   0  0  0  0  0  0  0  0  0  0  0  0
  187.0190  178.6200  137.8940 C   0  0  0  0  0  3  0  0  0  0  0  0
  189.6700  177.7240  138.1250 C   0  0  0  0  0  3  0  0  0  0  0  0
  186.8770  178.3040  140.3750 C   0  0  0  0  0  0  0  0  0  0  0  0
  187.5350  178.2700  139.1420 C   0  0  0  0  0  0  0  0  0  0  0  0
  187.2290  177.8410  142.7520 C   0  0  0  0  0  0  0  0  0  0  0  0
  185.5610  178.7000  140.6010 C   0  0  0  0  0  3  0  0  0  0  0  0
  183.7440  179.0660  142.1400 C   0  0  0  0  0  3  0  0  0  0  0  0
  187.8250  178.5180  136.7990 N   0  0  0  0  0  0  0  0  0  0  0  0
  188.8460  177.8290  139.2400 C   0  0  0  0  0  0  0  0  0  0  0  0
  189.2190  177.4720  140.8460 S   0  0  0  0  0  0  0  0  0  0  0  0
  185.0620  178.6710  141.9070 C   0  0  0  0  0  0  0  0  0  0  0  0
  185.3140  178.2420  144.2750 C   0  0  0  0  0  3  0  0  0  0  0  0
  183.2400  179.0400  143.4390 C   0  0  0  0  0  3  0  0  0  0  0  0
  187.6840  177.8860  141.4300 C   0  0  0  0  0  0  0  0  0  0  0  0
  189.0440  178.1210  144.3560 C   0  0  0  0  0  3  0  0  0  0  0  0
  188.1470  177.3940  143.7680 N   0  0  0  0  0  0  0  0  0  0  0  0
  190.4120  176.9530  147.6740 C   0  0  0  0  0  3  0  0  0  0  0  0
  191.6630  176.4880  147.2650 C   0  0  0  0  0  0  0  0  0  0  0  0
  189.9290  177.5620  145.3800 C   0  0  0  0  0  0  0  0  0  0  0  0
  189.5420  177.4930  146.7250 C   0  0  0  0  0  3  0  0  0  0  0  0
  191.1890  177.0840  145.0150 C   0  0  0  0  0  3  0  0  0  0  0  0
  192.0220  176.5620  145.9540 N   0  0  0  0  0  0  0  0  0  0  0  0
  192.7690  175.8070  148.4370 Cl  0  0  0  0  0  0  0  0  0  0  0  0
  1 15  2  0  0  0  0
  2  5  1  0  0  0  0
  4  7  2  0  0  0  0
  5 12  2  0  0  0  0
  6  9  2  0  0  0  0
  6 17  1  0  0  0  0
  7 12  1  0  0  0  0
  7  6  1  0  0  0  0
  8  1  1  0  0  0  0
  8 19  1  0  0  0  0
  9 14  1  0  0  0  0
 10 16  1  0  0  0  0
 11  2  2  0  0  0  0
 11  4  1  0  0  0  0
 12 13  1  0  0  0  0
 13 17  1  0  0  0  0
 14 10  2  0  0  0  0
 14  1  1  0  0  0  0
 15  3  1  0  0  0  0
 16  3  2  0  0  0  0
 17  8  2  0  0  0  0
 18 22  1  0  0  0  0
 19 18  2  0  0  0  0
 21 20  1  0  0  0  0
 21 26  1  0  0  0  0
 22 23  1  0  0  0  0
 23 20  2  0  0  0  0
 24 22  2  0  0  0  0
 24 25  1  0  0  0  0
 25 21  2  0  0  0  0
M  END
>  <MODEL>
8

>  <REMARK>
 VINA RESULT:      -8.7      3.258      6.970
  Name = 
  2 active torsions:
  status: ('A' for Active; 'I' for Inactive)
    1  A    between atoms: C_3  and  C_9
    2  A    between atoms: N_6  and  C_14
                            x       y       z     vdW  Elec       q    Type
                         _______ _______ _______ _____ _____    ______ ____

>  <TORSDO>
F 2

$$$$
=
 OpenBabel11042412263D

 26 30  0  0  0  0  0  0  0  0999 V2000
  188.4820  177.3510  145.0590 C   0  0  0  0  0  0  0  0  0  0  0  0
  191.5830  177.3450  138.8780 C   0  0  0  0  0  3  0  0  0  0  0  0
  188.3980  177.2420  147.4570 N   0  0  0  0  0  0  0  0  0  0  0  0
  192.0410  177.1850  141.2190 C   0  0  0  0  0  3  0  0  0  0  0  0
  190.2060  177.4710  139.1140 C   0  0  0  0  0  3  0  0  0  0  0  0
  190.0550  177.3090  142.7400 C   0  0  0  0  0  0  0  0  0  0  0  0
  190.6790  177.3070  141.4890 C   0  0  0  0  0  0  0  0  0  0  0  0
  187.8500  177.4770  143.7850 C   0  0  0  0  0  0  0  0  0  0  0  0
  190.6820  177.1850  143.9780 C   0  0  0  0  0  3  0  0  0  0  0  0
  190.5210  177.0840  146.3790 C   0  0  0  0  0  3  0  0  0  0  0  0
  192.4580  177.2070  139.9210 N   0  0  0  0  0  0  0  0  0  0  0  0
  189.7840  177.4480  140.4390 C   0  0  0  0  0  0  0  0  0  0  0  0
  188.2100  177.5760  141.0310 S   0  0  0  0  0  0  0  0  0  0  0  0
  189.8990  177.2070  145.1370 C   0  0  0  0  0  0  0  0  0  0  0  0
  187.7620  177.3650  146.2620 C   0  0  0  0  0  3  0  0  0  0  0  0
  189.7470  177.1040  147.5380 C   0  0  0  0  0  3  0  0  0  0  0  0
  188.6730  177.4510  142.6550 C   0  0  0  0  0  0  0  0  0  0  0  0
  185.8230  178.7200  143.2420 C   0  0  0  0  0  3  0  0  0  0  0  0
  186.4310  177.6280  143.5850 N   0  0  0  0  0  0  0  0  0  0  0  0
  182.1250  179.0030  143.9400 C   0  0  0  0  0  3  0  0  0  0  0  0
  181.6250  178.8260  142.6480 C   0  0  0  0  0  0  0  0  0  0  0  0
  184.3700  178.7610  143.0650 C   0  0  0  0  0  0  0  0  0  0  0  0
  183.5040  178.9700  144.1460 C   0  0  0  0  0  3  0  0  0  0  0  0
  183.8270  178.5900  141.7890 C   0  0  0  0  0  3  0  0  0  0  0  0
  182.4800  178.6260  141.6080 N   0  0  0  0  0  0  0  0  0  0  0  0
  179.8990  178.8650  142.3650 Cl  0  0  0  0  0  0  0  0  0  0  0  0
  1 14  1  0  0  0  0
  1 15  1  0  0  0  0
  2  5  2  0  0  0  0
  2 11  1  0  0  0  0
  3 16  1  0  0  0  0
  4  7  1  0  0  0  0
  5 12  1  0  0  0  0
  6  9  1  0  0  0  0
  7  6  1  0  0  0  0
  8  1  2  0  0  0  0
  9 14  2  0  0  0  0
 10 16  2  0  0  0  0
 11  4  2  0  0  0  0
 12 13  1  0  0  0  0
 12  7  2  0  0  0  0
 13 17  1  0  0  0  0
 14 10  1  0  0  0  0
 15  3  2  0  0  0  0
 17  6  2  0  0  0  0
 17  8  1  0  0  0  0
 18 19  2  0  0  0  0
 19  8  1  0  0  0  0
 20 23  1  0  0  0  0
 21 20  2  0  0  0  0
 22 18  1  0  0  0  0
 22 23  2  0  0  0  0
 24 22  1  0  0  0  0
 25 24  2  0  0  0  0
 25 21  1  0  0  0  0
 26 21  1  0  0  0  0
M  END
>  <MODEL>
9

>  <REMARK>
 VINA RESULT:      -8.7      3.327      7.095
  Name = 
  2 active torsions:
  status: ('A' for Active; 'I' for Inactive)
    1  A    between atoms: C_3  and  C_9
    2  A    between atoms: N_6  and  C_14
                            x       y       z     vdW  Elec       q    Type
                         _______ _______ _______ _____ _____    ______ ____

>  <TORSDO>
F 2

$$$$
