=
 OpenBabel11042413173D

 61 65  0  0  1  0  0  0  0  0999 V2000
  186.8190  178.0830  137.8920 C   0  0  1  0  0  3  0  0  0  0  0  0
  188.9810  177.1290  138.1680 N   0  0  0  0  0  0  0  0  0  0  0  0
  187.7580  176.9600  137.8240 N   0  0  0  0  0  0  0  0  0  0  0  0
  189.9700  176.0940  138.0410 C   0  0  0  0  0  0  0  0  0  0  0  0
  189.6540  174.8820  138.2190 O   0  0  0  0  0  0  0  0  0  0  0  0
  191.2950  176.4090  137.7360 O   0  0  0  0  0  0  0  0  0  0  0  0
  192.1600  175.6180  136.9100 C   0  0  2  0  0  3  0  0  0  0  0  0
  193.6230  175.7700  137.3340 C   0  0  2  0  0  3  0  0  0  0  0  0
  194.4320  175.0780  136.4080 O   0  0  0  0  0  0  0  0  0  0  0  0
  194.2340  174.4600  137.6560 C   0  0  0  0  0  2  0  0  0  0  0  0
  190.6350  175.3660  134.9170 C   0  0  0  0  0  1  0  0  0  0  0  0
  191.9910  175.8710  135.4050 C   0  0  0  0  0  2  0  0  0  0  0  0
  187.1080  179.0060  136.6990 C   0  0  0  0  0  2  0  0  0  0  0  0
  187.5690  178.2540  135.5030 C   0  0  0  0  0  0  0  0  0  0  0  0
  188.7570  178.3590  135.1080 O   0  0  0  0  0  0  0  0  0  0  0  0
  186.6530  177.3980  134.8070 N   0  0  0  0  0  2  0  0  0  0  0  0
  186.9140  175.9760  134.5950 C   0  0  0  0  0  2  0  0  0  0  0  0
  185.5940  173.8880  137.3920 C   0  0  0  0  0  3  0  0  0  0  0  0
  185.8700  175.1090  135.2290 C   0  0  0  0  0  0  0  0  0  0  0  0
  184.6460  175.2910  134.8710 N   0  0  0  0  0  0  0  0  0  0  0  0
  186.2970  173.9180  136.0710 C   0  0  0  0  0  2  0  0  0  0  0  0
  183.4900  174.4880  135.2130 C   0  0  0  0  0  3  0  0  0  0  0  0
  183.3120  173.7860  136.3520 C   0  0  0  0  0  0  0  0  0  0  0  0
  184.2580  173.8040  137.4870 C   0  0  0  0  0  3  0  0  0  0  0  0
  180.5210  171.0970  136.0420 C   0  0  0  0  0  0  0  0  0  0  0  0
  182.0240  173.0660  136.5120 C   0  0  0  0  0  0  0  0  0  0  0  0
  180.3490  169.9370  135.5970 O   0  0  0  0  0  0  0  0  0  0  0  0
  179.8830  172.7520  137.6810 C   0  0  0  0  0  3  0  0  0  0  0  0
  179.5770  171.6450  137.0160 C   0  0  0  0  0  3  0  0  0  0  0  0
  181.1560  173.4440  137.4620 C   0  0  0  0  0  3  0  0  0  0  0  0
  181.6910  171.9200  135.5730 C   0  0  0  0  0  2  0  0  0  0  0  0
  185.3750  177.5400  137.8630 C   0  0  0  0  0  2  0  0  0  0  0  0
  183.0490  177.5760  138.6580 C   0  0  0  0  0  2  0  0  0  0  0  0
  183.9400  178.2540  141.3690 C   0  0  0  0  0  2  0  0  0  0  0  0
  184.4280  178.1410  138.8960 C   0  0  1  0  0  3  0  0  0  0  0  0
  182.5230  178.4100  140.9560 N   0  0  0  0  0  0  0  0  0  0  0  0
  182.0460  178.2730  139.5630 C   0  0  0  0  0  2  0  0  0  0  0  0
  180.7140  179.7920  141.4830 O   0  0  0  0  0  0  0  0  0  0  0  0
  181.5980  178.9790  141.8880 C   0  0  0  0  0  0  0  0  0  0  0  0
  184.8580  177.7080  140.2810 C   0  0  0  0  0  2  0  0  0  0  0  0
  181.7050  178.7110  143.3550 C   0  0  0  0  0  2  0  0  0  0  0  0
  182.6520  179.6810  144.0450 C   0  0  0  0  0  2  0  0  0  0  0  0
  183.5400  178.8460  144.9680 C   0  0  0  0  0  2  0  0  0  0  0  0
  185.3570  180.0060  143.9850 O   0  0  0  0  0  1  0  0  0  0  0  0
  185.0440  178.8960  144.7820 C   0  0  1  0  0  3  0  0  0  0  0  0
  186.0040  178.8360  145.9950 C   0  0  1  0  0  3  0  0  0  0  0  0
  185.4350  179.3240  147.1740 O   0  0  0  0  0  1  0  0  0  0  0  0
  186.6540  177.4570  146.1960 C   0  0  1  0  0  3  0  0  0  0  0  0
  188.5380  177.1570  144.7570 C   0  0  2  0  0  3  0  0  0  0  0  0
  187.1450  176.8800  144.9870 O   0  0  0  0  0  0  0  0  0  0  0  0
  187.7090  177.5180  147.2530 C   0  0  0  0  0  0  0  0  0  0  0  0
  189.0740  177.9070  146.7940 C   0  0  0  0  0  2  0  0  0  0  0  0
  187.4940  177.0850  148.3680 O   0  0  0  0  0  0  0  0  0  0  0  0
  189.0110  178.2900  145.4410 O   0  0  0  0  0  0  0  0  0  0  0  0
  188.7830  177.2680  142.9600 P   0  0  2  0  0  0  0  0  0  0  0  0
  187.4210  177.9990  142.2820 O   0  0  0  0  0  0  0  0  0  0  0  0
  188.9330  175.8850  142.3520 O   0  0  0  0  0  1  0  0  0  0  0  0
  190.0910  178.3120  142.6140 O   0  0  0  0  0  0  0  0  0  0  0  0
  191.8060  176.3330  143.4810 O   0  0  0  0  0  0  0  0  0  0  0  0
  191.4070  177.2790  142.3690 P   0  0  0  0  0  0  0  0  0  0  0  0
  192.2930  177.3650  141.1360 O   0  0  0  0  0  0  0  0  0  0  0  0
  1 13  1  6  0  0  0
  3  1  1  0  0  0  0
  3  2  2  0  0  0  0
  4  2  1  0  0  0  0
  4  5  2  0  0  0  0
  6  4  1  0  0  0  0
  7 12  1  6  0  0  0
  7  6  1  0  0  0  0
  8  7  1  6  0  0  0
  8 10  1  0  0  0  0
  9  8  1  0  0  0  0
  9 10  1  0  0  0  0
 11 12  1  0  0  0  0
 14 13  1  0  0  0  0
 15 14  2  0  0  0  0
 16 14  1  0  0  0  0
 17 16  1  0  0  0  0
 17 19  1  0  0  0  0
 18 24  2  0  0  0  0
 19 21  1  0  0  0  0
 20 22  1  0  0  0  0
 20 19  2  0  0  0  0
 21 18  1  0  0  0  0
 22 23  2  0  0  0  0
 23 26  1  0  0  0  0
 23 24  1  0  0  0  0
 25 29  1  0  0  0  0
 26 30  2  0  0  0  0
 27 25  2  0  0  0  0
 29 28  2  0  0  0  0
 30 28  1  0  0  0  0
 31 25  1  0  0  0  0
 31 26  1  0  0  0  0
 32  1  1  0  0  0  0
 33 35  1  0  0  0  0
 33 37  1  0  0  0  0
 35 32  1  6  0  0  0
 35 40  1  0  0  0  0
 36 34  1  0  0  0  0
 36 39  1  0  0  0  0
 37 36  1  0  0  0  0
 38 39  2  0  0  0  0
 39 41  1  0  0  0  0
 40 34  1  0  0  0  0
 41 42  1  0  0  0  0
 42 43  1  0  0  0  0
 45 44  1  1  0  0  0
 45 43  1  0  0  0  0
 45 46  1  0  0  0  0
 46 47  1  1  0  0  0
 48 46  1  6  0  0  0
 48 51  1  0  0  0  0
 49 55  1  6  0  0  0
 49 50  1  0  0  0  0
 49 54  1  0  0  0  0
 50 48  1  0  0  0  0
 51 53  2  0  0  0  0
 52 51  1  0  0  0  0
 54 52  1  0  0  0  0
 55 56  2  6  0  0  0
 57 55  1  0  0  0  0
 58 55  1  0  0  0  0
 60 58  1  0  0  0  0
 60 59  2  0  0  0  0
 61 60  2  0  0  0  0
M  END
>  <MODEL>
1

>  <REMARK>
 VINA RESULT:      -6.3      0.000      0.000
  Name = 
  22 active torsions:
  status: ('A' for Active; 'I' for Inactive)
    1  A    between atoms: C_1  and  C_6
    2  A    between atoms: C_1  and  N_32
    3  A    between atoms: C_3  and  C_12
    4  A    between atoms: P_5  and  C_11
    5  A    between atoms: P_5  and  O_36
    6  A    between atoms: C_8  and  C_23
    7  A    between atoms: C_8  and  C_42
    8  A    between atoms: C_10  and  C_47
    9  A    between atoms: C_12  and  C_42
   10  A    between atoms: C_14  and  C_19
   11  A    between atoms: C_16  and  C_45
   12  A    between atoms: C_17  and  C_18
   13  A    between atoms: C_17  and  C_53
   14  A    between atoms: C_18  and  C_55
   15  A    between atoms: C_19  and  C_38
   16  A    between atoms: C_19  and  O_52
   17  A    between atoms: N_22  and  C_33
   18  A    between atoms: C_33  and  O_52
   19  A    between atoms: O_36  and  P_40
   20  A    between atoms: N_37  and  C_42
   21  A    between atoms: C_47  and  C_61
   22  A    between atoms: C_53  and  C_61
                            x       y       z     vdW  Elec       q    Type
                         _______ _______ _______ _____ _____    ______ ____

>  <TORSDO>
F 22

$$$$
=
 OpenBabel11042413173D

 61 65  0  0  1  0  0  0  0  0999 V2000
  186.6860  177.3180  145.0580 C   0  0  1  0  0  3  0  0  0  0  0  0
  188.3540  177.1530  146.7480 N   0  0  0  0  0  0  0  0  0  0  0  0
  187.7870  177.8720  145.8500 N   0  0  0  0  0  0  0  0  0  0  0  0
  189.3770  177.6650  147.6160 C   0  0  0  0  0  0  0  0  0  0  0  0
  189.0710  178.1890  148.7260 O   0  0  0  0  0  0  0  0  0  0  0  0
  190.7210  177.6100  147.2430 O   0  0  0  0  0  0  0  0  0  0  0  0
  191.2400  176.8480  146.1450 C   0  0  2  0  0  3  0  0  0  0  0  0
  192.3800  175.9310  146.5950 C   0  0  2  0  0  3  0  0  0  0  0  0
  191.9010  174.6050  146.6270 O   0  0  0  0  0  0  0  0  0  0  0  0
  192.0570  175.2470  147.8680 C   0  0  0  0  0  2  0  0  0  0  0  0
  190.5830  178.7280  144.5980 C   0  0  0  0  0  1  0  0  0  0  0  0
  191.6580  177.6980  144.9360 C   0  0  0  0  0  2  0  0  0  0  0  0
  185.4470  177.2510  145.9640 C   0  0  0  0  0  2  0  0  0  0  0  0
  184.7240  178.5470  146.0250 C   0  0  0  0  0  0  0  0  0  0  0  0
  185.2410  179.5340  146.6040 O   0  0  0  0  0  0  0  0  0  0  0  0
  183.4350  178.6700  145.4080 N   0  0  0  0  0  2  0  0  0  0  0  0
  183.1470  179.6720  144.3840 C   0  0  0  0  0  2  0  0  0  0  0  0
  180.6330  179.2740  141.6550 C   0  0  0  0  0  3  0  0  0  0  0  0
  182.6500  179.0530  143.1130 C   0  0  0  0  0  0  0  0  0  0  0  0
  183.5290  178.6120  142.2810 N   0  0  0  0  0  0  0  0  0  0  0  0
  181.1680  178.7580  142.9540 C   0  0  0  0  0  2  0  0  0  0  0  0
  183.3060  177.8410  141.0750 C   0  0  0  0  0  3  0  0  0  0  0  0
  182.2190  177.9020  140.2760 C   0  0  0  0  0  0  0  0  0  0  0  0
  181.1070  178.8540  140.4720 C   0  0  0  0  0  3  0  0  0  0  0  0
  181.0930  175.4130  137.5100 C   0  0  0  0  0  0  0  0  0  0  0  0
  182.2210  177.0510  139.0610 C   0  0  0  0  0  0  0  0  0  0  0  0
  180.0660  174.8050  137.1250 O   0  0  0  0  0  0  0  0  0  0  0  0
  183.2000  176.4200  136.8950 C   0  0  0  0  0  3  0  0  0  0  0  0
  182.2260  175.5690  136.5970 C   0  0  0  0  0  3  0  0  0  0  0  0
  183.1670  177.2150  138.1250 C   0  0  0  0  0  3  0  0  0  0  0  0
  181.1580  175.9760  138.9050 C   0  0  0  0  0  2  0  0  0  0  0  0
  186.4490  178.2110  143.8230 C   0  0  0  0  0  2  0  0  0  0  0  0
  188.1340  176.7940  142.7290 C   0  0  0  0  0  2  0  0  0  0  0  0
  188.0130  178.4440  140.3070 C   0  0  0  0  0  2  0  0  0  0  0  0
  187.5570  178.1880  142.7760 C   0  0  1  0  0  3  0  0  0  0  0  0
  189.1240  177.4870  140.5400 N   0  0  0  0  0  0  0  0  0  0  0  0
  189.3490  176.7720  141.8140 C   0  0  0  0  0  2  0  0  0  0  0  0
  191.3880  177.3030  139.9900 O   0  0  0  0  0  0  0  0  0  0  0  0
  190.1920  177.4350  139.5890 C   0  0  0  0  0  0  0  0  0  0  0  0
  186.9640  178.4740  141.4120 C   0  0  0  0  0  2  0  0  0  0  0  0
  189.9460  177.6290  138.1280 C   0  0  0  0  0  2  0  0  0  0  0  0
  188.4650  177.5680  137.7840 C   0  0  0  0  0  2  0  0  0  0  0  0
  188.1310  176.0960  137.5380 C   0  0  0  0  0  2  0  0  0  0  0  0
  186.6010  176.6560  135.8180 O   0  0  0  0  0  1  0  0  0  0  0  0
  187.5430  175.6910  136.2010 C   0  0  1  0  0  3  0  0  0  0  0  0
  188.4530  175.3430  134.9980 C   0  0  1  0  0  3  0  0  0  0  0  0
  189.7190  175.9290  135.0760 O   0  0  0  0  0  1  0  0  0  0  0  0
  188.5320  173.8350  134.7040 C   0  0  1  0  0  3  0  0  0  0  0  0
  190.3770  172.8180  135.8310 C   0  0  2  0  0  3  0  0  0  0  0  0
  189.8690  173.3490  134.5940 O   0  0  0  0  0  0  0  0  0  0  0  0
  187.7360  173.0580  135.7020 C   0  0  0  0  0  0  0  0  0  0  0  0
  188.4500  172.6800  136.9560 C   0  0  0  0  0  2  0  0  0  0  0  0
  186.6480  172.6060  135.4090 O   0  0  0  0  0  0  0  0  0  0  0  0
  189.7130  173.3010  136.9700 O   0  0  0  0  0  0  0  0  0  0  0  0
  192.1650  173.1400  135.8700 P   0  0  2  0  0  0  0  0  0  0  0  0
  192.4930  174.1610  137.1740 O   0  0  0  0  0  1  0  0  0  0  0  0
  192.6130  173.8350  134.5960 O   0  0  0  0  0  0  0  0  0  0  0  0
  193.0110  171.6910  136.1910 O   0  0  0  0  0  0  0  0  0  0  0  0
  195.2580  172.4300  134.7710 O   0  0  0  0  0  0  0  0  0  0  0  0
  194.6440  172.1260  136.1210 P   0  0  0  0  0  0  0  0  0  0  0  0
  195.5520  172.0830  137.3390 O   0  0  0  0  0  0  0  0  0  0  0  0
  1 32  1  6  0  0  0
  1  3  1  0  0  0  0
  1 13  1  0  0  0  0
  2  4  1  0  0  0  0
  3  2  2  0  0  0  0
  4  5  2  0  0  0  0
  6  4  1  0  0  0  0
  7 12  1  6  0  0  0
  7  6  1  0  0  0  0
  8  7  1  6  0  0  0
  8  9  1  0  0  0  0
  8 10  1  0  0  0  0
  9 10  1  0  0  0  0
 11 12  1  0  0  0  0
 13 14  1  0  0  0  0
 14 15  2  0  0  0  0
 16 14  1  0  0  0  0
 17 16  1  0  0  0  0
 18 21  1  0  0  0  0
 19 17  1  0  0  0  0
 20 19  2  0  0  0  0
 21 19  1  0  0  0  0
 22 20  1  0  0  0  0
 23 24  1  0  0  0  0
 23 22  2  0  0  0  0
 24 18  2  0  0  0  0
 25 31  1  0  0  0  0
 26 23  1  0  0  0  0
 27 25  2  0  0  0  0
 28 30  1  0  0  0  0
 29 28  2  0  0  0  0
 29 25  1  0  0  0  0
 30 26  2  0  0  0  0
 31 26  1  0  0  0  0
 33 35  1  0  0  0  0
 34 36  1  0  0  0  0
 34 40  1  0  0  0  0
 35 32  1  1  0  0  0
 36 37  1  0  0  0  0
 37 33  1  0  0  0  0
 39 38  2  0  0  0  0
 39 36  1  0  0  0  0
 40 35  1  0  0  0  0
 41 39  1  0  0  0  0
 42 41  1  0  0  0  0
 43 42  1  0  0  0  0
 45 44  1  6  0  0  0
 45 43  1  0  0  0  0
 46 47  1  1  0  0  0
 46 45  1  0  0  0  0
 48 46  1  1  0  0  0
 48 51  1  0  0  0  0
 49 55  1  1  0  0  0
 49 54  1  0  0  0  0
 50 48  1  0  0  0  0
 50 49  1  0  0  0  0
 51 52  1  0  0  0  0
 52 54  1  0  0  0  0
 53 51  2  0  0  0  0
 55 57  2  6  0  0  0
 55 58  1  0  0  0  0
 55 56  1  0  0  0  0
 59 60  2  0  0  0  0
 60 58  1  0  0  0  0
 60 61  2  0  0  0  0
M  END
>  <MODEL>
2

>  <REMARK>
 VINA RESULT:      -5.6      3.273      9.038
  Name = 
  22 active torsions:
  status: ('A' for Active; 'I' for Inactive)
    1  A    between atoms: C_1  and  C_6
    2  A    between atoms: C_1  and  N_32
    3  A    between atoms: C_3  and  C_12
    4  A    between atoms: P_5  and  C_11
    5  A    between atoms: P_5  and  O_36
    6  A    between atoms: C_8  and  C_23
    7  A    between atoms: C_8  and  C_42
    8  A    between atoms: C_10  and  C_47
    9  A    between atoms: C_12  and  C_42
   10  A    between atoms: C_14  and  C_19
   11  A    between atoms: C_16  and  C_45
   12  A    between atoms: C_17  and  C_18
   13  A    between atoms: C_17  and  C_53
   14  A    between atoms: C_18  and  C_55
   15  A    between atoms: C_19  and  C_38
   16  A    between atoms: C_19  and  O_52
   17  A    between atoms: N_22  and  C_33
   18  A    between atoms: C_33  and  O_52
   19  A    between atoms: O_36  and  P_40
   20  A    between atoms: N_37  and  C_42
   21  A    between atoms: C_47  and  C_61
   22  A    between atoms: C_53  and  C_61
                            x       y       z     vdW  Elec       q    Type
                         _______ _______ _______ _____ _____    ______ ____

>  <TORSDO>
F 22

$$$$
=
 OpenBabel11042413173D

 61 65  0  0  1  0  0  0  0  0999 V2000
  183.8680  179.3960  139.2140 C   0  0  1  0  0  3  0  0  0  0  0  0
  181.5460  179.3190  138.7010 N   0  0  0  0  0  0  0  0  0  0  0  0
  182.5270  179.9850  139.1900 N   0  0  0  0  0  0  0  0  0  0  0  0
  180.2270  179.8730  138.5660 C   0  0  0  0  0  0  0  0  0  0  0  0
  179.2180  179.2260  138.9680 O   0  0  0  0  0  0  0  0  0  0  0  0
  180.0370  181.1240  137.9750 O   0  0  0  0  0  0  0  0  0  0  0  0
  180.6350  181.5520  136.7440 C   0  0  2  0  0  3  0  0  0  0  0  0
  180.1600  182.9540  136.3550 C   0  0  2  0  0  3  0  0  0  0  0  0
  181.1550  183.5600  135.5610 O   0  0  0  0  0  0  0  0  0  0  0  0
  181.0580  184.0010  136.8920 C   0  0  0  0  0  2  0  0  0  0  0  0
  178.9860  180.1690  135.4300 C   0  0  0  0  0  1  0  0  0  0  0  0
  180.4530  180.5630  135.5840 C   0  0  0  0  0  2  0  0  0  0  0  0
  183.9110  178.3790  140.3650 C   0  0  0  0  0  2  0  0  0  0  0  0
  185.2280  178.3600  141.0510 C   0  0  0  0  0  0  0  0  0  0  0  0
  185.3670  177.7440  142.1380 O   0  0  0  0  0  0  0  0  0  0  0  0
  186.3460  179.0390  140.4620 N   0  0  0  0  0  2  0  0  0  0  0  0
  187.5980  178.3580  140.1430 C   0  0  0  0  0  2  0  0  0  0  0  0
  190.6970  177.2360  141.8920 C   0  0  0  0  0  3  0  0  0  0  0  0
  188.3770  178.0020  141.3720 C   0  0  0  0  0  0  0  0  0  0  0  0
  188.0300  178.5610  142.4800 N   0  0  0  0  0  0  0  0  0  0  0  0
  189.3670  176.8510  141.3250 C   0  0  0  0  0  2  0  0  0  0  0  0
  188.5140  178.2700  143.8140 C   0  0  0  0  0  3  0  0  0  0  0  0
  189.7450  177.8230  144.1390 C   0  0  0  0  0  0  0  0  0  0  0  0
  190.8400  177.6430  143.1620 C   0  0  0  0  0  3  0  0  0  0  0  0
  189.3170  177.5750  147.9950 C   0  0  0  0  0  0  0  0  0  0  0  0
  190.0410  177.6330  145.5800 C   0  0  0  0  0  0  0  0  0  0  0  0
  188.4110  177.5660  148.8620 O   0  0  0  0  0  0  0  0  0  0  0  0
  191.5290  176.8360  147.3690 C   0  0  0  0  0  3  0  0  0  0  0  0
  190.6470  177.0700  148.3330 C   0  0  0  0  0  3  0  0  0  0  0  0
  191.1980  177.0710  145.9610 C   0  0  0  0  0  3  0  0  0  0  0  0
  189.0340  178.1060  146.6140 C   0  0  0  0  0  2  0  0  0  0  0  0
  184.1570  178.7340  137.8500 C   0  0  0  0  0  2  0  0  0  0  0  0
  184.0150  176.4100  137.0610 C   0  0  0  0  0  2  0  0  0  0  0  0
  186.9200  176.0990  137.3200 C   0  0  0  0  0  2  0  0  0  0  0  0
  184.8180  177.3620  137.9150 C   0  0  1  0  0  3  0  0  0  0  0  0
  186.0240  174.9250  137.1700 N   0  0  0  0  0  0  0  0  0  0  0  0
  184.5490  174.9960  137.2290 C   0  0  0  0  0  2  0  0  0  0  0  0
  185.9850  172.6870  137.8420 O   0  0  0  0  0  0  0  0  0  0  0  0
  186.5980  173.6150  137.2330 C   0  0  0  0  0  0  0  0  0  0  0  0
  186.2040  177.4450  137.3110 C   0  0  0  0  0  2  0  0  0  0  0  0
  187.9560  173.3300  136.6780 C   0  0  0  0  0  2  0  0  0  0  0  0
  187.9080  173.0000  135.1930 C   0  0  0  0  0  2  0  0  0  0  0  0
  189.2310  173.4780  134.5940 C   0  0  0  0  0  2  0  0  0  0  0  0
  191.3210  172.3690  134.7240 O   0  0  0  0  0  1  0  0  0  0  0  0
  190.5070  173.2950  135.3920 C   0  0  1  0  0  3  0  0  0  0  0  0
  191.3550  174.5100  135.8380 C   0  0  1  0  0  3  0  0  0  0  0  0
  190.7040  175.7330  135.6560 O   0  0  0  0  0  1  0  0  0  0  0  0
  191.9330  174.3690  137.2560 C   0  0  1  0  0  3  0  0  0  0  0  0
  194.2130  175.0770  137.3490 C   0  0  2  0  0  3  0  0  0  0  0  0
  193.3020  173.9670  137.2730 O   0  0  0  0  0  0  0  0  0  0  0  0
  191.7090  175.6190  138.0460 C   0  0  0  0  0  0  0  0  0  0  0  0
  192.7520  176.6750  137.9080 C   0  0  0  0  0  2  0  0  0  0  0  0
  190.8350  175.6700  138.8880 O   0  0  0  0  0  0  0  0  0  0  0  0
  193.6640  176.2920  136.9060 O   0  0  0  0  0  0  0  0  0  0  0  0
  195.7160  174.6130  136.4400 P   0  0  2  0  0  0  0  0  0  0  0  0
  196.6660  175.9950  136.2410 O   0  0  0  0  0  1  0  0  0  0  0  0
  195.3670  174.0740  135.0630 O   0  0  0  0  0  0  0  0  0  0  0  0
  196.6540  173.5360  137.3770 O   0  0  0  0  0  0  0  0  0  0  0  0
  196.4630  175.0510  139.6740 O   0  0  0  0  0  0  0  0  0  0  0  0
  197.3500  174.5070  138.5740 P   0  0  0  0  0  0  0  0  0  0  0  0
  198.7960  174.9720  138.5090 O   0  0  0  0  0  0  0  0  0  0  0  0
  1 32  1  6  0  0  0
  1 13  1  0  0  0  0
  2  3  2  0  0  0  0
  3  1  1  0  0  0  0
  4  2  1  0  0  0  0
  4  5  2  0  0  0  0
  6  4  1  0  0  0  0
  7 12  1  6  0  0  0
  7  6  1  0  0  0  0
  8  7  1  1  0  0  0
  8 10  1  0  0  0  0
  9  8  1  0  0  0  0
  9 10  1  0  0  0  0
 11 12  1  0  0  0  0
 13 14  1  0  0  0  0
 14 15  2  0  0  0  0
 16 14  1  0  0  0  0
 17 16  1  0  0  0  0
 17 19  1  0  0  0  0
 18 24  2  0  0  0  0
 19 20  2  0  0  0  0
 20 22  1  0  0  0  0
 21 19  1  0  0  0  0
 21 18  1  0  0  0  0
 22 23  2  0  0  0  0
 23 26  1  0  0  0  0
 24 23  1  0  0  0  0
 25 29  1  0  0  0  0
 25 27  2  0  0  0  0
 26 30  2  0  0  0  0
 26 31  1  0  0  0  0
 28 29  2  0  0  0  0
 30 28  1  0  0  0  0
 31 25  1  0  0  0  0
 33 37  1  0  0  0  0
 33 35  1  0  0  0  0
 35 32  1  6  0  0  0
 36 37  1  0  0  0  0
 36 39  1  0  0  0  0
 36 34  1  0  0  0  0
 39 38  2  0  0  0  0
 40 34  1  0  0  0  0
 40 35  1  0  0  0  0
 41 39  1  0  0  0  0
 42 41  1  0  0  0  0
 43 42  1  0  0  0  0
 43 45  1  0  0  0  0
 45 44  1  6  0  0  0
 45 46  1  0  0  0  0
 46 47  1  1  0  0  0
 48 46  1  6  0  0  0
 48 50  1  0  0  0  0
 48 51  1  0  0  0  0
 49 55  1  6  0  0  0
 50 49  1  0  0  0  0
 51 53  2  0  0  0  0
 52 51  1  0  0  0  0
 54 49  1  0  0  0  0
 54 52  1  0  0  0  0
 55 57  2  6  0  0  0
 55 58  1  0  0  0  0
 56 55  1  0  0  0  0
 58 60  1  0  0  0  0
 60 59  2  0  0  0  0
 61 60  2  0  0  0  0
M  END
>  <MODEL>
3

>  <REMARK>
 VINA RESULT:      -5.5      3.359     10.540
  Name = 
  22 active torsions:
  status: ('A' for Active; 'I' for Inactive)
    1  A    between atoms: C_1  and  C_6
    2  A    between atoms: C_1  and  N_32
    3  A    between atoms: C_3  and  C_12
    4  A    between atoms: P_5  and  C_11
    5  A    between atoms: P_5  and  O_36
    6  A    between atoms: C_8  and  C_23
    7  A    between atoms: C_8  and  C_42
    8  A    between atoms: C_10  and  C_47
    9  A    between atoms: C_12  and  C_42
   10  A    between atoms: C_14  and  C_19
   11  A    between atoms: C_16  and  C_45
   12  A    between atoms: C_17  and  C_18
   13  A    between atoms: C_17  and  C_53
   14  A    between atoms: C_18  and  C_55
   15  A    between atoms: C_19  and  C_38
   16  A    between atoms: C_19  and  O_52
   17  A    between atoms: N_22  and  C_33
   18  A    between atoms: C_33  and  O_52
   19  A    between atoms: O_36  and  P_40
   20  A    between atoms: N_37  and  C_42
   21  A    between atoms: C_47  and  C_61
   22  A    between atoms: C_53  and  C_61
                            x       y       z     vdW  Elec       q    Type
                         _______ _______ _______ _____ _____    ______ ____

>  <TORSDO>
F 22

$$$$
=
 OpenBabel11042413173D

 61 65  0  0  1  0  0  0  0  0999 V2000
  186.7920  177.0780  145.3840 C   0  0  1  0  0  3  0  0  0  0  0  0
  188.8060  177.0650  146.6510 N   0  0  0  0  0  0  0  0  0  0  0  0
  188.2370  176.8730  145.5180 N   0  0  0  0  0  0  0  0  0  0  0  0
  190.2290  176.9680  146.8270 C   0  0  0  0  0  0  0  0  0  0  0  0
  190.7210  176.0900  147.5920 O   0  0  0  0  0  0  0  0  0  0  0  0
  191.0890  177.8510  146.1710 O   0  0  0  0  0  0  0  0  0  0  0  0
  191.8380  177.5450  144.9870 C   0  0  2  0  0  3  0  0  0  0  0  0
  192.0650  178.7960  144.1350 C   0  0  2  0  0  3  0  0  0  0  0  0
  190.9890  179.6830  144.3470 O   0  0  0  0  0  0  0  0  0  0  0  0
  190.9900  178.9730  143.1330 C   0  0  0  0  0  2  0  0  0  0  0  0
  192.1080  175.1490  144.2480 C   0  0  0  0  0  1  0  0  0  0  0  0
  191.2440  176.4040  144.1490 C   0  0  0  0  0  2  0  0  0  0  0  0
  186.2750  177.6430  146.7150 C   0  0  0  0  0  2  0  0  0  0  0  0
  185.4790  178.8830  146.5300 C   0  0  0  0  0  0  0  0  0  0  0  0
  185.8410  179.9550  147.0750 O   0  0  0  0  0  0  0  0  0  0  0  0
  184.2990  178.8540  145.7140 N   0  0  0  0  0  2  0  0  0  0  0  0
  184.1210  179.7310  144.5590 C   0  0  0  0  0  2  0  0  0  0  0  0
  180.6580  179.1750  143.2850 C   0  0  0  0  0  3  0  0  0  0  0  0
  183.1400  179.1750  143.5730 C   0  0  0  0  0  0  0  0  0  0  0  0
  183.5460  179.0000  142.3630 N   0  0  0  0  0  0  0  0  0  0  0  0
  181.8120  178.6270  144.0660 C   0  0  0  0  0  2  0  0  0  0  0  0
  182.8500  178.3390  141.2780 C   0  0  0  0  0  3  0  0  0  0  0  0
  181.5130  178.2840  141.1000 C   0  0  0  0  0  0  0  0  0  0  0  0
  180.5390  178.9840  141.9630 C   0  0  0  0  0  3  0  0  0  0  0  0
  179.9680  177.6200  137.5950 C   0  0  0  0  0  0  0  0  0  0  0  0
  181.0160  177.5870  139.8880 C   0  0  0  0  0  0  0  0  0  0  0  0
  179.5900  178.2470  136.5770 O   0  0  0  0  0  0  0  0  0  0  0  0
  180.8840  175.5700  138.4860 C   0  0  0  0  0  3  0  0  0  0  0  0
  180.2440  176.1860  137.4990 C   0  0  0  0  0  3  0  0  0  0  0  0
  181.3250  176.2990  139.6780 C   0  0  0  0  0  3  0  0  0  0  0  0
  180.1340  178.3400  138.9070 C   0  0  0  0  0  2  0  0  0  0  0  0
  186.5230  178.0390  144.2070 C   0  0  0  0  0  2  0  0  0  0  0  0
  187.8730  176.5670  142.7750 C   0  0  0  0  0  2  0  0  0  0  0  0
  187.9320  178.6020  140.6630 C   0  0  0  0  0  2  0  0  0  0  0  0
  187.5570  178.0090  143.0870 C   0  0  1  0  0  3  0  0  0  0  0  0
  188.8630  177.4460  140.6530 N   0  0  0  0  0  0  0  0  0  0  0  0
  189.0180  176.4970  141.7770 C   0  0  0  0  0  2  0  0  0  0  0  0
  191.0290  176.9810  139.9080 O   0  0  0  0  0  0  0  0  0  0  0  0
  189.8580  177.3790  139.6270 C   0  0  0  0  0  0  0  0  0  0  0  0
  186.9590  178.6190  141.8370 C   0  0  0  0  0  2  0  0  0  0  0  0
  189.5800  177.8580  138.2390 C   0  0  0  0  0  2  0  0  0  0  0  0
  188.2390  177.3610  137.7200 C   0  0  0  0  0  2  0  0  0  0  0  0
  188.4650  175.9370  137.2100 C   0  0  0  0  0  2  0  0  0  0  0  0
  187.4930  176.4930  135.1220 O   0  0  0  0  0  1  0  0  0  0  0  0
  188.4740  175.6860  135.7150 C   0  0  1  0  0  3  0  0  0  0  0  0
  189.7840  175.7680  134.8960 C   0  0  1  0  0  3  0  0  0  0  0  0
  190.6750  176.7320  135.3760 O   0  0  0  0  0  1  0  0  0  0  0  0
  190.4660  174.4050  134.6890 C   0  0  1  0  0  3  0  0  0  0  0  0
  192.5390  174.2730  135.8690 C   0  0  2  0  0  3  0  0  0  0  0  0
  191.8880  174.4890  134.6050 O   0  0  0  0  0  0  0  0  0  0  0  0
  190.0260  173.4290  135.7320 C   0  0  0  0  0  0  0  0  0  0  0  0
  190.8040  173.4350  137.0040 C   0  0  0  0  0  2  0  0  0  0  0  0
  189.2160  172.5630  135.4670 O   0  0  0  0  0  0  0  0  0  0  0  0
  191.7130  174.5100  136.9800 O   0  0  0  0  0  0  0  0  0  0  0  0
  194.0480  175.2850  135.8860 P   0  0  2  0  0  0  0  0  0  0  0  0
  194.1970  175.9910  137.4130 O   0  0  0  0  0  1  0  0  0  0  0  0
  193.9610  176.3970  134.8550 O   0  0  0  0  0  0  0  0  0  0  0  0
  195.4210  174.2870  135.7000 O   0  0  0  0  0  0  0  0  0  0  0  0
  196.6020  174.5600  138.1780 O   0  0  0  0  0  0  0  0  0  0  0  0
  196.5850  174.9690  136.7200 P   0  0  0  0  0  0  0  0  0  0  0  0
  197.5190  176.0790  136.2660 O   0  0  0  0  0  0  0  0  0  0  0  0
  1 32  1  6  0  0  0
  1  3  1  0  0  0  0
  1 13  1  0  0  0  0
  2  4  1  0  0  0  0
  3  2  2  0  0  0  0
  4  5  2  0  0  0  0
  6  4  1  0  0  0  0
  7 12  1  6  0  0  0
  7  6  1  0  0  0  0
  8  9  1  0  0  0  0
  8  7  1  1  0  0  0
 10  8  1  0  0  0  0
 10  9  1  0  0  0  0
 12 11  1  0  0  0  0
 14 13  1  0  0  0  0
 14 15  2  0  0  0  0
 16 14  1  0  0  0  0
 17 16  1  0  0  0  0
 18 21  1  0  0  0  0
 19 21  1  0  0  0  0
 19 17  1  0  0  0  0
 20 19  2  0  0  0  0
 22 20  1  0  0  0  0
 23 22  2  0  0  0  0
 23 24  1  0  0  0  0
 24 18  2  0  0  0  0
 25 31  1  0  0  0  0
 26 23  1  0  0  0  0
 27 25  2  0  0  0  0
 28 30  1  0  0  0  0
 29 25  1  0  0  0  0
 29 28  2  0  0  0  0
 30 26  2  0  0  0  0
 31 26  1  0  0  0  0
 33 35  1  0  0  0  0
 34 40  1  0  0  0  0
 35 32  1  1  0  0  0
 36 34  1  0  0  0  0
 36 37  1  0  0  0  0
 37 33  1  0  0  0  0
 39 38  2  0  0  0  0
 39 36  1  0  0  0  0
 40 35  1  0  0  0  0
 41 39  1  0  0  0  0
 42 41  1  0  0  0  0
 43 42  1  0  0  0  0
 45 44  1  6  0  0  0
 45 43  1  0  0  0  0
 46 47  1  1  0  0  0
 46 45  1  0  0  0  0
 48 46  1  1  0  0  0
 48 51  1  0  0  0  0
 49 55  1  1  0  0  0
 49 54  1  0  0  0  0
 50 48  1  0  0  0  0
 50 49  1  0  0  0  0
 51 52  1  0  0  0  0
 53 51  2  0  0  0  0
 54 52  1  0  0  0  0
 55 57  2  6  0  0  0
 55 56  1  0  0  0  0
 58 55  1  0  0  0  0
 58 60  1  0  0  0  0
 60 59  2  0  0  0  0
 61 60  2  0  0  0  0
M  END
>  <MODEL>
4

>  <REMARK>
 VINA RESULT:      -5.3      3.415      8.992
  Name = 
  22 active torsions:
  status: ('A' for Active; 'I' for Inactive)
    1  A    between atoms: C_1  and  C_6
    2  A    between atoms: C_1  and  N_32
    3  A    between atoms: C_3  and  C_12
    4  A    between atoms: P_5  and  C_11
    5  A    between atoms: P_5  and  O_36
    6  A    between atoms: C_8  and  C_23
    7  A    between atoms: C_8  and  C_42
    8  A    between atoms: C_10  and  C_47
    9  A    between atoms: C_12  and  C_42
   10  A    between atoms: C_14  and  C_19
   11  A    between atoms: C_16  and  C_45
   12  A    between atoms: C_17  and  C_18
   13  A    between atoms: C_17  and  C_53
   14  A    between atoms: C_18  and  C_55
   15  A    between atoms: C_19  and  C_38
   16  A    between atoms: C_19  and  O_52
   17  A    between atoms: N_22  and  C_33
   18  A    between atoms: C_33  and  O_52
   19  A    between atoms: O_36  and  P_40
   20  A    between atoms: N_37  and  C_42
   21  A    between atoms: C_47  and  C_61
   22  A    between atoms: C_53  and  C_61
                            x       y       z     vdW  Elec       q    Type
                         _______ _______ _______ _____ _____    ______ ____

>  <TORSDO>
F 22

$$$$
=
 OpenBabel11042413173D

 61 65  0  0  1  0  0  0  0  0999 V2000
  180.0270  178.0180  140.8850 C   0  0  1  0  0  3  0  0  0  0  0  0
  180.5160  175.8400  140.0620 N   0  0  0  0  0  0  0  0  0  0  0  0
  179.6570  176.7840  140.1880 N   0  0  0  0  0  0  0  0  0  0  0  0
  180.2450  174.6440  139.3130 C   0  0  0  0  0  0  0  0  0  0  0  0
  179.1710  174.0020  139.4990 O   0  0  0  0  0  0  0  0  0  0  0  0
  181.1680  174.1610  138.3830 O   0  0  0  0  0  0  0  0  0  0  0  0
  181.4920  174.7960  137.1390 C   0  0  2  0  0  3  0  0  0  0  0  0
  182.8150  175.5590  137.2330 C   0  0  2  0  0  3  0  0  0  0  0  0
  183.4260  175.5540  135.9620 O   0  0  0  0  0  0  0  0  0  0  0  0
  183.9700  174.6850  136.9250 C   0  0  0  0  0  2  0  0  0  0  0  0
  180.1460  175.4170  135.0990 C   0  0  0  0  0  1  0  0  0  0  0  0
  180.3740  175.6910  136.5840 C   0  0  0  0  0  2  0  0  0  0  0  0
  181.0520  177.6530  141.9690 C   0  0  0  0  0  2  0  0  0  0  0  0
  181.1490  178.6920  143.0260 C   0  0  0  0  0  0  0  0  0  0  0  0
  180.1110  179.1220  143.5890 O   0  0  0  0  0  0  0  0  0  0  0  0
  182.4360  179.1960  143.4090 N   0  0  0  0  0  2  0  0  0  0  0  0
  182.9230  179.1400  144.7860 C   0  0  0  0  0  2  0  0  0  0  0  0
  186.0050  178.1810  146.6580 C   0  0  0  0  0  3  0  0  0  0  0  0
  184.3670  178.7480  144.8590 C   0  0  0  0  0  0  0  0  0  0  0  0
  184.8710  178.1380  143.8420 N   0  0  0  0  0  0  0  0  0  0  0  0
  185.2290  179.2750  145.9930 C   0  0  0  0  0  2  0  0  0  0  0  0
  186.2590  177.8010  143.6050 C   0  0  0  0  0  3  0  0  0  0  0  0
  187.1870  177.5200  144.5450 C   0  0  0  0  0  0  0  0  0  0  0  0
  186.8920  177.4280  145.9900 C   0  0  0  0  0  3  0  0  0  0  0  0
  190.1280  176.4280  142.2500 C   0  0  0  0  0  0  0  0  0  0  0  0
  188.5450  177.1560  144.0720 C   0  0  0  0  0  0  0  0  0  0  0  0
  190.3760  176.2220  141.0380 O   0  0  0  0  0  0  0  0  0  0  0  0
  190.9820  177.1080  144.4040 C   0  0  0  0  0  3  0  0  0  0  0  0
  191.2310  176.6400  143.1870 C   0  0  0  0  0  3  0  0  0  0  0  0
  189.6170  177.4230  144.8340 C   0  0  0  0  0  3  0  0  0  0  0  0
  188.7030  176.4530  142.7350 C   0  0  0  0  0  2  0  0  0  0  0  0
  180.6000  179.0250  139.8660 C   0  0  0  0  0  2  0  0  0  0  0  0
  182.6580  180.0270  138.9700 C   0  0  0  0  0  2  0  0  0  0  0  0
  184.2610  177.8400  140.0880 C   0  0  0  0  0  2  0  0  0  0  0  0
  182.0100  178.7240  139.3700 C   0  0  1  0  0  3  0  0  0  0  0  0
  184.8110  178.7590  139.0600 N   0  0  0  0  0  0  0  0  0  0  0  0
  184.0040  179.7510  138.3190 C   0  0  0  0  0  2  0  0  0  0  0  0
  186.3710  178.6690  137.3220 O   0  0  0  0  0  0  0  0  0  0  0  0
  186.1280  178.5110  138.5560 C   0  0  0  0  0  0  0  0  0  0  0  0
  182.8270  178.1450  140.5050 C   0  0  0  0  0  2  0  0  0  0  0  0
  187.2120  177.9770  139.4360 C   0  0  0  0  0  2  0  0  0  0  0  0
  188.3490  177.3630  138.6330 C   0  0  0  0  0  2  0  0  0  0  0  0
  187.7930  176.1000  137.9760 C   0  0  0  0  0  2  0  0  0  0  0  0
  187.2990  175.5010  135.7370 O   0  0  0  0  0  1  0  0  0  0  0  0
  188.3590  175.6560  136.6420 C   0  0  1  0  0  3  0  0  0  0  0  0
  189.5160  176.4300  135.9640 C   0  0  1  0  0  3  0  0  0  0  0  0
  190.1420  177.3420  136.8170 O   0  0  0  0  0  1  0  0  0  0  0  0
  190.5280  175.5200  135.2490 C   0  0  1  0  0  3  0  0  0  0  0  0
  192.3880  175.0000  136.6560 C   0  0  2  0  0  3  0  0  0  0  0  0
  191.8850  175.8110  135.5790 O   0  0  0  0  0  0  0  0  0  0  0  0
  190.1960  174.0790  135.4730 C   0  0  0  0  0  0  0  0  0  0  0  0
  190.7660  173.4610  136.7040 C   0  0  0  0  0  2  0  0  0  0  0  0
  189.6640  173.4240  134.6000 O   0  0  0  0  0  0  0  0  0  0  0  0
  191.3830  174.4630  137.4780 O   0  0  0  0  0  0  0  0  0  0  0  0
  193.5900  176.0020  137.5790 P   0  0  2  0  0  0  0  0  0  0  0  0
  192.7670  176.8300  138.7980 O   0  0  0  0  0  1  0  0  0  0  0  0
  194.2490  177.0240  136.6690 O   0  0  0  0  0  0  0  0  0  0  0  0
  194.7040  174.9830  138.3800 O   0  0  0  0  0  0  0  0  0  0  0  0
  196.4870  174.2040  136.4250 O   0  0  0  0  0  0  0  0  0  0  0  0
  195.2180  173.8960  137.1920 P   0  0  0  0  0  0  0  0  0  0  0  0
  194.3840  172.6990  136.7660 O   0  0  0  0  0  0  0  0  0  0  0  0
  1 32  1  6  0  0  0
  1 13  1  0  0  0  0
  2  3  2  0  0  0  0
  3  1  1  0  0  0  0
  4  5  2  0  0  0  0
  4  2  1  0  0  0  0
  6  4  1  0  0  0  0
  7 12  1  1  0  0  0
  7  6  1  0  0  0  0
  8  7  1  6  0  0  0
  9 10  1  0  0  0  0
  9  8  1  0  0  0  0
 10  8  1  0  0  0  0
 11 12  1  0  0  0  0
 13 14  1  0  0  0  0
 14 16  1  0  0  0  0
 14 15  2  0  0  0  0
 16 17  1  0  0  0  0
 17 19  1  0  0  0  0
 19 21  1  0  0  0  0
 20 19  2  0  0  0  0
 21 18  1  0  0  0  0
 22 20  1  0  0  0  0
 22 23  2  0  0  0  0
 23 24  1  0  0  0  0
 24 18  2  0  0  0  0
 25 31  1  0  0  0  0
 25 29  1  0  0  0  0
 26 23  1  0  0  0  0
 26 30  2  0  0  0  0
 27 25  2  0  0  0  0
 28 30  1  0  0  0  0
 29 28  2  0  0  0  0
 31 26  1  0  0  0  0
 33 35  1  0  0  0  0
 34 40  1  0  0  0  0
 35 32  1  1  0  0  0
 35 40  1  0  0  0  0
 36 34  1  0  0  0  0
 37 33  1  0  0  0  0
 37 36  1  0  0  0  0
 38 39  2  0  0  0  0
 39 36  1  0  0  0  0
 39 41  1  0  0  0  0
 42 41  1  0  0  0  0
 43 42  1  0  0  0  0
 45 44  1  6  0  0  0
 45 43  1  0  0  0  0
 46 45  1  0  0  0  0
 46 47  1  1  0  0  0
 48 51  1  0  0  0  0
 48 50  1  0  0  0  0
 48 46  1  1  0  0  0
 49 54  1  0  0  0  0
 49 55  1  1  0  0  0
 50 49  1  0  0  0  0
 51 52  1  0  0  0  0
 52 54  1  0  0  0  0
 53 51  2  0  0  0  0
 55 57  2  6  0  0  0
 55 58  1  0  0  0  0
 55 56  1  0  0  0  0
 59 60  2  0  0  0  0
 60 58  1  0  0  0  0
 61 60  2  0  0  0  0
M  END
>  <MODEL>
5

>  <REMARK>
 VINA RESULT:      -4.9      3.075      9.600
  Name = 
  22 active torsions:
  status: ('A' for Active; 'I' for Inactive)
    1  A    between atoms: C_1  and  C_6
    2  A    between atoms: C_1  and  N_32
    3  A    between atoms: C_3  and  C_12
    4  A    between atoms: P_5  and  C_11
    5  A    between atoms: P_5  and  O_36
    6  A    between atoms: C_8  and  C_23
    7  A    between atoms: C_8  and  C_42
    8  A    between atoms: C_10  and  C_47
    9  A    between atoms: C_12  and  C_42
   10  A    between atoms: C_14  and  C_19
   11  A    between atoms: C_16  and  C_45
   12  A    between atoms: C_17  and  C_18
   13  A    between atoms: C_17  and  C_53
   14  A    between atoms: C_18  and  C_55
   15  A    between atoms: C_19  and  C_38
   16  A    between atoms: C_19  and  O_52
   17  A    between atoms: N_22  and  C_33
   18  A    between atoms: C_33  and  O_52
   19  A    between atoms: O_36  and  P_40
   20  A    between atoms: N_37  and  C_42
   21  A    between atoms: C_47  and  C_61
   22  A    between atoms: C_53  and  C_61
                            x       y       z     vdW  Elec       q    Type
                         _______ _______ _______ _____ _____    ______ ____

>  <TORSDO>
F 22

$$$$
=
 OpenBabel11042413173D

 61 65  0  0  1  0  0  0  0  0999 V2000
  182.1050  178.5080  138.3680 C   0  0  1  0  0  3  0  0  0  0  0  0
  180.9670  179.1280  136.3730 N   0  0  0  0  0  0  0  0  0  0  0  0
  181.4180  179.4840  137.5190 N   0  0  0  0  0  0  0  0  0  0  0  0
  180.3630  180.0560  135.4570 C   0  0  0  0  0  0  0  0  0  0  0  0
  179.3890  179.7000  134.7340 O   0  0  0  0  0  0  0  0  0  0  0  0
  180.8530  181.3580  135.3370 O   0  0  0  0  0  0  0  0  0  0  0  0
  180.2820  182.5130  135.9650 C   0  0  2  0  0  3  0  0  0  0  0  0
  180.4290  183.7550  135.0820 C   0  0  2  0  0  3  0  0  0  0  0  0
  181.1670  184.7250  135.7920 O   0  0  0  0  0  0  0  0  0  0  0  0
  179.7800  184.9370  135.6930 C   0  0  0  0  0  2  0  0  0  0  0  0
  179.7070  182.5550  138.4200 C   0  0  0  0  0  1  0  0  0  0  0  0
  180.8060  182.7770  137.3840 C   0  0  0  0  0  2  0  0  0  0  0  0
  183.5550  178.9830  138.5450 C   0  0  0  0  0  2  0  0  0  0  0  0
  184.5180  178.1540  137.7740 C   0  0  0  0  0  0  0  0  0  0  0  0
  185.5900  177.7710  138.3050 O   0  0  0  0  0  0  0  0  0  0  0  0
  184.2110  177.7830  136.4230 N   0  0  0  0  0  2  0  0  0  0  0  0
  184.1610  176.3910  135.9840 C   0  0  0  0  0  2  0  0  0  0  0  0
  186.3270  173.4050  136.5450 C   0  0  0  0  0  3  0  0  0  0  0  0
  185.4940  175.7160  136.0900 C   0  0  0  0  0  0  0  0  0  0  0  0
  186.4730  176.2230  135.4240 N   0  0  0  0  0  0  0  0  0  0  0  0
  185.7030  174.6310  137.1330 C   0  0  0  0  0  2  0  0  0  0  0  0
  187.8730  175.8570  135.4830 C   0  0  0  0  0  3  0  0  0  0  0  0
  188.3700  174.6320  135.7580 C   0  0  0  0  0  0  0  0  0  0  0  0
  187.5330  173.4310  135.9570 C   0  0  0  0  0  3  0  0  0  0  0  0
  192.1720  175.4410  135.7440 C   0  0  0  0  0  0  0  0  0  0  0  0
  189.8440  174.4720  135.7210 C   0  0  0  0  0  0  0  0  0  0  0  0
  192.9490  176.4090  135.9180 O   0  0  0  0  0  0  0  0  0  0  0  0
  191.8450  173.0530  135.9060 C   0  0  0  0  0  3  0  0  0  0  0  0
  192.6900  174.0750  135.8300 C   0  0  0  0  0  3  0  0  0  0  0  0
  190.3950  173.2630  135.9050 C   0  0  0  0  0  3  0  0  0  0  0  0
  190.7170  175.6850  135.4450 C   0  0  0  0  0  2  0  0  0  0  0  0
  181.3660  178.4000  139.7180 C   0  0  0  0  0  2  0  0  0  0  0  0
  181.3720  178.4410  142.1760 C   0  0  0  0  0  2  0  0  0  0  0  0
  184.2890  178.1360  142.2170 C   0  0  0  0  0  2  0  0  0  0  0  0
  182.1950  178.7490  140.9490 C   0  0  1  0  0  3  0  0  0  0  0  0
  183.5360  178.5680  143.4220 N   0  0  0  0  0  0  0  0  0  0  0  0
  182.1020  178.9270  143.4180 C   0  0  0  0  0  2  0  0  0  0  0  0
  183.9080  179.9070  145.3010 O   0  0  0  0  0  0  0  0  0  0  0  0
  184.2720  178.9150  144.6000 C   0  0  0  0  0  0  0  0  0  0  0  0
  183.4200  177.8600  140.9960 C   0  0  0  0  0  2  0  0  0  0  0  0
  185.5250  178.1930  144.9780 C   0  0  0  0  0  2  0  0  0  0  0  0
  185.5880  177.9000  146.4690 C   0  0  0  0  0  2  0  0  0  0  0  0
  186.9870  177.3510  146.7510 C   0  0  0  0  0  2  0  0  0  0  0  0
  187.7250  179.2660  147.9340 O   0  0  0  0  0  1  0  0  0  0  0  0
  188.1260  178.3250  146.9750 C   0  0  1  0  0  3  0  0  0  0  0  0
  189.5560  177.8270  147.2960 C   0  0  1  0  0  3  0  0  0  0  0  0
  189.8810  177.9210  148.6520 O   0  0  0  0  0  1  0  0  0  0  0  0
  189.8640  176.4330  146.7250 C   0  0  1  0  0  3  0  0  0  0  0  0
  191.0590  176.5750  144.6610 C   0  0  2  0  0  3  0  0  0  0  0  0
  189.7860  176.3740  145.3010 O   0  0  0  0  0  0  0  0  0  0  0  0
  191.1760  175.9300  147.2330 C   0  0  0  0  0  0  0  0  0  0  0  0
  192.3790  176.3320  146.4490 C   0  0  0  0  0  2  0  0  0  0  0  0
  191.2200  175.0910  148.1110 O   0  0  0  0  0  0  0  0  0  0  0  0
  191.9940  177.2550  145.4590 O   0  0  0  0  0  0  0  0  0  0  0  0
  190.7460  177.4100  143.0770 P   0  0  2  0  0  0  0  0  0  0  0  0
  192.2170  177.5720  142.2630 O   0  0  0  0  0  0  0  0  0  0  0  0
  190.1730  178.7970  143.3050 O   0  0  0  0  0  1  0  0  0  0  0  0
  189.7710  176.4230  142.0810 O   0  0  0  0  0  0  0  0  0  0  0  0
  189.2630  177.8590  139.7810 O   0  0  0  0  0  0  0  0  0  0  0  0
  188.8320  177.5110  141.1910 P   0  0  0  0  0  0  0  0  0  0  0  0
  187.6580  178.2630  141.7980 O   0  0  0  0  0  0  0  0  0  0  0  0
  1 13  1  1  0  0  0
  1 32  1  0  0  0  0
  2  3  2  0  0  0  0
  3  1  1  0  0  0  0
  4  2  1  0  0  0  0
  5  4  2  0  0  0  0
  6  4  1  0  0  0  0
  6  7  1  0  0  0  0
  7 12  1  1  0  0  0
  8 10  1  0  0  0  0
  8  9  1  0  0  0  0
  8  7  1  1  0  0  0
 10  9  1  0  0  0  0
 12 11  1  0  0  0  0
 14 15  2  0  0  0  0
 14 13  1  0  0  0  0
 16 14  1  0  0  0  0
 17 19  1  0  0  0  0
 17 16  1  0  0  0  0
 18 21  1  0  0  0  0
 19 21  1  0  0  0  0
 20 22  1  0  0  0  0
 20 19  2  0  0  0  0
 22 23  2  0  0  0  0
 23 24  1  0  0  0  0
 24 18  2  0  0  0  0
 25 29  1  0  0  0  0
 25 27  2  0  0  0  0
 26 23  1  0  0  0  0
 26 30  2  0  0  0  0
 29 28  2  0  0  0  0
 30 28  1  0  0  0  0
 31 26  1  0  0  0  0
 31 25  1  0  0  0  0
 33 37  1  0  0  0  0
 34 36  1  0  0  0  0
 35 32  1  6  0  0  0
 35 40  1  0  0  0  0
 35 33  1  0  0  0  0
 36 39  1  0  0  0  0
 37 36  1  0  0  0  0
 39 41  1  0  0  0  0
 39 38  2  0  0  0  0
 40 34  1  0  0  0  0
 41 42  1  0  0  0  0
 42 43  1  0  0  0  0
 43 45  1  0  0  0  0
 45 46  1  0  0  0  0
 45 44  1  1  0  0  0
 46 47  1  1  0  0  0
 48 51  1  0  0  0  0
 48 46  1  6  0  0  0
 49 55  1  6  0  0  0
 49 50  1  0  0  0  0
 49 54  1  0  0  0  0
 50 48  1  0  0  0  0
 51 53  2  0  0  0  0
 52 51  1  0  0  0  0
 54 52  1  0  0  0  0
 55 56  2  6  0  0  0
 55 57  1  0  0  0  0
 58 55  1  0  0  0  0
 59 60  2  0  0  0  0
 60 61  2  0  0  0  0
 60 58  1  0  0  0  0
M  END
>  <MODEL>
6

>  <REMARK>
 VINA RESULT:      -4.7      3.104      7.470
  Name = 
  22 active torsions:
  status: ('A' for Active; 'I' for Inactive)
    1  A    between atoms: C_1  and  C_6
    2  A    between atoms: C_1  and  N_32
    3  A    between atoms: C_3  and  C_12
    4  A    between atoms: P_5  and  C_11
    5  A    between atoms: P_5  and  O_36
    6  A    between atoms: C_8  and  C_23
    7  A    between atoms: C_8  and  C_42
    8  A    between atoms: C_10  and  C_47
    9  A    between atoms: C_12  and  C_42
   10  A    between atoms: C_14  and  C_19
   11  A    between atoms: C_16  and  C_45
   12  A    between atoms: C_17  and  C_18
   13  A    between atoms: C_17  and  C_53
   14  A    between atoms: C_18  and  C_55
   15  A    between atoms: C_19  and  C_38
   16  A    between atoms: C_19  and  O_52
   17  A    between atoms: N_22  and  C_33
   18  A    between atoms: C_33  and  O_52
   19  A    between atoms: O_36  and  P_40
   20  A    between atoms: N_37  and  C_42
   21  A    between atoms: C_47  and  C_61
   22  A    between atoms: C_53  and  C_61
                            x       y       z     vdW  Elec       q    Type
                         _______ _______ _______ _____ _____    ______ ____

>  <TORSDO>
F 22

$$$$
=
 OpenBabel11042413173D

 61 65  0  0  1  0  0  0  0  0999 V2000
  190.7090  175.9400  137.6350 C   0  0  1  0  0  3  0  0  0  0  0  0
  192.6930  175.5660  136.3770 N   0  0  0  0  0  0  0  0  0  0  0  0
  191.5060  176.0490  136.4110 N   0  0  0  0  0  0  0  0  0  0  0  0
  193.5570  175.7180  135.2380 C   0  0  0  0  0  0  0  0  0  0  0  0
  193.6630  176.8370  134.6600 O   0  0  0  0  0  0  0  0  0  0  0  0
  194.2790  174.6300  134.7420 O   0  0  0  0  0  0  0  0  0  0  0  0
  194.9470  173.6500  135.5460 C   0  0  2  0  0  3  0  0  0  0  0  0
  196.3180  174.1520  136.0080 C   0  0  2  0  0  3  0  0  0  0  0  0
  196.7140  173.4010  137.1340 O   0  0  0  0  0  0  0  0  0  0  0  0
  196.2600  174.7090  137.3780 C   0  0  0  0  0  2  0  0  0  0  0  0
  194.0980  171.2750  135.5380 C   0  0  0  0  0  1  0  0  0  0  0  0
  195.0570  172.2680  134.8850 C   0  0  0  0  0  2  0  0  0  0  0  0
  191.6210  175.3810  138.7380 C   0  0  0  0  0  2  0  0  0  0  0  0
  192.4570  176.4360  139.3660 C   0  0  0  0  0  0  0  0  0  0  0  0
  193.1790  177.1790  138.6550 O   0  0  0  0  0  0  0  0  0  0  0  0
  192.4270  176.6110  140.7890 N   0  0  0  0  0  2  0  0  0  0  0  0
  192.0770  177.8830  141.4170 C   0  0  0  0  0  2  0  0  0  0  0  0
  189.0440  176.1240  142.6940 C   0  0  0  0  0  3  0  0  0  0  0  0
  190.9050  177.7540  142.3400 C   0  0  0  0  0  0  0  0  0  0  0  0
  190.9980  178.3030  143.5020 N   0  0  0  0  0  0  0  0  0  0  0  0
  189.5920  177.2020  141.8110 C   0  0  0  0  0  2  0  0  0  0  0  0
  189.9600  178.4540  144.5010 C   0  0  0  0  0  3  0  0  0  0  0  0
  188.9190  177.6190  144.7060 C   0  0  0  0  0  0  0  0  0  0  0  0
  188.7290  176.3470  143.9790 C   0  0  0  0  0  3  0  0  0  0  0  0
  185.6750  178.3680  146.7140 C   0  0  0  0  0  0  0  0  0  0  0  0
  187.9950  177.9450  145.8200 C   0  0  0  0  0  0  0  0  0  0  0  0
  184.4300  178.3390  146.5730 O   0  0  0  0  0  0  0  0  0  0  0  0
  187.5470  178.1720  148.2280 C   0  0  0  0  0  3  0  0  0  0  0  0
  186.2500  178.3990  148.0590 C   0  0  0  0  0  3  0  0  0  0  0  0
  188.4240  177.8860  147.0890 C   0  0  0  0  0  3  0  0  0  0  0  0
  186.5720  178.3730  145.5040 C   0  0  0  0  0  2  0  0  0  0  0  0
  190.1490  177.3310  138.0010 C   0  0  0  0  0  2  0  0  0  0  0  0
  188.4490  178.5630  139.2790 C   0  0  0  0  0  2  0  0  0  0  0  0
  186.3410  177.6140  137.4730 C   0  0  0  0  0  2  0  0  0  0  0  0
  188.6770  177.3610  138.3940 C   0  0  1  0  0  3  0  0  0  0  0  0
  186.0210  178.2190  138.7900 N   0  0  0  0  0  0  0  0  0  0  0  0
  187.0290  178.5380  139.8230 C   0  0  0  0  0  2  0  0  0  0  0  0
  184.3540  178.0270  140.4170 O   0  0  0  0  0  0  0  0  0  0  0  0
  184.6520  178.2620  139.2070 C   0  0  0  0  0  0  0  0  0  0  0  0
  187.8300  177.5510  137.1530 C   0  0  0  0  0  2  0  0  0  0  0  0
  183.5450  178.4850  138.2290 C   0  0  0  0  0  2  0  0  0  0  0  0
  182.3770  177.5370  138.4610 C   0  0  0  0  0  2  0  0  0  0  0  0
  182.0500  176.9030  137.1080 C   0  0  0  0  0  2  0  0  0  0  0  0
  180.2010  176.6060  135.6550 O   0  0  0  0  0  1  0  0  0  0  0  0
  180.6990  176.2420  136.9150 C   0  0  1  0  0  3  0  0  0  0  0  0
  180.5120  174.7210  137.1320 C   0  0  1  0  0  3  0  0  0  0  0  0
  179.3170  174.4000  137.7800 O   0  0  0  0  0  1  0  0  0  0  0  0
  180.7190  173.8890  135.8560 C   0  0  1  0  0  3  0  0  0  0  0  0
  182.8150  172.7410  135.8870 C   0  0  2  0  0  3  0  0  0  0  0  0
  182.0720  173.8740  135.4020 O   0  0  0  0  0  0  0  0  0  0  0  0
  180.1740  172.5080  136.0310 C   0  0  0  0  0  0  0  0  0  0  0  0
  181.1040  171.5090  136.6310 C   0  0  0  0  0  2  0  0  0  0  0  0
  179.1130  172.1930  135.5300 O   0  0  0  0  0  0  0  0  0  0  0  0
  182.2760  172.1660  137.0500 O   0  0  0  0  0  0  0  0  0  0  0  0
  184.5400  173.2710  136.0990 P   0  0  2  0  0  0  0  0  0  0  0  0
  184.6270  174.2650  137.4620 O   0  0  0  0  0  1  0  0  0  0  0  0
  185.0080  174.0720  134.8960 O   0  0  0  0  0  0  0  0  0  0  0  0
  185.5260  171.9200  136.4460 O   0  0  0  0  0  0  0  0  0  0  0  0
  187.4450  173.8170  137.0210 O   0  0  0  0  0  0  0  0  0  0  0  0
  187.1080  172.5080  136.3390 P   0  0  0  0  0  0  0  0  0  0  0  0
  188.1650  171.8490  135.4670 O   0  0  0  0  0  0  0  0  0  0  0  0
  1 32  1  1  0  0  0
  1 13  1  0  0  0  0
  2  3  2  0  0  0  0
  3  1  1  0  0  0  0
  4  2  1  0  0  0  0
  5  4  2  0  0  0  0
  6  4  1  0  0  0  0
  6  7  1  0  0  0  0
  7 12  1  6  0  0  0
  8  7  1  1  0  0  0
  8  9  1  0  0  0  0
  8 10  1  0  0  0  0
  9 10  1  0  0  0  0
 12 11  1  0  0  0  0
 13 14  1  0  0  0  0
 14 16  1  0  0  0  0
 15 14  2  0  0  0  0
 16 17  1  0  0  0  0
 17 19  1  0  0  0  0
 18 24  2  0  0  0  0
 19 20  2  0  0  0  0
 20 22  1  0  0  0  0
 21 19  1  0  0  0  0
 21 18  1  0  0  0  0
 22 23  2  0  0  0  0
 23 26  1  0  0  0  0
 24 23  1  0  0  0  0
 25 29  1  0  0  0  0
 26 30  2  0  0  0  0
 27 25  2  0  0  0  0
 29 28  2  0  0  0  0
 30 28  1  0  0  0  0
 31 26  1  0  0  0  0
 31 25  1  0  0  0  0
 33 37  1  0  0  0  0
 34 36  1  0  0  0  0
 35 32  1  6  0  0  0
 35 33  1  0  0  0  0
 36 39  1  0  0  0  0
 36 37  1  0  0  0  0
 39 38  2  0  0  0  0
 40 34  1  0  0  0  0
 40 35  1  0  0  0  0
 41 42  1  0  0  0  0
 41 39  1  0  0  0  0
 43 42  1  0  0  0  0
 45 44  1  6  0  0  0
 45 43  1  0  0  0  0
 45 46  1  0  0  0  0
 46 47  1  6  0  0  0
 48 51  1  0  0  0  0
 48 46  1  1  0  0  0
 49 55  1  1  0  0  0
 49 54  1  0  0  0  0
 50 48  1  0  0  0  0
 50 49  1  0  0  0  0
 51 52  1  0  0  0  0
 52 54  1  0  0  0  0
 53 51  2  0  0  0  0
 55 57  2  6  0  0  0
 55 58  1  0  0  0  0
 55 56  1  0  0  0  0
 60 58  1  0  0  0  0
 60 59  2  0  0  0  0
 61 60  2  0  0  0  0
M  END
>  <MODEL>
7

>  <REMARK>
 VINA RESULT:      -4.5      3.278      9.018
  Name = 
  22 active torsions:
  status: ('A' for Active; 'I' for Inactive)
    1  A    between atoms: C_1  and  C_6
    2  A    between atoms: C_1  and  N_32
    3  A    between atoms: C_3  and  C_12
    4  A    between atoms: P_5  and  C_11
    5  A    between atoms: P_5  and  O_36
    6  A    between atoms: C_8  and  C_23
    7  A    between atoms: C_8  and  C_42
    8  A    between atoms: C_10  and  C_47
    9  A    between atoms: C_12  and  C_42
   10  A    between atoms: C_14  and  C_19
   11  A    between atoms: C_16  and  C_45
   12  A    between atoms: C_17  and  C_18
   13  A    between atoms: C_17  and  C_53
   14  A    between atoms: C_18  and  C_55
   15  A    between atoms: C_19  and  C_38
   16  A    between atoms: C_19  and  O_52
   17  A    between atoms: N_22  and  C_33
   18  A    between atoms: C_33  and  O_52
   19  A    between atoms: O_36  and  P_40
   20  A    between atoms: N_37  and  C_42
   21  A    between atoms: C_47  and  C_61
   22  A    between atoms: C_53  and  C_61
                            x       y       z     vdW  Elec       q    Type
                         _______ _______ _______ _____ _____    ______ ____

>  <TORSDO>
F 22

$$$$
=
 OpenBabel11042413173D

 61 65  0  0  1  0  0  0  0  0999 V2000
  179.6250  177.8790  141.9240 C   0  0  1  0  0  3  0  0  0  0  0  0
  179.8110  175.7040  140.9770 N   0  0  0  0  0  0  0  0  0  0  0  0
  179.0580  176.5900  141.5170 N   0  0  0  0  0  0  0  0  0  0  0  0
  179.3000  174.4580  140.4760 C   0  0  0  0  0  0  0  0  0  0  0  0
  179.1320  173.4760  141.2550 O   0  0  0  0  0  0  0  0  0  0  0  0
  178.9990  174.3050  139.1210 O   0  0  0  0  0  0  0  0  0  0  0  0
  179.9330  173.9030  138.1100 C   0  0  2  0  0  3  0  0  0  0  0  0
  180.0810  172.3800  138.0650 C   0  0  2  0  0  3  0  0  0  0  0  0
  180.4110  172.0020  136.7470 O   0  0  0  0  0  0  0  0  0  0  0  0
  179.0870  171.7640  137.1570 C   0  0  0  0  0  2  0  0  0  0  0  0
  181.5510  175.4930  137.0090 C   0  0  0  0  0  1  0  0  0  0  0  0
  181.3020  174.5900  138.2150 C   0  0  0  0  0  2  0  0  0  0  0  0
  180.9310  177.5970  142.6800 C   0  0  0  0  0  2  0  0  0  0  0  0
  181.1390  178.5330  143.8150 C   0  0  0  0  0  0  0  0  0  0  0  0
  180.1730  178.8600  144.5500 O   0  0  0  0  0  0  0  0  0  0  0  0
  182.4500  179.0530  144.0760 N   0  0  0  0  0  2  0  0  0  0  0  0
  183.1190  178.8850  145.3640 C   0  0  0  0  0  2  0  0  0  0  0  0
  186.4680  177.8610  146.6500 C   0  0  0  0  0  3  0  0  0  0  0  0
  184.5930  178.6680  145.2100 C   0  0  0  0  0  0  0  0  0  0  0  0
  185.0370  178.4090  144.0290 N   0  0  0  0  0  0  0  0  0  0  0  0
  185.5210  178.9850  146.3700 C   0  0  0  0  0  2  0  0  0  0  0  0
  186.4170  178.3170  143.5980 C   0  0  0  0  0  3  0  0  0  0  0  0
  187.4660  177.9190  144.3480 C   0  0  0  0  0  0  0  0  0  0  0  0
  187.3440  177.4210  145.7340 C   0  0  0  0  0  3  0  0  0  0  0  0
  190.2430  177.3290  141.6930 C   0  0  0  0  0  0  0  0  0  0  0  0
  188.7920  177.8590  143.6860 C   0  0  0  0  0  0  0  0  0  0  0  0
  190.3660  177.0360  140.4800 O   0  0  0  0  0  0  0  0  0  0  0  0
  191.1680  178.4880  143.5990 C   0  0  0  0  0  3  0  0  0  0  0  0
  191.3650  177.9420  142.4050 C   0  0  0  0  0  3  0  0  0  0  0  0
  189.8430  178.4930  144.2250 C   0  0  0  0  0  3  0  0  0  0  0  0
  188.9490  177.0490  142.4100 C   0  0  0  0  0  2  0  0  0  0  0  0
  179.8620  178.7470  140.6700 C   0  0  0  0  0  2  0  0  0  0  0  0
  181.1460  179.3050  138.6500 C   0  0  0  0  0  2  0  0  0  0  0  0
  183.5630  178.1090  139.8030 C   0  0  0  0  0  2  0  0  0  0  0  0
  181.0510  178.3400  139.8060 C   0  0  1  0  0  3  0  0  0  0  0  0
  183.4660  178.4180  138.3540 N   0  0  0  0  0  0  0  0  0  0  0  0
  182.2190  178.8370  137.6790 C   0  0  0  0  0  2  0  0  0  0  0  0
  184.3170  177.5750  136.3480 O   0  0  0  0  0  0  0  0  0  0  0  0
  184.5530  178.0460  137.5010 C   0  0  0  0  0  0  0  0  0  0  0  0
  182.3250  178.4770  140.6120 C   0  0  0  0  0  2  0  0  0  0  0  0
  185.9700  178.1110  137.9710 C   0  0  0  0  0  2  0  0  0  0  0  0
  186.8020  176.9520  137.4420 C   0  0  0  0  0  2  0  0  0  0  0  0
  185.8160  175.8970  136.9390 C   0  0  0  0  0  2  0  0  0  0  0  0
  185.2370  174.1990  135.3910 O   0  0  0  0  0  1  0  0  0  0  0  0
  186.3280  174.7750  136.0570 C   0  0  1  0  0  3  0  0  0  0  0  0
  187.4880  175.0060  135.0590 C   0  0  1  0  0  3  0  0  0  0  0  0
  188.2510  176.1390  135.3530 O   0  0  0  0  0  1  0  0  0  0  0  0
  188.3650  173.7620  134.8370 C   0  0  1  0  0  3  0  0  0  0  0  0
  190.0970  173.6060  136.4760 C   0  0  2  0  0  3  0  0  0  0  0  0
  189.7440  173.9800  135.1320 O   0  0  0  0  0  0  0  0  0  0  0  0
  187.8150  172.5870  135.5800 C   0  0  0  0  0  0  0  0  0  0  0  0
  188.2600  172.4410  136.9950 C   0  0  0  0  0  2  0  0  0  0  0  0
  187.2070  171.7140  134.9940 O   0  0  0  0  0  0  0  0  0  0  0  0
  189.0070  173.5770  137.3610 O   0  0  0  0  0  0  0  0  0  0  0  0
  191.4190  174.7260  137.0250 P   0  0  2  0  0  0  0  0  0  0  0  0
  191.3120  174.8920  138.7020 O   0  0  0  0  0  1  0  0  0  0  0  0
  191.2540  176.0990  136.3990 O   0  0  0  0  0  0  0  0  0  0  0  0
  192.9440  174.0170  136.7260 O   0  0  0  0  0  0  0  0  0  0  0  0
  195.4570  175.1390  136.5320 O   0  0  0  0  0  0  0  0  0  0  0  0
  194.0600  175.2280  137.1090 P   0  0  0  0  0  0  0  0  0  0  0  0
  193.7610  176.3210  138.1240 O   0  0  0  0  0  0  0  0  0  0  0  0
  1 32  1  6  0  0  0
  1 13  1  0  0  0  0
  2  3  2  0  0  0  0
  3  1  1  0  0  0  0
  4  2  1  0  0  0  0
  4  5  2  0  0  0  0
  6  4  1  0  0  0  0
  7 12  1  1  0  0  0
  7  6  1  0  0  0  0
  8  7  1  6  0  0  0
  9 10  1  0  0  0  0
  9  8  1  0  0  0  0
 10  8  1  0  0  0  0
 11 12  1  0  0  0  0
 13 14  1  0  0  0  0
 14 16  1  0  0  0  0
 14 15  2  0  0  0  0
 16 17  1  0  0  0  0
 19 17  1  0  0  0  0
 19 21  1  0  0  0  0
 20 19  2  0  0  0  0
 21 18  1  0  0  0  0
 22 20  1  0  0  0  0
 22 23  2  0  0  0  0
 23 24  1  0  0  0  0
 24 18  2  0  0  0  0
 25 29  1  0  0  0  0
 25 31  1  0  0  0  0
 26 30  2  0  0  0  0
 26 23  1  0  0  0  0
 27 25  2  0  0  0  0
 28 30  1  0  0  0  0
 29 28  2  0  0  0  0
 31 26  1  0  0  0  0
 33 35  1  0  0  0  0
 34 40  1  0  0  0  0
 35 40  1  0  0  0  0
 35 32  1  1  0  0  0
 36 34  1  0  0  0  0
 37 36  1  0  0  0  0
 37 33  1  0  0  0  0
 38 39  2  0  0  0  0
 39 41  1  0  0  0  0
 39 36  1  0  0  0  0
 42 41  1  0  0  0  0
 43 42  1  0  0  0  0
 45 44  1  6  0  0  0
 45 43  1  0  0  0  0
 46 47  1  1  0  0  0
 46 45  1  0  0  0  0
 48 46  1  1  0  0  0
 48 50  1  0  0  0  0
 48 51  1  0  0  0  0
 49 55  1  1  0  0  0
 49 54  1  0  0  0  0
 50 49  1  0  0  0  0
 51 52  1  0  0  0  0
 52 54  1  0  0  0  0
 53 51  2  0  0  0  0
 55 57  2  6  0  0  0
 55 56  1  0  0  0  0
 58 55  1  0  0  0  0
 58 60  1  0  0  0  0
 59 60  2  0  0  0  0
 60 61  2  0  0  0  0
M  END
>  <MODEL>
8

>  <REMARK>
 VINA RESULT:      -4.3      3.155     10.067
  Name = 
  22 active torsions:
  status: ('A' for Active; 'I' for Inactive)
    1  A    between atoms: C_1  and  C_6
    2  A    between atoms: C_1  and  N_32
    3  A    between atoms: C_3  and  C_12
    4  A    between atoms: P_5  and  C_11
    5  A    between atoms: P_5  and  O_36
    6  A    between atoms: C_8  and  C_23
    7  A    between atoms: C_8  and  C_42
    8  A    between atoms: C_10  and  C_47
    9  A    between atoms: C_12  and  C_42
   10  A    between atoms: C_14  and  C_19
   11  A    between atoms: C_16  and  C_45
   12  A    between atoms: C_17  and  C_18
   13  A    between atoms: C_17  and  C_53
   14  A    between atoms: C_18  and  C_55
   15  A    between atoms: C_19  and  C_38
   16  A    between atoms: C_19  and  O_52
   17  A    between atoms: N_22  and  C_33
   18  A    between atoms: C_33  and  O_52
   19  A    between atoms: O_36  and  P_40
   20  A    between atoms: N_37  and  C_42
   21  A    between atoms: C_47  and  C_61
   22  A    between atoms: C_53  and  C_61
                            x       y       z     vdW  Elec       q    Type
                         _______ _______ _______ _____ _____    ______ ____

>  <TORSDO>
F 22

$$$$
=
 OpenBabel11042413173D

 61 65  0  0  1  0  0  0  0  0999 V2000
  190.1150  176.0180  138.7420 C   0  0  1  0  0  3  0  0  0  0  0  0
  191.5420  175.8670  136.8440 N   0  0  0  0  0  0  0  0  0  0  0  0
  190.3440  175.9330  137.2970 N   0  0  0  0  0  0  0  0  0  0  0  0
  191.8370  175.8710  135.4370 C   0  0  0  0  0  0  0  0  0  0  0  0
  190.9920  176.3160  134.6080 O   0  0  0  0  0  0  0  0  0  0  0  0
  193.0500  175.3680  134.9630 O   0  0  0  0  0  0  0  0  0  0  0  0
  193.5160  174.0260  135.1530 C   0  0  2  0  0  3  0  0  0  0  0  0
  192.4310  173.1450  135.7790 C   0  0  2  0  0  3  0  0  0  0  0  0
  192.8830  171.8090  135.7760 O   0  0  0  0  0  0  0  0  0  0  0  0
  191.9160  172.1480  134.8130 C   0  0  0  0  0  2  0  0  0  0  0  0
  194.6460  174.4090  137.3750 C   0  0  0  0  0  1  0  0  0  0  0  0
  194.8310  173.9260  135.9380 C   0  0  0  0  0  2  0  0  0  0  0  0
  191.4340  175.6660  139.4460 C   0  0  0  0  0  2  0  0  0  0  0  0
  192.2060  176.8750  139.8330 C   0  0  0  0  0  0  0  0  0  0  0  0
  192.3310  177.8310  139.0280 O   0  0  0  0  0  0  0  0  0  0  0  0
  192.7990  176.9500  141.1370 N   0  0  0  0  0  2  0  0  0  0  0  0
  192.5050  178.0320  142.0720 C   0  0  0  0  0  2  0  0  0  0  0  0
  190.6750  176.5330  144.9580 C   0  0  0  0  0  3  0  0  0  0  0  0
  191.2630  177.7690  142.8680 C   0  0  0  0  0  0  0  0  0  0  0  0
  190.3170  178.6410  142.8030 N   0  0  0  0  0  0  0  0  0  0  0  0
  191.0640  176.4100  143.5180 C   0  0  0  0  0  2  0  0  0  0  0  0
  188.9770  178.5430  143.3430 C   0  0  0  0  0  3  0  0  0  0  0  0
  188.6070  177.8610  144.4480 C   0  0  0  0  0  0  0  0  0  0  0  0
  189.5560  177.1670  145.3420 C   0  0  0  0  0  3  0  0  0  0  0  0
  185.3860  178.2290  146.5930 C   0  0  0  0  0  0  0  0  0  0  0  0
  187.1800  177.9340  144.8460 C   0  0  0  0  0  0  0  0  0  0  0  0
  185.0360  178.5460  147.7550 O   0  0  0  0  0  0  0  0  0  0  0  0
  184.8040  178.1660  144.2500 C   0  0  0  0  0  3  0  0  0  0  0  0
  184.4000  178.2450  145.5120 C   0  0  0  0  0  3  0  0  0  0  0  0
  186.2260  178.0630  143.9110 C   0  0  0  0  0  3  0  0  0  0  0  0
  186.8110  177.8320  146.3160 C   0  0  0  0  0  2  0  0  0  0  0  0
  189.6360  177.4420  139.0960 C   0  0  0  0  0  2  0  0  0  0  0  0
  187.9390  178.7750  140.2740 C   0  0  0  0  0  2  0  0  0  0  0  0
  185.9160  178.0410  138.2810 C   0  0  0  0  0  2  0  0  0  0  0  0
  188.1430  177.5800  139.3740 C   0  0  1  0  0  3  0  0  0  0  0  0
  185.5380  178.6370  139.5870 N   0  0  0  0  0  0  0  0  0  0  0  0
  186.4820  178.8490  140.7040 C   0  0  0  0  0  2  0  0  0  0  0  0
  183.7370  178.5400  141.0720 O   0  0  0  0  0  0  0  0  0  0  0  0
  184.1480  178.7790  139.8970 C   0  0  0  0  0  0  0  0  0  0  0  0
  187.4160  177.8660  138.0770 C   0  0  0  0  0  2  0  0  0  0  0  0
  183.1440  179.1130  138.8420 C   0  0  0  0  0  2  0  0  0  0  0  0
  181.9840  178.1280  138.8250 C   0  0  0  0  0  2  0  0  0  0  0  0
  181.9390  177.5260  137.4190 C   0  0  0  0  0  2  0  0  0  0  0  0
  180.5490  176.4840  135.8080 O   0  0  0  0  0  1  0  0  0  0  0  0
  180.9780  176.3870  137.1400 C   0  0  1  0  0  3  0  0  0  0  0  0
  181.3570  174.9210  137.4620 C   0  0  1  0  0  3  0  0  0  0  0  0
  180.4980  174.3220  138.3880 O   0  0  0  0  0  1  0  0  0  0  0  0
  181.5570  174.0490  136.2120 C   0  0  1  0  0  3  0  0  0  0  0  0
  183.8030  173.2500  136.0510 C   0  0  2  0  0  3  0  0  0  0  0  0
  182.8370  174.2170  135.6030 O   0  0  0  0  0  0  0  0  0  0  0  0
  181.2670  172.6140  136.5150 C   0  0  0  0  0  0  0  0  0  0  0  0
  182.4080  171.8160  137.0490 C   0  0  0  0  0  2  0  0  0  0  0  0
  180.2240  172.1050  136.1580 O   0  0  0  0  0  0  0  0  0  0  0  0
  183.4950  172.6750  137.2960 O   0  0  0  0  0  0  0  0  0  0  0  0
  185.4310  174.0570  136.0330 P   0  0  2  0  0  0  0  0  0  0  0  0
  186.3230  173.4840  137.3480 O   0  0  0  0  0  1  0  0  0  0  0  0
  185.2860  175.5620  136.1750 O   0  0  0  0  0  0  0  0  0  0  0  0
  186.3010  173.5830  134.6410 O   0  0  0  0  0  0  0  0  0  0  0  0
  188.9960  173.5130  135.2250 O   0  0  0  0  0  0  0  0  0  0  0  0
  187.8030  174.3430  134.7980 P   0  0  0  0  0  0  0  0  0  0  0  0
  187.9740  175.8480  134.6680 O   0  0  0  0  0  0  0  0  0  0  0  0
  1 32  1  6  0  0  0
  1 13  1  0  0  0  0
  2  3  2  0  0  0  0
  3  1  1  0  0  0  0
  4  2  1  0  0  0  0
  5  4  2  0  0  0  0
  6  7  1  0  0  0  0
  6  4  1  0  0  0  0
  7 12  1  1  0  0  0
  8  7  1  6  0  0  0
  9  8  1  0  0  0  0
 10  9  1  0  0  0  0
 10  8  1  0  0  0  0
 12 11  1  0  0  0  0
 13 14  1  0  0  0  0
 14 16  1  0  0  0  0
 15 14  2  0  0  0  0
 16 17  1  0  0  0  0
 17 19  1  0  0  0  0
 18 24  2  0  0  0  0
 19 21  1  0  0  0  0
 20 19  2  0  0  0  0
 20 22  1  0  0  0  0
 21 18  1  0  0  0  0
 22 23  2  0  0  0  0
 23 26  1  0  0  0  0
 23 24  1  0  0  0  0
 25 27  2  0  0  0  0
 26 31  1  0  0  0  0
 28 29  2  0  0  0  0
 29 25  1  0  0  0  0
 30 28  1  0  0  0  0
 30 26  2  0  0  0  0
 31 25  1  0  0  0  0
 33 37  1  0  0  0  0
 34 36  1  0  0  0  0
 35 32  1  6  0  0  0
 35 33  1  0  0  0  0
 36 39  1  0  0  0  0
 36 37  1  0  0  0  0
 39 38  2  0  0  0  0
 40 34  1  0  0  0  0
 40 35  1  0  0  0  0
 41 39  1  0  0  0  0
 42 41  1  0  0  0  0
 43 42  1  0  0  0  0
 45 44  1  6  0  0  0
 45 43  1  0  0  0  0
 45 46  1  0  0  0  0
 46 47  1  1  0  0  0
 48 51  1  0  0  0  0
 48 46  1  1  0  0  0
 49 55  1  1  0  0  0
 49 54  1  0  0  0  0
 50 49  1  0  0  0  0
 50 48  1  0  0  0  0
 51 52  1  0  0  0  0
 52 54  1  0  0  0  0
 53 51  2  0  0  0  0
 55 57  2  1  0  0  0
 55 56  1  0  0  0  0
 58 60  1  0  0  0  0
 58 55  1  0  0  0  0
 60 59  2  0  0  0  0
 61 60  2  0  0  0  0
M  END
>  <MODEL>
9

>  <REMARK>
 VINA RESULT:      -4.0      3.162      8.522
  Name = 
  22 active torsions:
  status: ('A' for Active; 'I' for Inactive)
    1  A    between atoms: C_1  and  C_6
    2  A    between atoms: C_1  and  N_32
    3  A    between atoms: C_3  and  C_12
    4  A    between atoms: P_5  and  C_11
    5  A    between atoms: P_5  and  O_36
    6  A    between atoms: C_8  and  C_23
    7  A    between atoms: C_8  and  C_42
    8  A    between atoms: C_10  and  C_47
    9  A    between atoms: C_12  and  C_42
   10  A    between atoms: C_14  and  C_19
   11  A    between atoms: C_16  and  C_45
   12  A    between atoms: C_17  and  C_18
   13  A    between atoms: C_17  and  C_53
   14  A    between atoms: C_18  and  C_55
   15  A    between atoms: C_19  and  C_38
   16  A    between atoms: C_19  and  O_52
   17  A    between atoms: N_22  and  C_33
   18  A    between atoms: C_33  and  O_52
   19  A    between atoms: O_36  and  P_40
   20  A    between atoms: N_37  and  C_42
   21  A    between atoms: C_47  and  C_61
   22  A    between atoms: C_53  and  C_61
                            x       y       z     vdW  Elec       q    Type
                         _______ _______ _______ _____ _____    ______ ____

>  <TORSDO>
F 22

$$$$
