=
 OpenBabel11042410173D

 55 59  0  0  1  0  0  0  0  0999 V2000
  188.8220  177.5650  135.0560 F   0  0  0  0  0  0  0  0  0  0  0  0
  188.7140  178.5690  137.1790 C   0  0  0  0  0  0  0  0  0  0  0  0
  186.3420  176.7930  136.5350 C   0  0  0  0  0  0  0  0  0  0  0  0
  187.0770  176.3270  137.6370 O   0  0  0  0  0  0  0  0  0  0  0  0
  191.9090  174.7190  136.9980 C   0  0  0  0  0  2  0  0  0  0  0  0
  189.8640  176.0990  138.3930 C   0  0  1  0  0  0  0  0  0  0  0  0
  186.1000  178.1860  134.5940 O   0  0  0  0  0  1  0  0  0  0  0  0
  191.1440  176.8520  138.0000 C   0  0  0  0  0  2  0  0  0  0  0  0
  188.4530  177.1620  138.2290 P   0  0  1  0  0  4  0  0  0  0  0  0
  185.3690  176.0780  136.0500 N   0  0  0  0  0  0  0  0  0  0  0  0
  186.6440  178.1350  135.8810 C   0  0  2  0  0  3  0  0  0  0  0  0
  189.4170  176.9140  140.4480 C   0  0  2  0  0  3  0  0  0  0  0  0
  189.7180  174.8380  137.5330 C   0  0  0  0  0  2  0  0  0  0  0  0
  192.3450  175.9130  137.8370 C   0  0  2  0  0  3  0  0  0  0  0  0
  188.1340  178.5030  135.8100 C   0  0  2  0  0  3  0  0  0  0  0  0
  188.2960  177.5500  139.8520 O   0  0  0  0  0  0  0  0  0  0  0  0
  190.8670  174.0320  137.6430 O   0  0  0  0  0  0  0  0  0  0  0  0
  189.8710  175.7650  139.7480 O   0  0  0  0  0  0  0  0  0  0  0  0
  189.3520  179.5400  137.5600 O   0  0  0  0  0  0  0  0  0  0  0  0
  186.7180  177.4530  144.7350 C   0  0  0  0  0  2  0  0  0  0  0  0
  189.2030  176.5550  141.9260 C   0  0  1  0  0  3  0  0  0  0  0  0
  191.5030  178.0640  144.3670 C   0  0  0  0  0  2  0  0  0  0  0  0
  191.1980  177.8520  142.8700 C   0  0  0  0  0  2  0  0  0  0  0  0
  186.9110  177.6720  141.9040 C   0  0  0  0  0  2  0  0  0  0  0  0
  190.5670  176.4750  142.6350 C   0  0  0  0  0  2  0  0  0  0  0  0
  188.0610  177.3840  144.0710 C   0  0  0  0  0  0  0  0  0  0  0  0
  189.1220  177.6960  144.7570 C   0  0  0  0  0  0  0  0  0  0  0  0
  186.1850  178.8140  142.6120 C   0  0  0  0  0  2  0  0  0  0  0  0
  184.4890  177.7800  143.9520 O   0  0  0  0  0  1  0  0  0  0  0  0
  190.2880  177.9920  145.2630 C   0  0  0  0  0  3  0  0  0  0  0  0
  188.1420  177.3340  142.6260 N   0  0  0  0  0  0  0  0  0  0  0  0
  185.7350  178.4120  144.0340 C   0  0  1  0  0  0  0  0  0  0  0  0
  185.5000  179.3340  146.3980 C   0  0  0  0  0  1  0  0  0  0  0  0
  185.6090  179.6590  144.9120 C   0  0  0  0  0  2  0  0  0  0  0  0
  184.8960  174.8470  136.5550 N   0  0  0  0  0  2  0  0  0  0  0  0
  184.8810  173.5860  135.8660 C   0  0  0  0  0  0  0  0  0  0  0  0
  185.2870  173.4810  134.6800 O   0  0  0  0  0  0  0  0  0  0  0  0
  184.3950  172.4230  136.5360 N   0  0  0  0  0  0  0  0  0  0  0  0
  183.1790  171.9650  136.4150 C   0  0  0  0  0  3  0  0  0  0  0  0
  182.1150  172.6590  135.6230 C   0  0  0  0  0  2  0  0  0  0  0  0
  181.0810  173.1460  136.5190 N   0  0  0  0  0  2  0  0  0  0  0  0
  181.0350  174.5930  136.3890 C   0  0  0  0  0  2  0  0  0  0  0  0
  180.3540  175.2120  137.6010 C   0  0  0  0  0  2  0  0  0  0  0  0
  181.3360  176.4560  139.3780 O   0  0  0  0  0  1  0  0  0  0  0  0
  181.2840  175.1900  138.8040 C   0  0  0  0  0  2  0  0  0  0  0  0
  193.5000  176.6250  137.1380 C   0  0  0  0  0  2  0  0  0  0  0  0
  194.0490  175.8020  135.9710 C   0  0  2  0  0  3  0  0  0  0  0  0
  195.1930  174.9270  136.4840 C   0  0  2  0  0  3  0  0  0  0  0  0
  195.1110  173.6200  135.9770 O   0  0  0  0  0  1  0  0  0  0  0  0
  195.3030  174.9300  138.0120 C   0  0  0  0  0  2  0  0  0  0  0  0
  195.8760  173.6300  138.5540 C   0  0  0  0  0  1  0  0  0  0  0  0
  194.5020  176.6450  134.9140 O   0  0  0  0  0  0  0  0  0  0  0  0
  196.9700  176.7670  134.5950 C   0  0  0  0  0  1  0  0  0  0  0  0
  195.6780  177.3960  134.9780 C   0  0  0  0  0  0  0  0  0  0  0  0
  195.6690  178.5890  135.3890 O   0  0  0  0  0  0  0  0  0  0  0  0
  2 19  2  0  0  0  0
  3  4  1  0  0  0  0
  4  9  1  0  0  0  0
  5 17  1  0  0  0  0
  5 14  1  0  0  0  0
  6 13  1  6  0  0  0
  6 18  1  0  0  0  0
  8  6  1  0  0  0  0
  9  2  1  6  0  0  0
  9  6  1  0  0  0  0
  9 16  1  0  0  0  0
 10  3  2  0  0  0  0
 10 35  1  0  0  0  0
 11  7  1  6  0  0  0
 11  3  1  0  0  0  0
 12 18  1  6  0  0  0
 12 21  1  0  0  0  0
 13 17  1  0  0  0  0
 14 46  1  6  0  0  0
 14  8  1  0  0  0  0
 15  1  1  6  0  0  0
 15 11  1  0  0  0  0
 15  2  1  0  0  0  0
 16 12  1  0  0  0  0
 21 31  1  0  0  0  0
 21 25  1  1  0  0  0
 22 30  1  0  0  0  0
 23 22  1  0  0  0  0
 24 28  1  0  0  0  0
 24 31  1  0  0  0  0
 25 23  1  0  0  0  0
 26 20  1  0  0  0  0
 26 27  2  0  0  0  0
 27 30  2  0  0  0  0
 28 32  1  0  0  0  0
 31 26  1  0  0  0  0
 32 29  1  6  0  0  0
 32 20  1  0  0  0  0
 32 34  1  0  0  0  0
 34 33  1  0  0  0  0
 36 38  1  0  0  0  0
 36 35  1  0  0  0  0
 37 36  2  0  0  0  0
 39 38  2  0  0  0  0
 40 39  1  0  0  0  0
 40 41  1  0  0  0  0
 42 41  1  0  0  0  0
 42 43  1  0  0  0  0
 43 45  1  0  0  0  0
 45 44  1  0  0  0  0
 47 48  1  0  0  0  0
 47 46  1  1  0  0  0
 48 49  1  1  0  0  0
 48 50  1  0  0  0  0
 50 51  1  0  0  0  0
 52 54  1  0  0  0  0
 52 47  1  0  0  0  0
 53 54  1  0  0  0  0
 54 55  2  0  0  0  0
M  END
>  <MODEL>
1

>  <REMARK>
 VINA RESULT:      -7.0      0.000      0.000
  Name = 
  15 active torsions:
  status: ('A' for Active; 'I' for Inactive)
    1  A    between atoms: N_1  and  C_10
    2  A    between atoms: N_3  and  N_29
    3  A    between atoms: C_4  and  C_38
    4  A    between atoms: C_4  and  C_50
    5  A    between atoms: C_6  and  C_25
    6  A    between atoms: C_6  and  C_42
    7  A    between atoms: O_11  and  C_41
    8  A    between atoms: O_11  and  C_50
    9  A    between atoms: C_12  and  C_55
   10  A    between atoms: C_15  and  C_33
   11  A    between atoms: C_21  and  C_22
   12  A    between atoms: C_21  and  C_50
   13  A    between atoms: C_24  and  C_49
   14  A    between atoms: N_40  and  C_42
   15  A    between atoms: N_40  and  C_49
                            x       y       z     vdW  Elec       q    Type
                         _______ _______ _______ _____ _____    ______ ____

>  <TORSDO>
F 15

$$$$
=
 OpenBabel11042410173D

 55 59  0  0  1  0  0  0  0  0999 V2000
  188.6410  177.4740  134.9300 F   0  0  0  0  0  0  0  0  0  0  0  0
  188.7180  178.5300  137.0300 C   0  0  0  0  0  0  0  0  0  0  0  0
  186.1940  176.9190  136.5550 C   0  0  0  0  0  0  0  0  0  0  0  0
  186.9510  176.4250  137.6300 O   0  0  0  0  0  0  0  0  0  0  0  0
  191.6140  174.4540  136.7840 C   0  0  0  0  0  2  0  0  0  0  0  0
  189.7500  176.0100  138.2470 C   0  0  1  0  0  0  0  0  0  0  0  0
  185.9500  178.2820  134.5940 O   0  0  0  0  0  1  0  0  0  0  0  0
  191.0590  176.6590  137.7690 C   0  0  0  0  0  2  0  0  0  0  0  0
  188.4130  177.1700  138.1280 P   0  0  1  0  0  4  0  0  0  0  0  0
  185.1470  176.2670  136.1390 N   0  0  0  0  0  0  0  0  0  0  0  0
  186.5560  178.2210  135.8510 C   0  0  2  0  0  3  0  0  0  0  0  0
  189.4730  176.9020  140.3000 C   0  0  2  0  0  3  0  0  0  0  0  0
  189.4690  174.7450  137.4280 C   0  0  0  0  0  2  0  0  0  0  0  0
  192.1780  175.6310  137.5690 C   0  0  2  0  0  3  0  0  0  0  0  0
  188.0630  178.4770  135.6950 C   0  0  2  0  0  3  0  0  0  0  0  0
  188.3700  177.6040  139.7460 O   0  0  0  0  0  0  0  0  0  0  0  0
  190.5610  173.8590  137.5000 O   0  0  0  0  0  0  0  0  0  0  0  0
  189.8060  175.7070  139.6070 O   0  0  0  0  0  0  0  0  0  0  0  0
  189.4440  179.4600  137.3520 O   0  0  0  0  0  0  0  0  0  0  0  0
  186.8840  177.5210  144.6430 C   0  0  0  0  0  2  0  0  0  0  0  0
  189.3120  176.5910  141.7960 C   0  0  1  0  0  3  0  0  0  0  0  0
  191.6350  178.2560  144.1100 C   0  0  0  0  0  2  0  0  0  0  0  0
  191.2940  177.9800  142.6320 C   0  0  0  0  0  2  0  0  0  0  0  0
  186.9880  177.6400  141.8020 C   0  0  0  0  0  2  0  0  0  0  0  0
  190.6990  176.5770  142.4660 C   0  0  0  0  0  2  0  0  0  0  0  0
  188.2080  177.4660  143.9420 C   0  0  0  0  0  0  0  0  0  0  0  0
  189.2790  177.8350  144.5840 C   0  0  0  0  0  0  0  0  0  0  0  0
  186.2490  178.7860  142.4890 C   0  0  0  0  0  2  0  0  0  0  0  0
  184.6240  177.7540  143.9160 O   0  0  0  0  0  1  0  0  0  0  0  0
  190.4490  178.1830  145.0440 C   0  0  0  0  0  3  0  0  0  0  0  0
  188.2490  177.3650  142.4990 N   0  0  0  0  0  0  0  0  0  0  0  0
  185.8520  178.4240  143.9370 C   0  0  1  0  0  0  0  0  0  0  0  0
  185.4490  179.4200  146.2480 C   0  0  0  0  0  1  0  0  0  0  0  0
  185.7140  179.6990  144.7730 C   0  0  0  0  0  2  0  0  0  0  0  0
  184.6150  175.0850  136.7000 N   0  0  0  0  0  2  0  0  0  0  0  0
  183.2230  174.7630  136.8600 C   0  0  0  0  0  0  0  0  0  0  0  0
  182.3190  175.5700  136.5200 O   0  0  0  0  0  0  0  0  0  0  0  0
  182.8510  173.5040  137.4200 N   0  0  0  0  0  0  0  0  0  0  0  0
  183.1850  172.3500  136.9090 C   0  0  0  0  0  3  0  0  0  0  0  0
  183.9280  172.2080  135.6160 C   0  0  0  0  0  2  0  0  0  0  0  0
  185.0060  171.2500  135.7770 N   0  0  0  0  0  2  0  0  0  0  0  0
  185.9950  171.5280  134.7490 C   0  0  0  0  0  2  0  0  0  0  0  0
  187.1830  172.2700  135.3440 C   0  0  0  0  0  2  0  0  0  0  0  0
  188.7440  170.4850  135.1140 O   0  0  0  0  0  1  0  0  0  0  0  0
  188.4810  171.7910  134.7120 C   0  0  0  0  0  2  0  0  0  0  0  0
  193.3440  176.2410  136.7930 C   0  0  0  0  0  2  0  0  0  0  0  0
  194.5060  175.2570  136.6550 C   0  0  2  0  0  3  0  0  0  0  0  0
  194.8340  174.6880  138.0360 C   0  0  2  0  0  3  0  0  0  0  0  0
  196.1160  175.0720  138.4610 O   0  0  0  0  0  1  0  0  0  0  0  0
  194.6510  173.1690  138.1090 C   0  0  0  0  0  2  0  0  0  0  0  0
  195.9170  172.4150  137.7300 C   0  0  0  0  0  1  0  0  0  0  0  0
  195.6540  175.8910  136.0930 O   0  0  0  0  0  0  0  0  0  0  0  0
  197.6710  176.0210  134.6360 C   0  0  0  0  0  1  0  0  0  0  0  0
  196.4810  175.2870  135.1430 C   0  0  0  0  0  0  0  0  0  0  0  0
  196.2170  174.1420  134.6810 O   0  0  0  0  0  0  0  0  0  0  0  0
  2 19  2  0  0  0  0
  3  4  1  0  0  0  0
  4  9  1  0  0  0  0
  5 17  1  0  0  0  0
  5 14  1  0  0  0  0
  6 13  1  6  0  0  0
  6 18  1  0  0  0  0
  8  6  1  0  0  0  0
  9  2  1  6  0  0  0
  9  6  1  0  0  0  0
  9 16  1  0  0  0  0
 10  3  2  0  0  0  0
 10 35  1  0  0  0  0
 11  7  1  6  0  0  0
 11  3  1  0  0  0  0
 12 18  1  6  0  0  0
 12 21  1  0  0  0  0
 13 17  1  0  0  0  0
 14 46  1  6  0  0  0
 14  8  1  0  0  0  0
 15  1  1  6  0  0  0
 15 11  1  0  0  0  0
 15  2  1  0  0  0  0
 16 12  1  0  0  0  0
 21 25  1  1  0  0  0
 21 31  1  0  0  0  0
 22 30  1  0  0  0  0
 23 22  1  0  0  0  0
 24 28  1  0  0  0  0
 24 31  1  0  0  0  0
 25 23  1  0  0  0  0
 26 27  2  0  0  0  0
 26 20  1  0  0  0  0
 27 30  2  0  0  0  0
 28 32  1  0  0  0  0
 31 26  1  0  0  0  0
 32 29  1  6  0  0  0
 32 20  1  0  0  0  0
 32 34  1  0  0  0  0
 34 33  1  0  0  0  0
 35 36  1  0  0  0  0
 36 38  1  0  0  0  0
 37 36  2  0  0  0  0
 39 38  2  0  0  0  0
 40 41  1  0  0  0  0
 40 39  1  0  0  0  0
 42 43  1  0  0  0  0
 42 41  1  0  0  0  0
 45 44  1  0  0  0  0
 45 43  1  0  0  0  0
 47 46  1  1  0  0  0
 47 48  1  0  0  0  0
 48 50  1  0  0  0  0
 48 49  1  6  0  0  0
 51 50  1  0  0  0  0
 52 47  1  0  0  0  0
 53 54  1  0  0  0  0
 54 52  1  0  0  0  0
 55 54  2  0  0  0  0
M  END
>  <MODEL>
2

>  <REMARK>
 VINA RESULT:      -6.6      1.365      2.650
  Name = 
  15 active torsions:
  status: ('A' for Active; 'I' for Inactive)
    1  A    between atoms: N_1  and  C_10
    2  A    between atoms: N_3  and  N_29
    3  A    between atoms: C_4  and  C_38
    4  A    between atoms: C_4  and  C_50
    5  A    between atoms: C_6  and  C_25
    6  A    between atoms: C_6  and  C_42
    7  A    between atoms: O_11  and  C_41
    8  A    between atoms: O_11  and  C_50
    9  A    between atoms: C_12  and  C_55
   10  A    between atoms: C_15  and  C_33
   11  A    between atoms: C_21  and  C_22
   12  A    between atoms: C_21  and  C_50
   13  A    between atoms: C_24  and  C_49
   14  A    between atoms: N_40  and  C_42
   15  A    between atoms: N_40  and  C_49
                            x       y       z     vdW  Elec       q    Type
                         _______ _______ _______ _____ _____    ______ ____

>  <TORSDO>
F 15

$$$$
=
 OpenBabel11042410173D

 55 59  0  0  1  0  0  0  0  0999 V2000
  188.9730  177.5440  134.9990 F   0  0  0  0  0  0  0  0  0  0  0  0
  188.9470  178.5790  137.1100 C   0  0  0  0  0  0  0  0  0  0  0  0
  186.5080  176.8680  136.5480 C   0  0  0  0  0  0  0  0  0  0  0  0
  187.2540  176.3950  137.6390 O   0  0  0  0  0  0  0  0  0  0  0  0
  192.0190  174.6310  136.9060 C   0  0  0  0  0  2  0  0  0  0  0  0
  190.0510  176.0910  138.3310 C   0  0  1  0  0  0  0  0  0  0  0  0
  186.2600  178.2420  134.5940 O   0  0  0  0  0  1  0  0  0  0  0  0
  191.3430  176.7990  137.8970 C   0  0  0  0  0  2  0  0  0  0  0  0
  188.6690  177.1950  138.1850 P   0  0  1  0  0  4  0  0  0  0  0  0
  185.5020  176.1770  136.0960 N   0  0  0  0  0  0  0  0  0  0  0  0
  186.8330  178.1920  135.8680 C   0  0  2  0  0  3  0  0  0  0  0  0
  189.6790  176.9470  140.3840 C   0  0  2  0  0  3  0  0  0  0  0  0
  189.8460  174.8240  137.4920 C   0  0  0  0  0  2  0  0  0  0  0  0
  192.5110  175.8220  137.7180 C   0  0  2  0  0  3  0  0  0  0  0  0
  188.3320  178.5130  135.7570 C   0  0  2  0  0  3  0  0  0  0  0  0
  188.5630  177.6080  139.8060 O   0  0  0  0  0  0  0  0  0  0  0  0
  190.9720  173.9840  137.5860 O   0  0  0  0  0  0  0  0  0  0  0  0
  190.0810  175.7750  139.6890 O   0  0  0  0  0  0  0  0  0  0  0  0
  189.6230  179.5350  137.4620 O   0  0  0  0  0  0  0  0  0  0  0  0
  186.9250  177.3780  144.6480 C   0  0  0  0  0  2  0  0  0  0  0  0
  189.4900  176.6130  141.8710 C   0  0  1  0  0  3  0  0  0  0  0  0
  191.6420  178.3840  144.2710 C   0  0  0  0  0  2  0  0  0  0  0  0
  191.3630  178.1030  142.7810 C   0  0  0  0  0  2  0  0  0  0  0  0
  187.1110  177.5290  141.8130 C   0  0  0  0  0  2  0  0  0  0  0  0
  190.8530  176.6710  142.5850 C   0  0  0  0  0  2  0  0  0  0  0  0
  188.2720  177.4040  143.9890 C   0  0  0  0  0  0  0  0  0  0  0  0
  189.3000  177.8260  144.6680 C   0  0  0  0  0  0  0  0  0  0  0  0
  186.2870  178.6260  142.4850 C   0  0  0  0  0  2  0  0  0  0  0  0
  184.6800  177.4900  143.8530 O   0  0  0  0  0  1  0  0  0  0  0  0
  190.4340  178.2350  145.1670 C   0  0  0  0  0  3  0  0  0  0  0  0
  188.3630  177.3200  142.5470 N   0  0  0  0  0  0  0  0  0  0  0  0
  185.8670  178.2280  143.9180 C   0  0  1  0  0  0  0  0  0  0  0  0
  184.1770  179.6540  145.1840 C   0  0  0  0  0  1  0  0  0  0  0  0
  185.6310  179.4850  144.7590 C   0  0  0  0  0  2  0  0  0  0  0  0
  185.0040  174.9680  136.6290 N   0  0  0  0  0  2  0  0  0  0  0  0
  185.6240  173.6740  136.5470 C   0  0  0  0  0  0  0  0  0  0  0  0
  186.7090  173.5040  135.9330 O   0  0  0  0  0  0  0  0  0  0  0  0
  185.0000  172.5530  137.1720 N   0  0  0  0  0  0  0  0  0  0  0  0
  183.7210  172.3000  137.1100 C   0  0  0  0  0  3  0  0  0  0  0  0
  182.7350  173.2120  136.4480 C   0  0  0  0  0  2  0  0  0  0  0  0
  181.8450  173.7750  137.4470 N   0  0  0  0  0  2  0  0  0  0  0  0
  181.2210  174.9510  136.8640 C   0  0  0  0  0  2  0  0  0  0  0  0
  180.1410  175.4920  137.7900 C   0  0  0  0  0  2  0  0  0  0  0  0
  181.4970  177.2650  138.6190 O   0  0  0  0  0  1  0  0  0  0  0  0
  180.2970  176.9930  137.9700 C   0  0  0  0  0  2  0  0  0  0  0  0
  193.6700  176.4890  136.9820 C   0  0  0  0  0  2  0  0  0  0  0  0
  194.8570  175.5380  136.8190 C   0  0  2  0  0  3  0  0  0  0  0  0
  195.0700  175.2720  135.3290 C   0  0  2  0  0  3  0  0  0  0  0  0
  194.0950  174.4030  134.8150 O   0  0  0  0  0  1  0  0  0  0  0  0
  196.4850  174.7780  135.0120 C   0  0  0  0  0  2  0  0  0  0  0  0
  197.5560  175.6080  135.7020 C   0  0  0  0  0  1  0  0  0  0  0  0
  194.6360  174.3130  137.5160 O   0  0  0  0  0  0  0  0  0  0  0  0
  195.9450  174.8110  139.5760 C   0  0  0  0  0  1  0  0  0  0  0  0
  195.4590  173.8540  138.5480 C   0  0  0  0  0  0  0  0  0  0  0  0
  195.8270  172.6480  138.6020 O   0  0  0  0  0  0  0  0  0  0  0  0
  2 19  2  0  0  0  0
  3  4  1  0  0  0  0
  4  9  1  0  0  0  0
  5 17  1  0  0  0  0
  5 14  1  0  0  0  0
  6 13  1  6  0  0  0
  6 18  1  0  0  0  0
  8  6  1  0  0  0  0
  9  2  1  6  0  0  0
  9  6  1  0  0  0  0
  9 16  1  0  0  0  0
 10  3  2  0  0  0  0
 10 35  1  0  0  0  0
 11  7  1  6  0  0  0
 11  3  1  0  0  0  0
 12 18  1  6  0  0  0
 12 21  1  0  0  0  0
 13 17  1  0  0  0  0
 14 46  1  6  0  0  0
 14  8  1  0  0  0  0
 15  1  1  6  0  0  0
 15 11  1  0  0  0  0
 15  2  1  0  0  0  0
 16 12  1  0  0  0  0
 21 31  1  0  0  0  0
 21 25  1  1  0  0  0
 22 30  1  0  0  0  0
 23 22  1  0  0  0  0
 24 28  1  0  0  0  0
 24 31  1  0  0  0  0
 25 23  1  0  0  0  0
 26 20  1  0  0  0  0
 26 27  2  0  0  0  0
 27 30  2  0  0  0  0
 28 32  1  0  0  0  0
 31 26  1  0  0  0  0
 32 29  1  6  0  0  0
 32 20  1  0  0  0  0
 32 34  1  0  0  0  0
 34 33  1  0  0  0  0
 36 35  1  0  0  0  0
 36 38  1  0  0  0  0
 37 36  2  0  0  0  0
 39 38  2  0  0  0  0
 40 39  1  0  0  0  0
 40 41  1  0  0  0  0
 42 41  1  0  0  0  0
 42 43  1  0  0  0  0
 43 45  1  0  0  0  0
 45 44  1  0  0  0  0
 47 46  1  6  0  0  0
 47 52  1  0  0  0  0
 48 49  1  1  0  0  0
 48 47  1  0  0  0  0
 50 48  1  0  0  0  0
 50 51  1  0  0  0  0
 52 54  1  0  0  0  0
 54 55  2  0  0  0  0
 54 53  1  0  0  0  0
M  END
>  <MODEL>
3

>  <REMARK>
 VINA RESULT:      -5.9      1.033      1.736
  Name = 
  15 active torsions:
  status: ('A' for Active; 'I' for Inactive)
    1  A    between atoms: N_1  and  C_10
    2  A    between atoms: N_3  and  N_29
    3  A    between atoms: C_4  and  C_38
    4  A    between atoms: C_4  and  C_50
    5  A    between atoms: C_6  and  C_25
    6  A    between atoms: C_6  and  C_42
    7  A    between atoms: O_11  and  C_41
    8  A    between atoms: O_11  and  C_50
    9  A    between atoms: C_12  and  C_55
   10  A    between atoms: C_15  and  C_33
   11  A    between atoms: C_21  and  C_22
   12  A    between atoms: C_21  and  C_50
   13  A    between atoms: C_24  and  C_49
   14  A    between atoms: N_40  and  C_42
   15  A    between atoms: N_40  and  C_49
                            x       y       z     vdW  Elec       q    Type
                         _______ _______ _______ _____ _____    ______ ____

>  <TORSDO>
F 15

$$$$
=
 OpenBabel11042410173D

 55 59  0  0  1  0  0  0  0  0999 V2000
  188.0670  173.9040  134.7180 F   0  0  0  0  0  0  0  0  0  0  0  0
  187.8140  174.0690  137.0490 C   0  0  0  0  0  0  0  0  0  0  0  0
  190.6230  174.6590  136.0720 C   0  0  0  0  0  0  0  0  0  0  0  0
  190.0300  175.7670  136.6980 O   0  0  0  0  0  0  0  0  0  0  0  0
  185.9130  177.9960  134.5940 C   0  0  0  0  0  2  0  0  0  0  0  0
  187.4170  177.0140  136.7860 C   0  0  1  0  0  0  0  0  0  0  0  0
  190.4940  172.4870  135.0550 O   0  0  0  0  0  1  0  0  0  0  0  0
  185.9820  176.5080  136.5730 C   0  0  0  0  0  2  0  0  0  0  0  0
  188.4520  175.6950  137.3660 P   0  0  1  0  0  4  0  0  0  0  0  0
  191.7770  174.7810  135.4850 N   0  0  0  0  0  0  0  0  0  0  0  0
  189.9540  173.2900  136.0640 C   0  0  2  0  0  3  0  0  0  0  0  0
  187.5450  177.2200  139.0280 C   0  0  2  0  0  3  0  0  0  0  0  0
  187.9540  177.6160  135.4830 C   0  0  0  0  0  2  0  0  0  0  0  0
  185.1200  177.5120  135.7990 C   0  0  2  0  0  3  0  0  0  0  0  0
  188.4240  173.3150  135.9210 C   0  0  2  0  0  3  0  0  0  0  0  0
  188.4420  176.1210  138.9870 O   0  0  0  0  0  0  0  0  0  0  0  0
  187.0950  178.6290  135.0170 O   0  0  0  0  0  0  0  0  0  0  0  0
  187.4720  177.9540  137.8150 O   0  0  0  0  0  0  0  0  0  0  0  0
  186.9060  173.5990  137.7190 O   0  0  0  0  0  0  0  0  0  0  0  0
  190.1280  178.3470  143.2720 C   0  0  0  0  0  2  0  0  0  0  0  0
  187.8150  178.1880  140.1900 C   0  0  1  0  0  3  0  0  0  0  0  0
  185.3070  178.3230  142.8760 C   0  0  0  0  0  2  0  0  0  0  0  0
  185.6400  177.7730  141.4750 C   0  0  0  0  0  2  0  0  0  0  0  0
  189.9000  176.8740  140.8480 C   0  0  0  0  0  2  0  0  0  0  0  0
  186.4820  178.7800  140.6830 C   0  0  0  0  0  2  0  0  0  0  0  0
  188.8120  178.2920  142.5540 C   0  0  0  0  0  0  0  0  0  0  0  0
  187.7160  178.4870  143.2270 C   0  0  0  0  0  0  0  0  0  0  0  0
  190.4340  176.0980  142.0500 C   0  0  0  0  0  2  0  0  0  0  0  0
  192.2750  177.3820  142.8900 O   0  0  0  0  0  1  0  0  0  0  0  0
  186.5190  178.6270  143.7270 C   0  0  0  0  0  3  0  0  0  0  0  0
  188.7390  177.6790  141.2450 N   0  0  0  0  0  0  0  0  0  0  0  0
  190.9450  177.0440  143.1600 C   0  0  1  0  0  0  0  0  0  0  0  0
  191.2080  177.2610  145.6850 C   0  0  0  0  0  1  0  0  0  0  0  0
  190.8710  176.3400  144.5180 C   0  0  0  0  0  2  0  0  0  0  0  0
  192.5810  175.9420  135.4410 N   0  0  0  0  0  2  0  0  0  0  0  0
  193.7840  176.1810  136.1900 C   0  0  0  0  0  0  0  0  0  0  0  0
  194.2250  175.3360  137.0120 O   0  0  0  0  0  0  0  0  0  0  0  0
  194.4990  177.4030  136.0040 N   0  0  0  0  0  0  0  0  0  0  0  0
  195.6640  177.4860  135.4220 C   0  0  0  0  0  3  0  0  0  0  0  0
  196.4370  176.2910  134.9560 C   0  0  0  0  0  2  0  0  0  0  0  0
  197.3690  175.8800  135.9900 N   0  0  0  0  0  2  0  0  0  0  0  0
  197.6940  174.4830  135.7560 C   0  0  0  0  0  2  0  0  0  0  0  0
  197.6590  173.7050  137.0630 C   0  0  0  0  0  2  0  0  0  0  0  0
  196.6500  173.8880  139.2130 O   0  0  0  0  0  1  0  0  0  0  0  0
  197.2910  174.6210  138.2190 C   0  0  0  0  0  2  0  0  0  0  0  0
  183.8240  176.8600  135.3220 C   0  0  0  0  0  2  0  0  0  0  0  0
  183.2180  175.9550  136.3950 C   0  0  2  0  0  3  0  0  0  0  0  0
  182.5290  174.7750  135.7090 C   0  0  2  0  0  3  0  0  0  0  0  0
  181.5370  174.2090  136.5270 O   0  0  0  0  0  1  0  0  0  0  0  0
  183.5210  173.7160  135.2170 C   0  0  0  0  0  2  0  0  0  0  0  0
  183.4020  172.4090  135.9860 C   0  0  0  0  0  1  0  0  0  0  0  0
  182.2870  176.6700  137.2060 O   0  0  0  0  0  0  0  0  0  0  0  0
  182.0100  176.3650  139.6640 C   0  0  0  0  0  1  0  0  0  0  0  0
  182.5710  177.1060  138.5030 C   0  0  0  0  0  0  0  0  0  0  0  0
  183.2650  178.1410  138.7060 O   0  0  0  0  0  0  0  0  0  0  0  0
  2  9  1  0  0  0  0
  2 19  2  0  0  0  0
  3  4  1  0  0  0  0
  5 17  1  0  0  0  0
  5 14  1  0  0  0  0
  6 13  1  6  0  0  0
  6  9  1  0  0  0  0
  6 18  1  0  0  0  0
  8  6  1  0  0  0  0
  9  4  1  6  0  0  0
  9 16  1  0  0  0  0
 10  3  2  0  0  0  0
 11  7  1  6  0  0  0
 11  3  1  0  0  0  0
 12 18  1  6  0  0  0
 12 21  1  0  0  0  0
 14 46  1  6  0  0  0
 14  8  1  0  0  0  0
 15  1  1  6  0  0  0
 15 11  1  0  0  0  0
 15  2  1  0  0  0  0
 16 12  1  0  0  0  0
 17 13  1  0  0  0  0
 21 25  1  1  0  0  0
 21 31  1  0  0  0  0
 22 30  1  0  0  0  0
 23 22  1  0  0  0  0
 24 31  1  0  0  0  0
 24 28  1  0  0  0  0
 25 23  1  0  0  0  0
 26 27  2  0  0  0  0
 26 20  1  0  0  0  0
 27 30  2  0  0  0  0
 28 32  1  0  0  0  0
 31 26  1  0  0  0  0
 32 29  1  6  0  0  0
 32 20  1  0  0  0  0
 32 34  1  0  0  0  0
 34 33  1  0  0  0  0
 35 10  1  0  0  0  0
 35 36  1  0  0  0  0
 36 37  2  0  0  0  0
 38 36  1  0  0  0  0
 39 38  2  0  0  0  0
 40 39  1  0  0  0  0
 40 41  1  0  0  0  0
 42 41  1  0  0  0  0
 42 43  1  0  0  0  0
 43 45  1  0  0  0  0
 45 44  1  0  0  0  0
 47 46  1  6  0  0  0
 47 52  1  0  0  0  0
 48 47  1  0  0  0  0
 48 49  1  1  0  0  0
 50 48  1  0  0  0  0
 50 51  1  0  0  0  0
 52 54  1  0  0  0  0
 54 55  2  0  0  0  0
 54 53  1  0  0  0  0
M  END
>  <MODEL>
4

>  <REMARK>
 VINA RESULT:      -5.6      3.076      9.144
  Name = 
  15 active torsions:
  status: ('A' for Active; 'I' for Inactive)
    1  A    between atoms: N_1  and  C_10
    2  A    between atoms: N_3  and  N_29
    3  A    between atoms: C_4  and  C_38
    4  A    between atoms: C_4  and  C_50
    5  A    between atoms: C_6  and  C_25
    6  A    between atoms: C_6  and  C_42
    7  A    between atoms: O_11  and  C_41
    8  A    between atoms: O_11  and  C_50
    9  A    between atoms: C_12  and  C_55
   10  A    between atoms: C_15  and  C_33
   11  A    between atoms: C_21  and  C_22
   12  A    between atoms: C_21  and  C_50
   13  A    between atoms: C_24  and  C_49
   14  A    between atoms: N_40  and  C_42
   15  A    between atoms: N_40  and  C_49
                            x       y       z     vdW  Elec       q    Type
                         _______ _______ _______ _____ _____    ______ ____

>  <TORSDO>
F 15

$$$$
=
 OpenBabel11042410173D

 55 59  0  0  1  0  0  0  0  0999 V2000
  179.3580  178.5170  141.1490 F   0  0  0  0  0  0  0  0  0  0  0  0
  180.7820  179.4860  139.5480 C   0  0  0  0  0  0  0  0  0  0  0  0
  182.0490  179.1560  142.2830 C   0  0  0  0  0  0  0  0  0  0  0  0
  182.7060  178.4070  141.2940 O   0  0  0  0  0  0  0  0  0  0  0  0
  180.2610  174.5410  138.9640 C   0  0  0  0  0  2  0  0  0  0  0  0
  181.9670  176.8050  138.9960 C   0  0  1  0  0  0  0  0  0  0  0  0
  180.1720  180.4300  143.0690 O   0  0  0  0  0  1  0  0  0  0  0  0
  180.7590  176.7890  138.0470 C   0  0  0  0  0  2  0  0  0  0  0  0
  182.2080  178.4350  139.6530 P   0  0  1  0  0  4  0  0  0  0  0  0
  182.3880  179.0270  143.5330 N   0  0  0  0  0  0  0  0  0  0  0  0
  180.9390  180.1400  141.9380 C   0  0  2  0  0  3  0  0  0  0  0  0
  183.5690  177.7830  137.7460 C   0  0  2  0  0  3  0  0  0  0  0  0
  181.7630  175.7760  140.1140 C   0  0  0  0  0  2  0  0  0  0  0  0
  180.3230  175.3650  137.6850 C   0  0  2  0  0  3  0  0  0  0  0  0
  180.0060  179.6930  140.8010 C   0  0  2  0  0  3  0  0  0  0  0  0
  183.4570  178.8870  138.6320 O   0  0  0  0  0  0  0  0  0  0  0  0
  181.5290  174.4980  139.5700 O   0  0  0  0  0  0  0  0  0  0  0  0
  183.1520  176.5470  138.3070 O   0  0  0  0  0  0  0  0  0  0  0  0
  180.4470  180.0040  138.4930 O   0  0  0  0  0  0  0  0  0  0  0  0
  187.2130  174.7320  135.9130 C   0  0  0  0  0  2  0  0  0  0  0  0
  184.9740  177.6190  137.1470 C   0  0  1  0  0  3  0  0  0  0  0  0
  187.8260  177.9850  139.4400 C   0  0  0  0  0  2  0  0  0  0  0  0
  186.3000  178.1310  139.2770 C   0  0  0  0  0  2  0  0  0  0  0  0
  184.4810  175.1860  136.5630 C   0  0  0  0  0  2  0  0  0  0  0  0
  185.9470  178.5800  137.8540 C   0  0  0  0  0  2  0  0  0  0  0  0
  186.8370  175.8890  136.7900 C   0  0  0  0  0  0  0  0  0  0  0  0
  187.7240  176.3750  137.6100 C   0  0  0  0  0  0  0  0  0  0  0  0
  185.0200  173.7960  136.8920 C   0  0  0  0  0  2  0  0  0  0  0  0
  185.9920  172.9750  134.8600 O   0  0  0  0  0  1  0  0  0  0  0  0
  188.4560  176.9780  138.5060 C   0  0  0  0  0  3  0  0  0  0  0  0
  185.4400  176.2110  136.9870 N   0  0  0  0  0  0  0  0  0  0  0  0
  186.3230  173.4900  136.1180 C   0  0  1  0  0  0  0  0  0  0  0  0
  188.5580  172.2840  136.3200 C   0  0  0  0  0  1  0  0  0  0  0  0
  187.1520  172.4550  136.8820 C   0  0  0  0  0  2  0  0  0  0  0  0
  183.4310  178.2230  144.0430 N   0  0  0  0  0  2  0  0  0  0  0  0
  184.6400  178.6810  144.6700 C   0  0  0  0  0  0  0  0  0  0  0  0
  184.8910  179.9080  144.7940 O   0  0  0  0  0  0  0  0  0  0  0  0
  185.5830  177.7300  145.1640 N   0  0  0  0  0  0  0  0  0  0  0  0
  186.7050  177.4360  144.5660 C   0  0  0  0  0  3  0  0  0  0  0  0
  187.0990  177.9990  143.2360 C   0  0  0  0  0  2  0  0  0  0  0  0
  188.5290  177.8330  143.0410 N   0  0  0  0  0  2  0  0  0  0  0  0
  188.8250  176.4160  143.1610 C   0  0  0  0  0  2  0  0  0  0  0  0
  190.2070  176.1140  142.5990 C   0  0  0  0  0  2  0  0  0  0  0  0
  191.1610  177.1160  140.6600 O   0  0  0  0  0  1  0  0  0  0  0  0
  190.8170  177.3650  141.9850 C   0  0  0  0  0  2  0  0  0  0  0  0
  178.9470  175.3700  137.0220 C   0  0  0  0  0  2  0  0  0  0  0  0
  178.9550  174.6040  135.6980 C   0  0  2  0  0  3  0  0  0  0  0  0
  179.9890  173.4810  135.7880 C   0  0  2  0  0  3  0  0  0  0  0  0
  180.7600  173.3950  134.6170 O   0  0  0  0  0  1  0  0  0  0  0  0
  179.3670  172.1300  136.1500 C   0  0  0  0  0  2  0  0  0  0  0  0
  179.3600  171.1620  134.9770 C   0  0  0  0  0  1  0  0  0  0  0  0
  179.2540  175.4680  134.6040 O   0  0  0  0  0  0  0  0  0  0  0  0
  181.3060  176.8780  134.6820 C   0  0  0  0  0  1  0  0  0  0  0  0
  179.8290  176.7330  134.7550 C   0  0  0  0  0  0  0  0  0  0  0  0
  179.1180  177.7490  134.9900 O   0  0  0  0  0  0  0  0  0  0  0  0
  2  9  1  0  0  0  0
  2 15  1  0  0  0  0
  3 10  2  0  0  0  0
  4  3  1  0  0  0  0
  5 17  1  0  0  0  0
  6  8  1  6  0  0  0
  6  9  1  0  0  0  0
  6 13  1  0  0  0  0
  9 16  1  6  0  0  0
  9  4  1  0  0  0  0
 10 35  1  0  0  0  0
 11  3  1  0  0  0  0
 11  7  1  1  0  0  0
 12 18  1  1  0  0  0
 12 16  1  0  0  0  0
 14 46  1  1  0  0  0
 14  8  1  0  0  0  0
 14  5  1  0  0  0  0
 15  1  1  1  0  0  0
 15 11  1  0  0  0  0
 17 13  1  0  0  0  0
 18  6  1  0  0  0  0
 19  2  2  0  0  0  0
 20 32  1  0  0  0  0
 20 26  1  0  0  0  0
 21 12  1  0  0  0  0
 21 25  1  1  0  0  0
 23 22  1  0  0  0  0
 24 28  1  0  0  0  0
 24 31  1  0  0  0  0
 25 23  1  0  0  0  0
 26 31  1  0  0  0  0
 26 27  2  0  0  0  0
 27 30  2  0  0  0  0
 30 22  1  0  0  0  0
 31 21  1  0  0  0  0
 32 29  1  6  0  0  0
 32 34  1  0  0  0  0
 32 28  1  0  0  0  0
 33 34  1  0  0  0  0
 35 36  1  0  0  0  0
 36 37  2  0  0  0  0
 36 38  1  0  0  0  0
 39 38  2  0  0  0  0
 40 39  1  0  0  0  0
 41 42  1  0  0  0  0
 41 40  1  0  0  0  0
 43 42  1  0  0  0  0
 44 45  1  0  0  0  0
 45 43  1  0  0  0  0
 47 48  1  0  0  0  0
 47 46  1  1  0  0  0
 48 49  1  6  0  0  0
 48 50  1  0  0  0  0
 51 50  1  0  0  0  0
 52 54  1  0  0  0  0
 52 47  1  0  0  0  0
 53 54  1  0  0  0  0
 54 55  2  0  0  0  0
M  END
>  <MODEL>
5

>  <REMARK>
 VINA RESULT:      -5.3      4.166     10.593
  Name = 
  15 active torsions:
  status: ('A' for Active; 'I' for Inactive)
    1  A    between atoms: N_1  and  C_10
    2  A    between atoms: N_3  and  N_29
    3  A    between atoms: C_4  and  C_38
    4  A    between atoms: C_4  and  C_50
    5  A    between atoms: C_6  and  C_25
    6  A    between atoms: C_6  and  C_42
    7  A    between atoms: O_11  and  C_41
    8  A    between atoms: O_11  and  C_50
    9  A    between atoms: C_12  and  C_55
   10  A    between atoms: C_15  and  C_33
   11  A    between atoms: C_21  and  C_22
   12  A    between atoms: C_21  and  C_50
   13  A    between atoms: C_24  and  C_49
   14  A    between atoms: N_40  and  C_42
   15  A    between atoms: N_40  and  C_49
                            x       y       z     vdW  Elec       q    Type
                         _______ _______ _______ _____ _____    ______ ____

>  <TORSDO>
F 15

$$$$
=
 OpenBabel11042410173D

 55 59  0  0  1  0  0  0  0  0999 V2000
  180.5820  178.0760  139.4410 F   0  0  0  0  0  0  0  0  0  0  0  0
  182.2460  179.2640  138.2810 C   0  0  0  0  0  0  0  0  0  0  0  0
  182.8340  178.8850  141.2310 C   0  0  0  0  0  0  0  0  0  0  0  0
  183.7860  178.2600  140.4100 O   0  0  0  0  0  0  0  0  0  0  0  0
  182.3940  174.3360  137.4070 C   0  0  0  0  0  2  0  0  0  0  0  0
  183.7990  176.7390  137.9450 C   0  0  1  0  0  0  0  0  0  0  0  0
  180.7020  179.9350  141.5710 O   0  0  0  0  0  1  0  0  0  0  0  0
  182.8670  176.6710  136.7250 C   0  0  0  0  0  2  0  0  0  0  0  0
  183.7040  178.3420  138.6990 P   0  0  1  0  0  4  0  0  0  0  0  0
  182.8700  178.7130  142.5200 N   0  0  0  0  0  0  0  0  0  0  0  0
  181.7470  179.7840  140.6560 C   0  0  2  0  0  3  0  0  0  0  0  0
  185.5490  177.9320  137.1690 C   0  0  2  0  0  3  0  0  0  0  0  0
  183.4350  175.6300  138.9390 C   0  0  0  0  0  2  0  0  0  0  0  0
  182.6810  175.2380  136.2140 C   0  0  2  0  0  3  0  0  0  0  0  0
  181.1710  179.3240  139.3070 C   0  0  2  0  0  3  0  0  0  0  0  0
  185.1120  178.9660  138.0380 O   0  0  0  0  0  0  0  0  0  0  0  0
  183.4730  174.3720  138.3080 O   0  0  0  0  0  0  0  0  0  0  0  0
  185.1370  176.6310  137.5640 O   0  0  0  0  0  0  0  0  0  0  0  0
  182.1280  179.8120  137.1940 O   0  0  0  0  0  0  0  0  0  0  0  0
  189.8040  175.3570  136.0660 C   0  0  0  0  0  2  0  0  0  0  0  0
  187.0660  177.9310  136.9330 C   0  0  1  0  0  3  0  0  0  0  0  0
  189.2220  178.2550  139.8950 C   0  0  0  0  0  2  0  0  0  0  0  0
  187.7760  178.3080  139.3640 C   0  0  0  0  0  2  0  0  0  0  0  0
  186.9650  175.5450  136.0390 C   0  0  0  0  0  2  0  0  0  0  0  0
  187.7410  178.8790  137.9420 C   0  0  0  0  0  2  0  0  0  0  0  0
  189.1160  176.3850  136.9140 C   0  0  0  0  0  0  0  0  0  0  0  0
  189.7250  176.8440  137.9690 C   0  0  0  0  0  0  0  0  0  0  0  0
  187.5370  174.1690  136.3750 C   0  0  0  0  0  2  0  0  0  0  0  0
  189.0490  173.6390  134.5940 O   0  0  0  0  0  1  0  0  0  0  0  0
  190.1550  177.3990  139.0680 C   0  0  0  0  0  3  0  0  0  0  0  0
  187.6890  176.5850  136.7780 N   0  0  0  0  0  0  0  0  0  0  0  0
  189.0120  174.0400  135.9330 C   0  0  1  0  0  0  0  0  0  0  0  0
  191.2390  173.1470  136.7900 C   0  0  0  0  0  1  0  0  0  0  0  0
  189.7230  172.9920  136.7920 C   0  0  0  0  0  2  0  0  0  0  0  0
  183.8330  177.9770  143.2450 N   0  0  0  0  0  2  0  0  0  0  0  0
  184.8180  178.5070  144.1470 C   0  0  0  0  0  0  0  0  0  0  0  0
  184.9240  179.7450  144.3500 O   0  0  0  0  0  0  0  0  0  0  0  0
  185.7010  177.6170  144.8290 N   0  0  0  0  0  0  0  0  0  0  0  0
  186.8840  177.2830  144.3890 C   0  0  0  0  0  3  0  0  0  0  0  0
  187.4230  177.7250  143.0640 C   0  0  0  0  0  2  0  0  0  0  0  0
  188.7930  177.2660  142.9180 N   0  0  0  0  0  2  0  0  0  0  0  0
  189.6480  178.2080  143.6210 C   0  0  0  0  0  2  0  0  0  0  0  0
  190.9410  177.5310  144.0510 C   0  0  0  0  0  2  0  0  0  0  0  0
  190.2200  177.9640  146.2790 O   0  0  0  0  0  1  0  0  0  0  0  0
  190.8180  177.0020  145.4710 C   0  0  0  0  0  2  0  0  0  0  0  0
  181.5160  175.1580  135.2310 C   0  0  0  0  0  2  0  0  0  0  0  0
  180.1870  175.5150  135.9000 C   0  0  2  0  0  3  0  0  0  0  0  0
  179.3260  174.2540  135.9820 C   0  0  2  0  0  3  0  0  0  0  0  0
  179.0330  173.9150  137.3130 O   0  0  0  0  0  1  0  0  0  0  0  0
  179.9350  173.0710  135.2240 C   0  0  0  0  0  2  0  0  0  0  0  0
  179.8290  171.7680  136.0020 C   0  0  0  0  0  1  0  0  0  0  0  0
  179.5040  176.5370  135.1770 O   0  0  0  0  0  0  0  0  0  0  0  0
  179.0460  178.4930  136.6500 C   0  0  0  0  0  1  0  0  0  0  0  0
  179.6630  177.9010  135.4340 C   0  0  0  0  0  0  0  0  0  0  0  0
  180.2910  178.6470  134.6330 O   0  0  0  0  0  0  0  0  0  0  0  0
  2  9  1  0  0  0  0
  2 15  1  0  0  0  0
  3 10  2  0  0  0  0
  4  3  1  0  0  0  0
  5 17  1  0  0  0  0
  6  8  1  6  0  0  0
  6  9  1  0  0  0  0
  6 13  1  0  0  0  0
  9 16  1  6  0  0  0
  9  4  1  0  0  0  0
 10 35  1  0  0  0  0
 11  3  1  0  0  0  0
 11  7  1  1  0  0  0
 12 18  1  1  0  0  0
 12 16  1  0  0  0  0
 14 46  1  6  0  0  0
 14  8  1  0  0  0  0
 14  5  1  0  0  0  0
 15  1  1  1  0  0  0
 15 11  1  0  0  0  0
 17 13  1  0  0  0  0
 18  6  1  0  0  0  0
 19  2  2  0  0  0  0
 20 26  1  0  0  0  0
 21 12  1  0  0  0  0
 21 25  1  1  0  0  0
 23 22  1  0  0  0  0
 24 28  1  0  0  0  0
 24 31  1  0  0  0  0
 25 23  1  0  0  0  0
 26 27  2  0  0  0  0
 27 30  2  0  0  0  0
 30 22  1  0  0  0  0
 31 26  1  0  0  0  0
 31 21  1  0  0  0  0
 32 29  1  6  0  0  0
 32 20  1  0  0  0  0
 32 28  1  0  0  0  0
 32 34  1  0  0  0  0
 33 34  1  0  0  0  0
 35 36  1  0  0  0  0
 36 37  2  0  0  0  0
 36 38  1  0  0  0  0
 39 38  2  0  0  0  0
 40 39  1  0  0  0  0
 41 40  1  0  0  0  0
 41 42  1  0  0  0  0
 42 43  1  0  0  0  0
 43 45  1  0  0  0  0
 45 44  1  0  0  0  0
 47 46  1  6  0  0  0
 47 48  1  0  0  0  0
 48 49  1  1  0  0  0
 50 48  1  0  0  0  0
 50 51  1  0  0  0  0
 52 54  1  0  0  0  0
 52 47  1  0  0  0  0
 54 53  1  0  0  0  0
 55 54  2  0  0  0  0
M  END
>  <MODEL>
6

>  <REMARK>
 VINA RESULT:      -5.2      3.691     10.149
  Name = 
  15 active torsions:
  status: ('A' for Active; 'I' for Inactive)
    1  A    between atoms: N_1  and  C_10
    2  A    between atoms: N_3  and  N_29
    3  A    between atoms: C_4  and  C_38
    4  A    between atoms: C_4  and  C_50
    5  A    between atoms: C_6  and  C_25
    6  A    between atoms: C_6  and  C_42
    7  A    between atoms: O_11  and  C_41
    8  A    between atoms: O_11  and  C_50
    9  A    between atoms: C_12  and  C_55
   10  A    between atoms: C_15  and  C_33
   11  A    between atoms: C_21  and  C_22
   12  A    between atoms: C_21  and  C_50
   13  A    between atoms: C_24  and  C_49
   14  A    between atoms: N_40  and  C_42
   15  A    between atoms: N_40  and  C_49
                            x       y       z     vdW  Elec       q    Type
                         _______ _______ _______ _____ _____    ______ ____

>  <TORSDO>
F 15

$$$$
=
 OpenBabel11042410173D

 55 59  0  0  1  0  0  0  0  0999 V2000
  182.4200  176.8870  137.0610 F   0  0  0  0  0  0  0  0  0  0  0  0
  182.9740  176.4330  139.3000 C   0  0  0  0  0  0  0  0  0  0  0  0
  185.3130  176.2050  137.3830 C   0  0  0  0  0  0  0  0  0  0  0  0
  185.5020  177.2140  138.3410 O   0  0  0  0  0  0  0  0  0  0  0  0
  182.4250  181.3230  138.3750 C   0  0  0  0  0  2  0  0  0  0  0  0
  183.8960  179.2510  139.6310 C   0  0  1  0  0  0  0  0  0  0  0  0
  183.9190  174.6430  136.2070 O   0  0  0  0  0  1  0  0  0  0  0  0
  182.3970  179.3990  139.9350 C   0  0  0  0  0  2  0  0  0  0  0  0
  184.3410  177.5350  139.5620 P   0  0  1  0  0  4  0  0  0  0  0  0
  186.1650  176.0620  136.4100 N   0  0  0  0  0  0  0  0  0  0  0  0
  184.1290  175.2490  137.4490 C   0  0  2  0  0  3  0  0  0  0  0  0
  184.7630  178.7190  141.6440 C   0  0  2  0  0  3  0  0  0  0  0  0
  184.2330  179.9700  138.3200 C   0  0  0  0  0  2  0  0  0  0  0  0
  181.8970  180.8310  139.7150 C   0  0  2  0  0  3  0  0  0  0  0  0
  182.8110  175.8790  137.9290 C   0  0  2  0  0  3  0  0  0  0  0  0
  185.0070  177.4320  141.0960 O   0  0  0  0  0  0  0  0  0  0  0  0
  183.8310  181.3180  138.3800 O   0  0  0  0  0  0  0  0  0  0  0  0
  184.6740  179.7530  140.6750 O   0  0  0  0  0  0  0  0  0  0  0  0
  182.1970  176.1550  140.2010 O   0  0  0  0  0  0  0  0  0  0  0  0
  189.3450  178.1360  143.7920 C   0  0  0  0  0  2  0  0  0  0  0  0
  185.7730  179.1260  142.7270 C   0  0  1  0  0  3  0  0  0  0  0  0
  185.1260  177.9470  146.1500 C   0  0  0  0  0  2  0  0  0  0  0  0
  184.5660  178.0610  144.7180 C   0  0  0  0  0  2  0  0  0  0  0  0
  187.6140  177.8040  141.5580 C   0  0  0  0  0  2  0  0  0  0  0  0
  185.0310  179.3630  144.0550 C   0  0  0  0  0  2  0  0  0  0  0  0
  187.8640  178.2960  143.9650 C   0  0  0  0  0  0  0  0  0  0  0  0
  187.3420  178.1140  145.1440 C   0  0  0  0  0  0  0  0  0  0  0  0
  188.5510  176.6340  141.8530 C   0  0  0  0  0  2  0  0  0  0  0  0
  190.7540  177.5700  141.9530 O   0  0  0  0  0  1  0  0  0  0  0  0
  186.6350  177.9500  146.2280 C   0  0  0  0  0  3  0  0  0  0  0  0
  187.0030  178.2860  142.8020 N   0  0  0  0  0  0  0  0  0  0  0  0
  189.7300  177.0600  142.7570 C   0  0  1  0  0  0  0  0  0  0  0  0
  191.6140  176.0960  144.1760 C   0  0  0  0  0  1  0  0  0  0  0  0
  190.2550  175.8480  143.5310 C   0  0  0  0  0  2  0  0  0  0  0  0
  187.3530  176.8000  136.2150 N   0  0  0  0  0  2  0  0  0  0  0  0
  188.5200  176.3720  135.4930 C   0  0  0  0  0  0  0  0  0  0  0  0
  188.5870  175.2290  134.9730 O   0  0  0  0  0  0  0  0  0  0  0  0
  189.6310  177.2590  135.3620 N   0  0  0  0  0  0  0  0  0  0  0  0
  190.7350  177.1520  136.0490 C   0  0  0  0  0  3  0  0  0  0  0  0
  190.9360  176.1340  137.1290 C   0  0  0  0  0  2  0  0  0  0  0  0
  192.0120  175.2330  136.7550 N   0  0  0  0  0  2  0  0  0  0  0  0
  192.8620  175.0590  137.9210 C   0  0  0  0  0  2  0  0  0  0  0  0
  194.2870  174.7380  137.4950 C   0  0  0  0  0  2  0  0  0  0  0  0
  195.7890  173.7100  139.0310 O   0  0  0  0  0  1  0  0  0  0  0  0
  194.7560  173.4420  138.1380 C   0  0  0  0  0  2  0  0  0  0  0  0
  180.3710  180.8780  139.7030 C   0  0  0  0  0  2  0  0  0  0  0  0
  179.7650  179.4870  139.5080 C   0  0  2  0  0  3  0  0  0  0  0  0
  178.9310  179.4920  138.2260 C   0  0  2  0  0  3  0  0  0  0  0  0
  179.2430  178.3970  137.4040 O   0  0  0  0  0  1  0  0  0  0  0  0
  179.0310  180.8140  137.4600 C   0  0  0  0  0  2  0  0  0  0  0  0
  179.9770  180.7260  136.2730 C   0  0  0  0  0  1  0  0  0  0  0  0
  178.9580  179.1150  140.6240 O   0  0  0  0  0  0  0  0  0  0  0  0
  180.3960  179.2080  142.6560 C   0  0  0  0  0  1  0  0  0  0  0  0
  179.4620  178.4770  141.7610 C   0  0  0  0  0  0  0  0  0  0  0  0
  179.1660  177.2780  142.0210 O   0  0  0  0  0  0  0  0  0  0  0  0
  2  9  1  0  0  0  0
  2 19  2  0  0  0  0
  3 11  1  0  0  0  0
  3  4  1  0  0  0  0
  5 17  1  0  0  0  0
  5 14  1  0  0  0  0
  6 13  1  6  0  0  0
  6  8  1  0  0  0  0
  6 18  1  0  0  0  0
  9  4  1  6  0  0  0
  9  6  1  0  0  0  0
  9 16  1  0  0  0  0
 10  3  2  0  0  0  0
 11  7  1  6  0  0  0
 11 15  1  0  0  0  0
 12 18  1  6  0  0  0
 12 21  1  0  0  0  0
 13 17  1  0  0  0  0
 14 46  1  6  0  0  0
 14  8  1  0  0  0  0
 15  1  1  6  0  0  0
 15  2  1  0  0  0  0
 16 12  1  0  0  0  0
 20 26  1  0  0  0  0
 21 31  1  0  0  0  0
 21 25  1  1  0  0  0
 22 30  1  0  0  0  0
 23 22  1  0  0  0  0
 24 28  1  0  0  0  0
 24 31  1  0  0  0  0
 25 23  1  0  0  0  0
 26 27  2  0  0  0  0
 27 30  2  0  0  0  0
 28 32  1  0  0  0  0
 31 26  1  0  0  0  0
 32 29  1  6  0  0  0
 32 34  1  0  0  0  0
 32 20  1  0  0  0  0
 34 33  1  0  0  0  0
 35 10  1  0  0  0  0
 36 35  1  0  0  0  0
 37 36  2  0  0  0  0
 38 36  1  0  0  0  0
 38 39  2  0  0  0  0
 39 40  1  0  0  0  0
 41 40  1  0  0  0  0
 41 42  1  0  0  0  0
 43 42  1  0  0  0  0
 43 45  1  0  0  0  0
 45 44  1  0  0  0  0
 47 46  1  1  0  0  0
 47 52  1  0  0  0  0
 48 49  1  6  0  0  0
 48 47  1  0  0  0  0
 50 48  1  0  0  0  0
 51 50  1  0  0  0  0
 52 54  1  0  0  0  0
 54 55  2  0  0  0  0
 54 53  1  0  0  0  0
M  END
>  <MODEL>
7

>  <REMARK>
 VINA RESULT:      -4.5      3.384      9.764
  Name = 
  15 active torsions:
  status: ('A' for Active; 'I' for Inactive)
    1  A    between atoms: N_1  and  C_10
    2  A    between atoms: N_3  and  N_29
    3  A    between atoms: C_4  and  C_38
    4  A    between atoms: C_4  and  C_50
    5  A    between atoms: C_6  and  C_25
    6  A    between atoms: C_6  and  C_42
    7  A    between atoms: O_11  and  C_41
    8  A    between atoms: O_11  and  C_50
    9  A    between atoms: C_12  and  C_55
   10  A    between atoms: C_15  and  C_33
   11  A    between atoms: C_21  and  C_22
   12  A    between atoms: C_21  and  C_50
   13  A    between atoms: C_24  and  C_49
   14  A    between atoms: N_40  and  C_42
   15  A    between atoms: N_40  and  C_49
                            x       y       z     vdW  Elec       q    Type
                         _______ _______ _______ _____ _____    ______ ____

>  <TORSDO>
F 15

$$$$
=
 OpenBabel11042410173D

 55 59  0  0  1  0  0  0  0  0999 V2000
  182.2590  177.0580  137.0560 F   0  0  0  0  0  0  0  0  0  0  0  0
  182.6380  176.6550  139.3410 C   0  0  0  0  0  0  0  0  0  0  0  0
  185.0950  176.2870  137.6020 C   0  0  0  0  0  0  0  0  0  0  0  0
  185.2530  177.3180  138.5420 O   0  0  0  0  0  0  0  0  0  0  0  0
  182.3350  181.5300  138.2410 C   0  0  0  0  0  2  0  0  0  0  0  0
  183.6370  179.4480  139.6570 C   0  0  1  0  0  0  0  0  0  0  0  0
  183.7300  174.7390  136.3750 O   0  0  0  0  0  1  0  0  0  0  0  0
  182.1270  179.6560  139.8490 C   0  0  0  0  0  2  0  0  0  0  0  0
  184.0220  177.7160  139.6680 P   0  0  1  0  0  4  0  0  0  0  0  0
  186.0070  176.0840  136.6960 N   0  0  0  0  0  0  0  0  0  0  0  0
  183.8750  175.3750  137.6110 C   0  0  2  0  0  3  0  0  0  0  0  0
  184.3410  178.9490  141.7400 C   0  0  2  0  0  3  0  0  0  0  0  0
  184.0910  180.1140  138.3530 C   0  0  0  0  0  2  0  0  0  0  0  0
  181.6960  181.0980  139.5540 C   0  0  2  0  0  3  0  0  0  0  0  0
  182.5510  176.0650  137.9780 C   0  0  2  0  0  3  0  0  0  0  0  0
  184.5760  177.6380  141.2480 O   0  0  0  0  0  0  0  0  0  0  0  0
  183.7360  181.4760  138.3460 O   0  0  0  0  0  0  0  0  0  0  0  0
  184.3580  179.9550  140.7380 O   0  0  0  0  0  0  0  0  0  0  0  0
  181.7900  176.4320  140.1920 O   0  0  0  0  0  0  0  0  0  0  0  0
  188.8070  178.3870  144.1260 C   0  0  0  0  0  2  0  0  0  0  0  0
  185.2880  179.3540  142.8800 C   0  0  1  0  0  3  0  0  0  0  0  0
  184.4690  178.1330  146.2510 C   0  0  0  0  0  2  0  0  0  0  0  0
  183.9860  178.2560  144.7920 C   0  0  0  0  0  2  0  0  0  0  0  0
  187.2020  178.0630  141.7980 C   0  0  0  0  0  2  0  0  0  0  0  0
  184.4730  179.5690  144.1690 C   0  0  0  0  0  2  0  0  0  0  0  0
  187.3170  178.5310  144.2210 C   0  0  0  0  0  0  0  0  0  0  0  0
  186.7340  178.3320  145.3670 C   0  0  0  0  0  0  0  0  0  0  0  0
  188.1330  176.8990  142.1320 C   0  0  0  0  0  2  0  0  0  0  0  0
  190.3190  177.8550  142.3600 O   0  0  0  0  0  1  0  0  0  0  0  0
  185.9720  178.1490  146.4100 C   0  0  0  0  0  3  0  0  0  0  0  0
  186.5200  178.5250  143.0120 N   0  0  0  0  0  0  0  0  0  0  0  0
  189.2580  177.3260  143.1020 C   0  0  1  0  0  0  0  0  0  0  0  0
  191.2070  175.7610  143.5960 C   0  0  0  0  0  1  0  0  0  0  0  0
  189.7530  176.1110  143.8910 C   0  0  0  0  0  2  0  0  0  0  0  0
  187.2320  176.7740  136.5650 N   0  0  0  0  0  2  0  0  0  0  0  0
  188.3910  176.6320  137.4030 C   0  0  0  0  0  0  0  0  0  0  0  0
  188.3930  175.8570  138.3940 O   0  0  0  0  0  0  0  0  0  0  0  0
  189.5680  177.3860  137.1130 N   0  0  0  0  0  0  0  0  0  0  0  0
  190.7500  176.8590  136.9470 C   0  0  0  0  0  3  0  0  0  0  0  0
  191.0330  175.4010  137.1320 C   0  0  0  0  0  2  0  0  0  0  0  0
  192.2080  175.2340  137.9690 N   0  0  0  0  0  2  0  0  0  0  0  0
  193.2010  174.5130  137.1910 C   0  0  0  0  0  2  0  0  0  0  0  0
  194.5960  174.7780  137.7390 C   0  0  0  0  0  2  0  0  0  0  0  0
  194.8310  172.6500  136.6950 O   0  0  0  0  0  1  0  0  0  0  0  0
  195.5180  173.6060  137.4370 C   0  0  0  0  0  2  0  0  0  0  0  0
  180.1780  181.1970  139.4320 C   0  0  0  0  0  2  0  0  0  0  0  0
  179.7410  181.4340  137.9860 C   0  0  2  0  0  3  0  0  0  0  0  0
  178.9390  182.7340  137.9230 C   0  0  2  0  0  3  0  0  0  0  0  0
  179.1010  183.3820  136.6880 O   0  0  0  0  0  1  0  0  0  0  0  0
  179.2440  183.6750  139.0930 C   0  0  0  0  0  2  0  0  0  0  0  0
  179.1110  185.1400  138.7080 C   0  0  0  0  0  1  0  0  0  0  0  0
  178.9600  180.3450  137.4970 O   0  0  0  0  0  0  0  0  0  0  0  0
  180.0070  179.9500  135.2710 C   0  0  0  0  0  1  0  0  0  0  0  0
  179.4160  179.4390  136.5370 C   0  0  0  0  0  0  0  0  0  0  0  0
  179.3040  178.1930  136.7080 O   0  0  0  0  0  0  0  0  0  0  0  0
  2  9  1  0  0  0  0
  2 19  2  0  0  0  0
  3 11  1  0  0  0  0
  3  4  1  0  0  0  0
  5 17  1  0  0  0  0
  5 14  1  0  0  0  0
  6 13  1  6  0  0  0
  6  9  1  0  0  0  0
  6  8  1  0  0  0  0
  6 18  1  0  0  0  0
  9  4  1  6  0  0  0
  9 16  1  0  0  0  0
 10  3  2  0  0  0  0
 11  7  1  6  0  0  0
 11 15  1  0  0  0  0
 12 18  1  6  0  0  0
 12 21  1  0  0  0  0
 14 46  1  6  0  0  0
 14  8  1  0  0  0  0
 15  1  1  6  0  0  0
 15  2  1  0  0  0  0
 16 12  1  0  0  0  0
 17 13  1  0  0  0  0
 20 26  1  0  0  0  0
 21 31  1  0  0  0  0
 21 25  1  1  0  0  0
 22 30  1  0  0  0  0
 23 22  1  0  0  0  0
 24 28  1  0  0  0  0
 24 31  1  0  0  0  0
 25 23  1  0  0  0  0
 26 27  2  0  0  0  0
 27 30  2  0  0  0  0
 28 32  1  0  0  0  0
 31 26  1  0  0  0  0
 32 29  1  6  0  0  0
 32 34  1  0  0  0  0
 32 20  1  0  0  0  0
 33 34  1  0  0  0  0
 35 10  1  0  0  0  0
 35 36  1  0  0  0  0
 36 37  2  0  0  0  0
 38 36  1  0  0  0  0
 39 38  2  0  0  0  0
 39 40  1  0  0  0  0
 40 41  1  0  0  0  0
 42 43  1  0  0  0  0
 42 41  1  0  0  0  0
 44 45  1  0  0  0  0
 45 43  1  0  0  0  0
 47 46  1  1  0  0  0
 48 49  1  6  0  0  0
 48 47  1  0  0  0  0
 48 50  1  0  0  0  0
 51 50  1  0  0  0  0
 52 47  1  0  0  0  0
 53 54  1  0  0  0  0
 54 55  2  0  0  0  0
 54 52  1  0  0  0  0
M  END
>  <MODEL>
8

>  <REMARK>
 VINA RESULT:      -4.4      3.952      9.984
  Name = 
  15 active torsions:
  status: ('A' for Active; 'I' for Inactive)
    1  A    between atoms: N_1  and  C_10
    2  A    between atoms: N_3  and  N_29
    3  A    between atoms: C_4  and  C_38
    4  A    between atoms: C_4  and  C_50
    5  A    between atoms: C_6  and  C_25
    6  A    between atoms: C_6  and  C_42
    7  A    between atoms: O_11  and  C_41
    8  A    between atoms: O_11  and  C_50
    9  A    between atoms: C_12  and  C_55
   10  A    between atoms: C_15  and  C_33
   11  A    between atoms: C_21  and  C_22
   12  A    between atoms: C_21  and  C_50
   13  A    between atoms: C_24  and  C_49
   14  A    between atoms: N_40  and  C_42
   15  A    between atoms: N_40  and  C_49
                            x       y       z     vdW  Elec       q    Type
                         _______ _______ _______ _____ _____    ______ ____

>  <TORSDO>
F 15

$$$$
