=
 OpenBabel11032419143D

 30 34  0  0  1  0  0  0  0  0999 V2000
  188.1830  177.3340  145.1720 C   0  0  0  0  0  0  0  0  0  0  0  0
  185.2870  178.3490  143.0330 N   0  0  0  0  0  0  0  0  0  0  0  0
  189.7810  177.9100  142.0490 N   0  0  0  0  0  0  0  0  0  0  0  0
  186.1210  178.5600  145.7810 C   0  0  0  0  0  3  0  0  0  0  0  0
  186.4970  178.5090  147.0680 C   0  0  0  0  0  3  0  0  0  0  0  0
  186.7310  177.5850  144.8030 C   0  0  1  0  0  3  0  0  0  0  0  0
  189.1690  177.2100  144.1960 O   0  0  0  0  0  0  0  0  0  0  0  0
  189.1670  178.3550  140.8100 C   0  0  2  0  0  3  0  0  0  0  0  0
  187.5000  177.4890  142.3180 C   0  0  2  0  0  3  0  0  0  0  0  0
  187.5210  177.4830  147.4890 C   0  0  2  0  0  3  0  0  0  0  0  0
  186.4870  177.9390  143.3520 C   0  0  0  0  0  0  0  0  0  0  0  0
  188.8770  177.4980  142.8680 C   0  0  0  0  0  0  0  0  0  0  0  0
  188.2010  177.9200  148.7700 C   0  0  0  0  0  1  0  0  0  0  0  0
  187.6680  178.4070  141.1100 C   0  0  0  0  0  2  0  0  0  0  0  0
  188.5170  177.2950  146.4300 N   0  0  0  0  0  0  0  0  0  0  0  0
  183.4760  178.7840  139.2570 C   0  0  0  0  0  0  0  0  0  0  0  0
  183.0340  177.7610  140.0980 C   0  0  0  0  0  3  0  0  0  0  0  0
  182.9440  178.9420  138.1280 O   0  0  0  0  0  0  0  0  0  0  0  0
  185.0780  179.4690  140.8700 C   0  0  0  0  0  3  0  0  0  0  0  0
  184.4760  179.6130  139.6590 N   0  0  0  0  0  0  0  0  0  0  0  0
  184.6930  178.4370  141.7310 C   0  0  2  0  0  3  0  0  0  0  0  0
  183.6390  177.5970  141.3450 C   0  0  0  0  0  3  0  0  0  0  0  0
  190.0450  175.6700  137.5550 C   0  0  0  0  0  3  0  0  0  0  0  0
  191.0610  176.0750  138.4230 C   0  0  0  0  0  3  0  0  0  0  0  0
  189.4710  177.4100  139.6810 C   0  0  0  0  0  0  0  0  0  0  0  0
  190.7850  176.9480  139.4890 C   0  0  0  0  0  0  0  0  0  0  0  0
  188.4550  177.0000  138.8000 C   0  0  0  0  0  3  0  0  0  0  0  0
  188.7410  176.1330  137.7440 C   0  0  0  0  0  3  0  0  0  0  0  0
  191.7970  177.3630  140.3630 O   0  0  0  0  0  0  0  0  0  0  0  0
  193.1740  177.3540  140.0070 C   0  0  0  0  0  1  0  0  0  0  0  0
  1 15  2  0  0  0  0
  2 11  2  0  0  0  0
  3 12  2  0  0  0  0
  4  5  2  0  0  0  0
  5 10  1  0  0  0  0
  6  1  1  0  0  0  0
  6  4  1  1  0  0  0
  7  1  1  0  0  0  0
  8 25  1  6  0  0  0
  8 14  1  0  0  0  0
  8  3  1  0  0  0  0
  9 14  1  6  0  0  0
  9 12  1  0  0  0  0
  9 11  1  0  0  0  0
 10 13  1  1  0  0  0
 11  6  1  0  0  0  0
 12  7  1  0  0  0  0
 15 10  1  0  0  0  0
 16 20  1  0  0  0  0
 16 17  1  0  0  0  0
 17 22  2  0  0  0  0
 18 16  2  0  0  0  0
 19 21  1  0  0  0  0
 20 19  2  0  0  0  0
 21  2  1  1  0  0  0
 22 21  1  0  0  0  0
 23 28  2  0  0  0  0
 23 24  1  0  0  0  0
 24 26  2  0  0  0  0
 26 25  1  0  0  0  0
 26 29  1  0  0  0  0
 27 25  2  0  0  0  0
 28 27  1  0  0  0  0
 30 29  1  0  0  0  0
M  END
>  <MODEL>
1

>  <REMARK>
 VINA RESULT:      -9.5      0.000      0.000
  Name = 
  3 active torsions:
  status: ('A' for Active; 'I' for Inactive)
    1  A    between atoms: N_3  and  C_24
    2  A    between atoms: C_15  and  C_17
    3  A    between atoms: C_16  and  O_20
                            x       y       z     vdW  Elec       q    Type
                         _______ _______ _______ _____ _____    ______ ____

>  <TORSDO>
F 3

$$$$
=
 OpenBabel11032419143D

 30 34  0  0  1  0  0  0  0  0999 V2000
  188.1880  177.3740  145.1180 C   0  0  0  0  0  0  0  0  0  0  0  0
  185.2570  178.3300  142.9990 N   0  0  0  0  0  0  0  0  0  0  0  0
  189.7560  178.0070  141.9910 N   0  0  0  0  0  0  0  0  0  0  0  0
  186.1000  178.5450  145.7450 C   0  0  0  0  0  3  0  0  0  0  0  0
  186.4840  178.4960  147.0290 C   0  0  0  0  0  3  0  0  0  0  0  0
  186.7290  177.5920  144.7580 C   0  0  1  0  0  3  0  0  0  0  0  0
  189.1720  177.2800  144.1360 O   0  0  0  0  0  0  0  0  0  0  0  0
  189.1250  178.4440  140.7570 C   0  0  2  0  0  3  0  0  0  0  0  0
  187.4870  177.5280  142.2680 C   0  0  2  0  0  3  0  0  0  0  0  0
  187.5350  177.4930  147.4390 C   0  0  2  0  0  3  0  0  0  0  0  0
  186.4690  177.9480  143.3100 C   0  0  0  0  0  0  0  0  0  0  0  0
  188.8670  177.5690  142.8120 C   0  0  0  0  0  0  0  0  0  0  0  0
  188.2110  177.9390  148.7190 C   0  0  0  0  0  1  0  0  0  0  0  0
  187.6260  178.4570  141.0650 C   0  0  0  0  0  2  0  0  0  0  0  0
  188.5300  177.3350  146.3730 N   0  0  0  0  0  0  0  0  0  0  0  0
  183.4110  178.7390  139.2380 C   0  0  0  0  0  0  0  0  0  0  0  0
  183.0320  177.6750  140.0570 C   0  0  0  0  0  3  0  0  0  0  0  0
  182.8670  178.8900  138.1140 O   0  0  0  0  0  0  0  0  0  0  0  0
  184.9760  179.4810  140.8620 C   0  0  0  0  0  3  0  0  0  0  0  0
  184.3630  179.6160  139.6550 N   0  0  0  0  0  0  0  0  0  0  0  0
  184.6550  178.4110  141.7010 C   0  0  2  0  0  3  0  0  0  0  0  0
  183.6500  177.5190  141.2990 C   0  0  0  0  0  3  0  0  0  0  0  0
  190.0230  175.7550  137.5120 C   0  0  0  0  0  3  0  0  0  0  0  0
  188.9400  176.6300  137.4170 C   0  0  0  0  0  3  0  0  0  0  0  0
  189.4460  177.5130  139.6210 C   0  0  0  0  0  0  0  0  0  0  0  0
  188.6400  177.5130  138.4680 C   0  0  0  0  0  0  0  0  0  0  0  0
  190.5310  176.6260  139.7090 C   0  0  0  0  0  3  0  0  0  0  0  0
  190.8190  175.7520  138.6590 C   0  0  0  0  0  3  0  0  0  0  0  0
  187.5540  178.3930  138.3840 O   0  0  0  0  0  0  0  0  0  0  0  0
  186.6020  178.3440  137.3290 C   0  0  0  0  0  1  0  0  0  0  0  0
  1 15  2  0  0  0  0
  2 11  2  0  0  0  0
  3 12  2  0  0  0  0
  4  5  2  0  0  0  0
  5 10  1  0  0  0  0
  6  1  1  0  0  0  0
  6  4  1  1  0  0  0
  7  1  1  0  0  0  0
  8 25  1  6  0  0  0
  8 14  1  0  0  0  0
  8  3  1  0  0  0  0
  9 14  1  6  0  0  0
  9 12  1  0  0  0  0
  9 11  1  0  0  0  0
 10 13  1  1  0  0  0
 11  6  1  0  0  0  0
 12  7  1  0  0  0  0
 15 10  1  0  0  0  0
 16 20  1  0  0  0  0
 16 17  1  0  0  0  0
 17 22  2  0  0  0  0
 18 16  2  0  0  0  0
 19 21  1  0  0  0  0
 20 19  2  0  0  0  0
 21  2  1  1  0  0  0
 22 21  1  0  0  0  0
 23 28  1  0  0  0  0
 24 23  2  0  0  0  0
 24 26  1  0  0  0  0
 25 27  1  0  0  0  0
 26 25  2  0  0  0  0
 28 27  2  0  0  0  0
 29 26  1  0  0  0  0
 30 29  1  0  0  0  0
M  END
>  <MODEL>
2

>  <REMARK>
 VINA RESULT:      -9.4      1.007      1.797
  Name = 
  3 active torsions:
  status: ('A' for Active; 'I' for Inactive)
    1  A    between atoms: N_3  and  C_24
    2  A    between atoms: C_15  and  C_17
    3  A    between atoms: C_16  and  O_20
                            x       y       z     vdW  Elec       q    Type
                         _______ _______ _______ _____ _____    ______ ____

>  <TORSDO>
F 3

$$$$
=
 OpenBabel11032419143D

 30 34  0  0  1  0  0  0  0  0999 V2000
  189.3430  177.8500  138.8580 C   0  0  0  0  0  0  0  0  0  0  0  0
  186.1290  178.6240  140.6100 N   0  0  0  0  0  0  0  0  0  0  0  0
  189.8230  176.2050  141.9730 N   0  0  0  0  0  0  0  0  0  0  0  0
  187.0690  178.1540  137.9280 C   0  0  0  0  0  3  0  0  0  0  0  0
  187.5860  178.0630  136.6930 C   0  0  0  0  0  3  0  0  0  0  0  0
  187.9850  178.4930  139.0790 C   0  0  1  0  0  3  0  0  0  0  0  0
  190.0590  177.2850  139.9120 O   0  0  0  0  0  0  0  0  0  0  0  0
  188.8930  176.1290  143.0850 C   0  0  2  0  0  3  0  0  0  0  0  0
  188.2930  177.9290  141.6020 C   0  0  2  0  0  3  0  0  0  0  0  0
  189.0650  178.2960  136.5010 C   0  0  2  0  0  3  0  0  0  0  0  0
  187.3710  178.2530  140.4420 C   0  0  0  0  0  0  0  0  0  0  0  0
  189.4640  177.1340  141.1580 C   0  0  0  0  0  0  0  0  0  0  0  0
  189.5370  177.6330  135.2250 C   0  0  0  0  0  1  0  0  0  0  0  0
  187.7120  177.0090  142.6730 C   0  0  0  0  0  2  0  0  0  0  0  0
  189.8150  177.7710  137.6470 N   0  0  0  0  0  0  0  0  0  0  0  0
  183.8760  179.2380  144.1120 C   0  0  0  0  0  0  0  0  0  0  0  0
  185.0000  180.0350  143.8910 C   0  0  0  0  0  3  0  0  0  0  0  0
  183.1790  179.4080  145.1460 O   0  0  0  0  0  0  0  0  0  0  0  0
  184.2610  178.0660  142.0830 C   0  0  0  0  0  3  0  0  0  0  0  0
  183.5290  178.2820  143.2090 N   0  0  0  0  0  0  0  0  0  0  0  0
  185.4150  178.8150  141.8380 C   0  0  2  0  0  3  0  0  0  0  0  0
  185.7640  179.8280  142.7410 C   0  0  0  0  0  3  0  0  0  0  0  0
  190.7040  177.5600  146.7250 C   0  0  0  0  0  3  0  0  0  0  0  0
  189.3160  177.5800  146.5780 C   0  0  0  0  0  3  0  0  0  0  0  0
  189.5250  176.6180  144.3600 C   0  0  0  0  0  0  0  0  0  0  0  0
  188.7150  177.1130  145.3970 C   0  0  0  0  0  0  0  0  0  0  0  0
  190.9210  176.6050  144.5140 C   0  0  0  0  0  3  0  0  0  0  0  0
  191.5070  177.0730  145.6920 C   0  0  0  0  0  3  0  0  0  0  0  0
  187.3240  177.1310  145.2390 O   0  0  0  0  0  0  0  0  0  0  0  0
  186.4440  177.6610  146.2210 C   0  0  0  0  0  1  0  0  0  0  0  0
  1  6  1  0  0  0  0
  1  7  1  0  0  0  0
  3  8  1  0  0  0  0
  5  4  2  0  0  0  0
  6  4  1  6  0  0  0
  6 11  1  0  0  0  0
  7 12  1  0  0  0  0
  8 25  1  1  0  0  0
  9 14  1  1  0  0  0
 10 13  1  6  0  0  0
 10  5  1  0  0  0  0
 10 15  1  0  0  0  0
 11  2  2  0  0  0  0
 11  9  1  0  0  0  0
 12  9  1  0  0  0  0
 12  3  2  0  0  0  0
 14  8  1  0  0  0  0
 15  1  2  0  0  0  0
 16 18  2  0  0  0  0
 17 16  1  0  0  0  0
 19 20  2  0  0  0  0
 20 16  1  0  0  0  0
 21  2  1  6  0  0  0
 21 19  1  0  0  0  0
 21 22  1  0  0  0  0
 22 17  2  0  0  0  0
 24 23  1  0  0  0  0
 25 27  2  0  0  0  0
 25 26  1  0  0  0  0
 26 24  2  0  0  0  0
 27 28  1  0  0  0  0
 28 23  2  0  0  0  0
 29 26  1  0  0  0  0
 29 30  1  0  0  0  0
M  END
>  <MODEL>
3

>  <REMARK>
 VINA RESULT:      -9.2      2.372      6.538
  Name = 
  3 active torsions:
  status: ('A' for Active; 'I' for Inactive)
    1  A    between atoms: N_3  and  C_24
    2  A    between atoms: C_15  and  C_17
    3  A    between atoms: C_16  and  O_20
                            x       y       z     vdW  Elec       q    Type
                         _______ _______ _______ _____ _____    ______ ____

>  <TORSDO>
F 3

$$$$
=
 OpenBabel11032419143D

 30 34  0  0  1  0  0  0  0  0999 V2000
  189.6520  176.3980  137.8470 C   0  0  0  0  0  0  0  0  0  0  0  0
  191.5770  176.7600  141.0350 N   0  0  0  0  0  0  0  0  0  0  0  0
  187.5170  178.5350  139.7220 N   0  0  0  0  0  0  0  0  0  0  0  0
  192.0990  176.4100  138.2240 C   0  0  0  0  0  3  0  0  0  0  0  0
  192.2780  176.1120  136.9280 C   0  0  0  0  0  3  0  0  0  0  0  0
  190.7560  176.1360  138.8570 C   0  0  1  0  0  3  0  0  0  0  0  0
  188.4550  177.0050  138.2210 O   0  0  0  0  0  0  0  0  0  0  0  0
  187.7410  179.0580  141.0580 C   0  0  2  0  0  3  0  0  0  0  0  0
  189.1600  177.1560  140.6440 C   0  0  2  0  0  3  0  0  0  0  0  0
  191.1280  175.5200  136.1500 C   0  0  2  0  0  3  0  0  0  0  0  0
  190.5670  176.7990  140.2050 C   0  0  0  0  0  0  0  0  0  0  0  0
  188.3170  177.5540  139.4900 C   0  0  0  0  0  0  0  0  0  0  0  0
  191.3190  175.7650  134.6680 C   0  0  0  0  0  1  0  0  0  0  0  0
  189.0360  178.3940  141.5290 C   0  0  0  0  0  2  0  0  0  0  0  0
  189.8580  176.1020  136.5960 N   0  0  0  0  0  0  0  0  0  0  0  0
  191.3970  177.4260  145.1880 C   0  0  0  0  0  0  0  0  0  0  0  0
  191.6550  178.5090  144.3470 C   0  0  0  0  0  3  0  0  0  0  0  0
  191.3270  177.6000  146.4320 O   0  0  0  0  0  0  0  0  0  0  0  0
  191.2880  175.9570  143.3260 C   0  0  0  0  0  3  0  0  0  0  0  0
  191.2150  176.1840  144.6650 N   0  0  0  0  0  0  0  0  0  0  0  0
  191.5790  177.0050  142.4480 C   0  0  2  0  0  3  0  0  0  0  0  0
  191.7340  178.2970  142.9690 C   0  0  0  0  0  3  0  0  0  0  0  0
  184.4480  178.1520  143.6860 C   0  0  0  0  0  3  0  0  0  0  0  0
  184.2140  178.7760  142.4590 C   0  0  0  0  0  3  0  0  0  0  0  0
  186.5910  178.7320  141.9710 C   0  0  0  0  0  0  0  0  0  0  0  0
  185.2800  179.0730  141.5940 C   0  0  0  0  0  0  0  0  0  0  0  0
  186.8170  178.1080  143.2090 C   0  0  0  0  0  3  0  0  0  0  0  0
  185.7500  177.8180  144.0610 C   0  0  0  0  0  3  0  0  0  0  0  0
  185.0570  179.7020  140.3630 O   0  0  0  0  0  0  0  0  0  0  0  0
  183.9800  179.3520  139.5030 C   0  0  0  0  0  1  0  0  0  0  0  0
  1  7  1  0  0  0  0
  1  6  1  0  0  0  0
  3  8  1  0  0  0  0
  5  4  2  0  0  0  0
  6  4  1  6  0  0  0
  6 11  1  0  0  0  0
  7 12  1  0  0  0  0
  8 14  1  0  0  0  0
  8 25  1  1  0  0  0
  9 14  1  1  0  0  0
 10 13  1  6  0  0  0
 10 15  1  0  0  0  0
 10  5  1  0  0  0  0
 11  9  1  0  0  0  0
 11  2  2  0  0  0  0
 12  3  2  0  0  0  0
 12  9  1  0  0  0  0
 15  1  2  0  0  0  0
 16 18  2  0  0  0  0
 17 16  1  0  0  0  0
 19 20  2  0  0  0  0
 20 16  1  0  0  0  0
 21  2  1  6  0  0  0
 21 22  1  0  0  0  0
 21 19  1  0  0  0  0
 22 17  2  0  0  0  0
 23 28  1  0  0  0  0
 24 23  2  0  0  0  0
 25 27  1  0  0  0  0
 26 25  2  0  0  0  0
 26 24  1  0  0  0  0
 27 28  2  0  0  0  0
 29 26  1  0  0  0  0
 30 29  1  0  0  0  0
M  END
>  <MODEL>
4

>  <REMARK>
 VINA RESULT:      -9.1      2.412      8.078
  Name = 
  3 active torsions:
  status: ('A' for Active; 'I' for Inactive)
    1  A    between atoms: N_3  and  C_24
    2  A    between atoms: C_15  and  C_17
    3  A    between atoms: C_16  and  O_20
                            x       y       z     vdW  Elec       q    Type
                         _______ _______ _______ _____ _____    ______ ____

>  <TORSDO>
F 3

$$$$
=
 OpenBabel11032419143D

 30 34  0  0  1  0  0  0  0  0999 V2000
  189.6570  176.8400  144.5830 C   0  0  0  0  0  0  0  0  0  0  0  0
  186.1370  178.1050  144.5720 N   0  0  0  0  0  0  0  0  0  0  0  0
  189.3530  178.0480  141.2540 N   0  0  0  0  0  0  0  0  0  0  0  0
  188.3330  177.8440  146.4170 C   0  0  0  0  0  3  0  0  0  0  0  0
  189.3390  177.5730  147.2620 C   0  0  0  0  0  3  0  0  0  0  0  0
  188.2560  177.0920  145.1100 C   0  0  1  0  0  3  0  0  0  0  0  0
  189.9510  176.9400  143.2250 O   0  0  0  0  0  0  0  0  0  0  0  0
  188.1980  178.6870  140.6460 C   0  0  2  0  0  3  0  0  0  0  0  0
  187.5550  177.4870  142.6340 C   0  0  2  0  0  3  0  0  0  0  0  0
  190.3600  176.5320  146.8720 C   0  0  2  0  0  3  0  0  0  0  0  0
  187.2900  177.6960  144.1120 C   0  0  0  0  0  0  0  0  0  0  0  0
  189.0090  177.4550  142.3430 C   0  0  0  0  0  0  0  0  0  0  0  0
  191.6500  176.7550  147.6340 C   0  0  0  0  0  1  0  0  0  0  0  0
  187.1040  178.6180  141.7130 C   0  0  0  0  0  2  0  0  0  0  0  0
  190.6140  176.5850  145.4280 N   0  0  0  0  0  0  0  0  0  0  0  0
  182.5250  178.9020  142.5610 C   0  0  0  0  0  0  0  0  0  0  0  0
  183.4650  178.0730  141.9470 C   0  0  0  0  0  3  0  0  0  0  0  0
  181.4340  179.1470  141.9860 O   0  0  0  0  0  0  0  0  0  0  0  0
  183.9570  179.2010  144.4310 C   0  0  0  0  0  3  0  0  0  0  0  0
  182.7860  179.4400  143.7820 N   0  0  0  0  0  0  0  0  0  0  0  0
  184.9420  178.4060  143.8390 C   0  0  2  0  0  3  0  0  0  0  0  0
  184.6730  177.8160  142.5970 C   0  0  0  0  0  3  0  0  0  0  0  0
  186.9950  176.6360  137.0520 C   0  0  0  0  0  3  0  0  0  0  0  0
  186.1350  177.5570  137.6540 C   0  0  0  0  0  3  0  0  0  0  0  0
  187.7830  177.9790  139.3860 C   0  0  0  0  0  0  0  0  0  0  0  0
  186.5190  178.2330  138.8250 C   0  0  0  0  0  0  0  0  0  0  0  0
  188.6400  177.0470  138.7750 C   0  0  0  0  0  3  0  0  0  0  0  0
  188.2470  176.3810  137.6130 C   0  0  0  0  0  3  0  0  0  0  0  0
  185.6640  179.1560  139.4380 O   0  0  0  0  0  0  0  0  0  0  0  0
  184.3550  179.4330  138.9560 C   0  0  0  0  0  1  0  0  0  0  0  0
  1  6  1  0  0  0  0
  1 15  2  0  0  0  0
  3 12  2  0  0  0  0
  4  5  2  0  0  0  0
  6  4  1  1  0  0  0
  7  1  1  0  0  0  0
  8 25  1  6  0  0  0
  8  3  1  0  0  0  0
  8 14  1  0  0  0  0
  9 14  1  6  0  0  0
  9 11  1  0  0  0  0
 10  5  1  0  0  0  0
 10 13  1  1  0  0  0
 11  2  2  0  0  0  0
 11  6  1  0  0  0  0
 12  9  1  0  0  0  0
 12  7  1  0  0  0  0
 15 10  1  0  0  0  0
 16 20  1  0  0  0  0
 17 16  1  0  0  0  0
 17 22  2  0  0  0  0
 18 16  2  0  0  0  0
 20 19  2  0  0  0  0
 21 19  1  0  0  0  0
 21  2  1  1  0  0  0
 22 21  1  0  0  0  0
 23 28  2  0  0  0  0
 23 24  1  0  0  0  0
 24 26  2  0  0  0  0
 26 25  1  0  0  0  0
 26 29  1  0  0  0  0
 27 25  2  0  0  0  0
 28 27  1  0  0  0  0
 30 29  1  0  0  0  0
M  END
>  <MODEL>
5

>  <REMARK>
 VINA RESULT:      -8.7      2.018      3.262
  Name = 
  3 active torsions:
  status: ('A' for Active; 'I' for Inactive)
    1  A    between atoms: N_3  and  C_24
    2  A    between atoms: C_15  and  C_17
    3  A    between atoms: C_16  and  O_20
                            x       y       z     vdW  Elec       q    Type
                         _______ _______ _______ _____ _____    ______ ____

>  <TORSDO>
F 3

$$$$
=
 OpenBabel11032419143D

 30 34  0  0  1  0  0  0  0  0999 V2000
  190.3250  176.5530  144.2300 C   0  0  0  0  0  0  0  0  0  0  0  0
  187.0090  178.0440  143.3490 N   0  0  0  0  0  0  0  0  0  0  0  0
  190.7630  177.2540  140.7720 N   0  0  0  0  0  0  0  0  0  0  0  0
  188.7880  177.9160  145.6110 C   0  0  0  0  0  3  0  0  0  0  0  0
  189.5890  177.7090  146.6670 C   0  0  0  0  0  3  0  0  0  0  0  0
  188.8820  176.9800  144.4300 C   0  0  1  0  0  3  0  0  0  0  0  0
  190.8740  176.4230  142.9560 O   0  0  0  0  0  0  0  0  0  0  0  0
  189.8090  177.8710  139.8670 C   0  0  2  0  0  3  0  0  0  0  0  0
  188.6940  177.0380  141.8340 C   0  0  2  0  0  3  0  0  0  0  0  0
  190.5580  176.5520  146.6330 C   0  0  2  0  0  3  0  0  0  0  0  0
  188.1820  177.4900  143.1870 C   0  0  0  0  0  0  0  0  0  0  0  0
  190.1670  176.8600  141.8430 C   0  0  0  0  0  0  0  0  0  0  0  0
  191.7000  176.7980  147.5970 C   0  0  0  0  0  1  0  0  0  0  0  0
  188.5340  178.0430  140.6960 C   0  0  0  0  0  2  0  0  0  0  0  0
  191.0790  176.3650  145.2740 N   0  0  0  0  0  0  0  0  0  0  0  0
  184.0580  179.0120  140.5070 C   0  0  0  0  0  0  0  0  0  0  0  0
  183.7550  178.0710  141.4930 C   0  0  0  0  0  2  0  0  0  0  0  0
  183.1900  179.3260  139.6530 O   0  0  0  0  0  0  0  0  0  0  0  0
  186.2520  179.2730  141.3780 C   0  0  0  0  0  3  0  0  0  0  0  0
  185.2870  179.5920  140.4730 N   0  0  0  0  0  0  0  0  0  0  0  0
  186.0060  178.3110  142.3610 C   0  0  0  0  0  0  0  0  0  0  0  0
  184.7320  177.7300  142.4300 C   0  0  0  0  0  3  0  0  0  0  0  0
  189.1180  175.4260  136.3860 C   0  0  0  0  0  3  0  0  0  0  0  0
  190.4210  175.7530  136.7650 C   0  0  0  0  0  3  0  0  0  0  0  0
  189.5670  177.0090  138.6580 C   0  0  0  0  0  0  0  0  0  0  0  0
  190.6580  176.5470  137.9000 C   0  0  0  0  0  0  0  0  0  0  0  0
  188.2590  176.6790  138.2670 C   0  0  0  0  0  3  0  0  0  0  0  0
  188.0360  175.8900  137.1370 C   0  0  0  0  0  3  0  0  0  0  0  0
  191.9610  176.8820  138.2880 O   0  0  0  0  0  0  0  0  0  0  0  0
  193.1130  176.2480  137.7480 C   0  0  0  0  0  1  0  0  0  0  0  0
  1  6  1  0  0  0  0
  1 15  2  0  0  0  0
  3 12  2  0  0  0  0
  4  5  2  0  0  0  0
  6  4  1  1  0  0  0
  7  1  1  0  0  0  0
  8 25  1  6  0  0  0
  8 14  1  0  0  0  0
  8  3  1  0  0  0  0
  9 14  1  6  0  0  0
  9 12  1  0  0  0  0
  9 11  1  0  0  0  0
 10  5  1  0  0  0  0
 10 13  1  1  0  0  0
 11  2  2  0  0  0  0
 11  6  1  0  0  0  0
 12  7  1  0  0  0  0
 15 10  1  0  0  0  0
 16 17  1  0  0  0  0
 17 22  1  0  0  0  0
 18 16  2  0  0  0  0
 19 21  1  0  0  0  0
 20 16  1  0  0  0  0
 20 19  2  0  0  0  0
 21 22  2  0  0  0  0
 21  2  1  0  0  0  0
 23 24  2  0  0  0  0
 23 28  1  0  0  0  0
 24 26  1  0  0  0  0
 26 29  1  0  0  0  0
 26 25  2  0  0  0  0
 27 25  1  0  0  0  0
 28 27  2  0  0  0  0
 30 29  1  0  0  0  0
M  END
>  <MODEL>
6

>  <REMARK>
 VINA RESULT:      -8.6      1.688      2.015
  Name = 
  3 active torsions:
  status: ('A' for Active; 'I' for Inactive)
    1  A    between atoms: N_3  and  C_24
    2  A    between atoms: C_15  and  C_17
    3  A    between atoms: C_16  and  O_20
                            x       y       z     vdW  Elec       q    Type
                         _______ _______ _______ _____ _____    ______ ____

>  <TORSDO>
F 3

$$$$
=
 OpenBabel11032419143D

 30 34  0  0  1  0  0  0  0  0999 V2000
  188.7320  178.2290  139.9950 C   0  0  0  0  0  0  0  0  0  0  0  0
  185.0910  178.5240  140.8060 N   0  0  0  0  0  0  0  0  0  0  0  0
  188.6200  176.8270  143.2610 N   0  0  0  0  0  0  0  0  0  0  0  0
  186.7640  178.1040  138.4990 C   0  0  0  0  0  3  0  0  0  0  0  0
  187.5950  178.0470  137.4470 C   0  0  0  0  0  3  0  0  0  0  0  0
  187.2820  178.6430  139.8110 C   0  0  1  0  0  3  0  0  0  0  0  0
  189.2220  177.8400  141.2410 O   0  0  0  0  0  0  0  0  0  0  0  0
  187.4520  176.6430  144.1050 C   0  0  2  0  0  3  0  0  0  0  0  0
  186.9970  178.2490  142.3680 C   0  0  2  0  0  3  0  0  0  0  0  0
  189.0190  178.5180  137.6160 C   0  0  2  0  0  3  0  0  0  0  0  0
  186.3750  178.3620  140.9900 C   0  0  0  0  0  0  0  0  0  0  0  0
  188.3510  177.6460  142.3050 C   0  0  0  0  0  0  0  0  0  0  0  0
  189.9050  177.8890  136.5620 C   0  0  0  0  0  1  0  0  0  0  0  0
  186.3020  177.2920  143.3330 C   0  0  0  0  0  2  0  0  0  0  0  0
  189.5120  178.1780  138.9550 N   0  0  0  0  0  0  0  0  0  0  0  0
  181.9710  179.0110  143.5900 C   0  0  0  0  0  0  0  0  0  0  0  0
  183.2670  179.3610  143.9690 C   0  0  0  0  0  3  0  0  0  0  0  0
  181.0190  179.1570  144.3990 O   0  0  0  0  0  0  0  0  0  0  0  0
  182.7390  178.3430  141.4450 C   0  0  0  0  0  3  0  0  0  0  0  0
  181.7340  178.5190  142.3440 N   0  0  0  0  0  0  0  0  0  0  0  0
  184.0580  178.6460  141.7930 C   0  0  2  0  0  3  0  0  0  0  0  0
  184.3120  179.1880  143.0600 C   0  0  0  0  0  3  0  0  0  0  0  0
  188.0000  178.4610  147.9740 C   0  0  0  0  0  3  0  0  0  0  0  0
  189.0770  177.8510  147.3280 C   0  0  0  0  0  3  0  0  0  0  0  0
  187.6450  177.2870  145.4500 C   0  0  0  0  0  0  0  0  0  0  0  0
  188.9100  177.2580  146.0650 C   0  0  0  0  0  0  0  0  0  0  0  0
  186.5660  177.9000  146.1090 C   0  0  0  0  0  3  0  0  0  0  0  0
  186.7440  178.4850  147.3650 C   0  0  0  0  0  3  0  0  0  0  0  0
  189.9820  176.6400  145.4100 O   0  0  0  0  0  0  0  0  0  0  0  0
  191.3400  176.9630  145.6820 C   0  0  0  0  0  1  0  0  0  0  0  0
  1  7  1  0  0  0  0
  2 11  2  0  0  0  0
  3  8  1  0  0  0  0
  5 10  1  0  0  0  0
  5  4  2  0  0  0  0
  6  4  1  6  0  0  0
  6  1  1  0  0  0  0
  6 11  1  0  0  0  0
  7 12  1  0  0  0  0
  8 25  1  1  0  0  0
  9 14  1  1  0  0  0
 10 13  1  6  0  0  0
 10 15  1  0  0  0  0
 11  9  1  0  0  0  0
 12  9  1  0  0  0  0
 12  3  2  0  0  0  0
 14  8  1  0  0  0  0
 15  1  2  0  0  0  0
 16 17  1  0  0  0  0
 16 18  2  0  0  0  0
 19 21  1  0  0  0  0
 19 20  2  0  0  0  0
 20 16  1  0  0  0  0
 21  2  1  6  0  0  0
 21 22  1  0  0  0  0
 22 17  2  0  0  0  0
 24 23  2  0  0  0  0
 25 26  2  0  0  0  0
 25 27  1  0  0  0  0
 26 24  1  0  0  0  0
 27 28  2  0  0  0  0
 28 23  1  0  0  0  0
 29 30  1  0  0  0  0
 29 26  1  0  0  0  0
M  END
>  <MODEL>
7

>  <REMARK>
 VINA RESULT:      -8.6      2.216      6.295
  Name = 
  3 active torsions:
  status: ('A' for Active; 'I' for Inactive)
    1  A    between atoms: N_3  and  C_24
    2  A    between atoms: C_15  and  C_17
    3  A    between atoms: C_16  and  O_20
                            x       y       z     vdW  Elec       q    Type
                         _______ _______ _______ _____ _____    ______ ____

>  <TORSDO>
F 3

$$$$
=
 OpenBabel11032419143D

 30 34  0  0  1  0  0  0  0  0999 V2000
  190.1310  177.4990  140.7410 C   0  0  0  0  0  0  0  0  0  0  0  0
  186.4680  178.2260  140.9720 N   0  0  0  0  0  0  0  0  0  0  0  0
  189.4110  176.4470  144.0590 N   0  0  0  0  0  0  0  0  0  0  0  0
  188.3890  177.4180  138.9840 C   0  0  0  0  0  3  0  0  0  0  0  0
  189.3470  177.1760  138.0760 C   0  0  0  0  0  3  0  0  0  0  0  0
  188.7760  178.0320  140.3080 C   0  0  1  0  0  3  0  0  0  0  0  0
  190.3970  177.1910  142.0730 O   0  0  0  0  0  0  0  0  0  0  0  0
  188.1240  176.4620  144.7330 C   0  0  2  0  0  3  0  0  0  0  0  0
  188.0960  177.9240  142.8180 C   0  0  2  0  0  3  0  0  0  0  0  0
  190.7770  177.5210  138.4150 C   0  0  2  0  0  3  0  0  0  0  0  0
  187.6880  177.9590  141.3580 C   0  0  0  0  0  0  0  0  0  0  0  0
  189.3700  177.1890  143.0080 C   0  0  0  0  0  0  0  0  0  0  0  0
  191.7270  176.7080  137.5610 C   0  0  0  0  0  1  0  0  0  0  0  0
  187.1720  177.1400  143.7460 C   0  0  0  0  0  2  0  0  0  0  0  0
  191.0380  177.2700  139.8360 N   0  0  0  0  0  0  0  0  0  0  0  0
  183.0430  179.2540  143.1930 C   0  0  0  0  0  0  0  0  0  0  0  0
  184.2800  179.7530  143.6020 C   0  0  0  0  0  3  0  0  0  0  0  0
  182.0020  179.5560  143.8330 O   0  0  0  0  0  0  0  0  0  0  0  0
  184.0630  178.0990  141.3870 C   0  0  0  0  0  3  0  0  0  0  0  0
  182.9590  178.4500  142.1000 N   0  0  0  0  0  0  0  0  0  0  0  0
  185.3280  178.5450  141.7800 C   0  0  2  0  0  3  0  0  0  0  0  0
  185.4250  179.4040  142.8830 C   0  0  0  0  0  3  0  0  0  0  0  0
  188.3270  178.5950  148.4730 C   0  0  0  0  0  3  0  0  0  0  0  0
  189.4340  177.8780  148.0140 C   0  0  0  0  0  3  0  0  0  0  0  0
  188.1980  177.2160  146.0330 C   0  0  0  0  0  0  0  0  0  0  0  0
  189.3790  177.1820  146.7940 C   0  0  0  0  0  0  0  0  0  0  0  0
  187.0870  177.9360  146.5040 C   0  0  0  0  0  3  0  0  0  0  0  0
  187.1530  178.6230  147.7180 C   0  0  0  0  0  3  0  0  0  0  0  0
  190.4830  176.4580  146.3270 O   0  0  0  0  0  0  0  0  0  0  0  0
  191.6800  176.3080  147.0780 C   0  0  0  0  0  1  0  0  0  0  0  0
  1  7  1  0  0  0  0
  2 11  2  0  0  0  0
  3  8  1  0  0  0  0
  5 10  1  0  0  0  0
  5  4  2  0  0  0  0
  6  4  1  6  0  0  0
  6  1  1  0  0  0  0
  6 11  1  0  0  0  0
  7 12  1  0  0  0  0
  8 25  1  1  0  0  0
  9 12  1  0  0  0  0
  9 14  1  1  0  0  0
 10 13  1  6  0  0  0
 10 15  1  0  0  0  0
 11  9  1  0  0  0  0
 12  3  2  0  0  0  0
 14  8  1  0  0  0  0
 15  1  2  0  0  0  0
 16 17  1  0  0  0  0
 16 18  2  0  0  0  0
 19 21  1  0  0  0  0
 19 20  2  0  0  0  0
 20 16  1  0  0  0  0
 21  2  1  6  0  0  0
 21 22  1  0  0  0  0
 22 17  2  0  0  0  0
 24 23  1  0  0  0  0
 25 27  2  0  0  0  0
 25 26  1  0  0  0  0
 26 24  2  0  0  0  0
 27 28  1  0  0  0  0
 28 23  2  0  0  0  0
 29 26  1  0  0  0  0
 29 30  1  0  0  0  0
M  END
>  <MODEL>
8

>  <REMARK>
 VINA RESULT:      -8.5      2.015      6.336
  Name = 
  3 active torsions:
  status: ('A' for Active; 'I' for Inactive)
    1  A    between atoms: N_3  and  C_24
    2  A    between atoms: C_15  and  C_17
    3  A    between atoms: C_16  and  O_20
                            x       y       z     vdW  Elec       q    Type
                         _______ _______ _______ _____ _____    ______ ____

>  <TORSDO>
F 3

$$$$
=
 OpenBabel11032419143D

 30 34  0  0  1  0  0  0  0  0999 V2000
  190.1230  177.3460  140.3410 C   0  0  0  0  0  0  0  0  0  0  0  0
  186.5710  178.4310  140.7910 N   0  0  0  0  0  0  0  0  0  0  0  0
  189.4680  176.2570  143.6620 N   0  0  0  0  0  0  0  0  0  0  0  0
  188.2950  177.5020  138.6800 C   0  0  0  0  0  3  0  0  0  0  0  0
  189.1760  177.1970  137.7150 C   0  0  0  0  0  3  0  0  0  0  0  0
  188.8100  178.0280  139.9980 C   0  0  1  0  0  3  0  0  0  0  0  0
  190.4230  176.9660  141.6480 O   0  0  0  0  0  0  0  0  0  0  0  0
  188.2250  176.3790  144.4040 C   0  0  2  0  0  3  0  0  0  0  0  0
  188.2500  177.9020  142.5380 C   0  0  2  0  0  3  0  0  0  0  0  0
  190.6490  177.3830  137.9860 C   0  0  2  0  0  3  0  0  0  0  0  0
  187.7750  178.0290  141.1030 C   0  0  0  0  0  0  0  0  0  0  0  0
  189.4500  177.0350  142.6370 C   0  0  0  0  0  0  0  0  0  0  0  0
  191.4660  176.5080  137.0580 C   0  0  0  0  0  1  0  0  0  0  0  0
  187.2980  177.1840  143.4900 C   0  0  0  0  0  2  0  0  0  0  0  0
  190.9550  177.0580  139.3830 N   0  0  0  0  0  0  0  0  0  0  0  0
  183.5640  179.5500  143.5170 C   0  0  0  0  0  0  0  0  0  0  0  0
  183.2610  178.6020  142.5380 C   0  0  0  0  0  3  0  0  0  0  0  0
  182.6860  179.8930  144.3510 O   0  0  0  0  0  0  0  0  0  0  0  0
  185.7800  179.7540  142.6880 C   0  0  0  0  0  3  0  0  0  0  0  0
  184.8070  180.0970  143.5760 N   0  0  0  0  0  0  0  0  0  0  0  0
  185.5120  178.8360  141.6690 C   0  0  2  0  0  3  0  0  0  0  0  0
  184.2460  178.2370  141.6180 C   0  0  0  0  0  3  0  0  0  0  0  0
  188.8460  178.4020  148.1580 C   0  0  0  0  0  3  0  0  0  0  0  0
  187.5580  178.2730  147.6370 C   0  0  0  0  0  3  0  0  0  0  0  0
  188.4410  177.0750  145.7190 C   0  0  0  0  0  0  0  0  0  0  0  0
  187.3440  177.6120  146.4150 C   0  0  0  0  0  0  0  0  0  0  0  0
  189.7350  177.2140  146.2490 C   0  0  0  0  0  3  0  0  0  0  0  0
  189.9360  177.8720  147.4640 C   0  0  0  0  0  3  0  0  0  0  0  0
  186.0560  177.4800  145.8820 O   0  0  0  0  0  0  0  0  0  0  0  0
  184.9310  178.1730  146.4050 C   0  0  0  0  0  1  0  0  0  0  0  0
  1  7  1  0  0  0  0
  2 11  2  0  0  0  0
  3  8  1  0  0  0  0
  5 10  1  0  0  0  0
  5  4  2  0  0  0  0
  6  4  1  6  0  0  0
  6  1  1  0  0  0  0
  6 11  1  0  0  0  0
  7 12  1  0  0  0  0
  8 25  1  1  0  0  0
  9 12  1  0  0  0  0
  9 14  1  1  0  0  0
 10 13  1  6  0  0  0
 10 15  1  0  0  0  0
 11  9  1  0  0  0  0
 12  3  2  0  0  0  0
 14  8  1  0  0  0  0
 15  1  2  0  0  0  0
 16 20  1  0  0  0  0
 16 18  2  0  0  0  0
 17 16  1  0  0  0  0
 19 20  2  0  0  0  0
 21  2  1  1  0  0  0
 21 19  1  0  0  0  0
 22 21  1  0  0  0  0
 22 17  2  0  0  0  0
 24 23  1  0  0  0  0
 25 27  2  0  0  0  0
 25 26  1  0  0  0  0
 26 24  2  0  0  0  0
 27 28  1  0  0  0  0
 28 23  2  0  0  0  0
 29 30  1  0  0  0  0
 29 26  1  0  0  0  0
M  END
>  <MODEL>
9

>  <REMARK>
 VINA RESULT:      -8.4      1.998      6.590
  Name = 
  3 active torsions:
  status: ('A' for Active; 'I' for Inactive)
    1  A    between atoms: N_3  and  C_24
    2  A    between atoms: C_15  and  C_17
    3  A    between atoms: C_16  and  O_20
                            x       y       z     vdW  Elec       q    Type
                         _______ _______ _______ _____ _____    ______ ____

>  <TORSDO>
F 3

$$$$
