=
 OpenBabel11032419523D

 27 30  0  0  1  0  0  0  0  0999 V2000
  189.8140  177.0680  145.0690 C   0  0  0  0  0  3  0  0  0  0  0  0
  187.9600  177.6600  146.2690 C   0  0  0  0  0  0  0  0  0  0  0  0
  187.5280  177.3960  144.9930 C   0  0  0  0  0  0  0  0  0  0  0  0
  188.6660  177.0270  144.2680 C   0  0  0  0  0  0  0  0  0  0  0  0
  189.3720  177.4680  146.3120 C   0  0  1  0  0  3  0  0  0  0  0  0
  190.0400  177.6580  147.5090 C   0  0  0  0  0  3  0  0  0  0  0  0
  189.2990  178.0260  148.5980 N   0  0  0  0  0  0  0  0  0  0  0  0
  187.9390  178.1990  148.5370 C   0  0  0  0  0  3  0  0  0  0  0  0
  187.2550  178.0120  147.3680 N   0  0  0  0  0  0  0  0  0  0  0  0
  186.1060  177.3770  144.5210 C   0  0  1  0  0  3  0  0  0  0  0  0
  185.5170  178.7760  144.6030 C   0  0  1  0  0  3  0  0  0  0  0  0
  185.9480  178.2180  143.2670 C   0  0  0  0  0  2  0  0  0  0  0  0
  184.0140  178.6620  144.7390 C   0  0  0  0  0  2  0  0  0  0  0  0
  183.3470  179.6370  143.7890 C   0  0  0  0  0  2  0  0  0  0  0  0
  180.9550  178.0750  141.2700 C   0  0  0  0  0  3  0  0  0  0  0  0
  179.8510  178.2420  143.4160 C   0  0  0  0  0  3  0  0  0  0  0  0
  181.0020  178.8100  143.9650 C   0  0  0  0  0  3  0  0  0  0  0  0
  182.1130  178.6430  141.8130 C   0  0  0  0  0  0  0  0  0  0  0  0
  182.1390  179.0100  143.1740 C   0  0  0  0  0  0  0  0  0  0  0  0
  183.2980  178.8420  140.9290 C   0  0  0  0  0  1  0  0  0  0  0  0
  179.8270  177.8740  142.0690 C   0  0  0  0  0  3  0  0  0  0  0  0
  188.6700  176.5750  142.8430 C   0  0  0  0  0  2  0  0  0  0  0  0
  190.0850  176.2870  142.3700 C   0  0  0  0  0  2  0  0  0  0  0  0
  190.4000  177.1050  141.2110 N   0  0  0  0  0  2  0  0  0  0  0  0
  189.2360  177.1760  140.4400 N   0  0  0  0  0  2  0  0  0  0  0  0
  189.0910  178.1860  139.4820 C   0  0  0  0  0  0  0  0  0  0  0  0
  188.9720  179.0210  138.6900 N   0  0  0  0  0  0  0  0  0  0  0  0
  2  5  1  0  0  0  0
  2  9  1  0  0  0  0
  3  2  2  0  0  0  0
  4  3  1  0  0  0  0
  4  1  2  0  0  0  0
  5  1  1  1  0  0  0
  5  6  1  0  0  0  0
  6  7  2  0  0  0  0
  8  7  1  0  0  0  0
  9  8  2  0  0  0  0
 10 11  1  0  0  0  0
 10  3  1  1  0  0  0
 11 13  1  6  0  0  0
 12 10  1  0  0  0  0
 12 11  1  0  0  0  0
 14 13  1  0  0  0  0
 15 18  2  0  0  0  0
 15 21  1  0  0  0  0
 16 17  1  0  0  0  0
 18 19  1  0  0  0  0
 19 14  1  0  0  0  0
 19 17  2  0  0  0  0
 20 18  1  0  0  0  0
 21 16  2  0  0  0  0
 22  4  1  0  0  0  0
 23 22  1  0  0  0  0
 24 23  1  0  0  0  0
 25 24  1  0  0  0  0
 26 25  1  0  0  0  0
 27 26  3  0  0  0  0
M  END
>  <MODEL>
1

>  <REMARK>
 VINA RESULT:      -8.2      0.000      0.000
  Name = 
  9 active torsions:
  status: ('A' for Active; 'I' for Inactive)
    1  A    between atoms: C_1  and  N_10
    2  A    between atoms: C_5  and  C_12
    3  A    between atoms: C_5  and  C_19
    4  A    between atoms: C_6  and  N_14
    5  A    between atoms: C_6  and  C_26
    6  A    between atoms: C_8  and  C_15
    7  A    between atoms: N_10  and  N_14
    8  A    between atoms: C_11  and  C_26
    9  A    between atoms: C_12  and  C_20
                            x       y       z     vdW  Elec       q    Type
                         _______ _______ _______ _____ _____    ______ ____

>  <TORSDO>
F 9

$$$$
=
 OpenBabel11032419523D

 27 30  0  0  1  0  0  0  0  0999 V2000
  190.3100  176.5410  143.7050 C   0  0  0  0  0  3  0  0  0  0  0  0
  189.9490  177.2010  145.8630 C   0  0  0  0  0  0  0  0  0  0  0  0
  188.8750  177.6530  145.1360 C   0  0  0  0  0  0  0  0  0  0  0  0
  189.1000  177.2380  143.8180 C   0  0  0  0  0  0  0  0  0  0  0  0
  190.8380  176.5260  144.9770 C   0  0  1  0  0  3  0  0  0  0  0  0
  191.9940  175.9620  145.4870 C   0  0  0  0  0  3  0  0  0  0  0  0
  192.2240  176.0870  146.8290 N   0  0  0  0  0  0  0  0  0  0  0  0
  191.3510  176.7360  147.6670 C   0  0  0  0  0  3  0  0  0  0  0  0
  190.1990  177.2970  147.1890 N   0  0  0  0  0  0  0  0  0  0  0  0
  187.6540  178.3300  145.6780 C   0  0  1  0  0  3  0  0  0  0  0  0
  186.4310  177.4620  145.4310 C   0  0  1  0  0  3  0  0  0  0  0  0
  187.0490  177.5170  146.8090 C   0  0  0  0  0  2  0  0  0  0  0  0
  185.2070  178.3500  145.3880 C   0  0  0  0  0  2  0  0  0  0  0  0
  185.1710  179.0970  144.0690 C   0  0  0  0  0  2  0  0  0  0  0  0
  182.4730  178.6090  141.4260 C   0  0  0  0  0  3  0  0  0  0  0  0
  181.4340  178.7450  143.6070 C   0  0  0  0  0  3  0  0  0  0  0  0
  182.6900  178.9010  144.1960 C   0  0  0  0  0  3  0  0  0  0  0  0
  183.7350  178.7660  142.0090 C   0  0  0  0  0  0  0  0  0  0  0  0
  183.8460  178.9090  143.4070 C   0  0  0  0  0  0  0  0  0  0  0  0
  184.9380  178.7720  141.1270 C   0  0  0  0  0  1  0  0  0  0  0  0
  181.3250  178.5990  142.2220 C   0  0  0  0  0  3  0  0  0  0  0  0
  188.1530  177.4380  142.6800 C   0  0  0  0  0  2  0  0  0  0  0  0
  188.8330  178.1580  141.5280 C   0  0  0  0  0  2  0  0  0  0  0  0
  188.7660  177.3490  140.3230 N   0  0  0  0  0  2  0  0  0  0  0  0
  189.6580  177.9160  139.4070 N   0  0  0  0  0  2  0  0  0  0  0  0
  189.1750  178.7070  138.3590 C   0  0  0  0  0  0  0  0  0  0  0  0
  188.7750  179.3620  137.4930 N   0  0  0  0  0  0  0  0  0  0  0  0
  1  4  2  0  0  0  0
  2  9  1  0  0  0  0
  3  2  2  0  0  0  0
  4  3  1  0  0  0  0
  5  1  1  1  0  0  0
  5  6  1  0  0  0  0
  5  2  1  0  0  0  0
  6  7  2  0  0  0  0
  7  8  1  0  0  0  0
  9  8  2  0  0  0  0
 10  3  1  6  0  0  0
 10 12  1  0  0  0  0
 11 13  1  1  0  0  0
 11 10  1  0  0  0  0
 11 12  1  0  0  0  0
 14 13  1  0  0  0  0
 15 18  2  0  0  0  0
 15 21  1  0  0  0  0
 16 17  1  0  0  0  0
 18 19  1  0  0  0  0
 19 14  1  0  0  0  0
 19 17  2  0  0  0  0
 20 18  1  0  0  0  0
 21 16  2  0  0  0  0
 22  4  1  0  0  0  0
 23 22  1  0  0  0  0
 24 23  1  0  0  0  0
 25 24  1  0  0  0  0
 26 25  1  0  0  0  0
 27 26  3  0  0  0  0
M  END
>  <MODEL>
2

>  <REMARK>
 VINA RESULT:      -8.1      1.432      2.164
  Name = 
  9 active torsions:
  status: ('A' for Active; 'I' for Inactive)
    1  A    between atoms: C_1  and  N_10
    2  A    between atoms: C_5  and  C_12
    3  A    between atoms: C_5  and  C_19
    4  A    between atoms: C_6  and  N_14
    5  A    between atoms: C_6  and  C_26
    6  A    between atoms: C_8  and  C_15
    7  A    between atoms: N_10  and  N_14
    8  A    between atoms: C_11  and  C_26
    9  A    between atoms: C_12  and  C_20
                            x       y       z     vdW  Elec       q    Type
                         _______ _______ _______ _____ _____    ______ ____

>  <TORSDO>
F 9

$$$$
=
 OpenBabel11032419523D

 27 30  0  0  1  0  0  0  0  0999 V2000
  189.1140  176.9870  139.7160 C   0  0  0  0  0  3  0  0  0  0  0  0
  191.1960  177.4180  140.5560 C   0  0  0  0  0  0  0  0  0  0  0  0
  190.3020  177.7770  141.5340 C   0  0  0  0  0  0  0  0  0  0  0  0
  189.0310  177.5030  141.0150 C   0  0  2  0  0  3  0  0  0  0  0  0
  190.4620  176.9420  139.4310 C   0  0  0  0  0  0  0  0  0  0  0  0
  191.1520  176.5010  138.3160 C   0  0  0  0  0  3  0  0  0  0  0  0
  192.5180  176.5470  138.3550 N   0  0  0  0  0  0  0  0  0  0  0  0
  193.2070  177.0030  139.4510 C   0  0  0  0  0  3  0  0  0  0  0  0
  192.5490  177.4400  140.5670 N   0  0  0  0  0  0  0  0  0  0  0  0
  190.6360  178.2370  142.9200 C   0  0  1  0  0  3  0  0  0  0  0  0
  190.2820  177.1520  143.9230 C   0  0  1  0  0  3  0  0  0  0  0  0
  191.7240  177.3680  143.5250 C   0  0  0  0  0  2  0  0  0  0  0  0
  190.0250  177.7980  145.2670 C   0  0  0  0  0  2  0  0  0  0  0  0
  189.0500  176.9450  146.0580 C   0  0  0  0  0  2  0  0  0  0  0  0
  185.9280  178.7860  147.2250 C   0  0  0  0  0  3  0  0  0  0  0  0
  185.6450  178.1300  144.9130 C   0  0  0  0  0  3  0  0  0  0  0  0
  186.9170  177.5520  144.9220 C   0  0  0  0  0  3  0  0  0  0  0  0
  187.2020  178.2090  147.2410 C   0  0  0  0  0  0  0  0  0  0  0  0
  187.7040  177.5900  146.0780 C   0  0  0  0  0  0  0  0  0  0  0  0
  188.0020  178.2700  148.4990 C   0  0  0  0  0  1  0  0  0  0  0  0
  185.1510  178.7470  146.0640 C   0  0  0  0  0  3  0  0  0  0  0  0
  187.7450  177.6630  141.7600 C   0  0  0  0  0  2  0  0  0  0  0  0
  187.0390  178.9450  141.3520 C   0  0  0  0  0  2  0  0  0  0  0  0
  186.1640  178.6950  140.2190 N   0  0  0  0  0  2  0  0  0  0  0  0
  185.0400  179.5100  140.3910 N   0  0  0  0  0  2  0  0  0  0  0  0
  183.9890  179.4550  139.4690 C   0  0  0  0  0  0  0  0  0  0  0  0
  183.1190  179.4080  138.7070 N   0  0  0  0  0  0  0  0  0  0  0  0
  1  4  1  0  0  0  0
  2  9  1  0  0  0  0
  2  3  2  0  0  0  0
  4  3  1  0  0  0  0
  4 22  1  1  0  0  0
  5  1  2  0  0  0  0
  5  2  1  0  0  0  0
  6  7  2  0  0  0  0
  6  5  1  0  0  0  0
  7  8  1  0  0  0  0
  8  9  2  0  0  0  0
 10  3  1  6  0  0  0
 10 12  1  0  0  0  0
 10 11  1  0  0  0  0
 11 13  1  1  0  0  0
 12 11  1  0  0  0  0
 13 14  1  0  0  0  0
 14 19  1  0  0  0  0
 15 18  1  0  0  0  0
 16 17  2  0  0  0  0
 16 21  1  0  0  0  0
 17 19  1  0  0  0  0
 18 20  1  0  0  0  0
 19 18  2  0  0  0  0
 21 15  2  0  0  0  0
 23 22  1  0  0  0  0
 24 25  1  0  0  0  0
 24 23  1  0  0  0  0
 26 25  1  0  0  0  0
 27 26  3  0  0  0  0
M  END
>  <MODEL>
3

>  <REMARK>
 VINA RESULT:      -8.1      3.398      6.643
  Name = 
  9 active torsions:
  status: ('A' for Active; 'I' for Inactive)
    1  A    between atoms: C_1  and  N_10
    2  A    between atoms: C_5  and  C_12
    3  A    between atoms: C_5  and  C_19
    4  A    between atoms: C_6  and  N_14
    5  A    between atoms: C_6  and  C_26
    6  A    between atoms: C_8  and  C_15
    7  A    between atoms: N_10  and  N_14
    8  A    between atoms: C_11  and  C_26
    9  A    between atoms: C_12  and  C_20
                            x       y       z     vdW  Elec       q    Type
                         _______ _______ _______ _____ _____    ______ ____

>  <TORSDO>
F 9

$$$$
=
 OpenBabel11032419523D

 27 30  0  0  1  0  0  0  0  0999 V2000
  184.6430  179.1770  139.6710 C   0  0  0  0  0  3  0  0  0  0  0  0
  182.8280  178.8700  141.0270 C   0  0  0  0  0  0  0  0  0  0  0  0
  183.9340  178.5950  141.7920 C   0  0  0  0  0  0  0  0  0  0  0  0
  185.0400  178.7930  140.9580 C   0  0  2  0  0  3  0  0  0  0  0  0
  183.2660  179.2180  139.7160 C   0  0  0  0  0  0  0  0  0  0  0  0
  182.3240  179.5570  138.7610 C   0  0  0  0  0  3  0  0  0  0  0  0
  181.0080  179.5380  139.1320 N   0  0  0  0  0  0  0  0  0  0  0  0
  180.6080  179.2060  140.4020 C   0  0  0  0  0  3  0  0  0  0  0  0
  181.5190  178.8720  141.3660 N   0  0  0  0  0  0  0  0  0  0  0  0
  183.9480  178.2810  143.2570 C   0  0  1  0  0  3  0  0  0  0  0  0
  184.7980  179.3030  143.9950 C   0  0  1  0  0  3  0  0  0  0  0  0
  183.2910  179.3970  144.0500 C   0  0  0  0  0  2  0  0  0  0  0  0
  185.3130  178.6740  145.2710 C   0  0  0  0  0  2  0  0  0  0  0  0
  186.4660  177.7430  144.9450 C   0  0  0  0  0  2  0  0  0  0  0  0
  189.7150  177.3840  146.8990 C   0  0  0  0  0  3  0  0  0  0  0  0
  187.9830  178.1930  148.3810 C   0  0  0  0  0  3  0  0  0  0  0  0
  187.0700  178.1760  147.3240 C   0  0  0  0  0  3  0  0  0  0  0  0
  188.8070  177.3640  145.8350 C   0  0  0  0  0  0  0  0  0  0  0  0
  187.4730  177.7680  146.0480 C   0  0  0  0  0  0  0  0  0  0  0  0
  189.2810  176.9160  144.4940 C   0  0  0  0  0  1  0  0  0  0  0  0
  189.3050  177.7980  148.1680 C   0  0  0  0  0  3  0  0  0  0  0  0
  186.4690  178.6860  141.3830 C   0  0  0  0  0  2  0  0  0  0  0  0
  187.3540  178.2870  140.2140 C   0  0  0  0  0  2  0  0  0  0  0  0
  188.7410  178.2090  140.6400 N   0  0  0  0  0  2  0  0  0  0  0  0
  189.5110  178.0640  139.4820 N   0  0  0  0  0  2  0  0  0  0  0  0
  189.1890  178.7950  138.3320 C   0  0  0  0  0  0  0  0  0  0  0  0
  188.9240  179.3990  137.3820 N   0  0  0  0  0  0  0  0  0  0  0  0
  1  5  2  0  0  0  0
  1  4  1  0  0  0  0
  2  9  1  0  0  0  0
  2  3  2  0  0  0  0
  4 22  1  1  0  0  0
  4  3  1  0  0  0  0
  5  2  1  0  0  0  0
  6  7  2  0  0  0  0
  6  5  1  0  0  0  0
  7  8  1  0  0  0  0
  8  9  2  0  0  0  0
 10  3  1  6  0  0  0
 10 11  1  0  0  0  0
 10 12  1  0  0  0  0
 11 12  1  0  0  0  0
 11 13  1  1  0  0  0
 14 13  1  0  0  0  0
 14 19  1  0  0  0  0
 15 21  1  0  0  0  0
 17 16  1  0  0  0  0
 18 19  1  0  0  0  0
 18 15  2  0  0  0  0
 19 17  2  0  0  0  0
 20 18  1  0  0  0  0
 21 16  2  0  0  0  0
 23 24  1  0  0  0  0
 23 22  1  0  0  0  0
 25 24  1  0  0  0  0
 26 25  1  0  0  0  0
 27 26  3  0  0  0  0
M  END
>  <MODEL>
4

>  <REMARK>
 VINA RESULT:      -7.9      2.497      7.049
  Name = 
  9 active torsions:
  status: ('A' for Active; 'I' for Inactive)
    1  A    between atoms: C_1  and  N_10
    2  A    between atoms: C_5  and  C_12
    3  A    between atoms: C_5  and  C_19
    4  A    between atoms: C_6  and  N_14
    5  A    between atoms: C_6  and  C_26
    6  A    between atoms: C_8  and  C_15
    7  A    between atoms: N_10  and  N_14
    8  A    between atoms: C_11  and  C_26
    9  A    between atoms: C_12  and  C_20
                            x       y       z     vdW  Elec       q    Type
                         _______ _______ _______ _____ _____    ______ ____

>  <TORSDO>
F 9

$$$$
=
 OpenBabel11032419523D

 27 30  0  0  1  0  0  0  0  0999 V2000
  188.0120  177.7070  146.7130 C   0  0  0  0  0  3  0  0  0  0  0  0
  189.5590  176.9300  145.2200 C   0  0  0  0  0  0  0  0  0  0  0  0
  188.3960  177.1100  144.5130 C   0  0  0  0  0  0  0  0  0  0  0  0
  187.4570  177.5920  145.4320 C   0  0  0  0  0  0  0  0  0  0  0  0
  189.3180  177.2880  146.5790 C   0  0  0  0  0  0  0  0  0  0  0  0
  190.3570  177.2070  147.4890 C   0  0  0  0  0  3  0  0  0  0  0  0
  191.5720  176.7820  147.0300 N   0  0  0  0  0  0  0  0  0  0  0  0
  191.7860  176.4480  145.7150 C   0  0  0  0  0  3  0  0  0  0  0  0
  190.7780  176.5240  144.7950 N   0  0  0  0  0  2  0  0  0  0  0  0
  188.2180  176.9490  143.0350 C   0  0  1  0  0  3  0  0  0  0  0  0
  188.5060  178.2670  142.3340 C   0  0  1  0  0  3  0  0  0  0  0  0
  189.5360  177.1610  142.3110 C   0  0  0  0  0  2  0  0  0  0  0  0
  187.7580  178.2910  141.0190 C   0  0  0  0  0  2  0  0  0  0  0  0
  188.7460  178.4540  139.8800 C   0  0  0  0  0  2  0  0  0  0  0  0
  188.8030  175.8330  137.1180 C   0  0  0  0  0  3  0  0  0  0  0  0
  186.6980  177.0240  137.0390 C   0  0  0  0  0  3  0  0  0  0  0  0
  187.0960  177.7990  138.1310 C   0  0  0  0  0  3  0  0  0  0  0  0
  189.2080  176.6050  138.2110 C   0  0  0  0  0  0  0  0  0  0  0  0
  188.3460  177.5940  138.7260 C   0  0  0  0  0  0  0  0  0  0  0  0
  190.5510  176.3540  138.8090 C   0  0  0  0  0  1  0  0  0  0  0  0
  187.5510  176.0410  136.5330 C   0  0  0  0  0  3  0  0  0  0  0  0
  186.0600  178.0070  145.0980 C   0  0  0  0  0  2  0  0  0  0  0  0
  185.2970  178.4000  146.3510 C   0  0  0  0  0  2  0  0  0  0  0  0
  184.0120  178.9760  145.9940 N   0  0  0  0  0  2  0  0  0  0  0  0
  183.9200  178.9210  144.5990 N   0  0  0  0  0  2  0  0  0  0  0  0
  182.6670  178.9790  143.9790 C   0  0  0  0  0  0  0  0  0  0  0  0
  181.6310  179.0270  143.4650 N   0  0  0  0  0  0  0  0  0  0  0  0
  2  5  1  0  0  0  0
  3  2  2  0  0  0  0
  3  4  1  0  0  0  0
  4  1  2  0  0  0  0
  5  1  1  0  0  0  0
  5  6  2  0  0  0  0
  7  6  1  0  0  0  0
  8  7  2  0  0  0  0
  9  2  1  0  0  0  0
  9  8  1  0  0  0  0
 10  3  1  1  0  0  0
 11 13  1  6  0  0  0
 11 10  1  0  0  0  0
 12 11  1  0  0  0  0
 12 10  1  0  0  0  0
 14 13  1  0  0  0  0
 15 18  1  0  0  0  0
 16 17  2  0  0  0  0
 17 19  1  0  0  0  0
 18 19  2  0  0  0  0
 18 20  1  0  0  0  0
 19 14  1  0  0  0  0
 21 16  1  0  0  0  0
 21 15  2  0  0  0  0
 22  4  1  0  0  0  0
 22 23  1  0  0  0  0
 24 23  1  0  0  0  0
 25 24  1  0  0  0  0
 26 25  1  0  0  0  0
 27 26  3  0  0  0  0
M  END
>  <MODEL>
5

>  <REMARK>
 VINA RESULT:      -7.9      2.586      6.155
  Name = 
  9 active torsions:
  status: ('A' for Active; 'I' for Inactive)
    1  A    between atoms: C_1  and  N_10
    2  A    between atoms: C_5  and  C_12
    3  A    between atoms: C_5  and  C_19
    4  A    between atoms: C_6  and  N_14
    5  A    between atoms: C_6  and  C_26
    6  A    between atoms: C_8  and  C_15
    7  A    between atoms: N_10  and  N_14
    8  A    between atoms: C_11  and  C_26
    9  A    between atoms: C_12  and  C_20
                            x       y       z     vdW  Elec       q    Type
                         _______ _______ _______ _____ _____    ______ ____

>  <TORSDO>
F 9

$$$$
=
 OpenBabel11032419523D

 27 30  0  0  1  0  0  0  0  0999 V2000
  185.8850  178.5700  146.2700 C   0  0  0  0  0  3  0  0  0  0  0  0
  187.8910  177.5170  145.9650 C   0  0  0  0  0  0  0  0  0  0  0  0
  187.2070  177.3960  144.7810 C   0  0  0  0  0  0  0  0  0  0  0  0
  185.9840  178.0500  144.9730 C   0  0  0  0  0  0  0  0  0  0  0  0
  187.0700  178.2310  146.8860 C   0  0  0  0  0  0  0  0  0  0  0  0
  187.5570  178.4950  148.1540 C   0  0  0  0  0  3  0  0  0  0  0  0
  188.8130  178.0490  148.4580 N   0  0  0  0  0  0  0  0  0  0  0  0
  189.5900  177.3680  147.5540 C   0  0  0  0  0  3  0  0  0  0  0  0
  189.1350  177.0990  146.2930 N   0  0  0  0  0  2  0  0  0  0  0  0
  187.7280  176.8040  143.5080 C   0  0  1  0  0  3  0  0  0  0  0  0
  188.3370  177.8940  142.6430 C   0  0  1  0  0  3  0  0  0  0  0  0
  189.2350  176.9610  143.4210 C   0  0  0  0  0  2  0  0  0  0  0  0
  188.2810  177.4540  141.1960 C   0  0  0  0  0  2  0  0  0  0  0  0
  189.0040  178.4700  140.3320 C   0  0  0  0  0  2  0  0  0  0  0  0
  190.1890  177.1180  136.9740 C   0  0  0  0  0  3  0  0  0  0  0  0
  191.7060  176.3780  138.7080 C   0  0  0  0  0  3  0  0  0  0  0  0
  190.9450  177.0560  139.6630 C   0  0  0  0  0  3  0  0  0  0  0  0
  189.4220  177.7990  137.9250 C   0  0  0  0  0  0  0  0  0  0  0  0
  189.8050  177.7720  139.2810 C   0  0  0  0  0  0  0  0  0  0  0  0
  188.2120  178.5450  137.4720 C   0  0  0  0  0  1  0  0  0  0  0  0
  191.3280  176.4100  137.3640 C   0  0  0  0  0  3  0  0  0  0  0  0
  184.9370  178.2430  143.9240 C   0  0  0  0  0  2  0  0  0  0  0  0
  184.9300  179.6780  143.4250 C   0  0  0  0  0  2  0  0  0  0  0  0
  185.5730  179.7580  142.1250 N   0  0  0  0  0  2  0  0  0  0  0  0
  184.9590  178.7980  141.3130 N   0  0  0  0  0  2  0  0  0  0  0  0
  184.9280  178.9730  139.9250 C   0  0  0  0  0  0  0  0  0  0  0  0
  184.9020  179.1190  138.7770 N   0  0  0  0  0  0  0  0  0  0  0  0
  1  5  1  0  0  0  0
  2  9  1  0  0  0  0
  2  5  1  0  0  0  0
  3  4  1  0  0  0  0
  3  2  2  0  0  0  0
  4  1  2  0  0  0  0
  5  6  2  0  0  0  0
  6  7  1  0  0  0  0
  8  7  2  0  0  0  0
  9  8  1  0  0  0  0
 10  3  1  1  0  0  0
 11 13  1  6  0  0  0
 11 12  1  0  0  0  0
 11 10  1  0  0  0  0
 12 10  1  0  0  0  0
 14 13  1  0  0  0  0
 15 21  2  0  0  0  0
 15 18  1  0  0  0  0
 16 17  2  0  0  0  0
 18 19  2  0  0  0  0
 19 17  1  0  0  0  0
 19 14  1  0  0  0  0
 20 18  1  0  0  0  0
 21 16  1  0  0  0  0
 22  4  1  0  0  0  0
 23 22  1  0  0  0  0
 24 23  1  0  0  0  0
 25 24  1  0  0  0  0
 26 25  1  0  0  0  0
 27 26  3  0  0  0  0
M  END
>  <MODEL>
6

>  <REMARK>
 VINA RESULT:      -7.9      2.728      6.181
  Name = 
  9 active torsions:
  status: ('A' for Active; 'I' for Inactive)
    1  A    between atoms: C_1  and  N_10
    2  A    between atoms: C_5  and  C_12
    3  A    between atoms: C_5  and  C_19
    4  A    between atoms: C_6  and  N_14
    5  A    between atoms: C_6  and  C_26
    6  A    between atoms: C_8  and  C_15
    7  A    between atoms: N_10  and  N_14
    8  A    between atoms: C_11  and  C_26
    9  A    between atoms: C_12  and  C_20
                            x       y       z     vdW  Elec       q    Type
                         _______ _______ _______ _____ _____    ______ ____

>  <TORSDO>
F 9

$$$$
=
 OpenBabel11032419523D

 27 30  0  0  1  0  0  0  0  0999 V2000
  185.2900  178.4950  146.1900 C   0  0  0  0  0  3  0  0  0  0  0  0
  185.4610  178.0930  143.9460 C   0  0  0  0  0  0  0  0  0  0  0  0
  186.5710  177.5300  144.5260 C   0  0  0  0  0  0  0  0  0  0  0  0
  186.4550  177.7740  145.8990 C   0  0  2  0  0  3  0  0  0  0  0  0
  184.6780  178.6980  144.9730 C   0  0  0  0  0  0  0  0  0  0  0  0
  183.4900  179.3200  144.6320 C   0  0  0  0  0  3  0  0  0  0  0  0
  183.1290  179.3210  143.3140 N   0  0  0  0  0  0  0  0  0  0  0  0
  183.8940  178.7270  142.3410 C   0  0  0  0  0  3  0  0  0  0  0  0
  185.0700  178.1020  142.6510 N   0  0  0  0  0  0  0  0  0  0  0  0
  187.6160  176.7070  143.8360 C   0  0  1  0  0  3  0  0  0  0  0  0
  188.4670  177.5970  142.9450 C   0  0  1  0  0  3  0  0  0  0  0  0
  189.0060  177.1290  144.2770 C   0  0  0  0  0  2  0  0  0  0  0  0
  189.0550  176.7520  141.8360 C   0  0  0  0  0  2  0  0  0  0  0  0
  189.9780  177.6050  140.9870 C   0  0  0  0  0  2  0  0  0  0  0  0
  189.8030  177.2140  137.2040 C   0  0  0  0  0  3  0  0  0  0  0  0
  187.7640  178.2530  137.9900 C   0  0  0  0  0  3  0  0  0  0  0  0
  188.2380  178.1910  139.3020 C   0  0  0  0  0  3  0  0  0  0  0  0
  190.2850  177.1490  138.5150 C   0  0  0  0  0  0  0  0  0  0  0  0
  189.4940  177.6380  139.5750 C   0  0  0  0  0  0  0  0  0  0  0  0
  191.6320  176.5560  138.7570 C   0  0  0  0  0  1  0  0  0  0  0  0
  188.5460  177.7640  136.9410 C   0  0  0  0  0  3  0  0  0  0  0  0
  187.4000  177.2750  146.9450 C   0  0  0  0  0  2  0  0  0  0  0  0
  187.8600  178.4090  147.8440 C   0  0  0  0  0  2  0  0  0  0  0  0
  189.2330  178.1870  148.2650 N   0  0  0  0  0  2  0  0  0  0  0  0
  189.6250  176.9570  147.7280 N   0  0  0  0  0  2  0  0  0  0  0  0
  190.9560  176.7530  147.3440 C   0  0  0  0  0  0  0  0  0  0  0  0
  192.0560  176.5850  147.0270 N   0  0  0  0  0  0  0  0  0  0  0  0
  2  3  2  0  0  0  0
  2  5  1  0  0  0  0
  3  4  1  0  0  0  0
  4  1  1  0  0  0  0
  4 22  1  1  0  0  0
  5  1  2  0  0  0  0
  6  5  1  0  0  0  0
  7  6  2  0  0  0  0
  8  9  2  0  0  0  0
  8  7  1  0  0  0  0
  9  2  1  0  0  0  0
 10 12  1  0  0  0  0
 10  3  1  1  0  0  0
 11 13  1  6  0  0  0
 11 10  1  0  0  0  0
 11 12  1  0  0  0  0
 14 13  1  0  0  0  0
 15 18  1  0  0  0  0
 16 17  2  0  0  0  0
 17 19  1  0  0  0  0
 18 20  1  0  0  0  0
 18 19  2  0  0  0  0
 19 14  1  0  0  0  0
 21 15  2  0  0  0  0
 21 16  1  0  0  0  0
 22 23  1  0  0  0  0
 23 24  1  0  0  0  0
 25 24  1  0  0  0  0
 26 25  1  0  0  0  0
 27 26  3  0  0  0  0
M  END
>  <MODEL>
7

>  <REMARK>
 VINA RESULT:      -7.9      2.489      6.949
  Name = 
  9 active torsions:
  status: ('A' for Active; 'I' for Inactive)
    1  A    between atoms: C_1  and  N_10
    2  A    between atoms: C_5  and  C_12
    3  A    between atoms: C_5  and  C_19
    4  A    between atoms: C_6  and  N_14
    5  A    between atoms: C_6  and  C_26
    6  A    between atoms: C_8  and  C_15
    7  A    between atoms: N_10  and  N_14
    8  A    between atoms: C_11  and  C_26
    9  A    between atoms: C_12  and  C_20
                            x       y       z     vdW  Elec       q    Type
                         _______ _______ _______ _____ _____    ______ ____

>  <TORSDO>
F 9

$$$$
=
 OpenBabel11032419523D

 27 30  0  0  1  0  0  0  0  0999 V2000
  187.9530  177.9740  138.6150 C   0  0  0  0  0  3  0  0  0  0  0  0
  190.0450  177.2910  139.2330 C   0  0  0  0  0  0  0  0  0  0  0  0
  189.4280  177.7320  140.3770 C   0  0  0  0  0  0  0  0  0  0  0  0
  188.1460  178.1420  139.9920 C   0  0  2  0  0  3  0  0  0  0  0  0
  189.1380  177.4520  138.1450 C   0  0  0  0  0  0  0  0  0  0  0  0
  189.5320  177.0550  136.8790 C   0  0  0  0  0  3  0  0  0  0  0  0
  190.7840  176.5260  136.7400 N   0  0  0  0  0  0  0  0  0  0  0  0
  191.6400  176.3740  137.8020 C   0  0  0  0  0  3  0  0  0  0  0  0
  191.2740  176.7530  139.0640 N   0  0  0  0  0  0  0  0  0  0  0  0
  189.9750  177.6590  141.7700 C   0  0  1  0  0  3  0  0  0  0  0  0
  189.1890  176.6420  142.5800 C   0  0  1  0  0  3  0  0  0  0  0  0
  190.5560  176.2830  142.0450 C   0  0  0  0  0  2  0  0  0  0  0  0
  189.2970  177.0020  144.0460 C   0  0  0  0  0  2  0  0  0  0  0  0
  187.9070  177.1880  144.6230 C   0  0  0  0  0  2  0  0  0  0  0  0
  187.0270  178.4530  148.1060 C   0  0  0  0  0  3  0  0  0  0  0  0
  189.3280  177.7060  148.0900 C   0  0  0  0  0  3  0  0  0  0  0  0
  189.2070  177.3590  146.7430 C   0  0  0  0  0  3  0  0  0  0  0  0
  186.8980  178.1080  146.7560 C   0  0  0  0  0  0  0  0  0  0  0  0
  187.9960  177.5520  146.0690 C   0  0  0  0  0  0  0  0  0  0  0  0
  185.5890  178.3370  146.0790 C   0  0  0  0  0  1  0  0  0  0  0  0
  188.2380  178.2520  148.7720 C   0  0  0  0  0  3  0  0  0  0  0  0
  187.0810  178.6270  140.9220 C   0  0  0  0  0  2  0  0  0  0  0  0
  185.7060  178.4820  140.2930 C   0  0  0  0  0  2  0  0  0  0  0  0
  184.9840  179.7410  140.3730 N   0  0  0  0  0  2  0  0  0  0  0  0
  184.4280  179.9680  139.1100 N   0  0  0  0  0  2  0  0  0  0  0  0
  183.4790  179.0780  138.5940 C   0  0  0  0  0  0  0  0  0  0  0  0
  182.6940  178.3430  138.1670 N   0  0  0  0  0  0  0  0  0  0  0  0
  1  4  1  0  0  0  0
  2  3  2  0  0  0  0
  4  3  1  0  0  0  0
  4 22  1  1  0  0  0
  5  1  2  0  0  0  0
  5  2  1  0  0  0  0
  6  5  1  0  0  0  0
  7  6  2  0  0  0  0
  7  8  1  0  0  0  0
  8  9  2  0  0  0  0
  9  2  1  0  0  0  0
 10  3  1  6  0  0  0
 10 12  1  0  0  0  0
 10 11  1  0  0  0  0
 11 13  1  1  0  0  0
 12 11  1  0  0  0  0
 13 14  1  0  0  0  0
 14 19  1  0  0  0  0
 15 21  1  0  0  0  0
 16 21  2  0  0  0  0
 17 16  1  0  0  0  0
 18 15  2  0  0  0  0
 19 17  2  0  0  0  0
 19 18  1  0  0  0  0
 20 18  1  0  0  0  0
 23 24  1  0  0  0  0
 23 22  1  0  0  0  0
 25 24  1  0  0  0  0
 26 25  1  0  0  0  0
 27 26  3  0  0  0  0
M  END
>  <MODEL>
8

>  <REMARK>
 VINA RESULT:      -7.7      3.577      7.488
  Name = 
  9 active torsions:
  status: ('A' for Active; 'I' for Inactive)
    1  A    between atoms: C_1  and  N_10
    2  A    between atoms: C_5  and  C_12
    3  A    between atoms: C_5  and  C_19
    4  A    between atoms: C_6  and  N_14
    5  A    between atoms: C_6  and  C_26
    6  A    between atoms: C_8  and  C_15
    7  A    between atoms: N_10  and  N_14
    8  A    between atoms: C_11  and  C_26
    9  A    between atoms: C_12  and  C_20
                            x       y       z     vdW  Elec       q    Type
                         _______ _______ _______ _____ _____    ______ ____

>  <TORSDO>
F 9

$$$$
=
 OpenBabel11032419523D

 27 30  0  0  1  0  0  0  0  0999 V2000
  185.9350  178.3170  146.0420 C   0  0  0  0  0  3  0  0  0  0  0  0
  185.5270  178.1720  143.7980 C   0  0  0  0  0  0  0  0  0  0  0  0
  186.8140  177.7330  143.9860 C   0  0  0  0  0  0  0  0  0  0  0  0
  187.0530  177.8180  145.3630 C   0  0  2  0  0  3  0  0  0  0  0  0
  184.9890  178.5430  145.0650 C   0  0  0  0  0  0  0  0  0  0  0  0
  183.6860  179.0030  145.1340 C   0  0  0  0  0  3  0  0  0  0  0  0
  182.9780  179.0790  143.9670 N   0  0  0  0  0  0  0  0  0  0  0  0
  183.5110  178.7120  142.7570 C   0  0  0  0  0  3  0  0  0  0  0  0
  184.7950  178.2490  142.6630 N   0  0  0  0  0  0  0  0  0  0  0  0
  187.7200  177.1560  142.9420 C   0  0  1  0  0  3  0  0  0  0  0  0
  188.0180  178.2040  141.8820 C   0  0  1  0  0  3  0  0  0  0  0  0
  189.0550  177.8790  142.9330 C   0  0  0  0  0  2  0  0  0  0  0  0
  188.3700  177.4990  140.5900 C   0  0  0  0  0  2  0  0  0  0  0  0
  189.5010  178.2410  139.9030 C   0  0  0  0  0  2  0  0  0  0  0  0
  190.1060  176.9130  136.3860 C   0  0  0  0  0  3  0  0  0  0  0  0
  191.3970  175.6060  137.9610 C   0  0  0  0  0  3  0  0  0  0  0  0
  190.9080  176.3870  139.0100 C   0  0  0  0  0  3  0  0  0  0  0  0
  189.6120  177.6990  137.4310 C   0  0  0  0  0  0  0  0  0  0  0  0
  190.0190  177.4380  138.7550 C   0  0  0  0  0  0  0  0  0  0  0  0
  188.6620  178.8050  137.1120 C   0  0  0  0  0  1  0  0  0  0  0  0
  190.9970  175.8690  136.6490 C   0  0  0  0  0  3  0  0  0  0  0  0
  188.3030  177.3700  146.0480 C   0  0  0  0  0  2  0  0  0  0  0  0
  188.3040  177.7950  147.5060 C   0  0  0  0  0  2  0  0  0  0  0  0
  189.6360  177.6520  148.0680 N   0  0  0  0  0  2  0  0  0  0  0  0
  190.4570  177.1740  147.0420 N   0  0  0  0  0  2  0  0  0  0  0  0
  191.5520  176.3580  147.3450 C   0  0  0  0  0  0  0  0  0  0  0  0
  192.4580  175.6830  147.5960 N   0  0  0  0  0  0  0  0  0  0  0  0
  2  3  2  0  0  0  0
  2  5  1  0  0  0  0
  3  4  1  0  0  0  0
  4  1  1  0  0  0  0
  4 22  1  1  0  0  0
  5  6  1  0  0  0  0
  5  1  2  0  0  0  0
  7  6  2  0  0  0  0
  8  7  1  0  0  0  0
  9  8  2  0  0  0  0
  9  2  1  0  0  0  0
 10  3  1  1  0  0  0
 11 13  1  6  0  0  0
 11 12  1  0  0  0  0
 11 10  1  0  0  0  0
 12 10  1  0  0  0  0
 14 13  1  0  0  0  0
 15 21  2  0  0  0  0
 15 18  1  0  0  0  0
 16 17  2  0  0  0  0
 18 19  2  0  0  0  0
 19 17  1  0  0  0  0
 19 14  1  0  0  0  0
 20 18  1  0  0  0  0
 21 16  1  0  0  0  0
 22 23  1  0  0  0  0
 23 24  1  0  0  0  0
 25 26  1  0  0  0  0
 25 24  1  0  0  0  0
 26 27  3  0  0  0  0
M  END
>  <MODEL>
9

>  <REMARK>
 VINA RESULT:      -7.7      2.559      7.329
  Name = 
  9 active torsions:
  status: ('A' for Active; 'I' for Inactive)
    1  A    between atoms: C_1  and  N_10
    2  A    between atoms: C_5  and  C_12
    3  A    between atoms: C_5  and  C_19
    4  A    between atoms: C_6  and  N_14
    5  A    between atoms: C_6  and  C_26
    6  A    between atoms: C_8  and  C_15
    7  A    between atoms: N_10  and  N_14
    8  A    between atoms: C_11  and  C_26
    9  A    between atoms: C_12  and  C_20
                            x       y       z     vdW  Elec       q    Type
                         _______ _______ _______ _____ _____    ______ ____

>  <TORSDO>
F 9

$$$$
