=
 OpenBabel11032420163D

 28 30  0  0  1  0  0  0  0  0999 V2000
  187.2280  177.6090  145.3900 C   0  0  0  0  0  3  0  0  0  0  0  0
  186.7410  177.5690  144.0780 C   0  0  0  0  0  0  0  0  0  0  0  0
  186.4850  178.2240  146.3990 C   0  0  0  0  0  3  0  0  0  0  0  0
  185.4960  178.1480  143.7710 C   0  0  0  0  0  0  0  0  0  0  0  0
  185.2500  178.8020  146.1010 C   0  0  0  0  0  3  0  0  0  0  0  0
  184.7590  178.7650  144.7940 C   0  0  0  0  0  3  0  0  0  0  0  0
  186.1540  179.9470  141.5250 O   0  0  0  0  0  0  0  0  0  0  0  0
  185.3430  178.9960  141.3520 C   0  0  0  0  0  0  0  0  0  0  0  0
  185.0080  178.1030  142.4210 N   0  0  0  0  0  2  0  0  0  0  0  0
  184.7430  178.7630  140.0040 C   0  0  1  0  0  3  0  0  0  0  0  0
  184.4980  180.0370  139.3470 N   0  0  0  0  0  1  0  0  0  0  0  0
  184.9710  177.4670  138.0020 O   0  0  0  0  0  1  0  0  0  0  0  0
  185.6550  177.8900  139.1440 C   0  0  1  0  0  3  0  0  0  0  0  0
  186.7880  178.6130  138.7590 O   0  0  0  0  0  0  0  0  0  0  0  0
  189.0250  178.4330  139.5810 C   0  0  0  0  0  2  0  0  0  0  0  0
  188.2930  177.2150  137.5310 C   0  0  0  0  0  2  0  0  0  0  0  0
  190.5580  177.0150  138.2190 C   0  0  0  0  0  2  0  0  0  0  0  0
  190.2420  177.5140  139.6270 C   0  0  0  0  0  2  0  0  0  0  0  0
  187.8540  177.7240  138.9050 C   0  0  2  0  0  3  0  0  0  0  0  0
  189.4130  176.2860  137.6750 N   0  0  0  0  0  2  0  0  0  0  0  0
  187.7320  176.7690  142.8110 S   0  0  0  0  0  0  0  0  0  0  0  0
  190.0300  176.4800  144.3270 C   0  0  0  0  0  3  0  0  0  0  0  0
  189.7300  178.6320  143.2550 C   0  0  0  0  0  3  0  0  0  0  0  0
  190.9350  179.0760  143.8070 C   0  0  0  0  0  3  0  0  0  0  0  0
  191.2360  176.9240  144.8790 C   0  0  0  0  0  0  0  0  0  0  0  0
  191.6880  178.2220  144.6200 C   0  0  0  0  0  3  0  0  0  0  0  0
  189.2740  177.3350  143.5180 C   0  0  0  0  0  0  0  0  0  0  0  0
  191.9840  176.0760  145.6840 O   0  0  0  0  0  1  0  0  0  0  0  0
  1  3  1  0  0  0  0
  2  1  2  0  0  0  0
  4  2  1  0  0  0  0
  4  6  2  0  0  0  0
  5  3  2  0  0  0  0
  6  5  1  0  0  0  0
  8  7  2  0  0  0  0
  8  9  1  0  0  0  0
  9  4  1  0  0  0  0
 10 11  1  6  0  0  0
 10  8  1  0  0  0  0
 13 12  1  6  0  0  0
 13 10  1  0  0  0  0
 14 13  1  0  0  0  0
 15 18  1  0  0  0  0
 16 20  1  0  0  0  0
 16 19  1  0  0  0  0
 17 18  1  0  0  0  0
 19 14  1  6  0  0  0
 19 15  1  0  0  0  0
 20 17  1  0  0  0  0
 21 27  1  0  0  0  0
 21  2  1  0  0  0  0
 22 25  1  0  0  0  0
 23 27  1  0  0  0  0
 23 24  2  0  0  0  0
 24 26  1  0  0  0  0
 25 28  1  0  0  0  0
 26 25  2  0  0  0  0
 27 22  2  0  0  0  0
M  END
>  <MODEL>
1

>  <REMARK>
 VINA RESULT:      -7.9      0.000      0.000
  Name = 
  7 active torsions:
  status: ('A' for Active; 'I' for Inactive)
    1  A    between atoms: O_1  and  C_15
    2  A    between atoms: O_1  and  C_25
    3  A    between atoms: C_9  and  S_18
    4  A    between atoms: C_11  and  C_23
    5  A    between atoms: C_11  and  C_25
    6  A    between atoms: C_16  and  N_24
    7  A    between atoms: S_18  and  C_22
                            x       y       z     vdW  Elec       q    Type
                         _______ _______ _______ _____ _____    ______ ____

>  <TORSDO>
F 7

$$$$
=
 OpenBabel11032420163D

 28 30  0  0  1  0  0  0  0  0999 V2000
  189.8730  177.0960  145.1500 C   0  0  0  0  0  3  0  0  0  0  0  0
  189.2910  177.1870  143.8800 C   0  0  0  0  0  0  0  0  0  0  0  0
  190.9980  177.8600  145.4650 C   0  0  0  0  0  3  0  0  0  0  0  0
  189.8370  178.0520  142.9150 C   0  0  0  0  0  0  0  0  0  0  0  0
  191.5460  178.7200  144.5120 C   0  0  0  0  0  3  0  0  0  0  0  0
  190.9690  178.8150  143.2440 C   0  0  0  0  0  3  0  0  0  0  0  0
  190.3510  176.3690  140.5460 O   0  0  0  0  0  0  0  0  0  0  0  0
  189.5070  177.3050  140.4800 C   0  0  0  0  0  0  0  0  0  0  0  0
  189.2320  178.1350  141.6150 N   0  0  0  0  0  2  0  0  0  0  0  0
  188.7470  177.5380  139.2160 C   0  0  1  0  0  3  0  0  0  0  0  0
  188.9570  178.9020  138.7600 N   0  0  0  0  0  1  0  0  0  0  0  0
  188.0600  176.1610  137.3800 O   0  0  0  0  0  1  0  0  0  0  0  0
  189.1710  176.5460  138.1330 C   0  0  1  0  0  3  0  0  0  0  0  0
  190.1160  177.1350  137.2880 O   0  0  0  0  0  0  0  0  0  0  0  0
  192.3780  176.4840  137.7090 C   0  0  0  0  0  2  0  0  0  0  0  0
  191.2700  175.9930  135.5290 C   0  0  0  0  0  2  0  0  0  0  0  0
  193.5420  175.3600  135.8130 C   0  0  0  0  0  2  0  0  0  0  0  0
  193.4480  175.4640  137.3330 C   0  0  0  0  0  2  0  0  0  0  0  0
  191.0540  176.1300  137.0360 C   0  0  2  0  0  3  0  0  0  0  0  0
  192.2540  174.9460  135.2580 N   0  0  0  0  0  2  0  0  0  0  0  0
  187.8460  176.1830  143.5170 S   0  0  0  0  0  0  0  0  0  0  0  0
  186.5870  177.8070  145.3730 C   0  0  0  0  0  3  0  0  0  0  0  0
  185.9340  178.1320  143.0630 C   0  0  0  0  0  3  0  0  0  0  0  0
  185.0420  179.1340  143.4560 C   0  0  0  0  0  3  0  0  0  0  0  0
  185.6940  178.8090  145.7650 C   0  0  0  0  0  0  0  0  0  0  0  0
  184.9210  179.4720  144.8070 C   0  0  0  0  0  3  0  0  0  0  0  0
  186.7040  177.4650  144.0220 C   0  0  0  0  0  0  0  0  0  0  0  0
  185.5760  179.1460  147.1070 O   0  0  0  0  0  1  0  0  0  0  0  0
  1  3  1  0  0  0  0
  2  1  2  0  0  0  0
  4  6  2  0  0  0  0
  4  2  1  0  0  0  0
  5  3  2  0  0  0  0
  6  5  1  0  0  0  0
  8  7  2  0  0  0  0
  8  9  1  0  0  0  0
  9  4  1  0  0  0  0
 10 11  1  6  0  0  0
 10  8  1  0  0  0  0
 13 12  1  6  0  0  0
 13 10  1  0  0  0  0
 14 13  1  0  0  0  0
 16 19  1  0  0  0  0
 17 18  1  0  0  0  0
 18 15  1  0  0  0  0
 19 14  1  6  0  0  0
 19 15  1  0  0  0  0
 20 16  1  0  0  0  0
 20 17  1  0  0  0  0
 21  2  1  0  0  0  0
 21 27  1  0  0  0  0
 22 25  1  0  0  0  0
 23 24  2  0  0  0  0
 23 27  1  0  0  0  0
 24 26  1  0  0  0  0
 25 28  1  0  0  0  0
 26 25  2  0  0  0  0
 27 22  2  0  0  0  0
M  END
>  <MODEL>
2

>  <REMARK>
 VINA RESULT:      -7.5      2.508      4.629
  Name = 
  7 active torsions:
  status: ('A' for Active; 'I' for Inactive)
    1  A    between atoms: O_1  and  C_15
    2  A    between atoms: O_1  and  C_25
    3  A    between atoms: C_9  and  S_18
    4  A    between atoms: C_11  and  C_23
    5  A    between atoms: C_11  and  C_25
    6  A    between atoms: C_16  and  N_24
    7  A    between atoms: S_18  and  C_22
                            x       y       z     vdW  Elec       q    Type
                         _______ _______ _______ _____ _____    ______ ____

>  <TORSDO>
F 7

$$$$
=
 OpenBabel11032420163D

 28 30  0  0  1  0  0  0  0  0999 V2000
  189.6380  177.5280  144.9860 C   0  0  0  0  0  3  0  0  0  0  0  0
  189.1440  177.2330  143.7100 C   0  0  0  0  0  0  0  0  0  0  0  0
  190.7560  178.3510  145.1350 C   0  0  0  0  0  3  0  0  0  0  0  0
  189.7720  177.7670  142.5700 C   0  0  0  0  0  0  0  0  0  0  0  0
  191.3850  178.8830  144.0090 C   0  0  0  0  0  3  0  0  0  0  0  0
  190.8960  178.5920  142.7330 C   0  0  0  0  0  3  0  0  0  0  0  0
  188.0210  179.4100  140.8540 O   0  0  0  0  0  0  0  0  0  0  0  0
  188.4010  178.2740  140.4580 C   0  0  0  0  0  0  0  0  0  0  0  0
  189.2570  177.4550  141.2660 N   0  0  0  0  0  2  0  0  0  0  0  0
  187.9920  177.7760  139.1100 C   0  0  1  0  0  3  0  0  0  0  0  0
  186.7130  178.3590  138.7380 N   0  0  0  0  0  1  0  0  0  0  0  0
  189.0080  179.4720  137.7570 O   0  0  0  0  0  1  0  0  0  0  0  0
  189.0520  178.1090  138.0610 C   0  0  1  0  0  3  0  0  0  0  0  0
  190.3240  177.7880  138.5460 O   0  0  0  0  0  0  0  0  0  0  0  0
  192.0910  176.2120  138.2150 C   0  0  0  0  0  2  0  0  0  0  0  0
  190.3070  176.5400  136.5030 C   0  0  0  0  0  2  0  0  0  0  0  0
  192.0500  174.9960  136.0390 C   0  0  0  0  0  2  0  0  0  0  0  0
  192.4520  174.9090  137.5090 C   0  0  0  0  0  2  0  0  0  0  0  0
  190.6140  176.5350  138.0010 C   0  0  2  0  0  3  0  0  0  0  0  0
  190.6120  175.2330  135.9250 N   0  0  0  0  0  2  0  0  0  0  0  0
  187.7050  176.1680  143.5650 S   0  0  0  0  0  0  0  0  0  0  0  0
  186.4380  177.8050  145.4030 C   0  0  0  0  0  3  0  0  0  0  0  0
  185.8250  178.1420  143.0830 C   0  0  0  0  0  3  0  0  0  0  0  0
  184.9400  179.1550  143.4640 C   0  0  0  0  0  3  0  0  0  0  0  0
  185.5520  178.8180  145.7830 C   0  0  0  0  0  0  0  0  0  0  0  0
  184.8020  179.4920  144.8140 C   0  0  0  0  0  3  0  0  0  0  0  0
  186.5720  177.4640  144.0530 C   0  0  0  0  0  0  0  0  0  0  0  0
  185.4160  179.1550  147.1230 O   0  0  0  0  0  1  0  0  0  0  0  0
  1  3  1  0  0  0  0
  2  1  2  0  0  0  0
  4  6  2  0  0  0  0
  4  2  1  0  0  0  0
  5  3  2  0  0  0  0
  6  5  1  0  0  0  0
  8  7  2  0  0  0  0
  8  9  1  0  0  0  0
  9  4  1  0  0  0  0
 10 11  1  6  0  0  0
 10  8  1  0  0  0  0
 13 12  1  1  0  0  0
 13 14  1  0  0  0  0
 13 10  1  0  0  0  0
 16 19  1  0  0  0  0
 17 18  1  0  0  0  0
 18 15  1  0  0  0  0
 19 15  1  0  0  0  0
 19 14  1  6  0  0  0
 20 17  1  0  0  0  0
 20 16  1  0  0  0  0
 21  2  1  0  0  0  0
 21 27  1  0  0  0  0
 22 25  1  0  0  0  0
 23 24  2  0  0  0  0
 23 27  1  0  0  0  0
 24 26  1  0  0  0  0
 25 28  1  0  0  0  0
 26 25  2  0  0  0  0
 27 22  2  0  0  0  0
M  END
>  <MODEL>
3

>  <REMARK>
 VINA RESULT:      -7.2      2.311      4.301
  Name = 
  7 active torsions:
  status: ('A' for Active; 'I' for Inactive)
    1  A    between atoms: O_1  and  C_15
    2  A    between atoms: O_1  and  C_25
    3  A    between atoms: C_9  and  S_18
    4  A    between atoms: C_11  and  C_23
    5  A    between atoms: C_11  and  C_25
    6  A    between atoms: C_16  and  N_24
    7  A    between atoms: S_18  and  C_22
                            x       y       z     vdW  Elec       q    Type
                         _______ _______ _______ _____ _____    ______ ____

>  <TORSDO>
F 7

$$$$
=
 OpenBabel11032420163D

 28 30  0  0  1  0  0  0  0  0999 V2000
  183.4380  178.9420  142.9290 C   0  0  0  0  0  3  0  0  0  0  0  0
  184.6680  178.7230  142.3000 C   0  0  0  0  0  0  0  0  0  0  0  0
  183.3280  178.8340  144.3170 C   0  0  0  0  0  3  0  0  0  0  0  0
  185.8020  178.3930  143.0640 C   0  0  0  0  0  0  0  0  0  0  0  0
  184.4480  178.5060  145.0810 C   0  0  0  0  0  3  0  0  0  0  0  0
  185.6790  178.2860  144.4580 C   0  0  0  0  0  3  0  0  0  0  0  0
  187.5580  176.0270  143.2310 O   0  0  0  0  0  0  0  0  0  0  0  0
  187.8930  177.0080  142.5120 C   0  0  0  0  0  0  0  0  0  0  0  0
  187.0580  178.1680  142.4050 N   0  0  0  0  0  2  0  0  0  0  0  0
  189.1590  176.9570  141.7210 C   0  0  1  0  0  3  0  0  0  0  0  0
  189.2090  178.0800  140.7990 N   0  0  0  0  0  1  0  0  0  0  0  0
  191.5140  177.3510  141.9200 O   0  0  0  0  0  1  0  0  0  0  0  0
  190.3790  176.9720  142.6410 C   0  0  1  0  0  3  0  0  0  0  0  0
  190.1780  177.8760  143.6880 O   0  0  0  0  0  0  0  0  0  0  0  0
  189.3060  177.5930  145.8960 C   0  0  0  0  0  2  0  0  0  0  0  0
  191.7310  177.2770  145.4080 C   0  0  0  0  0  2  0  0  0  0  0  0
  190.9870  177.0360  147.6500 C   0  0  0  0  0  2  0  0  0  0  0  0
  189.5320  176.8650  147.2180 C   0  0  0  0  0  2  0  0  0  0  0  0
  190.3150  177.1180  144.8540 C   0  0  2  0  0  3  0  0  0  0  0  0
  191.8810  176.4900  146.6310 N   0  0  0  0  0  2  0  0  0  0  0  0
  184.7630  178.8700  140.5120 S   0  0  0  0  0  0  0  0  0  0  0  0
  182.7970  176.9730  140.0680 C   0  0  0  0  0  3  0  0  0  0  0  0
  182.0300  179.2580  140.3100 C   0  0  0  0  0  3  0  0  0  0  0  0
  180.7100  178.8350  140.1260 C   0  0  0  0  0  3  0  0  0  0  0  0
  181.4770  176.5500  139.8850 C   0  0  0  0  0  0  0  0  0  0  0  0
  180.4340  177.4810  139.9130 C   0  0  0  0  0  3  0  0  0  0  0  0
  183.0750  178.3280  140.2770 C   0  0  0  0  0  0  0  0  0  0  0  0
  181.2010  175.2060  139.6740 O   0  0  0  0  0  1  0  0  0  0  0  0
  1  3  1  0  0  0  0
  2  1  2  0  0  0  0
  2  4  1  0  0  0  0
  3  5  2  0  0  0  0
  4  6  2  0  0  0  0
  6  5  1  0  0  0  0
  8  7  2  0  0  0  0
  9  8  1  0  0  0  0
  9  4  1  0  0  0  0
 10 11  1  6  0  0  0
 10  8  1  0  0  0  0
 10 13  1  0  0  0  0
 13 12  1  6  0  0  0
 13 14  1  0  0  0  0
 15 18  1  0  0  0  0
 16 20  1  0  0  0  0
 18 17  1  0  0  0  0
 19 14  1  6  0  0  0
 19 16  1  0  0  0  0
 19 15  1  0  0  0  0
 20 17  1  0  0  0  0
 21  2  1  0  0  0  0
 22 27  1  0  0  0  0
 24 23  1  0  0  0  0
 25 26  1  0  0  0  0
 25 22  2  0  0  0  0
 26 24  2  0  0  0  0
 27 23  2  0  0  0  0
 27 21  1  0  0  0  0
 28 25  1  0  0  0  0
M  END
>  <MODEL>
4

>  <REMARK>
 VINA RESULT:      -7.0      3.177      7.092
  Name = 
  7 active torsions:
  status: ('A' for Active; 'I' for Inactive)
    1  A    between atoms: O_1  and  C_15
    2  A    between atoms: O_1  and  C_25
    3  A    between atoms: C_9  and  S_18
    4  A    between atoms: C_11  and  C_23
    5  A    between atoms: C_11  and  C_25
    6  A    between atoms: C_16  and  N_24
    7  A    between atoms: S_18  and  C_22
                            x       y       z     vdW  Elec       q    Type
                         _______ _______ _______ _____ _____    ______ ____

>  <TORSDO>
F 7

$$$$
=
 OpenBabel11032420163D

 28 30  0  0  1  0  0  0  0  0999 V2000
  189.8090  177.2630  145.0560 C   0  0  0  0  0  3  0  0  0  0  0  0
  189.4440  177.2140  143.7060 C   0  0  0  0  0  0  0  0  0  0  0  0
  190.9860  177.9060  145.4450 C   0  0  0  0  0  3  0  0  0  0  0  0
  190.2620  177.8160  142.7330 C   0  0  0  0  0  0  0  0  0  0  0  0
  191.8040  178.5040  144.4840 C   0  0  0  0  0  3  0  0  0  0  0  0
  191.4430  178.4580  143.1350 C   0  0  0  0  0  3  0  0  0  0  0  0
  191.9630  177.2870  140.3800 O   0  0  0  0  0  0  0  0  0  0  0  0
  190.7300  177.5030  140.2270 C   0  0  0  0  0  0  0  0  0  0  0  0
  189.8770  177.7560  141.3500 N   0  0  0  0  0  2  0  0  0  0  0  0
  190.1270  177.4580  138.8610 C   0  0  1  0  0  3  0  0  0  0  0  0
  189.8530  176.0790  138.4890 N   0  0  0  0  0  1  0  0  0  0  0  0
  189.0550  179.4320  138.0280 O   0  0  0  0  0  1  0  0  0  0  0  0
  188.8460  178.2880  138.8020 C   0  0  1  0  0  3  0  0  0  0  0  0
  187.8120  177.5350  138.2370 O   0  0  0  0  0  0  0  0  0  0  0  0
  186.4440  178.3380  140.0260 C   0  0  0  0  0  2  0  0  0  0  0  0
  185.4460  177.5500  137.8800 C   0  0  0  0  0  2  0  0  0  0  0  0
  183.9870  178.2640  139.6130 C   0  0  0  0  0  2  0  0  0  0  0  0
  185.1080  179.0020  140.3410 C   0  0  0  0  0  2  0  0  0  0  0  0
  186.6470  178.2520  138.5140 C   0  0  2  0  0  3  0  0  0  0  0  0
  184.2210  178.2930  138.1700 N   0  0  0  0  0  2  0  0  0  0  0  0
  187.9220  176.3750  143.2520 S   0  0  0  0  0  0  0  0  0  0  0  0
  185.8870  178.1770  143.7780 C   0  0  0  0  0  3  0  0  0  0  0  0
  187.1610  177.4250  145.6970 C   0  0  0  0  0  3  0  0  0  0  0  0
  186.3770  178.2280  146.5310 C   0  0  0  0  0  3  0  0  0  0  0  0
  185.1040  178.9790  144.6130 C   0  0  0  0  0  0  0  0  0  0  0  0
  185.3490  179.0050  145.9890 C   0  0  0  0  0  3  0  0  0  0  0  0
  186.9190  177.4020  144.3190 C   0  0  0  0  0  0  0  0  0  0  0  0
  184.0820  179.7500  144.0750 O   0  0  0  0  0  1  0  0  0  0  0  0
  1  3  1  0  0  0  0
  2  1  2  0  0  0  0
  4  6  2  0  0  0  0
  4  2  1  0  0  0  0
  5  3  2  0  0  0  0
  6  5  1  0  0  0  0
  8  7  2  0  0  0  0
  8  9  1  0  0  0  0
  9  4  1  0  0  0  0
 10 11  1  1  0  0  0
 10  8  1  0  0  0  0
 13 12  1  6  0  0  0
 13 10  1  0  0  0  0
 14 13  1  0  0  0  0
 15 18  1  0  0  0  0
 16 20  1  0  0  0  0
 16 19  1  0  0  0  0
 17 18  1  0  0  0  0
 19 14  1  1  0  0  0
 19 15  1  0  0  0  0
 20 17  1  0  0  0  0
 21  2  1  0  0  0  0
 21 27  1  0  0  0  0
 22 27  2  0  0  0  0
 22 25  1  0  0  0  0
 23 24  2  0  0  0  0
 25 26  2  0  0  0  0
 26 24  1  0  0  0  0
 27 23  1  0  0  0  0
 28 25  1  0  0  0  0
M  END
>  <MODEL>
5

>  <REMARK>
 VINA RESULT:      -7.0      1.799      5.071
  Name = 
  7 active torsions:
  status: ('A' for Active; 'I' for Inactive)
    1  A    between atoms: O_1  and  C_15
    2  A    between atoms: O_1  and  C_25
    3  A    between atoms: C_9  and  S_18
    4  A    between atoms: C_11  and  C_23
    5  A    between atoms: C_11  and  C_25
    6  A    between atoms: C_16  and  N_24
    7  A    between atoms: S_18  and  C_22
                            x       y       z     vdW  Elec       q    Type
                         _______ _______ _______ _____ _____    ______ ____

>  <TORSDO>
F 7

$$$$
=
 OpenBabel11032420163D

 28 30  0  0  1  0  0  0  0  0999 V2000
  184.6900  179.2630  143.3330 C   0  0  0  0  0  3  0  0  0  0  0  0
  185.8570  178.6550  142.8540 C   0  0  0  0  0  0  0  0  0  0  0  0
  184.3120  179.1060  144.6670 C   0  0  0  0  0  3  0  0  0  0  0  0
  186.6550  177.8830  143.7170 C   0  0  0  0  0  0  0  0  0  0  0  0
  185.0980  178.3410  145.5300 C   0  0  0  0  0  3  0  0  0  0  0  0
  186.2640  177.7330  145.0570 C   0  0  0  0  0  3  0  0  0  0  0  0
  189.4480  178.3350  144.5580 O   0  0  0  0  0  0  0  0  0  0  0  0
  189.1950  177.5090  143.6390 C   0  0  0  0  0  0  0  0  0  0  0  0
  187.8480  177.2630  143.2130 N   0  0  0  0  0  2  0  0  0  0  0  0
  190.3040  176.7370  143.0010 C   0  0  1  0  0  3  0  0  0  0  0  0
  189.9440  175.3300  142.9260 N   0  0  0  0  0  1  0  0  0  0  0  0
  191.9850  177.5280  141.4900 O   0  0  0  0  0  1  0  0  0  0  0  0
  190.6150  177.2800  141.6080 C   0  0  1  0  0  3  0  0  0  0  0  0
  190.2320  176.3520  140.6350 O   0  0  0  0  0  0  0  0  0  0  0  0
  189.1880  177.8950  139.1350 C   0  0  0  0  0  2  0  0  0  0  0  0
  190.5580  175.9880  138.2920 C   0  0  0  0  0  2  0  0  0  0  0  0
  189.5120  177.4190  136.7100 C   0  0  0  0  0  2  0  0  0  0  0  0
  189.3000  178.5190  137.7480 C   0  0  0  0  0  2  0  0  0  0  0  0
  190.4030  177.0130  139.4160 C   0  0  2  0  0  3  0  0  0  0  0  0
  190.7330  176.6730  137.0120 N   0  0  0  0  0  2  0  0  0  0  0  0
  186.3040  178.8810  141.1290 S   0  0  0  0  0  0  0  0  0  0  0  0
  184.0810  179.6260  139.6560 C   0  0  0  0  0  3  0  0  0  0  0  0
  183.8320  177.6410  141.0230 C   0  0  0  0  0  3  0  0  0  0  0  0
  182.5120  177.5030  140.5820 C   0  0  0  0  0  3  0  0  0  0  0  0
  182.7610  179.4870  139.2160 C   0  0  0  0  0  0  0  0  0  0  0  0
  181.9770  178.4270  139.6790 C   0  0  0  0  0  3  0  0  0  0  0  0
  184.6160  178.7050  140.5630 C   0  0  0  0  0  0  0  0  0  0  0  0
  182.2300  180.4030  138.3180 O   0  0  0  0  0  1  0  0  0  0  0  0
  1  3  1  0  0  0  0
  2  1  2  0  0  0  0
  2  4  1  0  0  0  0
  3  5  2  0  0  0  0
  4  6  2  0  0  0  0
  6  5  1  0  0  0  0
  8  7  2  0  0  0  0
  9  8  1  0  0  0  0
  9  4  1  0  0  0  0
 10 11  1  6  0  0  0
 10  8  1  0  0  0  0
 13 12  1  1  0  0  0
 13 10  1  0  0  0  0
 14 13  1  0  0  0  0
 15 19  1  0  0  0  0
 16 19  1  0  0  0  0
 17 20  1  0  0  0  0
 17 18  1  0  0  0  0
 18 15  1  0  0  0  0
 19 14  1  1  0  0  0
 20 16  1  0  0  0  0
 21  2  1  0  0  0  0
 22 27  1  0  0  0  0
 24 23  1  0  0  0  0
 25 22  2  0  0  0  0
 25 26  1  0  0  0  0
 26 24  2  0  0  0  0
 27 23  2  0  0  0  0
 27 21  1  0  0  0  0
 28 25  1  0  0  0  0
M  END
>  <MODEL>
6

>  <REMARK>
 VINA RESULT:      -6.8      2.422      5.866
  Name = 
  7 active torsions:
  status: ('A' for Active; 'I' for Inactive)
    1  A    between atoms: O_1  and  C_15
    2  A    between atoms: O_1  and  C_25
    3  A    between atoms: C_9  and  S_18
    4  A    between atoms: C_11  and  C_23
    5  A    between atoms: C_11  and  C_25
    6  A    between atoms: C_16  and  N_24
    7  A    between atoms: S_18  and  C_22
                            x       y       z     vdW  Elec       q    Type
                         _______ _______ _______ _____ _____    ______ ____

>  <TORSDO>
F 7

$$$$
=
 OpenBabel11032420163D

 28 30  0  0  1  0  0  0  0  0999 V2000
  189.5370  177.6340  145.0280 C   0  0  0  0  0  3  0  0  0  0  0  0
  189.3220  177.3500  143.6740 C   0  0  0  0  0  0  0  0  0  0  0  0
  190.6100  178.4380  145.4170 C   0  0  0  0  0  3  0  0  0  0  0  0
  190.1870  177.8770  142.6980 C   0  0  0  0  0  0  0  0  0  0  0  0
  191.4730  178.9630  144.4540 C   0  0  0  0  0  3  0  0  0  0  0  0
  191.2620  178.6830  143.1020 C   0  0  0  0  0  3  0  0  0  0  0  0
  192.1770  177.5020  140.5510 O   0  0  0  0  0  0  0  0  0  0  0  0
  190.9470  177.4060  140.2900 C   0  0  0  0  0  0  0  0  0  0  0  0
  189.9570  177.5760  141.3130 N   0  0  0  0  0  2  0  0  0  0  0  0
  190.5010  177.0700  138.9050 C   0  0  1  0  0  3  0  0  0  0  0  0
  190.5610  175.6310  138.7040 N   0  0  0  0  0  1  0  0  0  0  0  0
  189.0600  178.9760  138.7310 O   0  0  0  0  0  1  0  0  0  0  0  0
  189.0840  177.5820  138.6480 C   0  0  1  0  0  3  0  0  0  0  0  0
  188.6560  177.1910  137.3760 O   0  0  0  0  0  0  0  0  0  0  0  0
  187.2710  175.3060  136.8770 C   0  0  0  0  0  2  0  0  0  0  0  0
  186.3330  177.6140  136.9860 C   0  0  0  0  0  2  0  0  0  0  0  0
  184.8780  175.8260  136.4160 C   0  0  0  0  0  2  0  0  0  0  0  0
  185.8430  174.7790  136.9680 C   0  0  0  0  0  2  0  0  0  0  0  0
  187.3770  176.6630  137.5700 C   0  0  2  0  0  3  0  0  0  0  0  0
  184.9910  177.0660  137.1810 N   0  0  0  0  0  2  0  0  0  0  0  0
  187.9310  176.3090  143.2200 S   0  0  0  0  0  0  0  0  0  0  0  0
  186.4380  177.6170  145.1490 C   0  0  0  0  0  3  0  0  0  0  0  0
  186.0710  178.3260  142.8610 C   0  0  0  0  0  3  0  0  0  0  0  0
  185.1270  179.2590  143.3020 C   0  0  0  0  0  3  0  0  0  0  0  0
  185.4940  178.5500  145.5890 C   0  0  0  0  0  0  0  0  0  0  0  0
  184.8380  179.3710  144.6660 C   0  0  0  0  0  3  0  0  0  0  0  0
  186.7240  177.5020  143.7850 C   0  0  0  0  0  0  0  0  0  0  0  0
  185.2080  178.6620  146.9430 O   0  0  0  0  0  1  0  0  0  0  0  0
  1  3  1  0  0  0  0
  2  1  2  0  0  0  0
  4  6  2  0  0  0  0
  4  2  1  0  0  0  0
  5  3  2  0  0  0  0
  6  5  1  0  0  0  0
  8  7  2  0  0  0  0
  8  9  1  0  0  0  0
  9  4  1  0  0  0  0
 10 11  1  1  0  0  0
 10  8  1  0  0  0  0
 13 12  1  6  0  0  0
 13 10  1  0  0  0  0
 14 13  1  0  0  0  0
 15 18  1  0  0  0  0
 15 19  1  0  0  0  0
 16 20  1  0  0  0  0
 16 19  1  0  0  0  0
 17 18  1  0  0  0  0
 17 20  1  0  0  0  0
 19 14  1  6  0  0  0
 21  2  1  0  0  0  0
 21 27  1  0  0  0  0
 22 25  1  0  0  0  0
 23 24  2  0  0  0  0
 23 27  1  0  0  0  0
 24 26  1  0  0  0  0
 25 28  1  0  0  0  0
 26 25  2  0  0  0  0
 27 22  2  0  0  0  0
M  END
>  <MODEL>
7

>  <REMARK>
 VINA RESULT:      -6.8      2.346      5.015
  Name = 
  7 active torsions:
  status: ('A' for Active; 'I' for Inactive)
    1  A    between atoms: O_1  and  C_15
    2  A    between atoms: O_1  and  C_25
    3  A    between atoms: C_9  and  S_18
    4  A    between atoms: C_11  and  C_23
    5  A    between atoms: C_11  and  C_25
    6  A    between atoms: C_16  and  N_24
    7  A    between atoms: S_18  and  C_22
                            x       y       z     vdW  Elec       q    Type
                         _______ _______ _______ _____ _____    ______ ____

>  <TORSDO>
F 7

$$$$
=
 OpenBabel11032420163D

 28 30  0  0  1  0  0  0  0  0999 V2000
  189.9730  176.9810  145.2630 C   0  0  0  0  0  3  0  0  0  0  0  0
  189.2630  177.1950  144.0760 C   0  0  0  0  0  0  0  0  0  0  0  0
  191.2060  177.6020  145.4680 C   0  0  0  0  0  3  0  0  0  0  0  0
  189.7900  178.0390  143.0830 C   0  0  0  0  0  0  0  0  0  0  0  0
  191.7360  178.4400  144.4850 C   0  0  0  0  0  3  0  0  0  0  0  0
  191.0310  178.6570  143.2990 C   0  0  0  0  0  3  0  0  0  0  0  0
  189.9490  176.5180  140.5590 O   0  0  0  0  0  0  0  0  0  0  0  0
  189.1570  177.4950  140.6540 C   0  0  0  0  0  0  0  0  0  0  0  0
  189.0520  178.2490  141.8680 N   0  0  0  0  0  2  0  0  0  0  0  0
  188.2780  177.8590  139.5020 C   0  0  1  0  0  3  0  0  0  0  0  0
  187.1430  178.6340  139.9750 N   0  0  0  0  0  1  0  0  0  0  0  0
  190.1120  177.8730  137.9620 O   0  0  0  0  0  1  0  0  0  0  0  0
  189.0560  178.6460  138.4490 C   0  0  1  0  0  3  0  0  0  0  0  0
  188.2130  178.9910  137.3890 O   0  0  0  0  0  0  0  0  0  0  0  0
  188.5150  177.7830  135.3470 C   0  0  0  0  0  2  0  0  0  0  0  0
  186.4010  177.6080  136.6590 C   0  0  0  0  0  2  0  0  0  0  0  0
  186.5650  176.4160  134.6120 C   0  0  0  0  0  2  0  0  0  0  0  0
  188.0880  176.5280  134.5940 C   0  0  0  0  0  2  0  0  0  0  0  0
  187.9170  177.7830  136.7520 C   0  0  2  0  0  3  0  0  0  0  0  0
  186.0830  176.3480  135.9900 N   0  0  0  0  0  2  0  0  0  0  0  0
  187.6800  176.3740  143.8550 S   0  0  0  0  0  0  0  0  0  0  0  0
  185.6320  177.9890  144.7830 C   0  0  0  0  0  3  0  0  0  0  0  0
  187.4580  177.5990  146.3270 C   0  0  0  0  0  3  0  0  0  0  0  0
  186.8220  178.3980  147.2820 C   0  0  0  0  0  3  0  0  0  0  0  0
  184.9960  178.7880  145.7380 C   0  0  0  0  0  0  0  0  0  0  0  0
  185.5910  178.9940  146.9870 C   0  0  0  0  0  3  0  0  0  0  0  0
  186.8650  177.3970  145.0760 C   0  0  0  0  0  0  0  0  0  0  0  0
  183.7740  179.3780  145.4470 O   0  0  0  0  0  1  0  0  0  0  0  0
  1  3  1  0  0  0  0
  2  1  2  0  0  0  0
  4  6  2  0  0  0  0
  4  2  1  0  0  0  0
  5  3  2  0  0  0  0
  6  5  1  0  0  0  0
  7  8  2  0  0  0  0
  8  9  1  0  0  0  0
  9  4  1  0  0  0  0
 10 11  1  1  0  0  0
 10  8  1  0  0  0  0
 13 12  1  6  0  0  0
 13 10  1  0  0  0  0
 14 13  1  0  0  0  0
 15 19  1  0  0  0  0
 16 19  1  0  0  0  0
 17 20  1  0  0  0  0
 18 17  1  0  0  0  0
 18 15  1  0  0  0  0
 19 14  1  6  0  0  0
 20 16  1  0  0  0  0
 21  2  1  0  0  0  0
 21 27  1  0  0  0  0
 22 27  2  0  0  0  0
 22 25  1  0  0  0  0
 23 24  2  0  0  0  0
 25 26  2  0  0  0  0
 26 24  1  0  0  0  0
 27 23  1  0  0  0  0
 28 25  1  0  0  0  0
M  END
>  <MODEL>
8

>  <REMARK>
 VINA RESULT:      -6.8      2.354      4.682
  Name = 
  7 active torsions:
  status: ('A' for Active; 'I' for Inactive)
    1  A    between atoms: O_1  and  C_15
    2  A    between atoms: O_1  and  C_25
    3  A    between atoms: C_9  and  S_18
    4  A    between atoms: C_11  and  C_23
    5  A    between atoms: C_11  and  C_25
    6  A    between atoms: C_16  and  N_24
    7  A    between atoms: S_18  and  C_22
                            x       y       z     vdW  Elec       q    Type
                         _______ _______ _______ _____ _____    ______ ____

>  <TORSDO>
F 7

$$$$
=
 OpenBabel11032420163D

 28 30  0  0  1  0  0  0  0  0999 V2000
  186.5040  178.6260  139.6720 C   0  0  0  0  0  3  0  0  0  0  0  0
  187.7290  178.3290  140.2820 C   0  0  0  0  0  0  0  0  0  0  0  0
  185.3510  178.7780  140.4450 C   0  0  0  0  0  3  0  0  0  0  0  0
  187.8030  178.1840  141.6790 C   0  0  0  0  0  0  0  0  0  0  0  0
  185.4170  178.6330  141.8310 C   0  0  0  0  0  3  0  0  0  0  0  0
  186.6370  178.3370  142.4450 C   0  0  0  0  0  3  0  0  0  0  0  0
  188.6950  175.6260  142.8510 O   0  0  0  0  0  0  0  0  0  0  0  0
  189.4670  176.6230  142.8590 C   0  0  0  0  0  0  0  0  0  0  0  0
  189.0650  177.8770  142.2920 N   0  0  0  0  0  2  0  0  0  0  0  0
  190.8420  176.4990  143.4310 C   0  0  1  0  0  3  0  0  0  0  0  0
  191.6470  177.6420  143.0290 N   0  0  0  0  0  1  0  0  0  0  0  0
  192.0560  176.0660  145.4500 O   0  0  0  0  0  1  0  0  0  0  0  0
  190.7920  176.3960  144.9540 C   0  0  1  0  0  3  0  0  0  0  0  0
  190.3870  177.6160  145.5050 O   0  0  0  0  0  0  0  0  0  0  0  0
  188.0300  177.9650  145.6970 C   0  0  0  0  0  2  0  0  0  0  0  0
  189.4900  177.8210  147.7140 C   0  0  0  0  0  2  0  0  0  0  0  0
  187.1720  178.2370  148.0210 C   0  0  0  0  0  2  0  0  0  0  0  0
  186.8310  177.7490  146.6160 C   0  0  0  0  0  2  0  0  0  0  0  0
  189.2740  177.3080  146.2900 C   0  0  2  0  0  3  0  0  0  0  0  0
  188.3260  177.5060  148.5410 N   0  0  0  0  0  2  0  0  0  0  0  0
  189.1860  178.1410  139.2480 S   0  0  0  0  0  0  0  0  0  0  0  0
  187.7730  176.3520  137.6780 C   0  0  0  0  0  3  0  0  0  0  0  0
  187.9310  178.6150  136.8270 C   0  0  0  0  0  3  0  0  0  0  0  0
  187.1840  178.2450  135.7050 C   0  0  0  0  0  3  0  0  0  0  0  0
  187.0260  175.9830  136.5550 C   0  0  0  0  0  0  0  0  0  0  0  0
  186.7320  176.9290  135.5680 C   0  0  0  0  0  3  0  0  0  0  0  0
  188.2300  177.6670  137.8130 C   0  0  0  0  0  0  0  0  0  0  0  0
  186.5750  174.6770  136.4200 O   0  0  0  0  0  1  0  0  0  0  0  0
  1  2  2  0  0  0  0
  1  3  1  0  0  0  0
  2  4  1  0  0  0  0
  3  5  2  0  0  0  0
  4  9  1  0  0  0  0
  4  6  2  0  0  0  0
  5  6  1  0  0  0  0
  7  8  2  0  0  0  0
  8 10  1  0  0  0  0
  9  8  1  0  0  0  0
 10 11  1  1  0  0  0
 10 13  1  0  0  0  0
 13 12  1  1  0  0  0
 13 14  1  0  0  0  0
 15 19  1  0  0  0  0
 15 18  1  0  0  0  0
 16 20  1  0  0  0  0
 17 20  1  0  0  0  0
 18 17  1  0  0  0  0
 19 14  1  6  0  0  0
 19 16  1  0  0  0  0
 21  2  1  0  0  0  0
 22 27  1  0  0  0  0
 23 27  2  0  0  0  0
 24 23  1  0  0  0  0
 25 22  2  0  0  0  0
 26 24  2  0  0  0  0
 26 25  1  0  0  0  0
 27 21  1  0  0  0  0
 28 25  1  0  0  0  0
M  END
>  <MODEL>
9

>  <REMARK>
 VINA RESULT:      -6.7      2.746      7.502
  Name = 
  7 active torsions:
  status: ('A' for Active; 'I' for Inactive)
    1  A    between atoms: O_1  and  C_15
    2  A    between atoms: O_1  and  C_25
    3  A    between atoms: C_9  and  S_18
    4  A    between atoms: C_11  and  C_23
    5  A    between atoms: C_11  and  C_25
    6  A    between atoms: C_16  and  N_24
    7  A    between atoms: S_18  and  C_22
                            x       y       z     vdW  Elec       q    Type
                         _______ _______ _______ _____ _____    ______ ____

>  <TORSDO>
F 7

$$$$
