=
 OpenBabel11042410263D

 29 32  0  0  1  0  0  0  0  0999 V2000
  188.6810  176.9630  141.4800 C   0  0  2  0  0  3  0  0  0  0  0  0
  188.3620  177.5420  140.1260 C   0  0  0  0  0  2  0  0  0  0  0  0
  189.4250  177.2250  139.0790 C   0  0  0  0  0  2  0  0  0  0  0  0
  187.0650  177.8530  144.7520 C   0  0  0  0  0  0  0  0  0  0  0  0
  189.2220  176.7680  144.3570 C   0  0  0  0  0  0  0  0  0  0  0  0
  190.2060  175.6690  143.3290 S   0  0  0  0  0  0  0  0  0  0  0  0
  187.9590  177.1730  143.8870 C   0  0  0  0  0  0  0  0  0  0  0  0
  191.0760  176.6400  140.8320 C   0  0  0  0  0  2  0  0  0  0  0  0
  188.7710  177.8170  146.4920 C   0  0  0  0  0  3  0  0  0  0  0  0
  187.6640  177.0560  142.4860 N   0  0  0  0  0  2  0  0  0  0  0  0
  189.9330  176.5860  141.8120 C   0  0  1  0  0  3  0  0  0  0  0  0
  190.7940  177.5600  139.6460 C   0  0  1  0  0  3  0  0  0  0  0  0
  189.6430  177.1160  145.6530 C   0  0  0  0  0  0  0  0  0  0  0  0
  187.4970  178.1720  146.0480 C   0  0  0  0  0  3  0  0  0  0  0  0
  184.0180  178.6100  142.6060 C   0  0  0  0  0  3  0  0  0  0  0  0
  185.7020  178.2740  144.3320 C   0  0  0  0  0  0  0  0  0  0  0  0
  183.0940  179.0330  143.5650 C   0  0  0  0  0  0  0  0  0  0  0  0
  183.4760  179.0710  144.9110 C   0  0  0  0  0  3  0  0  0  0  0  0
  184.7670  178.6930  145.2910 C   0  0  0  0  0  3  0  0  0  0  0  0
  185.3070  178.2300  142.9850 C   0  0  0  0  0  3  0  0  0  0  0  0
  180.5390  178.8400  143.5550 C   0  0  0  0  0  0  0  0  0  0  0  0
  179.2620  179.4240  143.0700 C   0  0  0  0  0  1  0  0  0  0  0  0
  180.5090  177.8350  144.3140 O   0  0  0  0  0  0  0  0  0  0  0  0
  181.7810  179.4210  143.1370 N   0  0  0  0  0  2  0  0  0  0  0  0
  190.9900  176.6980  146.1620 C   0  0  2  0  0  3  0  0  0  0  0  0
  191.0420  176.7790  147.6770 C   0  0  0  0  0  1  0  0  0  0  0  0
  191.9930  177.4950  145.6090 O   0  0  0  0  0  1  0  0  0  0  0  0
  191.8480  177.3680  138.5730 C   0  0  0  0  0  2  0  0  0  0  0  0
  193.1210  177.0250  139.1830 N   0  0  0  0  0  1  0  0  0  0  0  0
  1  2  1  1  0  0  0
  1 11  1  0  0  0  0
  1 10  1  0  0  0  0
  3 12  1  0  0  0  0
  3  2  1  0  0  0  0
  4 14  1  0  0  0  0
  5 13  2  0  0  0  0
  6  5  1  0  0  0  0
  7  5  1  0  0  0  0
  7  4  2  0  0  0  0
 10  7  1  0  0  0  0
 11  8  1  6  0  0  0
 11  6  1  0  0  0  0
 12 28  1  6  0  0  0
 12  8  1  0  0  0  0
 13 25  1  0  0  0  0
 13  9  1  0  0  0  0
 14  9  2  0  0  0  0
 15 20  2  0  0  0  0
 15 17  1  0  0  0  0
 16  4  1  0  0  0  0
 16 19  2  0  0  0  0
 17 18  2  0  0  0  0
 18 19  1  0  0  0  0
 20 16  1  0  0  0  0
 21 23  2  0  0  0  0
 22 21  1  0  0  0  0
 24 21  1  0  0  0  0
 24 17  1  0  0  0  0
 25 26  1  1  0  0  0
 27 25  1  0  0  0  0
 28 29  1  0  0  0  0
M  END
>  <MODEL>
1

>  <REMARK>
 VINA RESULT:      -9.0      0.000      0.000
  Name = 
  4 active torsions:
  status: ('A' for Active; 'I' for Inactive)
    1  A    between atoms: C_1  and  C_24
    2  A    between atoms: C_4  and  C_25
    3  A    between atoms: C_8  and  C_10
    4  A    between atoms: C_14  and  N_29
                            x       y       z     vdW  Elec       q    Type
                         _______ _______ _______ _____ _____    ______ ____

>  <TORSDO>
F 4

$$$$
=
 OpenBabel11042410263D

 29 32  0  0  1  0  0  0  0  0999 V2000
  189.8920  176.7280  144.1590 C   0  0  2  0  0  3  0  0  0  0  0  0
  191.2310  176.7800  144.8500 C   0  0  0  0  0  2  0  0  0  0  0  0
  191.1140  176.7580  146.3700 C   0  0  0  0  0  2  0  0  0  0  0  0
  189.1870  177.4880  140.5490 C   0  0  0  0  0  0  0  0  0  0  0  0
  187.6310  177.4480  142.4350 C   0  0  0  0  0  0  0  0  0  0  0  0
  187.1730  176.7190  144.0140 S   0  0  0  0  0  0  0  0  0  0  0  0
  188.8810  177.1170  141.8810 C   0  0  0  0  0  0  0  0  0  0  0  0
  188.7220  177.3960  146.2660 C   0  0  0  0  0  2  0  0  0  0  0  0
  187.0360  178.6220  140.4030 C   0  0  0  0  0  3  0  0  0  0  0  0
  189.9000  176.5690  142.7330 N   0  0  0  0  0  2  0  0  0  0  0  0
  188.7500  177.0470  144.8020 C   0  0  1  0  0  3  0  0  0  0  0  0
  190.0950  177.7960  146.8050 C   0  0  1  0  0  3  0  0  0  0  0  0
  186.7150  178.2280  141.7060 C   0  0  0  0  0  0  0  0  0  0  0  0
  188.2520  178.2500  139.8310 C   0  0  0  0  0  3  0  0  0  0  0  0
  192.9080  177.1750  139.8240 C   0  0  0  0  0  3  0  0  0  0  0  0
  190.4740  177.1380  139.8900 C   0  0  0  0  0  0  0  0  0  0  0  0
  192.9050  176.4180  138.6490 C   0  0  0  0  0  0  0  0  0  0  0  0
  191.6820  176.0180  138.0980 C   0  0  0  0  0  3  0  0  0  0  0  0
  190.4790  176.3720  138.7140 C   0  0  0  0  0  3  0  0  0  0  0  0
  191.7060  177.5270  140.4410 C   0  0  0  0  0  3  0  0  0  0  0  0
  194.6040  174.7690  137.6720 C   0  0  0  0  0  0  0  0  0  0  0  0
  195.9060  174.6120  136.9730 C   0  0  0  0  0  1  0  0  0  0  0  0
  193.9210  173.7450  137.9410 O   0  0  0  0  0  0  0  0  0  0  0  0
  194.1590  176.0800  138.0410 N   0  0  0  0  0  2  0  0  0  0  0  0
  185.3830  178.5940  142.2870 C   0  0  2  0  0  3  0  0  0  0  0  0
  184.2540  178.1130  141.3940 C   0  0  0  0  0  1  0  0  0  0  0  0
  185.2890  179.9760  142.4680 O   0  0  0  0  0  1  0  0  0  0  0  0
  190.0600  177.8720  148.3190 C   0  0  0  0  0  2  0  0  0  0  0  0
  188.6950  178.0690  148.7760 N   0  0  0  0  0  1  0  0  0  0  0  0
  1 11  1  0  0  0  0
  1  2  1  6  0  0  0
  2  3  1  0  0  0  0
  3 12  1  0  0  0  0
  4  7  1  0  0  0  0
  5  6  1  0  0  0  0
  6 11  1  0  0  0  0
  7  5  2  0  0  0  0
  7 10  1  0  0  0  0
  8 12  1  0  0  0  0
  9 13  2  0  0  0  0
 10  1  1  0  0  0  0
 11  8  1  1  0  0  0
 12 28  1  1  0  0  0
 13 25  1  0  0  0  0
 13  5  1  0  0  0  0
 14  9  1  0  0  0  0
 14  4  2  0  0  0  0
 15 20  1  0  0  0  0
 16 20  2  0  0  0  0
 16  4  1  0  0  0  0
 17 15  2  0  0  0  0
 18 17  1  0  0  0  0
 18 19  2  0  0  0  0
 19 16  1  0  0  0  0
 21 23  2  0  0  0  0
 21 24  1  0  0  0  0
 22 21  1  0  0  0  0
 24 17  1  0  0  0  0
 25 26  1  6  0  0  0
 25 27  1  0  0  0  0
 28 29  1  0  0  0  0
M  END
>  <MODEL>
2

>  <REMARK>
 VINA RESULT:      -8.6      3.142      8.876
  Name = 
  4 active torsions:
  status: ('A' for Active; 'I' for Inactive)
    1  A    between atoms: C_1  and  C_24
    2  A    between atoms: C_4  and  C_25
    3  A    between atoms: C_8  and  C_10
    4  A    between atoms: C_14  and  N_29
                            x       y       z     vdW  Elec       q    Type
                         _______ _______ _______ _____ _____    ______ ____

>  <TORSDO>
F 4

$$$$
=
 OpenBabel11042410263D

 29 32  0  0  1  0  0  0  0  0999 V2000
  188.5120  177.1490  142.0600 C   0  0  2  0  0  3  0  0  0  0  0  0
  188.6340  177.5810  140.6220 C   0  0  0  0  0  2  0  0  0  0  0  0
  190.0030  177.2750  140.0240 C   0  0  0  0  0  2  0  0  0  0  0  0
  185.8420  178.1610  144.5000 C   0  0  0  0  0  0  0  0  0  0  0  0
  188.0630  177.2460  144.9570 C   0  0  0  0  0  0  0  0  0  0  0  0
  189.3960  176.1570  144.4370 S   0  0  0  0  0  0  0  0  0  0  0  0
  187.0110  177.4940  144.0570 C   0  0  0  0  0  0  0  0  0  0  0  0
  190.9990  176.9900  142.2760 C   0  0  0  0  0  2  0  0  0  0  0  0
  186.8610  178.4250  146.6970 C   0  0  0  0  0  3  0  0  0  0  0  0
  187.2110  177.2340  142.6590 N   0  0  0  0  0  2  0  0  0  0  0  0
  189.5990  176.9150  142.8240 C   0  0  1  0  0  3  0  0  0  0  0  0
  191.0800  177.7780  140.9690 C   0  0  1  0  0  3  0  0  0  0  0  0
  188.0030  177.7380  146.2730 C   0  0  0  0  0  0  0  0  0  0  0  0
  185.7930  178.6260  145.8230 C   0  0  0  0  0  3  0  0  0  0  0  0
  183.6740  178.5160  141.3950 C   0  0  0  0  0  3  0  0  0  0  0  0
  184.6770  178.4220  143.6110 C   0  0  0  0  0  0  0  0  0  0  0  0
  182.4420  178.8740  141.9490 C   0  0  0  0  0  0  0  0  0  0  0  0
  182.3290  179.0000  143.3390 C   0  0  0  0  0  3  0  0  0  0  0  0
  183.4350  178.7740  144.1620 C   0  0  0  0  0  3  0  0  0  0  0  0
  184.7790  178.2880  142.2180 C   0  0  0  0  0  3  0  0  0  0  0  0
  180.5910  178.1130  140.3500 C   0  0  0  0  0  0  0  0  0  0  0  0
  179.4100  178.5260  139.5480 C   0  0  0  0  0  1  0  0  0  0  0  0
  180.9290  176.9000  140.3700 O   0  0  0  0  0  0  0  0  0  0  0  0
  181.3300  179.1050  141.0720 N   0  0  0  0  0  2  0  0  0  0  0  0
  189.1220  177.4870  147.2400 C   0  0  2  0  0  3  0  0  0  0  0  0
  188.8650  178.1970  148.5570 C   0  0  0  0  0  1  0  0  0  0  0  0
  190.3390  177.9090  146.7030 O   0  0  0  0  0  1  0  0  0  0  0  0
  192.4440  177.5920  140.3310 C   0  0  0  0  0  2  0  0  0  0  0  0
  192.3090  176.8960  139.0630 N   0  0  0  0  0  1  0  0  0  0  0  0
  1  2  1  1  0  0  0
  1 10  1  0  0  0  0
  1 11  1  0  0  0  0
  3  2  1  0  0  0  0
  3 12  1  0  0  0  0
  4 14  1  0  0  0  0
  5 13  2  0  0  0  0
  6  5  1  0  0  0  0
  7  4  2  0  0  0  0
  7  5  1  0  0  0  0
 10  7  1  0  0  0  0
 11  8  1  6  0  0  0
 11  6  1  0  0  0  0
 12 28  1  6  0  0  0
 12  8  1  0  0  0  0
 13  9  1  0  0  0  0
 13 25  1  0  0  0  0
 14  9  2  0  0  0  0
 15 17  2  0  0  0  0
 15 20  1  0  0  0  0
 16 19  1  0  0  0  0
 16  4  1  0  0  0  0
 17 18  1  0  0  0  0
 18 19  2  0  0  0  0
 20 16  2  0  0  0  0
 21 23  2  0  0  0  0
 21 24  1  0  0  0  0
 22 21  1  0  0  0  0
 24 17  1  0  0  0  0
 25 26  1  1  0  0  0
 27 25  1  0  0  0  0
 29 28  1  0  0  0  0
M  END
>  <MODEL>
3

>  <REMARK>
 VINA RESULT:      -8.5      1.643      1.905
  Name = 
  4 active torsions:
  status: ('A' for Active; 'I' for Inactive)
    1  A    between atoms: C_1  and  C_24
    2  A    between atoms: C_4  and  C_25
    3  A    between atoms: C_8  and  C_10
    4  A    between atoms: C_14  and  N_29
                            x       y       z     vdW  Elec       q    Type
                         _______ _______ _______ _____ _____    ______ ____

>  <TORSDO>
F 4

$$$$
=
 OpenBabel11042410263D

 29 32  0  0  1  0  0  0  0  0999 V2000
  189.4170  177.7250  145.3040 C   0  0  2  0  0  3  0  0  0  0  0  0
  188.9320  177.1830  146.6240 C   0  0  0  0  0  2  0  0  0  0  0  0
  190.0700  176.8460  147.5820 C   0  0  0  0  0  2  0  0  0  0  0  0
  187.4180  178.0940  142.1460 C   0  0  0  0  0  0  0  0  0  0  0  0
  189.8480  178.0240  142.4180 C   0  0  0  0  0  0  0  0  0  0  0  0
  191.2760  178.4160  143.4380 S   0  0  0  0  0  0  0  0  0  0  0  0
  188.5650  178.1780  142.9740 C   0  0  0  0  0  0  0  0  0  0  0  0
  191.7190  176.8420  145.7310 C   0  0  0  0  0  2  0  0  0  0  0  0
  188.8620  177.5800  140.2520 C   0  0  0  0  0  3  0  0  0  0  0  0
  188.4240  178.2330  144.4020 N   0  0  0  0  0  2  0  0  0  0  0  0
  190.6850  177.5340  144.8830 C   0  0  1  0  0  3  0  0  0  0  0  0
  191.1010  176.0050  146.8500 C   0  0  1  0  0  3  0  0  0  0  0  0
  189.9980  177.6950  141.0590 C   0  0  0  0  0  0  0  0  0  0  0  0
  187.5910  177.7850  140.7880 C   0  0  0  0  0  3  0  0  0  0  0  0
  184.4470  178.3640  144.5050 C   0  0  0  0  0  3  0  0  0  0  0  0
  186.0360  178.2840  142.6620 C   0  0  0  0  0  0  0  0  0  0  0  0
  183.4150  178.6980  143.6230 C   0  0  0  0  0  0  0  0  0  0  0  0
  183.6980  178.8300  142.2590 C   0  0  0  0  0  3  0  0  0  0  0  0
  184.9960  178.6270  141.7830 C   0  0  0  0  0  3  0  0  0  0  0  0
  185.7450  178.1640  144.0300 C   0  0  0  0  0  3  0  0  0  0  0  0
  180.8590  178.6840  143.4500 C   0  0  0  0  0  0  0  0  0  0  0  0
  179.5750  178.8530  144.1770 C   0  0  0  0  0  1  0  0  0  0  0  0
  180.8410  178.3740  142.2290 O   0  0  0  0  0  0  0  0  0  0  0  0
  182.0930  178.8910  144.1470 N   0  0  0  0  0  2  0  0  0  0  0  0
  191.3600  177.5200  140.4560 C   0  0  2  0  0  3  0  0  0  0  0  0
  191.2730  176.7820  139.1320 C   0  0  0  0  0  1  0  0  0  0  0  0
  192.2000  176.8290  141.3310 O   0  0  0  0  0  1  0  0  0  0  0  0
  192.1760  175.5580  147.8220 C   0  0  0  0  0  2  0  0  0  0  0  0
  192.7290  176.7090  148.5140 N   0  0  0  0  0  1  0  0  0  0  0  0
  1  2  1  6  0  0  0
  2  3  1  0  0  0  0
  4 16  1  0  0  0  0
  4  7  1  0  0  0  0
  5  7  2  0  0  0  0
  5  6  1  0  0  0  0
  6 11  1  0  0  0  0
  7 10  1  0  0  0  0
  8 12  1  0  0  0  0
  9 14  1  0  0  0  0
  9 13  2  0  0  0  0
 10  1  1  0  0  0  0
 11  1  1  0  0  0  0
 11  8  1  1  0  0  0
 12  3  1  0  0  0  0
 12 28  1  1  0  0  0
 13  5  1  0  0  0  0
 14  4  2  0  0  0  0
 16 20  2  0  0  0  0
 17 24  1  0  0  0  0
 17 15  2  0  0  0  0
 18 17  1  0  0  0  0
 19 18  2  0  0  0  0
 19 16  1  0  0  0  0
 20 15  1  0  0  0  0
 21 24  1  0  0  0  0
 21 22  1  0  0  0  0
 23 21  2  0  0  0  0
 25 26  1  6  0  0  0
 25 13  1  0  0  0  0
 25 27  1  0  0  0  0
 28 29  1  0  0  0  0
M  END
>  <MODEL>
4

>  <REMARK>
 VINA RESULT:      -8.2      2.100      4.828
  Name = 
  4 active torsions:
  status: ('A' for Active; 'I' for Inactive)
    1  A    between atoms: C_1  and  C_24
    2  A    between atoms: C_4  and  C_25
    3  A    between atoms: C_8  and  C_10
    4  A    between atoms: C_14  and  N_29
                            x       y       z     vdW  Elec       q    Type
                         _______ _______ _______ _____ _____    ______ ____

>  <TORSDO>
F 4

$$$$
=
 OpenBabel11042410263D

 29 32  0  0  1  0  0  0  0  0999 V2000
  188.7930  177.6360  140.6380 C   0  0  2  0  0  3  0  0  0  0  0  0
  190.0280  176.8170  140.3680 C   0  0  0  0  0  2  0  0  0  0  0  0
  190.3020  176.6310  138.8790 C   0  0  0  0  0  2  0  0  0  0  0  0
  186.9690  177.9550  143.9060 C   0  0  0  0  0  0  0  0  0  0  0  0
  186.1550  178.4290  141.6490 C   0  0  0  0  0  0  0  0  0  0  0  0
  186.5300  179.0040  139.9870 S   0  0  0  0  0  0  0  0  0  0  0  0
  187.2240  178.1930  142.5330 C   0  0  0  0  0  0  0  0  0  0  0  0
  187.9810  177.2780  138.3000 C   0  0  0  0  0  2  0  0  0  0  0  0
  184.5780  178.0680  143.4500 C   0  0  0  0  0  3  0  0  0  0  0  0
  188.5460  178.0140  142.0000 N   0  0  0  0  0  2  0  0  0  0  0  0
  187.8400  177.8140  139.7000 C   0  0  1  0  0  3  0  0  0  0  0  0
  189.0280  176.1700  138.1940 C   0  0  1  0  0  3  0  0  0  0  0  0
  184.8270  178.3370  142.1000 C   0  0  0  0  0  0  0  0  0  0  0  0
  185.6360  177.8870  144.3400 C   0  0  0  0  0  3  0  0  0  0  0  0
  188.7890  177.2800  147.1770 C   0  0  0  0  0  3  0  0  0  0  0  0
  188.0530  177.7360  144.9010 C   0  0  0  0  0  0  0  0  0  0  0  0
  190.1240  177.2750  146.7620 C   0  0  0  0  0  0  0  0  0  0  0  0
  190.4200  177.4970  145.4120 C   0  0  0  0  0  3  0  0  0  0  0  0
  189.3940  177.7230  144.4910 C   0  0  0  0  0  3  0  0  0  0  0  0
  187.7640  177.5030  146.2550 C   0  0  0  0  0  3  0  0  0  0  0  0
  192.1360  176.0070  147.7150 C   0  0  0  0  0  0  0  0  0  0  0  0
  193.1800  175.9710  148.7710 C   0  0  0  0  0  1  0  0  0  0  0  0
  192.1270  175.1160  146.8250 O   0  0  0  0  0  0  0  0  0  0  0  0
  191.1500  177.0470  147.7380 N   0  0  0  0  0  2  0  0  0  0  0  0
  183.6780  178.5780  141.1660 C   0  0  2  0  0  3  0  0  0  0  0  0
  182.4330  178.9810  141.9350 C   0  0  0  0  0  1  0  0  0  0  0  0
  183.4180  177.4380  140.4040 O   0  0  0  0  0  1  0  0  0  0  0  0
  189.3160  175.8610  136.7370 C   0  0  0  0  0  2  0  0  0  0  0  0
  189.7630  177.0630  136.0540 N   0  0  0  0  0  1  0  0  0  0  0  0
  1  2  1  1  0  0  0
  1 10  1  0  0  0  0
  3  2  1  0  0  0  0
  4 14  1  0  0  0  0
  4 16  1  0  0  0  0
  5 13  2  0  0  0  0
  5  7  1  0  0  0  0
  6  5  1  0  0  0  0
  7  4  2  0  0  0  0
  9 14  2  0  0  0  0
 10  7  1  0  0  0  0
 11  8  1  6  0  0  0
 11  6  1  0  0  0  0
 11  1  1  0  0  0  0
 12 28  1  6  0  0  0
 12  8  1  0  0  0  0
 12  3  1  0  0  0  0
 13  9  1  0  0  0  0
 16 20  1  0  0  0  0
 17 15  1  0  0  0  0
 17 24  1  0  0  0  0
 18 17  2  0  0  0  0
 19 16  2  0  0  0  0
 19 18  1  0  0  0  0
 20 15  2  0  0  0  0
 21 24  1  0  0  0  0
 21 22  1  0  0  0  0
 23 21  2  0  0  0  0
 25 26  1  1  0  0  0
 25 13  1  0  0  0  0
 27 25  1  0  0  0  0
 29 28  1  0  0  0  0
M  END
>  <MODEL>
5

>  <REMARK>
 VINA RESULT:      -8.1      2.544      6.863
  Name = 
  4 active torsions:
  status: ('A' for Active; 'I' for Inactive)
    1  A    between atoms: C_1  and  C_24
    2  A    between atoms: C_4  and  C_25
    3  A    between atoms: C_8  and  C_10
    4  A    between atoms: C_14  and  N_29
                            x       y       z     vdW  Elec       q    Type
                         _______ _______ _______ _____ _____    ______ ____

>  <TORSDO>
F 4

$$$$
=
 OpenBabel11042410263D

 29 32  0  0  1  0  0  0  0  0999 V2000
  184.4630  178.7450  141.5910 C   0  0  2  0  0  3  0  0  0  0  0  0
  183.7980  178.2810  140.3210 C   0  0  0  0  0  2  0  0  0  0  0  0
  182.2990  178.5590  140.3010 C   0  0  0  0  0  2  0  0  0  0  0  0
  187.8920  177.8160  142.8110 C   0  0  0  0  0  0  0  0  0  0  0  0
  186.0080  178.7150  144.0850 C   0  0  0  0  0  0  0  0  0  0  0  0
  184.5570  179.7770  144.1100 S   0  0  0  0  0  0  0  0  0  0  0  0
  186.6300  178.4600  142.8500 C   0  0  0  0  0  0  0  0  0  0  0  0
  182.2550  178.8800  142.7580 C   0  0  0  0  0  2  0  0  0  0  0  0
  187.8150  177.5870  145.2360 C   0  0  0  0  0  3  0  0  0  0  0  0
  185.8960  178.6880  141.6370 N   0  0  0  0  0  2  0  0  0  0  0  0
  183.7560  178.9830  142.7160 C   0  0  1  0  0  3  0  0  0  0  0  0
  181.6850  178.0640  141.5990 C   0  0  1  0  0  3  0  0  0  0  0  0
  186.5850  178.2520  145.2810 C   0  0  0  0  0  0  0  0  0  0  0  0
  188.4610  177.3800  144.0180 C   0  0  0  0  0  3  0  0  0  0  0  0
  188.7720  177.6490  139.1150 C   0  0  0  0  0  3  0  0  0  0  0  0
  188.6220  177.5500  141.5430 C   0  0  0  0  0  0  0  0  0  0  0  0
  190.0480  177.0810  139.1530 C   0  0  0  0  0  0  0  0  0  0  0  0
  190.6130  176.7530  140.3900 C   0  0  0  0  0  3  0  0  0  0  0  0
  189.9070  176.9870  141.5740 C   0  0  0  0  0  3  0  0  0  0  0  0
  188.0680  177.8860  140.2970 C   0  0  0  0  0  3  0  0  0  0  0  0
  191.0700  175.5750  137.3500 C   0  0  0  0  0  0  0  0  0  0  0  0
  191.7160  175.5190  136.0140 C   0  0  0  0  0  1  0  0  0  0  0  0
  190.8370  174.5020  137.9680 O   0  0  0  0  0  0  0  0  0  0  0  0
  190.7380  176.8480  137.9160 N   0  0  0  0  0  2  0  0  0  0  0  0
  185.9280  178.5100  146.6040 C   0  0  2  0  0  3  0  0  0  0  0  0
  186.8950  178.2550  147.7450 C   0  0  0  0  0  1  0  0  0  0  0  0
  184.7940  177.7090  146.7530 O   0  0  0  0  0  1  0  0  0  0  0  0
  180.1780  178.2200  141.5410 C   0  0  0  0  0  2  0  0  0  0  0  0
  179.5920  177.8750  142.8250 N   0  0  0  0  0  1  0  0  0  0  0  0
  1  2  1  1  0  0  0
  1 10  1  0  0  0  0
  1 11  1  0  0  0  0
  3  2  1  0  0  0  0
  3 12  1  0  0  0  0
  4  7  2  0  0  0  0
  4 14  1  0  0  0  0
  5  6  1  0  0  0  0
  5 13  2  0  0  0  0
  7  5  1  0  0  0  0
  9 13  1  0  0  0  0
 10  7  1  0  0  0  0
 11  8  1  6  0  0  0
 11  6  1  0  0  0  0
 12 28  1  6  0  0  0
 12  8  1  0  0  0  0
 13 25  1  0  0  0  0
 14  9  2  0  0  0  0
 15 17  2  0  0  0  0
 15 20  1  0  0  0  0
 16 19  1  0  0  0  0
 16  4  1  0  0  0  0
 17 18  1  0  0  0  0
 18 19  2  0  0  0  0
 20 16  2  0  0  0  0
 21 24  1  0  0  0  0
 21 23  2  0  0  0  0
 22 21  1  0  0  0  0
 24 17  1  0  0  0  0
 25 27  1  0  0  0  0
 25 26  1  1  0  0  0
 28 29  1  0  0  0  0
M  END
>  <MODEL>
6

>  <REMARK>
 VINA RESULT:      -7.9      2.752      7.809
  Name = 
  4 active torsions:
  status: ('A' for Active; 'I' for Inactive)
    1  A    between atoms: C_1  and  C_24
    2  A    between atoms: C_4  and  C_25
    3  A    between atoms: C_8  and  C_10
    4  A    between atoms: C_14  and  N_29
                            x       y       z     vdW  Elec       q    Type
                         _______ _______ _______ _____ _____    ______ ____

>  <TORSDO>
F 4

$$$$
=
 OpenBabel11042410263D

 29 32  0  0  1  0  0  0  0  0999 V2000
  182.4670  176.7690  139.4120 C   0  0  2  0  0  3  0  0  0  0  0  0
  183.1300  175.6070  138.7190 C   0  0  0  0  0  2  0  0  0  0  0  0
  182.2180  174.9230  137.7050 C   0  0  0  0  0  2  0  0  0  0  0  0
  183.6530  178.5140  142.5200 C   0  0  0  0  0  0  0  0  0  0  0  0
  181.4150  178.4990  141.5340 C   0  0  0  0  0  0  0  0  0  0  0  0
  180.4090  178.4360  140.0450 S   0  0  0  0  0  0  0  0  0  0  0  0
  182.7960  178.2590  141.4210 C   0  0  0  0  0  0  0  0  0  0  0  0
  180.2060  175.9650  138.7080 C   0  0  0  0  0  2  0  0  0  0  0  0
  181.7080  179.1220  143.8550 C   0  0  0  0  0  3  0  0  0  0  0  0
  183.2940  177.5840  140.2550 N   0  0  0  0  0  2  0  0  0  0  0  0
  181.1260  176.9090  139.4360 C   0  0  1  0  0  3  0  0  0  0  0  0
  180.8770  174.6380  138.3580 C   0  0  1  0  0  3  0  0  0  0  0  0
  180.8630  178.9040  142.7630 C   0  0  0  0  0  0  0  0  0  0  0  0
  183.0850  178.9370  143.7310 C   0  0  0  0  0  3  0  0  0  0  0  0
  187.2790  178.7170  141.3910 C   0  0  0  0  0  3  0  0  0  0  0  0
  185.1260  178.3180  142.4550 C   0  0  0  0  0  0  0  0  0  0  0  0
  187.9260  177.9740  142.3820 C   0  0  0  0  0  0  0  0  0  0  0  0
  187.1700  177.4070  143.4140 C   0  0  0  0  0  3  0  0  0  0  0  0
  185.7830  177.5800  143.4510 C   0  0  0  0  0  3  0  0  0  0  0  0
  185.8940  178.8910  141.4290 C   0  0  0  0  0  3  0  0  0  0  0  0
  190.2920  178.0260  143.3640 C   0  0  0  0  0  0  0  0  0  0  0  0
  191.7290  177.7280  143.1300 C   0  0  0  0  0  1  0  0  0  0  0  0
  189.9290  178.4750  144.4830 O   0  0  0  0  0  0  0  0  0  0  0  0
  189.3500  177.8110  142.3060 N   0  0  0  0  0  2  0  0  0  0  0  0
  179.3910  179.1560  142.9000 C   0  0  2  0  0  3  0  0  0  0  0  0
  179.0770  180.6300  142.7190 C   0  0  0  0  0  1  0  0  0  0  0  0
  178.9320  178.7220  144.1450 O   0  0  0  0  0  1  0  0  0  0  0  0
  180.0040  173.8470  137.4020 C   0  0  0  0  0  2  0  0  0  0  0  0
  180.1230  172.4270  137.6800 N   0  0  0  0  0  1  0  0  0  0  0  0
  1  2  1  1  0  0  0
  1 11  1  0  0  0  0
  1 10  1  0  0  0  0
  3 12  1  0  0  0  0
  3  2  1  0  0  0  0
  4 14  1  0  0  0  0
  5 13  2  0  0  0  0
  6  5  1  0  0  0  0
  7  5  1  0  0  0  0
  7  4  2  0  0  0  0
 10  7  1  0  0  0  0
 11  8  1  6  0  0  0
 11  6  1  0  0  0  0
 12 28  1  6  0  0  0
 12  8  1  0  0  0  0
 13 25  1  0  0  0  0
 13  9  1  0  0  0  0
 14  9  2  0  0  0  0
 15 20  2  0  0  0  0
 15 17  1  0  0  0  0
 16  4  1  0  0  0  0
 16 19  2  0  0  0  0
 17 18  2  0  0  0  0
 18 19  1  0  0  0  0
 20 16  1  0  0  0  0
 21 23  2  0  0  0  0
 22 21  1  0  0  0  0
 24 17  1  0  0  0  0
 24 21  1  0  0  0  0
 25 26  1  1  0  0  0
 25 27  1  0  0  0  0
 28 29  1  0  0  0  0
M  END
>  <MODEL>
7

>  <REMARK>
 VINA RESULT:      -7.9      4.146      8.734
  Name = 
  4 active torsions:
  status: ('A' for Active; 'I' for Inactive)
    1  A    between atoms: C_1  and  C_24
    2  A    between atoms: C_4  and  C_25
    3  A    between atoms: C_8  and  C_10
    4  A    between atoms: C_14  and  N_29
                            x       y       z     vdW  Elec       q    Type
                         _______ _______ _______ _____ _____    ______ ____

>  <TORSDO>
F 4

$$$$
=
 OpenBabel11042410263D

 29 32  0  0  1  0  0  0  0  0999 V2000
  188.4030  177.0320  138.3850 C   0  0  2  0  0  3  0  0  0  0  0  0
  187.1290  177.8280  138.4980 C   0  0  0  0  0  2  0  0  0  0  0  0
  186.3370  177.8680  137.1960 C   0  0  0  0  0  2  0  0  0  0  0  0
  191.2820  177.0260  140.7980 C   0  0  0  0  0  0  0  0  0  0  0  0
  191.2500  176.3280  138.4540 C   0  0  0  0  0  0  0  0  0  0  0  0
  190.3250  175.5940  137.0980 S   0  0  0  0  0  0  0  0  0  0  0  0
  190.5610  176.6550  139.6360 C   0  0  0  0  0  0  0  0  0  0  0  0
  188.3170  177.1550  135.8880 C   0  0  0  0  0  2  0  0  0  0  0  0
  193.3550  176.8550  139.5290 C   0  0  0  0  0  3  0  0  0  0  0  0
  189.1310  176.7880  139.5960 N   0  0  0  0  0  2  0  0  0  0  0  0
  188.9640  176.7580  137.1880 C   0  0  1  0  0  3  0  0  0  0  0  0
  187.2680  178.2530  136.0600 C   0  0  1  0  0  3  0  0  0  0  0  0
  192.6490  176.4560  138.3890 C   0  0  0  0  0  0  0  0  0  0  0  0
  192.6790  177.1280  140.7170 C   0  0  0  0  0  3  0  0  0  0  0  0
  188.9160  176.9030  143.7730 C   0  0  0  0  0  3  0  0  0  0  0  0
  190.6180  177.3470  142.0900 C   0  0  0  0  0  0  0  0  0  0  0  0
  189.4060  177.9440  144.5670 C   0  0  0  0  0  0  0  0  0  0  0  0
  190.5080  178.6830  144.1210 C   0  0  0  0  0  3  0  0  0  0  0  0
  191.1090  178.3860  142.8950 C   0  0  0  0  0  3  0  0  0  0  0  0
  189.5190  176.6050  142.5490 C   0  0  0  0  0  3  0  0  0  0  0  0
  189.0710  177.6480  147.0900 C   0  0  0  0  0  0  0  0  0  0  0  0
  188.3480  178.1190  148.3000 C   0  0  0  0  0  1  0  0  0  0  0  0
  189.9390  176.7420  147.2030 O   0  0  0  0  0  0  0  0  0  0  0  0
  188.7580  178.2240  145.8160 N   0  0  0  0  0  2  0  0  0  0  0  0
  193.3950  176.1180  137.1330 C   0  0  2  0  0  3  0  0  0  0  0  0
  194.1240  174.7940  137.2780 C   0  0  0  0  0  1  0  0  0  0  0  0
  194.3050  177.1280  136.8150 O   0  0  0  0  0  1  0  0  0  0  0  0
  186.4700  178.4180  134.7820 C   0  0  0  0  0  2  0  0  0  0  0  0
  185.4970  177.3460  134.6610 N   0  0  0  0  0  1  0  0  0  0  0  0
  1  2  1  6  0  0  0
  1 10  1  0  0  0  0
  3  2  1  0  0  0  0
  4 16  1  0  0  0  0
  5  7  1  0  0  0  0
  6 11  1  0  0  0  0
  6  5  1  0  0  0  0
  7  4  2  0  0  0  0
  8 12  1  0  0  0  0
  9 14  2  0  0  0  0
 10  7  1  0  0  0  0
 11  8  1  6  0  0  0
 11  1  1  0  0  0  0
 12 28  1  6  0  0  0
 12  3  1  0  0  0  0
 13  5  2  0  0  0  0
 13  9  1  0  0  0  0
 14  4  1  0  0  0  0
 15 17  1  0  0  0  0
 16 20  1  0  0  0  0
 16 19  2  0  0  0  0
 17 24  1  0  0  0  0
 18 17  2  0  0  0  0
 19 18  1  0  0  0  0
 20 15  2  0  0  0  0
 21 23  2  0  0  0  0
 21 22  1  0  0  0  0
 24 21  1  0  0  0  0
 25 26  1  1  0  0  0
 25 13  1  0  0  0  0
 27 25  1  0  0  0  0
 29 28  1  0  0  0  0
M  END
>  <MODEL>
8

>  <REMARK>
 VINA RESULT:      -7.9      4.429      7.025
  Name = 
  4 active torsions:
  status: ('A' for Active; 'I' for Inactive)
    1  A    between atoms: C_1  and  C_24
    2  A    between atoms: C_4  and  C_25
    3  A    between atoms: C_8  and  C_10
    4  A    between atoms: C_14  and  N_29
                            x       y       z     vdW  Elec       q    Type
                         _______ _______ _______ _____ _____    ______ ____

>  <TORSDO>
F 4

$$$$
=
 OpenBabel11042410263D

 29 32  0  0  1  0  0  0  0  0999 V2000
  189.6940  176.7400  138.4360 C   0  0  2  0  0  3  0  0  0  0  0  0
  190.6960  175.6180  138.3530 C   0  0  0  0  0  2  0  0  0  0  0  0
  190.9480  175.1530  136.9220 C   0  0  0  0  0  2  0  0  0  0  0  0
  187.9340  177.9670  141.5200 C   0  0  0  0  0  0  0  0  0  0  0  0
  187.3100  178.2810  139.1760 C   0  0  0  0  0  0  0  0  0  0  0  0
  187.8490  178.4980  137.4740 S   0  0  0  0  0  0  0  0  0  0  0  0
  188.2690  177.9310  140.1430 C   0  0  0  0  0  0  0  0  0  0  0  0
  188.8680  176.2430  136.1280 C   0  0  0  0  0  2  0  0  0  0  0  0
  185.6540  178.5800  140.9170 C   0  0  0  0  0  3  0  0  0  0  0  0
  189.5170  177.3640  139.7160 N   0  0  0  0  0  2  0  0  0  0  0  0
  188.8340  176.9990  137.4300 C   0  0  1  0  0  3  0  0  0  0  0  0
  189.6140  174.9140  136.2360 C   0  0  1  0  0  3  0  0  0  0  0  0
  185.9900  178.5790  139.5590 C   0  0  0  0  0  0  0  0  0  0  0  0
  186.6160  178.2860  141.8820 C   0  0  0  0  0  3  0  0  0  0  0  0
  190.0250  176.0360  144.0420 C   0  0  0  0  0  3  0  0  0  0  0  0
  188.9100  177.6460  142.5950 C   0  0  0  0  0  0  0  0  0  0  0  0
  190.8030  177.0530  144.6030 C   0  0  0  0  0  0  0  0  0  0  0  0
  190.6350  178.3680  144.1530 C   0  0  0  0  0  3  0  0  0  0  0  0
  189.6990  178.6610  143.1570 C   0  0  0  0  0  3  0  0  0  0  0  0
  189.0920  176.3290  143.0460 C   0  0  0  0  0  3  0  0  0  0  0  0
  191.4480  176.3750  146.9880 C   0  0  0  0  0  0  0  0  0  0  0  0
  192.5510  175.9700  147.8970 C   0  0  0  0  0  1  0  0  0  0  0  0
  190.2700  176.4260  147.4310 O   0  0  0  0  0  0  0  0  0  0  0  0
  191.7480  176.7160  145.6280 N   0  0  0  0  0  2  0  0  0  0  0  0
  184.9560  178.9460  138.5370 C   0  0  2  0  0  3  0  0  0  0  0  0
  183.8180  179.7220  139.1760 C   0  0  0  0  0  1  0  0  0  0  0  0
  184.4570  177.8020  137.9100 O   0  0  0  0  0  1  0  0  0  0  0  0
  189.8490  174.3330  134.8560 C   0  0  0  0  0  2  0  0  0  0  0  0
  191.1640  173.7190  134.7920 N   0  0  0  0  0  1  0  0  0  0  0  0
  1  2  1  1  0  0  0
  1 10  1  0  0  0  0
  3  2  1  0  0  0  0
  4 14  1  0  0  0  0
  4 16  1  0  0  0  0
  5 13  2  0  0  0  0
  5  7  1  0  0  0  0
  6  5  1  0  0  0  0
  7  4  2  0  0  0  0
  8 12  1  0  0  0  0
  9 14  2  0  0  0  0
 10  7  1  0  0  0  0
 11  8  1  6  0  0  0
 11  6  1  0  0  0  0
 11  1  1  0  0  0  0
 12 28  1  6  0  0  0
 12  3  1  0  0  0  0
 13  9  1  0  0  0  0
 15 17  1  0  0  0  0
 16 20  1  0  0  0  0
 16 19  2  0  0  0  0
 17 24  1  0  0  0  0
 18 17  2  0  0  0  0
 19 18  1  0  0  0  0
 20 15  2  0  0  0  0
 21 23  2  0  0  0  0
 21 22  1  0  0  0  0
 24 21  1  0  0  0  0
 25 26  1  1  0  0  0
 25 13  1  0  0  0  0
 27 25  1  0  0  0  0
 29 28  1  0  0  0  0
M  END
>  <MODEL>
9

>  <REMARK>
 VINA RESULT:      -7.8      3.718      7.268
  Name = 
  4 active torsions:
  status: ('A' for Active; 'I' for Inactive)
    1  A    between atoms: C_1  and  C_24
    2  A    between atoms: C_4  and  C_25
    3  A    between atoms: C_8  and  C_10
    4  A    between atoms: C_14  and  N_29
                            x       y       z     vdW  Elec       q    Type
                         _______ _______ _______ _____ _____    ______ ____

>  <TORSDO>
F 4

$$$$
