=
 OpenBabel11032421183D

 52 58  0  0  1  0  0  0  0  0999 V2000
  190.5220  177.0380  141.2080 C   0  0  0  0  0  0  0  0  0  0  0  0
  186.3390  178.0390  139.3930 C   0  0  1  0  0  3  0  0  0  0  0  0
  185.0580  177.6460  137.3960 C   0  0  0  0  0  0  0  0  0  0  0  0
  191.6100  177.5020  140.2740 C   0  0  1  0  0  3  0  0  0  0  0  0
  185.6340  176.5520  136.8750 C   0  0  0  0  0  3  0  0  0  0  0  0
  185.8670  178.6650  138.1370 C   0  0  1  0  0  3  0  0  0  0  0  0
  189.3200  177.6700  138.4120 C   0  0  0  0  0  0  0  0  0  0  0  0
  188.6380  178.1900  137.1670 C   0  0  0  0  0  2  0  0  0  0  0  0
  192.9380  177.3280  140.8540 N   0  0  0  0  0  1  0  0  0  0  0  0
  189.2370  177.2730  140.8850 C   0  0  0  0  0  3  0  0  0  0  0  0
  188.0390  177.0740  136.2960 C   0  0  0  0  0  2  0  0  0  0  0  0
  187.5740  178.6250  139.7280 O   0  0  0  0  0  0  0  0  0  0  0  0
  191.5360  176.7540  139.0250 N   0  0  0  0  0  0  0  0  0  0  0  0
  188.7420  177.8750  139.6260 C   0  0  0  0  0  0  0  0  0  0  0  0
  185.3120  178.9920  139.3840 O   0  0  0  0  0  0  0  0  0  0  0  0
  190.5370  176.8480  138.1900 C   0  0  0  0  0  3  0  0  0  0  0  0
  187.0690  176.1730  137.0630 C   0  0  0  0  0  2  0  0  0  0  0  0
  181.5530  179.1200  137.9980 C   0  0  0  0  0  0  0  0  0  0  0  0
  181.1470  180.1960  138.4690 O   0  0  0  0  0  0  0  0  0  0  0  0
  183.6200  177.8780  137.1840 C   0  0  0  0  0  0  0  0  0  0  0  0
  182.9600  178.9050  137.9360 N   0  0  0  0  0  2  0  0  0  0  0  0
  182.9850  177.1910  136.3350 O   0  0  0  0  0  0  0  0  0  0  0  0
  180.5720  178.0980  137.4920 C   0  0  0  0  0  2  0  0  0  0  0  0
  179.0610  177.9900  140.8050 C   0  0  0  0  0  2  0  0  0  0  0  0
  179.8610  177.3690  138.6140 C   0  0  1  0  0  3  0  0  0  0  0  0
  180.8750  176.8840  139.6440 C   0  0  1  0  0  3  0  0  0  0  0  0
  178.9310  178.3190  139.3360 C   0  0  0  0  0  2  0  0  0  0  0  0
  180.4890  177.5020  140.9790 C   0  0  0  0  0  2  0  0  0  0  0  0
  179.7070  174.9020  139.0250 O   0  0  0  0  0  1  0  0  0  0  0  0
  180.8150  175.3720  139.7310 C   0  0  0  0  0  2  0  0  0  0  0  0
  190.8390  176.2780  142.4810 C   0  0  2  0  0  3  0  0  0  0  0  0
  189.6960  175.3380  142.8450 C   0  0  0  0  0  1  0  0  0  0  0  0
  191.0890  177.1480  143.5500 O   0  0  0  0  0  0  0  0  0  0  0  0
  189.2390  178.1360  144.7510 C   0  0  2  0  0  3  0  0  0  0  0  0
  191.9610  176.6590  146.2380 C   0  0  0  0  0  2  0  0  0  0  0  0
  190.0880  176.8920  144.4860 C   0  0  2  0  0  3  0  0  0  0  0  0
  191.3440  176.8770  147.6080 C   0  0  0  0  0  2  0  0  0  0  0  0
  190.0370  179.2290  145.0230 O   0  0  0  0  0  1  0  0  0  0  0  0
  188.2820  177.8790  145.8960 C   0  0  1  0  0  3  0  0  0  0  0  0
  190.6290  176.1450  145.7270 C   0  0  2  0  0  3  0  0  0  0  0  0
  189.0670  177.6610  147.1690 C   0  0  0  0  0  2  0  0  0  0  0  0
  189.9860  176.4400  147.0880 C   0  0  2  0  0  3  0  0  0  0  0  0
  187.3620  178.9990  146.0760 N   0  0  0  0  0  2  0  0  0  0  0  0
  186.0290  178.4490  146.2900 C   0  0  2  0  0  3  0  0  0  0  0  0
  186.1450  177.0470  146.8610 C   0  0  0  0  0  1  0  0  0  0  0  0
  183.0950  178.8200  143.9110 C   0  0  0  0  0  0  0  0  0  0  0  0
  185.2050  178.4650  145.0290 C   0  0  0  0  0  0  0  0  0  0  0  0
  183.8360  178.7570  145.0900 C   0  0  0  0  0  3  0  0  0  0  0  0
  185.0870  178.3460  142.6560 C   0  0  0  0  0  3  0  0  0  0  0  0
  185.7910  178.2680  143.8130 N   0  0  0  0  0  0  0  0  0  0  0  0
  183.7210  178.6250  142.6820 C   0  0  0  0  0  3  0  0  0  0  0  0
  181.6410  179.0950  143.9670 C   0  0  0  0  0  1  0  0  0  0  0  0
  1 31  1  0  0  0  0
  2 15  1  1  0  0  0
  2 12  1  0  0  0  0
  4  9  1  1  0  0  0
  4  1  1  0  0  0  0
  5 17  1  0  0  0  0
  5  3  2  0  0  0  0
  6  3  1  6  0  0  0
  6 15  1  0  0  0  0
  6  2  1  0  0  0  0
  7 14  2  0  0  0  0
  8  7  1  0  0  0  0
 10  1  2  0  0  0  0
 11 17  1  0  0  0  0
 11  8  1  0  0  0  0
 13  4  1  0  0  0  0
 14 12  1  0  0  0  0
 14 10  1  0  0  0  0
 16  7  1  0  0  0  0
 16 13  2  0  0  0  0
 18 19  2  0  0  0  0
 20  3  1  0  0  0  0
 20 21  1  0  0  0  0
 21 18  1  0  0  0  0
 22 20  2  0  0  0  0
 23 18  1  0  0  0  0
 24 28  1  0  0  0  0
 25 23  1  6  0  0  0
 25 27  1  0  0  0  0
 25 26  1  0  0  0  0
 26 30  1  1  0  0  0
 26 28  1  0  0  0  0
 27 24  1  0  0  0  0
 29 30  1  0  0  0  0
 31 32  1  1  0  0  0
 31 33  1  0  0  0  0
 34 38  1  1  0  0  0
 34 39  1  0  0  0  0
 35 37  1  0  0  0  0
 36 33  1  6  0  0  0
 36 34  1  0  0  0  0
 36 40  1  0  0  0  0
 39 43  1  1  0  0  0
 39 41  1  0  0  0  0
 40 35  1  1  0  0  0
 40 42  1  0  0  0  0
 42 41  1  6  0  0  0
 42 37  1  0  0  0  0
 43 44  1  0  0  0  0
 44 45  1  6  0  0  0
 46 52  1  0  0  0  0
 46 48  1  0  0  0  0
 47 48  2  0  0  0  0
 47 44  1  0  0  0  0
 49 51  1  0  0  0  0
 49 50  2  0  0  0  0
 50 47  1  0  0  0  0
 51 46  2  0  0  0  0
M  END
>  <MODEL>
1

>  <REMARK>
 VINA RESULT:      -8.0      0.000      0.000
  Name = 
  10 active torsions:
  status: ('A' for Active; 'I' for Inactive)
    1  A    between atoms: C_1  and  C_30
    2  A    between atoms: C_6  and  C_30
    3  A    between atoms: C_8  and  C_33
    4  A    between atoms: C_9  and  O_18
    5  A    between atoms: C_10  and  C_16
    6  A    between atoms: C_12  and  C_52
    7  A    between atoms: C_13  and  C_17
    8  A    between atoms: C_16  and  N_48
    9  A    between atoms: O_18  and  C_33
   10  A    between atoms: C_23  and  N_48
                            x       y       z     vdW  Elec       q    Type
                         _______ _______ _______ _____ _____    ______ ____

>  <TORSDO>
F 10

$$$$
=
 OpenBabel11032421183D

 52 58  0  0  1  0  0  0  0  0999 V2000
  183.1710  175.2260  136.8050 C   0  0  0  0  0  0  0  0  0  0  0  0
  187.8070  174.8970  137.2370 C   0  0  1  0  0  3  0  0  0  0  0  0
  189.7860  176.2220  136.8980 C   0  0  0  0  0  0  0  0  0  0  0  0
  182.8140  175.6160  135.3940 C   0  0  1  0  0  3  0  0  0  0  0  0
  189.3190  177.4800  136.9330 C   0  0  0  0  0  3  0  0  0  0  0  0
  188.9590  175.1100  136.3320 C   0  0  1  0  0  3  0  0  0  0  0  0
  185.6970  176.2630  135.3210 C   0  0  0  0  0  0  0  0  0  0  0  0
  186.9980  176.5170  134.5940 C   0  0  0  0  0  2  0  0  0  0  0  0
  181.3710  175.6070  135.1730 N   0  0  0  0  0  1  0  0  0  0  0  0
  184.4630  175.0370  137.1250 C   0  0  0  0  0  3  0  0  0  0  0  0
  187.6900  177.8180  135.0300 C   0  0  0  0  0  2  0  0  0  0  0  0
  186.7280  174.4370  136.4590 O   0  0  0  0  0  0  0  0  0  0  0  0
  183.3290  176.9490  135.1080 N   0  0  0  0  0  0  0  0  0  0  0  0
  185.6320  175.2670  136.2440 C   0  0  0  0  0  0  0  0  0  0  0  0
  188.8840  174.0020  137.1900 O   0  0  0  0  0  0  0  0  0  0  0  0
  184.6020  177.2290  135.0500 C   0  0  0  0  0  3  0  0  0  0  0  0
  187.9350  177.8870  136.5390 C   0  0  0  0  0  2  0  0  0  0  0  0
  193.6330  176.0930  136.8140 C   0  0  0  0  0  0  0  0  0  0  0  0
  194.5000  176.7950  136.2680 O   0  0  0  0  0  0  0  0  0  0  0  0
  191.1530  175.9430  137.3680 C   0  0  0  0  0  0  0  0  0  0  0  0
  192.2650  176.4400  136.6120 N   0  0  0  0  0  2  0  0  0  0  0  0
  191.3360  175.2930  138.4340 O   0  0  0  0  0  0  0  0  0  0  0  0
  194.0350  174.9310  137.6800 C   0  0  0  0  0  2  0  0  0  0  0  0
  195.2550  171.6400  136.7050 C   0  0  0  0  0  2  0  0  0  0  0  0
  195.0460  174.0260  137.0050 C   0  0  1  0  0  3  0  0  0  0  0  0
  196.0460  173.5050  138.0310 C   0  0  1  0  0  3  0  0  0  0  0  0
  194.3460  172.8150  136.4290 C   0  0  0  0  0  2  0  0  0  0  0  0
  195.9710  171.9860  137.9990 C   0  0  0  0  0  2  0  0  0  0  0  0
  197.4190  175.3330  137.3610 O   0  0  0  0  0  1  0  0  0  0  0  0
  197.4380  173.9690  137.6520 C   0  0  0  0  0  2  0  0  0  0  0  0
  182.1120  175.0830  137.8810 C   0  0  2  0  0  3  0  0  0  0  0  0
  181.1370  173.9650  137.5310 C   0  0  0  0  0  1  0  0  0  0  0  0
  181.4070  176.2780  138.0690 O   0  0  0  0  0  0  0  0  0  0  0  0
  182.3510  177.1940  140.0970 C   0  0  2  0  0  3  0  0  0  0  0  0
  180.8130  179.0530  137.6510 C   0  0  0  0  0  2  0  0  0  0  0  0
  182.3370  177.1890  138.5670 C   0  0  2  0  0  3  0  0  0  0  0  0
  181.1410  180.3310  138.4020 C   0  0  0  0  0  2  0  0  0  0  0  0
  181.0720  177.3190  140.6020 O   0  0  0  0  0  1  0  0  0  0  0  0
  183.2350  178.3130  140.6060 C   0  0  1  0  0  3  0  0  0  0  0  0
  182.2320  178.5660  137.8710 C   0  0  2  0  0  3  0  0  0  0  0  0
  182.6350  179.6450  140.2150 C   0  0  0  0  0  2  0  0  0  0  0  0
  182.5400  179.8220  138.6980 C   0  0  2  0  0  3  0  0  0  0  0  0
  183.3800  178.2520  142.0590 N   0  0  0  0  0  2  0  0  0  0  0  0
  184.5600  179.0280  142.4190 C   0  0  2  0  0  3  0  0  0  0  0  0
  185.5950  178.9210  141.3130 C   0  0  0  0  0  1  0  0  0  0  0  0
  186.9690  177.7630  145.0670 C   0  0  0  0  0  0  0  0  0  0  0  0
  185.1280  178.6020  143.7480 C   0  0  0  0  0  0  0  0  0  0  0  0
  186.4360  178.1040  143.8250 C   0  0  0  0  0  3  0  0  0  0  0  0
  184.9200  178.4530  146.1130 C   0  0  0  0  0  3  0  0  0  0  0  0
  184.4090  178.7620  144.8960 N   0  0  0  0  0  0  0  0  0  0  0  0
  186.2150  177.9470  146.2230 C   0  0  0  0  0  3  0  0  0  0  0  0
  188.3380  177.2040  145.1530 C   0  0  0  0  0  1  0  0  0  0  0  0
  1 10  2  0  0  0  0
  1 31  1  0  0  0  0
  2 12  1  6  0  0  0
  3  5  2  0  0  0  0
  3 20  1  0  0  0  0
  4  9  1  1  0  0  0
  4  1  1  0  0  0  0
  6  3  1  1  0  0  0
  6 15  1  0  0  0  0
  6  2  1  0  0  0  0
  7 14  2  0  0  0  0
  8 11  1  0  0  0  0
  8  7  1  0  0  0  0
 11 17  1  0  0  0  0
 13  4  1  0  0  0  0
 14 12  1  0  0  0  0
 14 10  1  0  0  0  0
 15  2  1  0  0  0  0
 16 13  2  0  0  0  0
 16  7  1  0  0  0  0
 17  5  1  0  0  0  0
 18 23  1  0  0  0  0
 19 18  2  0  0  0  0
 20 22  2  0  0  0  0
 21 18  1  0  0  0  0
 21 20  1  0  0  0  0
 24 28  1  0  0  0  0
 25 23  1  1  0  0  0
 25 26  1  0  0  0  0
 26 30  1  6  0  0  0
 27 24  1  0  0  0  0
 27 25  1  0  0  0  0
 28 26  1  0  0  0  0
 29 30  1  0  0  0  0
 31 32  1  6  0  0  0
 31 33  1  0  0  0  0
 34 38  1  1  0  0  0
 34 39  1  0  0  0  0
 35 37  1  0  0  0  0
 36 33  1  1  0  0  0
 36 34  1  0  0  0  0
 39 43  1  1  0  0  0
 40 35  1  1  0  0  0
 40 36  1  0  0  0  0
 40 42  1  0  0  0  0
 41 39  1  0  0  0  0
 42 37  1  1  0  0  0
 42 41  1  0  0  0  0
 43 44  1  0  0  0  0
 44 45  1  6  0  0  0
 44 47  1  0  0  0  0
 46 52  1  0  0  0  0
 46 51  1  0  0  0  0
 47 48  1  0  0  0  0
 47 50  2  0  0  0  0
 48 46  2  0  0  0  0
 49 51  2  0  0  0  0
 50 49  1  0  0  0  0
M  END
>  <MODEL>
2

>  <REMARK>
 VINA RESULT:      -8.0      3.608      9.905
  Name = 
  10 active torsions:
  status: ('A' for Active; 'I' for Inactive)
    1  A    between atoms: C_1  and  C_30
    2  A    between atoms: C_6  and  C_30
    3  A    between atoms: C_8  and  C_33
    4  A    between atoms: C_9  and  O_18
    5  A    between atoms: C_10  and  C_16
    6  A    between atoms: C_12  and  C_52
    7  A    between atoms: C_13  and  C_17
    8  A    between atoms: C_16  and  N_48
    9  A    between atoms: O_18  and  C_33
   10  A    between atoms: C_23  and  N_48
                            x       y       z     vdW  Elec       q    Type
                         _______ _______ _______ _____ _____    ______ ____

>  <TORSDO>
F 10

$$$$
=
 OpenBabel11032421183D

 52 58  0  0  1  0  0  0  0  0999 V2000
  190.4830  177.0170  141.1250 C   0  0  0  0  0  0  0  0  0  0  0  0
  186.6890  177.7440  138.5050 C   0  0  1  0  0  3  0  0  0  0  0  0
  185.8260  177.2040  136.3250 C   0  0  0  0  0  0  0  0  0  0  0  0
  191.7120  177.4860  140.3900 C   0  0  1  0  0  3  0  0  0  0  0  0
  186.5310  176.1150  135.9810 C   0  0  0  0  0  3  0  0  0  0  0  0
  186.4420  178.2900  137.1510 C   0  0  1  0  0  3  0  0  0  0  0  0
  189.8140  177.4670  138.1240 C   0  0  0  0  0  0  0  0  0  0  0  0
  189.3630  177.8980  136.7460 C   0  0  0  0  0  2  0  0  0  0  0  0
  192.9100  177.3990  141.2180 N   0  0  0  0  0  1  0  0  0  0  0  0
  189.2760  177.1780  140.5540 C   0  0  0  0  0  3  0  0  0  0  0  0
  188.9810  176.7190  135.8390 C   0  0  0  0  0  2  0  0  0  0  0  0
  187.8160  178.3990  139.0350 O   0  0  0  0  0  0  0  0  0  0  0  0
  191.9040  176.6810  139.1910 N   0  0  0  0  0  0  0  0  0  0  0  0
  189.0080  177.6990  139.1940 C   0  0  0  0  0  0  0  0  0  0  0  0
  185.6490  178.6480  138.2520 O   0  0  0  0  0  0  0  0  0  0  0  0
  191.0800  176.6920  138.1790 C   0  0  0  0  0  3  0  0  0  0  0  0
  187.9160  175.8100  136.4560 C   0  0  0  0  0  2  0  0  0  0  0  0
  181.9850  177.4030  136.4770 C   0  0  0  0  0  0  0  0  0  0  0  0
  181.1810  177.7590  137.3550 O   0  0  0  0  0  0  0  0  0  0  0  0
  184.4470  177.3600  135.8340 C   0  0  0  0  0  0  0  0  0  0  0  0
  183.3760  177.4520  136.7830 N   0  0  0  0  0  2  0  0  0  0  0  0
  184.2200  177.4320  134.5940 O   0  0  0  0  0  0  0  0  0  0  0  0
  181.4850  176.9610  135.1290 C   0  0  0  0  0  2  0  0  0  0  0  0
  179.5160  174.0560  136.1040 C   0  0  0  0  0  2  0  0  0  0  0  0
  181.1760  175.4780  135.0810 C   0  0  1  0  0  3  0  0  0  0  0  0
  181.8220  174.7730  136.2690 C   0  0  1  0  0  3  0  0  0  0  0  0
  179.6840  175.2600  135.2070 C   0  0  0  0  0  2  0  0  0  0  0  0
  180.7070  174.0900  137.0460 C   0  0  0  0  0  2  0  0  0  0  0  0
  182.8120  172.6330  136.6020 O   0  0  0  0  0  1  0  0  0  0  0  0
  182.8120  173.7450  135.7610 C   0  0  0  0  0  2  0  0  0  0  0  0
  190.5790  176.3290  142.4730 C   0  0  2  0  0  3  0  0  0  0  0  0
  189.2990  175.5610  142.7780 C   0  0  0  0  0  1  0  0  0  0  0  0
  190.8300  177.2470  143.5010 O   0  0  0  0  0  0  0  0  0  0  0  0
  189.1060  178.1360  144.9430 C   0  0  2  0  0  3  0  0  0  0  0  0
  191.9880  176.6300  146.0520 C   0  0  0  0  0  2  0  0  0  0  0  0
  189.9370  176.9230  144.5210 C   0  0  2  0  0  3  0  0  0  0  0  0
  191.5170  176.7640  147.4890 C   0  0  0  0  0  2  0  0  0  0  0  0
  189.9150  179.2270  145.1900 O   0  0  0  0  0  1  0  0  0  0  0  0
  188.2780  177.8010  146.1660 C   0  0  1  0  0  3  0  0  0  0  0  0
  190.6160  176.1210  145.6550 C   0  0  2  0  0  3  0  0  0  0  0  0
  189.1960  177.5290  147.3350 C   0  0  0  0  0  2  0  0  0  0  0  0
  190.1160  176.3310  147.0910 C   0  0  2  0  0  3  0  0  0  0  0  0
  187.3690  178.8940  146.5030 N   0  0  0  0  0  2  0  0  0  0  0  0
  186.0400  178.3250  146.6840 C   0  0  2  0  0  3  0  0  0  0  0  0
  186.1550  176.8290  146.9180 C   0  0  0  0  0  1  0  0  0  0  0  0
  184.7470  178.7320  143.1370 C   0  0  0  0  0  0  0  0  0  0  0  0
  185.1340  178.6320  145.5190 C   0  0  0  0  0  0  0  0  0  0  0  0
  185.6090  178.4960  144.2070 C   0  0  0  0  0  3  0  0  0  0  0  0
  182.9740  179.1870  144.6920 C   0  0  0  0  0  3  0  0  0  0  0  0
  183.8300  178.9740  145.7230 N   0  0  0  0  0  0  0  0  0  0  0  0
  183.4170  179.0690  143.3750 C   0  0  0  0  0  3  0  0  0  0  0  0
  185.2490  178.6240  141.7480 C   0  0  0  0  0  1  0  0  0  0  0  0
  1 31  1  0  0  0  0
  2 15  1  1  0  0  0
  2 12  1  0  0  0  0
  4  1  1  0  0  0  0
  4  9  1  1  0  0  0
  5  3  2  0  0  0  0
  5 17  1  0  0  0  0
  6  3  1  6  0  0  0
  6 15  1  0  0  0  0
  6  2  1  0  0  0  0
  7 16  1  0  0  0  0
  7 14  2  0  0  0  0
  8  7  1  0  0  0  0
 10  1  2  0  0  0  0
 11 17  1  0  0  0  0
 11  8  1  0  0  0  0
 12 14  1  0  0  0  0
 13  4  1  0  0  0  0
 14 10  1  0  0  0  0
 16 13  2  0  0  0  0
 18 21  1  0  0  0  0
 18 19  2  0  0  0  0
 20  3  1  0  0  0  0
 20 21  1  0  0  0  0
 22 20  2  0  0  0  0
 23 18  1  0  0  0  0
 24 28  1  0  0  0  0
 25 23  1  1  0  0  0
 25 27  1  0  0  0  0
 25 26  1  0  0  0  0
 26 30  1  6  0  0  0
 26 28  1  0  0  0  0
 27 24  1  0  0  0  0
 30 29  1  0  0  0  0
 31 32  1  1  0  0  0
 31 33  1  0  0  0  0
 34 38  1  1  0  0  0
 34 39  1  0  0  0  0
 35 37  1  0  0  0  0
 36 33  1  6  0  0  0
 36 34  1  0  0  0  0
 36 40  1  0  0  0  0
 39 43  1  1  0  0  0
 39 41  1  0  0  0  0
 40 35  1  1  0  0  0
 40 42  1  0  0  0  0
 42 41  1  6  0  0  0
 42 37  1  0  0  0  0
 43 44  1  0  0  0  0
 44 45  1  6  0  0  0
 46 51  2  0  0  0  0
 46 48  1  0  0  0  0
 47 50  1  0  0  0  0
 47 44  1  0  0  0  0
 48 47  2  0  0  0  0
 49 50  2  0  0  0  0
 51 49  1  0  0  0  0
 52 46  1  0  0  0  0
M  END
>  <MODEL>
3

>  <REMARK>
 VINA RESULT:      -7.4      1.743      2.231
  Name = 
  10 active torsions:
  status: ('A' for Active; 'I' for Inactive)
    1  A    between atoms: C_1  and  C_30
    2  A    between atoms: C_6  and  C_30
    3  A    between atoms: C_8  and  C_33
    4  A    between atoms: C_9  and  O_18
    5  A    between atoms: C_10  and  C_16
    6  A    between atoms: C_12  and  C_52
    7  A    between atoms: C_13  and  C_17
    8  A    between atoms: C_16  and  N_48
    9  A    between atoms: O_18  and  C_33
   10  A    between atoms: C_23  and  N_48
                            x       y       z     vdW  Elec       q    Type
                         _______ _______ _______ _____ _____    ______ ____

>  <TORSDO>
F 10

$$$$
=
 OpenBabel11032421183D

 52 58  0  0  1  0  0  0  0  0999 V2000
  190.5670  177.3900  144.7830 C   0  0  0  0  0  0  0  0  0  0  0  0
  186.0910  178.0390  143.6250 C   0  0  1  0  0  3  0  0  0  0  0  0
  184.0670  178.9590  144.5440 C   0  0  0  0  0  0  0  0  0  0  0  0
  190.6560  176.6140  146.0710 C   0  0  1  0  0  3  0  0  0  0  0  0
  184.5170  179.7980  145.4890 C   0  0  0  0  0  3  0  0  0  0  0  0
  184.7920  177.6840  144.2380 C   0  0  1  0  0  3  0  0  0  0  0  0
  187.8000  177.3650  146.1970 C   0  0  0  0  0  0  0  0  0  0  0  0
  186.3850  177.1830  146.6990 C   0  0  0  0  0  2  0  0  0  0  0  0
  192.0350  176.2740  146.4100 N   0  0  0  0  0  1  0  0  0  0  0  0
  189.3570  177.6460  144.2540 C   0  0  0  0  0  3  0  0  0  0  0  0
  185.7680  178.4800  147.2470 C   0  0  0  0  0  2  0  0  0  0  0  0
  187.0170  177.0350  143.9680 O   0  0  0  0  0  0  0  0  0  0  0  0
  190.0810  177.3980  147.1570 N   0  0  0  0  0  0  0  0  0  0  0  0
  188.0450  177.3220  144.8600 C   0  0  0  0  0  0  0  0  0  0  0  0
  185.0360  177.5170  142.8660 O   0  0  0  0  0  0  0  0  0  0  0  0
  188.8150  177.7070  147.2260 C   0  0  0  0  0  3  0  0  0  0  0  0
  185.8010  179.6300  146.2380 C   0  0  0  0  0  2  0  0  0  0  0  0
  180.5790  178.3500  143.0350 C   0  0  0  0  0  0  0  0  0  0  0  0
  179.6440  177.5840  143.3240 O   0  0  0  0  0  0  0  0  0  0  0  0
  182.8130  179.2670  143.8380 C   0  0  0  0  0  0  0  0  0  0  0  0
  181.7610  178.2930  143.8290 N   0  0  0  0  0  2  0  0  0  0  0  0
  182.6630  180.3840  143.2690 O   0  0  0  0  0  0  0  0  0  0  0  0
  180.4370  179.3190  141.8930 C   0  0  0  0  0  2  0  0  0  0  0  0
  181.5750  176.5300  139.8440 C   0  0  0  0  0  2  0  0  0  0  0  0
  180.7690  178.6910  140.5540 C   0  0  1  0  0  3  0  0  0  0  0  0
  182.2650  178.8090  140.2800 C   0  0  1  0  0  3  0  0  0  0  0  0
  180.4500  177.2130  140.5860 C   0  0  0  0  0  2  0  0  0  0  0  0
  182.7980  177.3980  140.0870 C   0  0  0  0  0  2  0  0  0  0  0  0
  183.6930  180.3090  139.1020 O   0  0  0  0  0  1  0  0  0  0  0  0
  182.4790  179.6270  139.0220 C   0  0  0  0  0  2  0  0  0  0  0  0
  191.8060  177.9250  144.0920 C   0  0  2  0  0  3  0  0  0  0  0  0
  191.5740  179.3480  143.5970 C   0  0  0  0  0  1  0  0  0  0  0  0
  192.1860  177.1120  143.0170 O   0  0  0  0  0  0  0  0  0  0  0  0
  190.3120  177.0640  141.4900 C   0  0  2  0  0  3  0  0  0  0  0  0
  193.5960  176.6790  140.5560 C   0  0  0  0  0  2  0  0  0  0  0  0
  191.6420  177.7100  141.8810 C   0  0  2  0  0  3  0  0  0  0  0  0
  193.1840  176.6150  139.0970 C   0  0  0  0  0  2  0  0  0  0  0  0
  190.4280  175.6890  141.4350 O   0  0  0  0  0  1  0  0  0  0  0  0
  189.8380  177.6100  140.1600 C   0  0  1  0  0  3  0  0  0  0  0  0
  192.6880  177.8770  140.7550 C   0  0  2  0  0  3  0  0  0  0  0  0
  190.8070  177.2010  139.0740 C   0  0  0  0  0  2  0  0  0  0  0  0
  192.2120  177.7640  139.3000 C   0  0  2  0  0  3  0  0  0  0  0  0
  188.5030  177.1170  139.8320 N   0  0  0  0  0  2  0  0  0  0  0  0
  187.7360  178.2360  139.2970 C   0  0  2  0  0  3  0  0  0  0  0  0
  186.6650  178.6400  140.2950 C   0  0  0  0  0  1  0  0  0  0  0  0
  185.2620  177.2280  136.6000 C   0  0  0  0  0  0  0  0  0  0  0  0
  187.1430  177.9170  137.9500 C   0  0  0  0  0  0  0  0  0  0  0  0
  185.8170  177.4700  137.8560 C   0  0  0  0  0  3  0  0  0  0  0  0
  187.3250  177.9150  135.5780 C   0  0  0  0  0  3  0  0  0  0  0  0
  187.8570  178.1260  136.8070 N   0  0  0  0  0  0  0  0  0  0  0  0
  186.0120  177.4610  135.4500 C   0  0  0  0  0  3  0  0  0  0  0  0
  183.8740  176.7230  136.4920 C   0  0  0  0  0  1  0  0  0  0  0  0
  1  4  1  0  0  0  0
  2 15  1  6  0  0  0
  2 12  1  0  0  0  0
  2  6  1  0  0  0  0
  3  5  2  0  0  0  0
  4  9  1  1  0  0  0
  4 13  1  0  0  0  0
  5 17  1  0  0  0  0
  6 15  1  6  0  0  0
  6  3  1  0  0  0  0
  7  8  1  0  0  0  0
  7 16  1  0  0  0  0
  8 11  1  0  0  0  0
 10  1  2  0  0  0  0
 10 14  1  0  0  0  0
 12 14  1  0  0  0  0
 13 16  2  0  0  0  0
 14  7  2  0  0  0  0
 17 11  1  0  0  0  0
 18 19  2  0  0  0  0
 18 21  1  0  0  0  0
 20  3  1  0  0  0  0
 21 20  1  0  0  0  0
 22 20  2  0  0  0  0
 23 18  1  0  0  0  0
 24 28  1  0  0  0  0
 24 27  1  0  0  0  0
 25 27  1  0  0  0  0
 25 23  1  1  0  0  0
 26 30  1  6  0  0  0
 26 25  1  0  0  0  0
 28 26  1  0  0  0  0
 30 29  1  0  0  0  0
 31 32  1  6  0  0  0
 31  1  1  0  0  0  0
 33 31  1  0  0  0  0
 34 38  1  6  0  0  0
 34 36  1  0  0  0  0
 36 33  1  1  0  0  0
 37 42  1  0  0  0  0
 37 35  1  0  0  0  0
 39 43  1  6  0  0  0
 39 34  1  0  0  0  0
 40 35  1  1  0  0  0
 40 36  1  0  0  0  0
 41 39  1  0  0  0  0
 42 41  1  1  0  0  0
 42 40  1  0  0  0  0
 44 43  1  0  0  0  0
 44 45  1  1  0  0  0
 46 48  1  0  0  0  0
 47 44  1  0  0  0  0
 48 47  2  0  0  0  0
 49 50  2  0  0  0  0
 50 47  1  0  0  0  0
 51 49  1  0  0  0  0
 51 46  2  0  0  0  0
 52 46  1  0  0  0  0
M  END
>  <MODEL>
4

>  <REMARK>
 VINA RESULT:      -7.4      2.209      6.434
  Name = 
  10 active torsions:
  status: ('A' for Active; 'I' for Inactive)
    1  A    between atoms: C_1  and  C_30
    2  A    between atoms: C_6  and  C_30
    3  A    between atoms: C_8  and  C_33
    4  A    between atoms: C_9  and  O_18
    5  A    between atoms: C_10  and  C_16
    6  A    between atoms: C_12  and  C_52
    7  A    between atoms: C_13  and  C_17
    8  A    between atoms: C_16  and  N_48
    9  A    between atoms: O_18  and  C_33
   10  A    between atoms: C_23  and  N_48
                            x       y       z     vdW  Elec       q    Type
                         _______ _______ _______ _____ _____    ______ ____

>  <TORSDO>
F 10

$$$$
=
 OpenBabel11032421183D

 52 58  0  0  1  0  0  0  0  0999 V2000
  183.7220  178.5430  141.9850 C   0  0  0  0  0  0  0  0  0  0  0  0
  188.0260  178.1790  140.2140 C   0  0  1  0  0  3  0  0  0  0  0  0
  190.1580  177.2000  140.7450 C   0  0  0  0  0  0  0  0  0  0  0  0
  183.7850  179.1370  143.3680 C   0  0  1  0  0  3  0  0  0  0  0  0
  189.8380  176.2300  141.6150 C   0  0  0  0  0  3  0  0  0  0  0  0
  189.3880  178.4840  140.7060 C   0  0  1  0  0  3  0  0  0  0  0  0
  186.6430  178.4550  143.0420 C   0  0  0  0  0  0  0  0  0  0  0  0
  188.1070  178.6060  143.3880 C   0  0  0  0  0  2  0  0  0  0  0  0
  182.4560  179.3900  143.9150 N   0  0  0  0  0  1  0  0  0  0  0  0
  184.8590  178.3940  141.2830 C   0  0  0  0  0  3  0  0  0  0  0  0
  188.8020  177.2660  143.6750 C   0  0  0  0  0  2  0  0  0  0  0  0
  187.1390  179.1020  140.8000 O   0  0  0  0  0  0  0  0  0  0  0  0
  184.4990  178.2310  144.2590 N   0  0  0  0  0  0  0  0  0  0  0  0
  186.2330  178.6690  141.7630 C   0  0  0  0  0  0  0  0  0  0  0  0
  188.9730  178.8260  139.4100 O   0  0  0  0  0  0  0  0  0  0  0  0
  185.7680  177.9500  144.1310 C   0  0  0  0  0  3  0  0  0  0  0  0
  188.6560  176.2600  142.5300 C   0  0  0  0  0  2  0  0  0  0  0  0
  192.1720  175.9600  137.7080 C   0  0  0  0  0  0  0  0  0  0  0  0
  191.8650  175.6670  136.5400 O   0  0  0  0  0  0  0  0  0  0  0  0
  191.3180  177.0240  139.8570 C   0  0  0  0  0  0  0  0  0  0  0  0
  191.1330  176.3840  138.5870 N   0  0  0  0  0  2  0  0  0  0  0  0
  192.4550  177.4510  140.2050 O   0  0  0  0  0  0  0  0  0  0  0  0
  193.6070  175.8860  138.1540 C   0  0  0  0  0  2  0  0  0  0  0  0
  196.4880  173.6650  137.9780 C   0  0  0  0  0  2  0  0  0  0  0  0
  194.3190  174.6590  137.6190 C   0  0  1  0  0  3  0  0  0  0  0  0
  195.2170  175.0470  136.4500 C   0  0  1  0  0  3  0  0  0  0  0  0
  195.2220  174.0840  138.6880 C   0  0  0  0  0  2  0  0  0  0  0  0
  196.6340  174.6330  136.8170 C   0  0  0  0  0  2  0  0  0  0  0  0
  193.9290  173.2520  135.5610 O   0  0  0  0  0  1  0  0  0  0  0  0
  194.7630  174.3120  135.2060 C   0  0  0  0  0  2  0  0  0  0  0  0
  182.4130  178.0710  141.3830 C   0  0  2  0  0  3  0  0  0  0  0  0
  182.6310  176.8320  140.5230 C   0  0  0  0  0  1  0  0  0  0  0  0
  181.8100  179.0740  140.6130 O   0  0  0  0  0  0  0  0  0  0  0  0
  182.2490  178.4810  138.3120 C   0  0  2  0  0  3  0  0  0  0  0  0
  179.5530  180.3310  139.3660 C   0  0  0  0  0  2  0  0  0  0  0  0
  181.2830  178.4270  139.4970 C   0  0  2  0  0  3  0  0  0  0  0  0
  179.0120  180.3700  137.9490 C   0  0  0  0  0  2  0  0  0  0  0  0
  182.6920  179.7700  138.0930 O   0  0  0  0  0  1  0  0  0  0  0  0
  181.5800  177.9310  137.0690 C   0  0  1  0  0  3  0  0  0  0  0  0
  179.8210  178.8460  139.2180 C   0  0  2  0  0  3  0  0  0  0  0  0
  180.4290  178.8300  136.6780 C   0  0  0  0  0  2  0  0  0  0  0  0
  179.3480  178.9010  137.7590 C   0  0  2  0  0  3  0  0  0  0  0  0
  182.5240  177.8370  135.9590 N   0  0  0  0  0  2  0  0  0  0  0  0
  182.8950  176.4350  135.8090 C   0  0  2  0  0  3  0  0  0  0  0  0
  181.8840  175.5640  136.5320 C   0  0  0  0  0  1  0  0  0  0  0  0
  186.0300  174.6180  136.9400 C   0  0  0  0  0  0  0  0  0  0  0  0
  184.2970  176.1700  136.2910 C   0  0  0  0  0  0  0  0  0  0  0  0
  184.7140  174.8560  136.5440 C   0  0  0  0  0  3  0  0  0  0  0  0
  186.4820  176.9710  136.7820 C   0  0  0  0  0  3  0  0  0  0  0  0
  185.1940  177.1890  136.4170 N   0  0  0  0  0  0  0  0  0  0  0  0
  186.9270  175.6770  137.0500 C   0  0  0  0  0  3  0  0  0  0  0  0
  186.4700  173.2370  137.2420 C   0  0  0  0  0  1  0  0  0  0  0  0
  1  4  1  0  0  0  0
  2 15  1  6  0  0  0
  2  6  1  0  0  0  0
  2 12  1  0  0  0  0
  3  5  2  0  0  0  0
  4  9  1  1  0  0  0
  4 13  1  0  0  0  0
  5 17  1  0  0  0  0
  6 15  1  6  0  0  0
  6  3  1  0  0  0  0
  7  8  1  0  0  0  0
  7 16  1  0  0  0  0
  8 11  1  0  0  0  0
 10 14  1  0  0  0  0
 10  1  2  0  0  0  0
 12 14  1  0  0  0  0
 14  7  2  0  0  0  0
 16 13  2  0  0  0  0
 17 11  1  0  0  0  0
 18 23  1  0  0  0  0
 18 21  1  0  0  0  0
 19 18  2  0  0  0  0
 20 22  2  0  0  0  0
 20  3  1  0  0  0  0
 21 20  1  0  0  0  0
 24 27  1  0  0  0  0
 25 23  1  1  0  0  0
 25 27  1  0  0  0  0
 26 30  1  6  0  0  0
 26 28  1  0  0  0  0
 26 25  1  0  0  0  0
 28 24  1  0  0  0  0
 30 29  1  0  0  0  0
 31 32  1  6  0  0  0
 31  1  1  0  0  0  0
 33 31  1  0  0  0  0
 34 38  1  6  0  0  0
 34 36  1  0  0  0  0
 36 33  1  1  0  0  0
 37 35  1  0  0  0  0
 39 43  1  6  0  0  0
 39 34  1  0  0  0  0
 40 35  1  6  0  0  0
 40 36  1  0  0  0  0
 41 39  1  0  0  0  0
 42 41  1  6  0  0  0
 42 37  1  0  0  0  0
 42 40  1  0  0  0  0
 44 43  1  0  0  0  0
 44 47  1  0  0  0  0
 44 45  1  1  0  0  0
 46 51  1  0  0  0  0
 46 52  1  0  0  0  0
 47 50  2  0  0  0  0
 47 48  1  0  0  0  0
 48 46  2  0  0  0  0
 49 51  2  0  0  0  0
 50 49  1  0  0  0  0
M  END
>  <MODEL>
5

>  <REMARK>
 VINA RESULT:      -7.3      3.012     10.465
  Name = 
  10 active torsions:
  status: ('A' for Active; 'I' for Inactive)
    1  A    between atoms: C_1  and  C_30
    2  A    between atoms: C_6  and  C_30
    3  A    between atoms: C_8  and  C_33
    4  A    between atoms: C_9  and  O_18
    5  A    between atoms: C_10  and  C_16
    6  A    between atoms: C_12  and  C_52
    7  A    between atoms: C_13  and  C_17
    8  A    between atoms: C_16  and  N_48
    9  A    between atoms: O_18  and  C_33
   10  A    between atoms: C_23  and  N_48
                            x       y       z     vdW  Elec       q    Type
                         _______ _______ _______ _____ _____    ______ ____

>  <TORSDO>
F 10

$$$$
=
 OpenBabel11032421183D

 52 58  0  0  1  0  0  0  0  0999 V2000
  187.3400  177.8330  139.6630 C   0  0  0  0  0  0  0  0  0  0  0  0
  190.3100  174.8710  137.6140 C   0  0  1  0  0  3  0  0  0  0  0  0
  191.7600  174.7490  135.6990 C   0  0  0  0  0  0  0  0  0  0  0  0
  186.2780  178.2550  138.6810 C   0  0  1  0  0  3  0  0  0  0  0  0
  191.9780  176.0390  135.4000 C   0  0  0  0  0  3  0  0  0  0  0  0
  190.4450  174.2990  136.2560 C   0  0  1  0  0  3  0  0  0  0  0  0
  188.2050  177.0730  136.7760 C   0  0  0  0  0  0  0  0  0  0  0  0
  188.5700  176.4600  135.4430 C   0  0  0  0  0  2  0  0  0  0  0  0
  185.2510  179.0810  139.3080 N   0  0  0  0  0  1  0  0  0  0  0  0
  188.2720  176.9430  139.2770 C   0  0  0  0  0  3  0  0  0  0  0  0
  189.7840  177.1320  134.7810 C   0  0  0  0  0  2  0  0  0  0  0  0
  188.9400  175.0790  137.8590 O   0  0  0  0  0  0  0  0  0  0  0  0
  186.8880  179.0040  137.5900 N   0  0  0  0  0  0  0  0  0  0  0  0
  188.4410  176.3770  137.9190 C   0  0  0  0  0  0  0  0  0  0  0  0
  190.5880  173.5130  137.4090 O   0  0  0  0  0  0  0  0  0  0  0  0
  187.7190  178.4760  136.7330 C   0  0  0  0  0  3  0  0  0  0  0  0
  191.0210  177.1530  135.6820 C   0  0  0  0  0  2  0  0  0  0  0  0
  193.7840  171.4960  136.0750 C   0  0  0  0  0  0  0  0  0  0  0  0
  193.4970  170.3490  136.4570 O   0  0  0  0  0  0  0  0  0  0  0  0
  192.8090  173.7540  135.4200 C   0  0  0  0  0  0  0  0  0  0  0  0
  192.7540  172.4810  136.0780 N   0  0  0  0  0  2  0  0  0  0  0  0
  193.7300  174.0160  134.5960 O   0  0  0  0  0  0  0  0  0  0  0  0
  195.1780  171.8090  135.6030 C   0  0  0  0  0  2  0  0  0  0  0  0
  195.5610  173.4790  138.8170 C   0  0  0  0  0  2  0  0  0  0  0  0
  196.0230  172.4600  136.6790 C   0  0  1  0  0  3  0  0  0  0  0  0
  196.0260  173.9740  136.4930 C   0  0  1  0  0  3  0  0  0  0  0  0
  195.4200  172.1910  138.0390 C   0  0  0  0  0  2  0  0  0  0  0  0
  195.4840  174.5840  137.7770 C   0  0  0  0  0  2  0  0  0  0  0  0
  197.7540  175.4900  137.1180 O   0  0  0  0  0  1  0  0  0  0  0  0
  197.4450  174.4450  136.2480 C   0  0  0  0  0  2  0  0  0  0  0  0
  187.4070  178.4180  141.0590 C   0  0  2  0  0  3  0  0  0  0  0  0
  188.8290  178.8520  141.3940 C   0  0  0  0  0  1  0  0  0  0  0  0
  186.9580  177.5050  142.0210 O   0  0  0  0  0  0  0  0  0  0  0  0
  187.1380  177.3210  144.4250 C   0  0  2  0  0  3  0  0  0  0  0  0
  184.3600  178.4700  142.7620 C   0  0  0  0  0  2  0  0  0  0  0  0
  186.8830  178.2210  143.2150 C   0  0  2  0  0  3  0  0  0  0  0  0
  183.6780  178.7680  144.0850 C   0  0  0  0  0  2  0  0  0  0  0  0
  186.3560  176.1840  144.3680 O   0  0  0  0  0  1  0  0  0  0  0  0
  186.8750  178.0820  145.7060 C   0  0  1  0  0  3  0  0  0  0  0  0
  185.6290  179.1230  143.2750 C   0  0  2  0  0  3  0  0  0  0  0  0
  185.4090  178.4410  145.7860 C   0  0  0  0  0  2  0  0  0  0  0  0
  184.9650  179.3530  144.6400 C   0  0  2  0  0  3  0  0  0  0  0  0
  187.2480  177.2920  146.8770 N   0  0  0  0  0  2  0  0  0  0  0  0
  188.4630  177.8720  147.4350 C   0  0  2  0  0  3  0  0  0  0  0  0
  188.3830  179.3860  147.3600 C   0  0  0  0  0  1  0  0  0  0  0  0
  191.2720  177.4330  144.9200 C   0  0  0  0  0  0  0  0  0  0  0  0
  189.7000  177.3500  146.7510 C   0  0  0  0  0  0  0  0  0  0  0  0
  190.0980  177.8860  145.5180 C   0  0  0  0  0  3  0  0  0  0  0  0
  191.6380  175.9720  146.7910 C   0  0  0  0  0  3  0  0  0  0  0  0
  190.4830  176.4090  147.3510 N   0  0  0  0  0  0  0  0  0  0  0  0
  192.0580  176.4780  145.5610 C   0  0  0  0  0  3  0  0  0  0  0  0
  191.6830  177.9690  143.6020 C   0  0  0  0  0  1  0  0  0  0  0  0
  1 31  1  0  0  0  0
  2 15  1  1  0  0  0
  2 12  1  0  0  0  0
  4  9  1  1  0  0  0
  4  1  1  0  0  0  0
  5 17  1  0  0  0  0
  5  3  2  0  0  0  0
  6  3  1  1  0  0  0
  6 15  1  0  0  0  0
  6  2  1  0  0  0  0
  7 14  2  0  0  0  0
  8  7  1  0  0  0  0
 10  1  2  0  0  0  0
 11  8  1  0  0  0  0
 11 17  1  0  0  0  0
 12 14  1  0  0  0  0
 13  4  1  0  0  0  0
 14 10  1  0  0  0  0
 16  7  1  0  0  0  0
 16 13  2  0  0  0  0
 18 21  1  0  0  0  0
 18 19  2  0  0  0  0
 20  3  1  0  0  0  0
 20 21  1  0  0  0  0
 22 20  2  0  0  0  0
 23 18  1  0  0  0  0
 25 23  1  6  0  0  0
 25 27  1  0  0  0  0
 26 30  1  1  0  0  0
 26 25  1  0  0  0  0
 26 28  1  0  0  0  0
 27 24  1  0  0  0  0
 28 24  1  0  0  0  0
 30 29  1  0  0  0  0
 31 32  1  1  0  0  0
 31 33  1  0  0  0  0
 34 38  1  6  0  0  0
 34 39  1  0  0  0  0
 35 37  1  0  0  0  0
 36 33  1  6  0  0  0
 36 40  1  0  0  0  0
 36 34  1  0  0  0  0
 39 41  1  0  0  0  0
 39 43  1  1  0  0  0
 40 35  1  6  0  0  0
 40 42  1  0  0  0  0
 42 37  1  6  0  0  0
 42 41  1  0  0  0  0
 43 44  1  0  0  0  0
 44 45  1  6  0  0  0
 46 48  2  0  0  0  0
 46 51  1  0  0  0  0
 47 50  2  0  0  0  0
 47 44  1  0  0  0  0
 48 47  1  0  0  0  0
 49 50  1  0  0  0  0
 51 49  2  0  0  0  0
 52 46  1  0  0  0  0
M  END
>  <MODEL>
6

>  <REMARK>
 VINA RESULT:      -6.8      4.177      9.128
  Name = 
  10 active torsions:
  status: ('A' for Active; 'I' for Inactive)
    1  A    between atoms: C_1  and  C_30
    2  A    between atoms: C_6  and  C_30
    3  A    between atoms: C_8  and  C_33
    4  A    between atoms: C_9  and  O_18
    5  A    between atoms: C_10  and  C_16
    6  A    between atoms: C_12  and  C_52
    7  A    between atoms: C_13  and  C_17
    8  A    between atoms: C_16  and  N_48
    9  A    between atoms: O_18  and  C_33
   10  A    between atoms: C_23  and  N_48
                            x       y       z     vdW  Elec       q    Type
                         _______ _______ _______ _____ _____    ______ ____

>  <TORSDO>
F 10

$$$$
=
 OpenBabel11032421183D

 52 58  0  0  1  0  0  0  0  0999 V2000
  190.2910  176.4320  138.6310 C   0  0  0  0  0  0  0  0  0  0  0  0
  185.8310  176.0480  137.3090 C   0  0  1  0  0  3  0  0  0  0  0  0
  184.2170  174.3550  136.7440 C   0  0  0  0  0  0  0  0  0  0  0  0
  191.1840  175.7450  137.6300 C   0  0  1  0  0  3  0  0  0  0  0  0
  184.7120  173.2550  137.3330 C   0  0  0  0  0  3  0  0  0  0  0  0
  185.1280  175.4010  136.1780 C   0  0  1  0  0  3  0  0  0  0  0  0
  188.5930  174.6080  136.7750 C   0  0  0  0  0  0  0  0  0  0  0  0
  187.6870  173.9430  135.7620 C   0  0  0  0  0  2  0  0  0  0  0  0
  192.5970  175.9470  137.9310 N   0  0  0  0  0  1  0  0  0  0  0  0
  188.9650  176.4710  138.4090 C   0  0  0  0  0  3  0  0  0  0  0  0
  186.9620  172.7080  136.3200 C   0  0  0  0  0  2  0  0  0  0  0  0
  187.0940  176.4630  136.8490 O   0  0  0  0  0  0  0  0  0  0  0  0
  190.9000  174.3150  137.6200 N   0  0  0  0  0  0  0  0  0  0  0  0
  188.2380  175.8120  137.2990 C   0  0  0  0  0  0  0  0  0  0  0  0
  184.8000  176.6940  136.6130 O   0  0  0  0  0  0  0  0  0  0  0  0
  189.7650  173.8110  137.2180 C   0  0  0  0  0  3  0  0  0  0  0  0
  186.1640  173.0060  137.5910 C   0  0  0  0  0  2  0  0  0  0  0  0
  180.8740  176.0590  135.8850 C   0  0  0  0  0  0  0  0  0  0  0  0
  180.5430  176.9240  135.0570 O   0  0  0  0  0  0  0  0  0  0  0  0
  182.7610  174.5070  136.5990 C   0  0  0  0  0  0  0  0  0  0  0  0
  182.2430  175.6650  135.9310 N   0  0  0  0  0  2  0  0  0  0  0  0
  181.9830  173.6150  137.0410 O   0  0  0  0  0  0  0  0  0  0  0  0
  179.8410  175.4400  136.7860 C   0  0  0  0  0  2  0  0  0  0  0  0
  180.7360  178.1210  139.0830 C   0  0  0  0  0  2  0  0  0  0  0  0
  179.6480  176.2190  138.0710 C   0  0  1  0  0  3  0  0  0  0  0  0
  180.6050  175.7040  139.1410 C   0  0  1  0  0  3  0  0  0  0  0  0
  179.9930  177.6750  137.8460 C   0  0  0  0  0  2  0  0  0  0  0  0
  181.4600  176.8820  139.5820 C   0  0  0  0  0  2  0  0  0  0  0  0
  179.4680  173.8360  140.0850 O   0  0  0  0  0  1  0  0  0  0  0  0
  179.8050  175.1700  140.3110 C   0  0  0  0  0  2  0  0  0  0  0  0
  190.8470  177.0430  139.9020 C   0  0  2  0  0  3  0  0  0  0  0  0
  192.1830  177.7230  139.6330 C   0  0  0  0  0  1  0  0  0  0  0  0
  191.0050  176.0810  140.9080 O   0  0  0  0  0  0  0  0  0  0  0  0
  189.1020  177.4720  141.4420 C   0  0  2  0  0  3  0  0  0  0  0  0
  191.4230  176.3850  143.7300 C   0  0  0  0  0  2  0  0  0  0  0  0
  189.8580  176.1670  141.6950 C   0  0  2  0  0  3  0  0  0  0  0  0
  190.6350  177.0360  144.8520 C   0  0  0  0  0  2  0  0  0  0  0  0
  189.9520  178.5580  141.5150 O   0  0  0  0  0  1  0  0  0  0  0  0
  187.9670  177.6180  142.4330 C   0  0  1  0  0  3  0  0  0  0  0  0
  190.1380  175.8050  143.1720 C   0  0  2  0  0  3  0  0  0  0  0  0
  188.5320  177.7580  143.8280 C   0  0  0  0  0  2  0  0  0  0  0  0
  189.3330  176.5270  144.2610 C   0  0  2  0  0  3  0  0  0  0  0  0
  187.1420  178.7830  142.1230 N   0  0  0  0  0  2  0  0  0  0  0  0
  185.8000  178.3060  141.8110 C   0  0  2  0  0  3  0  0  0  0  0  0
  185.2940  178.9960  140.5570 C   0  0  0  0  0  1  0  0  0  0  0  0
  184.4500  178.6370  145.3440 C   0  0  0  0  0  0  0  0  0  0  0  0
  184.8520  178.5000  142.9670 C   0  0  0  0  0  0  0  0  0  0  0  0
  185.3240  178.4040  144.2840 C   0  0  0  0  0  3  0  0  0  0  0  0
  182.6930  179.0890  143.7710 C   0  0  0  0  0  3  0  0  0  0  0  0
  183.5500  178.8400  142.7500 N   0  0  0  0  0  0  0  0  0  0  0  0
  183.1280  178.9930  145.0920 C   0  0  0  0  0  3  0  0  0  0  0  0
  184.9310  178.5050  146.7390 C   0  0  0  0  0  1  0  0  0  0  0  0
  1 31  1  0  0  0  0
  2 15  1  6  0  0  0
  3  5  2  0  0  0  0
  4  9  1  1  0  0  0
  4  1  1  0  0  0  0
  5 17  1  0  0  0  0
  6 15  1  1  0  0  0
  6  3  1  0  0  0  0
  6  2  1  0  0  0  0
  7 16  1  0  0  0  0
  7 14  2  0  0  0  0
  8 11  1  0  0  0  0
  8  7  1  0  0  0  0
 10  1  2  0  0  0  0
 11 17  1  0  0  0  0
 12 14  1  0  0  0  0
 12  2  1  0  0  0  0
 13  4  1  0  0  0  0
 14 10  1  0  0  0  0
 16 13  2  0  0  0  0
 18 21  1  0  0  0  0
 18 23  1  0  0  0  0
 19 18  2  0  0  0  0
 20  3  1  0  0  0  0
 20 22  2  0  0  0  0
 21 20  1  0  0  0  0
 24 28  1  0  0  0  0
 25 23  1  6  0  0  0
 25 26  1  0  0  0  0
 26 28  1  0  0  0  0
 26 30  1  1  0  0  0
 27 25  1  0  0  0  0
 27 24  1  0  0  0  0
 29 30  1  0  0  0  0
 31 32  1  6  0  0  0
 31 33  1  0  0  0  0
 34 38  1  1  0  0  0
 34 36  1  0  0  0  0
 34 39  1  0  0  0  0
 35 37  1  0  0  0  0
 36 33  1  6  0  0  0
 36 40  1  0  0  0  0
 39 43  1  6  0  0  0
 39 41  1  0  0  0  0
 40 35  1  1  0  0  0
 40 42  1  0  0  0  0
 42 41  1  6  0  0  0
 42 37  1  0  0  0  0
 44 45  1  6  0  0  0
 44 43  1  0  0  0  0
 44 47  1  0  0  0  0
 46 52  1  0  0  0  0
 47 48  1  0  0  0  0
 48 46  2  0  0  0  0
 49 51  2  0  0  0  0
 50 47  2  0  0  0  0
 50 49  1  0  0  0  0
 51 46  1  0  0  0  0
M  END
>  <MODEL>
7

>  <REMARK>
 VINA RESULT:      -6.7      2.060      3.292
  Name = 
  10 active torsions:
  status: ('A' for Active; 'I' for Inactive)
    1  A    between atoms: C_1  and  C_30
    2  A    between atoms: C_6  and  C_30
    3  A    between atoms: C_8  and  C_33
    4  A    between atoms: C_9  and  O_18
    5  A    between atoms: C_10  and  C_16
    6  A    between atoms: C_12  and  C_52
    7  A    between atoms: C_13  and  C_17
    8  A    between atoms: C_16  and  N_48
    9  A    between atoms: O_18  and  C_33
   10  A    between atoms: C_23  and  N_48
                            x       y       z     vdW  Elec       q    Type
                         _______ _______ _______ _____ _____    ______ ____

>  <TORSDO>
F 10

$$$$
=
 OpenBabel11032421183D

 52 58  0  0  1  0  0  0  0  0999 V2000
  188.0610  176.6680  136.9620 C   0  0  0  0  0  0  0  0  0  0  0  0
  189.6200  176.7360  141.3610 C   0  0  1  0  0  3  0  0  0  0  0  0
  191.5830  177.3500  142.6090 C   0  0  0  0  0  0  0  0  0  0  0  0
  189.0070  175.8770  136.0940 C   0  0  1  0  0  3  0  0  0  0  0  0
  192.2020  178.2180  141.7940 C   0  0  0  0  0  3  0  0  0  0  0  0
  190.8080  176.1930  142.0570 C   0  0  1  0  0  3  0  0  0  0  0  0
  190.7520  176.2320  138.4540 C   0  0  0  0  0  0  0  0  0  0  0  0
  191.9280  175.8480  139.3240 C   0  0  0  0  0  2  0  0  0  0  0  0
  188.4980  175.7180  134.7360 N   0  0  0  0  0  1  0  0  0  0  0  0
  188.3110  176.7710  138.2790 C   0  0  0  0  0  3  0  0  0  0  0  0
  192.8470  177.0350  139.6550 C   0  0  0  0  0  2  0  0  0  0  0  0
  189.3000  175.8580  140.3090 O   0  0  0  0  0  0  0  0  0  0  0  0
  190.3000  176.5480  136.0410 N   0  0  0  0  0  0  0  0  0  0  0  0
  189.5040  176.2580  138.9920 C   0  0  0  0  0  0  0  0  0  0  0  0
  189.5190  176.0960  142.6040 O   0  0  0  0  0  0  0  0  0  0  0  0
  191.0830  176.6820  137.0770 C   0  0  0  0  0  3  0  0  0  0  0  0
  192.1020  178.2050  140.3020 C   0  0  0  0  0  2  0  0  0  0  0  0
  191.5080  176.3500  146.3260 C   0  0  0  0  0  0  0  0  0  0  0  0
  191.6840  175.2760  146.9260 O   0  0  0  0  0  0  0  0  0  0  0  0
  191.7160  177.5040  144.0670 C   0  0  0  0  0  0  0  0  0  0  0  0
  191.6040  176.3450  144.9040 N   0  0  0  0  0  2  0  0  0  0  0  0
  191.9460  178.6410  144.5660 O   0  0  0  0  0  0  0  0  0  0  0  0
  191.2270  177.6110  147.0970 C   0  0  0  0  0  2  0  0  0  0  0  0
  187.9740  177.8720  148.7150 C   0  0  0  0  0  2  0  0  0  0  0  0
  189.7580  177.9800  147.0920 C   0  0  1  0  0  3  0  0  0  0  0  0
  188.9120  176.7490  146.7860 C   0  0  1  0  0  3  0  0  0  0  0  0
  189.3440  178.4590  148.4660 C   0  0  0  0  0  2  0  0  0  0  0  0
  187.9610  176.5550  147.9570 C   0  0  0  0  0  2  0  0  0  0  0  0
  188.4450  178.2400  144.9870 O   0  0  0  0  0  1  0  0  0  0  0  0
  188.1300  176.9850  145.5090 C   0  0  0  0  0  2  0  0  0  0  0  0
  186.8590  177.3830  136.3770 C   0  0  2  0  0  3  0  0  0  0  0  0
  186.5190  178.6210  137.1970 C   0  0  0  0  0  1  0  0  0  0  0  0
  185.7410  176.5410  136.3140 O   0  0  0  0  0  0  0  0  0  0  0  0
  184.0130  177.1160  137.9040 C   0  0  2  0  0  3  0  0  0  0  0  0
  183.4270  176.0080  134.7060 C   0  0  0  0  0  2  0  0  0  0  0  0
  184.6370  177.3650  136.5300 C   0  0  2  0  0  3  0  0  0  0  0  0
  181.9330  176.1920  134.9050 C   0  0  0  0  0  2  0  0  0  0  0  0
  183.7950  175.7680  138.1110 O   0  0  0  0  0  1  0  0  0  0  0  0
  182.7190  177.8900  138.0380 C   0  0  1  0  0  3  0  0  0  0  0  0
  183.6710  177.3710  135.3230 C   0  0  2  0  0  3  0  0  0  0  0  0
  181.7100  177.3570  137.0470 C   0  0  0  0  0  2  0  0  0  0  0  0
  182.1690  177.5230  135.5960 C   0  0  2  0  0  3  0  0  0  0  0  0
  182.1770  177.7840  139.3900 N   0  0  0  0  0  2  0  0  0  0  0  0
  182.3230  179.0860  140.0300 C   0  0  2  0  0  3  0  0  0  0  0  0
  182.5970  180.1420  138.9730 C   0  0  0  0  0  1  0  0  0  0  0  0
  184.0510  178.8460  143.4020 C   0  0  0  0  0  0  0  0  0  0  0  0
  183.3950  179.0750  141.0890 C   0  0  0  0  0  0  0  0  0  0  0  0
  183.0470  178.9070  142.4360 C   0  0  0  0  0  3  0  0  0  0  0  0
  185.7010  179.0750  141.6720 C   0  0  0  0  0  3  0  0  0  0  0  0
  184.7120  179.1530  140.7460 N   0  0  0  0  0  0  0  0  0  0  0  0
  185.3890  178.9190  143.0210 C   0  0  0  0  0  3  0  0  0  0  0  0
  183.6910  178.7040  144.8310 C   0  0  0  0  0  1  0  0  0  0  0  0
  1 10  2  0  0  0  0
  2 12  1  6  0  0  0
  2  6  1  0  0  0  0
  2 15  1  0  0  0  0
  3 20  1  0  0  0  0
  4  9  1  6  0  0  0
  4  1  1  0  0  0  0
  5  3  2  0  0  0  0
  6 15  1  1  0  0  0
  6  3  1  0  0  0  0
  7 14  2  0  0  0  0
  7  8  1  0  0  0  0
  8 11  1  0  0  0  0
 10 14  1  0  0  0  0
 11 17  1  0  0  0  0
 13  4  1  0  0  0  0
 13 16  2  0  0  0  0
 14 12  1  0  0  0  0
 16  7  1  0  0  0  0
 17  5  1  0  0  0  0
 18 19  2  0  0  0  0
 18 23  1  0  0  0  0
 20 22  2  0  0  0  0
 20 21  1  0  0  0  0
 21 18  1  0  0  0  0
 25 23  1  1  0  0  0
 25 27  1  0  0  0  0
 26 30  1  6  0  0  0
 26 25  1  0  0  0  0
 26 28  1  0  0  0  0
 27 24  1  0  0  0  0
 28 24  1  0  0  0  0
 29 30  1  0  0  0  0
 31  1  1  0  0  0  0
 31 32  1  1  0  0  0
 33 31  1  0  0  0  0
 34 39  1  0  0  0  0
 34 38  1  6  0  0  0
 35 37  1  0  0  0  0
 36 33  1  6  0  0  0
 36 34  1  0  0  0  0
 39 43  1  1  0  0  0
 40 35  1  1  0  0  0
 40 42  1  0  0  0  0
 40 36  1  0  0  0  0
 41 39  1  0  0  0  0
 42 37  1  6  0  0  0
 42 41  1  0  0  0  0
 43 44  1  0  0  0  0
 44 45  1  6  0  0  0
 44 47  1  0  0  0  0
 46 52  1  0  0  0  0
 47 48  1  0  0  0  0
 48 46  2  0  0  0  0
 49 51  2  0  0  0  0
 50 47  2  0  0  0  0
 50 49  1  0  0  0  0
 51 46  1  0  0  0  0
M  END
>  <MODEL>
8

>  <REMARK>
 VINA RESULT:      -6.4      2.299      8.963
  Name = 
  10 active torsions:
  status: ('A' for Active; 'I' for Inactive)
    1  A    between atoms: C_1  and  C_30
    2  A    between atoms: C_6  and  C_30
    3  A    between atoms: C_8  and  C_33
    4  A    between atoms: C_9  and  O_18
    5  A    between atoms: C_10  and  C_16
    6  A    between atoms: C_12  and  C_52
    7  A    between atoms: C_13  and  C_17
    8  A    between atoms: C_16  and  N_48
    9  A    between atoms: O_18  and  C_33
   10  A    between atoms: C_23  and  N_48
                            x       y       z     vdW  Elec       q    Type
                         _______ _______ _______ _____ _____    ______ ____

>  <TORSDO>
F 10

$$$$
=
 OpenBabel11032421183D

 52 58  0  0  1  0  0  0  0  0999 V2000
  188.0180  176.6950  136.8920 C   0  0  0  0  0  0  0  0  0  0  0  0
  189.3600  176.7870  141.3610 C   0  0  1  0  0  3  0  0  0  0  0  0
  191.2540  177.4210  142.7020 C   0  0  0  0  0  0  0  0  0  0  0  0
  189.0120  175.9110  136.0730 C   0  0  1  0  0  3  0  0  0  0  0  0
  191.9050  178.2930  141.9150 C   0  0  0  0  0  3  0  0  0  0  0  0
  190.5180  176.2560  142.1160 C   0  0  1  0  0  3  0  0  0  0  0  0
  190.6360  176.2860  138.5140 C   0  0  0  0  0  0  0  0  0  0  0  0
  191.7720  175.9150  139.4410 C   0  0  0  0  0  2  0  0  0  0  0  0
  188.5710  175.7440  134.6920 N   0  0  0  0  0  1  0  0  0  0  0  0
  188.2020  176.8030  138.2190 C   0  0  0  0  0  3  0  0  0  0  0  0
  192.6630  177.1110  139.8130 C   0  0  0  0  0  2  0  0  0  0  0  0
  189.0990  175.9040  140.2970 O   0  0  0  0  0  0  0  0  0  0  0  0
  190.3000  176.5930  136.0820 N   0  0  0  0  0  0  0  0  0  0  0  0
  189.3630  176.3030  138.9910 C   0  0  0  0  0  0  0  0  0  0  0  0
  189.2050  176.1500  142.5990 O   0  0  0  0  0  0  0  0  0  0  0  0
  191.0300  176.7360  137.1540 C   0  0  0  0  0  3  0  0  0  0  0  0
  191.8780  178.2760  140.4200 C   0  0  0  0  0  2  0  0  0  0  0  0
  191.5860  176.3840  146.3940 C   0  0  0  0  0  0  0  0  0  0  0  0
  192.1760  175.4560  146.9720 O   0  0  0  0  0  0  0  0  0  0  0  0
  191.3150  177.5800  144.1640 C   0  0  0  0  0  0  0  0  0  0  0  0
  191.6750  176.4530  144.9730 N   0  0  0  0  0  2  0  0  0  0  0  0
  191.0720  178.7020  144.6910 O   0  0  0  0  0  0  0  0  0  0  0  0
  190.8250  177.4090  147.1910 C   0  0  0  0  0  2  0  0  0  0  0  0
  187.4070  177.4140  145.9320 C   0  0  0  0  0  2  0  0  0  0  0  0
  189.3530  177.0710  147.3170 C   0  0  1  0  0  3  0  0  0  0  0  0
  188.5890  178.2730  147.8630 C   0  0  1  0  0  3  0  0  0  0  0  0
  188.7750  176.7740  145.9510 C   0  0  0  0  0  2  0  0  0  0  0  0
  187.5220  178.6280  146.8380 C   0  0  0  0  0  2  0  0  0  0  0  0
  187.5560  176.5580  149.1540 O   0  0  0  0  0  1  0  0  0  0  0  0
  187.9440  177.8970  149.1820 C   0  0  0  0  0  2  0  0  0  0  0  0
  186.8390  177.3980  136.2470 C   0  0  2  0  0  3  0  0  0  0  0  0
  186.4690  178.6530  137.0270 C   0  0  0  0  0  1  0  0  0  0  0  0
  185.7240  176.5550  136.1600 O   0  0  0  0  0  0  0  0  0  0  0  0
  184.0600  176.9360  137.8720 C   0  0  2  0  0  3  0  0  0  0  0  0
  183.3470  176.1960  134.5940 C   0  0  0  0  0  2  0  0  0  0  0  0
  184.6280  177.3430  136.5120 C   0  0  2  0  0  3  0  0  0  0  0  0
  181.8630  176.3480  134.8720 C   0  0  0  0  0  2  0  0  0  0  0  0
  183.8510  175.5720  137.9320 O   0  0  0  0  0  1  0  0  0  0  0  0
  182.7720  177.6830  138.1440 C   0  0  1  0  0  3  0  0  0  0  0  0
  183.6150  177.4820  135.3520 C   0  0  2  0  0  3  0  0  0  0  0  0
  181.7240  177.2610  137.1390 C   0  0  0  0  0  2  0  0  0  0  0  0
  182.1250  177.5930  135.7000 C   0  0  2  0  0  3  0  0  0  0  0  0
  182.2840  177.4200  139.4960 N   0  0  0  0  0  2  0  0  0  0  0  0
  182.2090  178.6970  140.1950 C   0  0  2  0  0  3  0  0  0  0  0  0
  182.7580  179.7970  139.3040 C   0  0  0  0  0  1  0  0  0  0  0  0
  184.9510  178.3620  142.7990 C   0  0  0  0  0  0  0  0  0  0  0  0
  182.9220  178.6540  141.5220 C   0  0  0  0  0  0  0  0  0  0  0  0
  184.2890  178.3480  141.5720 C   0  0  0  0  0  3  0  0  0  0  0  0
  182.9050  179.0200  143.8720 C   0  0  0  0  0  3  0  0  0  0  0  0
  182.2700  178.9820  142.6730 N   0  0  0  0  0  0  0  0  0  0  0  0
  184.2620  178.7110  143.9580 C   0  0  0  0  0  3  0  0  0  0  0  0
  186.3860  178.0070  142.8670 C   0  0  0  0  0  1  0  0  0  0  0  0
  1 10  2  0  0  0  0
  2 12  1  6  0  0  0
  2  6  1  0  0  0  0
  2 15  1  0  0  0  0
  3 20  1  0  0  0  0
  4  9  1  6  0  0  0
  4 13  1  0  0  0  0
  4  1  1  0  0  0  0
  5  3  2  0  0  0  0
  6 15  1  1  0  0  0
  6  3  1  0  0  0  0
  7 14  2  0  0  0  0
  7  8  1  0  0  0  0
  8 11  1  0  0  0  0
 10 14  1  0  0  0  0
 11 17  1  0  0  0  0
 13 16  2  0  0  0  0
 14 12  1  0  0  0  0
 16  7  1  0  0  0  0
 17  5  1  0  0  0  0
 18 19  2  0  0  0  0
 18 23  1  0  0  0  0
 20 22  2  0  0  0  0
 20 21  1  0  0  0  0
 21 18  1  0  0  0  0
 24 27  1  0  0  0  0
 24 28  1  0  0  0  0
 25 23  1  6  0  0  0
 25 26  1  0  0  0  0
 26 30  1  1  0  0  0
 27 25  1  0  0  0  0
 28 26  1  0  0  0  0
 29 30  1  0  0  0  0
 31  1  1  0  0  0  0
 31 32  1  1  0  0  0
 33 31  1  0  0  0  0
 34 38  1  6  0  0  0
 34 39  1  0  0  0  0
 35 37  1  0  0  0  0
 36 33  1  6  0  0  0
 36 34  1  0  0  0  0
 39 43  1  1  0  0  0
 40 35  1  6  0  0  0
 40 42  1  0  0  0  0
 40 36  1  0  0  0  0
 41 39  1  0  0  0  0
 42 37  1  6  0  0  0
 42 41  1  0  0  0  0
 43 44  1  0  0  0  0
 44 45  1  6  0  0  0
 44 47  1  0  0  0  0
 46 52  1  0  0  0  0
 46 51  1  0  0  0  0
 47 48  1  0  0  0  0
 47 50  2  0  0  0  0
 48 46  2  0  0  0  0
 49 51  2  0  0  0  0
 50 49  1  0  0  0  0
M  END
>  <MODEL>
9

>  <REMARK>
 VINA RESULT:      -6.3      2.256      8.965
  Name = 
  10 active torsions:
  status: ('A' for Active; 'I' for Inactive)
    1  A    between atoms: C_1  and  C_30
    2  A    between atoms: C_6  and  C_30
    3  A    between atoms: C_8  and  C_33
    4  A    between atoms: C_9  and  O_18
    5  A    between atoms: C_10  and  C_16
    6  A    between atoms: C_12  and  C_52
    7  A    between atoms: C_13  and  C_17
    8  A    between atoms: C_16  and  N_48
    9  A    between atoms: O_18  and  C_33
   10  A    between atoms: C_23  and  N_48
                            x       y       z     vdW  Elec       q    Type
                         _______ _______ _______ _____ _____    ______ ____

>  <TORSDO>
F 10

$$$$
