=
 OpenBabel11042412593D

 42 46  0  0  1  0  0  0  0  0999 V2000
  182.7940  178.7830  141.1650 C   0  0  0  0  0  0  0  0  0  0  0  0
  182.7460  176.7530  137.8830 C   0  0  0  0  0  3  0  0  0  0  0  0
  185.8840  178.8370  139.5480 N   0  0  0  0  0  0  0  0  0  0  0  0
  183.7060  178.5870  139.0760 C   0  0  0  0  0  0  0  0  0  0  0  0
  184.9420  178.3720  138.5720 C   0  0  0  0  0  0  0  0  0  0  0  0
  185.1280  177.3690  137.6070 C   0  0  0  0  0  0  0  0  0  0  0  0
  185.2380  179.2680  140.5690 N   0  0  0  0  0  0  0  0  0  0  0  0
  183.8390  179.1290  140.3060 C   0  0  0  0  0  0  0  0  0  0  0  0
  182.6390  177.7660  138.8440 C   0  0  0  0  0  0  0  0  0  0  0  0
  181.7340  177.7660  140.2760 S   0  0  0  0  0  0  0  0  0  0  0  0
  183.9950  176.5900  137.2270 C   0  0  0  0  0  3  0  0  0  0  0  0
  182.7450  179.0030  142.5850 N   0  0  0  0  0  0  0  0  0  0  0  0
  181.5520  178.8300  143.3030 C   0  0  0  0  0  0  0  0  0  0  0  0
  180.5670  178.6860  143.8940 N   0  0  0  0  0  0  0  0  0  0  0  0
  183.9200  179.4600  143.3160 C   0  0  0  0  0  2  0  0  0  0  0  0
  184.5140  178.3330  144.1480 C   0  0  0  0  0  2  0  0  0  0  0  0
  184.5960  178.7370  145.6090 C   0  0  0  0  0  2  0  0  0  0  0  0
  187.5340  178.1230  147.5520 C   0  0  0  0  0  0  0  0  0  0  0  0
  188.0110  177.7310  146.3100 C   0  0  0  0  0  0  0  0  0  0  0  0
  185.9290  178.3720  146.1620 C   0  0  0  0  0  0  0  0  0  0  0  0
  186.2550  178.5250  147.4600 N   0  0  0  0  0  2  0  0  0  0  0  0
  188.2790  178.1200  148.8430 C   0  0  0  0  0  1  0  0  0  0  0  0
  186.9800  177.8870  145.4020 C   0  0  0  0  0  3  0  0  0  0  0  0
  189.3240  177.2360  145.9870 N   0  0  0  0  0  0  0  0  0  0  0  0
  192.3350  175.7460  147.7030 C   0  0  0  0  0  1  0  0  0  0  0  0
  191.5660  176.6550  146.7650 C   0  0  1  0  0  3  0  0  0  0  0  0
  191.8980  176.3490  145.4320 O   0  0  0  0  0  0  0  0  0  0  0  0
  189.8350  177.2710  144.6150 C   0  0  0  0  0  2  0  0  0  0  0  0
  191.3600  177.3810  144.6420 C   0  0  0  0  0  2  0  0  0  0  0  0
  190.0670  176.4630  146.9840 C   0  0  0  0  0  2  0  0  0  0  0  0
  186.4980  177.0820  137.0720 C   0  0  2  0  0  3  0  0  0  0  0  0
  187.6220  179.1710  136.7370 O   0  0  0  0  0  1  0  0  0  0  0  0
  186.9600  178.1420  136.0650 C   0  0  1  0  0  3  0  0  0  0  0  0
  187.8540  177.5600  134.9750 C   0  0  0  0  0  2  0  0  0  0  0  0
  189.2590  177.7230  135.3280 N   0  0  0  0  0  2  0  0  0  0  0  0
  190.0240  176.7050  135.9780 C   0  0  0  0  0  0  0  0  0  0  0  0
  190.3800  176.8910  137.2510 C   0  0  0  0  0  3  0  0  0  0  0  0
  190.4400  175.4760  135.2280 C   0  0  0  0  0  1  0  0  0  0  0  0
  191.1820  175.9070  138.0420 C   0  0  0  0  0  2  0  0  0  0  0  0
  192.6050  176.4080  138.2190 C   0  0  0  0  0  1  0  0  0  0  0  0
  187.2970  174.9890  137.3860 O   0  0  0  0  0  1  0  0  0  0  0  0
  186.5710  175.7350  136.5180 N   0  0  0  0  0  2  0  0  0  0  0  0
  1 12  1  0  0  0  0
  2  9  1  0  0  0  0
  3  7  2  0  0  0  0
  4  8  1  0  0  0  0
  5  4  1  0  0  0  0
  5  3  1  0  0  0  0
  6  5  2  0  0  0  0
  8  7  1  0  0  0  0
  8  1  2  0  0  0  0
  9  4  2  0  0  0  0
  9 10  1  0  0  0  0
 10  1  1  0  0  0  0
 11  6  1  0  0  0  0
 11  2  2  0  0  0  0
 12 13  1  0  0  0  0
 12 15  1  0  0  0  0
 13 14  3  0  0  0  0
 15 16  1  0  0  0  0
 16 17  1  0  0  0  0
 17 20  1  0  0  0  0
 18 22  1  0  0  0  0
 19 18  2  0  0  0  0
 20 21  1  0  0  0  0
 21 18  1  0  0  0  0
 23 20  2  0  0  0  0
 23 19  1  0  0  0  0
 24 19  1  0  0  0  0
 24 30  1  0  0  0  0
 26 30  1  0  0  0  0
 26 25  1  1  0  0  0
 27 26  1  0  0  0  0
 28 29  1  0  0  0  0
 28 24  1  0  0  0  0
 29 27  1  0  0  0  0
 31 42  1  6  0  0  0
 31  6  1  0  0  0  0
 33 32  1  1  0  0  0
 33 31  1  0  0  0  0
 34 35  1  0  0  0  0
 34 33  1  0  0  0  0
 35 36  1  0  0  0  0
 36 37  2  0  0  0  0
 37 39  1  0  0  0  0
 38 36  1  0  0  0  0
 39 40  1  0  0  0  0
 42 41  1  0  0  0  0
M  END
>  <MODEL>
1

>  <REMARK>
 VINA RESULT:      -8.4      0.000      0.000
  Name = 
  14 active torsions:
  status: ('A' for Active; 'I' for Inactive)
    1  A    between atoms: N_1  and  C_10
    2  A    between atoms: N_3  and  C_4
    3  A    between atoms: N_3  and  C_6
    4  A    between atoms: N_3  and  C_9
    5  A    between atoms: C_9  and  C_29
    6  A    between atoms: C_13  and  C_32
    7  A    between atoms: C_19  and  C_23
    8  A    between atoms: C_19  and  N_33
    9  A    between atoms: C_20  and  C_36
   10  A    between atoms: C_22  and  C_31
   11  A    between atoms: C_23  and  C_31
   12  A    between atoms: C_29  and  C_32
   13  A    between atoms: C_30  and  N_33
   14  A    between atoms: C_31  and  N_39
                            x       y       z     vdW  Elec       q    Type
                         _______ _______ _______ _____ _____    ______ ____

>  <TORSDO>
F 14

$$$$
=
 OpenBabel11042412593D

 42 46  0  0  1  0  0  0  0  0999 V2000
  189.2050  177.1070  145.4260 C   0  0  0  0  0  0  0  0  0  0  0  0
  191.9790  177.5630  142.7820 C   0  0  0  0  0  3  0  0  0  0  0  0
  188.0210  176.5930  142.1850 N   0  0  0  0  0  0  0  0  0  0  0  0
  189.9320  176.4710  143.3530 C   0  0  0  0  0  0  0  0  0  0  0  0
  189.4510  176.5390  142.0910 C   0  0  0  0  0  0  0  0  0  0  0  0
  190.2660  177.0550  141.0690 C   0  0  0  0  0  0  0  0  0  0  0  0
  187.6910  176.5870  143.4260 N   0  0  0  0  0  0  0  0  0  0  0  0
  188.8860  176.5050  144.2070 C   0  0  0  0  0  0  0  0  0  0  0  0
  191.1090  177.0430  143.7480 C   0  0  0  0  0  0  0  0  0  0  0  0
  190.8520  177.5810  145.3330 S   0  0  0  0  0  0  0  0  0  0  0  0
  191.5650  177.5220  141.4240 C   0  0  0  0  0  3  0  0  0  0  0  0
  188.2780  177.5010  146.4530 N   0  0  0  0  0  0  0  0  0  0  0  0
  188.7330  177.9760  147.6920 C   0  0  0  0  0  0  0  0  0  0  0  0
  189.1070  178.3690  148.7140 N   0  0  0  0  0  0  0  0  0  0  0  0
  186.8400  177.3710  146.2590 C   0  0  0  0  0  2  0  0  0  0  0  0
  186.2850  178.5680  145.5000 C   0  0  0  0  0  2  0  0  0  0  0  0
  184.8120  178.7600  145.8160 C   0  0  0  0  0  2  0  0  0  0  0  0
  182.3650  178.9940  143.2190 C   0  0  0  0  0  0  0  0  0  0  0  0
  183.4530  178.5980  142.4560 C   0  0  0  0  0  0  0  0  0  0  0  0
  184.0240  178.7950  144.5540 C   0  0  0  0  0  0  0  0  0  0  0  0
  182.7140  179.1080  144.5120 N   0  0  0  0  0  2  0  0  0  0  0  0
  180.9830  179.2740  142.7370 C   0  0  0  0  0  1  0  0  0  0  0  0
  184.5330  178.4660  143.3090 C   0  0  0  0  0  3  0  0  0  0  0  0
  183.4950  178.3660  141.0350 N   0  0  0  0  0  0  0  0  0  0  0  0
  182.1950  175.9070  138.4860 C   0  0  0  0  0  1  0  0  0  0  0  0
  183.2040  176.7970  139.1840 C   0  0  1  0  0  3  0  0  0  0  0  0
  183.6130  177.8230  138.3120 O   0  0  0  0  0  0  0  0  0  0  0  0
  184.2590  179.2390  140.1420 C   0  0  0  0  0  2  0  0  0  0  0  0
  184.7190  178.4430  138.9210 C   0  0  0  0  0  2  0  0  0  0  0  0
  182.5700  177.4020  140.4360 C   0  0  0  0  0  2  0  0  0  0  0  0
  189.7340  177.1850  139.6740 C   0  0  2  0  0  3  0  0  0  0  0  0
  190.7580  175.2770  138.6500 O   0  0  0  0  0  1  0  0  0  0  0  0
  190.7290  176.6720  138.6260 C   0  0  1  0  0  3  0  0  0  0  0  0
  190.4030  177.1710  137.2210 C   0  0  0  0  0  2  0  0  0  0  0  0
  189.5400  176.2210  136.5310 N   0  0  0  0  0  2  0  0  0  0  0  0
  188.1190  176.3580  136.4720 C   0  0  0  0  0  0  0  0  0  0  0  0
  187.3630  175.3770  136.9700 C   0  0  0  0  0  3  0  0  0  0  0  0
  187.5000  177.5630  135.8320 C   0  0  0  0  0  1  0  0  0  0  0  0
  185.8680  175.3950  136.9670 C   0  0  0  0  0  2  0  0  0  0  0  0
  185.3240  173.9940  136.7480 C   0  0  0  0  0  1  0  0  0  0  0  0
  187.9590  178.5420  139.3230 O   0  0  0  0  0  1  0  0  0  0  0  0
  189.3110  178.5540  139.4020 N   0  0  0  0  0  2  0  0  0  0  0  0
  1 12  1  0  0  0  0
  2  9  1  0  0  0  0
  3  7  2  0  0  0  0
  4  9  2  0  0  0  0
  4  8  1  0  0  0  0
  5  3  1  0  0  0  0
  5  4  1  0  0  0  0
  6 11  1  0  0  0  0
  6  5  2  0  0  0  0
  7  8  1  0  0  0  0
  8  1  2  0  0  0  0
  9 10  1  0  0  0  0
 10  1  1  0  0  0  0
 11  2  2  0  0  0  0
 12 13  1  0  0  0  0
 13 14  3  0  0  0  0
 15 12  1  0  0  0  0
 16 17  1  0  0  0  0
 16 15  1  0  0  0  0
 18 21  1  0  0  0  0
 19 18  2  0  0  0  0
 19 23  1  0  0  0  0
 20 17  1  0  0  0  0
 21 20  1  0  0  0  0
 22 18  1  0  0  0  0
 23 20  2  0  0  0  0
 24 19  1  0  0  0  0
 26 25  1  6  0  0  0
 26 30  1  0  0  0  0
 27 29  1  0  0  0  0
 27 26  1  0  0  0  0
 28 24  1  0  0  0  0
 29 28  1  0  0  0  0
 30 24  1  0  0  0  0
 31 42  1  6  0  0  0
 31  6  1  0  0  0  0
 33 32  1  6  0  0  0
 33 31  1  0  0  0  0
 34 33  1  0  0  0  0
 35 34  1  0  0  0  0
 36 35  1  0  0  0  0
 36 37  2  0  0  0  0
 38 36  1  0  0  0  0
 39 37  1  0  0  0  0
 40 39  1  0  0  0  0
 41 42  1  0  0  0  0
M  END
>  <MODEL>
2

>  <REMARK>
 VINA RESULT:      -8.3      2.628      7.077
  Name = 
  14 active torsions:
  status: ('A' for Active; 'I' for Inactive)
    1  A    between atoms: N_1  and  C_10
    2  A    between atoms: N_3  and  C_4
    3  A    between atoms: N_3  and  C_6
    4  A    between atoms: N_3  and  C_9
    5  A    between atoms: C_9  and  C_29
    6  A    between atoms: C_13  and  C_32
    7  A    between atoms: C_19  and  C_23
    8  A    between atoms: C_19  and  N_33
    9  A    between atoms: C_20  and  C_36
   10  A    between atoms: C_22  and  C_31
   11  A    between atoms: C_23  and  C_31
   12  A    between atoms: C_29  and  C_32
   13  A    between atoms: C_30  and  N_33
   14  A    between atoms: C_31  and  N_39
                            x       y       z     vdW  Elec       q    Type
                         _______ _______ _______ _____ _____    ______ ____

>  <TORSDO>
F 14

$$$$
=
 OpenBabel11042412593D

 42 46  0  0  1  0  0  0  0  0999 V2000
  183.8440  178.5750  140.8470 C   0  0  0  0  0  0  0  0  0  0  0  0
  184.2730  177.0580  137.3250 C   0  0  0  0  0  3  0  0  0  0  0  0
  187.1800  178.5580  139.8270 N   0  0  0  0  0  0  0  0  0  0  0  0
  185.1170  178.5950  138.9470 C   0  0  0  0  0  0  0  0  0  0  0  0
  186.4080  178.3350  138.6390 C   0  0  0  0  0  0  0  0  0  0  0  0
  186.7010  177.4690  137.5730 C   0  0  0  0  0  0  0  0  0  0  0  0
  186.3840  178.8980  140.7750 N   0  0  0  0  0  0  0  0  0  0  0  0
  185.0540  178.9380  140.2530 C   0  0  0  0  0  0  0  0  0  0  0  0
  184.0580  177.9260  138.4020 C   0  0  0  0  0  0  0  0  0  0  0  0
  182.9020  177.8080  139.6350 S   0  0  0  0  0  0  0  0  0  0  0  0
  185.6080  176.8690  136.8800 C   0  0  0  0  0  3  0  0  0  0  0  0
  183.5450  178.5910  142.2540 N   0  0  0  0  0  0  0  0  0  0  0  0
  182.2950  179.0240  142.7210 C   0  0  0  0  0  0  0  0  0  0  0  0
  181.2640  179.3820  143.1060 N   0  0  0  0  0  0  0  0  0  0  0  0
  184.5450  178.2050  143.2410 C   0  0  0  0  0  2  0  0  0  0  0  0
  184.6700  179.2630  144.3280 C   0  0  0  0  0  2  0  0  0  0  0  0
  184.5550  178.6270  145.7020 C   0  0  0  0  0  2  0  0  0  0  0  0
  187.5580  178.1480  147.5830 C   0  0  0  0  0  0  0  0  0  0  0  0
  188.0100  177.7240  146.3420 C   0  0  0  0  0  0  0  0  0  0  0  0
  185.9100  178.3120  146.2300 C   0  0  0  0  0  0  0  0  0  0  0  0
  186.2680  178.5180  147.5130 N   0  0  0  0  0  2  0  0  0  0  0  0
  188.3370  178.2070  148.8520 C   0  0  0  0  0  1  0  0  0  0  0  0
  186.9510  177.8250  145.4580 C   0  0  0  0  0  3  0  0  0  0  0  0
  189.3250  177.2480  145.9990 N   0  0  0  0  0  0  0  0  0  0  0  0
  192.3460  175.7130  147.6570 C   0  0  0  0  0  1  0  0  0  0  0  0
  191.5720  176.6510  146.7540 C   0  0  1  0  0  3  0  0  0  0  0  0
  191.9030  176.3950  145.4100 O   0  0  0  0  0  0  0  0  0  0  0  0
  189.8350  177.3350  144.6300 C   0  0  0  0  0  2  0  0  0  0  0  0
  191.3590  177.4520  144.6590 C   0  0  0  0  0  2  0  0  0  0  0  0
  190.0730  176.4430  146.9670 C   0  0  0  0  0  2  0  0  0  0  0  0
  188.1240  177.1290  137.2480 C   0  0  2  0  0  3  0  0  0  0  0  0
  189.2270  176.5030  135.2150 O   0  0  0  0  0  1  0  0  0  0  0  0
  188.2280  176.1100  136.1070 C   0  0  1  0  0  3  0  0  0  0  0  0
  188.4960  174.6950  136.6120 C   0  0  0  0  0  2  0  0  0  0  0  0
  187.8490  173.7160  135.7480 N   0  0  0  0  0  2  0  0  0  0  0  0
  186.7110  172.9500  136.1490 C   0  0  0  0  0  0  0  0  0  0  0  0
  185.9510  173.4120  137.1440 C   0  0  0  0  0  3  0  0  0  0  0  0
  186.4050  171.6430  135.4840 C   0  0  0  0  0  1  0  0  0  0  0  0
  184.7370  172.7080  137.6600 C   0  0  0  0  0  2  0  0  0  0  0  0
  183.4790  173.3280  137.0780 C   0  0  0  0  0  1  0  0  0  0  0  0
  190.1110  177.1490  138.3280 O   0  0  0  0  0  1  0  0  0  0  0  0
  188.8410  176.6890  138.4390 N   0  0  0  0  0  2  0  0  0  0  0  0
  1 12  1  0  0  0  0
  2  9  1  0  0  0  0
  3  7  2  0  0  0  0
  4  8  1  0  0  0  0
  5  4  1  0  0  0  0
  5  3  1  0  0  0  0
  6  5  2  0  0  0  0
  8  7  1  0  0  0  0
  8  1  2  0  0  0  0
  9  4  2  0  0  0  0
  9 10  1  0  0  0  0
 10  1  1  0  0  0  0
 11  2  2  0  0  0  0
 11  6  1  0  0  0  0
 12 13  1  0  0  0  0
 12 15  1  0  0  0  0
 13 14  3  0  0  0  0
 15 16  1  0  0  0  0
 16 17  1  0  0  0  0
 17 20  1  0  0  0  0
 18 22  1  0  0  0  0
 19 18  2  0  0  0  0
 20 21  1  0  0  0  0
 21 18  1  0  0  0  0
 23 20  2  0  0  0  0
 23 19  1  0  0  0  0
 24 19  1  0  0  0  0
 24 30  1  0  0  0  0
 26 30  1  0  0  0  0
 26 25  1  1  0  0  0
 27 26  1  0  0  0  0
 28 29  1  0  0  0  0
 28 24  1  0  0  0  0
 29 27  1  0  0  0  0
 31  6  1  0  0  0  0
 31 42  1  1  0  0  0
 33 32  1  6  0  0  0
 33 34  1  0  0  0  0
 33 31  1  0  0  0  0
 35 36  1  0  0  0  0
 35 34  1  0  0  0  0
 36 37  2  0  0  0  0
 37 39  1  0  0  0  0
 38 36  1  0  0  0  0
 40 39  1  0  0  0  0
 41 42  1  0  0  0  0
M  END
>  <MODEL>
3

>  <REMARK>
 VINA RESULT:      -8.2      1.946      2.827
  Name = 
  14 active torsions:
  status: ('A' for Active; 'I' for Inactive)
    1  A    between atoms: N_1  and  C_10
    2  A    between atoms: N_3  and  C_4
    3  A    between atoms: N_3  and  C_6
    4  A    between atoms: N_3  and  C_9
    5  A    between atoms: C_9  and  C_29
    6  A    between atoms: C_13  and  C_32
    7  A    between atoms: C_19  and  C_23
    8  A    between atoms: C_19  and  N_33
    9  A    between atoms: C_20  and  C_36
   10  A    between atoms: C_22  and  C_31
   11  A    between atoms: C_23  and  C_31
   12  A    between atoms: C_29  and  C_32
   13  A    between atoms: C_30  and  N_33
   14  A    between atoms: C_31  and  N_39
                            x       y       z     vdW  Elec       q    Type
                         _______ _______ _______ _____ _____    ______ ____

>  <TORSDO>
F 14

$$$$
=
 OpenBabel11042412593D

 42 46  0  0  1  0  0  0  0  0999 V2000
  185.3250  178.1700  144.5370 C   0  0  0  0  0  0  0  0  0  0  0  0
  187.8590  178.0640  147.4460 C   0  0  0  0  0  3  0  0  0  0  0  0
  188.5250  177.3010  143.4540 N   0  0  0  0  0  0  0  0  0  0  0  0
  187.2540  177.2060  145.2990 C   0  0  0  0  0  0  0  0  0  0  0  0
  188.5380  177.1350  144.8790 C   0  0  0  0  0  0  0  0  0  0  0  0
  189.5750  177.4470  145.7720 C   0  0  0  0  0  0  0  0  0  0  0  0
  187.3140  177.4880  143.0730 N   0  0  0  0  0  0  0  0  0  0  0  0
  186.4680  177.4310  144.2240 C   0  0  0  0  0  0  0  0  0  0  0  0
  186.8790  177.7430  146.4990 C   0  0  0  0  0  0  0  0  0  0  0  0
  185.3950  178.5100  146.2180 S   0  0  0  0  0  0  0  0  0  0  0  0
  189.2190  177.8650  147.0880 C   0  0  0  0  0  3  0  0  0  0  0  0
  184.4090  178.7650  143.6010 N   0  0  0  0  0  0  0  0  0  0  0  0
  183.0310  178.7960  143.8600 C   0  0  0  0  0  0  0  0  0  0  0  0
  181.8940  178.8230  144.0740 N   0  0  0  0  0  0  0  0  0  0  0  0
  184.8770  179.3080  142.3320 C   0  0  0  0  0  2  0  0  0  0  0  0
  184.3540  178.4850  141.1640 C   0  0  0  0  0  2  0  0  0  0  0  0
  184.3360  179.3180  139.8940 C   0  0  0  0  0  2  0  0  0  0  0  0
  184.6820  177.2420  137.0030 C   0  0  0  0  0  0  0  0  0  0  0  0
  186.0210  177.3590  137.3470 C   0  0  0  0  0  0  0  0  0  0  0  0
  184.7740  178.4880  138.7380 C   0  0  0  0  0  0  0  0  0  0  0  0
  183.9140  177.9310  137.8640 N   0  0  0  0  0  2  0  0  0  0  0  0
  184.1120  176.4820  135.8560 C   0  0  0  0  0  1  0  0  0  0  0  0
  186.0930  178.1640  138.4680 C   0  0  0  0  0  3  0  0  0  0  0  0
  187.1560  176.7760  136.6790 N   0  0  0  0  0  0  0  0  0  0  0  0
  189.4040  173.7570  136.9440 C   0  0  0  0  0  1  0  0  0  0  0  0
  189.0360  175.2180  136.7740 C   0  0  1  0  0  3  0  0  0  0  0  0
  189.3970  175.6490  135.4840 O   0  0  0  0  0  0  0  0  0  0  0  0
  187.7920  177.4360  135.5380 C   0  0  0  0  0  2  0  0  0  0  0  0
  189.2700  177.0500  135.4840 C   0  0  0  0  0  2  0  0  0  0  0  0
  187.5320  175.3920  136.9780 C   0  0  0  0  0  2  0  0  0  0  0  0
  191.0010  177.4210  145.3110 C   0  0  2  0  0  3  0  0  0  0  0  0
  191.9550  179.2110  144.0360 O   0  0  0  0  0  1  0  0  0  0  0  0
  191.1720  178.0600  143.9280 C   0  0  1  0  0  3  0  0  0  0  0  0
  191.7820  177.0970  142.9130 C   0  0  0  0  0  2  0  0  0  0  0  0
  192.0030  177.7720  141.6410 N   0  0  0  0  0  2  0  0  0  0  0  0
  191.5560  177.2460  140.3890 C   0  0  0  0  0  0  0  0  0  0  0  0
  192.4650  176.9730  139.4510 C   0  0  0  0  0  3  0  0  0  0  0  0
  190.0940  177.0400  140.1340 C   0  0  0  0  0  1  0  0  0  0  0  0
  192.1290  176.4240  138.1010 C   0  0  0  0  0  2  0  0  0  0  0  0
  193.3590  176.4240  137.2110 C   0  0  0  0  0  1  0  0  0  0  0  0
  192.2220  175.9530  146.5230 O   0  0  0  0  0  1  0  0  0  0  0  0
  191.5400  176.0670  145.3570 N   0  0  0  0  0  2  0  0  0  0  0  0
  1 10  1  0  0  0  0
  3  5  1  0  0  0  0
  4  9  1  0  0  0  0
  5  4  2  0  0  0  0
  5  6  1  0  0  0  0
  6 11  2  0  0  0  0
  7  3  2  0  0  0  0
  7  8  1  0  0  0  0
  8  1  2  0  0  0  0
  8  4  1  0  0  0  0
  9  2  2  0  0  0  0
 10  9  1  0  0  0  0
 11  2  1  0  0  0  0
 12 13  1  0  0  0  0
 12  1  1  0  0  0  0
 13 14  3  0  0  0  0
 15 12  1  0  0  0  0
 16 15  1  0  0  0  0
 17 16  1  0  0  0  0
 18 19  2  0  0  0  0
 18 21  1  0  0  0  0
 19 23  1  0  0  0  0
 20 17  1  0  0  0  0
 21 20  1  0  0  0  0
 22 18  1  0  0  0  0
 23 20  2  0  0  0  0
 24 30  1  0  0  0  0
 24 19  1  0  0  0  0
 26 25  1  6  0  0  0
 26 30  1  0  0  0  0
 27 26  1  0  0  0  0
 28 24  1  0  0  0  0
 29 27  1  0  0  0  0
 29 28  1  0  0  0  0
 31 42  1  6  0  0  0
 31  6  1  0  0  0  0
 33 32  1  1  0  0  0
 33 31  1  0  0  0  0
 34 33  1  0  0  0  0
 35 34  1  0  0  0  0
 36 35  1  0  0  0  0
 37 36  2  0  0  0  0
 38 36  1  0  0  0  0
 39 37  1  0  0  0  0
 40 39  1  0  0  0  0
 42 41  1  0  0  0  0
M  END
>  <MODEL>
4

>  <REMARK>
 VINA RESULT:      -8.2      2.149      7.944
  Name = 
  14 active torsions:
  status: ('A' for Active; 'I' for Inactive)
    1  A    between atoms: N_1  and  C_10
    2  A    between atoms: N_3  and  C_4
    3  A    between atoms: N_3  and  C_6
    4  A    between atoms: N_3  and  C_9
    5  A    between atoms: C_9  and  C_29
    6  A    between atoms: C_13  and  C_32
    7  A    between atoms: C_19  and  C_23
    8  A    between atoms: C_19  and  N_33
    9  A    between atoms: C_20  and  C_36
   10  A    between atoms: C_22  and  C_31
   11  A    between atoms: C_23  and  C_31
   12  A    between atoms: C_29  and  C_32
   13  A    between atoms: C_30  and  N_33
   14  A    between atoms: C_31  and  N_39
                            x       y       z     vdW  Elec       q    Type
                         _______ _______ _______ _____ _____    ______ ____

>  <TORSDO>
F 14

$$$$
=
 OpenBabel11042412593D

 42 46  0  0  1  0  0  0  0  0999 V2000
  183.4470  178.2600  140.7170 C   0  0  0  0  0  0  0  0  0  0  0  0
  183.5230  176.2460  137.4250 C   0  0  0  0  0  3  0  0  0  0  0  0
  186.5210  178.5260  139.0900 N   0  0  0  0  0  0  0  0  0  0  0  0
  184.3630  178.1350  138.6240 C   0  0  0  0  0  0  0  0  0  0  0  0
  185.6090  178.0040  138.1150 C   0  0  0  0  0  0  0  0  0  0  0  0
  185.8580  177.0200  137.1450 C   0  0  0  0  0  0  0  0  0  0  0  0
  185.8510  178.9090  140.1160 N   0  0  0  0  0  0  0  0  0  0  0  0
  184.4640  178.6790  139.8570 C   0  0  0  0  0  0  0  0  0  0  0  0
  183.3520  177.2460  138.3920 C   0  0  0  0  0  0  0  0  0  0  0  0
  182.4540  177.1800  139.8260 S   0  0  0  0  0  0  0  0  0  0  0  0
  184.7780  176.1700  136.7650 C   0  0  0  0  0  3  0  0  0  0  0  0
  183.3890  178.4700  142.1380 N   0  0  0  0  0  0  0  0  0  0  0  0
  182.2530  179.0350  142.7390 C   0  0  0  0  0  0  0  0  0  0  0  0
  181.3170  179.5000  143.2350 N   0  0  0  0  0  0  0  0  0  0  0  0
  184.5250  178.1510  142.9930 C   0  0  0  0  0  2  0  0  0  0  0  0
  184.7440  179.2400  144.0330 C   0  0  0  0  0  2  0  0  0  0  0  0
  184.5690  178.6800  145.4340 C   0  0  0  0  0  2  0  0  0  0  0  0
  187.4830  178.1290  147.4320 C   0  0  0  0  0  0  0  0  0  0  0  0
  187.9850  177.7300  146.2020 C   0  0  0  0  0  0  0  0  0  0  0  0
  185.8980  178.3400  146.0120 C   0  0  0  0  0  0  0  0  0  0  0  0
  186.2000  178.5120  147.3140 N   0  0  0  0  0  2  0  0  0  0  0  0
  188.2060  178.1510  148.7340 C   0  0  0  0  0  1  0  0  0  0  0  0
  186.9680  177.8610  145.2760 C   0  0  0  0  0  3  0  0  0  0  0  0
  189.3100  177.2500  145.9060 N   0  0  0  0  0  0  0  0  0  0  0  0
  192.2980  175.7840  147.6830 C   0  0  0  0  0  1  0  0  0  0  0  0
  191.5410  176.6890  146.7310 C   0  0  1  0  0  3  0  0  0  0  0  0
  191.9050  176.3910  145.4050 O   0  0  0  0  0  0  0  0  0  0  0  0
  189.8510  177.2950  144.5460 C   0  0  0  0  0  2  0  0  0  0  0  0
  191.3740  177.4210  144.6080 C   0  0  0  0  0  2  0  0  0  0  0  0
  190.0390  176.4800  146.9160 C   0  0  0  0  0  2  0  0  0  0  0  0
  187.2430  176.8260  136.6050 C   0  0  2  0  0  3  0  0  0  0  0  0
  188.2960  174.7480  137.1600 O   0  0  0  0  0  1  0  0  0  0  0  0
  188.1450  176.0680  137.5860 C   0  0  1  0  0  3  0  0  0  0  0  0
  189.5100  176.7310  137.7520 C   0  0  0  0  0  2  0  0  0  0  0  0
  190.4120  175.8570  138.4910 N   0  0  0  0  0  2  0  0  0  0  0  0
  191.6690  175.4140  137.9730 C   0  0  0  0  0  0  0  0  0  0  0  0
  191.7110  174.2630  137.2990 C   0  0  0  0  0  3  0  0  0  0  0  0
  192.9110  176.2150  138.2160 C   0  0  0  0  0  1  0  0  0  0  0  0
  192.9590  173.6880  136.7100 C   0  0  0  0  0  2  0  0  0  0  0  0
  192.9980  173.9360  135.2120 C   0  0  0  0  0  1  0  0  0  0  0  0
  187.2400  178.4470  135.0270 O   0  0  0  0  0  1  0  0  0  0  0  0
  187.8270  178.0990  136.1980 N   0  0  0  0  0  2  0  0  0  0  0  0
  1 12  1  0  0  0  0
  2  9  1  0  0  0  0
  3  7  2  0  0  0  0
  4  8  1  0  0  0  0
  5  4  1  0  0  0  0
  5  3  1  0  0  0  0
  6  5  2  0  0  0  0
  8  7  1  0  0  0  0
  8  1  2  0  0  0  0
  9  4  2  0  0  0  0
  9 10  1  0  0  0  0
 10  1  1  0  0  0  0
 11  6  1  0  0  0  0
 11  2  2  0  0  0  0
 12 13  1  0  0  0  0
 12 15  1  0  0  0  0
 13 14  3  0  0  0  0
 15 16  1  0  0  0  0
 16 17  1  0  0  0  0
 17 20  1  0  0  0  0
 18 22  1  0  0  0  0
 19 18  2  0  0  0  0
 20 21  1  0  0  0  0
 21 18  1  0  0  0  0
 23 20  2  0  0  0  0
 23 19  1  0  0  0  0
 24 19  1  0  0  0  0
 24 30  1  0  0  0  0
 26 30  1  0  0  0  0
 26 25  1  1  0  0  0
 27 26  1  0  0  0  0
 28 29  1  0  0  0  0
 28 24  1  0  0  0  0
 29 27  1  0  0  0  0
 31 42  1  1  0  0  0
 31  6  1  0  0  0  0
 31 33  1  0  0  0  0
 33 32  1  6  0  0  0
 33 34  1  0  0  0  0
 34 35  1  0  0  0  0
 36 38  1  0  0  0  0
 36 35  1  0  0  0  0
 37 36  2  0  0  0  0
 39 37  1  0  0  0  0
 40 39  1  0  0  0  0
 41 42  1  0  0  0  0
M  END
>  <MODEL>
5

>  <REMARK>
 VINA RESULT:      -8.1      1.241      1.915
  Name = 
  14 active torsions:
  status: ('A' for Active; 'I' for Inactive)
    1  A    between atoms: N_1  and  C_10
    2  A    between atoms: N_3  and  C_4
    3  A    between atoms: N_3  and  C_6
    4  A    between atoms: N_3  and  C_9
    5  A    between atoms: C_9  and  C_29
    6  A    between atoms: C_13  and  C_32
    7  A    between atoms: C_19  and  C_23
    8  A    between atoms: C_19  and  N_33
    9  A    between atoms: C_20  and  C_36
   10  A    between atoms: C_22  and  C_31
   11  A    between atoms: C_23  and  C_31
   12  A    between atoms: C_29  and  C_32
   13  A    between atoms: C_30  and  N_33
   14  A    between atoms: C_31  and  N_39
                            x       y       z     vdW  Elec       q    Type
                         _______ _______ _______ _____ _____    ______ ____

>  <TORSDO>
F 14

$$$$
=
 OpenBabel11042412593D

 42 46  0  0  1  0  0  0  0  0999 V2000
  186.0770  177.6600  137.9280 C   0  0  0  0  0  0  0  0  0  0  0  0
  182.5840  177.5380  136.2910 C   0  0  0  0  0  3  0  0  0  0  0  0
  183.8180  179.8020  139.5020 N   0  0  0  0  0  0  0  0  0  0  0  0
  183.8330  177.9140  138.2930 C   0  0  0  0  0  0  0  0  0  0  0  0
  183.0220  178.9140  138.7060 C   0  0  0  0  0  0  0  0  0  0  0  0
  181.8740  179.2240  137.9590 C   0  0  0  0  0  0  0  0  0  0  0  0
  185.0240  179.3620  139.5270 N   0  0  0  0  0  0  0  0  0  0  0  0
  185.0750  178.1520  138.7680 C   0  0  0  0  0  0  0  0  0  0  0  0
  183.7120  177.2900  137.0830 C   0  0  0  0  0  0  0  0  0  0  0  0
  185.2910  176.9350  136.5850 S   0  0  0  0  0  0  0  0  0  0  0  0
  181.6350  178.4830  136.7640 C   0  0  0  0  0  3  0  0  0  0  0  0
  187.4850  177.9380  138.0230 N   0  0  0  0  0  0  0  0  0  0  0  0
  188.3130  177.8630  136.8940 C   0  0  0  0  0  0  0  0  0  0  0  0
  188.9970  177.8020  135.9610 N   0  0  0  0  0  0  0  0  0  0  0  0
  188.1040  178.2570  139.3030 C   0  0  0  0  0  2  0  0  0  0  0  0
  189.5760  177.8700  139.3050 C   0  0  0  0  0  2  0  0  0  0  0  0
  189.8140  176.6910  140.2330 C   0  0  0  0  0  2  0  0  0  0  0  0
  190.6780  178.0980  143.4050 C   0  0  0  0  0  0  0  0  0  0  0  0
  189.4930  177.4720  143.7620 C   0  0  2  0  0  3  0  0  0  0  0  0
  189.9090  177.1670  141.6400 C   0  0  0  0  0  0  0  0  0  0  0  0
  190.9380  177.9040  142.1010 N   0  0  0  0  0  0  0  0  0  0  0  0
  191.5780  178.8900  144.2890 C   0  0  0  0  0  1  0  0  0  0  0  0
  188.9860  176.8660  142.6270 C   0  0  0  0  0  3  0  0  0  0  0  0
  188.8670  177.4430  145.0580 N   0  0  2  0  0  0  0  0  0  0  0  0
  185.5550  178.2650  146.6670 C   0  0  0  0  0  1  0  0  0  0  0  0
  187.0610  178.2340  146.5020 C   0  0  1  0  0  3  0  0  0  0  0  0
  187.6370  177.4910  147.5490 O   0  0  0  0  0  0  0  0  0  0  0  0
  189.6030  177.0210  146.2510 C   0  0  0  0  0  2  0  0  0  0  0  0
  189.0230  177.7180  147.4820 C   0  0  0  0  0  2  0  0  0  0  0  0
  187.4140  177.5980  145.1590 C   0  0  0  0  0  2  0  0  0  0  0  0
  180.9900  180.3620  138.3720 C   0  0  2  0  0  3  0  0  0  0  0  0
  179.6360  178.5190  139.0850 O   0  0  0  0  0  1  0  0  0  0  0  0
  179.8150  179.8950  139.2380 C   0  0  1  0  0  3  0  0  0  0  0  0
  180.0030  180.2440  140.7120 C   0  0  0  0  0  2  0  0  0  0  0  0
  179.9360  179.0410  141.5320 N   0  0  0  0  0  2  0  0  0  0  0  0
  180.7510  178.8380  142.6890 C   0  0  0  0  0  0  0  0  0  0  0  0
  182.0470  179.1470  142.6170 C   0  0  0  0  0  3  0  0  0  0  0  0
  180.1600  178.2600  143.9380 C   0  0  0  0  0  1  0  0  0  0  0  0
  183.0060  178.9790  143.7520 C   0  0  0  0  0  2  0  0  0  0  0  0
  184.3690  178.5560  143.2330 C   0  0  0  0  0  1  0  0  0  0  0  0
  179.1970  181.2340  137.3050 O   0  0  0  0  0  1  0  0  0  0  0  0
  180.5440  181.1250  137.2120 N   0  0  0  0  0  2  0  0  0  0  0  0
  1 12  1  0  0  0  0
  1  8  2  0  0  0  0
  2 11  2  0  0  0  0
  2  9  1  0  0  0  0
  3  7  2  0  0  0  0
  4  5  1  0  0  0  0
  4  8  1  0  0  0  0
  5  3  1  0  0  0  0
  6 31  1  0  0  0  0
  6  5  2  0  0  0  0
  8  7  1  0  0  0  0
  9  4  2  0  0  0  0
 10  9  1  0  0  0  0
 10  1  1  0  0  0  0
 11  6  1  0  0  0  0
 12 15  1  0  0  0  0
 13 12  1  0  0  0  0
 14 13  3  0  0  0  0
 15 16  1  0  0  0  0
 16 17  1  0  0  0  0
 17 20  1  0  0  0  0
 18 19  1  0  0  0  0
 18 22  1  0  0  0  0
 19 23  1  6  0  0  0
 19 24  1  0  0  0  0
 20 21  1  0  0  0  0
 20 23  2  0  0  0  0
 21 18  2  0  0  0  0
 24 30  1  6  0  0  0
 24 28  1  0  0  0  0
 26 25  1  1  0  0  0
 26 27  1  0  0  0  0
 28 29  1  0  0  0  0
 29 27  1  0  0  0  0
 30 26  1  0  0  0  0
 31 42  1  6  0  0  0
 31 33  1  0  0  0  0
 33 32  1  1  0  0  0
 33 34  1  0  0  0  0
 34 35  1  0  0  0  0
 35 36  1  0  0  0  0
 36 38  1  0  0  0  0
 37 36  2  0  0  0  0
 37 39  1  0  0  0  0
 40 39  1  0  0  0  0
 42 41  1  0  0  0  0
M  END
>  <MODEL>
6

>  <REMARK>
 VINA RESULT:      -8.0      2.982      6.932
  Name = 
  14 active torsions:
  status: ('A' for Active; 'I' for Inactive)
    1  A    between atoms: N_1  and  C_10
    2  A    between atoms: N_3  and  C_4
    3  A    between atoms: N_3  and  C_6
    4  A    between atoms: N_3  and  C_9
    5  A    between atoms: C_9  and  C_29
    6  A    between atoms: C_13  and  C_32
    7  A    between atoms: C_19  and  C_23
    8  A    between atoms: C_19  and  N_33
    9  A    between atoms: C_20  and  C_36
   10  A    between atoms: C_22  and  C_31
   11  A    between atoms: C_23  and  C_31
   12  A    between atoms: C_29  and  C_32
   13  A    between atoms: C_30  and  N_33
   14  A    between atoms: C_31  and  N_39
                            x       y       z     vdW  Elec       q    Type
                         _______ _______ _______ _____ _____    ______ ____

>  <TORSDO>
F 14

$$$$
=
 OpenBabel11042412593D

 42 46  0  0  1  0  0  0  0  0999 V2000
  185.2340  178.2200  144.9830 C   0  0  0  0  0  0  0  0  0  0  0  0
  187.7530  178.2470  147.9070 C   0  0  0  0  0  3  0  0  0  0  0  0
  188.4280  177.2520  143.9680 N   0  0  0  0  0  0  0  0  0  0  0  0
  187.1470  177.2770  145.8090 C   0  0  0  0  0  0  0  0  0  0  0  0
  188.4320  177.1670  145.3990 C   0  0  0  0  0  0  0  0  0  0  0  0
  189.4690  177.5160  146.2790 C   0  0  0  0  0  0  0  0  0  0  0  0
  187.2200  177.4320  143.5710 N   0  0  0  0  0  0  0  0  0  0  0  0
  186.3690  177.4500  144.7190 C   0  0  0  0  0  0  0  0  0  0  0  0
  186.7730  177.8850  146.9740 C   0  0  0  0  0  0  0  0  0  0  0  0
  185.3000  178.6520  146.6430 S   0  0  0  0  0  0  0  0  0  0  0  0
  189.1120  178.0130  147.5680 C   0  0  0  0  0  3  0  0  0  0  0  0
  184.3290  178.7710  144.0110 N   0  0  0  0  0  0  0  0  0  0  0  0
  182.9400  178.6990  144.1930 C   0  0  0  0  0  0  0  0  0  0  0  0
  181.7940  178.6390  144.3430 N   0  0  0  0  0  0  0  0  0  0  0  0
  184.8250  179.3780  142.7820 C   0  0  0  0  0  2  0  0  0  0  0  0
  184.3790  178.5800  141.5650 C   0  0  0  0  0  2  0  0  0  0  0  0
  184.6140  179.3760  140.2930 C   0  0  0  0  0  2  0  0  0  0  0  0
  185.3110  177.6020  137.2680 C   0  0  0  0  0  0  0  0  0  0  0  0
  184.2200  176.8660  137.7040 C   0  0  0  0  0  0  0  0  0  0  0  0
  184.6850  178.4560  139.1260 C   0  0  0  0  0  0  0  0  0  0  0  0
  185.5930  178.5860  138.1390 N   0  0  0  0  0  2  0  0  0  0  0  0
  186.1030  177.3850  136.0250 C   0  0  0  0  0  1  0  0  0  0  0  0
  183.8060  177.4080  138.9060 C   0  0  0  0  0  3  0  0  0  0  0  0
  183.6080  175.7320  137.0600 N   0  0  0  0  0  0  0  0  0  0  0  0
  180.2920  174.7190  135.5720 C   0  0  0  0  0  1  0  0  0  0  0  0
  181.5520  174.5860  136.4040 C   0  0  1  0  0  3  0  0  0  0  0  0
  182.3500  173.5480  135.8890 O   0  0  0  0  0  0  0  0  0  0  0  0
  184.3400  174.4800  136.8610 C   0  0  0  0  0  2  0  0  0  0  0  0
  183.3560  173.3110  136.8440 C   0  0  0  0  0  2  0  0  0  0  0  0
  182.3260  175.9020  136.3720 C   0  0  0  0  0  2  0  0  0  0  0  0
  190.8960  177.4480  145.8270 C   0  0  2  0  0  3  0  0  0  0  0  0
  191.7900  178.9140  144.1570 O   0  0  0  0  0  1  0  0  0  0  0  0
  191.0430  177.7470  144.3310 C   0  0  1  0  0  3  0  0  0  0  0  0
  191.6810  176.5910  143.5660 C   0  0  0  0  0  2  0  0  0  0  0  0
  190.8540  176.2190  142.4250 N   0  0  0  0  0  2  0  0  0  0  0  0
  190.7980  176.9850  141.2190 C   0  0  0  0  0  0  0  0  0  0  0  0
  189.6070  177.1990  140.6550 C   0  0  0  0  0  3  0  0  0  0  0  0
  192.0560  177.5020  140.5920 C   0  0  0  0  0  1  0  0  0  0  0  0
  189.4120  177.9780  139.3940 C   0  0  0  0  0  2  0  0  0  0  0  0
  188.9830  177.0570  138.2660 C   0  0  0  0  0  1  0  0  0  0  0  0
  192.2090  176.3760  147.3250 O   0  0  0  0  0  1  0  0  0  0  0  0
  191.4980  176.1700  146.1900 N   0  0  0  0  0  2  0  0  0  0  0  0
  1 10  1  0  0  0  0
  3  5  1  0  0  0  0
  4  9  1  0  0  0  0
  5  4  2  0  0  0  0
  5  6  1  0  0  0  0
  6 11  2  0  0  0  0
  7  3  2  0  0  0  0
  7  8  1  0  0  0  0
  8  1  2  0  0  0  0
  8  4  1  0  0  0  0
  9  2  2  0  0  0  0
 10  9  1  0  0  0  0
 11  2  1  0  0  0  0
 12 13  1  0  0  0  0
 12  1  1  0  0  0  0
 13 14  3  0  0  0  0
 15 12  1  0  0  0  0
 16 15  1  0  0  0  0
 17 16  1  0  0  0  0
 18 19  2  0  0  0  0
 18 21  1  0  0  0  0
 19 23  1  0  0  0  0
 20 17  1  0  0  0  0
 21 20  1  0  0  0  0
 22 18  1  0  0  0  0
 23 20  2  0  0  0  0
 24 19  1  0  0  0  0
 26 25  1  6  0  0  0
 27 26  1  0  0  0  0
 27 29  1  0  0  0  0
 28 24  1  0  0  0  0
 29 28  1  0  0  0  0
 30 26  1  0  0  0  0
 30 24  1  0  0  0  0
 31 42  1  6  0  0  0
 31  6  1  0  0  0  0
 33 32  1  1  0  0  0
 33 31  1  0  0  0  0
 34 33  1  0  0  0  0
 35 34  1  0  0  0  0
 36 35  1  0  0  0  0
 37 36  2  0  0  0  0
 38 36  1  0  0  0  0
 39 37  1  0  0  0  0
 40 39  1  0  0  0  0
 42 41  1  0  0  0  0
M  END
>  <MODEL>
7

>  <REMARK>
 VINA RESULT:      -7.9      2.631      8.832
  Name = 
  14 active torsions:
  status: ('A' for Active; 'I' for Inactive)
    1  A    between atoms: N_1  and  C_10
    2  A    between atoms: N_3  and  C_4
    3  A    between atoms: N_3  and  C_6
    4  A    between atoms: N_3  and  C_9
    5  A    between atoms: C_9  and  C_29
    6  A    between atoms: C_13  and  C_32
    7  A    between atoms: C_19  and  C_23
    8  A    between atoms: C_19  and  N_33
    9  A    between atoms: C_20  and  C_36
   10  A    between atoms: C_22  and  C_31
   11  A    between atoms: C_23  and  C_31
   12  A    between atoms: C_29  and  C_32
   13  A    between atoms: C_30  and  N_33
   14  A    between atoms: C_31  and  N_39
                            x       y       z     vdW  Elec       q    Type
                         _______ _______ _______ _____ _____    ______ ____

>  <TORSDO>
F 14

$$$$
=
 OpenBabel11042412593D

 42 46  0  0  1  0  0  0  0  0999 V2000
  181.6590  178.4330  140.5260 C   0  0  0  0  0  0  0  0  0  0  0  0
  183.3110  175.8260  138.2090 C   0  0  0  0  0  3  0  0  0  0  0  0
  184.5780  179.6530  139.0560 N   0  0  0  0  0  0  0  0  0  0  0  0
  182.9640  178.1450  138.6690 C   0  0  0  0  0  0  0  0  0  0  0  0
  184.2180  178.4880  138.3000 C   0  0  0  0  0  0  0  0  0  0  0  0
  185.0740  177.5090  137.7700 C   0  0  0  0  0  0  0  0  0  0  0  0
  183.6050  179.9510  139.8390 N   0  0  0  0  0  0  0  0  0  0  0  0
  182.5500  179.0120  139.6190 C   0  0  0  0  0  0  0  0  0  0  0  0
  182.5180  176.8550  138.7330 C   0  0  0  0  0  0  0  0  0  0  0  0
  181.4550  176.7970  140.0490 S   0  0  0  0  0  0  0  0  0  0  0  0
  184.5830  176.1730  137.6790 C   0  0  0  0  0  3  0  0  0  0  0  0
  181.2110  179.0050  141.7670 N   0  0  0  0  0  0  0  0  0  0  0  0
  180.3160  180.0850  141.7840 C   0  0  0  0  0  0  0  0  0  0  0  0
  179.5780  180.9760  141.7970 N   0  0  0  0  0  0  0  0  0  0  0  0
  181.7110  178.5130  143.0450 C   0  0  0  0  0  2  0  0  0  0  0  0
  183.1600  178.9270  143.2560 C   0  0  0  0  0  2  0  0  0  0  0  0
  183.3990  179.3020  144.7080 C   0  0  0  0  0  2  0  0  0  0  0  0
  186.3960  178.3510  146.4110 C   0  0  0  0  0  0  0  0  0  0  0  0
  186.7260  177.9180  145.1350 C   0  0  0  0  0  0  0  0  0  0  0  0
  184.7230  178.7870  145.1530 C   0  0  0  0  0  0  0  0  0  0  0  0
  185.1660  178.8930  146.4210 N   0  0  0  0  0  2  0  0  0  0  0  0
  187.2360  178.2540  147.6380 C   0  0  0  0  0  1  0  0  0  0  0  0
  185.6500  178.1950  144.3120 C   0  0  0  0  0  3  0  0  0  0  0  0
  187.9460  177.2840  144.7080 N   0  0  0  0  0  0  0  0  0  0  0  0
  191.5190  176.8720  145.8460 C   0  0  0  0  0  1  0  0  0  0  0  0
  190.3800  177.1470  144.8860 C   0  0  1  0  0  3  0  0  0  0  0  0
  190.3490  176.1530  143.8910 O   0  0  0  0  0  0  0  0  0  0  0  0
  188.0220  176.5490  143.4440 C   0  0  0  0  0  2  0  0  0  0  0  0
  189.4520  176.6060  142.9060 C   0  0  0  0  0  2  0  0  0  0  0  0
  189.0580  177.1550  145.6530 C   0  0  0  0  0  2  0  0  0  0  0  0
  186.4840  177.8590  137.4010 C   0  0  2  0  0  3  0  0  0  0  0  0
  187.5970  178.2150  135.3100 O   0  0  0  0  0  1  0  0  0  0  0  0
  186.8920  177.2630  136.0490 C   0  0  1  0  0  3  0  0  0  0  0  0
  187.7200  175.9900  136.1990 C   0  0  0  0  0  2  0  0  0  0  0  0
  187.3030  174.9940  135.2210 N   0  0  0  0  0  2  0  0  0  0  0  0
  186.7850  173.7110  135.5840 C   0  0  0  0  0  0  0  0  0  0  0  0
  185.4680  173.5110  135.5100 C   0  0  0  0  0  3  0  0  0  0  0  0
  187.7070  172.6320  136.0650 C   0  0  0  0  0  1  0  0  0  0  0  0
  184.8010  172.2210  135.8630 C   0  0  0  0  0  2  0  0  0  0  0  0
  184.1600  172.3170  137.2370 C   0  0  0  0  0  1  0  0  0  0  0  0
  187.8740  178.6360  139.0080 O   0  0  0  0  0  1  0  0  0  0  0  0
  187.4090  177.4840  138.4640 N   0  0  0  0  0  2  0  0  0  0  0  0
  1 12  1  0  0  0  0
  2  9  1  0  0  0  0
  3  7  2  0  0  0  0
  4  9  2  0  0  0  0
  4  8  1  0  0  0  0
  5  4  1  0  0  0  0
  5  3  1  0  0  0  0
  6  5  2  0  0  0  0
  8  7  1  0  0  0  0
  8  1  2  0  0  0  0
  9 10  1  0  0  0  0
 10  1  1  0  0  0  0
 11  6  1  0  0  0  0
 11  2  2  0  0  0  0
 12 13  1  0  0  0  0
 12 15  1  0  0  0  0
 13 14  3  0  0  0  0
 15 16  1  0  0  0  0
 16 17  1  0  0  0  0
 17 20  1  0  0  0  0
 18 21  1  0  0  0  0
 18 22  1  0  0  0  0
 19 18  2  0  0  0  0
 20 21  1  0  0  0  0
 23 19  1  0  0  0  0
 23 20  2  0  0  0  0
 24 19  1  0  0  0  0
 24 30  1  0  0  0  0
 26 30  1  0  0  0  0
 26 25  1  1  0  0  0
 27 26  1  0  0  0  0
 28 24  1  0  0  0  0
 29 28  1  0  0  0  0
 29 27  1  0  0  0  0
 31  6  1  0  0  0  0
 31 42  1  1  0  0  0
 33 32  1  1  0  0  0
 33 34  1  0  0  0  0
 33 31  1  0  0  0  0
 35 36  1  0  0  0  0
 35 34  1  0  0  0  0
 36 38  1  0  0  0  0
 37 36  2  0  0  0  0
 37 39  1  0  0  0  0
 39 40  1  0  0  0  0
 42 41  1  0  0  0  0
M  END
>  <MODEL>
8

>  <REMARK>
 VINA RESULT:      -7.8      1.997      2.941
  Name = 
  14 active torsions:
  status: ('A' for Active; 'I' for Inactive)
    1  A    between atoms: N_1  and  C_10
    2  A    between atoms: N_3  and  C_4
    3  A    between atoms: N_3  and  C_6
    4  A    between atoms: N_3  and  C_9
    5  A    between atoms: C_9  and  C_29
    6  A    between atoms: C_13  and  C_32
    7  A    between atoms: C_19  and  C_23
    8  A    between atoms: C_19  and  N_33
    9  A    between atoms: C_20  and  C_36
   10  A    between atoms: C_22  and  C_31
   11  A    between atoms: C_23  and  C_31
   12  A    between atoms: C_29  and  C_32
   13  A    between atoms: C_30  and  N_33
   14  A    between atoms: C_31  and  N_39
                            x       y       z     vdW  Elec       q    Type
                         _______ _______ _______ _____ _____    ______ ____

>  <TORSDO>
F 14

$$$$
=
 OpenBabel11042412593D

 42 46  0  0  1  0  0  0  0  0999 V2000
  182.6750  178.2630  140.0290 C   0  0  0  0  0  0  0  0  0  0  0  0
  184.3870  176.4340  137.0930 C   0  0  0  0  0  3  0  0  0  0  0  0
  186.0460  179.1160  139.7430 N   0  0  0  0  0  0  0  0  0  0  0  0
  184.3480  178.3840  138.4740 C   0  0  0  0  0  0  0  0  0  0  0  0
  185.6960  178.4880  138.5020 C   0  0  0  0  0  0  0  0  0  0  0  0
  186.4720  177.6030  137.7370 C   0  0  0  0  0  0  0  0  0  0  0  0
  184.9710  179.3350  140.4090 N   0  0  0  0  0  0  0  0  0  0  0  0
  183.8600  178.8850  139.6300 C   0  0  0  0  0  0  0  0  0  0  0  0
  183.6800  177.3470  137.8850 C   0  0  0  0  0  0  0  0  0  0  0  0
  182.3160  177.0690  138.8490 S   0  0  0  0  0  0  0  0  0  0  0  0
  185.7940  176.5990  136.9850 C   0  0  0  0  0  3  0  0  0  0  0  0
  182.0270  178.3990  141.3050 N   0  0  0  0  0  0  0  0  0  0  0  0
  180.7910  179.0530  141.4220 C   0  0  0  0  0  0  0  0  0  0  0  0
  179.7710  179.5910  141.5170 N   0  0  0  0  0  0  0  0  0  0  0  0
  182.6550  177.9070  142.5250 C   0  0  0  0  0  2  0  0  0  0  0  0
  182.4650  178.8930  143.6680 C   0  0  0  0  0  2  0  0  0  0  0  0
  183.6510  179.8370  143.7590 C   0  0  0  0  0  2  0  0  0  0  0  0
  186.4820  177.6790  144.0960 C   0  0  0  0  0  0  0  0  0  0  0  0
  186.5430  178.3090  145.3290 C   0  0  2  0  0  3  0  0  0  0  0  0
  184.8700  179.0820  144.1590 C   0  0  0  0  0  0  0  0  0  0  0  0
  185.4470  178.1480  143.3780 N   0  0  0  0  0  0  0  0  0  0  0  0
  187.4010  176.6270  143.5770 C   0  0  0  0  0  1  0  0  0  0  0  0
  185.5050  179.2210  145.3810 C   0  0  0  0  0  3  0  0  0  0  0  0
  187.5010  178.0930  146.3830 N   0  0  2  0  0  0  0  0  0  0  0  0
  190.9870  176.7330  146.8600 C   0  0  0  0  0  1  0  0  0  0  0  0
  189.5120  176.9330  147.1450 C   0  0  1  0  0  3  0  0  0  0  0  0
  189.3540  177.5750  148.3870 O   0  0  0  0  0  0  0  0  0  0  0  0
  187.1870  178.4130  147.7760 C   0  0  0  0  0  2  0  0  0  0  0  0
  187.9860  177.4950  148.7030 C   0  0  0  0  0  2  0  0  0  0  0  0
  188.8900  177.7840  146.0390 C   0  0  0  0  0  2  0  0  0  0  0  0
  187.9690  177.6710  137.7930 C   0  0  2  0  0  3  0  0  0  0  0  0
  189.6440  175.9830  138.0820 O   0  0  0  0  0  1  0  0  0  0  0  0
  188.5610  176.5970  138.7130 C   0  0  1  0  0  3  0  0  0  0  0  0
  188.9870  177.1610  140.0670 C   0  0  0  0  0  2  0  0  0  0  0  0
  190.2210  176.5300  140.5150 N   0  0  0  0  0  2  0  0  0  0  0  0
  191.2040  177.2060  141.3020 C   0  0  0  0  0  0  0  0  0  0  0  0
  190.8980  177.5350  142.5590 C   0  0  0  0  0  3  0  0  0  0  0  0
  192.5330  177.5630  140.7100 C   0  0  0  0  0  1  0  0  0  0  0  0
  191.8320  178.2460  143.4850 C   0  0  0  0  0  2  0  0  0  0  0  0
  191.1830  179.5090  144.0220 C   0  0  0  0  0  1  0  0  0  0  0  0
  188.8910  179.5880  137.0270 O   0  0  0  0  0  1  0  0  0  0  0  0
  188.4170  179.0100  138.1570 N   0  0  0  0  0  2  0  0  0  0  0  0
  1 12  1  0  0  0  0
  2  9  1  0  0  0  0
  3  7  2  0  0  0  0
  4  5  1  0  0  0  0
  4  8  1  0  0  0  0
  5  3  1  0  0  0  0
  6 31  1  0  0  0  0
  6  5  2  0  0  0  0
  8  1  2  0  0  0  0
  8  7  1  0  0  0  0
  9  4  2  0  0  0  0
  9 10  1  0  0  0  0
 10  1  1  0  0  0  0
 11  2  2  0  0  0  0
 11  6  1  0  0  0  0
 12 13  1  0  0  0  0
 12 15  1  0  0  0  0
 13 14  3  0  0  0  0
 15 16  1  0  0  0  0
 16 17  1  0  0  0  0
 17 20  1  0  0  0  0
 18 19  1  0  0  0  0
 19 23  1  6  0  0  0
 19 24  1  0  0  0  0
 20 23  2  0  0  0  0
 21 18  2  0  0  0  0
 21 20  1  0  0  0  0
 22 18  1  0  0  0  0
 24 30  1  6  0  0  0
 24 28  1  0  0  0  0
 26 25  1  6  0  0  0
 26 27  1  0  0  0  0
 27 29  1  0  0  0  0
 28 29  1  0  0  0  0
 30 26  1  0  0  0  0
 31 42  1  1  0  0  0
 31 33  1  0  0  0  0
 33 32  1  6  0  0  0
 33 34  1  0  0  0  0
 34 35  1  0  0  0  0
 35 36  1  0  0  0  0
 36 37  2  0  0  0  0
 37 39  1  0  0  0  0
 38 36  1  0  0  0  0
 39 40  1  0  0  0  0
 41 42  1  0  0  0  0
M  END
>  <MODEL>
9

>  <REMARK>
 VINA RESULT:      -7.8      1.940      3.472
  Name = 
  14 active torsions:
  status: ('A' for Active; 'I' for Inactive)
    1  A    between atoms: N_1  and  C_10
    2  A    between atoms: N_3  and  C_4
    3  A    between atoms: N_3  and  C_6
    4  A    between atoms: N_3  and  C_9
    5  A    between atoms: C_9  and  C_29
    6  A    between atoms: C_13  and  C_32
    7  A    between atoms: C_19  and  C_23
    8  A    between atoms: C_19  and  N_33
    9  A    between atoms: C_20  and  C_36
   10  A    between atoms: C_22  and  C_31
   11  A    between atoms: C_23  and  C_31
   12  A    between atoms: C_29  and  C_32
   13  A    between atoms: C_30  and  N_33
   14  A    between atoms: C_31  and  N_39
                            x       y       z     vdW  Elec       q    Type
                         _______ _______ _______ _____ _____    ______ ____

>  <TORSDO>
F 14

$$$$
