=
 OpenBabel11042411363D

 35 38  0  0  1  0  0  0  0  0999 V2000
  184.2750  178.7640  143.8950 C   0  0  1  0  0  3  0  0  0  0  0  0
  184.6280  178.6440  145.3490 C   0  0  0  0  0  0  0  0  0  0  0  0
  183.7580  178.9100  146.2240 O   0  0  0  0  0  0  0  0  0  0  0  0
  186.4920  178.5750  147.0150 C   0  0  0  0  0  3  0  0  0  0  0  0
  185.9800  178.2180  145.7610 C   0  0  0  0  0  0  0  0  0  0  0  0
  188.7860  176.2290  144.4160 O   0  0  0  0  0  1  0  0  0  0  0  0
  188.0350  177.0080  145.2880 C   0  0  0  0  0  0  0  0  0  0  0  0
  188.5390  177.3620  146.5510 C   0  0  0  0  0  0  0  0  0  0  0  0
  186.7620  177.4360  144.9010 C   0  0  0  0  0  3  0  0  0  0  0  0
  187.7620  178.1520  147.4110 C   0  0  0  0  0  0  0  0  0  0  0  0
  188.2290  178.5130  148.6330 F   0  0  0  0  0  0  0  0  0  0  0  0
  190.8930  176.5520  147.2990 N   0  0  0  0  0  0  0  0  0  0  0  0
  189.8450  176.9130  146.9650 C   0  0  0  0  0  0  0  0  0  0  0  0
  183.1030  179.7120  143.6820 C   0  0  0  0  0  2  0  0  0  0  0  0
  181.9180  178.6880  141.6630 C   0  0  0  0  0  3  0  0  0  0  0  0
  179.7930  177.9540  142.3500 C   0  0  0  0  0  3  0  0  0  0  0  0
  181.9730  179.0090  143.0080 C   0  0  0  0  0  0  0  0  0  0  0  0
  180.7010  178.0920  141.3010 C   0  0  0  0  0  3  0  0  0  0  0  0
  180.5210  178.5870  143.7290 S   0  0  0  0  0  0  0  0  0  0  0  0
  185.4780  179.2300  143.0920 C   0  0  0  0  0  2  0  0  0  0  0  0
  185.6420  178.3530  141.8630 C   0  0  2  0  0  3  0  0  0  0  0  0
  186.8290  178.6690  141.2020 N   0  0  0  0  0  0  0  0  0  0  0  0
  184.7030  179.7140  139.9000 O   0  0  0  0  0  0  0  0  0  0  0  0
  185.4450  179.1080  140.7160 C   0  0  0  0  0  0  0  0  0  0  0  0
  188.2750  178.6350  141.0780 C   0  0  2  0  0  3  0  0  0  0  0  0
  188.6900  177.4360  140.2300 C   0  0  1  0  0  3  0  0  0  0  0  0
  187.7750  177.2980  139.0320 C   0  0  0  0  0  2  0  0  0  0  0  0
  189.1870  177.8070  138.8290 C   0  0  1  0  0  3  0  0  0  0  0  0
  188.9880  179.3110  137.2190 C   0  0  0  0  0  1  0  0  0  0  0  0
  189.1540  179.1860  138.5980 O   0  0  0  0  0  0  0  0  0  0  0  0
  188.8470  178.5240  142.3470 O   0  0  0  0  0  0  0  0  0  0  0  0
  190.1880  178.2130  142.1090 C   0  0  0  0  0  2  0  0  0  0  0  0
  191.7850  177.3890  143.8760 N   0  0  0  0  0  1  0  0  0  0  0  0
  190.9700  179.5640  143.9050 O   0  0  0  0  0  0  0  0  0  0  0  0
  190.9800  178.4370  143.3460 C   0  0  0  0  0  0  0  0  0  0  0  0
  1 20  1  6  0  0  0
  1  2  1  0  0  0  0
  2  5  1  0  0  0  0
  2  3  2  0  0  0  0
  4 10  1  0  0  0  0
  5  4  2  0  0  0  0
  6  7  1  0  0  0  0
  7  8  1  0  0  0  0
  8 13  1  0  0  0  0
  8 10  2  0  0  0  0
  9  7  2  0  0  0  0
  9  5  1  0  0  0  0
 10 11  1  0  0  0  0
 13 12  3  0  0  0  0
 14  1  1  0  0  0  0
 15 17  2  0  0  0  0
 16 19  1  0  0  0  0
 17 14  1  0  0  0  0
 17 19  1  0  0  0  0
 18 15  1  0  0  0  0
 18 16  2  0  0  0  0
 21 20  1  1  0  0  0
 22 21  1  0  0  0  0
 23 24  2  0  0  0  0
 24 22  1  0  0  0  0
 24 21  1  0  0  0  0
 25 22  1  0  0  0  0
 25 31  1  1  0  0  0
 26 25  1  1  0  0  0
 27 26  1  0  0  0  0
 28 30  1  1  0  0  0
 28 27  1  0  0  0  0
 28 26  1  0  0  0  0
 29 30  1  0  0  0  0
 32 31  1  0  0  0  0
 32 35  1  0  0  0  0
 35 33  1  0  0  0  0
 35 34  2  0  0  0  0
M  END
>  <MODEL>
1

>  <REMARK>
 VINA RESULT:      -8.1      0.000      0.000
  Name = 
  13 active torsions:
  status: ('A' for Active; 'I' for Inactive)
    1  A    between atoms: C_3  and  C_13
    2  A    between atoms: C_3  and  C_16
    3  A    between atoms: O_4  and  C_11
    4  A    between atoms: O_4  and  C_14
    5  A    between atoms: CA_5  and  C_22
    6  A    between atoms: N_6  and  C_11
    7  A    between atoms: C_8  and  C_13
    8  A    between atoms: C_8  and  C_30
    9  A    between atoms: C_11  and  C_19
   10  A    between atoms: C_13  and  C_22
   11  A    between atoms: C_14  and  C_26
   12  A    between atoms: C_23  and  C_31
   13  A    between atoms: O_32  and  C_34
                            x       y       z     vdW  Elec       q    Type
                         _______ _______ _______ _____ _____    ______ ____

>  <TORSDO>
F 13

$$$$
=
 OpenBabel11042411363D

 35 38  0  0  1  0  0  0  0  0999 V2000
  189.9890  177.9630  142.5830 C   0  0  1  0  0  3  0  0  0  0  0  0
  188.8420  177.0710  142.9590 C   0  0  0  0  0  0  0  0  0  0  0  0
  189.0500  175.8410  143.1550 O   0  0  0  0  0  0  0  0  0  0  0  0
  186.7910  177.5190  144.3170 C   0  0  0  0  0  3  0  0  0  0  0  0
  187.4800  177.6190  143.1000 C   0  0  0  0  0  0  0  0  0  0  0  0
  184.9990  179.4370  141.0550 O   0  0  0  0  0  1  0  0  0  0  0  0
  185.5830  178.8020  142.1460 C   0  0  0  0  0  0  0  0  0  0  0  0
  184.9010  178.7070  143.3710 C   0  0  0  0  0  0  0  0  0  0  0  0
  186.8640  178.2600  142.0180 C   0  0  0  0  0  3  0  0  0  0  0  0
  185.5100  178.0580  144.4550 C   0  0  0  0  0  0  0  0  0  0  0  0
  184.8700  177.9460  145.6460 F   0  0  0  0  0  0  0  0  0  0  0  0
  182.5270  179.7330  143.6330 N   0  0  0  0  0  0  0  0  0  0  0  0
  183.5840  179.2760  143.5170 C   0  0  0  0  0  0  0  0  0  0  0  0
  190.5240  178.7220  143.7900 C   0  0  0  0  0  2  0  0  0  0  0  0
  189.5810  177.9350  146.0300 C   0  0  0  0  0  3  0  0  0  0  0  0
  191.0050  176.2720  146.8860 C   0  0  0  0  0  3  0  0  0  0  0  0
  190.5070  177.8580  145.0050 C   0  0  0  0  0  0  0  0  0  0  0  0
  189.8590  177.0420  147.0760 C   0  0  0  0  0  3  0  0  0  0  0  0
  191.6690  176.7190  145.4050 S   0  0  0  0  0  0  0  0  0  0  0  0
  191.1010  177.1570  141.9360 C   0  0  0  0  0  2  0  0  0  0  0  0
  191.4370  177.7460  140.5780 C   0  0  2  0  0  3  0  0  0  0  0  0
  191.2880  176.7800  139.5830 N   0  0  0  0  0  0  0  0  0  0  0  0
  193.9010  177.1700  140.1520 O   0  0  0  0  0  0  0  0  0  0  0  0
  192.6450  177.2340  140.1270 C   0  0  0  0  0  0  0  0  0  0  0  0
  190.4730  175.9520  138.7120 C   0  0  2  0  0  3  0  0  0  0  0  0
  191.1690  175.7810  137.3660 C   0  0  1  0  0  3  0  0  0  0  0  0
  192.2410  174.7160  137.4600 C   0  0  0  0  0  2  0  0  0  0  0  0
  190.9530  174.4060  136.7240 C   0  0  1  0  0  3  0  0  0  0  0  0
  189.0820  173.2270  136.6930 C   0  0  0  0  0  1  0  0  0  0  0  0
  190.1590  173.5670  137.5120 O   0  0  0  0  0  0  0  0  0  0  0  0
  189.2330  176.5640  138.5180 O   0  0  0  0  0  0  0  0  0  0  0  0
  189.4500  177.4950  137.4990 C   0  0  0  0  0  2  0  0  0  0  0  0
  187.2750  178.5110  138.2640 N   0  0  0  0  0  1  0  0  0  0  0  0
  188.9960  179.8300  137.4290 O   0  0  0  0  0  0  0  0  0  0  0  0
  188.5750  178.6770  137.7080 C   0  0  0  0  0  0  0  0  0  0  0  0
  1 20  1  1  0  0  0
  1  2  1  0  0  0  0
  1 14  1  0  0  0  0
  2  5  1  0  0  0  0
  2  3  2  0  0  0  0
  4 10  1  0  0  0  0
  5  4  2  0  0  0  0
  6  7  1  0  0  0  0
  7  8  1  0  0  0  0
  8 13  1  0  0  0  0
  8 10  2  0  0  0  0
  9  7  2  0  0  0  0
  9  5  1  0  0  0  0
 10 11  1  0  0  0  0
 13 12  3  0  0  0  0
 14 17  1  0  0  0  0
 15 18  1  0  0  0  0
 16 18  2  0  0  0  0
 17 19  1  0  0  0  0
 17 15  2  0  0  0  0
 19 16  1  0  0  0  0
 21 20  1  1  0  0  0
 22 24  1  0  0  0  0
 22 21  1  0  0  0  0
 24 23  2  0  0  0  0
 24 21  1  0  0  0  0
 25 31  1  6  0  0  0
 25 22  1  0  0  0  0
 26 27  1  0  0  0  0
 26 25  1  1  0  0  0
 28 26  1  0  0  0  0
 28 27  1  0  0  0  0
 28 30  1  1  0  0  0
 29 30  1  0  0  0  0
 32 35  1  0  0  0  0
 32 31  1  0  0  0  0
 34 35  2  0  0  0  0
 35 33  1  0  0  0  0
M  END
>  <MODEL>
2

>  <REMARK>
 VINA RESULT:      -7.8      3.371      6.735
  Name = 
  13 active torsions:
  status: ('A' for Active; 'I' for Inactive)
    1  A    between atoms: C_3  and  C_13
    2  A    between atoms: C_3  and  C_16
    3  A    between atoms: O_4  and  C_11
    4  A    between atoms: O_4  and  C_14
    5  A    between atoms: CA_5  and  C_22
    6  A    between atoms: N_6  and  C_11
    7  A    between atoms: C_8  and  C_13
    8  A    between atoms: C_8  and  C_30
    9  A    between atoms: C_11  and  C_19
   10  A    between atoms: C_13  and  C_22
   11  A    between atoms: C_14  and  C_26
   12  A    between atoms: C_23  and  C_31
   13  A    between atoms: O_32  and  C_34
                            x       y       z     vdW  Elec       q    Type
                         _______ _______ _______ _____ _____    ______ ____

>  <TORSDO>
F 13

$$$$
=
 OpenBabel11042411363D

 35 38  0  0  1  0  0  0  0  0999 V2000
  190.3380  177.9490  142.6780 C   0  0  1  0  0  3  0  0  0  0  0  0
  189.1970  177.0120  142.9490 C   0  0  0  0  0  0  0  0  0  0  0  0
  189.4170  175.7720  143.0310 O   0  0  0  0  0  0  0  0  0  0  0  0
  187.1400  177.3540  144.3300 C   0  0  0  0  0  3  0  0  0  0  0  0
  187.8250  177.5290  143.1200 C   0  0  0  0  0  0  0  0  0  0  0  0
  185.3120  179.4100  141.1760 O   0  0  0  0  0  1  0  0  0  0  0  0
  185.9070  178.7290  142.2310 C   0  0  0  0  0  0  0  0  0  0  0  0
  185.2290  178.5580  143.4500 C   0  0  0  0  0  0  0  0  0  0  0  0
  187.1970  178.2160  142.0730 C   0  0  0  0  0  3  0  0  0  0  0  0
  185.8510  177.8630  144.4980 C   0  0  0  0  0  0  0  0  0  0  0  0
  185.2150  177.6780  145.6820 F   0  0  0  0  0  0  0  0  0  0  0  0
  182.8380  179.5260  143.7690 N   0  0  0  0  0  0  0  0  0  0  0  0
  183.9030  179.0960  143.6270 C   0  0  0  0  0  0  0  0  0  0  0  0
  190.7630  178.6890  143.9390 C   0  0  0  0  0  2  0  0  0  0  0  0
  189.7290  177.8890  146.1340 C   0  0  0  0  0  3  0  0  0  0  0  0
  191.0530  176.1380  146.9760 C   0  0  0  0  0  3  0  0  0  0  0  0
  190.6760  177.7950  145.1290 C   0  0  0  0  0  0  0  0  0  0  0  0
  189.9390  176.9570  147.1610 C   0  0  0  0  0  3  0  0  0  0  0  0
  191.7730  176.5920  145.5250 S   0  0  0  0  0  0  0  0  0  0  0  0
  191.5170  177.1950  142.0890 C   0  0  0  0  0  2  0  0  0  0  0  0
  191.9770  177.8800  140.8150 C   0  0  2  0  0  3  0  0  0  0  0  0
  191.6250  177.1160  139.7030 N   0  0  0  0  0  0  0  0  0  0  0  0
  194.2580  176.8490  140.2480 O   0  0  0  0  0  0  0  0  0  0  0  0
  193.0470  177.1860  140.2660 C   0  0  0  0  0  0  0  0  0  0  0  0
  190.6510  176.6120  138.7500 C   0  0  2  0  0  3  0  0  0  0  0  0
  189.2490  177.0320  139.1780 C   0  0  1  0  0  3  0  0  0  0  0  0
  189.0450  178.5120  138.9290 C   0  0  0  0  0  2  0  0  0  0  0  0
  188.3620  177.5080  138.0220 C   0  0  1  0  0  3  0  0  0  0  0  0
  188.0800  177.9210  135.8670 C   0  0  0  0  0  1  0  0  0  0  0  0
  189.0230  177.4700  136.7910 O   0  0  0  0  0  0  0  0  0  0  0  0
  190.7240  175.2180  138.7070 O   0  0  0  0  0  0  0  0  0  0  0  0
  191.2690  174.9270  137.4540 C   0  0  0  0  0  2  0  0  0  0  0  0
  189.4410  173.2150  137.1780 N   0  0  0  0  0  1  0  0  0  0  0  0
  190.0820  174.5890  135.4180 O   0  0  0  0  0  0  0  0  0  0  0  0
  190.2520  174.2400  136.6150 C   0  0  0  0  0  0  0  0  0  0  0  0
  1 20  1  1  0  0  0
  1  2  1  0  0  0  0
  1 14  1  0  0  0  0
  2  3  2  0  0  0  0
  2  5  1  0  0  0  0
  4 10  1  0  0  0  0
  5  4  2  0  0  0  0
  6  7  1  0  0  0  0
  7  8  1  0  0  0  0
  8 13  1  0  0  0  0
  8 10  2  0  0  0  0
  9  7  2  0  0  0  0
  9  5  1  0  0  0  0
 10 11  1  0  0  0  0
 13 12  3  0  0  0  0
 14 17  1  0  0  0  0
 15 18  1  0  0  0  0
 16 18  2  0  0  0  0
 17 19  1  0  0  0  0
 17 15  2  0  0  0  0
 19 16  1  0  0  0  0
 21 20  1  1  0  0  0
 22 24  1  0  0  0  0
 22 21  1  0  0  0  0
 23 24  2  0  0  0  0
 24 21  1  0  0  0  0
 25 31  1  1  0  0  0
 25 22  1  0  0  0  0
 26 25  1  6  0  0  0
 27 26  1  0  0  0  0
 28 30  1  6  0  0  0
 28 27  1  0  0  0  0
 28 26  1  0  0  0  0
 29 30  1  0  0  0  0
 32 31  1  0  0  0  0
 34 35  2  0  0  0  0
 35 33  1  0  0  0  0
 35 32  1  0  0  0  0
M  END
>  <MODEL>
3

>  <REMARK>
 VINA RESULT:      -7.8      3.481      6.787
  Name = 
  13 active torsions:
  status: ('A' for Active; 'I' for Inactive)
    1  A    between atoms: C_3  and  C_13
    2  A    between atoms: C_3  and  C_16
    3  A    between atoms: O_4  and  C_11
    4  A    between atoms: O_4  and  C_14
    5  A    between atoms: CA_5  and  C_22
    6  A    between atoms: N_6  and  C_11
    7  A    between atoms: C_8  and  C_13
    8  A    between atoms: C_8  and  C_30
    9  A    between atoms: C_11  and  C_19
   10  A    between atoms: C_13  and  C_22
   11  A    between atoms: C_14  and  C_26
   12  A    between atoms: C_23  and  C_31
   13  A    between atoms: O_32  and  C_34
                            x       y       z     vdW  Elec       q    Type
                         _______ _______ _______ _____ _____    ______ ____

>  <TORSDO>
F 13

$$$$
=
 OpenBabel11042411363D

 35 38  0  0  1  0  0  0  0  0999 V2000
  186.6360  178.1660  144.0600 C   0  0  1  0  0  3  0  0  0  0  0  0
  185.2850  178.8190  144.0050 C   0  0  0  0  0  0  0  0  0  0  0  0
  184.8180  179.3680  145.0410 O   0  0  0  0  0  0  0  0  0  0  0  0
  183.1650  178.4140  142.7440 C   0  0  0  0  0  3  0  0  0  0  0  0
  184.5050  178.8240  142.7530 C   0  0  0  0  0  0  0  0  0  0  0  0
  184.9720  179.7200  139.2010 O   0  0  0  0  0  1  0  0  0  0  0  0
  184.3600  179.2840  140.3710 C   0  0  0  0  0  0  0  0  0  0  0  0
  183.0140  178.8800  140.3690 C   0  0  0  0  0  0  0  0  0  0  0  0
  185.0960  179.2540  141.5580 C   0  0  0  0  0  3  0  0  0  0  0  0
  182.4210  178.4400  141.5620 C   0  0  0  0  0  0  0  0  0  0  0  0
  181.1260  178.0380  141.5860 F   0  0  0  0  0  0  0  0  0  0  0  0
  181.6230  178.9550  138.1750 N   0  0  0  0  0  0  0  0  0  0  0  0
  182.2430  178.9200  139.1520 C   0  0  0  0  0  0  0  0  0  0  0  0
  186.6840  177.0730  145.1190 C   0  0  0  0  0  2  0  0  0  0  0  0
  188.9560  177.1370  146.2880 C   0  0  0  0  0  3  0  0  0  0  0  0
  188.6850  178.2060  148.3650 C   0  0  0  0  0  3  0  0  0  0  0  0
  187.6100  177.4530  146.2260 C   0  0  0  0  0  0  0  0  0  0  0  0
  189.5540  177.5660  147.4820 C   0  0  0  0  0  3  0  0  0  0  0  0
  187.1650  178.2270  147.6440 S   0  0  0  0  0  0  0  0  0  0  0  0
  187.0080  177.5970  142.7020 C   0  0  0  0  0  2  0  0  0  0  0  0
  188.4880  177.8150  142.4440 C   0  0  2  0  0  3  0  0  0  0  0  0
  188.8400  177.3020  141.1960 N   0  0  0  0  0  0  0  0  0  0  0  0
  189.6540  175.6470  143.1720 O   0  0  0  0  0  0  0  0  0  0  0  0
  189.1630  176.6050  142.5200 C   0  0  0  0  0  0  0  0  0  0  0  0
  188.8630  177.3630  139.7450 C   0  0  2  0  0  3  0  0  0  0  0  0
  190.2300  177.8460  139.2720 C   0  0  1  0  0  3  0  0  0  0  0  0
  191.3300  177.1110  140.0080 C   0  0  0  0  0  2  0  0  0  0  0  0
  191.0560  176.7710  138.5570 C   0  0  1  0  0  3  0  0  0  0  0  0
  190.9700  174.8880  137.4000 C   0  0  0  0  0  1  0  0  0  0  0  0
  190.3900  175.5440  138.4860 O   0  0  0  0  0  0  0  0  0  0  0  0
  187.8790  178.2500  139.3030 O   0  0  0  0  0  0  0  0  0  0  0  0
  187.3400  177.6480  138.1640 C   0  0  0  0  0  2  0  0  0  0  0  0
  188.3680  177.7310  135.8650 N   0  0  0  0  0  1  0  0  0  0  0  0
  187.5240  179.6420  136.8780 O   0  0  0  0  0  0  0  0  0  0  0  0
  187.7530  178.4070  136.9550 C   0  0  0  0  0  0  0  0  0  0  0  0
  1 20  1  6  0  0  0
  1 14  1  0  0  0  0
  2  1  1  0  0  0  0
  2  3  2  0  0  0  0
  4  5  1  0  0  0  0
  5  2  1  0  0  0  0
  6  7  1  0  0  0  0
  7  9  1  0  0  0  0
  8  7  2  0  0  0  0
  8 10  1  0  0  0  0
  9  5  2  0  0  0  0
 10 11  1  0  0  0  0
 10  4  2  0  0  0  0
 12 13  3  0  0  0  0
 13  8  1  0  0  0  0
 14 17  1  0  0  0  0
 15 18  1  0  0  0  0
 17 15  2  0  0  0  0
 17 19  1  0  0  0  0
 18 16  2  0  0  0  0
 19 16  1  0  0  0  0
 21 24  1  0  0  0  0
 21 20  1  6  0  0  0
 22 21  1  0  0  0  0
 22 24  1  0  0  0  0
 24 23  2  0  0  0  0
 25 31  1  1  0  0  0
 25 22  1  0  0  0  0
 26 25  1  1  0  0  0
 26 27  1  0  0  0  0
 28 30  1  1  0  0  0
 28 26  1  0  0  0  0
 28 27  1  0  0  0  0
 29 30  1  0  0  0  0
 32 31  1  0  0  0  0
 33 35  1  0  0  0  0
 34 35  2  0  0  0  0
 35 32  1  0  0  0  0
M  END
>  <MODEL>
4

>  <REMARK>
 VINA RESULT:      -7.6      3.043      6.570
  Name = 
  13 active torsions:
  status: ('A' for Active; 'I' for Inactive)
    1  A    between atoms: C_3  and  C_13
    2  A    between atoms: C_3  and  C_16
    3  A    between atoms: O_4  and  C_11
    4  A    between atoms: O_4  and  C_14
    5  A    between atoms: CA_5  and  C_22
    6  A    between atoms: N_6  and  C_11
    7  A    between atoms: C_8  and  C_13
    8  A    between atoms: C_8  and  C_30
    9  A    between atoms: C_11  and  C_19
   10  A    between atoms: C_13  and  C_22
   11  A    between atoms: C_14  and  C_26
   12  A    between atoms: C_23  and  C_31
   13  A    between atoms: O_32  and  C_34
                            x       y       z     vdW  Elec       q    Type
                         _______ _______ _______ _____ _____    ______ ____

>  <TORSDO>
F 13

$$$$
=
 OpenBabel11042411363D

 35 38  0  0  1  0  0  0  0  0999 V2000
  187.6080  177.7450  143.4280 C   0  0  1  0  0  3  0  0  0  0  0  0
  186.6550  178.3090  142.4140 C   0  0  0  0  0  0  0  0  0  0  0  0
  187.0900  178.6660  141.2840 O   0  0  0  0  0  0  0  0  0  0  0  0
  184.8000  178.7430  144.0330 C   0  0  0  0  0  3  0  0  0  0  0  0
  185.2210  178.4480  142.7290 C   0  0  0  0  0  0  0  0  0  0  0  0
  181.9740  178.3020  140.9760 O   0  0  0  0  0  1  0  0  0  0  0  0
  182.9020  178.4500  142.0010 C   0  0  0  0  0  0  0  0  0  0  0  0
  182.4860  178.7550  143.3080 C   0  0  0  0  0  0  0  0  0  0  0  0
  184.2620  178.3000  141.7190 C   0  0  0  0  0  3  0  0  0  0  0  0
  183.4430  178.8960  144.3240 C   0  0  0  0  0  0  0  0  0  0  0  0
  183.0670  179.1830  145.5960 F   0  0  0  0  0  0  0  0  0  0  0  0
  179.9620  179.0640  143.8460 N   0  0  0  0  0  0  0  0  0  0  0  0
  181.0860  178.9270  143.6050 C   0  0  0  0  0  0  0  0  0  0  0  0
  186.8680  177.1250  144.6050 C   0  0  0  0  0  2  0  0  0  0  0  0
  188.8490  177.1640  146.2190 C   0  0  0  0  0  3  0  0  0  0  0  0
  188.1410  178.1560  148.2300 C   0  0  0  0  0  3  0  0  0  0  0  0
  187.5400  177.4720  145.8910 C   0  0  0  0  0  0  0  0  0  0  0  0
  189.1830  177.5550  147.5240 C   0  0  0  0  0  3  0  0  0  0  0  0
  186.8020  178.1920  147.2120 S   0  0  0  0  0  0  0  0  0  0  0  0
  188.5230  176.7170  142.7840 C   0  0  0  0  0  2  0  0  0  0  0  0
  189.8590  177.3570  142.4540 C   0  0  2  0  0  3  0  0  0  0  0  0
  190.4090  176.7650  141.3180 N   0  0  0  0  0  0  0  0  0  0  0  0
  191.6400  175.8690  143.5510 O   0  0  0  0  0  0  0  0  0  0  0  0
  190.8890  176.4730  142.7420 C   0  0  0  0  0  0  0  0  0  0  0  0
  190.4690  176.5570  139.8810 C   0  0  2  0  0  3  0  0  0  0  0  0
  191.5770  177.4160  139.2830 C   0  0  1  0  0  3  0  0  0  0  0  0
  192.9310  176.9380  139.7630 C   0  0  0  0  0  2  0  0  0  0  0  0
  192.5110  176.6560  138.3350 C   0  0  1  0  0  3  0  0  0  0  0  0
  192.4890  174.9780  136.8940 C   0  0  0  0  0  1  0  0  0  0  0  0
  192.1640  175.3080  138.2100 O   0  0  0  0  0  0  0  0  0  0  0  0
  189.2460  176.9150  139.3100 O   0  0  0  0  0  0  0  0  0  0  0  0
  189.4300  178.2260  138.8650 C   0  0  0  0  0  2  0  0  0  0  0  0
  187.1830  178.5910  137.7850 N   0  0  0  0  0  1  0  0  0  0  0  0
  189.1380  178.5990  136.5320 O   0  0  0  0  0  0  0  0  0  0  0  0
  188.5950  178.4670  137.6590 C   0  0  0  0  0  0  0  0  0  0  0  0
  1 20  1  6  0  0  0
  1 14  1  0  0  0  0
  2  5  1  0  0  0  0
  2  1  1  0  0  0  0
  3  2  2  0  0  0  0
  4 10  1  0  0  0  0
  5  4  2  0  0  0  0
  6  7  1  0  0  0  0
  7  8  1  0  0  0  0
  8 13  1  0  0  0  0
  8 10  2  0  0  0  0
  9  7  2  0  0  0  0
  9  5  1  0  0  0  0
 10 11  1  0  0  0  0
 13 12  3  0  0  0  0
 14 17  1  0  0  0  0
 15 18  1  0  0  0  0
 17 15  2  0  0  0  0
 17 19  1  0  0  0  0
 18 16  2  0  0  0  0
 19 16  1  0  0  0  0
 21 24  1  0  0  0  0
 21 20  1  1  0  0  0
 22 21  1  0  0  0  0
 22 24  1  0  0  0  0
 24 23  2  0  0  0  0
 25 31  1  6  0  0  0
 25 22  1  0  0  0  0
 26 27  1  0  0  0  0
 26 25  1  1  0  0  0
 28 30  1  1  0  0  0
 28 26  1  0  0  0  0
 28 27  1  0  0  0  0
 29 30  1  0  0  0  0
 32 31  1  0  0  0  0
 34 35  2  0  0  0  0
 35 33  1  0  0  0  0
 35 32  1  0  0  0  0
M  END
>  <MODEL>
5

>  <REMARK>
 VINA RESULT:      -7.6      2.963      6.346
  Name = 
  13 active torsions:
  status: ('A' for Active; 'I' for Inactive)
    1  A    between atoms: C_3  and  C_13
    2  A    between atoms: C_3  and  C_16
    3  A    between atoms: O_4  and  C_11
    4  A    between atoms: O_4  and  C_14
    5  A    between atoms: CA_5  and  C_22
    6  A    between atoms: N_6  and  C_11
    7  A    between atoms: C_8  and  C_13
    8  A    between atoms: C_8  and  C_30
    9  A    between atoms: C_11  and  C_19
   10  A    between atoms: C_13  and  C_22
   11  A    between atoms: C_14  and  C_26
   12  A    between atoms: C_23  and  C_31
   13  A    between atoms: O_32  and  C_34
                            x       y       z     vdW  Elec       q    Type
                         _______ _______ _______ _____ _____    ______ ____

>  <TORSDO>
F 13

$$$$
=
 OpenBabel11042411363D

 35 38  0  0  1  0  0  0  0  0999 V2000
  188.3400  177.5100  141.4810 C   0  0  1  0  0  3  0  0  0  0  0  0
  189.1080  176.7530  142.5260 C   0  0  0  0  0  0  0  0  0  0  0  0
  189.9670  175.9000  142.1690 O   0  0  0  0  0  0  0  0  0  0  0  0
  189.9390  177.1260  144.8550 C   0  0  0  0  0  3  0  0  0  0  0  0
  188.8670  177.0000  143.9600 C   0  0  0  0  0  0  0  0  0  0  0  0
  186.0070  177.5040  146.2420 O   0  0  0  0  0  1  0  0  0  0  0  0
  187.3180  177.3800  145.7940 C   0  0  0  0  0  0  0  0  0  0  0  0
  188.3960  177.5150  146.6850 C   0  0  0  0  0  0  0  0  0  0  0  0
  187.5580  177.1250  144.4420 C   0  0  0  0  0  3  0  0  0  0  0  0
  189.7090  177.3820  146.2080 C   0  0  0  0  0  0  0  0  0  0  0  0
  190.7680  177.5000  147.0480 F   0  0  0  0  0  0  0  0  0  0  0  0
  187.9670  178.0170  149.1980 N   0  0  0  0  0  0  0  0  0  0  0  0
  188.1590  177.7930  148.0790 C   0  0  0  0  0  0  0  0  0  0  0  0
  187.6290  178.7170  142.0770 C   0  0  0  0  0  2  0  0  0  0  0  0
  185.1720  178.3970  142.7010 C   0  0  0  0  0  3  0  0  0  0  0  0
  183.8860  178.5660  140.7410 C   0  0  0  0  0  3  0  0  0  0  0  0
  186.1680  178.6680  141.7800 C   0  0  0  0  0  0  0  0  0  0  0  0
  183.8980  178.3480  142.1180 C   0  0  0  0  0  3  0  0  0  0  0  0
  185.4790  178.8150  140.2600 S   0  0  0  0  0  0  0  0  0  0  0  0
  189.2610  177.9460  140.3550 C   0  0  0  0  0  2  0  0  0  0  0  0
  188.5950  177.6780  139.0170 C   0  0  2  0  0  3  0  0  0  0  0  0
  189.5170  177.1460  138.1170 N   0  0  0  0  0  0  0  0  0  0  0  0
  189.0540  179.7530  137.5780 O   0  0  0  0  0  0  0  0  0  0  0  0
  189.0370  178.5990  138.0780 C   0  0  0  0  0  0  0  0  0  0  0  0
  190.3350  176.0560  137.6140 C   0  0  2  0  0  3  0  0  0  0  0  0
  189.4420  174.8860  137.2150 C   0  0  1  0  0  3  0  0  0  0  0  0
  188.6960  175.2060  135.9370 C   0  0  0  0  0  2  0  0  0  0  0  0
  189.8440  174.2180  135.8950 C   0  0  1  0  0  3  0  0  0  0  0  0
  191.7830  173.7640  134.9320 C   0  0  0  0  0  1  0  0  0  0  0  0
  190.9580  174.8240  135.3070 O   0  0  0  0  0  0  0  0  0  0  0  0
  191.2210  175.6430  138.6110 O   0  0  0  0  0  0  0  0  0  0  0  0
  192.2720  176.5620  138.5570 C   0  0  0  0  0  2  0  0  0  0  0  0
  193.7590  174.6560  137.8470 N   0  0  0  0  0  1  0  0  0  0  0  0
  193.9280  176.7510  136.8580 O   0  0  0  0  0  0  0  0  0  0  0  0
  193.3690  176.0180  137.7150 C   0  0  0  0  0  0  0  0  0  0  0  0
  1 20  1  6  0  0  0
  1 14  1  0  0  0  0
  1  2  1  0  0  0  0
  2  5  1  0  0  0  0
  3  2  2  0  0  0  0
  4 10  1  0  0  0  0
  5  9  1  0  0  0  0
  5  4  2  0  0  0  0
  7  6  1  0  0  0  0
  7  8  1  0  0  0  0
  8 13  1  0  0  0  0
  9  7  2  0  0  0  0
 10  8  2  0  0  0  0
 10 11  1  0  0  0  0
 13 12  3  0  0  0  0
 16 18  2  0  0  0  0
 17 14  1  0  0  0  0
 17 15  2  0  0  0  0
 18 15  1  0  0  0  0
 19 16  1  0  0  0  0
 19 17  1  0  0  0  0
 21 20  1  1  0  0  0
 22 21  1  0  0  0  0
 23 24  2  0  0  0  0
 24 22  1  0  0  0  0
 24 21  1  0  0  0  0
 25 22  1  0  0  0  0
 25 31  1  1  0  0  0
 26 25  1  6  0  0  0
 27 26  1  0  0  0  0
 28 30  1  6  0  0  0
 28 27  1  0  0  0  0
 28 26  1  0  0  0  0
 29 30  1  0  0  0  0
 32 31  1  0  0  0  0
 34 35  2  0  0  0  0
 35 33  1  0  0  0  0
 35 32  1  0  0  0  0
M  END
>  <MODEL>
6

>  <REMARK>
 VINA RESULT:      -7.3      3.273      4.736
  Name = 
  13 active torsions:
  status: ('A' for Active; 'I' for Inactive)
    1  A    between atoms: C_3  and  C_13
    2  A    between atoms: C_3  and  C_16
    3  A    between atoms: O_4  and  C_11
    4  A    between atoms: O_4  and  C_14
    5  A    between atoms: CA_5  and  C_22
    6  A    between atoms: N_6  and  C_11
    7  A    between atoms: C_8  and  C_13
    8  A    between atoms: C_8  and  C_30
    9  A    between atoms: C_11  and  C_19
   10  A    between atoms: C_13  and  C_22
   11  A    between atoms: C_14  and  C_26
   12  A    between atoms: C_23  and  C_31
   13  A    between atoms: O_32  and  C_34
                            x       y       z     vdW  Elec       q    Type
                         _______ _______ _______ _____ _____    ______ ____

>  <TORSDO>
F 13

$$$$
=
 OpenBabel11042411363D

 35 38  0  0  1  0  0  0  0  0999 V2000
  189.7070  177.5590  140.2640 C   0  0  1  0  0  3  0  0  0  0  0  0
  191.0700  177.4650  140.8870 C   0  0  0  0  0  0  0  0  0  0  0  0
  192.0950  177.5340  140.1530 O   0  0  0  0  0  0  0  0  0  0  0  0
  190.9960  178.3670  143.2180 C   0  0  0  0  0  3  0  0  0  0  0  0
  191.2190  177.2940  142.3450 C   0  0  0  0  0  0  0  0  0  0  0  0
  192.0440  174.6150  144.7490 O   0  0  0  0  0  1  0  0  0  0  0  0
  191.6960  175.8660  144.2540 C   0  0  0  0  0  0  0  0  0  0  0  0
  191.4630  176.9440  145.1250 C   0  0  0  0  0  0  0  0  0  0  0  0
  191.5740  176.0460  142.8730 C   0  0  0  0  0  3  0  0  0  0  0  0
  191.1160  178.1980  144.5990 C   0  0  0  0  0  0  0  0  0  0  0  0
  190.8920  179.2560  145.4170 F   0  0  0  0  0  0  0  0  0  0  0  0
  191.6620  176.6230  147.6960 N   0  0  0  0  0  0  0  0  0  0  0  0
  191.5730  176.7650  146.5510 C   0  0  0  0  0  0  0  0  0  0  0  0
  189.5130  176.5010  139.1860 C   0  0  0  0  0  2  0  0  0  0  0  0
  187.7870  176.3980  137.3050 C   0  0  0  0  0  3  0  0  0  0  0  0
  187.9050  178.4050  136.0860 C   0  0  0  0  0  3  0  0  0  0  0  0
  188.7610  177.0640  138.0260 C   0  0  0  0  0  0  0  0  0  0  0  0
  187.3060  177.1540  136.2250 C   0  0  0  0  0  3  0  0  0  0  0  0
  189.0410  178.5560  137.3170 S   0  0  0  0  0  0  0  0  0  0  0  0
  188.6280  177.4300  141.3250 C   0  0  0  0  0  2  0  0  0  0  0  0
  187.8290  178.7190  141.3990 C   0  0  2  0  0  3  0  0  0  0  0  0
  186.6450  178.5120  142.1070 N   0  0  0  0  0  0  0  0  0  0  0  0
  186.1610  178.6240  139.4510 O   0  0  0  0  0  0  0  0  0  0  0  0
  186.7110  178.6290  140.5820 C   0  0  0  0  0  0  0  0  0  0  0  0
  185.9100  178.3110  143.3430 C   0  0  2  0  0  3  0  0  0  0  0  0
  186.6040  177.2470  144.1870 C   0  0  1  0  0  3  0  0  0  0  0  0
  187.7280  177.8640  144.9910 C   0  0  0  0  0  2  0  0  0  0  0  0
  186.4520  177.4530  145.6980 C   0  0  1  0  0  3  0  0  0  0  0  0
  186.0180  178.8700  147.3400 C   0  0  0  0  0  1  0  0  0  0  0  0
  185.7060  178.5940  146.0090 O   0  0  0  0  0  0  0  0  0  0  0  0
  184.6110  177.8930  143.0470 O   0  0  0  0  0  0  0  0  0  0  0  0
  183.9790  179.0280  142.5330 C   0  0  0  0  0  2  0  0  0  0  0  0
  181.4780  178.8590  142.2770 N   0  0  0  0  0  1  0  0  0  0  0  0
  182.9140  178.1050  140.6150 O   0  0  0  0  0  0  0  0  0  0  0  0
  182.7800  178.6230  141.7540 C   0  0  0  0  0  0  0  0  0  0  0  0
  1 14  1  6  0  0  0
  1  2  1  0  0  0  0
  1 20  1  0  0  0  0
  2  5  1  0  0  0  0
  3  2  2  0  0  0  0
  4 10  1  0  0  0  0
  5  9  1  0  0  0  0
  5  4  2  0  0  0  0
  7  6  1  0  0  0  0
  7  8  1  0  0  0  0
  8 13  1  0  0  0  0
  9  7  2  0  0  0  0
 10  8  2  0  0  0  0
 10 11  1  0  0  0  0
 13 12  3  0  0  0  0
 15 17  2  0  0  0  0
 16 18  2  0  0  0  0
 16 19  1  0  0  0  0
 17 14  1  0  0  0  0
 18 15  1  0  0  0  0
 19 17  1  0  0  0  0
 21 20  1  6  0  0  0
 21 22  1  0  0  0  0
 22 25  1  0  0  0  0
 23 24  2  0  0  0  0
 24 21  1  0  0  0  0
 24 22  1  0  0  0  0
 25 31  1  6  0  0  0
 26 25  1  6  0  0  0
 26 27  1  0  0  0  0
 26 28  1  0  0  0  0
 27 28  1  0  0  0  0
 28 30  1  6  0  0  0
 30 29  1  0  0  0  0
 32 31  1  0  0  0  0
 34 35  2  0  0  0  0
 35 33  1  0  0  0  0
 35 32  1  0  0  0  0
M  END
>  <MODEL>
7

>  <REMARK>
 VINA RESULT:      -7.2      2.802      6.631
  Name = 
  13 active torsions:
  status: ('A' for Active; 'I' for Inactive)
    1  A    between atoms: C_3  and  C_13
    2  A    between atoms: C_3  and  C_16
    3  A    between atoms: O_4  and  C_11
    4  A    between atoms: O_4  and  C_14
    5  A    between atoms: CA_5  and  C_22
    6  A    between atoms: N_6  and  C_11
    7  A    between atoms: C_8  and  C_13
    8  A    between atoms: C_8  and  C_30
    9  A    between atoms: C_11  and  C_19
   10  A    between atoms: C_13  and  C_22
   11  A    between atoms: C_14  and  C_26
   12  A    between atoms: C_23  and  C_31
   13  A    between atoms: O_32  and  C_34
                            x       y       z     vdW  Elec       q    Type
                         _______ _______ _______ _____ _____    ______ ____

>  <TORSDO>
F 13

$$$$
=
 OpenBabel11042411363D

 35 38  0  0  1  0  0  0  0  0999 V2000
  187.1200  178.4100  143.0460 C   0  0  1  0  0  3  0  0  0  0  0  0
  186.9550  177.9900  144.4780 C   0  0  0  0  0  0  0  0  0  0  0  0
  185.7950  177.8920  144.9670 O   0  0  0  0  0  0  0  0  0  0  0  0
  188.0570  177.7630  146.7110 C   0  0  0  0  0  3  0  0  0  0  0  0
  188.1340  177.6920  145.3130 C   0  0  0  0  0  0  0  0  0  0  0  0
  191.6470  176.6440  144.8720 O   0  0  0  0  0  1  0  0  0  0  0  0
  190.4610  177.0150  145.4960 C   0  0  0  0  0  0  0  0  0  0  0  0
  190.3750  177.0780  146.8970 C   0  0  0  0  0  0  0  0  0  0  0  0
  189.3440  177.3200  144.7140 C   0  0  0  0  0  3  0  0  0  0  0  0
  189.1680  177.4590  147.5010 C   0  0  0  0  0  0  0  0  0  0  0  0
  189.0600  177.5350  148.8510 F   0  0  0  0  0  0  0  0  0  0  0  0
  192.4350  176.4880  148.3680 N   0  0  0  0  0  0  0  0  0  0  0  0
  191.5180  176.7510  147.7120 C   0  0  0  0  0  0  0  0  0  0  0  0
  187.3570  177.2120  142.1370 C   0  0  0  0  0  2  0  0  0  0  0  0
  188.3990  178.2350  140.0410 C   0  0  0  0  0  3  0  0  0  0  0  0
  190.6290  177.5050  139.8950 C   0  0  0  0  0  3  0  0  0  0  0  0
  188.4840  177.4790  141.1970 C   0  0  0  0  0  0  0  0  0  0  0  0
  189.6030  178.2530  139.3200 C   0  0  0  0  0  3  0  0  0  0  0  0
  190.0200  176.8190  141.3060 S   0  0  0  0  0  0  0  0  0  0  0  0
  185.9050  179.1920  142.5770 C   0  0  0  0  0  2  0  0  0  0  0  0
  184.9120  178.2480  141.9220 C   0  0  2  0  0  3  0  0  0  0  0  0
  184.2290  178.9030  140.8980 N   0  0  0  0  0  0  0  0  0  0  0  0
  182.6660  178.6720  143.0900 O   0  0  0  0  0  0  0  0  0  0  0  0
  183.6180  178.6100  142.2700 C   0  0  0  0  0  0  0  0  0  0  0  0
  184.1560  179.4630  139.5600 C   0  0  2  0  0  3  0  0  0  0  0  0
  183.0170  178.8040  138.7890 C   0  0  1  0  0  3  0  0  0  0  0  0
  181.7190  178.9280  139.5600 C   0  0  0  0  0  2  0  0  0  0  0  0
  181.9310  179.7820  138.3260 C   0  0  1  0  0  3  0  0  0  0  0  0
  181.2000  181.8580  138.1030 C   0  0  0  0  0  1  0  0  0  0  0  0
  182.1980  181.0990  138.7140 O   0  0  0  0  0  0  0  0  0  0  0  0
  185.3610  179.2310  138.8940 O   0  0  0  0  0  0  0  0  0  0  0  0
  185.1180  178.1100  138.0950 C   0  0  0  0  0  2  0  0  0  0  0  0
  187.0900  178.9240  136.7550 N   0  0  0  0  0  1  0  0  0  0  0  0
  186.6280  176.6580  136.9660 O   0  0  0  0  0  0  0  0  0  0  0  0
  186.3010  177.8420  137.2360 C   0  0  0  0  0  0  0  0  0  0  0  0
  1 14  1  6  0  0  0
  1  2  1  0  0  0  0
  2  3  2  0  0  0  0
  2  5  1  0  0  0  0
  4 10  1  0  0  0  0
  5  4  2  0  0  0  0
  6  7  1  0  0  0  0
  7  8  1  0  0  0  0
  8 10  2  0  0  0  0
  8 13  1  0  0  0  0
  9  5  1  0  0  0  0
  9  7  2  0  0  0  0
 10 11  1  0  0  0  0
 13 12  3  0  0  0  0
 15 17  2  0  0  0  0
 16 19  1  0  0  0  0
 17 19  1  0  0  0  0
 17 14  1  0  0  0  0
 18 16  2  0  0  0  0
 18 15  1  0  0  0  0
 20  1  1  0  0  0  0
 21 24  1  0  0  0  0
 21 20  1  1  0  0  0
 22 21  1  0  0  0  0
 22 24  1  0  0  0  0
 24 23  2  0  0  0  0
 25 31  1  6  0  0  0
 25 22  1  0  0  0  0
 26 27  1  0  0  0  0
 26 25  1  1  0  0  0
 28 30  1  1  0  0  0
 28 26  1  0  0  0  0
 28 27  1  0  0  0  0
 29 30  1  0  0  0  0
 32 31  1  0  0  0  0
 33 35  1  0  0  0  0
 34 35  2  0  0  0  0
 35 32  1  0  0  0  0
M  END
>  <MODEL>
8

>  <REMARK>
 VINA RESULT:      -7.2      2.822      5.530
  Name = 
  13 active torsions:
  status: ('A' for Active; 'I' for Inactive)
    1  A    between atoms: C_3  and  C_13
    2  A    between atoms: C_3  and  C_16
    3  A    between atoms: O_4  and  C_11
    4  A    between atoms: O_4  and  C_14
    5  A    between atoms: CA_5  and  C_22
    6  A    between atoms: N_6  and  C_11
    7  A    between atoms: C_8  and  C_13
    8  A    between atoms: C_8  and  C_30
    9  A    between atoms: C_11  and  C_19
   10  A    between atoms: C_13  and  C_22
   11  A    between atoms: C_14  and  C_26
   12  A    between atoms: C_23  and  C_31
   13  A    between atoms: O_32  and  C_34
                            x       y       z     vdW  Elec       q    Type
                         _______ _______ _______ _____ _____    ______ ____

>  <TORSDO>
F 13

$$$$
=
 OpenBabel11042411363D

 35 38  0  0  1  0  0  0  0  0999 V2000
  184.2050  178.2570  143.8800 C   0  0  1  0  0  3  0  0  0  0  0  0
  184.8440  178.4620  145.2230 C   0  0  0  0  0  0  0  0  0  0  0  0
  184.1690  178.9730  146.1600 O   0  0  0  0  0  0  0  0  0  0  0  0
  186.8700  178.3340  146.6820 C   0  0  0  0  0  3  0  0  0  0  0  0
  186.2480  178.0730  145.4540 C   0  0  0  0  0  0  0  0  0  0  0  0
  188.9870  176.3820  143.6430 O   0  0  0  0  0  1  0  0  0  0  0  0
  188.2960  177.0300  144.6600 C   0  0  0  0  0  0  0  0  0  0  0  0
  188.9110  177.2860  145.8970 C   0  0  0  0  0  0  0  0  0  0  0  0
  186.9720  177.4230  144.4460 C   0  0  0  0  0  3  0  0  0  0  0  0
  188.1920  177.9450  146.9060 C   0  0  0  0  0  0  0  0  0  0  0  0
  188.7660  178.2100  148.1070 F   0  0  0  0  0  0  0  0  0  0  0  0
  191.3650  176.5410  146.3230 N   0  0  0  0  0  0  0  0  0  0  0  0
  190.2720  176.8720  146.1330 C   0  0  0  0  0  0  0  0  0  0  0  0
  183.3960  179.4750  143.4550 C   0  0  0  0  0  2  0  0  0  0  0  0
  181.2130  178.4910  144.3450 C   0  0  0  0  0  3  0  0  0  0  0  0
  179.5780  178.6860  142.6660 C   0  0  0  0  0  3  0  0  0  0  0  0
  181.9450  179.1380  143.3660 C   0  0  0  0  0  0  0  0  0  0  0  0
  179.8880  178.2470  143.9530 C   0  0  0  0  0  3  0  0  0  0  0  0
  180.9720  179.3760  142.0230 S   0  0  0  0  0  0  0  0  0  0  0  0
  185.2590  177.9360  142.8330 C   0  0  0  0  0  2  0  0  0  0  0  0
  185.6210  179.1970  142.0690 C   0  0  2  0  0  3  0  0  0  0  0  0
  185.4340  179.0020  140.7010 N   0  0  0  0  0  0  0  0  0  0  0  0
  188.0600  178.8940  141.3310 O   0  0  0  0  0  0  0  0  0  0  0  0
  186.8080  179.0040  141.3770 C   0  0  0  0  0  0  0  0  0  0  0  0
  184.5860  178.8680  139.5290 C   0  0  2  0  0  3  0  0  0  0  0  0
  184.1300  177.4200  139.3880 C   0  0  1  0  0  3  0  0  0  0  0  0
  182.9810  177.1360  140.3310 C   0  0  0  0  0  2  0  0  0  0  0  0
  182.7040  177.2660  138.8470 C   0  0  1  0  0  3  0  0  0  0  0  0
  180.7400  178.1970  138.4400 C   0  0  0  0  0  1  0  0  0  0  0  0
  182.0930  178.4980  138.5950 O   0  0  0  0  0  0  0  0  0  0  0  0
  185.3060  179.2400  138.3920 O   0  0  0  0  0  0  0  0  0  0  0  0
  185.8940  178.0570  137.9380 C   0  0  0  0  0  2  0  0  0  0  0  0
  188.2690  177.2990  138.2990 N   0  0  0  0  0  1  0  0  0  0  0  0
  187.7900  179.2520  137.1370 O   0  0  0  0  0  0  0  0  0  0  0  0
  187.3570  178.2560  137.7740 C   0  0  0  0  0  0  0  0  0  0  0  0
  1 20  1  6  0  0  0
  1  2  1  0  0  0  0
  2  5  1  0  0  0  0
  2  3  2  0  0  0  0
  4 10  1  0  0  0  0
  5  4  2  0  0  0  0
  6  7  1  0  0  0  0
  7  8  1  0  0  0  0
  8 13  1  0  0  0  0
  8 10  2  0  0  0  0
  9  7  2  0  0  0  0
  9  5  1  0  0  0  0
 10 11  1  0  0  0  0
 13 12  3  0  0  0  0
 14  1  1  0  0  0  0
 16 18  2  0  0  0  0
 17 14  1  0  0  0  0
 17 15  2  0  0  0  0
 18 15  1  0  0  0  0
 19 16  1  0  0  0  0
 19 17  1  0  0  0  0
 21 20  1  1  0  0  0
 22 24  1  0  0  0  0
 22 21  1  0  0  0  0
 23 24  2  0  0  0  0
 24 21  1  0  0  0  0
 25 31  1  6  0  0  0
 25 22  1  0  0  0  0
 26 25  1  1  0  0  0
 26 27  1  0  0  0  0
 28 30  1  1  0  0  0
 28 26  1  0  0  0  0
 28 27  1  0  0  0  0
 29 30  1  0  0  0  0
 32 31  1  0  0  0  0
 34 35  2  0  0  0  0
 35 32  1  0  0  0  0
 35 33  1  0  0  0  0
M  END
>  <MODEL>
9

>  <REMARK>
 VINA RESULT:      -7.1      1.660      3.709
  Name = 
  13 active torsions:
  status: ('A' for Active; 'I' for Inactive)
    1  A    between atoms: C_3  and  C_13
    2  A    between atoms: C_3  and  C_16
    3  A    between atoms: O_4  and  C_11
    4  A    between atoms: O_4  and  C_14
    5  A    between atoms: CA_5  and  C_22
    6  A    between atoms: N_6  and  C_11
    7  A    between atoms: C_8  and  C_13
    8  A    between atoms: C_8  and  C_30
    9  A    between atoms: C_11  and  C_19
   10  A    between atoms: C_13  and  C_22
   11  A    between atoms: C_14  and  C_26
   12  A    between atoms: C_23  and  C_31
   13  A    between atoms: O_32  and  C_34
                            x       y       z     vdW  Elec       q    Type
                         _______ _______ _______ _____ _____    ______ ____

>  <TORSDO>
F 13

$$$$
