=
 OpenBabel11042410563D

 26 30  0  0  1  0  0  0  0  0999 V2000
  185.3730  178.4250  144.9880 C   0  0  0  0  0  0  0  0  0  0  0  0
  187.0340  178.7870  148.0340 C   0  0  0  0  0  3  0  0  0  0  0  0
  185.3300  178.8910  146.2670 N   0  0  0  0  0  0  0  0  0  0  0  0
  186.5330  178.5520  146.7590 C   0  0  0  0  0  0  0  0  0  0  0  0
  187.2740  177.9090  145.8200 C   0  0  0  0  0  0  0  0  0  0  0  0
  189.0640  177.6980  147.3800 C   0  0  0  0  0  3  0  0  0  0  0  0
  188.2980  178.3490  148.3130 N   0  0  0  0  0  0  0  0  0  0  0  0
  188.5650  177.4560  146.0880 C   0  0  0  0  0  3  0  0  0  0  0  0
  186.5570  177.8150  144.6840 N   0  0  0  0  0  0  0  0  0  0  0  0
  189.7700  178.0780  141.2770 C   0  0  0  0  0  2  0  0  0  0  0  0
  188.9800  176.3370  142.6020 C   0  0  1  0  0  3  0  0  0  0  0  0
  189.0980  177.7750  142.5340 N   0  0  2  0  0  0  0  0  0  0  0  0
  187.7150  178.2170  142.5340 C   0  0  0  0  0  2  0  0  0  0  0  0
  191.4020  176.6040  142.3930 O   0  0  0  0  0  0  0  0  0  0  0  0
  190.9150  176.2880  140.1640 F   0  0  0  0  0  0  0  0  0  0  0  0
  191.0680  177.2390  141.1610 C   0  0  0  0  0  0  0  0  0  0  0  0
  190.3620  175.7350  142.8400 C   0  0  0  0  0  2  0  0  0  0  0  0
  187.9230  176.0510  143.6320 C   0  0  0  0  0  2  0  0  0  0  0  0
  186.9610  177.2130  143.4110 C   0  0  1  0  0  3  0  0  0  0  0  0
  192.1020  178.0820  140.8020 F   0  0  0  0  0  0  0  0  0  0  0  0
  182.9530  178.8640  144.5850 C   0  0  0  0  0  3  0  0  0  0  0  0
  184.3760  178.4800  142.6710 C   0  0  0  0  0  3  0  0  0  0  0  0
  181.8530  179.0230  143.7360 C   0  0  0  0  0  3  0  0  0  0  0  0
  182.0160  178.9100  142.3540 C   0  0  0  0  0  3  0  0  0  0  0  0
  184.2260  178.5910  144.0610 C   0  0  0  0  0  0  0  0  0  0  0  0
  183.2790  178.6390  141.8210 C   0  0  0  0  0  3  0  0  0  0  0  0
  1  3  2  0  0  0  0
  2  7  1  0  0  0  0
  3  4  1  0  0  0  0
  4  2  2  0  0  0  0
  5  8  2  0  0  0  0
  5  4  1  0  0  0  0
  6  7  2  0  0  0  0
  8  6  1  0  0  0  0
  9  1  1  0  0  0  0
  9  5  1  0  0  0  0
 11 17  1  1  0  0  0
 11 18  1  0  0  0  0
 12 10  1  6  0  0  0
 12 13  1  0  0  0  0
 12 11  1  0  0  0  0
 14 17  1  0  0  0  0
 15 16  1  0  0  0  0
 16 10  1  0  0  0  0
 16 14  1  0  0  0  0
 19 13  1  6  0  0  0
 19 18  1  0  0  0  0
 19  9  1  0  0  0  0
 20 16  1  0  0  0  0
 22 25  2  0  0  0  0
 23 21  2  0  0  0  0
 24 23  1  0  0  0  0
 25 21  1  0  0  0  0
 25  1  1  0  0  0  0
 26 24  2  0  0  0  0
 26 22  1  0  0  0  0
M  END
>  <MODEL>
1

>  <REMARK>
 VINA RESULT:      -9.5      0.000      0.000
  Name = 
  2 active torsions:
  status: ('A' for Active; 'I' for Inactive)
    1  A    between atoms: C_1  and  C_19
    2  A    between atoms: C_21  and  N_26
                            x       y       z     vdW  Elec       q    Type
                         _______ _______ _______ _____ _____    ______ ____

>  <TORSDO>
F 2

$$$$
=
 OpenBabel11042410563D

 26 30  0  0  1  0  0  0  0  0999 V2000
  186.6500  178.3370  141.9890 C   0  0  0  0  0  0  0  0  0  0  0  0
  189.0970  178.4920  139.5090 C   0  0  0  0  0  3  0  0  0  0  0  0
  187.0350  178.8600  140.7910 N   0  0  0  0  0  0  0  0  0  0  0  0
  188.2430  178.3080  140.5880 C   0  0  0  0  0  0  0  0  0  0  0  0
  188.5770  177.4860  141.6170 C   0  0  0  0  0  0  0  0  0  0  0  0
  190.6450  176.9860  140.5430 C   0  0  0  0  0  3  0  0  0  0  0  0
  190.2870  177.8200  139.5150 N   0  0  0  0  0  0  0  0  0  0  0  0
  189.7850  176.7930  141.6400 C   0  0  0  0  0  3  0  0  0  0  0  0
  187.5800  177.4890  142.5220 N   0  0  0  0  0  0  0  0  0  0  0  0
  189.2200  177.3760  146.9160 C   0  0  0  0  0  2  0  0  0  0  0  0
  187.0800  177.3480  146.0030 C   0  0  1  0  0  3  0  0  0  0  0  0
  188.4480  177.7190  145.7280 N   0  0  2  0  0  0  0  0  0  0  0  0
  188.7910  176.8810  144.5930 C   0  0  0  0  0  2  0  0  0  0  0  0
  187.5230  178.9150  147.8280 O   0  0  0  0  0  0  0  0  0  0  0  0
  188.0150  176.9630  148.9480 F   0  0  0  0  0  0  0  0  0  0  0  0
  188.5440  177.9820  148.1710 C   0  0  0  0  0  0  0  0  0  0  0  0
  186.5010  178.3130  147.0350 C   0  0  0  0  0  2  0  0  0  0  0  0
  186.3870  177.2760  144.6710 C   0  0  0  0  0  2  0  0  0  0  0  0
  187.5020  176.7410  143.7790 C   0  0  1  0  0  3  0  0  0  0  0  0
  189.5100  178.6350  148.9130 F   0  0  0  0  0  0  0  0  0  0  0  0
  184.1710  178.1070  142.1010 C   0  0  0  0  0  3  0  0  0  0  0  0
  185.2520  179.5790  143.6820 C   0  0  0  0  0  3  0  0  0  0  0  0
  182.9280  178.4160  142.6620 C   0  0  0  0  0  3  0  0  0  0  0  0
  182.8480  179.3090  143.7330 C   0  0  0  0  0  3  0  0  0  0  0  0
  185.3470  178.6840  142.6060 C   0  0  0  0  0  0  0  0  0  0  0  0
  184.0110  179.8900  144.2430 C   0  0  0  0  0  3  0  0  0  0  0  0
  1  9  1  0  0  0  0
  1 25  1  0  0  0  0
  2  7  2  0  0  0  0
  2  4  1  0  0  0  0
  3  1  2  0  0  0  0
  4  3  1  0  0  0  0
  4  5  2  0  0  0  0
  5  8  1  0  0  0  0
  5  9  1  0  0  0  0
  6  8  2  0  0  0  0
  7  6  1  0  0  0  0
 10 16  1  0  0  0  0
 11 18  1  6  0  0  0
 11 17  1  0  0  0  0
 12 13  1  6  0  0  0
 12 11  1  0  0  0  0
 12 10  1  0  0  0  0
 14 16  1  0  0  0  0
 16 20  1  0  0  0  0
 16 15  1  0  0  0  0
 17 14  1  0  0  0  0
 19  9  1  6  0  0  0
 19 13  1  0  0  0  0
 19 18  1  0  0  0  0
 21 25  2  0  0  0  0
 21 23  1  0  0  0  0
 22 26  2  0  0  0  0
 23 24  2  0  0  0  0
 24 26  1  0  0  0  0
 25 22  1  0  0  0  0
M  END
>  <MODEL>
2

>  <REMARK>
 VINA RESULT:      -9.0      3.159      5.350
  Name = 
  2 active torsions:
  status: ('A' for Active; 'I' for Inactive)
    1  A    between atoms: C_1  and  C_19
    2  A    between atoms: C_21  and  N_26
                            x       y       z     vdW  Elec       q    Type
                         _______ _______ _______ _____ _____    ______ ____

>  <TORSDO>
F 2

$$$$
=
 OpenBabel11042410563D

 26 30  0  0  1  0  0  0  0  0999 V2000
  187.6220  177.7430  145.6090 C   0  0  0  0  0  0  0  0  0  0  0  0
  190.5530  177.5060  147.4840 C   0  0  0  0  0  3  0  0  0  0  0  0
  188.2610  178.0330  146.7770 N   0  0  0  0  0  0  0  0  0  0  0  0
  189.4820  177.5020  146.6000 C   0  0  0  0  0  0  0  0  0  0  0  0
  189.5800  176.9150  145.3790 C   0  0  0  0  0  0  0  0  0  0  0  0
  191.8320  176.3010  145.8580 C   0  0  0  0  0  3  0  0  0  0  0  0
  191.7110  176.8990  147.0850 N   0  0  0  0  0  0  0  0  0  0  0  0
  190.7520  176.2920  144.9560 C   0  0  0  0  0  3  0  0  0  0  0  0
  188.4080  177.0540  144.7300 N   0  0  0  0  0  0  0  0  0  0  0  0
  188.1930  178.4150  140.2460 C   0  0  0  0  0  2  0  0  0  0  0  0
  189.1870  176.6110  141.3270 C   0  0  1  0  0  3  0  0  0  0  0  0
  188.6870  177.9490  141.5350 N   0  0  2  0  0  0  0  0  0  0  0  0
  187.6130  177.7500  142.4920 C   0  0  0  0  0  2  0  0  0  0  0  0
  190.5450  177.8780  139.7360 O   0  0  0  0  0  0  0  0  0  0  0  0
  188.8810  177.2140  138.2880 F   0  0  0  0  0  0  0  0  0  0  0  0
  189.2830  178.2110  139.1630 C   0  0  0  0  0  0  0  0  0  0  0  0
  190.4760  176.6830  140.5120 C   0  0  0  0  0  2  0  0  0  0  0  0
  189.2720  175.9760  142.6870 C   0  0  0  0  0  2  0  0  0  0  0  0
  188.0640  176.5900  143.3840 C   0  0  1  0  0  3  0  0  0  0  0  0
  189.4150  179.3870  138.4510 F   0  0  0  0  0  0  0  0  0  0  0  0
  185.3240  178.2220  146.4490 C   0  0  0  0  0  3  0  0  0  0  0  0
  185.7520  178.4840  144.0860 C   0  0  0  0  0  3  0  0  0  0  0  0
  183.9950  178.6070  146.2520 C   0  0  0  0  0  3  0  0  0  0  0  0
  183.5440  178.9310  144.9710 C   0  0  0  0  0  3  0  0  0  0  0  0
  186.2180  178.1570  145.3680 C   0  0  0  0  0  0  0  0  0  0  0  0
  184.4240  178.8690  143.8870 C   0  0  0  0  0  3  0  0  0  0  0  0
  1  3  2  0  0  0  0
  4  3  1  0  0  0  0
  4  2  2  0  0  0  0
  5  4  1  0  0  0  0
  6  7  2  0  0  0  0
  7  2  1  0  0  0  0
  8  5  2  0  0  0  0
  8  6  1  0  0  0  0
  9  5  1  0  0  0  0
  9  1  1  0  0  0  0
 11 17  1  1  0  0  0
 11 12  1  0  0  0  0
 11 18  1  0  0  0  0
 12 10  1  6  0  0  0
 12 13  1  0  0  0  0
 14 17  1  0  0  0  0
 15 16  1  0  0  0  0
 16 14  1  0  0  0  0
 16 10  1  0  0  0  0
 18 19  1  0  0  0  0
 19 13  1  6  0  0  0
 19  9  1  0  0  0  0
 20 16  1  0  0  0  0
 22 25  1  0  0  0  0
 23 21  1  0  0  0  0
 24 23  2  0  0  0  0
 25  1  1  0  0  0  0
 25 21  2  0  0  0  0
 26 22  2  0  0  0  0
 26 24  1  0  0  0  0
M  END
>  <MODEL>
3

>  <REMARK>
 VINA RESULT:      -8.5      1.929      2.689
  Name = 
  2 active torsions:
  status: ('A' for Active; 'I' for Inactive)
    1  A    between atoms: C_1  and  C_19
    2  A    between atoms: C_21  and  N_26
                            x       y       z     vdW  Elec       q    Type
                         _______ _______ _______ _____ _____    ______ ____

>  <TORSDO>
F 2

$$$$
=
 OpenBabel11042410563D

 26 30  0  0  1  0  0  0  0  0999 V2000
  184.7100  178.2620  142.4410 C   0  0  0  0  0  0  0  0  0  0  0  0
  183.8250  178.9190  145.7500 C   0  0  0  0  0  3  0  0  0  0  0  0
  183.7400  178.6670  143.3080 N   0  0  0  0  0  0  0  0  0  0  0  0
  184.3520  178.6100  144.5030 C   0  0  0  0  0  0  0  0  0  0  0  0
  185.6370  178.1890  144.3660 C   0  0  0  0  0  0  0  0  0  0  0  0
  185.9410  178.3640  146.7240 C   0  0  0  0  0  3  0  0  0  0  0  0
  184.6420  178.7870  146.8380 N   0  0  0  0  0  0  0  0  0  0  0  0
  186.4830  178.0470  145.4650 C   0  0  0  0  0  3  0  0  0  0  0  0
  185.8880  177.9590  143.0630 N   0  0  0  0  0  0  0  0  0  0  0  0
  190.4970  178.8150  142.9180 C   0  0  0  0  0  2  0  0  0  0  0  0
  189.2350  176.9010  143.3140 C   0  0  1  0  0  3  0  0  0  0  0  0
  189.1830  178.3450  143.3370 N   0  0  2  0  0  0  0  0  0  0  0  0
  188.1560  178.6490  142.3560 C   0  0  0  0  0  2  0  0  0  0  0  0
  191.0460  177.4180  144.8740 O   0  0  0  0  0  0  0  0  0  0  0  0
  192.3080  177.2440  142.9550 F   0  0  0  0  0  0  0  0  0  0  0  0
  191.5950  178.1170  143.7610 C   0  0  0  0  0  0  0  0  0  0  0  0
  190.1150  176.4180  144.4640 C   0  0  0  0  0  2  0  0  0  0  0  0
  187.8080  176.4290  143.2990 C   0  0  0  0  0  2  0  0  0  0  0  0
  187.1400  177.5080  142.4530 C   0  0  1  0  0  3  0  0  0  0  0  0
  192.4650  179.0830  144.2290 F   0  0  0  0  0  0  0  0  0  0  0  0
  183.3920  177.3970  140.5090 C   0  0  0  0  0  3  0  0  0  0  0  0
  185.2640  178.8540  140.0520 C   0  0  0  0  0  3  0  0  0  0  0  0
  183.1340  177.2970  139.1390 C   0  0  0  0  0  3  0  0  0  0  0  0
  183.9420  177.9760  138.2250 C   0  0  0  0  0  3  0  0  0  0  0  0
  184.4600  178.1770  140.9810 C   0  0  0  0  0  0  0  0  0  0  0  0
  185.0080  178.7550  138.6820 C   0  0  0  0  0  3  0  0  0  0  0  0
  1  9  1  0  0  0  0
  1  3  2  0  0  0  0
  2  7  1  0  0  0  0
  3  4  1  0  0  0  0
  4  2  2  0  0  0  0
  5  4  1  0  0  0  0
  5  8  2  0  0  0  0
  6  7  2  0  0  0  0
  8  6  1  0  0  0  0
  9  5  1  0  0  0  0
 10 12  1  0  0  0  0
 10 16  1  0  0  0  0
 11 18  1  1  0  0  0
 11 12  1  0  0  0  0
 11 17  1  0  0  0  0
 12 13  1  6  0  0  0
 15 16  1  0  0  0  0
 16 20  1  0  0  0  0
 16 14  1  0  0  0  0
 17 14  1  0  0  0  0
 19 13  1  1  0  0  0
 19  9  1  0  0  0  0
 19 18  1  0  0  0  0
 21 25  1  0  0  0  0
 22 25  2  0  0  0  0
 23 21  2  0  0  0  0
 24 26  2  0  0  0  0
 24 23  1  0  0  0  0
 25  1  1  0  0  0  0
 26 22  1  0  0  0  0
M  END
>  <MODEL>
4

>  <REMARK>
 VINA RESULT:      -8.4      2.061      2.965
  Name = 
  2 active torsions:
  status: ('A' for Active; 'I' for Inactive)
    1  A    between atoms: C_1  and  C_19
    2  A    between atoms: C_21  and  N_26
                            x       y       z     vdW  Elec       q    Type
                         _______ _______ _______ _____ _____    ______ ____

>  <TORSDO>
F 2

$$$$
=
 OpenBabel11042410563D

 26 30  0  0  1  0  0  0  0  0999 V2000
  187.7660  177.9870  142.2540 C   0  0  0  0  0  0  0  0  0  0  0  0
  185.3550  179.2910  140.0980 C   0  0  0  0  0  3  0  0  0  0  0  0
  187.5060  178.6210  141.0770 N   0  0  0  0  0  0  0  0  0  0  0  0
  186.1660  178.7220  141.0710 C   0  0  0  0  0  0  0  0  0  0  0  0
  185.6370  178.1730  142.1960 C   0  0  0  0  0  0  0  0  0  0  0  0
  183.4490  178.7330  141.4350 C   0  0  0  0  0  3  0  0  0  0  0  0
  184.0040  179.2810  140.3080 N   0  0  0  0  0  0  0  0  0  0  0  0
  184.2630  178.1550  142.4260 C   0  0  0  0  0  3  0  0  0  0  0  0
  186.6350  177.6970  142.9640 N   0  0  0  0  0  0  0  0  0  0  0  0
  188.7420  177.3160  147.1380 C   0  0  0  0  0  2  0  0  0  0  0  0
  186.5660  177.8120  146.4810 C   0  0  1  0  0  3  0  0  0  0  0  0
  187.9370  177.8060  146.0260 N   0  0  2  0  0  0  0  0  0  0  0  0
  187.9090  176.8680  144.9180 C   0  0  0  0  0  2  0  0  0  0  0  0
  187.6200  179.2730  148.1340 O   0  0  0  0  0  0  0  0  0  0  0  0
  187.7420  177.3000  149.3180 F   0  0  0  0  0  0  0  0  0  0  0  0
  188.4080  178.1200  148.4200 C   0  0  0  0  0  0  0  0  0  0  0  0
  186.3860  178.9290  147.5060 C   0  0  0  0  0  2  0  0  0  0  0  0
  185.7130  177.8750  145.2440 C   0  0  0  0  0  2  0  0  0  0  0  0
  186.5320  177.0380  144.2680 C   0  0  1  0  0  3  0  0  0  0  0  0
  189.5940  178.5260  149.0010 F   0  0  0  0  0  0  0  0  0  0  0  0
  189.6470  176.3680  142.4890 C   0  0  0  0  0  3  0  0  0  0  0  0
  189.9890  178.6310  143.2590 C   0  0  0  0  0  3  0  0  0  0  0  0
  190.9490  176.0380  142.8770 C   0  0  0  0  0  3  0  0  0  0  0  0
  191.7710  177.0060  143.4560 C   0  0  0  0  0  3  0  0  0  0  0  0
  189.1530  177.6680  142.6750 C   0  0  0  0  0  0  0  0  0  0  0  0
  191.2900  178.3040  143.6470 C   0  0  0  0  0  3  0  0  0  0  0  0
  1 25  1  0  0  0  0
  1  9  1  0  0  0  0
  2  7  2  0  0  0  0
  2  4  1  0  0  0  0
  3  1  2  0  0  0  0
  4  3  1  0  0  0  0
  4  5  2  0  0  0  0
  5  8  1  0  0  0  0
  5  9  1  0  0  0  0
  6  8  2  0  0  0  0
  7  6  1  0  0  0  0
 10 16  1  0  0  0  0
 11 18  1  6  0  0  0
 11 17  1  0  0  0  0
 12 13  1  6  0  0  0
 12 11  1  0  0  0  0
 12 10  1  0  0  0  0
 14 16  1  0  0  0  0
 16 20  1  0  0  0  0
 16 15  1  0  0  0  0
 17 14  1  0  0  0  0
 19  9  1  6  0  0  0
 19 13  1  0  0  0  0
 19 18  1  0  0  0  0
 21 25  2  0  0  0  0
 21 23  1  0  0  0  0
 22 26  2  0  0  0  0
 23 24  2  0  0  0  0
 24 26  1  0  0  0  0
 25 22  1  0  0  0  0
M  END
>  <MODEL>
5

>  <REMARK>
 VINA RESULT:      -8.0      3.398      6.633
  Name = 
  2 active torsions:
  status: ('A' for Active; 'I' for Inactive)
    1  A    between atoms: C_1  and  C_19
    2  A    between atoms: C_21  and  N_26
                            x       y       z     vdW  Elec       q    Type
                         _______ _______ _______ _____ _____    ______ ____

>  <TORSDO>
F 2

$$$$
=
 OpenBabel11042410563D

 26 30  0  0  1  0  0  0  0  0999 V2000
  187.7890  177.7540  144.1990 C   0  0  0  0  0  0  0  0  0  0  0  0
  184.4220  178.3460  143.5090 C   0  0  0  0  0  3  0  0  0  0  0  0
  186.5150  177.8130  144.6790 N   0  0  0  0  0  0  0  0  0  0  0  0
  185.7940  178.1490  143.5960 C   0  0  0  0  0  0  0  0  0  0  0  0
  186.5950  178.2870  142.5070 C   0  0  0  0  0  0  0  0  0  0  0  0
  184.6910  178.8290  141.1800 C   0  0  0  0  0  3  0  0  0  0  0  0
  183.9020  178.6840  142.2910 N   0  0  0  0  0  0  0  0  0  0  0  0
  186.0810  178.6320  141.2580 C   0  0  0  0  0  3  0  0  0  0  0  0
  187.8690  178.0430  142.8660 N   0  0  0  0  0  0  0  0  0  0  0  0
  189.7480  176.1460  139.0090 C   0  0  0  0  0  2  0  0  0  0  0  0
  189.4100  178.3370  139.7150 C   0  0  1  0  0  3  0  0  0  0  0  0
  188.9550  176.9790  139.9040 N   0  0  2  0  0  0  0  0  0  0  0  0
  189.2610  176.7240  141.3010 C   0  0  0  0  0  2  0  0  0  0  0  0
  188.7150  177.7490  137.4450 O   0  0  0  0  0  0  0  0  0  0  0  0
  190.9520  177.2380  137.2450 F   0  0  0  0  0  0  0  0  0  0  0  0
  189.7040  176.7320  137.5740 C   0  0  0  0  0  0  0  0  0  0  0  0
  188.9470  178.8310  138.3470 C   0  0  0  0  0  2  0  0  0  0  0  0
  188.9380  179.1090  140.9160 C   0  0  0  0  0  2  0  0  0  0  0  0
  189.0630  178.0630  142.0180 C   0  0  1  0  0  3  0  0  0  0  0  0
  189.4050  175.7090  136.6960 F   0  0  0  0  0  0  0  0  0  0  0  0
  188.7150  177.2070  146.4480 C   0  0  0  0  0  3  0  0  0  0  0  0
  190.2370  177.2730  144.5740 C   0  0  0  0  0  3  0  0  0  0  0  0
  189.7740  176.8800  147.2980 C   0  0  0  0  0  3  0  0  0  0  0  0
  191.0670  176.7500  146.7860 C   0  0  0  0  0  3  0  0  0  0  0  0
  188.9340  177.4070  145.0760 C   0  0  0  0  0  0  0  0  0  0  0  0
  191.2980  176.9470  145.4220 C   0  0  0  0  0  3  0  0  0  0  0  0
  1  3  2  0  0  0  0
  1 25  1  0  0  0  0
  2  4  1  0  0  0  0
  4  3  1  0  0  0  0
  5  9  1  0  0  0  0
  5  4  2  0  0  0  0
  6  8  2  0  0  0  0
  6  7  1  0  0  0  0
  7  2  2  0  0  0  0
  8  5  1  0  0  0  0
  9  1  1  0  0  0  0
 11 17  1  6  0  0  0
 11 12  1  0  0  0  0
 11 18  1  0  0  0  0
 12 10  1  6  0  0  0
 12 13  1  0  0  0  0
 13 19  1  0  0  0  0
 14 16  1  0  0  0  0
 14 17  1  0  0  0  0
 15 16  1  0  0  0  0
 16 10  1  0  0  0  0
 19 18  1  6  0  0  0
 19  9  1  0  0  0  0
 20 16  1  0  0  0  0
 21 23  1  0  0  0  0
 22 25  1  0  0  0  0
 22 26  2  0  0  0  0
 24 23  2  0  0  0  0
 25 21  2  0  0  0  0
 26 24  1  0  0  0  0
M  END
>  <MODEL>
6

>  <REMARK>
 VINA RESULT:      -8.0      2.428      5.410
  Name = 
  2 active torsions:
  status: ('A' for Active; 'I' for Inactive)
    1  A    between atoms: C_1  and  C_19
    2  A    between atoms: C_21  and  N_26
                            x       y       z     vdW  Elec       q    Type
                         _______ _______ _______ _____ _____    ______ ____

>  <TORSDO>
F 2

$$$$
=
 OpenBabel11042410563D

 26 30  0  0  1  0  0  0  0  0999 V2000
  185.8580  178.5700  140.8290 C   0  0  0  0  0  0  0  0  0  0  0  0
  187.2780  178.3100  137.6540 C   0  0  0  0  0  3  0  0  0  0  0  0
  185.6630  178.6090  139.4810 N   0  0  0  0  0  0  0  0  0  0  0  0
  186.8910  178.3810  138.9860 C   0  0  0  0  0  0  0  0  0  0  0  0
  187.7920  178.2110  139.9890 C   0  0  0  0  0  0  0  0  0  0  0  0
  189.5200  177.8900  138.3800 C   0  0  0  0  0  3  0  0  0  0  0  0
  188.5950  178.0640  137.3830 N   0  0  0  0  0  0  0  0  0  0  0  0
  189.1380  177.9600  139.7320 C   0  0  0  0  0  3  0  0  0  0  0  0
  187.1580  178.3290  141.1720 N   0  0  0  0  0  0  0  0  0  0  0  0
  190.1100  175.7620  143.7610 C   0  0  0  0  0  2  0  0  0  0  0  0
  189.9190  178.0410  143.3360 C   0  0  1  0  0  3  0  0  0  0  0  0
  189.5730  176.7370  142.8200 N   0  0  2  0  0  0  0  0  0  0  0  0
  188.1210  176.7590  142.8250 C   0  0  0  0  0  2  0  0  0  0  0  0
  192.1290  177.0190  143.1110 O   0  0  0  0  0  0  0  0  0  0  0  0
  191.7610  176.5160  145.3280 F   0  0  0  0  0  0  0  0  0  0  0  0
  191.6070  176.0610  144.0280 C   0  0  0  0  0  0  0  0  0  0  0  0
  191.4220  178.2560  143.1770 C   0  0  0  0  0  2  0  0  0  0  0  0
  189.0110  179.0210  142.6450 C   0  0  0  0  0  2  0  0  0  0  0  0
  187.7290  178.2060  142.5150 C   0  0  1  0  0  3  0  0  0  0  0  0
  192.3170  174.8840  143.8920 F   0  0  0  0  0  0  0  0  0  0  0  0
  183.4270  178.4880  141.3730 C   0  0  0  0  0  3  0  0  0  0  0  0
  184.9530  179.2490  143.0840 C   0  0  0  0  0  3  0  0  0  0  0  0
  182.3530  178.6720  142.2490 C   0  0  0  0  0  3  0  0  0  0  0  0
  182.5800  179.1450  143.5430 C   0  0  0  0  0  3  0  0  0  0  0  0
  184.7390  178.7740  141.7810 C   0  0  0  0  0  0  0  0  0  0  0  0
  183.8810  179.4340  143.9600 C   0  0  0  0  0  3  0  0  0  0  0  0
  1  9  1  0  0  0  0
  1 25  1  0  0  0  0
  2  4  1  0  0  0  0
  3  1  2  0  0  0  0
  4  3  1  0  0  0  0
  4  5  2  0  0  0  0
  5  9  1  0  0  0  0
  6  8  2  0  0  0  0
  7  2  2  0  0  0  0
  7  6  1  0  0  0  0
  8  5  1  0  0  0  0
 10 16  1  0  0  0  0
 11 18  1  6  0  0  0
 12 13  1  1  0  0  0
 12 11  1  0  0  0  0
 12 10  1  0  0  0  0
 14 17  1  0  0  0  0
 14 16  1  0  0  0  0
 16 15  1  0  0  0  0
 17 11  1  0  0  0  0
 19  9  1  6  0  0  0
 19 18  1  0  0  0  0
 19 13  1  0  0  0  0
 20 16  1  0  0  0  0
 21 25  2  0  0  0  0
 21 23  1  0  0  0  0
 22 26  2  0  0  0  0
 23 24  2  0  0  0  0
 24 26  1  0  0  0  0
 25 22  1  0  0  0  0
M  END
>  <MODEL>
7

>  <REMARK>
 VINA RESULT:      -7.9      2.904      4.992
  Name = 
  2 active torsions:
  status: ('A' for Active; 'I' for Inactive)
    1  A    between atoms: C_1  and  C_19
    2  A    between atoms: C_21  and  N_26
                            x       y       z     vdW  Elec       q    Type
                         _______ _______ _______ _____ _____    ______ ____

>  <TORSDO>
F 2

$$$$
=
 OpenBabel11042410563D

 26 30  0  0  1  0  0  0  0  0999 V2000
  190.7410  176.7430  143.1180 C   0  0  0  0  0  0  0  0  0  0  0  0
  191.0000  177.8020  139.8050 C   0  0  0  0  0  3  0  0  0  0  0  0
  191.5600  177.1330  142.1010 N   0  0  0  0  0  0  0  0  0  0  0  0
  190.7050  177.3730  141.0920 C   0  0  0  0  0  0  0  0  0  0  0  0
  189.4240  177.1380  141.4800 C   0  0  0  0  0  0  0  0  0  0  0  0
  188.6580  177.7510  139.3080 C   0  0  0  0  0  3  0  0  0  0  0  0
  189.9580  177.9820  138.9380 N   0  0  0  0  0  0  0  0  0  0  0  0
  188.3510  177.3160  140.6090 C   0  0  0  0  0  3  0  0  0  0  0  0
  189.4210  176.7350  142.7650 N   0  0  0  0  0  0  0  0  0  0  0  0
  187.0840  177.9910  146.6330 C   0  0  0  0  0  2  0  0  0  0  0  0
  186.4450  177.6040  144.4290 C   0  0  1  0  0  3  0  0  0  0  0  0
  187.5770  177.9360  145.2630 N   0  0  2  0  0  0  0  0  0  0  0  0
  188.4770  176.8160  145.0510 C   0  0  0  0  0  2  0  0  0  0  0  0
  185.6590  179.6560  145.5030 O   0  0  0  0  0  0  0  0  0  0  0  0
  184.7130  178.1440  146.9590 F   0  0  0  0  0  0  0  0  0  0  0  0
  185.8390  178.9110  146.7040 C   0  0  0  0  0  0  0  0  0  0  0  0
  185.5030  178.8040  144.3690 C   0  0  0  0  0  2  0  0  0  0  0  0
  187.0110  177.1120  143.1260 C   0  0  0  0  0  2  0  0  0  0  0  0
  188.2670  176.3870  143.5960 C   0  0  1  0  0  3  0  0  0  0  0  0
  186.0090  179.7940  147.7520 F   0  0  0  0  0  0  0  0  0  0  0  0
  191.9150  175.1370  144.6200 C   0  0  0  0  0  3  0  0  0  0  0  0
  191.1670  177.2350  145.5550 C   0  0  0  0  0  3  0  0  0  0  0  0
  192.4300  174.7640  145.8640 C   0  0  0  0  0  3  0  0  0  0  0  0
  192.3130  175.6280  146.9560 C   0  0  0  0  0  3  0  0  0  0  0  0
  191.2780  176.3770  144.4510 C   0  0  0  0  0  0  0  0  0  0  0  0
  191.6810  176.8640  146.8000 C   0  0  0  0  0  3  0  0  0  0  0  0
  1 25  1  0  0  0  0
  2  4  1  0  0  0  0
  3  1  2  0  0  0  0
  4  5  2  0  0  0  0
  4  3  1  0  0  0  0
  5  9  1  0  0  0  0
  6  8  2  0  0  0  0
  7  6  1  0  0  0  0
  7  2  2  0  0  0  0
  8  5  1  0  0  0  0
  9  1  1  0  0  0  0
 10 16  1  0  0  0  0
 11 18  1  6  0  0  0
 11 12  1  0  0  0  0
 12 13  1  1  0  0  0
 12 10  1  0  0  0  0
 14 16  1  0  0  0  0
 16 15  1  0  0  0  0
 16 20  1  0  0  0  0
 17 11  1  0  0  0  0
 17 14  1  0  0  0  0
 18 19  1  0  0  0  0
 19  9  1  6  0  0  0
 19 13  1  0  0  0  0
 21 23  1  0  0  0  0
 22 26  2  0  0  0  0
 23 24  2  0  0  0  0
 25 21  2  0  0  0  0
 25 22  1  0  0  0  0
 26 24  1  0  0  0  0
M  END
>  <MODEL>
8

>  <REMARK>
 VINA RESULT:      -7.8      3.527      7.401
  Name = 
  2 active torsions:
  status: ('A' for Active; 'I' for Inactive)
    1  A    between atoms: C_1  and  C_19
    2  A    between atoms: C_21  and  N_26
                            x       y       z     vdW  Elec       q    Type
                         _______ _______ _______ _____ _____    ______ ____

>  <TORSDO>
F 2

$$$$
=
 OpenBabel11042410563D

 26 30  0  0  1  0  0  0  0  0999 V2000
  188.1920  177.6180  142.8970 C   0  0  0  0  0  0  0  0  0  0  0  0
  184.8160  178.4610  142.6550 C   0  0  0  0  0  3  0  0  0  0  0  0
  187.0000  177.7680  143.5410 N   0  0  0  0  0  0  0  0  0  0  0  0
  186.1700  178.1620  142.5610 C   0  0  0  0  0  0  0  0  0  0  0  0
  186.8280  178.2470  141.3760 C   0  0  0  0  0  0  0  0  0  0  0  0
  184.8110  178.9360  140.3080 C   0  0  0  0  0  3  0  0  0  0  0  0
  184.1670  178.8430  141.5150 N   0  0  0  0  0  0  0  0  0  0  0  0
  186.1810  178.6360  140.2040 C   0  0  0  0  0  3  0  0  0  0  0  0
  188.1170  177.9070  141.5640 N   0  0  0  0  0  0  0  0  0  0  0  0
  189.2830  175.9770  137.4510 C   0  0  0  0  0  2  0  0  0  0  0  0
  189.2570  178.1640  138.2450 C   0  0  1  0  0  3  0  0  0  0  0  0
  188.7000  176.8490  138.4620 N   0  0  2  0  0  0  0  0  0  0  0  0
  189.1570  176.5180  139.8000 C   0  0  0  0  0  2  0  0  0  0  0  0
  188.2200  177.7240  136.0740 O   0  0  0  0  0  0  0  0  0  0  0  0
  190.3500  177.0100  135.5680 F   0  0  0  0  0  0  0  0  0  0  0  0
  189.1120  176.6130  136.0480 C   0  0  0  0  0  0  0  0  0  0  0  0
  188.6720  178.7460  136.9610 C   0  0  0  0  0  2  0  0  0  0  0  0
  189.0240  178.9350  139.5140 C   0  0  0  0  0  2  0  0  0  0  0  0
  189.1870  177.8430  140.5660 C   0  0  1  0  0  3  0  0  0  0  0  0
  188.6020  175.6550  135.1950 F   0  0  0  0  0  0  0  0  0  0  0  0
  189.7760  177.8260  144.8100 C   0  0  0  0  0  3  0  0  0  0  0  0
  190.2240  176.1410  143.1380 C   0  0  0  0  0  3  0  0  0  0  0  0
  190.9230  177.4380  145.5100 C   0  0  0  0  0  3  0  0  0  0  0  0
  191.7200  176.4000  145.0220 C   0  0  0  0  0  3  0  0  0  0  0  0
  189.4140  177.1820  143.6170 C   0  0  0  0  0  0  0  0  0  0  0  0
  191.3700  175.7520  143.8350 C   0  0  0  0  0  3  0  0  0  0  0  0
  1  3  2  0  0  0  0
  1 25  1  0  0  0  0
  4  2  1  0  0  0  0
  4  3  1  0  0  0  0
  5  9  1  0  0  0  0
  5  4  2  0  0  0  0
  6  7  1  0  0  0  0
  7  2  2  0  0  0  0
  8  6  2  0  0  0  0
  8  5  1  0  0  0  0
  9  1  1  0  0  0  0
 11 17  1  6  0  0  0
 11 12  1  0  0  0  0
 11 18  1  0  0  0  0
 12 10  1  6  0  0  0
 12 13  1  0  0  0  0
 13 19  1  0  0  0  0
 14 17  1  0  0  0  0
 15 16  1  0  0  0  0
 16 14  1  0  0  0  0
 16 10  1  0  0  0  0
 19 18  1  6  0  0  0
 19  9  1  0  0  0  0
 20 16  1  0  0  0  0
 21 23  1  0  0  0  0
 22 25  1  0  0  0  0
 22 26  2  0  0  0  0
 24 23  2  0  0  0  0
 25 21  2  0  0  0  0
 26 24  1  0  0  0  0
M  END
>  <MODEL>
9

>  <REMARK>
 VINA RESULT:      -7.7      3.213      6.154
  Name = 
  2 active torsions:
  status: ('A' for Active; 'I' for Inactive)
    1  A    between atoms: C_1  and  C_19
    2  A    between atoms: C_21  and  N_26
                            x       y       z     vdW  Elec       q    Type
                         _______ _______ _______ _____ _____    ______ ____

>  <TORSDO>
F 2

$$$$
