=
 OpenBabel11042412153D

 34 40  0  0  1  0  0  0  0  0999 V2000
  191.5310  177.1930  140.2270 C   0  0  0  0  0  0  0  0  0  0  0  0
  192.5680  176.5530  138.4150 C   0  0  0  0  0  0  0  0  0  0  0  0
  192.9630  177.5280  140.2990 C   0  0  0  0  0  3  0  0  0  0  0  0
  192.6880  176.2520  137.1620 N   0  0  0  0  0  0  0  0  0  0  0  0
  189.1480  177.7790  141.6370 C   0  0  1  0  0  0  0  0  0  0  0  0
  188.4430  176.3250  139.0060 S   0  0  0  0  0  0  0  0  0  0  0  0
  190.1280  178.4150  142.3670 C   0  0  1  0  0  3  0  0  0  0  0  0
  189.3180  176.5190  143.6870 C   0  0  1  0  0  3  0  0  0  0  0  0
  188.6490  176.5210  142.3300 C   0  0  0  0  0  2  0  0  0  0  0  0
  190.4150  177.5660  143.5980 C   0  0  0  0  0  2  0  0  0  0  0  0
  191.5460  175.7290  136.3890 C   0  0  0  0  0  2  0  0  0  0  0  0
  193.5760  177.1520  139.2160 N   0  0  0  0  0  0  0  0  0  0  0  0
  190.2420  175.9190  137.0650 N   0  0  0  0  0  0  0  0  0  0  0  0
  188.2410  178.6840  140.7950 C   0  0  1  0  0  3  0  0  0  0  0  0
  191.3070  176.5780  139.0770 C   0  0  0  0  0  0  0  0  0  0  0  0
  190.0960  176.2650  138.3120 C   0  0  0  0  0  0  0  0  0  0  0  0
  190.5430  177.6660  141.1350 N   0  0  0  0  0  0  0  0  0  0  0  0
  188.3840  178.4590  138.9770 S   0  0  0  0  0  0  0  0  0  0  0  0
  188.8040  177.2600  146.0420 N   0  0  0  0  0  2  0  0  0  0  0  0
  187.0890  176.8210  144.5180 O   0  0  0  0  0  0  0  0  0  0  0  0
  188.3290  176.8760  144.7520 C   0  0  0  0  0  0  0  0  0  0  0  0
  188.2480  176.8320  148.2640 O   0  0  0  0  0  0  0  0  0  0  0  0
  188.6540  178.1800  148.2490 C   0  0  0  0  0  2  0  0  0  0  0  0
  187.8960  177.5860  147.1290 C   0  0  1  0  0  3  0  0  0  0  0  0
  186.7890  178.5890  141.2370 C   0  0  0  0  0  2  0  0  0  0  0  0
  185.9380  179.3210  140.3130 N   0  0  0  0  0  2  0  0  0  0  0  0
  184.7610  178.5020  140.0720 C   0  0  0  0  0  2  0  0  0  0  0  0
  183.2340  178.9280  143.4980 C   0  0  0  0  0  0  0  0  0  0  0  0
  182.4040  178.7400  140.8830 C   0  0  0  0  0  3  0  0  0  0  0  0
  184.1880  178.7790  142.4950 C   0  0  0  0  0  3  0  0  0  0  0  0
  183.7680  178.6900  141.1690 C   0  0  0  0  0  0  0  0  0  0  0  0
  181.9160  178.9760  143.1690 N   0  0  0  0  0  0  0  0  0  0  0  0
  183.6520  179.0320  144.9200 C   0  0  0  0  0  1  0  0  0  0  0  0
  181.5130  178.8840  141.9000 N   0  0  0  0  0  0  0  0  0  0  0  0
  1  3  1  0  0  0  0
  1 17  1  0  0  0  0
  2 15  1  0  0  0  0
  2 12  1  0  0  0  0
  4  2  2  0  0  0  0
  5  9  1  1  0  0  0
  5  7  1  0  0  0  0
  7 10  1  1  0  0  0
  8 21  1  1  0  0  0
  9  8  1  0  0  0  0
 10  8  1  0  0  0  0
 11 13  1  0  0  0  0
 11  4  1  0  0  0  0
 12  3  2  0  0  0  0
 13 16  2  0  0  0  0
 14 25  1  1  0  0  0
 14  5  1  0  0  0  0
 15  1  2  0  0  0  0
 16  6  1  0  0  0  0
 16 15  1  0  0  0  0
 17  5  1  0  0  0  0
 17  7  1  0  0  0  0
 18  6  1  0  0  0  0
 18 14  1  0  0  0  0
 20 21  2  0  0  0  0
 21 19  1  0  0  0  0
 23 22  1  0  0  0  0
 24 19  1  6  0  0  0
 24 23  1  0  0  0  0
 24 22  1  0  0  0  0
 26 25  1  0  0  0  0
 27 26  1  0  0  0  0
 27 31  1  0  0  0  0
 28 33  1  0  0  0  0
 29 31  2  0  0  0  0
 29 34  1  0  0  0  0
 30 28  2  0  0  0  0
 31 30  1  0  0  0  0
 32 28  1  0  0  0  0
 34 32  2  0  0  0  0
M  END
>  <MODEL>
1

>  <REMARK>
 VINA RESULT:      -8.0      0.000      0.000
  Name = 
  6 active torsions:
  status: ('A' for Active; 'I' for Inactive)
    1  A    between atoms: N_11  and  C_32
    2  A    between atoms: C_14  and  C_26
    3  A    between atoms: C_16  and  C_34
    4  A    between atoms: N_23  and  C_26
    5  A    between atoms: N_23  and  C_28
    6  A    between atoms: C_27  and  C_28
                            x       y       z     vdW  Elec       q    Type
                         _______ _______ _______ _____ _____    ______ ____

>  <TORSDO>
F 6

$$$$
=
 OpenBabel11042412153D

 34 40  0  0  1  0  0  0  0  0999 V2000
  191.6480  177.1330  140.1890 C   0  0  0  0  0  0  0  0  0  0  0  0
  192.7030  176.4830  138.3910 C   0  0  0  0  0  0  0  0  0  0  0  0
  193.0870  177.4240  140.2950 C   0  0  0  0  0  3  0  0  0  0  0  0
  192.8400  176.1930  137.1380 N   0  0  0  0  0  0  0  0  0  0  0  0
  189.2550  177.7740  141.5570 C   0  0  1  0  0  0  0  0  0  0  0  0
  188.5610  176.3730  138.8950 S   0  0  0  0  0  0  0  0  0  0  0  0
  190.2380  178.3720  142.3150 C   0  0  1  0  0  3  0  0  0  0  0  0
  189.3440  176.4870  143.5950 C   0  0  1  0  0  3  0  0  0  0  0  0
  188.7030  176.5240  142.2250 C   0  0  0  0  0  2  0  0  0  0  0  0
  190.4730  177.5010  143.5410 C   0  0  0  0  0  2  0  0  0  0  0  0
  191.6990  175.7140  136.3350 C   0  0  0  0  0  2  0  0  0  0  0  0
  193.7110  177.0430  139.2200 N   0  0  0  0  0  0  0  0  0  0  0  0
  190.3870  175.9350  136.9860 N   0  0  0  0  0  0  0  0  0  0  0  0
  188.3920  178.7160  140.7080 C   0  0  1  0  0  3  0  0  0  0  0  0
  191.4290  176.5390  139.0270 C   0  0  0  0  0  0  0  0  0  0  0  0
  190.2250  176.2720  138.2350 C   0  0  0  0  0  0  0  0  0  0  0  0
  190.6560  177.6260  141.0830 N   0  0  0  0  0  0  0  0  0  0  0  0
  188.5660  178.5080  138.8910 S   0  0  0  0  0  0  0  0  0  0  0  0
  188.8040  177.2310  145.9430 N   0  0  0  0  0  2  0  0  0  0  0  0
  187.1080  176.8330  144.3880 O   0  0  0  0  0  0  0  0  0  0  0  0
  188.3440  176.8610  144.6440 C   0  0  0  0  0  0  0  0  0  0  0  0
  188.2090  176.8170  148.1570 O   0  0  0  0  0  0  0  0  0  0  0  0
  188.6340  178.1580  148.1460 C   0  0  0  0  0  2  0  0  0  0  0  0
  187.8850  177.5720  147.0150 C   0  0  1  0  0  3  0  0  0  0  0  0
  186.9300  178.6600  141.1190 C   0  0  0  0  0  2  0  0  0  0  0  0
  186.0800  178.9730  139.9820 N   0  0  0  0  0  2  0  0  0  0  0  0
  184.7010  178.8640  140.4330 C   0  0  0  0  0  2  0  0  0  0  0  0
  182.1910  176.3300  139.1940 C   0  0  0  0  0  0  0  0  0  0  0  0
  184.3190  177.7700  138.2130 C   0  0  0  0  0  3  0  0  0  0  0  0
  182.8650  177.2050  140.0430 C   0  0  0  0  0  3  0  0  0  0  0  0
  183.9390  177.9390  139.5440 C   0  0  0  0  0  0  0  0  0  0  0  0
  182.5950  176.2040  137.9020 N   0  0  0  0  0  0  0  0  0  0  0  0
  181.0370  175.5390  139.6960 C   0  0  0  0  0  1  0  0  0  0  0  0
  183.6290  176.9020  137.4260 N   0  0  0  0  0  0  0  0  0  0  0  0
  1  3  1  0  0  0  0
  1 17  1  0  0  0  0
  2 15  1  0  0  0  0
  2 12  1  0  0  0  0
  4  2  2  0  0  0  0
  5  9  1  1  0  0  0
  5  7  1  0  0  0  0
  7 10  1  1  0  0  0
  8 21  1  1  0  0  0
  9  8  1  0  0  0  0
 10  8  1  0  0  0  0
 11 13  1  0  0  0  0
 11  4  1  0  0  0  0
 12  3  2  0  0  0  0
 13 16  2  0  0  0  0
 14 25  1  1  0  0  0
 14  5  1  0  0  0  0
 15  1  2  0  0  0  0
 16  6  1  0  0  0  0
 16 15  1  0  0  0  0
 17  5  1  0  0  0  0
 17  7  1  0  0  0  0
 18  6  1  0  0  0  0
 18 14  1  0  0  0  0
 20 21  2  0  0  0  0
 21 19  1  0  0  0  0
 23 22  1  0  0  0  0
 24 19  1  6  0  0  0
 24 23  1  0  0  0  0
 24 22  1  0  0  0  0
 26 27  1  0  0  0  0
 26 25  1  0  0  0  0
 28 33  1  0  0  0  0
 28 30  1  0  0  0  0
 29 31  1  0  0  0  0
 31 30  2  0  0  0  0
 31 27  1  0  0  0  0
 32 28  2  0  0  0  0
 34 32  1  0  0  0  0
 34 29  2  0  0  0  0
M  END
>  <MODEL>
2

>  <REMARK>
 VINA RESULT:      -7.7      1.671      2.191
  Name = 
  6 active torsions:
  status: ('A' for Active; 'I' for Inactive)
    1  A    between atoms: N_11  and  C_32
    2  A    between atoms: C_14  and  C_26
    3  A    between atoms: C_16  and  C_34
    4  A    between atoms: N_23  and  C_26
    5  A    between atoms: N_23  and  C_28
    6  A    between atoms: C_27  and  C_28
                            x       y       z     vdW  Elec       q    Type
                         _______ _______ _______ _____ _____    ______ ____

>  <TORSDO>
F 6

$$$$
=
 OpenBabel11042412153D

 34 40  0  0  1  0  0  0  0  0999 V2000
  191.7190  177.0660  140.0210 C   0  0  0  0  0  0  0  0  0  0  0  0
  192.7420  176.4120  138.2050 C   0  0  0  0  0  0  0  0  0  0  0  0
  193.1660  177.3240  140.1150 C   0  0  0  0  0  3  0  0  0  0  0  0
  192.8600  176.1320  136.9480 N   0  0  0  0  0  0  0  0  0  0  0  0
  189.3540  177.7450  141.4190 C   0  0  1  0  0  0  0  0  0  0  0  0
  188.6040  176.3880  138.7500 S   0  0  0  0  0  0  0  0  0  0  0  0
  190.3580  178.3140  142.1730 C   0  0  1  0  0  3  0  0  0  0  0  0
  189.4350  176.4350  143.4420 C   0  0  1  0  0  3  0  0  0  0  0  0
  188.7820  176.5010  142.0800 C   0  0  0  0  0  2  0  0  0  0  0  0
  190.5860  177.4250  143.3880 C   0  0  0  0  0  2  0  0  0  0  0  0
  191.7000  175.6860  136.1520 C   0  0  0  0  0  2  0  0  0  0  0  0
  193.7700  176.9400  139.0290 N   0  0  0  0  0  0  0  0  0  0  0  0
  190.4000  175.9300  136.8190 N   0  0  0  0  0  0  0  0  0  0  0  0
  188.5050  178.7150  140.5880 C   0  0  1  0  0  3  0  0  0  0  0  0
  191.4760  176.4890  138.8550 C   0  0  0  0  0  0  0  0  0  0  0  0
  190.2590  176.2570  138.0720 C   0  0  0  0  0  0  0  0  0  0  0  0
  190.7470  177.5710  140.9300 N   0  0  0  0  0  0  0  0  0  0  0  0
  188.6570  178.5220  138.7670 S   0  0  0  0  0  0  0  0  0  0  0  0
  188.9390  177.2480  145.7770 N   0  0  0  0  0  2  0  0  0  0  0  0
  187.2130  176.7510  144.2850 O   0  0  0  0  0  0  0  0  0  0  0  0
  188.4540  176.8210  144.5050 C   0  0  0  0  0  0  0  0  0  0  0  0
  188.2570  176.7310  147.9440 O   0  0  0  0  0  0  0  0  0  0  0  0
  188.8250  178.0150  148.0450 C   0  0  0  0  0  2  0  0  0  0  0  0
  188.0410  177.6040  146.8620 C   0  0  1  0  0  3  0  0  0  0  0  0
  187.0460  178.6870  141.0140 C   0  0  0  0  0  2  0  0  0  0  0  0
  186.1840  178.7780  139.8460 N   0  0  0  0  0  2  0  0  0  0  0  0
  184.8390  179.0530  140.3250 C   0  0  0  0  0  2  0  0  0  0  0  0
  181.9030  179.5910  138.0120 C   0  0  0  0  0  0  0  0  0  0  0  0
  183.9240  177.7620  138.3830 C   0  0  0  0  0  3  0  0  0  0  0  0
  182.8240  179.7990  139.0360 C   0  0  0  0  0  3  0  0  0  0  0  0
  183.8520  178.8760  139.2200 C   0  0  0  0  0  0  0  0  0  0  0  0
  182.0180  178.4930  137.2190 N   0  0  0  0  0  0  0  0  0  0  0  0
  180.8000  180.5620  137.7870 C   0  0  0  0  0  1  0  0  0  0  0  0
  182.9990  177.6050  137.4000 N   0  0  0  0  0  0  0  0  0  0  0  0
  1  3  1  0  0  0  0
  1 17  1  0  0  0  0
  2 15  1  0  0  0  0
  2 12  1  0  0  0  0
  4  2  2  0  0  0  0
  5  9  1  1  0  0  0
  5  7  1  0  0  0  0
  6 18  1  0  0  0  0
  7 10  1  1  0  0  0
  8 21  1  1  0  0  0
  9  8  1  0  0  0  0
 10  8  1  0  0  0  0
 11 13  1  0  0  0  0
 11  4  1  0  0  0  0
 12  3  2  0  0  0  0
 13 16  2  0  0  0  0
 14 25  1  1  0  0  0
 14  5  1  0  0  0  0
 15  1  2  0  0  0  0
 16  6  1  0  0  0  0
 16 15  1  0  0  0  0
 17  5  1  0  0  0  0
 17  7  1  0  0  0  0
 18 14  1  0  0  0  0
 20 21  2  0  0  0  0
 21 19  1  0  0  0  0
 22 23  1  0  0  0  0
 24 19  1  6  0  0  0
 24 22  1  0  0  0  0
 24 23  1  0  0  0  0
 26 27  1  0  0  0  0
 26 25  1  0  0  0  0
 28 30  1  0  0  0  0
 29 31  1  0  0  0  0
 30 31  2  0  0  0  0
 31 27  1  0  0  0  0
 32 34  1  0  0  0  0
 32 28  2  0  0  0  0
 33 28  1  0  0  0  0
 34 29  2  0  0  0  0
M  END
>  <MODEL>
3

>  <REMARK>
 VINA RESULT:      -7.7      1.733      2.332
  Name = 
  6 active torsions:
  status: ('A' for Active; 'I' for Inactive)
    1  A    between atoms: N_11  and  C_32
    2  A    between atoms: C_14  and  C_26
    3  A    between atoms: C_16  and  C_34
    4  A    between atoms: N_23  and  C_26
    5  A    between atoms: N_23  and  C_28
    6  A    between atoms: C_27  and  C_28
                            x       y       z     vdW  Elec       q    Type
                         _______ _______ _______ _____ _____    ______ ____

>  <TORSDO>
F 6

$$$$
=
 OpenBabel11042412153D

 34 40  0  0  1  0  0  0  0  0999 V2000
  191.8450  177.1360  140.2230 C   0  0  0  0  0  0  0  0  0  0  0  0
  192.9080  176.5220  138.4170 C   0  0  0  0  0  0  0  0  0  0  0  0
  193.2830  177.4350  140.3360 C   0  0  0  0  0  3  0  0  0  0  0  0
  193.0500  176.2530  137.1590 N   0  0  0  0  0  0  0  0  0  0  0  0
  189.4450  177.7400  141.5950 C   0  0  1  0  0  0  0  0  0  0  0  0
  188.7670  176.3780  138.9090 S   0  0  0  0  0  0  0  0  0  0  0  0
  190.4230  178.3320  142.3650 C   0  0  1  0  0  3  0  0  0  0  0  0
  189.5380  176.4210  143.6120 C   0  0  1  0  0  3  0  0  0  0  0  0
  188.9000  176.4760  142.2410 C   0  0  0  0  0  2  0  0  0  0  0  0
  190.6610  177.4430  143.5770 C   0  0  0  0  0  2  0  0  0  0  0  0
  191.9140  175.7790  136.3460 C   0  0  0  0  0  2  0  0  0  0  0  0
  193.9110  177.0750  139.2560 N   0  0  0  0  0  0  0  0  0  0  0  0
  190.5990  175.9820  136.9980 N   0  0  0  0  0  0  0  0  0  0  0  0
  188.5790  178.6900  140.7590 C   0  0  1  0  0  3  0  0  0  0  0  0
  191.6330  176.5590  139.0510 C   0  0  0  0  0  0  0  0  0  0  0  0
  190.4330  176.2970  138.2510 C   0  0  0  0  0  0  0  0  0  0  0  0
  190.8480  177.6080  141.1220 N   0  0  0  0  0  0  0  0  0  0  0  0
  188.7580  178.5120  138.9390 S   0  0  0  0  0  0  0  0  0  0  0  0
  187.2010  177.1030  144.2710 N   0  0  0  0  0  2  0  0  0  0  0  0
  188.8640  176.7940  145.8820 O   0  0  0  0  0  0  0  0  0  0  0  0
  188.5330  176.7720  144.6640 C   0  0  0  0  0  0  0  0  0  0  0  0
  186.2150  178.8820  145.4070 O   0  0  0  0  0  0  0  0  0  0  0  0
  185.1900  178.3630  144.5950 C   0  0  0  0  0  2  0  0  0  0  0  0
  186.1870  177.4850  145.2390 C   0  0  1  0  0  3  0  0  0  0  0  0
  187.1160  178.6190  141.1660 C   0  0  0  0  0  2  0  0  0  0  0  0
  186.2690  178.6210  139.9840 N   0  0  0  0  0  2  0  0  0  0  0  0
  184.9340  179.0060  140.4130 C   0  0  0  0  0  2  0  0  0  0  0  0
  182.0090  179.5830  138.0950 C   0  0  0  0  0  0  0  0  0  0  0  0
  184.0950  177.8130  138.3770 C   0  0  0  0  0  3  0  0  0  0  0  0
  182.9080  179.7580  139.1450 C   0  0  0  0  0  3  0  0  0  0  0  0
  183.9690  178.8650  139.2830 C   0  0  0  0  0  0  0  0  0  0  0  0
  182.1770  178.5450  137.2330 N   0  0  0  0  0  0  0  0  0  0  0  0
  180.8720  180.5240  137.9180 C   0  0  0  0  0  1  0  0  0  0  0  0
  183.1900  177.6850  137.3710 N   0  0  0  0  0  0  0  0  0  0  0  0
  1  3  1  0  0  0  0
  1 17  1  0  0  0  0
  2 15  1  0  0  0  0
  2 12  1  0  0  0  0
  4  2  2  0  0  0  0
  5  9  1  1  0  0  0
  5  7  1  0  0  0  0
  6 18  1  0  0  0  0
  7 10  1  1  0  0  0
  8 21  1  1  0  0  0
  9  8  1  0  0  0  0
 10  8  1  0  0  0  0
 11 13  1  0  0  0  0
 11  4  1  0  0  0  0
 12  3  2  0  0  0  0
 13 16  2  0  0  0  0
 14 25  1  6  0  0  0
 14  5  1  0  0  0  0
 15  1  2  0  0  0  0
 16  6  1  0  0  0  0
 16 15  1  0  0  0  0
 17  5  1  0  0  0  0
 17  7  1  0  0  0  0
 18 14  1  0  0  0  0
 19 21  1  0  0  0  0
 21 20  2  0  0  0  0
 23 24  1  0  0  0  0
 23 22  1  0  0  0  0
 24 19  1  6  0  0  0
 24 22  1  0  0  0  0
 26 27  1  0  0  0  0
 26 25  1  0  0  0  0
 28 30  1  0  0  0  0
 29 31  1  0  0  0  0
 30 31  2  0  0  0  0
 31 27  1  0  0  0  0
 32 34  1  0  0  0  0
 32 28  2  0  0  0  0
 33 28  1  0  0  0  0
 34 29  2  0  0  0  0
M  END
>  <MODEL>
4

>  <REMARK>
 VINA RESULT:      -7.4      1.819      2.658
  Name = 
  6 active torsions:
  status: ('A' for Active; 'I' for Inactive)
    1  A    between atoms: N_11  and  C_32
    2  A    between atoms: C_14  and  C_26
    3  A    between atoms: C_16  and  C_34
    4  A    between atoms: N_23  and  C_26
    5  A    between atoms: N_23  and  C_28
    6  A    between atoms: C_27  and  C_28
                            x       y       z     vdW  Elec       q    Type
                         _______ _______ _______ _____ _____    ______ ____

>  <TORSDO>
F 6

$$$$
=
 OpenBabel11042412153D

 34 40  0  0  1  0  0  0  0  0999 V2000
  191.1870  175.8450  144.6030 C   0  0  0  0  0  0  0  0  0  0  0  0
  192.3990  175.5930  146.4020 C   0  0  0  0  0  0  0  0  0  0  0  0
  192.0590  174.6650  144.4830 C   0  0  0  0  0  3  0  0  0  0  0  0
  192.6900  175.6980  147.6580 N   0  0  0  0  0  0  0  0  0  0  0  0
  188.9870  176.9940  143.2430 C   0  0  1  0  0  0  0  0  0  0  0  0
  189.4030  178.4600  145.9290 S   0  0  0  0  0  0  0  0  0  0  0  0
  189.3180  175.9020  142.4710 C   0  0  1  0  0  3  0  0  0  0  0  0
  189.9250  177.9190  141.2220 C   0  0  1  0  0  3  0  0  0  0  0  0
  189.4190  178.3010  142.5960 C   0  0  0  0  0  2  0  0  0  0  0  0
  190.0810  176.4080  141.2550 C   0  0  0  0  0  2  0  0  0  0  0  0
  192.1630  176.8070  148.4750 C   0  0  0  0  0  2  0  0  0  0  0  0
  192.7740  174.5130  145.5590 N   0  0  0  0  0  0  0  0  0  0  0  0
  191.0440  177.5320  147.8300 N   0  0  0  0  0  0  0  0  0  0  0  0
  187.7130  176.8620  144.0860 C   0  0  1  0  0  3  0  0  0  0  0  0
  191.4190  176.4150  145.7740 C   0  0  0  0  0  0  0  0  0  0  0  0
  190.7030  177.4090  146.5780 C   0  0  0  0  0  0  0  0  0  0  0  0
  190.1240  176.1570  143.7090 N   0  0  0  0  0  0  0  0  0  0  0  0
  187.9750  176.8730  145.9050 S   0  0  0  0  0  0  0  0  0  0  0  0
  189.1820  177.9800  138.8130 N   0  0  0  0  0  2  0  0  0  0  0  0
  187.9060  178.9860  140.4910 O   0  0  0  0  0  0  0  0  0  0  0  0
  188.9360  178.3270  140.1760 C   0  0  0  0  0  0  0  0  0  0  0  0
  188.7000  179.6110  137.2210 O   0  0  0  0  0  0  0  0  0  0  0  0
  189.0240  178.4640  136.4720 C   0  0  0  0  0  2  0  0  0  0  0  0
  188.2800  178.3750  137.7450 C   0  0  1  0  0  3  0  0  0  0  0  0
  186.6670  177.8910  143.6860 C   0  0  0  0  0  2  0  0  0  0  0  0
  185.6050  177.9340  144.6770 N   0  0  0  0  0  2  0  0  0  0  0  0
  184.9060  179.1970  144.5040 C   0  0  0  0  0  2  0  0  0  0  0  0
  181.3000  178.7410  143.4800 C   0  0  0  0  0  0  0  0  0  0  0  0
  183.7830  178.8150  142.2980 C   0  0  0  0  0  3  0  0  0  0  0  0
  182.4230  178.9550  144.2770 C   0  0  0  0  0  3  0  0  0  0  0  0
  183.6800  178.9990  143.6770 C   0  0  0  0  0  0  0  0  0  0  0  0
  181.4510  178.5730  142.1390 N   0  0  0  0  0  0  0  0  0  0  0  0
  179.9460  178.6970  144.0900 C   0  0  0  0  0  1  0  0  0  0  0  0
  182.6560  178.6080  141.5660 N   0  0  0  0  0  0  0  0  0  0  0  0
  1 15  2  0  0  0  0
  2  4  2  0  0  0  0
  3  1  1  0  0  0  0
  3 12  2  0  0  0  0
  4 11  1  0  0  0  0
  5  9  1  6  0  0  0
  5 17  1  0  0  0  0
  5 14  1  0  0  0  0
  6 16  1  0  0  0  0
  7 10  1  6  0  0  0
  7  5  1  0  0  0  0
  7 17  1  0  0  0  0
  8 21  1  6  0  0  0
  8 10  1  0  0  0  0
  8  9  1  0  0  0  0
 12  2  1  0  0  0  0
 13 11  1  0  0  0  0
 14 25  1  1  0  0  0
 14 18  1  0  0  0  0
 15  2  1  0  0  0  0
 15 16  1  0  0  0  0
 16 13  2  0  0  0  0
 17  1  1  0  0  0  0
 18  6  1  0  0  0  0
 19 21  1  0  0  0  0
 21 20  2  0  0  0  0
 22 24  1  0  0  0  0
 23 22  1  0  0  0  0
 23 24  1  0  0  0  0
 24 19  1  1  0  0  0
 25 26  1  0  0  0  0
 27 26  1  0  0  0  0
 28 33  1  0  0  0  0
 28 30  1  0  0  0  0
 29 31  1  0  0  0  0
 31 30  2  0  0  0  0
 31 27  1  0  0  0  0
 32 28  2  0  0  0  0
 34 32  1  0  0  0  0
 34 29  2  0  0  0  0
M  END
>  <MODEL>
5

>  <REMARK>
 VINA RESULT:      -7.0      3.315      6.302
  Name = 
  6 active torsions:
  status: ('A' for Active; 'I' for Inactive)
    1  A    between atoms: N_11  and  C_32
    2  A    between atoms: C_14  and  C_26
    3  A    between atoms: C_16  and  C_34
    4  A    between atoms: N_23  and  C_26
    5  A    between atoms: N_23  and  C_28
    6  A    between atoms: C_27  and  C_28
                            x       y       z     vdW  Elec       q    Type
                         _______ _______ _______ _____ _____    ______ ____

>  <TORSDO>
F 6

$$$$
=
 OpenBabel11042412153D

 34 40  0  0  1  0  0  0  0  0999 V2000
  193.2810  173.1050  136.1380 C   0  0  0  0  0  0  0  0  0  0  0  0
  195.4170  172.6970  135.9340 C   0  0  0  0  0  0  0  0  0  0  0  0
  193.5430  171.6570  136.1830 C   0  0  0  0  0  3  0  0  0  0  0  0
  196.6840  172.9420  136.0280 N   0  0  0  0  0  0  0  0  0  0  0  0
  191.1410  174.8850  136.6500 C   0  0  1  0  0  0  0  0  0  0  0  0
  193.7380  176.5050  136.2450 S   0  0  0  0  0  0  0  0  0  0  0  0
  190.5880  173.6380  136.8460 C   0  0  1  0  0  3  0  0  0  0  0  0
  189.6260  174.5770  134.7990 C   0  0  1  0  0  3  0  0  0  0  0  0
  190.6830  175.5130  135.3440 C   0  0  0  0  0  2  0  0  0  0  0  0
  189.7550  173.3030  135.6160 C   0  0  0  0  0  2  0  0  0  0  0  0
  197.2020  174.3230  135.9800 C   0  0  0  0  0  2  0  0  0  0  0  0
  194.8160  171.4180  136.0680 N   0  0  0  0  0  0  0  0  0  0  0  0
  196.1520  175.3510  136.1680 N   0  0  0  0  0  0  0  0  0  0  0  0
  191.4220  175.7040  137.9160 C   0  0  1  0  0  3  0  0  0  0  0  0
  194.4360  173.7290  135.9660 C   0  0  0  0  0  0  0  0  0  0  0  0
  194.8710  175.1200  136.1230 C   0  0  0  0  0  0  0  0  0  0  0  0
  192.0360  173.7120  136.4640 N   0  0  0  0  0  0  0  0  0  0  0  0
  193.1970  176.0350  138.2550 S   0  0  0  0  0  0  0  0  0  0  0  0
  188.1550  176.5460  135.3630 N   0  0  0  0  0  2  0  0  0  0  0  0
  187.2300  174.4830  134.7780 O   0  0  0  0  0  0  0  0  0  0  0  0
  188.2660  175.1790  134.9670 C   0  0  0  0  0  0  0  0  0  0  0  0
  186.5280  177.0920  136.9390 O   0  0  0  0  0  0  0  0  0  0  0  0
  187.0220  178.3310  136.4910 C   0  0  0  0  0  2  0  0  0  0  0  0
  186.8660  177.1820  135.5760 C   0  0  1  0  0  3  0  0  0  0  0  0
  190.6190  176.9940  137.9380 C   0  0  0  0  0  2  0  0  0  0  0  0
  189.3980  176.8090  138.7060 N   0  0  0  0  0  2  0  0  0  0  0  0
  189.3400  177.8820  139.6860 C   0  0  0  0  0  2  0  0  0  0  0  0
  188.2520  177.0770  143.2110 C   0  0  0  0  0  0  0  0  0  0  0  0
  190.3630  176.5360  141.5340 C   0  0  0  0  0  3  0  0  0  0  0  0
  188.2390  177.5970  141.9190 C   0  0  0  0  0  3  0  0  0  0  0  0
  189.3070  177.3180  141.0670 C   0  0  0  0  0  0  0  0  0  0  0  0
  189.3020  176.3160  143.6180 N   0  0  0  0  0  0  0  0  0  0  0  0
  187.1240  177.3520  144.1400 C   0  0  0  0  0  1  0  0  0  0  0  0
  190.3270  176.0540  142.8040 N   0  0  0  0  0  0  0  0  0  0  0  0
  1  3  1  0  0  0  0
  1 17  1  0  0  0  0
  2 15  1  0  0  0  0
  2  4  2  0  0  0  0
  2 12  1  0  0  0  0
  5  9  1  6  0  0  0
  5  7  1  0  0  0  0
  5 14  1  0  0  0  0
  6 18  1  0  0  0  0
  7 10  1  6  0  0  0
  8 21  1  1  0  0  0
  8  9  1  0  0  0  0
  8 10  1  0  0  0  0
 11  4  1  0  0  0  0
 11 13  1  0  0  0  0
 12  3  2  0  0  0  0
 14 25  1  6  0  0  0
 14 18  1  0  0  0  0
 15 16  1  0  0  0  0
 15  1  2  0  0  0  0
 16 13  2  0  0  0  0
 16  6  1  0  0  0  0
 17  5  1  0  0  0  0
 17  7  1  0  0  0  0
 20 21  2  0  0  0  0
 21 19  1  0  0  0  0
 23 22  1  0  0  0  0
 24 19  1  1  0  0  0
 24 23  1  0  0  0  0
 24 22  1  0  0  0  0
 25 26  1  0  0  0  0
 26 27  1  0  0  0  0
 27 31  1  0  0  0  0
 28 32  1  0  0  0  0
 28 33  1  0  0  0  0
 29 34  1  0  0  0  0
 30 28  2  0  0  0  0
 31 29  2  0  0  0  0
 31 30  1  0  0  0  0
 34 32  2  0  0  0  0
M  END
>  <MODEL>
6

>  <REMARK>
 VINA RESULT:      -6.7      4.287      7.400
  Name = 
  6 active torsions:
  status: ('A' for Active; 'I' for Inactive)
    1  A    between atoms: N_11  and  C_32
    2  A    between atoms: C_14  and  C_26
    3  A    between atoms: C_16  and  C_34
    4  A    between atoms: N_23  and  C_26
    5  A    between atoms: N_23  and  C_28
    6  A    between atoms: C_27  and  C_28
                            x       y       z     vdW  Elec       q    Type
                         _______ _______ _______ _____ _____    ______ ____

>  <TORSDO>
F 6

$$$$
=
 OpenBabel11042412153D

 34 40  0  0  1  0  0  0  0  0999 V2000
  191.1430  175.0050  137.3850 C   0  0  0  0  0  0  0  0  0  0  0  0
  193.1330  174.1210  137.2050 C   0  0  0  0  0  0  0  0  0  0  0  0
  191.0820  173.7230  136.6630 C   0  0  0  0  0  3  0  0  0  0  0  0
  194.3600  173.8880  137.5410 N   0  0  0  0  0  0  0  0  0  0  0  0
  189.3570  176.8560  138.5630 C   0  0  1  0  0  0  0  0  0  0  0  0
  192.2490  177.5840  139.3600 S   0  0  0  0  0  0  0  0  0  0  0  0
  188.5280  175.9120  137.9960 C   0  0  1  0  0  3  0  0  0  0  0  0
  188.3140  177.9790  136.7010 C   0  0  1  0  0  3  0  0  0  0  0  0
  189.3730  178.1510  137.7680 C   0  0  0  0  0  2  0  0  0  0  0  0
  187.9720  176.4980  136.7060 C   0  0  0  0  0  2  0  0  0  0  0  0
  195.1460  174.8790  138.3000 C   0  0  0  0  0  2  0  0  0  0  0  0
  192.2670  173.1960  136.5640 N   0  0  0  0  0  0  0  0  0  0  0  0
  194.3170  175.9440  138.9100 N   0  0  0  0  0  0  0  0  0  0  0  0
  189.4790  176.8130  140.0910 C   0  0  1  0  0  3  0  0  0  0  0  0
  192.4070  175.2460  137.6930 C   0  0  0  0  0  0  0  0  0  0  0  0
  193.0670  176.1690  138.6210 C   0  0  0  0  0  0  0  0  0  0  0  0
  190.0090  175.7190  137.8610 N   0  0  0  0  0  0  0  0  0  0  0  0
  191.1450  176.3750  140.7300 S   0  0  0  0  0  0  0  0  0  0  0  0
  186.1440  178.2850  137.9490 N   0  0  0  0  0  2  0  0  0  0  0  0
  186.9370  179.9310  136.4940 O   0  0  0  0  0  0  0  0  0  0  0  0
  187.1080  178.8020  137.0330 C   0  0  0  0  0  0  0  0  0  0  0  0
  184.0270  178.1440  138.9120 O   0  0  0  0  0  0  0  0  0  0  0  0
  184.7450  179.0150  139.7520 C   0  0  0  0  0  2  0  0  0  0  0  0
  184.9360  179.0180  138.2880 C   0  0  1  0  0  3  0  0  0  0  0  0
  188.9780  178.1000  140.7290 C   0  0  0  0  0  2  0  0  0  0  0  0
  189.1800  178.0540  142.1680 N   0  0  0  0  0  2  0  0  0  0  0  0
  188.2610  177.0590  142.7000 C   0  0  0  0  0  2  0  0  0  0  0  0
  186.5700  178.0170  145.9360 C   0  0  0  0  0  0  0  0  0  0  0  0
  189.0300  177.1340  145.0820 C   0  0  0  0  0  3  0  0  0  0  0  0
  186.7640  177.7650  144.5800 C   0  0  0  0  0  3  0  0  0  0  0  0
  188.0090  177.3120  144.1480 C   0  0  0  0  0  0  0  0  0  0  0  0
  187.5940  177.8230  146.8090 N   0  0  0  0  0  0  0  0  0  0  0  0
  185.2500  178.4940  146.4280 C   0  0  0  0  0  1  0  0  0  0  0  0
  188.7880  177.3960  146.3940 N   0  0  0  0  0  0  0  0  0  0  0  0
  1 15  2  0  0  0  0
  1 17  1  0  0  0  0
  2  4  2  0  0  0  0
  2 15  1  0  0  0  0
  3  1  1  0  0  0  0
  4 11  1  0  0  0  0
  5  9  1  6  0  0  0
  5 14  1  0  0  0  0
  6 18  1  0  0  0  0
  7 10  1  6  0  0  0
  7  5  1  0  0  0  0
  8 10  1  0  0  0  0
  8 21  1  1  0  0  0
  8  9  1  0  0  0  0
 11 13  1  0  0  0  0
 12  3  2  0  0  0  0
 12  2  1  0  0  0  0
 14 25  1  1  0  0  0
 14 18  1  0  0  0  0
 15 16  1  0  0  0  0
 16 13  2  0  0  0  0
 16  6  1  0  0  0  0
 17  7  1  0  0  0  0
 17  5  1  0  0  0  0
 20 21  2  0  0  0  0
 21 19  1  0  0  0  0
 22 23  1  0  0  0  0
 24 19  1  1  0  0  0
 24 22  1  0  0  0  0
 24 23  1  0  0  0  0
 25 26  1  0  0  0  0
 26 27  1  0  0  0  0
 27 31  1  0  0  0  0
 28 33  1  0  0  0  0
 28 32  1  0  0  0  0
 29 34  1  0  0  0  0
 30 28  2  0  0  0  0
 31 30  1  0  0  0  0
 31 29  2  0  0  0  0
 34 32  2  0  0  0  0
M  END
>  <MODEL>
7

>  <REMARK>
 VINA RESULT:      -6.6      3.256      5.804
  Name = 
  6 active torsions:
  status: ('A' for Active; 'I' for Inactive)
    1  A    between atoms: N_11  and  C_32
    2  A    between atoms: C_14  and  C_26
    3  A    between atoms: C_16  and  C_34
    4  A    between atoms: N_23  and  C_26
    5  A    between atoms: N_23  and  C_28
    6  A    between atoms: C_27  and  C_28
                            x       y       z     vdW  Elec       q    Type
                         _______ _______ _______ _____ _____    ______ ____

>  <TORSDO>
F 6

$$$$
=
 OpenBabel11042412153D

 34 40  0  0  1  0  0  0  0  0999 V2000
  186.0930  178.7300  145.4400 C   0  0  0  0  0  0  0  0  0  0  0  0
  187.2650  178.1820  147.1990 C   0  0  0  0  0  0  0  0  0  0  0  0
  185.6810  179.5230  146.6100 C   0  0  0  0  0  3  0  0  0  0  0  0
  188.2950  177.7390  147.8450 N   0  0  0  0  0  0  0  0  0  0  0  0
  185.6820  178.7220  142.6400 C   0  0  1  0  0  0  0  0  0  0  0  0
  187.9180  176.7130  143.3470 S   0  0  0  0  0  0  0  0  0  0  0  0
  184.8860  179.7530  143.0870 C   0  0  1  0  0  3  0  0  0  0  0  0
  183.4210  177.9350  142.3500 C   0  0  1  0  0  3  0  0  0  0  0  0
  184.8660  177.4990  142.2520 C   0  0  0  0  0  2  0  0  0  0  0  0
  183.4470  179.2550  143.1010 C   0  0  0  0  0  2  0  0  0  0  0  0
  189.2110  176.7530  147.2410 C   0  0  0  0  0  2  0  0  0  0  0  0
  186.3860  179.1990  147.6540 N   0  0  0  0  0  0  0  0  0  0  0  0
  189.0390  176.6110  145.7760 N   0  0  0  0  0  0  0  0  0  0  0  0
  186.9690  179.1310  141.9130 C   0  0  1  0  0  3  0  0  0  0  0  0
  187.0500  177.8990  145.8190 C   0  0  0  0  0  0  0  0  0  0  0  0
  188.0350  177.0870  145.0970 C   0  0  0  0  0  0  0  0  0  0  0  0
  185.6870  178.9940  144.1020 N   0  0  0  0  0  0  0  0  0  0  0  0
  188.5290  178.6750  142.7700 S   0  0  0  0  0  0  0  0  0  0  0  0
  183.4310  177.4220  139.8800 N   0  0  0  0  0  2  0  0  0  0  0  0
  181.8580  178.8850  140.7990 O   0  0  0  0  0  0  0  0  0  0  0  0
  182.8420  178.1150  140.9810 C   0  0  0  0  0  0  0  0  0  0  0  0
  184.0200  177.8780  137.6730 O   0  0  0  0  0  0  0  0  0  0  0  0
  183.5460  176.5530  137.6510 C   0  0  0  0  0  2  0  0  0  0  0  0
  182.9390  177.5790  138.5220 C   0  0  1  0  0  3  0  0  0  0  0  0
  186.9810  178.6390  140.4750 C   0  0  0  0  0  2  0  0  0  0  0  0
  188.3430  178.6090  139.9690 N   0  0  0  0  0  2  0  0  0  0  0  0
  188.2720  178.2470  138.5620 C   0  0  0  0  0  2  0  0  0  0  0  0
  189.3770  174.8960  137.2190 C   0  0  0  0  0  0  0  0  0  0  0  0
  190.2770  176.8050  138.9820 C   0  0  0  0  0  3  0  0  0  0  0  0
  188.6160  176.0460  137.4160 C   0  0  0  0  0  3  0  0  0  0  0  0
  189.0760  177.0160  138.3050 C   0  0  0  0  0  0  0  0  0  0  0  0
  190.5440  174.7380  137.8970 N   0  0  0  0  0  0  0  0  0  0  0  0
  188.9160  173.8470  136.2720 C   0  0  0  0  0  1  0  0  0  0  0  0
  190.9800  175.6650  138.7540 N   0  0  0  0  0  0  0  0  0  0  0  0
  1 15  2  0  0  0  0
  1  3  1  0  0  0  0
  2 12  1  0  0  0  0
  2  4  2  0  0  0  0
  3 12  2  0  0  0  0
  5  9  1  6  0  0  0
  5  7  1  0  0  0  0
  5 17  1  0  0  0  0
  6 16  1  0  0  0  0
  7 10  1  1  0  0  0
  7 17  1  0  0  0  0
  8 21  1  6  0  0  0
  8 10  1  0  0  0  0
  9  8  1  0  0  0  0
 11  4  1  0  0  0  0
 13 11  1  0  0  0  0
 14 25  1  6  0  0  0
 14  5  1  0  0  0  0
 14 18  1  0  0  0  0
 15  2  1  0  0  0  0
 16 13  2  0  0  0  0
 16 15  1  0  0  0  0
 17  1  1  0  0  0  0
 18  6  1  0  0  0  0
 19 21  1  0  0  0  0
 20 21  2  0  0  0  0
 22 24  1  0  0  0  0
 23 22  1  0  0  0  0
 23 24  1  0  0  0  0
 24 19  1  1  0  0  0
 26 25  1  0  0  0  0
 27 26  1  0  0  0  0
 28 30  2  0  0  0  0
 28 32  1  0  0  0  0
 30 31  1  0  0  0  0
 31 27  1  0  0  0  0
 31 29  2  0  0  0  0
 32 34  2  0  0  0  0
 33 28  1  0  0  0  0
 34 29  1  0  0  0  0
M  END
>  <MODEL>
8

>  <REMARK>
 VINA RESULT:      -6.4      3.058      8.099
  Name = 
  6 active torsions:
  status: ('A' for Active; 'I' for Inactive)
    1  A    between atoms: N_11  and  C_32
    2  A    between atoms: C_14  and  C_26
    3  A    between atoms: C_16  and  C_34
    4  A    between atoms: N_23  and  C_26
    5  A    between atoms: N_23  and  C_28
    6  A    between atoms: C_27  and  C_28
                            x       y       z     vdW  Elec       q    Type
                         _______ _______ _______ _____ _____    ______ ____

>  <TORSDO>
F 6

$$$$
=
 OpenBabel11042412153D

 34 40  0  0  1  0  0  0  0  0999 V2000
  184.9150  174.4640  136.8540 C   0  0  0  0  0  0  0  0  0  0  0  0
  186.4900  173.3900  135.7880 C   0  0  0  0  0  0  0  0  0  0  0  0
  184.8400  173.0190  137.1280 C   0  0  0  0  0  3  0  0  0  0  0  0
  187.6400  173.2350  135.2170 N   0  0  0  0  0  0  0  0  0  0  0  0
  183.7940  176.8660  137.8450 C   0  0  1  0  0  0  0  0  0  0  0  0
  186.0870  177.5430  135.8910 S   0  0  0  0  0  0  0  0  0  0  0  0
  183.1660  175.8820  138.5770 C   0  0  1  0  0  3  0  0  0  0  0  0
  181.5160  176.8570  137.0540 C   0  0  1  0  0  3  0  0  0  0  0  0
  182.8760  177.4670  136.7940 C   0  0  0  0  0  2  0  0  0  0  0  0
  181.7680  175.6980  138.0030 C   0  0  0  0  0  2  0  0  0  0  0  0
  188.3440  174.3720  134.5940 C   0  0  0  0  0  2  0  0  0  0  0  0
  185.7830  172.3840  136.4980 N   0  0  0  0  0  0  0  0  0  0  0  0
  187.7960  175.6900  134.9880 N   0  0  0  0  0  0  0  0  0  0  0  0
  184.8590  177.6830  138.5890 C   0  0  1  0  0  3  0  0  0  0  0  0
  185.9180  174.6750  136.0160 C   0  0  0  0  0  0  0  0  0  0  0  0
  186.6610  175.8690  135.6040 C   0  0  0  0  0  0  0  0  0  0  0  0
  184.1840  175.4600  137.5610 N   0  0  0  0  0  0  0  0  0  0  0  0
  186.5760  177.4760  137.9680 S   0  0  0  0  0  0  0  0  0  0  0  0
  181.0010  179.2400  137.6980 N   0  0  0  0  0  2  0  0  0  0  0  0
  179.5160  177.5100  138.2040 O   0  0  0  0  0  0  0  0  0  0  0  0
  180.6080  177.8680  137.6810 C   0  0  0  0  0  0  0  0  0  0  0  0
  180.7310  180.5990  139.5720 O   0  0  0  0  0  0  0  0  0  0  0  0
  180.9810  181.4930  138.5150 C   0  0  0  0  0  2  0  0  0  0  0  0
  180.1810  180.2660  138.3200 C   0  0  1  0  0  3  0  0  0  0  0  0
  184.4860  179.1550  138.6620 C   0  0  0  0  0  2  0  0  0  0  0  0
  184.7490  179.6700  139.9960 N   0  0  0  0  0  2  0  0  0  0  0  0
  184.0070  178.8410  140.9320 C   0  0  0  0  0  2  0  0  0  0  0  0
  185.0710  178.5330  144.5410 C   0  0  0  0  0  0  0  0  0  0  0  0
  186.1610  178.2030  142.0380 C   0  0  0  0  0  3  0  0  0  0  0  0
  184.2730  178.7570  143.4210 C   0  0  0  0  0  3  0  0  0  0  0  0
  184.8240  178.5830  142.1530 C   0  0  0  0  0  0  0  0  0  0  0  0
  186.3670  178.1580  144.3780 N   0  0  0  0  0  0  0  0  0  0  0  0
  184.5090  178.7030  145.9070 C   0  0  0  0  0  1  0  0  0  0  0  0
  186.8970  177.9990  143.1630 N   0  0  0  0  0  0  0  0  0  0  0  0
  1  3  1  0  0  0  0
  1 17  1  0  0  0  0
  2 15  1  0  0  0  0
  2 12  1  0  0  0  0
  4  2  2  0  0  0  0
  5  9  1  6  0  0  0
  5  7  1  0  0  0  0
  5 14  1  0  0  0  0
  6 18  1  0  0  0  0
  7 10  1  6  0  0  0
  8 21  1  1  0  0  0
  8 10  1  0  0  0  0
  9  8  1  0  0  0  0
 11 13  1  0  0  0  0
 11  4  1  0  0  0  0
 12  3  2  0  0  0  0
 13 16  2  0  0  0  0
 14 25  1  6  0  0  0
 15  1  2  0  0  0  0
 16  6  1  0  0  0  0
 16 15  1  0  0  0  0
 17  5  1  0  0  0  0
 17  7  1  0  0  0  0
 18 14  1  0  0  0  0
 21 19  1  0  0  0  0
 21 20  2  0  0  0  0
 23 22  1  0  0  0  0
 24 19  1  6  0  0  0
 24 23  1  0  0  0  0
 24 22  1  0  0  0  0
 25 26  1  0  0  0  0
 26 27  1  0  0  0  0
 27 31  1  0  0  0  0
 28 33  1  0  0  0  0
 29 31  2  0  0  0  0
 29 34  1  0  0  0  0
 30 28  2  0  0  0  0
 31 30  1  0  0  0  0
 32 28  1  0  0  0  0
 34 32  2  0  0  0  0
M  END
>  <MODEL>
9

>  <REMARK>
 VINA RESULT:      -6.4      4.589      7.297
  Name = 
  6 active torsions:
  status: ('A' for Active; 'I' for Inactive)
    1  A    between atoms: N_11  and  C_32
    2  A    between atoms: C_14  and  C_26
    3  A    between atoms: C_16  and  C_34
    4  A    between atoms: N_23  and  C_26
    5  A    between atoms: N_23  and  C_28
    6  A    between atoms: C_27  and  C_28
                            x       y       z     vdW  Elec       q    Type
                         _______ _______ _______ _____ _____    ______ ____

>  <TORSDO>
F 6

$$$$
