=
 OpenBabel11042410353D

 38 42  0  0  1  0  0  0  0  0999 V2000
  189.2890  177.2440  146.4300 C   0  0  0  0  0  0  0  0  0  0  0  0
  186.2710  177.7290  146.1720 C   0  0  0  0  0  3  0  0  0  0  0  0
  187.9470  177.5680  144.2960 C   0  0  0  0  0  0  0  0  0  0  0  0
  187.0130  177.8250  147.2710 C   0  0  0  0  0  3  0  0  0  0  0  0
  188.4260  178.0000  147.2850 N   0  0  0  0  0  0  0  0  0  0  0  0
  186.6980  177.8200  144.7650 C   0  0  0  0  0  0  0  0  0  0  0  0
  189.0700  177.0860  145.1270 C   0  0  0  0  0  3  0  0  0  0  0  0
  190.5580  176.6890  146.9780 C   0  0  0  0  0  1  0  0  0  0  0  0
  188.9600  178.5640  148.3960 O   0  0  0  0  0  1  0  0  0  0  0  0
  189.3470  176.9800  142.3000 C   0  0  0  0  0  3  0  0  0  0  0  0
  189.6350  177.1010  140.9390 C   0  0  0  0  0  0  0  0  0  0  0  0
  188.8440  177.9220  140.1340 C   0  0  0  0  0  3  0  0  0  0  0  0
  187.7720  178.6070  140.7060 C   0  0  0  0  0  3  0  0  0  0  0  0
  188.2560  177.6720  142.8430 C   0  0  0  0  0  0  0  0  0  0  0  0
  187.5050  178.4730  142.0330 N   0  0  0  0  0  0  0  0  0  0  0  0
  190.7980  176.3790  140.3560 C   0  0  0  0  0  2  0  0  0  0  0  0
  191.4530  177.2290  139.2840 C   0  0  0  0  0  2  0  0  0  0  0  0
  191.5080  176.4490  137.9850 C   0  0  0  0  0  2  0  0  0  0  0  0
  194.5000  174.9010  138.1090 C   0  0  0  0  0  0  0  0  0  0  0  0
  193.0910  175.3040  136.4120 C   0  0  1  0  0  3  0  0  0  0  0  0
  193.5690  175.8760  135.0920 C   0  0  0  0  0  1  0  0  0  0  0  0
  194.1180  174.4380  136.9720 N   0  0  0  0  0  0  0  0  0  0  0  0
  192.9250  176.4340  137.4370 C   0  0  2  0  0  3  0  0  0  0  0  0
  193.8520  176.0960  138.5020 N   0  0  0  0  0  2  0  0  0  0  0  0
  196.3880  175.0060  139.7060 O   0  0  0  0  0  1  0  0  0  0  0  0
  195.5260  174.2460  138.9250 C   0  0  0  0  0  0  0  0  0  0  0  0
  195.6300  172.9920  138.9210 O   0  0  0  0  0  0  0  0  0  0  0  0
  184.7040  178.3360  143.0980 C   0  0  0  0  0  0  0  0  0  0  0  0
  185.6100  178.0970  143.8570 C   0  0  0  0  0  0  0  0  0  0  0  0
  183.6200  178.6300  142.1980 C   0  0  0  0  0  0  0  0  0  0  0  0
  181.4600  179.0000  140.2800 C   0  0  0  0  0  3  0  0  0  0  0  0
  180.0460  179.0770  142.4270 C   0  0  0  0  0  3  0  0  0  0  0  0
  183.9010  178.8120  140.7620 C   0  0  0  0  0  3  0  0  0  0  0  0
  181.8870  178.6320  144.0260 C   0  0  0  0  0  3  0  0  0  0  0  0
  182.9150  179.0070  139.8760 C   0  0  0  0  0  3  0  0  0  0  0  0
  181.3150  179.0660  141.7330 N   0  0  0  0  0  0  0  0  0  0  0  0
  180.3870  178.9290  143.9170 C   0  0  0  0  0  3  0  0  0  0  0  0
  182.3630  178.7670  142.6310 C   0  0  0  0  0  0  0  0  0  0  0  0
  1  8  1  0  0  0  0
  1  5  1  0  0  0  0
  2  4  2  0  0  0  0
  3  6  2  0  0  0  0
  3  7  1  0  0  0  0
  4  5  1  0  0  0  0
  5  9  1  0  0  0  0
  6  2  1  0  0  0  0
  7  1  2  0  0  0  0
 10 14  1  0  0  0  0
 11 10  2  0  0  0  0
 12 13  2  0  0  0  0
 12 11  1  0  0  0  0
 13 15  1  0  0  0  0
 14  3  1  0  0  0  0
 15 14  2  0  0  0  0
 16 11  1  0  0  0  0
 17 16  1  0  0  0  0
 18 17  1  0  0  0  0
 19 24  1  0  0  0  0
 19 26  1  0  0  0  0
 20 21  1  6  0  0  0
 20 22  1  0  0  0  0
 20 23  1  0  0  0  0
 22 19  2  0  0  0  0
 23 18  1  1  0  0  0
 23 24  1  0  0  0  0
 26 25  1  0  0  0  0
 27 26  2  0  0  0  0
 28 29  3  0  0  0  0
 29  6  1  0  0  0  0
 30 38  1  0  0  0  0
 30 28  1  0  0  0  0
 31 36  1  0  0  0  0
 32 37  2  0  0  0  0
 33 30  2  0  0  0  0
 35 31  2  0  0  0  0
 35 33  1  0  0  0  0
 36 32  1  0  0  0  0
 36 38  1  0  0  0  0
 37 34  1  0  0  0  0
 38 34  2  0  0  0  0
M  END
>  <MODEL>
1

>  <REMARK>
 VINA RESULT:     -10.1      0.000      0.000
  Name = 
  8 active torsions:
  status: ('A' for Active; 'I' for Inactive)
    1  A    between atoms: C_2  and  C_22
    2  A    between atoms: C_3  and  C_5
    3  A    between atoms: C_8  and  C_14
    4  A    between atoms: C_8  and  C_16
    5  A    between atoms: C_9  and  C_26
    6  A    between atoms: C_16  and  C_19
    7  A    between atoms: C_19  and  C_28
    8  A    between atoms: C_24  and  C_31
                            x       y       z     vdW  Elec       q    Type
                         _______ _______ _______ _____ _____    ______ ____

>  <TORSDO>
F 8

$$$$
=
 OpenBabel11042410353D

 38 42  0  0  1  0  0  0  0  0999 V2000
  189.6990  177.1460  146.1910 C   0  0  0  0  0  0  0  0  0  0  0  0
  186.6590  177.5160  146.0280 C   0  0  0  0  0  3  0  0  0  0  0  0
  188.2940  177.5350  144.1100 C   0  0  0  0  0  0  0  0  0  0  0  0
  187.4220  177.5810  147.1140 C   0  0  0  0  0  3  0  0  0  0  0  0
  188.8270  177.8150  147.1080 N   0  0  0  0  0  0  0  0  0  0  0  0
  187.0470  177.7060  144.6200 C   0  0  0  0  0  0  0  0  0  0  0  0
  189.4550  177.0530  144.8870 C   0  0  0  0  0  3  0  0  0  0  0  0
  191.0020  176.6140  146.6790 C   0  0  0  0  0  1  0  0  0  0  0  0
  189.3640  178.3360  148.2380 O   0  0  0  0  0  1  0  0  0  0  0  0
  189.6330  177.0740  142.0400 C   0  0  0  0  0  3  0  0  0  0  0  0
  189.8840  177.2850  140.6830 C   0  0  0  0  0  0  0  0  0  0  0  0
  189.0790  178.1650  139.9580 C   0  0  0  0  0  3  0  0  0  0  0  0
  188.0280  178.8170  140.6050 C   0  0  0  0  0  3  0  0  0  0  0  0
  188.5630  177.7360  142.6590 C   0  0  0  0  0  0  0  0  0  0  0  0
  187.7980  178.5950  141.9270 N   0  0  0  0  0  0  0  0  0  0  0  0
  191.0240  176.5960  140.0190 C   0  0  0  0  0  2  0  0  0  0  0  0
  190.8850  176.6920  138.5120 C   0  0  0  0  0  2  0  0  0  0  0  0
  190.3180  175.3930  137.9740 C   0  0  0  0  0  2  0  0  0  0  0  0
  187.5510  177.0840  137.0530 C   0  0  0  0  0  0  0  0  0  0  0  0
  189.6310  177.0460  136.2180 C   0  0  1  0  0  3  0  0  0  0  0  0
  189.8970  176.8960  134.7330 C   0  0  0  0  0  1  0  0  0  0  0  0
  188.4080  177.8070  136.4240 N   0  0  0  0  0  0  0  0  0  0  0  0
  189.3510  175.6700  136.8360 C   0  0  2  0  0  3  0  0  0  0  0  0
  188.0020  175.7790  137.3630 N   0  0  0  0  0  2  0  0  0  0  0  0
  185.1290  176.7090  137.3970 O   0  0  0  0  0  0  0  0  0  0  0  0
  186.2180  177.5720  137.4130 C   0  0  0  0  0  0  0  0  0  0  0  0
  186.0520  178.7770  137.7390 O   0  0  0  0  0  1  0  0  0  0  0  0
  184.9970  178.2210  143.0220 C   0  0  0  0  0  0  0  0  0  0  0  0
  185.9280  177.9880  143.7530 C   0  0  0  0  0  0  0  0  0  0  0  0
  183.8920  178.4980  142.1420 C   0  0  0  0  0  0  0  0  0  0  0  0
  181.6820  178.8280  140.2750 C   0  0  0  0  0  3  0  0  0  0  0  0
  180.3370  179.0370  142.4570 C   0  0  0  0  0  3  0  0  0  0  0  0
  184.1330  178.6070  140.6910 C   0  0  0  0  0  3  0  0  0  0  0  0
  182.2170  178.6240  144.0190 C   0  0  0  0  0  3  0  0  0  0  0  0
  183.1240  178.7830  139.8270 C   0  0  0  0  0  3  0  0  0  0  0  0
  181.5840  178.9650  141.7260 N   0  0  0  0  0  0  0  0  0  0  0  0
  180.7210  178.9500  143.9420 C   0  0  0  0  0  3  0  0  0  0  0  0
  182.6520  178.6840  142.6060 C   0  0  0  0  0  0  0  0  0  0  0  0
  1  8  1  0  0  0  0
  1  5  1  0  0  0  0
  2  4  2  0  0  0  0
  3  6  2  0  0  0  0
  3  7  1  0  0  0  0
  5  4  1  0  0  0  0
  5  9  1  0  0  0  0
  6  2  1  0  0  0  0
  7  1  2  0  0  0  0
 10 14  1  0  0  0  0
 11 10  2  0  0  0  0
 12 13  2  0  0  0  0
 12 11  1  0  0  0  0
 13 15  1  0  0  0  0
 14  3  1  0  0  0  0
 15 14  2  0  0  0  0
 16 11  1  0  0  0  0
 17 16  1  0  0  0  0
 18 17  1  0  0  0  0
 19 24  1  0  0  0  0
 19 26  1  0  0  0  0
 20 21  1  6  0  0  0
 20 22  1  0  0  0  0
 20 23  1  0  0  0  0
 22 19  2  0  0  0  0
 23 24  1  0  0  0  0
 23 18  1  1  0  0  0
 25 26  2  0  0  0  0
 26 27  1  0  0  0  0
 28 29  3  0  0  0  0
 29  6  1  0  0  0  0
 30 38  1  0  0  0  0
 30 28  1  0  0  0  0
 31 36  1  0  0  0  0
 32 37  2  0  0  0  0
 33 30  2  0  0  0  0
 35 31  2  0  0  0  0
 35 33  1  0  0  0  0
 36 32  1  0  0  0  0
 36 38  1  0  0  0  0
 37 34  1  0  0  0  0
 38 34  2  0  0  0  0
M  END
>  <MODEL>
2

>  <REMARK>
 VINA RESULT:     -10.0      3.268      3.794
  Name = 
  8 active torsions:
  status: ('A' for Active; 'I' for Inactive)
    1  A    between atoms: C_2  and  C_22
    2  A    between atoms: C_3  and  C_5
    3  A    between atoms: C_8  and  C_14
    4  A    between atoms: C_8  and  C_16
    5  A    between atoms: C_9  and  C_26
    6  A    between atoms: C_16  and  C_19
    7  A    between atoms: C_19  and  C_28
    8  A    between atoms: C_24  and  C_31
                            x       y       z     vdW  Elec       q    Type
                         _______ _______ _______ _____ _____    ______ ____

>  <TORSDO>
F 8

$$$$
=
 OpenBabel11042410353D

 38 42  0  0  1  0  0  0  0  0999 V2000
  190.3460  176.9380  146.9220 C   0  0  0  0  0  0  0  0  0  0  0  0
  187.3920  177.5420  146.3620 C   0  0  0  0  0  3  0  0  0  0  0  0
  189.2430  177.3230  144.6650 C   0  0  0  0  0  0  0  0  0  0  0  0
  188.0200  177.6050  147.5320 C   0  0  0  0  0  3  0  0  0  0  0  0
  189.4300  177.7240  147.6910 N   0  0  0  0  0  0  0  0  0  0  0  0
  187.9620  177.6210  145.0070 C   0  0  0  0  0  0  0  0  0  0  0  0
  190.2550  176.7940  145.6030 C   0  0  0  0  0  3  0  0  0  0  0  0
  191.5300  176.3320  147.5930 C   0  0  0  0  0  1  0  0  0  0  0  0
  189.8690  178.2620  148.8550 O   0  0  0  0  0  1  0  0  0  0  0  0
  188.7860  177.2850  142.2000 C   0  0  0  0  0  3  0  0  0  0  0  0
  189.2340  177.3620  140.8790 C   0  0  0  0  0  0  0  0  0  0  0  0
  190.5910  177.5560  140.6180 C   0  0  0  0  0  3  0  0  0  0  0  0
  191.4790  177.6760  141.6880 C   0  0  0  0  0  3  0  0  0  0  0  0
  189.7020  177.4210  143.2530 C   0  0  0  0  0  0  0  0  0  0  0  0
  191.0230  177.6030  142.9660 N   0  0  0  0  0  0  0  0  0  0  0  0
  188.2710  177.2070  139.7550 C   0  0  0  0  0  2  0  0  0  0  0  0
  188.9730  177.4470  138.4320 C   0  0  0  0  0  2  0  0  0  0  0  0
  188.4870  176.4340  137.4130 C   0  0  0  0  0  2  0  0  0  0  0  0
  191.8210  175.9380  137.4630 C   0  0  0  0  0  0  0  0  0  0  0  0
  190.0960  174.5120  137.3380 C   0  0  1  0  0  3  0  0  0  0  0  0
  190.0580  173.3870  136.3220 C   0  0  0  0  0  1  0  0  0  0  0  0
  191.4680  174.7390  137.7670 N   0  0  0  0  0  0  0  0  0  0  0  0
  189.6660  175.8250  136.6720 C   0  0  2  0  0  3  0  0  0  0  0  0
  190.8220  176.6940  136.8060 N   0  0  0  0  0  2  0  0  0  0  0  0
  194.1000  176.6040  136.7630 O   0  0  0  0  0  0  0  0  0  0  0  0
  193.1510  176.4710  137.7700 C   0  0  0  0  0  0  0  0  0  0  0  0
  193.4410  176.8110  138.9470 O   0  0  0  0  0  1  0  0  0  0  0  0
  186.1640  178.2150  143.1540 C   0  0  0  0  0  0  0  0  0  0  0  0
  186.9850  177.9440  143.9950 C   0  0  0  0  0  0  0  0  0  0  0  0
  185.1750  178.5350  142.1580 C   0  0  0  0  0  0  0  0  0  0  0  0
  183.2140  178.9540  140.0470 C   0  0  0  0  0  3  0  0  0  0  0  0
  181.6020  179.0350  142.0500 C   0  0  0  0  0  3  0  0  0  0  0  0
  185.5950  178.7250  140.7570 C   0  0  0  0  0  3  0  0  0  0  0  0
  183.2760  178.5470  143.8120 C   0  0  0  0  0  3  0  0  0  0  0  0
  184.7000  178.9430  139.7830 C   0  0  0  0  0  3  0  0  0  0  0  0
  182.9310  179.0100  141.4800 N   0  0  0  0  0  0  0  0  0  0  0  0
  181.7980  178.8680  143.5650 C   0  0  0  0  0  3  0  0  0  0  0  0
  183.8840  178.6870  142.4700 C   0  0  0  0  0  0  0  0  0  0  0  0
  1  8  1  0  0  0  0
  1  5  1  0  0  0  0
  2  4  2  0  0  0  0
  3  6  2  0  0  0  0
  3  7  1  0  0  0  0
  4  5  1  0  0  0  0
  5  9  1  0  0  0  0
  6  2  1  0  0  0  0
  7  1  2  0  0  0  0
 10 14  1  0  0  0  0
 11 10  2  0  0  0  0
 12 11  1  0  0  0  0
 12 13  2  0  0  0  0
 13 15  1  0  0  0  0
 14  3  1  0  0  0  0
 15 14  2  0  0  0  0
 16 11  1  0  0  0  0
 17 16  1  0  0  0  0
 18 17  1  0  0  0  0
 19 22  2  0  0  0  0
 19 26  1  0  0  0  0
 20 21  1  6  0  0  0
 20 22  1  0  0  0  0
 23 24  1  0  0  0  0
 23 20  1  0  0  0  0
 23 18  1  1  0  0  0
 24 19  1  0  0  0  0
 25 26  2  0  0  0  0
 26 27  1  0  0  0  0
 28 29  3  0  0  0  0
 29  6  1  0  0  0  0
 30 38  1  0  0  0  0
 30 28  1  0  0  0  0
 31 36  1  0  0  0  0
 32 37  2  0  0  0  0
 33 30  2  0  0  0  0
 35 31  2  0  0  0  0
 35 33  1  0  0  0  0
 36 32  1  0  0  0  0
 36 38  1  0  0  0  0
 37 34  1  0  0  0  0
 38 34  2  0  0  0  0
M  END
>  <MODEL>
3

>  <REMARK>
 VINA RESULT:      -9.9      1.857      2.400
  Name = 
  8 active torsions:
  status: ('A' for Active; 'I' for Inactive)
    1  A    between atoms: C_2  and  C_22
    2  A    between atoms: C_3  and  C_5
    3  A    between atoms: C_8  and  C_14
    4  A    between atoms: C_8  and  C_16
    5  A    between atoms: C_9  and  C_26
    6  A    between atoms: C_16  and  C_19
    7  A    between atoms: C_19  and  C_28
    8  A    between atoms: C_24  and  C_31
                            x       y       z     vdW  Elec       q    Type
                         _______ _______ _______ _____ _____    ______ ____

>  <TORSDO>
F 8

$$$$
=
 OpenBabel11042410353D

 38 42  0  0  1  0  0  0  0  0999 V2000
  189.8770  177.0360  146.7670 C   0  0  0  0  0  0  0  0  0  0  0  0
  186.9450  177.6940  146.1580 C   0  0  0  0  0  3  0  0  0  0  0  0
  188.7800  177.2590  144.4860 C   0  0  0  0  0  0  0  0  0  0  0  0
  187.5790  177.8370  147.3170 C   0  0  0  0  0  3  0  0  0  0  0  0
  188.9940  177.9200  147.4640 N   0  0  0  0  0  0  0  0  0  0  0  0
  187.5130  177.6320  144.8010 C   0  0  0  0  0  0  0  0  0  0  0  0
  189.7760  176.7790  145.4660 C   0  0  0  0  0  3  0  0  0  0  0  0
  191.0410  176.4490  147.4890 C   0  0  0  0  0  1  0  0  0  0  0  0
  189.4560  178.5420  148.5750 O   0  0  0  0  0  1  0  0  0  0  0  0
  188.5790  177.9710  142.0900 C   0  0  0  0  0  3  0  0  0  0  0  0
  189.0080  177.9060  140.7620 C   0  0  0  0  0  0  0  0  0  0  0  0
  190.0770  177.0760  140.4190 C   0  0  0  0  0  3  0  0  0  0  0  0
  190.7040  176.3270  141.4160 C   0  0  0  0  0  3  0  0  0  0  0  0
  189.2370  177.2150  143.0700 C   0  0  0  0  0  0  0  0  0  0  0  0
  190.2740  176.4080  142.7040 N   0  0  0  0  0  0  0  0  0  0  0  0
  188.3080  178.6950  139.7130 C   0  0  0  0  0  2  0  0  0  0  0  0
  189.0950  178.6520  138.4170 C   0  0  0  0  0  2  0  0  0  0  0  0
  188.1570  178.8830  137.2490 C   0  0  0  0  0  2  0  0  0  0  0  0
  188.9030  175.5990  137.0880 C   0  0  0  0  0  0  0  0  0  0  0  0
  186.9490  176.6960  137.0190 C   0  0  1  0  0  3  0  0  0  0  0  0
  185.8950  176.3920  135.9730 C   0  0  0  0  0  1  0  0  0  0  0  0
  187.6550  175.4750  137.3740 N   0  0  0  0  0  0  0  0  0  0  0  0
  188.0230  177.6150  136.4210 C   0  0  2  0  0  3  0  0  0  0  0  0
  189.2510  176.8450  136.5140 N   0  0  0  0  0  2  0  0  0  0  0  0
  189.6700  173.2620  136.8160 O   0  0  0  0  0  0  0  0  0  0  0  0
  189.8800  174.5350  137.3320 C   0  0  0  0  0  0  0  0  0  0  0  0
  190.9140  174.7690  138.0110 O   0  0  0  0  0  1  0  0  0  0  0  0
  185.7290  178.1230  142.9030 C   0  0  0  0  0  0  0  0  0  0  0  0
  186.5440  177.9000  143.7640 C   0  0  0  0  0  0  0  0  0  0  0  0
  184.7490  178.3840  141.8820 C   0  0  0  0  0  0  0  0  0  0  0  0
  182.7910  178.6760  139.7460 C   0  0  0  0  0  3  0  0  0  0  0  0
  181.2070  179.0600  141.7350 C   0  0  0  0  0  3  0  0  0  0  0  0
  185.1640  178.3980  140.4670 C   0  0  0  0  0  3  0  0  0  0  0  0
  182.8700  178.6780  143.5330 C   0  0  0  0  0  3  0  0  0  0  0  0
  184.2730  178.5560  139.4790 C   0  0  0  0  0  3  0  0  0  0  0  0
  182.5270  178.9030  141.1660 N   0  0  0  0  0  0  0  0  0  0  0  0
  181.4080  179.0480  143.2580 C   0  0  0  0  0  3  0  0  0  0  0  0
  183.4710  178.6390  142.1810 C   0  0  0  0  0  0  0  0  0  0  0  0
  1  5  1  0  0  0  0
  1  8  1  0  0  0  0
  2  4  2  0  0  0  0
  3  6  2  0  0  0  0
  3  7  1  0  0  0  0
  4  5  1  0  0  0  0
  5  9  1  0  0  0  0
  6  2  1  0  0  0  0
  7  1  2  0  0  0  0
 10 14  1  0  0  0  0
 11 10  2  0  0  0  0
 12 11  1  0  0  0  0
 12 13  2  0  0  0  0
 13 15  1  0  0  0  0
 14  3  1  0  0  0  0
 15 14  2  0  0  0  0
 16 11  1  0  0  0  0
 17 16  1  0  0  0  0
 18 17  1  0  0  0  0
 19 26  1  0  0  0  0
 19 22  2  0  0  0  0
 20 21  1  6  0  0  0
 20 22  1  0  0  0  0
 23 24  1  0  0  0  0
 23 20  1  0  0  0  0
 23 18  1  1  0  0  0
 24 19  1  0  0  0  0
 25 26  2  0  0  0  0
 26 27  1  0  0  0  0
 28 29  3  0  0  0  0
 29  6  1  0  0  0  0
 30 38  1  0  0  0  0
 30 28  1  0  0  0  0
 31 36  1  0  0  0  0
 32 37  2  0  0  0  0
 33 30  2  0  0  0  0
 35 31  2  0  0  0  0
 35 33  1  0  0  0  0
 36 32  1  0  0  0  0
 36 38  1  0  0  0  0
 37 34  1  0  0  0  0
 38 34  2  0  0  0  0
M  END
>  <MODEL>
4

>  <REMARK>
 VINA RESULT:      -9.8      2.616      3.396
  Name = 
  8 active torsions:
  status: ('A' for Active; 'I' for Inactive)
    1  A    between atoms: C_2  and  C_22
    2  A    between atoms: C_3  and  C_5
    3  A    between atoms: C_8  and  C_14
    4  A    between atoms: C_8  and  C_16
    5  A    between atoms: C_9  and  C_26
    6  A    between atoms: C_16  and  C_19
    7  A    between atoms: C_19  and  C_28
    8  A    between atoms: C_24  and  C_31
                            x       y       z     vdW  Elec       q    Type
                         _______ _______ _______ _____ _____    ______ ____

>  <TORSDO>
F 8

$$$$
=
 OpenBabel11042410353D

 38 42  0  0  1  0  0  0  0  0999 V2000
  189.2340  177.5950  139.9430 C   0  0  0  0  0  0  0  0  0  0  0  0
  186.8200  178.2530  138.1700 C   0  0  0  0  0  3  0  0  0  0  0  0
  186.9380  178.3920  140.6840 C   0  0  0  0  0  0  0  0  0  0  0  0
  187.9190  177.5900  137.8240 C   0  0  0  0  0  3  0  0  0  0  0  0
  188.8070  176.9540  138.7370 N   0  0  0  0  0  0  0  0  0  0  0  0
  186.2510  178.4480  139.5140 C   0  0  0  0  0  0  0  0  0  0  0  0
  188.4000  178.1980  140.7850 C   0  0  0  0  0  3  0  0  0  0  0  0
  190.6640  177.5000  140.3540 C   0  0  0  0  0  1  0  0  0  0  0  0
  189.5620  175.9400  138.2490 O   0  0  0  0  0  1  0  0  0  0  0  0
  186.5500  177.8240  143.0960 C   0  0  0  0  0  3  0  0  0  0  0  0
  185.8900  178.0470  144.3060 C   0  0  0  0  0  0  0  0  0  0  0  0
  184.9300  179.0560  144.3960 C   0  0  0  0  0  3  0  0  0  0  0  0
  184.6510  179.8320  143.2710 C   0  0  0  0  0  3  0  0  0  0  0  0
  186.2560  178.6280  141.9860 C   0  0  0  0  0  0  0  0  0  0  0  0
  185.3080  179.6030  142.1030 N   0  0  0  0  0  0  0  0  0  0  0  0
  186.1870  177.1900  145.4860 C   0  0  0  0  0  2  0  0  0  0  0  0
  186.7620  178.0320  146.6090 C   0  0  0  0  0  2  0  0  0  0  0  0
  187.9040  177.2830  147.2680 C   0  0  0  0  0  2  0  0  0  0  0  0
  191.2250  176.7300  147.0860 C   0  0  0  0  0  0  0  0  0  0  0  0
  189.6950  177.1930  145.5140 C   0  0  1  0  0  3  0  0  0  0  0  0
  189.9280  178.2530  144.4560 C   0  0  0  0  0  1  0  0  0  0  0  0
  190.9540  176.5430  145.8420 N   0  0  0  0  0  0  0  0  0  0  0  0
  189.2390  177.8560  146.8200 C   0  0  2  0  0  3  0  0  0  0  0  0
  190.2650  177.5010  147.7840 N   0  0  0  0  0  2  0  0  0  0  0  0
  192.8770  176.7170  148.9280 O   0  0  0  0  0  1  0  0  0  0  0  0
  192.4300  176.1930  147.7220 C   0  0  0  0  0  0  0  0  0  0  0  0
  193.0670  175.2530  147.1770 O   0  0  0  0  0  0  0  0  0  0  0  0
  183.7010  179.1670  139.4710 C   0  0  0  0  0  0  0  0  0  0  0  0
  184.8600  178.8370  139.4930 C   0  0  0  0  0  0  0  0  0  0  0  0
  182.3200  179.5720  139.4430 C   0  0  0  0  0  0  0  0  0  0  0  0
  179.4920  180.2240  139.2040 C   0  0  0  0  0  3  0  0  0  0  0  0
  179.4350  179.2670  141.5910 C   0  0  0  0  0  3  0  0  0  0  0  0
  181.8060  180.3080  138.2730 C   0  0  0  0  0  3  0  0  0  0  0  0
  181.8210  178.6050  141.7140 C   0  0  0  0  0  3  0  0  0  0  0  0
  180.5100  180.6340  138.1670 C   0  0  0  0  0  3  0  0  0  0  0  0
  180.1410  179.7330  140.4170 N   0  0  0  0  0  0  0  0  0  0  0  0
  180.5070  178.6510  142.5030 C   0  0  0  0  0  3  0  0  0  0  0  0
  181.4910  179.3190  140.4600 C   0  0  0  0  0  0  0  0  0  0  0  0
  1  8  1  0  0  0  0
  1  7  2  0  0  0  0
  2  6  1  0  0  0  0
  3  7  1  0  0  0  0
  3 14  1  0  0  0  0
  4  2  2  0  0  0  0
  4  5  1  0  0  0  0
  5  1  1  0  0  0  0
  6  3  2  0  0  0  0
  9  5  1  0  0  0  0
 10 11  1  0  0  0  0
 11 12  2  0  0  0  0
 11 16  1  0  0  0  0
 13 12  1  0  0  0  0
 14 15  1  0  0  0  0
 14 10  2  0  0  0  0
 15 13  2  0  0  0  0
 16 17  1  0  0  0  0
 17 18  1  0  0  0  0
 19 26  1  0  0  0  0
 19 24  1  0  0  0  0
 20 21  1  6  0  0  0
 20 22  1  0  0  0  0
 20 23  1  0  0  0  0
 22 19  2  0  0  0  0
 23 18  1  1  0  0  0
 23 24  1  0  0  0  0
 26 25  1  0  0  0  0
 27 26  2  0  0  0  0
 28 29  3  0  0  0  0
 29  6  1  0  0  0  0
 30 28  1  0  0  0  0
 30 38  1  0  0  0  0
 31 36  1  0  0  0  0
 32 37  2  0  0  0  0
 33 30  2  0  0  0  0
 34 37  1  0  0  0  0
 35 33  1  0  0  0  0
 35 31  2  0  0  0  0
 36 38  1  0  0  0  0
 36 32  1  0  0  0  0
 38 34  2  0  0  0  0
M  END
>  <MODEL>
5

>  <REMARK>
 VINA RESULT:      -9.7      3.157      6.835
  Name = 
  8 active torsions:
  status: ('A' for Active; 'I' for Inactive)
    1  A    between atoms: C_2  and  C_22
    2  A    between atoms: C_3  and  C_5
    3  A    between atoms: C_8  and  C_14
    4  A    between atoms: C_8  and  C_16
    5  A    between atoms: C_9  and  C_26
    6  A    between atoms: C_16  and  C_19
    7  A    between atoms: C_19  and  C_28
    8  A    between atoms: C_24  and  C_31
                            x       y       z     vdW  Elec       q    Type
                         _______ _______ _______ _____ _____    ______ ____

>  <TORSDO>
F 8

$$$$
=
 OpenBabel11042410353D

 38 42  0  0  1  0  0  0  0  0999 V2000
  180.3200  179.3380  142.9700 C   0  0  0  0  0  0  0  0  0  0  0  0
  182.0430  179.1180  140.4420 C   0  0  0  0  0  3  0  0  0  0  0  0
  182.8090  178.8470  142.8290 C   0  0  0  0  0  0  0  0  0  0  0  0
  180.8210  179.6320  140.5430 C   0  0  0  0  0  3  0  0  0  0  0  0
  180.2290  180.0900  141.7550 N   0  0  0  0  0  0  0  0  0  0  0  0
  183.0570  178.9460  141.4960 C   0  0  0  0  0  0  0  0  0  0  0  0
  181.4580  178.8240  143.4270 C   0  0  0  0  0  3  0  0  0  0  0  0
  179.1170  179.2070  143.8380 C   0  0  0  0  0  1  0  0  0  0  0  0
  179.2370  181.0060  141.6420 O   0  0  0  0  0  1  0  0  0  0  0  0
  185.0350  177.8770  143.4570 C   0  0  0  0  0  3  0  0  0  0  0  0
  186.0600  177.6880  144.3860 C   0  0  0  0  0  0  0  0  0  0  0  0
  185.9570  178.2570  145.6570 C   0  0  0  0  0  3  0  0  0  0  0  0
  184.8270  179.0130  145.9740 C   0  0  0  0  0  3  0  0  0  0  0  0
  183.9180  178.6520  143.8020 C   0  0  0  0  0  0  0  0  0  0  0  0
  183.8420  179.1890  145.0530 N   0  0  0  0  0  0  0  0  0  0  0  0
  187.2430  176.8580  144.0330 C   0  0  0  0  0  2  0  0  0  0  0  0
  188.4310  177.2550  144.8880 C   0  0  0  0  0  2  0  0  0  0  0  0
  189.1830  178.3870  144.2130 C   0  0  0  0  0  2  0  0  0  0  0  0
  191.6200  176.6020  145.7100 C   0  0  0  0  0  0  0  0  0  0  0  0
  191.0450  176.8410  143.5560 C   0  0  1  0  0  3  0  0  0  0  0  0
  192.0720  177.1270  142.4780 C   0  0  0  0  0  1  0  0  0  0  0  0
  191.6320  175.9890  144.5790 N   0  0  0  0  0  0  0  0  0  0  0  0
  190.6800  178.1410  144.2840 C   0  0  2  0  0  3  0  0  0  0  0  0
  191.0670  177.9040  145.6630 N   0  0  0  0  0  2  0  0  0  0  0  0
  192.2730  176.7690  148.0910 O   0  0  0  0  0  1  0  0  0  0  0  0
  192.1420  176.0020  146.9400 C   0  0  0  0  0  0  0  0  0  0  0  0
  192.4740  174.7880  146.9600 O   0  0  0  0  0  0  0  0  0  0  0  0
  185.5050  178.6050  140.5420 C   0  0  0  0  0  0  0  0  0  0  0  0
  184.3920  178.7630  140.9790 C   0  0  0  0  0  0  0  0  0  0  0  0
  186.8310  178.4070  140.0170 C   0  0  0  0  0  0  0  0  0  0  0  0
  189.5120  177.7850  139.0660 C   0  0  0  0  0  3  0  0  0  0  0  0
  188.3300  177.8420  136.7820 C   0  0  0  0  0  3  0  0  0  0  0  0
  187.9810  178.3980  140.9390 C   0  0  0  0  0  3  0  0  0  0  0  0
  186.0360  178.2430  137.6320 C   0  0  0  0  0  3  0  0  0  0  0  0
  189.2220  178.1360  140.5060 C   0  0  0  0  0  3  0  0  0  0  0  0
  188.3620  178.0700  138.2100 N   0  0  0  0  0  0  0  0  0  0  0  0
  186.8710  178.0720  136.3580 C   0  0  0  0  0  3  0  0  0  0  0  0
  187.0530  178.2540  138.7070 C   0  0  0  0  0  0  0  0  0  0  0  0
  1  7  2  0  0  0  0
  1  8  1  0  0  0  0
  2  4  2  0  0  0  0
  2  6  1  0  0  0  0
  3  7  1  0  0  0  0
  3 14  1  0  0  0  0
  4  5  1  0  0  0  0
  5  1  1  0  0  0  0
  6  3  2  0  0  0  0
  9  5  1  0  0  0  0
 10 14  2  0  0  0  0
 10 11  1  0  0  0  0
 11 12  2  0  0  0  0
 12 13  1  0  0  0  0
 14 15  1  0  0  0  0
 15 13  2  0  0  0  0
 16 11  1  0  0  0  0
 16 17  1  0  0  0  0
 18 17  1  0  0  0  0
 19 26  1  0  0  0  0
 20 21  1  6  0  0  0
 20 23  1  0  0  0  0
 20 22  1  0  0  0  0
 22 19  2  0  0  0  0
 23 18  1  1  0  0  0
 23 24  1  0  0  0  0
 24 19  1  0  0  0  0
 26 27  2  0  0  0  0
 26 25  1  0  0  0  0
 28 29  3  0  0  0  0
 29  6  1  0  0  0  0
 30 28  1  0  0  0  0
 30 33  2  0  0  0  0
 31 35  2  0  0  0  0
 32 36  1  0  0  0  0
 34 38  2  0  0  0  0
 35 33  1  0  0  0  0
 36 38  1  0  0  0  0
 36 31  1  0  0  0  0
 37 32  2  0  0  0  0
 37 34  1  0  0  0  0
 38 30  1  0  0  0  0
M  END
>  <MODEL>
6

>  <REMARK>
 VINA RESULT:      -9.7      3.451      7.549
  Name = 
  8 active torsions:
  status: ('A' for Active; 'I' for Inactive)
    1  A    between atoms: C_2  and  C_22
    2  A    between atoms: C_3  and  C_5
    3  A    between atoms: C_8  and  C_14
    4  A    between atoms: C_8  and  C_16
    5  A    between atoms: C_9  and  C_26
    6  A    between atoms: C_16  and  C_19
    7  A    between atoms: C_19  and  C_28
    8  A    between atoms: C_24  and  C_31
                            x       y       z     vdW  Elec       q    Type
                         _______ _______ _______ _____ _____    ______ ____

>  <TORSDO>
F 8

$$$$
=
 OpenBabel11042410353D

 38 42  0  0  1  0  0  0  0  0999 V2000
  180.5450  178.9800  141.8070 C   0  0  0  0  0  0  0  0  0  0  0  0
  183.0460  179.0480  143.5810 C   0  0  0  0  0  3  0  0  0  0  0  0
  182.9310  178.4090  141.1450 C   0  0  0  0  0  0  0  0  0  0  0  0
  181.7770  179.0810  143.9740 C   0  0  0  0  0  3  0  0  0  0  0  0
  180.6710  178.6410  143.1920 N   0  0  0  0  0  0  0  0  0  0  0  0
  183.6030  178.5310  142.3190 C   0  0  0  0  0  0  0  0  0  0  0  0
  181.5370  178.8520  140.9310 C   0  0  0  0  0  3  0  0  0  0  0  0
  179.2160  179.3930  141.2750 C   0  0  0  0  0  1  0  0  0  0  0  0
  179.5540  178.2760  143.8660 O   0  0  0  0  0  1  0  0  0  0  0  0
  184.7900  178.4890  139.4640 C   0  0  0  0  0  3  0  0  0  0  0  0
  185.4050  178.0040  138.3080 C   0  0  0  0  0  0  0  0  0  0  0  0
  184.8290  176.9410  137.6100 C   0  0  0  0  0  3  0  0  0  0  0  0
  183.6460  176.3750  138.0880 C   0  0  0  0  0  3  0  0  0  0  0  0
  183.6080  177.8920  139.9240 C   0  0  0  0  0  0  0  0  0  0  0  0
  183.0650  176.8590  139.2180 N   0  0  0  0  0  0  0  0  0  0  0  0
  186.6530  178.6390  137.8050 C   0  0  0  0  0  2  0  0  0  0  0  0
  187.4650  177.6340  137.0100 C   0  0  0  0  0  2  0  0  0  0  0  0
  188.5320  177.0290  137.9020 C   0  0  0  0  0  2  0  0  0  0  0  0
  191.7570  176.0490  137.8420 C   0  0  0  0  0  0  0  0  0  0  0  0
  189.8450  174.9320  137.4920 C   0  0  1  0  0  3  0  0  0  0  0  0
  189.6600  174.0100  136.3020 C   0  0  0  0  0  1  0  0  0  0  0  0
  191.2280  174.8810  137.9420 N   0  0  0  0  0  0  0  0  0  0  0  0
  189.6220  176.3870  137.0600 C   0  0  2  0  0  3  0  0  0  0  0  0
  190.8900  177.0420  137.3280 N   0  0  0  0  0  2  0  0  0  0  0  0
  193.4230  177.0820  139.3520 O   0  0  0  0  0  1  0  0  0  0  0  0
  193.1450  176.3230  138.2220 C   0  0  0  0  0  0  0  0  0  0  0  0
  194.0920  175.8700  137.5270 O   0  0  0  0  0  0  0  0  0  0  0  0
  186.2010  178.0260  142.4560 C   0  0  0  0  0  0  0  0  0  0  0  0
  185.0190  178.2580  142.3900 C   0  0  0  0  0  0  0  0  0  0  0  0
  187.6110  177.7510  142.5460 C   0  0  0  0  0  0  0  0  0  0  0  0
  190.5030  177.4270  142.6520 C   0  0  0  0  0  3  0  0  0  0  0  0
  190.0260  177.1810  145.1670 C   0  0  0  0  0  3  0  0  0  0  0  0
  188.4110  177.6620  141.3110 C   0  0  0  0  0  3  0  0  0  0  0  0
  187.5840  177.5890  145.0600 C   0  0  0  0  0  3  0  0  0  0  0  0
  189.7390  177.4880  141.3500 C   0  0  0  0  0  3  0  0  0  0  0  0
  189.5980  177.2720  143.7890 N   0  0  0  0  0  0  0  0  0  0  0  0
  188.7410  177.2530  146.0060 C   0  0  0  0  0  3  0  0  0  0  0  0
  188.2150  177.5500  143.7220 C   0  0  0  0  0  0  0  0  0  0  0  0
  1  5  1  0  0  0  0
  2  4  2  0  0  0  0
  3  6  2  0  0  0  0
  5  9  1  0  0  0  0
  5  4  1  0  0  0  0
  6 29  1  0  0  0  0
  6  2  1  0  0  0  0
  7  3  1  0  0  0  0
  7  1  2  0  0  0  0
  8  1  1  0  0  0  0
 10 14  1  0  0  0  0
 11 10  2  0  0  0  0
 12 13  2  0  0  0  0
 12 11  1  0  0  0  0
 13 15  1  0  0  0  0
 14  3  1  0  0  0  0
 15 14  2  0  0  0  0
 16 11  1  0  0  0  0
 17 16  1  0  0  0  0
 17 18  1  0  0  0  0
 19 22  2  0  0  0  0
 19 26  1  0  0  0  0
 20 21  1  6  0  0  0
 20 22  1  0  0  0  0
 23 24  1  0  0  0  0
 23 20  1  0  0  0  0
 23 18  1  1  0  0  0
 24 19  1  0  0  0  0
 26 25  1  0  0  0  0
 27 26  2  0  0  0  0
 28 30  1  0  0  0  0
 29 28  3  0  0  0  0
 30 38  1  0  0  0  0
 31 36  1  0  0  0  0
 32 37  2  0  0  0  0
 33 35  1  0  0  0  0
 33 30  2  0  0  0  0
 34 37  1  0  0  0  0
 35 31  2  0  0  0  0
 36 32  1  0  0  0  0
 38 36  1  0  0  0  0
 38 34  2  0  0  0  0
M  END
>  <MODEL>
7

>  <REMARK>
 VINA RESULT:      -9.5      2.721      6.286
  Name = 
  8 active torsions:
  status: ('A' for Active; 'I' for Inactive)
    1  A    between atoms: C_2  and  C_22
    2  A    between atoms: C_3  and  C_5
    3  A    between atoms: C_8  and  C_14
    4  A    between atoms: C_8  and  C_16
    5  A    between atoms: C_9  and  C_26
    6  A    between atoms: C_16  and  C_19
    7  A    between atoms: C_19  and  C_28
    8  A    between atoms: C_24  and  C_31
                            x       y       z     vdW  Elec       q    Type
                         _______ _______ _______ _____ _____    ______ ____

>  <TORSDO>
F 8

$$$$
=
 OpenBabel11042410353D

 38 42  0  0  1  0  0  0  0  0999 V2000
  182.5370  179.3100  140.2210 C   0  0  0  0  0  0  0  0  0  0  0  0
  183.7570  178.6300  142.9510 C   0  0  0  0  0  3  0  0  0  0  0  0
  184.9640  178.7630  140.7420 C   0  0  0  0  0  0  0  0  0  0  0  0
  182.4690  178.6520  142.6270 C   0  0  0  0  0  3  0  0  0  0  0  0
  181.9630  178.5620  141.2980 N   0  0  0  0  0  0  0  0  0  0  0  0
  184.9240  178.4710  142.0680 C   0  0  0  0  0  0  0  0  0  0  0  0
  183.8450  179.3660  139.9870 C   0  0  0  0  0  3  0  0  0  0  0  0
  181.6410  179.9740  139.2340 C   0  0  0  0  0  1  0  0  0  0  0  0
  180.6950  178.1080  141.1570 O   0  0  0  0  0  1  0  0  0  0  0  0
  186.1480  178.2800  138.5850 C   0  0  0  0  0  3  0  0  0  0  0  0
  187.3280  178.0940  137.8620 C   0  0  0  0  0  0  0  0  0  0  0  0
  188.5610  178.1910  138.5090 C   0  0  0  0  0  3  0  0  0  0  0  0
  188.5920  178.4800  139.8740 C   0  0  0  0  0  3  0  0  0  0  0  0
  186.2130  178.5800  139.9530 C   0  0  0  0  0  0  0  0  0  0  0  0
  187.4320  178.6620  140.5600 N   0  0  0  0  0  0  0  0  0  0  0  0
  187.2700  177.7640  136.4120 C   0  0  0  0  0  2  0  0  0  0  0  0
  187.8070  176.3660  136.1750 C   0  0  0  0  0  2  0  0  0  0  0  0
  189.0480  176.4420  135.3070 C   0  0  0  0  0  2  0  0  0  0  0  0
  191.2830  176.0600  137.8010 C   0  0  0  0  0  0  0  0  0  0  0  0
  189.6160  174.7510  137.0700 C   0  0  1  0  0  3  0  0  0  0  0  0
  189.8100  173.2690  136.8210 C   0  0  0  0  0  1  0  0  0  0  0  0
  190.4390  175.1720  138.1940 N   0  0  0  0  0  0  0  0  0  0  0  0
  190.1420  175.5520  135.8710 C   0  0  2  0  0  3  0  0  0  0  0  0
  191.2010  176.3780  136.4250 N   0  0  0  0  0  2  0  0  0  0  0  0
  193.5930  176.7570  138.3510 O   0  0  0  0  0  0  0  0  0  0  0  0
  192.2520  176.6830  138.7060 C   0  0  0  0  0  0  0  0  0  0  0  0
  191.8740  177.1540  139.8100 O   0  0  0  0  0  1  0  0  0  0  0  0
  187.1170  177.7360  143.3630 C   0  0  0  0  0  0  0  0  0  0  0  0
  186.1210  178.0690  142.7700 C   0  0  0  0  0  0  0  0  0  0  0  0
  188.3040  177.3470  144.0780 C   0  0  0  0  0  0  0  0  0  0  0  0
  190.8170  176.7580  145.4250 C   0  0  0  0  0  3  0  0  0  0  0  0
  189.4000  177.2470  147.5150 C   0  0  0  0  0  3  0  0  0  0  0  0
  189.4690  176.8450  143.3270 C   0  0  0  0  0  3  0  0  0  0  0  0
  187.3120  177.8690  146.3340 C   0  0  0  0  0  3  0  0  0  0  0  0
  190.6220  176.5480  143.9430 C   0  0  0  0  0  3  0  0  0  0  0  0
  189.5430  177.0100  146.0960 N   0  0  0  0  0  0  0  0  0  0  0  0
  187.9400  177.6780  147.7190 C   0  0  0  0  0  3  0  0  0  0  0  0
  188.3730  177.4060  145.4120 C   0  0  0  0  0  0  0  0  0  0  0  0
  1  5  1  0  0  0  0
  3  6  2  0  0  0  0
  4  2  2  0  0  0  0
  5  4  1  0  0  0  0
  6 29  1  0  0  0  0
  6  2  1  0  0  0  0
  7  1  2  0  0  0  0
  7  3  1  0  0  0  0
  8  1  1  0  0  0  0
  9  5  1  0  0  0  0
 10 14  1  0  0  0  0
 11 12  1  0  0  0  0
 11 10  2  0  0  0  0
 12 13  2  0  0  0  0
 13 15  1  0  0  0  0
 14 15  2  0  0  0  0
 14  3  1  0  0  0  0
 16 11  1  0  0  0  0
 17 16  1  0  0  0  0
 18 17  1  0  0  0  0
 19 22  2  0  0  0  0
 19 26  1  0  0  0  0
 20 21  1  6  0  0  0
 20 22  1  0  0  0  0
 23 18  1  1  0  0  0
 23 24  1  0  0  0  0
 23 20  1  0  0  0  0
 24 19  1  0  0  0  0
 25 26  2  0  0  0  0
 26 27  1  0  0  0  0
 28 30  1  0  0  0  0
 29 28  3  0  0  0  0
 30 38  1  0  0  0  0
 31 36  1  0  0  0  0
 32 37  2  0  0  0  0
 33 35  1  0  0  0  0
 33 30  2  0  0  0  0
 34 37  1  0  0  0  0
 35 31  2  0  0  0  0
 36 32  1  0  0  0  0
 38 36  1  0  0  0  0
 38 34  2  0  0  0  0
M  END
>  <MODEL>
8

>  <REMARK>
 VINA RESULT:      -9.5      2.847      6.295
  Name = 
  8 active torsions:
  status: ('A' for Active; 'I' for Inactive)
    1  A    between atoms: C_2  and  C_22
    2  A    between atoms: C_3  and  C_5
    3  A    between atoms: C_8  and  C_14
    4  A    between atoms: C_8  and  C_16
    5  A    between atoms: C_9  and  C_26
    6  A    between atoms: C_16  and  C_19
    7  A    between atoms: C_19  and  C_28
    8  A    between atoms: C_24  and  C_31
                            x       y       z     vdW  Elec       q    Type
                         _______ _______ _______ _____ _____    ______ ____

>  <TORSDO>
F 8

$$$$
=
 OpenBabel11042410353D

 38 42  0  0  1  0  0  0  0  0999 V2000
  192.1330  176.6920  138.7940 C   0  0  0  0  0  0  0  0  0  0  0  0
  190.8580  177.1290  141.5490 C   0  0  0  0  0  3  0  0  0  0  0  0
  189.6840  177.1220  139.3180 C   0  0  0  0  0  0  0  0  0  0  0  0
  192.1500  177.1710  141.2420 C   0  0  0  0  0  3  0  0  0  0  0  0
  192.6690  177.3750  139.9320 N   0  0  0  0  0  0  0  0  0  0  0  0
  189.6970  177.3170  140.6620 C   0  0  0  0  0  0  0  0  0  0  0  0
  190.8300  176.6120  138.5380 C   0  0  0  0  0  3  0  0  0  0  0  0
  193.0630  176.1300  137.7740 C   0  0  0  0  0  1  0  0  0  0  0  0
  193.9240  177.8780  139.8430 O   0  0  0  0  0  1  0  0  0  0  0  0
  187.7680  176.2260  137.9720 C   0  0  0  0  0  3  0  0  0  0  0  0
  186.6110  176.4320  137.2170 C   0  0  0  0  0  0  0  0  0  0  0  0
  186.1430  177.7300  137.0060 C   0  0  0  0  0  3  0  0  0  0  0  0
  186.8400  178.8030  137.5620 C   0  0  0  0  0  3  0  0  0  0  0  0
  188.4400  177.3240  138.5260 C   0  0  0  0  0  0  0  0  0  0  0  0
  187.9620  178.5820  138.2980 N   0  0  0  0  0  0  0  0  0  0  0  0
  185.8970  175.2730  136.6140 C   0  0  0  0  0  2  0  0  0  0  0  0
  184.4040  175.5370  136.5900 C   0  0  0  0  0  2  0  0  0  0  0  0
  183.8290  175.3100  137.9750 C   0  0  0  0  0  2  0  0  0  0  0  0
  182.7700  178.4990  138.2380 C   0  0  0  0  0  0  0  0  0  0  0  0
  182.1640  176.8270  136.8730 C   0  0  1  0  0  3  0  0  0  0  0  0
  180.7090  176.4830  136.6230 C   0  0  0  0  0  1  0  0  0  0  0  0
  182.3030  178.2630  137.0630 N   0  0  0  0  0  0  0  0  0  0  0  0
  182.6230  176.2050  138.1990 C   0  0  2  0  0  3  0  0  0  0  0  0
  183.0090  177.3420  139.0170 N   0  0  0  0  0  2  0  0  0  0  0  0
  181.9920  180.7820  138.7950 O   0  0  0  0  0  0  0  0  0  0  0  0
  183.0260  179.8560  138.7280 C   0  0  0  0  0  0  0  0  0  0  0  0
  184.1840  180.1890  139.0920 O   0  0  0  0  0  1  0  0  0  0  0  0
  187.4670  177.8940  141.9720 C   0  0  0  0  0  0  0  0  0  0  0  0
  188.4800  177.6280  141.3740 C   0  0  0  0  0  0  0  0  0  0  0  0
  186.2640  178.2150  142.6940 C   0  0  0  0  0  0  0  0  0  0  0  0
  183.7300  178.6590  144.0580 C   0  0  0  0  0  3  0  0  0  0  0  0
  185.1930  178.2850  146.1400 C   0  0  0  0  0  3  0  0  0  0  0  0
  185.0620  178.6330  141.9490 C   0  0  0  0  0  3  0  0  0  0  0  0
  187.3060  177.7830  144.9460 C   0  0  0  0  0  3  0  0  0  0  0  0
  183.8980  178.8630  142.5710 C   0  0  0  0  0  3  0  0  0  0  0  0
  185.0230  178.4960  144.7190 N   0  0  0  0  0  0  0  0  0  0  0  0
  186.6790  177.9510  146.3350 C   0  0  0  0  0  3  0  0  0  0  0  0
  186.2100  178.1680  144.0290 C   0  0  0  0  0  0  0  0  0  0  0  0
  1  5  1  0  0  0  0
  3  6  2  0  0  0  0
  4  2  2  0  0  0  0
  5  4  1  0  0  0  0
  6 29  1  0  0  0  0
  6  2  1  0  0  0  0
  7  1  2  0  0  0  0
  7  3  1  0  0  0  0
  8  1  1  0  0  0  0
  9  5  1  0  0  0  0
 10 14  1  0  0  0  0
 11 10  2  0  0  0  0
 12 11  1  0  0  0  0
 12 13  2  0  0  0  0
 13 15  1  0  0  0  0
 14  3  1  0  0  0  0
 15 14  2  0  0  0  0
 16 11  1  0  0  0  0
 17 16  1  0  0  0  0
 17 18  1  0  0  0  0
 19 26  1  0  0  0  0
 19 24  1  0  0  0  0
 20 21  1  1  0  0  0
 20 22  1  0  0  0  0
 20 23  1  0  0  0  0
 22 19  2  0  0  0  0
 23 18  1  6  0  0  0
 23 24  1  0  0  0  0
 26 25  2  0  0  0  0
 26 27  1  0  0  0  0
 28 30  1  0  0  0  0
 29 28  3  0  0  0  0
 30 38  1  0  0  0  0
 31 36  1  0  0  0  0
 32 37  2  0  0  0  0
 33 35  1  0  0  0  0
 33 30  2  0  0  0  0
 34 37  1  0  0  0  0
 35 31  2  0  0  0  0
 36 32  1  0  0  0  0
 38 36  1  0  0  0  0
 38 34  2  0  0  0  0
M  END
>  <MODEL>
9

>  <REMARK>
 VINA RESULT:      -9.3      3.766      8.036
  Name = 
  8 active torsions:
  status: ('A' for Active; 'I' for Inactive)
    1  A    between atoms: C_2  and  C_22
    2  A    between atoms: C_3  and  C_5
    3  A    between atoms: C_8  and  C_14
    4  A    between atoms: C_8  and  C_16
    5  A    between atoms: C_9  and  C_26
    6  A    between atoms: C_16  and  C_19
    7  A    between atoms: C_19  and  C_28
    8  A    between atoms: C_24  and  C_31
                            x       y       z     vdW  Elec       q    Type
                         _______ _______ _______ _____ _____    ______ ____

>  <TORSDO>
F 8

$$$$
