=
 OpenBabel11032419493D

 27 31  0  0  1  0  0  0  0  0999 V2000
  190.6050  176.7650  140.5160 N   0  0  0  0  0  0  0  0  0  0  0  0
  191.0430  176.6250  143.0270 C   0  0  0  0  0  2  0  0  0  0  0  0
  190.2330  177.5870  143.8870 C   0  0  1  0  0  3  0  0  0  0  0  0
  188.5570  177.2570  139.5130 O   0  0  0  0  0  1  0  0  0  0  0  0
  189.2120  178.1880  142.9330 C   0  0  0  0  0  2  0  0  0  0  0  0
  188.9490  177.1480  141.8600 C   0  0  2  0  0  3  0  0  0  0  0  0
  190.1640  176.2480  141.8280 C   0  0  1  0  0  3  0  0  0  0  0  0
  189.4440  177.6510  140.5170 C   0  0  1  0  0  3  0  0  0  0  0  0
  186.6910  177.0500  144.4610 O   0  0  0  0  0  0  0  0  0  0  0  0
  190.0690  177.1890  147.3350 C   0  0  0  0  0  2  0  0  0  0  0  0
  187.2530  177.4720  145.5070 C   0  0  0  0  0  0  0  0  0  0  0  0
  186.5500  177.6780  146.7900 C   0  0  1  0  0  3  0  0  0  0  0  0
  190.5660  176.5970  146.0190 C   0  0  0  0  0  2  0  0  0  0  0  0
  188.6440  177.7220  145.5840 N   0  0  0  0  0  0  0  0  0  0  0  0
  188.9660  178.1260  146.9290 C   0  0  1  0  0  3  0  0  0  0  0  0
  187.7040  177.8970  147.7730 C   0  0  0  0  0  2  0  0  0  0  0  0
  189.5690  176.8580  144.9760 N   0  0  1  0  0  0  0  0  0  0  0  0
  186.0000  179.9250  147.3560 O   0  0  0  0  0  0  0  0  0  0  0  0
  184.4600  178.8740  145.9750 N   0  0  0  0  0  1  0  0  0  0  0  0
  185.6690  178.8860  146.7320 C   0  0  0  0  0  0  0  0  0  0  0  0
  191.8010  177.6090  140.5720 C   0  0  0  0  0  2  0  0  0  0  0  0
  192.9590  176.9550  139.8240 C   0  0  0  0  0  2  0  0  0  0  0  0
  192.6490  176.6910  138.3490 C   0  0  1  0  0  3  0  0  0  0  0  0
  193.7330  177.0470  137.5450 O   0  0  0  0  0  1  0  0  0  0  0  0
  192.2620  175.2410  138.1010 C   0  0  2  0  0  3  0  0  0  0  0  0
  192.2090  175.0100  136.7150 O   0  0  0  0  0  0  0  0  0  0  0  0
  190.9770  175.1720  137.3740 C   0  0  0  0  0  2  0  0  0  0  0  0
  1  8  1  0  0  0  0
  1 21  1  0  0  0  0
  1  7  1  0  0  0  0
  2  3  1  0  0  0  0
  3  5  1  6  0  0  0
  3 17  1  0  0  0  0
  6  5  1  1  0  0  0
  7  6  1  0  0  0  0
  7  2  1  1  0  0  0
  8  4  1  6  0  0  0
  8  6  1  0  0  0  0
  9 11  2  0  0  0  0
 11 14  1  0  0  0  0
 11 12  1  0  0  0  0
 12 20  1  6  0  0  0
 12 16  1  0  0  0  0
 13 10  1  0  0  0  0
 14 15  1  0  0  0  0
 15 10  1  1  0  0  0
 15 16  1  0  0  0  0
 17 14  1  0  0  0  0
 17 13  1  1  0  0  0
 19 20  1  0  0  0  0
 20 18  2  0  0  0  0
 22 21  1  0  0  0  0
 23 24  1  6  0  0  0
 23 22  1  0  0  0  0
 25 23  1  6  0  0  0
 26 27  1  0  0  0  0
 26 25  1  0  0  0  0
 27 25  1  0  0  0  0
M  END
>  <MODEL>
1

>  <REMARK>
 VINA RESULT:      -7.7      0.000      0.000
  Name = 
  6 active torsions:
  status: ('A' for Active; 'I' for Inactive)
    1  A    between atoms: C_1  and  C_12
    2  A    between atoms: C_2  and  C_12
    3  A    between atoms: C_2  and  C_18
    4  A    between atoms: C_7  and  C_27
    5  A    between atoms: N_8  and  C_18
    6  A    between atoms: C_11  and  N_24
                            x       y       z     vdW  Elec       q    Type
                         _______ _______ _______ _____ _____    ______ ____

>  <TORSDO>
F 6

$$$$
=
 OpenBabel11032419493D

 27 31  0  0  1  0  0  0  0  0999 V2000
  183.8420  179.3430  143.4100 N   0  0  0  0  0  0  0  0  0  0  0  0
  185.0250  178.8230  145.6130 C   0  0  0  0  0  2  0  0  0  0  0  0
  186.1600  177.8130  145.5220 C   0  0  1  0  0  3  0  0  0  0  0  0
  184.8430  179.3990  141.3040 O   0  0  0  0  0  1  0  0  0  0  0  0
  186.3720  177.6050  144.0300 C   0  0  0  0  0  2  0  0  0  0  0  0
  185.9610  178.8950  143.3450 C   0  0  2  0  0  3  0  0  0  0  0  0
  185.0050  179.5940  144.2860 C   0  0  1  0  0  3  0  0  0  0  0  0
  184.7370  178.6580  142.4820 C   0  0  1  0  0  3  0  0  0  0  0  0
  189.4390  178.3900  144.0800 O   0  0  0  0  0  0  0  0  0  0  0  0
  188.2630  177.5600  148.2770 C   0  0  0  0  0  2  0  0  0  0  0  0
  189.5340  177.7530  145.1630 C   0  0  0  0  0  0  0  0  0  0  0  0
  190.8200  177.3400  145.7610 C   0  0  1  0  0  3  0  0  0  0  0  0
  187.1550  178.3660  147.6060 C   0  0  0  0  0  2  0  0  0  0  0  0
  188.4140  177.4310  145.9660 N   0  0  0  0  0  0  0  0  0  0  0  0
  188.8770  176.7670  147.1570 C   0  0  1  0  0  3  0  0  0  0  0  0
  190.4080  176.8880  147.1650 C   0  0  0  0  0  2  0  0  0  0  0  0
  187.3710  178.3520  146.1550 N   0  0  1  0  0  0  0  0  0  0  0  0
  192.1110  175.3440  145.6090 O   0  0  0  0  0  0  0  0  0  0  0  0
  191.2420  176.0880  143.5890 N   0  0  0  0  0  1  0  0  0  0  0  0
  191.4290  176.2060  144.9980 C   0  0  0  0  0  0  0  0  0  0  0  0
  182.9020  178.3480  143.9290 C   0  0  0  0  0  2  0  0  0  0  0  0
  181.4790  178.9000  143.9340 C   0  0  0  0  0  2  0  0  0  0  0  0
  180.6500  178.4380  142.7350 C   0  0  1  0  0  3  0  0  0  0  0  0
  179.3840  178.0150  143.1430 O   0  0  0  0  0  1  0  0  0  0  0  0
  180.5270  179.5240  141.6770 C   0  0  2  0  0  3  0  0  0  0  0  0
  179.9080  178.9860  140.5350 O   0  0  0  0  0  0  0  0  0  0  0  0
  181.3030  179.1550  140.4750 C   0  0  0  0  0  2  0  0  0  0  0  0
  1 21  1  0  0  0  0
  1  7  1  0  0  0  0
  3  5  1  6  0  0  0
  3  2  1  0  0  0  0
  3 17  1  0  0  0  0
  6  5  1  1  0  0  0
  6  7  1  0  0  0  0
  7  2  1  1  0  0  0
  8  4  1  6  0  0  0
  8  6  1  0  0  0  0
  8  1  1  0  0  0  0
  9 11  2  0  0  0  0
 11 12  1  0  0  0  0
 11 14  1  0  0  0  0
 12 20  1  6  0  0  0
 12 16  1  0  0  0  0
 13 10  1  0  0  0  0
 14 17  1  0  0  0  0
 14 15  1  0  0  0  0
 15 16  1  1  0  0  0
 15 10  1  0  0  0  0
 17 13  1  1  0  0  0
 19 20  1  0  0  0  0
 20 18  2  0  0  0  0
 21 22  1  0  0  0  0
 23 24  1  1  0  0  0
 23 22  1  0  0  0  0
 25 23  1  1  0  0  0
 26 25  1  0  0  0  0
 27 26  1  0  0  0  0
 27 25  1  0  0  0  0
M  END
>  <MODEL>
2

>  <REMARK>
 VINA RESULT:      -7.6      4.229      7.700
  Name = 
  6 active torsions:
  status: ('A' for Active; 'I' for Inactive)
    1  A    between atoms: C_1  and  C_12
    2  A    between atoms: C_2  and  C_12
    3  A    between atoms: C_2  and  C_18
    4  A    between atoms: C_7  and  C_27
    5  A    between atoms: N_8  and  C_18
    6  A    between atoms: C_11  and  N_24
                            x       y       z     vdW  Elec       q    Type
                         _______ _______ _______ _____ _____    ______ ____

>  <TORSDO>
F 6

$$$$
=
 OpenBabel11032419493D

 27 31  0  0  1  0  0  0  0  0999 V2000
  189.7420  177.4770  139.3350 N   0  0  0  0  0  0  0  0  0  0  0  0
  188.3830  177.8180  141.4700 C   0  0  0  0  0  2  0  0  0  0  0  0
  188.7910  176.9470  142.6510 C   0  0  1  0  0  3  0  0  0  0  0  0
  192.0090  176.9410  139.2320 O   0  0  0  0  0  1  0  0  0  0  0  0
  190.0900  176.2860  142.2110 C   0  0  0  0  0  2  0  0  0  0  0  0
  190.7560  177.2380  141.2350 C   0  0  2  0  0  3  0  0  0  0  0  0
  189.6580  178.1100  140.6680 C   0  0  1  0  0  3  0  0  0  0  0  0
  190.8020  176.6160  139.8530 C   0  0  1  0  0  3  0  0  0  0  0  0
  191.8760  177.6950  144.4090 O   0  0  0  0  0  0  0  0  0  0  0  0
  187.6940  177.5730  145.8880 C   0  0  0  0  0  2  0  0  0  0  0  0
  190.9850  177.3130  145.2140 C   0  0  0  0  0  0  0  0  0  0  0  0
  191.1840  177.2250  146.6750 C   0  0  1  0  0  3  0  0  0  0  0  0
  187.6900  178.0530  144.4400 C   0  0  0  0  0  2  0  0  0  0  0  0
  189.6660  177.0000  144.8090 N   0  0  0  0  0  0  0  0  0  0  0  0
  188.8910  176.6680  145.9770 C   0  0  1  0  0  3  0  0  0  0  0  0
  189.7590  177.0120  147.1950 C   0  0  0  0  0  2  0  0  0  0  0  0
  189.0020  177.7760  143.8450 N   0  0  1  0  0  0  0  0  0  0  0  0
  192.1770  175.1090  146.2180 O   0  0  0  0  0  0  0  0  0  0  0  0
  192.7510  176.0200  148.2740 N   0  0  0  0  0  1  0  0  0  0  0  0
  192.0550  176.0610  147.0300 C   0  0  0  0  0  0  0  0  0  0  0  0
  188.6020  176.6190  139.0040 C   0  0  0  0  0  2  0  0  0  0  0  0
  187.9050  177.1120  137.7390 C   0  0  0  0  0  2  0  0  0  0  0  0
  187.1320  178.4160  137.9470 C   0  0  1  0  0  3  0  0  0  0  0  0
  187.2840  179.2610  136.8460 O   0  0  0  0  0  1  0  0  0  0  0  0
  185.6580  178.1640  138.2200 C   0  0  2  0  0  3  0  0  0  0  0  0
  185.0270  179.3880  138.5050 O   0  0  0  0  0  0  0  0  0  0  0  0
  185.3190  178.5600  139.6030 C   0  0  0  0  0  2  0  0  0  0  0  0
  1  8  1  0  0  0  0
  1  7  1  0  0  0  0
  3  2  1  6  0  0  0
  3 17  1  0  0  0  0
  5  3  1  0  0  0  0
  6  5  1  1  0  0  0
  7  6  1  0  0  0  0
  7  2  1  1  0  0  0
  8  4  1  6  0  0  0
  8  6  1  0  0  0  0
  9 11  2  0  0  0  0
 11 12  1  0  0  0  0
 12 20  1  6  0  0  0
 12 16  1  0  0  0  0
 13 10  1  0  0  0  0
 14 11  1  0  0  0  0
 14 15  1  0  0  0  0
 15 10  1  1  0  0  0
 15 16  1  0  0  0  0
 17 13  1  1  0  0  0
 17 14  1  0  0  0  0
 18 20  2  0  0  0  0
 20 19  1  0  0  0  0
 21  1  1  0  0  0  0
 22 23  1  0  0  0  0
 22 21  1  0  0  0  0
 23 24  1  6  0  0  0
 25 23  1  1  0  0  0
 25 26  1  0  0  0  0
 25 27  1  0  0  0  0
 26 27  1  0  0  0  0
M  END
>  <MODEL>
3

>  <REMARK>
 VINA RESULT:      -7.2      2.792      4.853
  Name = 
  6 active torsions:
  status: ('A' for Active; 'I' for Inactive)
    1  A    between atoms: C_1  and  C_12
    2  A    between atoms: C_2  and  C_12
    3  A    between atoms: C_2  and  C_18
    4  A    between atoms: C_7  and  C_27
    5  A    between atoms: N_8  and  C_18
    6  A    between atoms: C_11  and  N_24
                            x       y       z     vdW  Elec       q    Type
                         _______ _______ _______ _____ _____    ______ ____

>  <TORSDO>
F 6

$$$$
=
 OpenBabel11032419493D

 27 31  0  0  1  0  0  0  0  0999 V2000
  184.5120  179.0210  141.4160 N   0  0  0  0  0  0  0  0  0  0  0  0
  185.0070  178.7180  143.9030 C   0  0  0  0  0  2  0  0  0  0  0  0
  186.1820  177.8050  144.2290 C   0  0  1  0  0  3  0  0  0  0  0  0
  186.0950  179.0550  139.7040 O   0  0  0  0  0  1  0  0  0  0  0  0
  186.8470  177.5400  142.8860 C   0  0  0  0  0  2  0  0  0  0  0  0
  186.5770  178.7530  142.0160 C   0  0  2  0  0  3  0  0  0  0  0  0
  185.3370  179.4150  142.5770 C   0  0  1  0  0  3  0  0  0  0  0  0
  185.6880  178.3680  140.8490 C   0  0  1  0  0  3  0  0  0  0  0  0
  189.7340  178.4420  143.8530 O   0  0  0  0  0  0  0  0  0  0  0  0
  187.2840  177.9540  147.5200 C   0  0  0  0  0  2  0  0  0  0  0  0
  189.4910  177.9210  144.9740 C   0  0  0  0  0  0  0  0  0  0  0  0
  190.5240  177.6490  145.9950 C   0  0  1  0  0  3  0  0  0  0  0  0
  186.4320  178.6210  146.4450 C   0  0  0  0  0  2  0  0  0  0  0  0
  188.1800  177.6100  145.4090 N   0  0  0  0  0  0  0  0  0  0  0  0
  188.2500  177.0950  146.7530 C   0  0  1  0  0  3  0  0  0  0  0  0
  189.6910  177.3120  147.2350 C   0  0  0  0  0  2  0  0  0  0  0  0
  187.1070  178.4780  145.1500 N   0  0  1  0  0  0  0  0  0  0  0  0
  191.4160  176.1280  144.3940 O   0  0  0  0  0  0  0  0  0  0  0  0
  192.1500  175.7810  146.5680 N   0  0  0  0  0  1  0  0  0  0  0  0
  191.3780  176.4860  145.5990 C   0  0  0  0  0  0  0  0  0  0  0  0
  183.5270  177.9760  141.7060 C   0  0  0  0  0  2  0  0  0  0  0  0
  182.1080  178.5240  141.5850 C   0  0  0  0  0  2  0  0  0  0  0  0
  181.3710  178.0190  140.3440 C   0  0  1  0  0  3  0  0  0  0  0  0
  181.2350  179.0390  139.4010 O   0  0  0  0  0  1  0  0  0  0  0  0
  182.0630  176.8150  139.7230 C   0  0  2  0  0  3  0  0  0  0  0  0
  181.4340  176.5000  138.5060 O   0  0  0  0  0  0  0  0  0  0  0  0
  181.1170  175.6860  139.6080 C   0  0  0  0  0  2  0  0  0  0  0  0
  1 21  1  0  0  0  0
  1  7  1  0  0  0  0
  2  3  1  0  0  0  0
  3  5  1  6  0  0  0
  3 17  1  0  0  0  0
  6  7  1  0  0  0  0
  6  5  1  1  0  0  0
  7  2  1  1  0  0  0
  8  4  1  6  0  0  0
  8  1  1  0  0  0  0
  8  6  1  0  0  0  0
  9 11  2  0  0  0  0
 11 14  1  0  0  0  0
 11 12  1  0  0  0  0
 12 20  1  6  0  0  0
 12 16  1  0  0  0  0
 13 10  1  0  0  0  0
 14 15  1  0  0  0  0
 15 16  1  1  0  0  0
 15 10  1  0  0  0  0
 17 14  1  0  0  0  0
 17 13  1  1  0  0  0
 18 20  2  0  0  0  0
 20 19  1  0  0  0  0
 22 21  1  0  0  0  0
 23 24  1  6  0  0  0
 23 22  1  0  0  0  0
 25 23  1  1  0  0  0
 26 27  1  0  0  0  0
 26 25  1  0  0  0  0
 27 25  1  0  0  0  0
M  END
>  <MODEL>
4

>  <REMARK>
 VINA RESULT:      -7.1      4.291      6.765
  Name = 
  6 active torsions:
  status: ('A' for Active; 'I' for Inactive)
    1  A    between atoms: C_1  and  C_12
    2  A    between atoms: C_2  and  C_12
    3  A    between atoms: C_2  and  C_18
    4  A    between atoms: C_7  and  C_27
    5  A    between atoms: N_8  and  C_18
    6  A    between atoms: C_11  and  N_24
                            x       y       z     vdW  Elec       q    Type
                         _______ _______ _______ _____ _____    ______ ____

>  <TORSDO>
F 6

$$$$
=
 OpenBabel11032419493D

 27 31  0  0  1  0  0  0  0  0999 V2000
  190.8920  177.0550  138.4760 N   0  0  0  0  0  0  0  0  0  0  0  0
  188.8610  177.3450  139.9960 C   0  0  0  0  0  2  0  0  0  0  0  0
  189.0380  176.8500  141.4250 C   0  0  1  0  0  3  0  0  0  0  0  0
  193.1240  177.1990  139.1370 O   0  0  0  0  0  1  0  0  0  0  0  0
  190.5220  176.5340  141.5420 C   0  0  0  0  0  2  0  0  0  0  0  0
  191.2430  177.4560  140.5760 C   0  0  2  0  0  3  0  0  0  0  0  0
  190.2300  177.8550  139.5260 C   0  0  1  0  0  3  0  0  0  0  0  0
  191.8850  176.6460  139.4660 C   0  0  1  0  0  3  0  0  0  0  0  0
  190.8370  178.1110  144.3120 O   0  0  0  0  0  0  0  0  0  0  0  0
  186.4800  177.9900  143.4820 C   0  0  0  0  0  2  0  0  0  0  0  0
  189.6480  177.8270  144.6170 C   0  0  0  0  0  0  0  0  0  0  0  0
  189.0770  178.0240  145.9660 C   0  0  1  0  0  3  0  0  0  0  0  0
  187.2260  178.1930  142.1660 C   0  0  0  0  0  2  0  0  0  0  0  0
  188.7040  177.3580  143.6730 N   0  0  0  0  0  0  0  0  0  0  0  0
  187.4330  177.1980  144.3320 C   0  0  1  0  0  3  0  0  0  0  0  0
  187.5790  177.8180  145.7290 C   0  0  0  0  0  2  0  0  0  0  0  0
  188.6480  177.8980  142.3780 N   0  0  1  0  0  0  0  0  0  0  0  0
  188.8070  176.3880  147.6760 O   0  0  0  0  0  0  0  0  0  0  0  0
  191.0020  176.7250  147.0010 N   0  0  0  0  0  1  0  0  0  0  0  0
  189.6060  177.0060  146.9270 C   0  0  0  0  0  0  0  0  0  0  0  0
  190.1510  175.8560  138.0760 C   0  0  0  0  0  2  0  0  0  0  0  0
  189.7560  175.9330  136.6040 C   0  0  0  0  0  2  0  0  0  0  0  0
  188.2560  176.1480  136.3940 C   0  0  1  0  0  3  0  0  0  0  0  0
  187.5180  175.4540  137.3550 O   0  0  0  0  0  1  0  0  0  0  0  0
  187.8860  177.6230  136.4090 C   0  0  2  0  0  3  0  0  0  0  0  0
  186.4850  177.7460  136.4240 O   0  0  0  0  0  0  0  0  0  0  0  0
  187.1240  177.9710  135.1920 C   0  0  0  0  0  2  0  0  0  0  0  0
  1  8  1  0  0  0  0
  1  7  1  0  0  0  0
  3  2  1  6  0  0  0
  3  5  1  0  0  0  0
  3 17  1  0  0  0  0
  6  5  1  1  0  0  0
  7  2  1  1  0  0  0
  7  6  1  0  0  0  0
  8  4  1  6  0  0  0
  8  6  1  0  0  0  0
  9 11  2  0  0  0  0
 11 12  1  0  0  0  0
 12 20  1  1  0  0  0
 13 10  1  0  0  0  0
 14 15  1  0  0  0  0
 14 11  1  0  0  0  0
 15 10  1  6  0  0  0
 15 16  1  0  0  0  0
 16 12  1  0  0  0  0
 17 13  1  6  0  0  0
 17 14  1  0  0  0  0
 20 19  1  0  0  0  0
 20 18  2  0  0  0  0
 21  1  1  0  0  0  0
 22 21  1  0  0  0  0
 23 22  1  0  0  0  0
 23 24  1  1  0  0  0
 25 23  1  6  0  0  0
 25 26  1  0  0  0  0
 27 25  1  0  0  0  0
 27 26  1  0  0  0  0
M  END
>  <MODEL>
5

>  <REMARK>
 VINA RESULT:      -7.0      2.409      4.193
  Name = 
  6 active torsions:
  status: ('A' for Active; 'I' for Inactive)
    1  A    between atoms: C_1  and  C_12
    2  A    between atoms: C_2  and  C_12
    3  A    between atoms: C_2  and  C_18
    4  A    between atoms: C_7  and  C_27
    5  A    between atoms: N_8  and  C_18
    6  A    between atoms: C_11  and  N_24
                            x       y       z     vdW  Elec       q    Type
                         _______ _______ _______ _____ _____    ______ ____

>  <TORSDO>
F 6

$$$$
=
 OpenBabel11032419493D

 27 31  0  0  1  0  0  0  0  0999 V2000
  188.5210  178.2600  139.6270 N   0  0  0  0  0  0  0  0  0  0  0  0
  187.0720  178.5150  141.7140 C   0  0  0  0  0  2  0  0  0  0  0  0
  187.3410  177.5090  142.8250 C   0  0  1  0  0  3  0  0  0  0  0  0
  190.7410  177.5480  139.5870 O   0  0  0  0  0  1  0  0  0  0  0  0
  188.6070  176.7860  142.3890 C   0  0  0  0  0  2  0  0  0  0  0  0
  189.4020  177.7640  141.5440 C   0  0  2  0  0  3  0  0  0  0  0  0
  188.4100  178.7720  141.0090 C   0  0  1  0  0  3  0  0  0  0  0  0
  189.4780  177.2700  140.1120 C   0  0  1  0  0  3  0  0  0  0  0  0
  190.4250  178.7060  144.3140 O   0  0  0  0  0  0  0  0  0  0  0  0
  186.6230  177.4510  146.2240 C   0  0  0  0  0  2  0  0  0  0  0  0
  189.7610  178.0330  145.1460 C   0  0  0  0  0  0  0  0  0  0  0  0
  190.1850  177.8060  146.5430 C   0  0  1  0  0  3  0  0  0  0  0  0
  186.3070  178.0990  144.8790 C   0  0  0  0  0  2  0  0  0  0  0  0
  188.4910  177.4830  144.8500 N   0  0  0  0  0  0  0  0  0  0  0  0
  187.9810  176.8380  146.0320 C   0  0  1  0  0  3  0  0  0  0  0  0
  188.9270  177.2120  147.1830 C   0  0  0  0  0  2  0  0  0  0  0  0
  187.5470  178.2050  144.1020 N   0  0  1  0  0  0  0  0  0  0  0  0
  191.6270  176.1700  145.5870 O   0  0  0  0  0  0  0  0  0  0  0  0
  192.0630  176.6580  147.8130 N   0  0  0  0  0  1  0  0  0  0  0  0
  191.3210  176.8350  146.6090 C   0  0  0  0  0  0  0  0  0  0  0  0
  187.3380  177.5330  139.1580 C   0  0  0  0  0  2  0  0  0  0  0  0
  186.7460  178.2070  137.9230 C   0  0  0  0  0  2  0  0  0  0  0  0
  185.2310  178.0300  137.8100 C   0  0  1  0  0  3  0  0  0  0  0  0
  184.9150  176.7400  137.3830 O   0  0  0  0  0  1  0  0  0  0  0  0
  184.5240  178.3410  139.1200 C   0  0  2  0  0  3  0  0  0  0  0  0
  183.1550  178.5400  138.8670 O   0  0  0  0  0  0  0  0  0  0  0  0
  183.9310  179.6940  139.0710 C   0  0  0  0  0  2  0  0  0  0  0  0
  1  8  1  0  0  0  0
  1  7  1  0  0  0  0
  3  2  1  6  0  0  0
  3 17  1  0  0  0  0
  5  3  1  0  0  0  0
  6  5  1  1  0  0  0
  7  6  1  0  0  0  0
  7  2  1  1  0  0  0
  8  4  1  6  0  0  0
  8  6  1  0  0  0  0
  9 11  2  0  0  0  0
 11 12  1  0  0  0  0
 12 20  1  6  0  0  0
 12 16  1  0  0  0  0
 13 10  1  0  0  0  0
 14 11  1  0  0  0  0
 14 15  1  0  0  0  0
 15 10  1  1  0  0  0
 15 16  1  0  0  0  0
 17 14  1  0  0  0  0
 17 13  1  1  0  0  0
 18 20  2  0  0  0  0
 20 19  1  0  0  0  0
 21  1  1  0  0  0  0
 22 21  1  0  0  0  0
 23 24  1  1  0  0  0
 23 22  1  0  0  0  0
 25 23  1  6  0  0  0
 26 27  1  0  0  0  0
 26 25  1  0  0  0  0
 27 25  1  0  0  0  0
M  END
>  <MODEL>
6

>  <REMARK>
 VINA RESULT:      -6.9      3.065      5.220
  Name = 
  6 active torsions:
  status: ('A' for Active; 'I' for Inactive)
    1  A    between atoms: C_1  and  C_12
    2  A    between atoms: C_2  and  C_12
    3  A    between atoms: C_2  and  C_18
    4  A    between atoms: C_7  and  C_27
    5  A    between atoms: N_8  and  C_18
    6  A    between atoms: C_11  and  N_24
                            x       y       z     vdW  Elec       q    Type
                         _______ _______ _______ _____ _____    ______ ____

>  <TORSDO>
F 6

$$$$
=
 OpenBabel11032419493D

 27 31  0  0  1  0  0  0  0  0999 V2000
  191.3590  176.9940  138.7710 N   0  0  0  0  0  0  0  0  0  0  0  0
  189.2470  177.1310  140.1990 C   0  0  0  0  0  2  0  0  0  0  0  0
  189.4280  176.7800  141.6700 C   0  0  1  0  0  3  0  0  0  0  0  0
  193.5240  177.4870  139.4860 O   0  0  0  0  0  1  0  0  0  0  0  0
  190.9340  176.6760  141.8580 C   0  0  0  0  0  2  0  0  0  0  0  0
  191.5680  177.6050  140.8390 C   0  0  2  0  0  3  0  0  0  0  0  0
  190.5550  177.7800  139.7290 C   0  0  1  0  0  3  0  0  0  0  0  0
  192.3550  176.8020  139.8220 C   0  0  1  0  0  3  0  0  0  0  0  0
  190.7380  178.2010  144.7400 O   0  0  0  0  0  0  0  0  0  0  0  0
  186.5570  177.8770  143.2910 C   0  0  0  0  0  2  0  0  0  0  0  0
  189.5280  177.8780  144.8790 C   0  0  0  0  0  0  0  0  0  0  0  0
  188.7600  178.0920  146.1230 C   0  0  1  0  0  3  0  0  0  0  0  0
  187.4800  178.0710  142.0910 C   0  0  0  0  0  2  0  0  0  0  0  0
  188.7500  177.3430  143.8260 N   0  0  0  0  0  0  0  0  0  0  0  0
  187.4030  177.1510  144.2990 C   0  0  1  0  0  3  0  0  0  0  0  0
  187.3200  177.8190  145.6790 C   0  0  0  0  0  2  0  0  0  0  0  0
  188.8650  177.8400  142.5170 N   0  0  1  0  0  0  0  0  0  0  0  0
  188.3110  176.6370  147.9540 O   0  0  0  0  0  0  0  0  0  0  0  0
  190.5460  176.7520  147.3380 N   0  0  0  0  0  1  0  0  0  0  0  0
  189.1780  177.1270  147.1860 C   0  0  0  0  0  0  0  0  0  0  0  0
  190.7990  175.6790  138.4530 C   0  0  0  0  0  2  0  0  0  0  0  0
  191.2790  175.2050  137.0830 C   0  0  0  0  0  2  0  0  0  0  0  0
  192.3030  174.0720  137.1640 C   0  0  1  0  0  3  0  0  0  0  0  0
  191.9350  173.0130  136.3330 O   0  0  0  0  0  1  0  0  0  0  0  0
  193.7060  174.5490  136.8210 C   0  0  2  0  0  3  0  0  0  0  0  0
  194.6060  173.4800  136.9780 O   0  0  0  0  0  0  0  0  0  0  0  0
  194.5850  174.4410  138.0040 C   0  0  0  0  0  2  0  0  0  0  0  0
  1  7  1  0  0  0  0
  1  8  1  0  0  0  0
  3  2  1  6  0  0  0
  3  5  1  0  0  0  0
  3 17  1  0  0  0  0
  6  5  1  1  0  0  0
  7  2  1  1  0  0  0
  7  6  1  0  0  0  0
  8  4  1  6  0  0  0
  8  6  1  0  0  0  0
  9 11  2  0  0  0  0
 11 12  1  0  0  0  0
 12 20  1  1  0  0  0
 13 10  1  0  0  0  0
 14 15  1  0  0  0  0
 14 11  1  0  0  0  0
 15 10  1  6  0  0  0
 15 16  1  0  0  0  0
 16 12  1  0  0  0  0
 17 13  1  6  0  0  0
 17 14  1  0  0  0  0
 20 19  1  0  0  0  0
 20 18  2  0  0  0  0
 21  1  1  0  0  0  0
 22 23  1  0  0  0  0
 22 21  1  0  0  0  0
 23 24  1  6  0  0  0
 25 26  1  0  0  0  0
 25 23  1  1  0  0  0
 25 27  1  0  0  0  0
 26 27  1  0  0  0  0
M  END
>  <MODEL>
7

>  <REMARK>
 VINA RESULT:      -6.8      2.171      3.558
  Name = 
  6 active torsions:
  status: ('A' for Active; 'I' for Inactive)
    1  A    between atoms: C_1  and  C_12
    2  A    between atoms: C_2  and  C_12
    3  A    between atoms: C_2  and  C_18
    4  A    between atoms: C_7  and  C_27
    5  A    between atoms: N_8  and  C_18
    6  A    between atoms: C_11  and  N_24
                            x       y       z     vdW  Elec       q    Type
                         _______ _______ _______ _____ _____    ______ ____

>  <TORSDO>
F 6

$$$$
=
 OpenBabel11032419493D

 27 31  0  0  1  0  0  0  0  0999 V2000
  189.0980  178.1800  139.4450 N   0  0  0  0  0  0  0  0  0  0  0  0
  187.4760  178.5300  141.3870 C   0  0  0  0  0  2  0  0  0  0  0  0
  187.5690  177.5050  142.5090 C   0  0  1  0  0  3  0  0  0  0  0  0
  191.2580  177.3170  139.6110 O   0  0  0  0  0  1  0  0  0  0  0  0
  188.8180  176.6970  142.1900 C   0  0  0  0  0  2  0  0  0  0  0  0
  189.7550  177.6200  141.4330 C   0  0  2  0  0  3  0  0  0  0  0  0
  188.8900  178.6960  140.8140 C   0  0  1  0  0  3  0  0  0  0  0  0
  189.9350  177.1250  140.0110 C   0  0  1  0  0  3  0  0  0  0  0  0
  190.5570  178.6980  144.1850 O   0  0  0  0  0  0  0  0  0  0  0  0
  186.6620  177.3900  145.8610 C   0  0  0  0  0  2  0  0  0  0  0  0
  189.8520  178.0070  144.9690 C   0  0  0  0  0  0  0  0  0  0  0  0
  190.1990  177.7620  146.3840 C   0  0  1  0  0  3  0  0  0  0  0  0
  186.4180  178.0570  144.5110 C   0  0  0  0  0  2  0  0  0  0  0  0
  188.6040  177.4550  144.5940 N   0  0  0  0  0  0  0  0  0  0  0  0
  188.0340  176.7880  145.7370 C   0  0  1  0  0  3  0  0  0  0  0  0
  188.9120  177.1500  146.9430 C   0  0  0  0  0  2  0  0  0  0  0  0
  187.6980  178.1820  143.8060 N   0  0  1  0  0  0  0  0  0  0  0  0
  191.6680  176.1090  145.5000 O   0  0  0  0  0  0  0  0  0  0  0  0
  192.0520  176.6510  147.7230 N   0  0  0  0  0  1  0  0  0  0  0  0
  191.3370  176.7970  146.4980 C   0  0  0  0  0  0  0  0  0  0  0  0
  187.9190  177.5380  138.8590 C   0  0  0  0  0  2  0  0  0  0  0  0
  187.5590  178.1850  137.5250 C   0  0  0  0  0  2  0  0  0  0  0  0
  187.8960  177.3060  136.3190 C   0  0  1  0  0  3  0  0  0  0  0  0
  187.2520  177.7720  135.1720 O   0  0  0  0  0  1  0  0  0  0  0  0
  189.3960  177.2170  136.0830 C   0  0  2  0  0  3  0  0  0  0  0  0
  189.6390  176.3870  134.9740 O   0  0  0  0  0  0  0  0  0  0  0  0
  189.8570  175.8220  136.2440 C   0  0  0  0  0  2  0  0  0  0  0  0
  1  8  1  0  0  0  0
  1  7  1  0  0  0  0
  3  2  1  6  0  0  0
  3 17  1  0  0  0  0
  5  3  1  0  0  0  0
  6  5  1  1  0  0  0
  7  2  1  1  0  0  0
  7  6  1  0  0  0  0
  8  4  1  6  0  0  0
  8  6  1  0  0  0  0
  9 11  2  0  0  0  0
 11 12  1  0  0  0  0
 12 20  1  6  0  0  0
 12 16  1  0  0  0  0
 13 10  1  0  0  0  0
 14 11  1  0  0  0  0
 14 15  1  0  0  0  0
 15 10  1  1  0  0  0
 15 16  1  0  0  0  0
 17 13  1  1  0  0  0
 17 14  1  0  0  0  0
 18 20  2  0  0  0  0
 20 19  1  0  0  0  0
 21  1  1  0  0  0  0
 22 21  1  0  0  0  0
 23 24  1  6  0  0  0
 23 22  1  0  0  0  0
 25 27  1  0  0  0  0
 25 23  1  1  0  0  0
 26 25  1  0  0  0  0
 26 27  1  0  0  0  0
M  END
>  <MODEL>
8

>  <REMARK>
 VINA RESULT:      -6.7      2.520      4.104
  Name = 
  6 active torsions:
  status: ('A' for Active; 'I' for Inactive)
    1  A    between atoms: C_1  and  C_12
    2  A    between atoms: C_2  and  C_12
    3  A    between atoms: C_2  and  C_18
    4  A    between atoms: C_7  and  C_27
    5  A    between atoms: N_8  and  C_18
    6  A    between atoms: C_11  and  N_24
                            x       y       z     vdW  Elec       q    Type
                         _______ _______ _______ _____ _____    ______ ____

>  <TORSDO>
F 6

$$$$
=
 OpenBabel11032419493D

 27 31  0  0  1  0  0  0  0  0999 V2000
  189.8550  176.6640  144.0040 N   0  0  0  0  0  0  0  0  0  0  0  0
  188.6050  177.5330  141.9540 C   0  0  0  0  0  2  0  0  0  0  0  0
  189.4670  177.8020  140.7280 C   0  0  1  0  0  3  0  0  0  0  0  0
  191.7200  175.2650  143.9730 O   0  0  0  0  0  1  0  0  0  0  0  0
  190.8280  177.2190  141.0800 C   0  0  0  0  0  2  0  0  0  0  0  0
  190.5790  176.0780  142.0480 C   0  0  2  0  0  3  0  0  0  0  0  0
  189.2400  176.3510  142.6980 C   0  0  1  0  0  3  0  0  0  0  0  0
  191.1630  176.4120  143.4070 C   0  0  1  0  0  3  0  0  0  0  0  0
  190.8540  175.1170  138.7200 O   0  0  0  0  0  0  0  0  0  0  0  0
  187.9760  178.3140  137.6320 C   0  0  0  0  0  2  0  0  0  0  0  0
  190.4570  176.0620  137.9880 C   0  0  0  0  0  0  0  0  0  0  0  0
  190.5250  176.0410  136.5120 C   0  0  1  0  0  3  0  0  0  0  0  0
  187.7520  177.9270  139.0900 C   0  0  0  0  0  2  0  0  0  0  0  0
  189.8270  177.2210  138.5020 N   0  0  0  0  0  0  0  0  0  0  0  0
  189.4400  178.0630  137.4000 C   0  0  1  0  0  3  0  0  0  0  0  0
  189.6680  177.2470  136.1190 C   0  0  0  0  0  2  0  0  0  0  0  0
  188.8970  177.1330  139.5510 N   0  0  1  0  0  0  0  0  0  0  0  0
  192.8250  176.5540  136.8540 O   0  0  0  0  0  0  0  0  0  0  0  0
  192.2750  175.9980  134.6700 N   0  0  0  0  0  1  0  0  0  0  0  0
  191.9330  176.2150  136.0360 C   0  0  0  0  0  0  0  0  0  0  0  0
  189.8040  178.0810  144.3690 C   0  0  0  0  0  2  0  0  0  0  0  0
  189.4770  178.2470  145.8500 C   0  0  0  0  0  2  0  0  0  0  0  0
  188.2080  177.5040  146.2730 C   0  0  1  0  0  3  0  0  0  0  0  0
  188.2490  177.1900  147.6320 O   0  0  0  0  0  1  0  0  0  0  0  0
  186.9520  178.2990  145.9510 C   0  0  2  0  0  3  0  0  0  0  0  0
  185.8230  177.5030  146.2190 O   0  0  0  0  0  0  0  0  0  0  0  0
  186.1930  177.6390  144.8690 C   0  0  0  0  0  2  0  0  0  0  0  0
  1 21  1  0  0  0  0
  3  5  1  1  0  0  0
  3  2  1  0  0  0  0
  6  5  1  6  0  0  0
  6  7  1  0  0  0  0
  6  8  1  0  0  0  0
  7  2  1  6  0  0  0
  7  1  1  0  0  0  0
  8  4  1  1  0  0  0
  8  1  1  0  0  0  0
 10 13  1  0  0  0  0
 11 14  1  0  0  0  0
 11  9  2  0  0  0  0
 12 20  1  1  0  0  0
 12 11  1  0  0  0  0
 14 17  1  0  0  0  0
 15 16  1  6  0  0  0
 15 10  1  0  0  0  0
 15 14  1  0  0  0  0
 16 12  1  0  0  0  0
 17 13  1  6  0  0  0
 17  3  1  0  0  0  0
 19 20  1  0  0  0  0
 20 18  2  0  0  0  0
 21 22  1  0  0  0  0
 22 23  1  0  0  0  0
 23 24  1  1  0  0  0
 25 26  1  0  0  0  0
 25 23  1  1  0  0  0
 27 25  1  0  0  0  0
 27 26  1  0  0  0  0
M  END
>  <MODEL>
9

>  <REMARK>
 VINA RESULT:      -6.7      2.357      8.475
  Name = 
  6 active torsions:
  status: ('A' for Active; 'I' for Inactive)
    1  A    between atoms: C_1  and  C_12
    2  A    between atoms: C_2  and  C_12
    3  A    between atoms: C_2  and  C_18
    4  A    between atoms: C_7  and  C_27
    5  A    between atoms: N_8  and  C_18
    6  A    between atoms: C_11  and  N_24
                            x       y       z     vdW  Elec       q    Type
                         _______ _______ _______ _____ _____    ______ ____

>  <TORSDO>
F 6

$$$$
