=
 OpenBabel11042410463D

 49 55  0  0  1  0  0  0  0  0999 V2000
  188.6000  177.9000  141.0740 C   0  0  0  0  0  0  0  0  0  0  0  0
  189.6700  177.1310  140.3500 C   0  0  1  0  0  3  0  0  0  0  0  0
  185.7360  178.2770  138.1060 C   0  0  0  0  0  2  0  0  0  0  0  0
  185.3300  178.5820  139.5450 C   0  0  0  0  0  0  0  0  0  0  0  0
  189.0610  176.8700  139.0390 N   0  0  0  0  0  0  0  0  0  0  0  0
  186.8560  177.2250  137.9670 C   0  0  0  0  0  2  0  0  0  0  0  0
  187.8990  177.4320  139.0170 C   0  0  0  0  0  0  0  0  0  0  0  0
  186.2260  178.5410  140.5460 C   0  0  0  0  0  3  0  0  0  0  0  0
  187.5770  178.0590  140.2630 C   0  0  0  0  0  0  0  0  0  0  0  0
  188.5510  178.1960  142.4750 N   0  0  0  0  0  2  0  0  0  0  0  0
  189.6480  176.1050  143.0330 C   0  0  0  0  0  1  0  0  0  0  0  0
  188.7890  177.2460  143.5580 C   0  0  2  0  0  0  0  0  0  0  0  0
  187.5680  176.7330  144.0170 O   0  0  0  0  0  1  0  0  0  0  0  0
  189.7070  177.0900  145.9100 C   0  0  0  0  0  0  0  0  0  0  0  0
  191.0890  176.8640  146.1770 N   0  0  0  0  0  0  0  0  0  0  0  0
  191.6430  176.1390  147.3130 C   0  0  0  0  0  1  0  0  0  0  0  0
  190.9780  178.2370  144.3860 C   0  0  0  0  0  0  0  0  0  0  0  0
  191.3770  178.9970  143.4650 O   0  0  0  0  0  0  0  0  0  0  0  0
  191.8730  177.5740  145.2670 N   0  0  0  0  0  2  0  0  0  0  0  0
  188.7450  176.8440  146.7930 C   0  0  0  0  0  2  0  0  0  0  0  0
  189.5300  177.9710  144.7050 C   0  0  1  0  0  3  0  0  0  0  0  0
  190.9270  177.9700  140.1820 C   0  0  0  0  0  2  0  0  0  0  0  0
  192.0900  177.1790  140.5400 N   0  0  0  0  0  2  0  0  0  0  0  0
  192.9970  177.2100  139.4050 C   0  0  0  0  0  2  0  0  0  0  0  0
  192.5390  176.2230  138.3460 C   0  0  0  0  0  2  0  0  0  0  0  0
  193.5250  176.1830  137.1910 C   0  0  0  0  0  2  0  0  0  0  0  0
  194.7250  175.5790  137.5900 O   0  0  0  0  0  0  0  0  0  0  0  0
  194.4470  174.2100  137.5780 C   0  0  0  0  0  2  0  0  0  0  0  0
  195.2970  172.1390  138.6690 O   0  0  0  0  0  0  0  0  0  0  0  0
  195.8800  174.2020  139.4800 O   0  0  0  0  0  1  0  0  0  0  0  0
  195.2410  173.5260  138.6310 C   0  0  0  0  0  0  0  0  0  0  0  0
  183.9290  178.9930  139.8670 C   0  0  1  0  0  3  0  0  0  0  0  0
  181.8150  180.0100  138.9920 C   0  0  2  0  0  3  0  0  0  0  0  0
  183.1700  179.4370  138.6200 C   0  0  1  0  0  3  0  0  0  0  0  0
  181.5650  181.2320  138.1220 C   0  0  0  0  0  2  0  0  0  0  0  0
  182.9520  180.9410  138.6610 C   0  0  1  0  0  3  0  0  0  0  0  0
  183.2150  177.8920  140.6600 C   0  0  2  0  0  3  0  0  0  0  0  0
  182.4690  177.0620  139.8150 O   0  0  0  0  0  1  0  0  0  0  0  0
  181.5820  179.6330  143.5490 N   0  0  0  0  0  0  0  0  0  0  0  0
  181.0850  178.3090  141.7870 N   0  0  0  0  0  0  0  0  0  0  0  0
  180.6270  179.0420  142.9110 C   0  0  0  0  0  3  0  0  0  0  0  0
  182.3680  178.4550  141.7650 C   0  0  0  0  0  0  0  0  0  0  0  0
  182.8360  179.3380  142.8740 C   0  0  2  0  0  3  0  0  0  0  0  0
  184.6040  179.5700  144.5560 C   0  0  1  0  0  3  0  0  0  0  0  0
  185.1050  178.8700  143.4510 O   0  0  0  0  0  0  0  0  0  0  0  0
  183.7730  178.5980  143.8160 C   0  0  2  0  0  3  0  0  0  0  0  0
  184.2450  178.4610  146.7510 O   0  0  0  0  0  1  0  0  0  0  0  0
  186.3630  178.9360  146.0240 O   0  0  0  0  0  0  0  0  0  0  0  0
  185.1260  178.9640  145.8050 C   0  0  0  0  0  0  0  0  0  0  0  0
  1 10  1  0  0  0  0
  2 22  1  6  0  0  0
  2  1  1  0  0  0  0
  3  4  1  0  0  0  0
  4 32  1  0  0  0  0
  4  8  2  0  0  0  0
  5  2  1  0  0  0  0
  6  3  1  0  0  0  0
  6  7  1  0  0  0  0
  7  5  2  0  0  0  0
  7  9  1  0  0  0  0
  9  8  1  0  0  0  0
  9  1  2  0  0  0  0
 10 12  1  0  0  0  0
 12 11  1  6  0  0  0
 12 13  1  0  0  0  0
 14 15  1  0  0  0  0
 14 20  2  0  0  0  0
 15 16  1  0  0  0  0
 17 21  1  0  0  0  0
 17 19  1  0  0  0  0
 18 17  2  0  0  0  0
 19 15  1  0  0  0  0
 21 12  1  6  0  0  0
 21 14  1  0  0  0  0
 22 23  1  0  0  0  0
 24 23  1  0  0  0  0
 25 24  1  0  0  0  0
 26 27  1  0  0  0  0
 26 25  1  0  0  0  0
 28 27  1  0  0  0  0
 28 31  1  0  0  0  0
 31 29  2  0  0  0  0
 31 30  1  0  0  0  0
 32 37  1  6  0  0  0
 33 35  1  6  0  0  0
 34 36  1  0  0  0  0
 34 33  1  0  0  0  0
 34 32  1  1  0  0  0
 36 35  1  6  0  0  0
 36 33  1  0  0  0  0
 37 38  1  6  0  0  0
 37 42  1  0  0  0  0
 40 41  1  0  0  0  0
 41 39  2  0  0  0  0
 42 40  2  0  0  0  0
 43 42  1  6  0  0  0
 43 39  1  0  0  0  0
 43 46  1  0  0  0  0
 44 49  1  1  0  0  0
 45 44  1  0  0  0  0
 46 45  1  6  0  0  0
 46 44  1  0  0  0  0
 49 48  2  0  0  0  0
 49 47  1  0  0  0  0
M  END
>  <MODEL>
1

>  <REMARK>
 VINA RESULT:      -7.7      0.000      0.000
  Name = 
  17 active torsions:
  status: ('A' for Active; 'I' for Inactive)
    1  A    between atoms: C_1  and  C_10
    2  A    between atoms: C_1  and  N_39
    3  A    between atoms: C_4  and  N_7
    4  A    between atoms: N_7  and  C_30
    5  A    between atoms: C_8  and  C_27
    6  A    between atoms: C_10  and  C_25
    7  A    between atoms: C_14  and  C_45
    8  A    between atoms: C_15  and  C_45
    9  A    between atoms: C_19  and  C_44
   10  A    between atoms: C_19  and  C_45
   11  A    between atoms: O_21  and  C_25
   12  A    between atoms: O_21  and  C_43
   13  A    between atoms: C_27  and  N_39
   14  A    between atoms: C_29  and  C_32
   15  A    between atoms: C_30  and  C_49
   16  A    between atoms: C_38  and  C_43
   17  A    between atoms: C_42  and  C_48
                            x       y       z     vdW  Elec       q    Type
                         _______ _______ _______ _____ _____    ______ ____

>  <TORSDO>
F 17

$$$$
=
 OpenBabel11042410463D

 49 55  0  0  1  0  0  0  0  0999 V2000
  185.5400  178.7530  142.5980 C   0  0  0  0  0  0  0  0  0  0  0  0
  185.3550  179.1710  144.0300 C   0  0  1  0  0  3  0  0  0  0  0  0
  181.6150  178.1440  141.4260 C   0  0  0  0  0  2  0  0  0  0  0  0
  182.6860  178.2360  140.3440 C   0  0  0  0  0  0  0  0  0  0  0  0
  183.8950  179.2170  144.1760 N   0  0  0  0  0  0  0  0  0  0  0  0
  181.9210  178.9600  142.7000 C   0  0  0  0  0  2  0  0  0  0  0  0
  183.3680  178.8430  143.0580 C   0  0  0  0  0  0  0  0  0  0  0  0
  183.9860  178.3690  140.6580 C   0  0  0  0  0  3  0  0  0  0  0  0
  184.3550  178.5690  142.0590 C   0  0  0  0  0  0  0  0  0  0  0  0
  186.7550  178.7920  141.8400 N   0  0  0  0  0  2  0  0  0  0  0  0
  187.5610  176.8590  143.0660 C   0  0  0  0  0  1  0  0  0  0  0  0
  187.9100  177.9170  142.0290 C   0  0  2  0  0  0  0  0  0  0  0  0
  189.0050  178.6660  142.4810 O   0  0  0  0  0  1  0  0  0  0  0  0
  187.9440  178.1260  139.5080 C   0  0  0  0  0  0  0  0  0  0  0  0
  189.1330  178.4320  138.7830 N   0  0  0  0  0  0  0  0  0  0  0  0
  189.2180  179.1870  137.5400 C   0  0  0  0  0  1  0  0  0  0  0  0
  189.7270  177.0560  140.4750 C   0  0  0  0  0  0  0  0  0  0  0  0
  190.4620  176.3210  141.1840 O   0  0  0  0  0  0  0  0  0  0  0  0
  190.2220  177.7690  139.3510 N   0  0  0  0  0  2  0  0  0  0  0  0
  186.7240  178.3140  139.0190 C   0  0  0  0  0  2  0  0  0  0  0  0
  188.2460  177.2360  140.6820 C   0  0  1  0  0  3  0  0  0  0  0  0
  185.9400  178.1390  144.9810 C   0  0  0  0  0  2  0  0  0  0  0  0
  185.3100  178.2660  146.2830 N   0  0  0  0  0  2  0  0  0  0  0  0
  186.3730  178.4150  147.2620 C   0  0  0  0  0  2  0  0  0  0  0  0
  187.6650  177.8310  146.7200 C   0  0  0  0  0  2  0  0  0  0  0  0
  188.5320  177.3090  147.8530 C   0  0  0  0  0  2  0  0  0  0  0  0
  189.6390  176.6170  147.3450 O   0  0  0  0  0  0  0  0  0  0  0  0
  189.8500  177.1750  146.0820 C   0  0  0  0  0  2  0  0  0  0  0  0
  191.6440  177.1940  144.3540 O   0  0  0  0  0  0  0  0  0  0  0  0
  192.1210  176.6040  146.5180 O   0  0  0  0  0  1  0  0  0  0  0  0
  191.2630  176.9680  145.6700 C   0  0  0  0  0  0  0  0  0  0  0  0
  182.3170  178.1210  138.8990 C   0  0  1  0  0  3  0  0  0  0  0  0
  181.2500  179.6000  137.1840 C   0  0  2  0  0  3  0  0  0  0  0  0
  182.3770  179.4730  138.1920 C   0  0  1  0  0  3  0  0  0  0  0  0
  180.6980  181.0140  137.2700 C   0  0  0  0  0  2  0  0  0  0  0  0
  181.1310  180.2790  138.5230 C   0  0  1  0  0  3  0  0  0  0  0  0
  183.1550  177.0340  138.2150 C   0  0  2  0  0  3  0  0  0  0  0  0
  183.9290  177.5690  137.1790 O   0  0  0  0  0  1  0  0  0  0  0  0
  181.4390  173.8290  137.3060 N   0  0  0  0  0  0  0  0  0  0  0  0
  181.1060  176.0640  137.2980 N   0  0  0  0  0  0  0  0  0  0  0  0
  180.5970  174.7690  137.0300 C   0  0  0  0  0  3  0  0  0  0  0  0
  182.3090  175.8900  137.7360 C   0  0  0  0  0  0  0  0  0  0  0  0
  182.6560  174.4410  137.8170 C   0  0  2  0  0  3  0  0  0  0  0  0
  184.5950  172.9770  137.4900 C   0  0  1  0  0  3  0  0  0  0  0  0
  185.0310  174.3020  137.6150 O   0  0  0  0  0  0  0  0  0  0  0  0
  183.8290  174.0990  136.9110 C   0  0  2  0  0  3  0  0  0  0  0  0
  184.8140  171.2710  135.6960 O   0  0  0  0  0  0  0  0  0  0  0  0
  186.5890  172.6080  136.2480 O   0  0  0  0  0  1  0  0  0  0  0  0
  185.3890  172.2910  136.4410 C   0  0  0  0  0  0  0  0  0  0  0  0
  1  2  1  0  0  0  0
  2  5  1  0  0  0  0
  2 22  1  1  0  0  0
  3  6  1  0  0  0  0
  4  8  2  0  0  0  0
  4  3  1  0  0  0  0
  6  7  1  0  0  0  0
  7  5  2  0  0  0  0
  8  9  1  0  0  0  0
  9  1  2  0  0  0  0
  9  7  1  0  0  0  0
 10 12  1  0  0  0  0
 10  1  1  0  0  0  0
 12 13  1  0  0  0  0
 12 11  1  1  0  0  0
 14 21  1  0  0  0  0
 15 19  1  0  0  0  0
 15 14  1  0  0  0  0
 16 15  1  0  0  0  0
 17 21  1  0  0  0  0
 17 18  2  0  0  0  0
 19 17  1  0  0  0  0
 20 14  2  0  0  0  0
 21 12  1  1  0  0  0
 22 23  1  0  0  0  0
 23 24  1  0  0  0  0
 25 24  1  0  0  0  0
 25 26  1  0  0  0  0
 27 26  1  0  0  0  0
 28 27  1  0  0  0  0
 29 31  2  0  0  0  0
 31 28  1  0  0  0  0
 31 30  1  0  0  0  0
 32 37  1  6  0  0  0
 32  4  1  0  0  0  0
 33 35  1  6  0  0  0
 33 34  1  0  0  0  0
 33 36  1  0  0  0  0
 34 36  1  0  0  0  0
 34 32  1  1  0  0  0
 36 35  1  6  0  0  0
 37 38  1  6  0  0  0
 40 42  2  0  0  0  0
 41 40  1  0  0  0  0
 41 39  2  0  0  0  0
 42 43  1  0  0  0  0
 42 37  1  0  0  0  0
 43 39  1  6  0  0  0
 44 49  1  6  0  0  0
 44 45  1  0  0  0  0
 46 44  1  0  0  0  0
 46 45  1  1  0  0  0
 46 43  1  0  0  0  0
 47 49  2  0  0  0  0
 48 49  1  0  0  0  0
M  END
>  <MODEL>
2

>  <REMARK>
 VINA RESULT:      -7.4      3.163      7.097
  Name = 
  17 active torsions:
  status: ('A' for Active; 'I' for Inactive)
    1  A    between atoms: C_1  and  C_10
    2  A    between atoms: C_1  and  N_39
    3  A    between atoms: C_4  and  N_7
    4  A    between atoms: N_7  and  C_30
    5  A    between atoms: C_8  and  C_27
    6  A    between atoms: C_10  and  C_25
    7  A    between atoms: C_14  and  C_45
    8  A    between atoms: C_15  and  C_45
    9  A    between atoms: C_19  and  C_44
   10  A    between atoms: C_19  and  C_45
   11  A    between atoms: O_21  and  C_25
   12  A    between atoms: O_21  and  C_43
   13  A    between atoms: C_27  and  N_39
   14  A    between atoms: C_29  and  C_32
   15  A    between atoms: C_30  and  C_49
   16  A    between atoms: C_38  and  C_43
   17  A    between atoms: C_42  and  C_48
                            x       y       z     vdW  Elec       q    Type
                         _______ _______ _______ _____ _____    ______ ____

>  <TORSDO>
F 17

$$$$
=
 OpenBabel11042410463D

 49 55  0  0  1  0  0  0  0  0999 V2000
  185.9800  177.5790  137.2470 C   0  0  0  0  0  0  0  0  0  0  0  0
  186.4740  178.0890  135.9230 C   0  0  1  0  0  3  0  0  0  0  0  0
  189.2570  178.3260  139.6680 C   0  0  0  0  0  2  0  0  0  0  0  0
  187.9250  178.0000  140.3350 C   0  0  0  0  0  0  0  0  0  0  0  0
  187.7930  178.6440  136.2520 N   0  0  0  0  0  0  0  0  0  0  0  0
  189.1310  179.0330  138.3010 C   0  0  0  0  0  2  0  0  0  0  0  0
  188.0150  178.4350  137.5070 C   0  0  0  0  0  0  0  0  0  0  0  0
  186.8380  177.6850  139.6100 C   0  0  0  0  0  3  0  0  0  0  0  0
  186.9080  177.7970  138.1530 C   0  0  0  0  0  0  0  0  0  0  0  0
  184.6460  177.1650  137.5670 N   0  0  0  0  0  2  0  0  0  0  0  0
  182.4590  178.1900  137.3440 C   0  0  0  0  0  1  0  0  0  0  0  0
  183.6470  177.9660  138.2690 C   0  0  2  0  0  0  0  0  0  0  0  0
  184.1960  179.2050  138.6260 O   0  0  0  0  0  1  0  0  0  0  0  0
  182.0050  177.8550  140.1900 C   0  0  0  0  0  0  0  0  0  0  0  0
  180.8720  176.9890  140.1760 N   0  0  0  0  0  0  0  0  0  0  0  0
  179.5820  177.2450  140.8030 C   0  0  0  0  0  1  0  0  0  0  0  0
  182.5750  175.8620  139.2090 C   0  0  0  0  0  0  0  0  0  0  0  0
  183.1960  174.9010  138.6860 O   0  0  0  0  0  0  0  0  0  0  0  0
  181.2130  175.7660  139.6000 N   0  0  0  0  0  2  0  0  0  0  0  0
  182.0940  178.9270  140.9680 C   0  0  0  0  0  2  0  0  0  0  0  0
  183.1880  177.2000  139.5300 C   0  0  1  0  0  3  0  0  0  0  0  0
  186.6230  176.9550  134.9220 C   0  0  0  0  0  2  0  0  0  0  0  0
  186.6720  175.6870  135.6290 N   0  0  0  0  0  2  0  0  0  0  0  0
  188.0100  175.1490  135.4530 C   0  0  0  0  0  2  0  0  0  0  0  0
  188.6480  174.8890  136.8050 C   0  0  0  0  0  2  0  0  0  0  0  0
  190.0970  175.3450  136.8090 C   0  0  0  0  0  2  0  0  0  0  0  0
  190.7340  174.9440  137.9910 O   0  0  0  0  0  0  0  0  0  0  0  0
  192.0940  174.9400  137.6710 C   0  0  0  0  0  2  0  0  0  0  0  0
  193.7670  176.7600  137.3690 O   0  0  0  0  0  0  0  0  0  0  0  0
  192.2750  176.8310  139.1080 O   0  0  0  0  0  1  0  0  0  0  0  0
  192.7140  176.2220  138.0960 C   0  0  0  0  0  0  0  0  0  0  0  0
  187.8110  177.9650  141.8260 C   0  0  1  0  0  3  0  0  0  0  0  0
  186.1620  178.5920  143.6030 C   0  0  2  0  0  3  0  0  0  0  0  0
  186.3570  177.8750  142.2790 C   0  0  1  0  0  3  0  0  0  0  0  0
  184.8450  179.3500  143.5390 C   0  0  0  0  0  2  0  0  0  0  0  0
  185.7460  179.2670  142.3220 C   0  0  1  0  0  3  0  0  0  0  0  0
  188.7040  176.8630  142.4080 C   0  0  2  0  0  3  0  0  0  0  0  0
  187.9520  175.9350  143.1370 O   0  0  0  0  0  1  0  0  0  0  0  0
  191.3300  177.8800  144.8800 N   0  0  0  0  0  0  0  0  0  0  0  0
  190.7870  178.1120  142.6990 N   0  0  0  0  0  0  0  0  0  0  0  0
  191.6970  178.3880  143.7500 C   0  0  0  0  0  3  0  0  0  0  0  0
  189.8290  177.4250  143.2290 C   0  0  0  0  0  0  0  0  0  0  0  0
  190.0750  177.1750  144.6800 C   0  0  2  0  0  3  0  0  0  0  0  0
  188.9460  177.1180  146.8550 C   0  0  1  0  0  3  0  0  0  0  0  0
  188.0240  176.8140  145.8470 O   0  0  0  0  0  0  0  0  0  0  0  0
  188.9860  177.7950  145.5420 C   0  0  2  0  0  3  0  0  0  0  0  0
  189.0450  178.4690  148.9390 O   0  0  0  0  0  1  0  0  0  0  0  0
  187.0800  178.2640  147.7820 O   0  0  0  0  0  0  0  0  0  0  0  0
  188.3030  177.9890  147.8700 C   0  0  0  0  0  0  0  0  0  0  0  0
  1 10  1  0  0  0  0
  1  9  2  0  0  0  0
  2 22  1  6  0  0  0
  2  5  1  0  0  0  0
  2  1  1  0  0  0  0
  3  4  1  0  0  0  0
  4 32  1  0  0  0  0
  5  7  2  0  0  0  0
  6  3  1  0  0  0  0
  7  9  1  0  0  0  0
  7  6  1  0  0  0  0
  8  4  2  0  0  0  0
  9  8  1  0  0  0  0
 10 12  1  0  0  0  0
 12 11  1  6  0  0  0
 12 13  1  0  0  0  0
 14 20  2  0  0  0  0
 15 14  1  0  0  0  0
 15 16  1  0  0  0  0
 17 21  1  0  0  0  0
 17 19  1  0  0  0  0
 18 17  2  0  0  0  0
 19 15  1  0  0  0  0
 21 12  1  6  0  0  0
 21 14  1  0  0  0  0
 22 23  1  0  0  0  0
 24 23  1  0  0  0  0
 24 25  1  0  0  0  0
 25 26  1  0  0  0  0
 26 27  1  0  0  0  0
 28 27  1  0  0  0  0
 28 31  1  0  0  0  0
 29 31  2  0  0  0  0
 31 30  1  0  0  0  0
 32 37  1  6  0  0  0
 33 35  1  1  0  0  0
 34 32  1  6  0  0  0
 34 36  1  0  0  0  0
 34 33  1  0  0  0  0
 36 35  1  1  0  0  0
 36 33  1  0  0  0  0
 37 38  1  1  0  0  0
 37 42  1  0  0  0  0
 40 42  2  0  0  0  0
 40 41  1  0  0  0  0
 41 39  2  0  0  0  0
 43 42  1  6  0  0  0
 43 39  1  0  0  0  0
 43 46  1  0  0  0  0
 44 49  1  1  0  0  0
 45 44  1  0  0  0  0
 46 45  1  6  0  0  0
 46 44  1  0  0  0  0
 48 49  2  0  0  0  0
 49 47  1  0  0  0  0
M  END
>  <MODEL>
3

>  <REMARK>
 VINA RESULT:      -7.3      2.299      6.889
  Name = 
  17 active torsions:
  status: ('A' for Active; 'I' for Inactive)
    1  A    between atoms: C_1  and  C_10
    2  A    between atoms: C_1  and  N_39
    3  A    between atoms: C_4  and  N_7
    4  A    between atoms: N_7  and  C_30
    5  A    between atoms: C_8  and  C_27
    6  A    between atoms: C_10  and  C_25
    7  A    between atoms: C_14  and  C_45
    8  A    between atoms: C_15  and  C_45
    9  A    between atoms: C_19  and  C_44
   10  A    between atoms: C_19  and  C_45
   11  A    between atoms: O_21  and  C_25
   12  A    between atoms: O_21  and  C_43
   13  A    between atoms: C_27  and  N_39
   14  A    between atoms: C_29  and  C_32
   15  A    between atoms: C_30  and  C_49
   16  A    between atoms: C_38  and  C_43
   17  A    between atoms: C_42  and  C_48
                            x       y       z     vdW  Elec       q    Type
                         _______ _______ _______ _____ _____    ______ ____

>  <TORSDO>
F 17

$$$$
=
 OpenBabel11042410463D

 49 55  0  0  1  0  0  0  0  0999 V2000
  188.4860  177.9820  139.4100 C   0  0  0  0  0  0  0  0  0  0  0  0
  189.8230  177.7970  138.7480 C   0  0  1  0  0  3  0  0  0  0  0  0
  189.3590  176.8780  143.3050 C   0  0  0  0  0  2  0  0  0  0  0  0
  188.0520  177.6160  143.0400 C   0  0  0  0  0  0  0  0  0  0  0  0
  190.6970  177.4220  139.8670 N   0  0  0  0  0  0  0  0  0  0  0  0
  190.5020  177.2300  142.3290 C   0  0  0  0  0  2  0  0  0  0  0  0
  189.9760  177.3560  140.9350 C   0  0  0  0  0  0  0  0  0  0  0  0
  187.6770  177.9470  141.7920 C   0  0  0  0  0  3  0  0  0  0  0  0
  188.6120  177.7140  140.6920 C   0  0  0  0  0  0  0  0  0  0  0  0
  187.3210  178.5920  138.8420 N   0  0  0  0  0  2  0  0  0  0  0  0
  186.5710  176.4930  137.8840 C   0  0  0  0  0  1  0  0  0  0  0  0
  186.4660  178.0090  137.8100 C   0  0  2  0  0  0  0  0  0  0  0  0
  186.8860  178.4420  136.5460 O   0  0  0  0  0  1  0  0  0  0  0  0
  184.0290  177.3350  137.7860 C   0  0  0  0  0  0  0  0  0  0  0  0
  183.3280  176.9610  138.9700 N   0  0  0  0  0  0  0  0  0  0  0  0
  182.2440  175.9920  139.0640 C   0  0  0  0  0  1  0  0  0  0  0  0
  184.7110  178.6580  139.5300 C   0  0  0  0  0  0  0  0  0  0  0  0
  185.2430  179.5500  140.2400 O   0  0  0  0  0  0  0  0  0  0  0  0
  183.7200  177.7740  140.0330 N   0  0  0  0  0  2  0  0  0  0  0  0
  183.6300  176.9950  136.5660 C   0  0  0  0  0  2  0  0  0  0  0  0
  185.0050  178.4430  138.0680 C   0  0  1  0  0  3  0  0  0  0  0  0
  189.7750  176.6730  137.7260 C   0  0  0  0  0  2  0  0  0  0  0  0
  190.7670  176.9130  136.6940 N   0  0  0  0  0  2  0  0  0  0  0  0
  191.5990  175.7240  136.6130 C   0  0  0  0  0  2  0  0  0  0  0  0
  193.0660  176.1110  136.6610 C   0  0  0  0  0  2  0  0  0  0  0  0
  193.8030  175.2830  137.6990 C   0  0  0  0  0  2  0  0  0  0  0  0
  194.8250  174.5380  137.0960 O   0  0  0  0  0  0  0  0  0  0  0  0
  195.2670  175.3400  136.0420 C   0  0  0  0  0  2  0  0  0  0  0  0
  197.5050  175.5600  137.1120 O   0  0  0  0  0  1  0  0  0  0  0  0
  197.3280  175.0380  134.8860 O   0  0  0  0  0  0  0  0  0  0  0  0
  196.7510  175.3090  135.9730 C   0  0  0  0  0  0  0  0  0  0  0  0
  187.1210  177.9400  144.1650 C   0  0  1  0  0  3  0  0  0  0  0  0
  184.7960  178.6210  144.7950 C   0  0  2  0  0  3  0  0  0  0  0  0
  185.6840  178.1030  143.6780 C   0  0  1  0  0  3  0  0  0  0  0  0
  183.8480  179.6530  144.2030 C   0  0  0  0  0  2  0  0  0  0  0  0
  185.2870  179.5700  143.7330 C   0  0  1  0  0  3  0  0  0  0  0  0
  187.2730  176.9200  145.2990 C   0  0  2  0  0  3  0  0  0  0  0  0
  186.0690  176.2460  145.5370 O   0  0  0  0  0  1  0  0  0  0  0  0
  189.1250  178.5460  148.1210 N   0  0  0  0  0  0  0  0  0  0  0  0
  187.0320  177.9740  147.4920 N   0  0  0  0  0  0  0  0  0  0  0  0
  187.8780  178.5790  148.4550 C   0  0  0  0  0  3  0  0  0  0  0  0
  187.8090  177.5480  146.5530 C   0  0  0  0  0  0  0  0  0  0  0  0
  189.2370  177.8840  146.8310 C   0  0  2  0  0  3  0  0  0  0  0  0
  191.5180  176.9890  146.8750 C   0  0  1  0  0  3  0  0  0  0  0  0
  190.8310  176.4520  145.7790 O   0  0  0  0  0  0  0  0  0  0  0  0
  190.0880  176.6310  146.9610 C   0  0  2  0  0  3  0  0  0  0  0  0
  193.0300  176.1990  148.6830 O   0  0  0  0  0  1  0  0  0  0  0  0
  192.4880  174.8190  146.9380 O   0  0  0  0  0  0  0  0  0  0  0  0
  192.3570  175.9360  147.4980 C   0  0  0  0  0  0  0  0  0  0  0  0
  1  9  2  0  0  0  0
  2 22  1  6  0  0  0
  2  1  1  0  0  0  0
  2  5  1  0  0  0  0
  4  3  1  0  0  0  0
  4 32  1  0  0  0  0
  5  7  2  0  0  0  0
  6  3  1  0  0  0  0
  7  6  1  0  0  0  0
  8  4  2  0  0  0  0
  9  7  1  0  0  0  0
  9  8  1  0  0  0  0
 10  1  1  0  0  0  0
 12 11  1  1  0  0  0
 12 10  1  0  0  0  0
 13 12  1  0  0  0  0
 14 21  1  0  0  0  0
 14 15  1  0  0  0  0
 15 16  1  0  0  0  0
 15 19  1  0  0  0  0
 17 19  1  0  0  0  0
 17 18  2  0  0  0  0
 20 14  2  0  0  0  0
 21 12  1  1  0  0  0
 21 17  1  0  0  0  0
 23 22  1  0  0  0  0
 24 25  1  0  0  0  0
 24 23  1  0  0  0  0
 25 26  1  0  0  0  0
 27 26  1  0  0  0  0
 28 27  1  0  0  0  0
 30 31  2  0  0  0  0
 31 28  1  0  0  0  0
 31 29  1  0  0  0  0
 32 37  1  1  0  0  0
 33 35  1  6  0  0  0
 34 36  1  0  0  0  0
 34 32  1  1  0  0  0
 34 33  1  0  0  0  0
 36 35  1  6  0  0  0
 36 33  1  0  0  0  0
 37 38  1  1  0  0  0
 37 42  1  0  0  0  0
 39 41  2  0  0  0  0
 40 41  1  0  0  0  0
 42 40  2  0  0  0  0
 43 42  1  1  0  0  0
 43 46  1  0  0  0  0
 43 39  1  0  0  0  0
 44 46  1  0  0  0  0
 44 49  1  1  0  0  0
 45 44  1  0  0  0  0
 46 45  1  6  0  0  0
 48 49  2  0  0  0  0
 49 47  1  0  0  0  0
M  END
>  <MODEL>
4

>  <REMARK>
 VINA RESULT:      -7.2      2.505      6.569
  Name = 
  17 active torsions:
  status: ('A' for Active; 'I' for Inactive)
    1  A    between atoms: C_1  and  C_10
    2  A    between atoms: C_1  and  N_39
    3  A    between atoms: C_4  and  N_7
    4  A    between atoms: N_7  and  C_30
    5  A    between atoms: C_8  and  C_27
    6  A    between atoms: C_10  and  C_25
    7  A    between atoms: C_14  and  C_45
    8  A    between atoms: C_15  and  C_45
    9  A    between atoms: C_19  and  C_44
   10  A    between atoms: C_19  and  C_45
   11  A    between atoms: O_21  and  C_25
   12  A    between atoms: O_21  and  C_43
   13  A    between atoms: C_27  and  N_39
   14  A    between atoms: C_29  and  C_32
   15  A    between atoms: C_30  and  C_49
   16  A    between atoms: C_38  and  C_43
   17  A    between atoms: C_42  and  C_48
                            x       y       z     vdW  Elec       q    Type
                         _______ _______ _______ _____ _____    ______ ____

>  <TORSDO>
F 17

$$$$
=
 OpenBabel11042410463D

 49 55  0  0  1  0  0  0  0  0999 V2000
  186.4140  177.7070  137.6720 C   0  0  0  0  0  0  0  0  0  0  0  0
  186.8230  176.7680  136.5710 C   0  0  1  0  0  3  0  0  0  0  0  0
  182.3140  177.8690  137.1020 C   0  0  0  0  0  2  0  0  0  0  0  0
  182.8830  178.4010  138.4130 C   0  0  0  0  0  0  0  0  0  0  0  0
  185.5400  176.3700  135.9800 N   0  0  0  0  0  0  0  0  0  0  0  0
  183.1370  176.7290  136.4640 C   0  0  0  0  0  2  0  0  0  0  0  0
  184.6000  177.0060  136.5950 C   0  0  0  0  0  0  0  0  0  0  0  0
  184.2080  178.4370  138.6360 C   0  0  0  0  0  3  0  0  0  0  0  0
  185.1040  177.8240  137.6560 C   0  0  0  0  0  0  0  0  0  0  0  0
  187.2380  178.2000  138.7340 N   0  0  0  0  0  2  0  0  0  0  0  0
  189.4580  178.7450  137.9210 C   0  0  0  0  0  1  0  0  0  0  0  0
  188.6590  177.9160  138.9170 C   0  0  2  0  0  0  0  0  0  0  0  0
  188.9050  176.5560  138.6910 O   0  0  0  0  0  1  0  0  0  0  0  0
  188.0290  177.8870  141.3670 C   0  0  0  0  0  0  0  0  0  0  0  0
  188.5630  176.9320  142.2810 N   0  0  0  0  0  0  0  0  0  0  0  0
  187.8860  176.3760  143.4440 C   0  0  0  0  0  1  0  0  0  0  0  0
  190.2330  177.5000  140.8690 C   0  0  0  0  0  0  0  0  0  0  0  0
  191.3940  177.5470  140.3850 O   0  0  0  0  0  0  0  0  0  0  0  0
  189.9110  176.7050  142.0000 N   0  0  0  0  0  2  0  0  0  0  0  0
  186.9030  178.5560  141.5880 C   0  0  0  0  0  2  0  0  0  0  0  0
  189.0640  178.3020  140.3580 C   0  0  1  0  0  3  0  0  0  0  0  0
  187.6750  177.4820  135.5340 C   0  0  0  0  0  2  0  0  0  0  0  0
  188.3470  176.5010  134.6990 N   0  0  0  0  0  2  0  0  0  0  0  0
  189.6390  176.2340  135.3070 C   0  0  0  0  0  2  0  0  0  0  0  0
  189.9090  174.7410  135.3200 C   0  0  0  0  0  2  0  0  0  0  0  0
  190.5550  174.3260  136.6310 C   0  0  0  0  0  2  0  0  0  0  0  0
  191.4290  175.3220  137.0850 O   0  0  0  0  0  0  0  0  0  0  0  0
  192.5970  174.6340  137.4240 C   0  0  0  0  0  2  0  0  0  0  0  0
  194.7920  175.1520  138.4810 O   0  0  0  0  0  1  0  0  0  0  0  0
  193.5160  176.8270  137.5720 O   0  0  0  0  0  0  0  0  0  0  0  0
  193.6500  175.6000  137.8310 C   0  0  0  0  0  0  0  0  0  0  0  0
  181.9750  178.9540  139.4650 C   0  0  1  0  0  3  0  0  0  0  0  0
  180.5070  180.9790  139.5820 C   0  0  2  0  0  3  0  0  0  0  0  0
  180.7770  179.6750  138.8530 C   0  0  1  0  0  3  0  0  0  0  0  0
  180.1530  182.0330  138.5450 C   0  0  0  0  0  2  0  0  0  0  0  0
  181.2250  181.0000  138.2580 C   0  0  1  0  0  3  0  0  0  0  0  0
  181.5870  177.8620  140.4690 C   0  0  2  0  0  3  0  0  0  0  0  0
  180.8400  176.8520  139.8530 O   0  0  0  0  0  1  0  0  0  0  0  0
  180.2930  179.6090  143.5210 N   0  0  0  0  0  0  0  0  0  0  0  0
  179.6030  178.2670  141.8400 N   0  0  0  0  0  0  0  0  0  0  0  0
  179.2750  179.0040  143.0050 C   0  0  0  0  0  3  0  0  0  0  0  0
  180.8730  178.4250  141.6630 C   0  0  0  0  0  0  0  0  0  0  0  0
  181.4610  179.3220  142.7020 C   0  0  2  0  0  3  0  0  0  0  0  0
  183.6340  179.5140  143.8180 C   0  0  1  0  0  3  0  0  0  0  0  0
  183.7170  178.5500  142.8060 O   0  0  0  0  0  0  0  0  0  0  0  0
  182.5120  178.5980  143.5300 C   0  0  2  0  0  3  0  0  0  0  0  0
  185.7040  178.6230  144.8680 O   0  0  0  0  0  0  0  0  0  0  0  0
  183.8370  179.0120  146.1340 O   0  0  0  0  0  1  0  0  0  0  0  0
  184.3920  179.0510  145.0070 C   0  0  0  0  0  0  0  0  0  0  0  0
  1 10  1  0  0  0  0
  2 22  1  6  0  0  0
  2  1  1  0  0  0  0
  3  4  1  0  0  0  0
  4  8  2  0  0  0  0
  4 32  1  0  0  0  0
  5  2  1  0  0  0  0
  5  7  2  0  0  0  0
  6  7  1  0  0  0  0
  6  3  1  0  0  0  0
  7  9  1  0  0  0  0
  9  1  2  0  0  0  0
  9  8  1  0  0  0  0
 10 12  1  0  0  0  0
 12 11  1  6  0  0  0
 13 12  1  0  0  0  0
 14 20  2  0  0  0  0
 14 15  1  0  0  0  0
 15 16  1  0  0  0  0
 17 19  1  0  0  0  0
 18 17  2  0  0  0  0
 19 15  1  0  0  0  0
 21 12  1  6  0  0  0
 21 17  1  0  0  0  0
 21 14  1  0  0  0  0
 23 24  1  0  0  0  0
 23 22  1  0  0  0  0
 24 25  1  0  0  0  0
 25 26  1  0  0  0  0
 26 27  1  0  0  0  0
 27 28  1  0  0  0  0
 28 31  1  0  0  0  0
 30 31  2  0  0  0  0
 31 29  1  0  0  0  0
 32 37  1  1  0  0  0
 33 35  1  6  0  0  0
 34 32  1  1  0  0  0
 34 33  1  0  0  0  0
 36 35  1  6  0  0  0
 36 34  1  0  0  0  0
 36 33  1  0  0  0  0
 37 38  1  6  0  0  0
 37 42  1  0  0  0  0
 40 41  1  0  0  0  0
 41 39  2  0  0  0  0
 42 40  2  0  0  0  0
 43 42  1  6  0  0  0
 43 39  1  0  0  0  0
 43 46  1  0  0  0  0
 44 49  1  1  0  0  0
 45 44  1  0  0  0  0
 46 45  1  6  0  0  0
 46 44  1  0  0  0  0
 47 49  2  0  0  0  0
 49 48  1  0  0  0  0
M  END
>  <MODEL>
5

>  <REMARK>
 VINA RESULT:      -7.0      2.192      3.629
  Name = 
  17 active torsions:
  status: ('A' for Active; 'I' for Inactive)
    1  A    between atoms: C_1  and  C_10
    2  A    between atoms: C_1  and  N_39
    3  A    between atoms: C_4  and  N_7
    4  A    between atoms: N_7  and  C_30
    5  A    between atoms: C_8  and  C_27
    6  A    between atoms: C_10  and  C_25
    7  A    between atoms: C_14  and  C_45
    8  A    between atoms: C_15  and  C_45
    9  A    between atoms: C_19  and  C_44
   10  A    between atoms: C_19  and  C_45
   11  A    between atoms: O_21  and  C_25
   12  A    between atoms: O_21  and  C_43
   13  A    between atoms: C_27  and  N_39
   14  A    between atoms: C_29  and  C_32
   15  A    between atoms: C_30  and  C_49
   16  A    between atoms: C_38  and  C_43
   17  A    between atoms: C_42  and  C_48
                            x       y       z     vdW  Elec       q    Type
                         _______ _______ _______ _____ _____    ______ ____

>  <TORSDO>
F 17

$$$$
=
 OpenBabel11042410463D

 49 55  0  0  1  0  0  0  0  0999 V2000
  187.4370  177.9640  139.5550 C   0  0  0  0  0  0  0  0  0  0  0  0
  188.5550  178.4340  140.4440 C   0  0  1  0  0  3  0  0  0  0  0  0
  184.1360  178.7860  141.9170 C   0  0  0  0  0  2  0  0  0  0  0  0
  183.9090  178.4810  140.4400 C   0  0  0  0  0  0  0  0  0  0  0  0
  187.8460  178.9990  141.5990 N   0  0  0  0  0  0  0  0  0  0  0  0
  185.4930  179.4500  142.2320 C   0  0  0  0  0  2  0  0  0  0  0  0
  186.5800  178.8280  141.4150 C   0  0  0  0  0  0  0  0  0  0  0  0
  184.9290  178.1430  139.6320 C   0  0  0  0  0  3  0  0  0  0  0  0
  186.2940  178.2100  140.1550 C   0  0  0  0  0  0  0  0  0  0  0  0
  187.5390  177.5600  138.1840 N   0  0  0  0  0  2  0  0  0  0  0  0
  189.2520  178.9960  137.2410 C   0  0  0  0  0  1  0  0  0  0  0  0
  187.8500  178.4340  137.0560 C   0  0  2  0  0  0  0  0  0  0  0  0
  186.9300  179.4890  137.0030 O   0  0  0  0  0  1  0  0  0  0  0  0
  188.7560  176.4520  135.7700 C   0  0  0  0  0  0  0  0  0  0  0  0
  188.0630  175.2080  135.6970 N   0  0  0  0  0  0  0  0  0  0  0  0
  188.6680  173.8870  135.5980 C   0  0  0  0  0  1  0  0  0  0  0  0
  186.5010  176.8390  135.6070 C   0  0  0  0  0  0  0  0  0  0  0  0
  185.3670  177.3690  135.4820 O   0  0  0  0  0  0  0  0  0  0  0  0
  186.6920  175.4320  135.5770 N   0  0  0  0  0  2  0  0  0  0  0  0
  190.0580  176.5760  135.5390 C   0  0  0  0  0  2  0  0  0  0  0  0
  187.7900  177.6050  135.7520 C   0  0  1  0  0  3  0  0  0  0  0  0
  189.4260  177.2690  140.8870 C   0  0  0  0  0  2  0  0  0  0  0  0
  189.5700  177.2930  142.3320 N   0  0  0  0  0  2  0  0  0  0  0  0
  188.9850  176.0650  142.8430 C   0  0  0  0  0  2  0  0  0  0  0  0
  187.9220  176.3860  143.8770 C   0  0  0  0  0  2  0  0  0  0  0  0
  188.4560  177.3690  144.9050 C   0  0  0  0  0  2  0  0  0  0  0  0
  187.5090  178.3680  145.1650 O   0  0  0  0  0  0  0  0  0  0  0  0
  186.3380  177.6690  145.4680 C   0  0  0  0  0  2  0  0  0  0  0  0
  185.7210  179.3280  147.2210 O   0  0  0  0  0  1  0  0  0  0  0  0
  184.1970  178.7010  145.6270 O   0  0  0  0  0  0  0  0  0  0  0  0
  185.3570  178.5850  146.1060 C   0  0  0  0  0  0  0  0  0  0  0  0
  182.5290  178.4920  139.8660 C   0  0  1  0  0  3  0  0  0  0  0  0
  180.1160  178.9130  140.3860 C   0  0  2  0  0  3  0  0  0  0  0  0
  181.5490  179.2370  140.7680 C   0  0  1  0  0  3  0  0  0  0  0  0
  179.3130  178.7470  141.6670 C   0  0  0  0  0  2  0  0  0  0  0  0
  180.7390  178.2390  141.5810 C   0  0  1  0  0  3  0  0  0  0  0  0
  182.5500  179.0110  138.4240 C   0  0  2  0  0  3  0  0  0  0  0  0
  182.1860  180.3610  138.3660 O   0  0  0  0  0  1  0  0  0  0  0  0
  180.5240  176.4790  136.5450 N   0  0  0  0  0  0  0  0  0  0  0  0
  180.9450  178.6980  136.6050 N   0  0  0  0  0  0  0  0  0  0  0  0
  180.2350  177.6220  136.0170 C   0  0  0  0  0  3  0  0  0  0  0  0
  181.7010  178.1730  137.5120 C   0  0  0  0  0  0  0  0  0  0  0  0
  181.5040  176.6960  137.5980 C   0  0  2  0  0  3  0  0  0  0  0  0
  182.6740  174.5470  137.7420 C   0  0  1  0  0  3  0  0  0  0  0  0
  183.3780  175.5080  138.4770 O   0  0  0  0  0  0  0  0  0  0  0  0
  182.7870  175.9450  137.2780 C   0  0  2  0  0  3  0  0  0  0  0  0
  183.4000  173.3530  135.6860 O   0  0  0  0  0  0  0  0  0  0  0  0
  184.6350  173.2080  137.6090 O   0  0  0  0  0  1  0  0  0  0  0  0
  183.6320  173.6780  137.0150 C   0  0  0  0  0  0  0  0  0  0  0  0
  1  9  2  0  0  0  0
  1  2  1  0  0  0  0
  2 22  1  1  0  0  0
  2  5  1  0  0  0  0
  3  6  1  0  0  0  0
  4  3  1  0  0  0  0
  7  5  2  0  0  0  0
  7  6  1  0  0  0  0
  8  9  1  0  0  0  0
  8  4  2  0  0  0  0
  9  7  1  0  0  0  0
 10  1  1  0  0  0  0
 12 11  1  1  0  0  0
 12 10  1  0  0  0  0
 13 12  1  0  0  0  0
 15 14  1  0  0  0  0
 16 15  1  0  0  0  0
 17 21  1  0  0  0  0
 18 17  2  0  0  0  0
 19 17  1  0  0  0  0
 19 15  1  0  0  0  0
 20 14  2  0  0  0  0
 21 14  1  0  0  0  0
 21 12  1  1  0  0  0
 22 23  1  0  0  0  0
 23 24  1  0  0  0  0
 24 25  1  0  0  0  0
 25 26  1  0  0  0  0
 26 27  1  0  0  0  0
 27 28  1  0  0  0  0
 28 31  1  0  0  0  0
 30 31  2  0  0  0  0
 31 29  1  0  0  0  0
 32 37  1  6  0  0  0
 32  4  1  0  0  0  0
 33 34  1  0  0  0  0
 33 36  1  0  0  0  0
 33 35  1  1  0  0  0
 34 32  1  6  0  0  0
 34 36  1  0  0  0  0
 36 35  1  1  0  0  0
 37 38  1  1  0  0  0
 40 42  2  0  0  0  0
 41 39  2  0  0  0  0
 41 40  1  0  0  0  0
 42 43  1  0  0  0  0
 42 37  1  0  0  0  0
 43 39  1  6  0  0  0
 44 49  1  6  0  0  0
 44 45  1  0  0  0  0
 46 43  1  0  0  0  0
 46 44  1  0  0  0  0
 46 45  1  1  0  0  0
 47 49  2  0  0  0  0
 49 48  1  0  0  0  0
M  END
>  <MODEL>
6

>  <REMARK>
 VINA RESULT:      -6.9      3.657      7.806
  Name = 
  17 active torsions:
  status: ('A' for Active; 'I' for Inactive)
    1  A    between atoms: C_1  and  C_10
    2  A    between atoms: C_1  and  N_39
    3  A    between atoms: C_4  and  N_7
    4  A    between atoms: N_7  and  C_30
    5  A    between atoms: C_8  and  C_27
    6  A    between atoms: C_10  and  C_25
    7  A    between atoms: C_14  and  C_45
    8  A    between atoms: C_15  and  C_45
    9  A    between atoms: C_19  and  C_44
   10  A    between atoms: C_19  and  C_45
   11  A    between atoms: O_21  and  C_25
   12  A    between atoms: O_21  and  C_43
   13  A    between atoms: C_27  and  N_39
   14  A    between atoms: C_29  and  C_32
   15  A    between atoms: C_30  and  C_49
   16  A    between atoms: C_38  and  C_43
   17  A    between atoms: C_42  and  C_48
                            x       y       z     vdW  Elec       q    Type
                         _______ _______ _______ _____ _____    ______ ____

>  <TORSDO>
F 17

$$$$
=
 OpenBabel11042410463D

 49 55  0  0  1  0  0  0  0  0999 V2000
  188.3080  177.9170  140.5160 C   0  0  0  0  0  0  0  0  0  0  0  0
  189.2900  177.0820  139.7430 C   0  0  1  0  0  3  0  0  0  0  0  0
  185.1950  178.2130  137.7990 C   0  0  0  0  0  2  0  0  0  0  0  0
  184.9280  178.6030  139.2480 C   0  0  0  0  0  0  0  0  0  0  0  0
  188.5600  176.7680  138.5080 N   0  0  0  0  0  0  0  0  0  0  0  0
  186.2760  177.1250  137.6180 C   0  0  0  0  0  2  0  0  0  0  0  0
  187.4140  177.3590  138.5590 C   0  0  0  0  0  0  0  0  0  0  0  0
  185.9090  178.5920  140.1670 C   0  0  0  0  0  3  0  0  0  0  0  0
  187.2190  178.0600  139.7910 C   0  0  0  0  0  0  0  0  0  0  0  0
  188.3920  178.2880  141.8970 N   0  0  0  0  0  2  0  0  0  0  0  0
  189.3030  176.1300  142.5280 C   0  0  0  0  0  1  0  0  0  0  0  0
  188.5730  177.3710  143.0190 C   0  0  2  0  0  0  0  0  0  0  0  0
  187.3250  177.0010  143.5370 O   0  0  0  0  0  1  0  0  0  0  0  0
  189.4760  177.2760  145.3800 C   0  0  0  0  0  0  0  0  0  0  0  0
  190.8150  176.8800  145.6700 N   0  0  0  0  0  0  0  0  0  0  0  0
  191.2700  176.1780  146.8620 C   0  0  0  0  0  1  0  0  0  0  0  0
  190.8860  178.1080  143.7740 C   0  0  0  0  0  0  0  0  0  0  0  0
  191.3810  178.7290  142.7980 O   0  0  0  0  0  0  0  0  0  0  0  0
  191.6840  177.3990  144.7100 N   0  0  0  0  0  2  0  0  0  0  0  0
  188.4960  177.2390  146.2750 C   0  0  0  0  0  2  0  0  0  0  0  0
  189.4170  178.0740  144.1070 C   0  0  1  0  0  3  0  0  0  0  0  0
  190.5450  177.8780  139.4170 C   0  0  0  0  0  2  0  0  0  0  0  0
  191.2020  177.2950  138.2610 N   0  0  0  0  0  2  0  0  0  0  0  0
  192.4740  176.7580  138.7160 C   0  0  0  0  0  2  0  0  0  0  0  0
  192.7560  175.4350  138.0280 C   0  0  0  0  0  2  0  0  0  0  0  0
  191.6680  175.1160  137.0160 C   0  0  0  0  0  2  0  0  0  0  0  0
  190.8170  174.1190  137.5100 O   0  0  0  0  0  0  0  0  0  0  0  0
  190.1740  173.6160  136.3770 C   0  0  0  0  0  2  0  0  0  0  0  0
  187.8170  173.6470  137.1810 O   0  0  0  0  0  1  0  0  0  0  0  0
  188.4850  175.0390  135.4860 O   0  0  0  0  0  0  0  0  0  0  0  0
  188.7840  174.1380  136.3140 C   0  0  0  0  0  0  0  0  0  0  0  0
  183.5710  179.0680  139.6710 C   0  0  1  0  0  3  0  0  0  0  0  0
  181.5480  180.3900  139.0160 C   0  0  2  0  0  3  0  0  0  0  0  0
  182.8100  179.7110  138.5150 C   0  0  1  0  0  3  0  0  0  0  0  0
  181.3980  181.7100  138.2760 C   0  0  0  0  0  2  0  0  0  0  0  0
  182.7670  181.2200  138.7050 C   0  0  1  0  0  3  0  0  0  0  0  0
  182.8030  177.9320  140.3550 C   0  0  2  0  0  3  0  0  0  0  0  0
  182.0740  177.1820  139.4240 O   0  0  0  0  0  1  0  0  0  0  0  0
  181.0690  179.5550  143.2540 N   0  0  0  0  0  0  0  0  0  0  0  0
  180.6530  178.2090  141.4880 N   0  0  0  0  0  0  0  0  0  0  0  0
  180.1520  178.9070  142.6150 C   0  0  0  0  0  3  0  0  0  0  0  0
  181.9240  178.4360  141.4640 C   0  0  0  0  0  0  0  0  0  0  0  0
  182.3380  179.3430  142.5750 C   0  0  2  0  0  3  0  0  0  0  0  0
  184.0690  179.6800  144.2770 C   0  0  1  0  0  3  0  0  0  0  0  0
  184.6310  179.0420  143.1650 O   0  0  0  0  0  0  0  0  0  0  0  0
  183.3220  178.6610  143.5130 C   0  0  2  0  0  3  0  0  0  0  0  0
  186.0020  179.0320  145.7000 O   0  0  0  0  0  0  0  0  0  0  0  0
  183.8600  178.6200  146.3960 O   0  0  0  0  0  1  0  0  0  0  0  0
  184.6270  179.0930  145.5200 C   0  0  0  0  0  0  0  0  0  0  0  0
  1 10  1  0  0  0  0
  2 22  1  6  0  0  0
  2  1  1  0  0  0  0
  3  4  1  0  0  0  0
  4 32  1  0  0  0  0
  4  8  2  0  0  0  0
  5  7  2  0  0  0  0
  5  2  1  0  0  0  0
  6  3  1  0  0  0  0
  6  7  1  0  0  0  0
  7  9  1  0  0  0  0
  9  8  1  0  0  0  0
  9  1  2  0  0  0  0
 10 12  1  0  0  0  0
 12 11  1  6  0  0  0
 12 13  1  0  0  0  0
 14 15  1  0  0  0  0
 14 20  2  0  0  0  0
 15 16  1  0  0  0  0
 17 21  1  0  0  0  0
 17 19  1  0  0  0  0
 18 17  2  0  0  0  0
 19 15  1  0  0  0  0
 21 12  1  6  0  0  0
 21 14  1  0  0  0  0
 23 24  1  0  0  0  0
 23 22  1  0  0  0  0
 25 24  1  0  0  0  0
 26 27  1  0  0  0  0
 26 25  1  0  0  0  0
 28 27  1  0  0  0  0
 30 31  2  0  0  0  0
 31 28  1  0  0  0  0
 31 29  1  0  0  0  0
 32 37  1  6  0  0  0
 33 35  1  6  0  0  0
 34 36  1  0  0  0  0
 34 33  1  0  0  0  0
 34 32  1  1  0  0  0
 36 35  1  6  0  0  0
 36 33  1  0  0  0  0
 37 38  1  6  0  0  0
 37 42  1  0  0  0  0
 40 41  1  0  0  0  0
 41 39  2  0  0  0  0
 42 40  2  0  0  0  0
 43 42  1  6  0  0  0
 43 39  1  0  0  0  0
 43 46  1  0  0  0  0
 44 49  1  1  0  0  0
 45 44  1  0  0  0  0
 46 45  1  6  0  0  0
 46 44  1  0  0  0  0
 49 47  2  0  0  0  0
 49 48  1  0  0  0  0
M  END
>  <MODEL>
7

>  <REMARK>
 VINA RESULT:      -6.9      1.835      2.275
  Name = 
  17 active torsions:
  status: ('A' for Active; 'I' for Inactive)
    1  A    between atoms: C_1  and  C_10
    2  A    between atoms: C_1  and  N_39
    3  A    between atoms: C_4  and  N_7
    4  A    between atoms: N_7  and  C_30
    5  A    between atoms: C_8  and  C_27
    6  A    between atoms: C_10  and  C_25
    7  A    between atoms: C_14  and  C_45
    8  A    between atoms: C_15  and  C_45
    9  A    between atoms: C_19  and  C_44
   10  A    between atoms: C_19  and  C_45
   11  A    between atoms: O_21  and  C_25
   12  A    between atoms: O_21  and  C_43
   13  A    between atoms: C_27  and  N_39
   14  A    between atoms: C_29  and  C_32
   15  A    between atoms: C_30  and  C_49
   16  A    between atoms: C_38  and  C_43
   17  A    between atoms: C_42  and  C_48
                            x       y       z     vdW  Elec       q    Type
                         _______ _______ _______ _____ _____    ______ ____

>  <TORSDO>
F 17

$$$$
=
 OpenBabel11042410463D

 49 55  0  0  1  0  0  0  0  0999 V2000
  190.2190  176.8540  140.2580 C   0  0  0  0  0  0  0  0  0  0  0  0
  191.2920  176.6380  139.2280 C   0  0  1  0  0  3  0  0  0  0  0  0
  187.3370  178.8080  138.0150 C   0  0  0  0  0  2  0  0  0  0  0  0
  186.9350  178.2450  139.3740 C   0  0  0  0  0  0  0  0  0  0  0  0
  190.6790  177.1540  137.9970 N   0  0  0  0  0  0  0  0  0  0  0  0
  188.4660  178.0290  137.3080 C   0  0  0  0  0  2  0  0  0  0  0  0
  189.5120  177.6190  138.2940 C   0  0  0  0  0  0  0  0  0  0  0  0
  187.8350  177.6570  140.1800 C   0  0  0  0  0  3  0  0  0  0  0  0
  189.1900  177.4320  139.6760 C   0  0  0  0  0  0  0  0  0  0  0  0
  190.1730  176.3090  141.5820 N   0  0  0  0  0  2  0  0  0  0  0  0
  190.3050  178.4160  142.7780 C   0  0  0  0  0  1  0  0  0  0  0  0
  190.6970  176.9450  142.7880 C   0  0  2  0  0  0  0  0  0  0  0  0
  192.0940  176.8380  142.8140 O   0  0  0  0  0  1  0  0  0  0  0  0
  190.4860  176.9250  145.3080 C   0  0  0  0  0  0  0  0  0  0  0  0
  189.3480  177.4560  145.9840 N   0  0  0  0  0  0  0  0  0  0  0  0
  189.3390  178.0910  147.2950 C   0  0  0  0  0  1  0  0  0  0  0  0
  188.5900  176.4350  144.1150 C   0  0  0  0  0  0  0  0  0  0  0  0
  187.7650  175.9790  143.2820 O   0  0  0  0  0  0  0  0  0  0  0  0
  188.1860  177.1450  145.2770 N   0  0  0  0  0  2  0  0  0  0  0  0
  191.6660  176.7520  145.8940 C   0  0  0  0  0  2  0  0  0  0  0  0
  190.0830  176.2520  144.0260 C   0  0  1  0  0  3  0  0  0  0  0  0
  192.5400  177.4380  139.5630 C   0  0  0  0  0  2  0  0  0  0  0  0
  193.6260  177.0330  138.6880 N   0  0  0  0  0  2  0  0  0  0  0  0
  193.3720  175.6570  138.2980 C   0  0  0  0  0  2  0  0  0  0  0  0
  194.1560  175.3200  137.0430 C   0  0  0  0  0  2  0  0  0  0  0  0
  193.2720  174.6010  136.0370 C   0  0  0  0  0  2  0  0  0  0  0  0
  192.3570  173.7680  136.6960 O   0  0  0  0  0  0  0  0  0  0  0  0
  191.3370  173.5640  135.7630 C   0  0  0  0  0  2  0  0  0  0  0  0
  189.0390  172.6140  135.8910 O   0  0  0  0  0  0  0  0  0  0  0  0
  189.8560  173.9110  137.5960 O   0  0  0  0  0  1  0  0  0  0  0  0
  190.0410  173.3830  136.4670 C   0  0  0  0  0  0  0  0  0  0  0  0
  185.5320  178.3890  139.8710 C   0  0  1  0  0  3  0  0  0  0  0  0
  184.2890  178.7610  142.0120 C   0  0  2  0  0  3  0  0  0  0  0  0
  185.4720  179.1950  141.1660 C   0  0  1  0  0  3  0  0  0  0  0  0
  184.7390  178.7180  143.4640 C   0  0  0  0  0  2  0  0  0  0  0  0
  185.6710  178.2690  142.3550 C   0  0  1  0  0  3  0  0  0  0  0  0
  184.6240  178.9380  138.7650 C   0  0  2  0  0  3  0  0  0  0  0  0
  184.1100  180.1940  139.1090 O   0  0  0  0  0  1  0  0  0  0  0  0
  181.5180  176.9900  137.9880 N   0  0  0  0  0  0  0  0  0  0  0  0
  183.7630  176.8800  137.7620 N   0  0  0  0  0  0  0  0  0  0  0  0
  182.4980  176.2870  137.5260 C   0  0  0  0  0  3  0  0  0  0  0  0
  183.5290  177.9750  138.4060 C   0  0  0  0  0  0  0  0  0  0  0  0
  182.0650  178.1880  138.6060 C   0  0  2  0  0  3  0  0  0  0  0  0
  180.2610  178.4920  140.2370 C   0  0  1  0  0  3  0  0  0  0  0  0
  181.2150  179.5010  140.4090 O   0  0  0  0  0  0  0  0  0  0  0  0
  181.7050  178.2230  140.0830 C   0  0  2  0  0  3  0  0  0  0  0  0
  179.8930  178.8620  142.6670 O   0  0  0  0  0  1  0  0  0  0  0  0
  179.3110  176.8720  141.6960 O   0  0  0  0  0  0  0  0  0  0  0  0
  179.7830  178.0290  141.5630 C   0  0  0  0  0  0  0  0  0  0  0  0
  1 10  1  0  0  0  0
  2 22  1  1  0  0  0
  2  1  1  0  0  0  0
  3  4  1  0  0  0  0
  4 32  1  0  0  0  0
  4  8  2  0  0  0  0
  5  7  2  0  0  0  0
  5  2  1  0  0  0  0
  6  3  1  0  0  0  0
  6  7  1  0  0  0  0
  7  9  1  0  0  0  0
  9  8  1  0  0  0  0
  9  1  2  0  0  0  0
 10 12  1  0  0  0  0
 12 11  1  1  0  0  0
 12 13  1  0  0  0  0
 14 20  2  0  0  0  0
 14 15  1  0  0  0  0
 15 16  1  0  0  0  0
 17 19  1  0  0  0  0
 18 17  2  0  0  0  0
 19 15  1  0  0  0  0
 21 12  1  6  0  0  0
 21 17  1  0  0  0  0
 21 14  1  0  0  0  0
 23 22  1  0  0  0  0
 24 23  1  0  0  0  0
 25 24  1  0  0  0  0
 26 27  1  0  0  0  0
 26 25  1  0  0  0  0
 28 31  1  0  0  0  0
 28 27  1  0  0  0  0
 29 31  2  0  0  0  0
 31 30  1  0  0  0  0
 32 37  1  6  0  0  0
 33 36  1  0  0  0  0
 33 35  1  1  0  0  0
 34 32  1  6  0  0  0
 34 33  1  0  0  0  0
 34 36  1  0  0  0  0
 36 35  1  1  0  0  0
 37 38  1  1  0  0  0
 40 42  2  0  0  0  0
 41 40  1  0  0  0  0
 41 39  2  0  0  0  0
 42 43  1  0  0  0  0
 42 37  1  0  0  0  0
 43 39  1  6  0  0  0
 43 46  1  0  0  0  0
 44 45  1  0  0  0  0
 44 49  1  1  0  0  0
 46 44  1  0  0  0  0
 46 45  1  1  0  0  0
 49 48  2  0  0  0  0
 49 47  1  0  0  0  0
M  END
>  <MODEL>
8

>  <REMARK>
 VINA RESULT:      -6.8      2.530      4.052
  Name = 
  17 active torsions:
  status: ('A' for Active; 'I' for Inactive)
    1  A    between atoms: C_1  and  C_10
    2  A    between atoms: C_1  and  N_39
    3  A    between atoms: C_4  and  N_7
    4  A    between atoms: N_7  and  C_30
    5  A    between atoms: C_8  and  C_27
    6  A    between atoms: C_10  and  C_25
    7  A    between atoms: C_14  and  C_45
    8  A    between atoms: C_15  and  C_45
    9  A    between atoms: C_19  and  C_44
   10  A    between atoms: C_19  and  C_45
   11  A    between atoms: O_21  and  C_25
   12  A    between atoms: O_21  and  C_43
   13  A    between atoms: C_27  and  N_39
   14  A    between atoms: C_29  and  C_32
   15  A    between atoms: C_30  and  C_49
   16  A    between atoms: C_38  and  C_43
   17  A    between atoms: C_42  and  C_48
                            x       y       z     vdW  Elec       q    Type
                         _______ _______ _______ _____ _____    ______ ____

>  <TORSDO>
F 17

$$$$
=
 OpenBabel11042410463D

 49 55  0  0  1  0  0  0  0  0999 V2000
  190.2510  176.8070  140.1650 C   0  0  0  0  0  0  0  0  0  0  0  0
  191.3000  176.5510  139.1180 C   0  0  1  0  0  3  0  0  0  0  0  0
  187.3680  178.7850  137.9450 C   0  0  0  0  0  2  0  0  0  0  0  0
  186.9810  178.2530  139.3210 C   0  0  0  0  0  0  0  0  0  0  0  0
  190.6740  177.0600  137.8910 N   0  0  0  0  0  0  0  0  0  0  0  0
  188.4670  177.9700  137.2300 C   0  0  0  0  0  2  0  0  0  0  0  0
  189.5230  177.5540  138.2030 C   0  0  0  0  0  0  0  0  0  0  0  0
  187.8850  177.6590  140.1190 C   0  0  0  0  0  3  0  0  0  0  0  0
  189.2240  177.3970  139.5940 C   0  0  0  0  0  0  0  0  0  0  0  0
  190.2210  176.2850  141.4990 N   0  0  0  0  0  2  0  0  0  0  0  0
  190.1460  178.4200  142.6490 C   0  0  0  0  0  1  0  0  0  0  0  0
  190.6560  176.9870  142.7030 C   0  0  2  0  0  0  0  0  0  0  0  0
  192.0560  176.9970  142.7680 O   0  0  0  0  0  1  0  0  0  0  0  0
  190.4870  176.9270  145.2260 C   0  0  0  0  0  0  0  0  0  0  0  0
  189.3570  177.4400  145.9280 N   0  0  0  0  0  0  0  0  0  0  0  0
  189.3660  178.0550  147.2480 C   0  0  0  0  0  1  0  0  0  0  0  0
  188.5750  176.4430  144.0570 C   0  0  0  0  0  0  0  0  0  0  0  0
  187.7390  175.9940  143.2300 O   0  0  0  0  0  0  0  0  0  0  0  0
  188.1860  177.1320  145.2360 N   0  0  0  0  0  2  0  0  0  0  0  0
  191.6780  176.7530  145.7890 C   0  0  0  0  0  2  0  0  0  0  0  0
  190.0680  176.2710  143.9400 C   0  0  1  0  0  3  0  0  0  0  0  0
  192.5700  177.3310  139.4160 C   0  0  0  0  0  2  0  0  0  0  0  0
  193.5540  177.0700  138.3800 N   0  0  0  0  0  2  0  0  0  0  0  0
  193.5990  175.6310  138.1840 C   0  0  0  0  0  2  0  0  0  0  0  0
  194.1140  175.3120  136.7920 C   0  0  0  0  0  2  0  0  0  0  0  0
  195.3320  174.4070  136.8680 C   0  0  0  0  0  2  0  0  0  0  0  0
  196.4930  175.1630  137.0800 O   0  0  0  0  0  0  0  0  0  0  0  0
  197.1820  175.0930  135.8670 C   0  0  0  0  0  2  0  0  0  0  0  0
  199.0570  174.3910  137.3490 O   0  0  0  0  0  1  0  0  0  0  0  0
  199.1180  173.9350  135.1030 O   0  0  0  0  0  0  0  0  0  0  0  0
  198.5040  174.4480  136.0770 C   0  0  0  0  0  0  0  0  0  0  0  0
  185.5910  178.4340  139.8420 C   0  0  1  0  0  3  0  0  0  0  0  0
  184.4820  178.7920  142.0590 C   0  0  2  0  0  3  0  0  0  0  0  0
  185.5720  179.2730  141.1180 C   0  0  1  0  0  3  0  0  0  0  0  0
  185.0370  178.8190  143.4740 C   0  0  0  0  0  2  0  0  0  0  0  0
  185.9140  178.3960  142.3120 C   0  0  1  0  0  3  0  0  0  0  0  0
  184.6700  178.9730  138.7410 C   0  0  2  0  0  3  0  0  0  0  0  0
  184.1280  180.2130  139.0970 O   0  0  0  0  0  1  0  0  0  0  0  0
  181.6080  176.9520  137.9770 N   0  0  0  0  0  0  0  0  0  0  0  0
  183.8470  176.9340  137.6710 N   0  0  0  0  0  0  0  0  0  0  0  0
  182.5950  176.3060  137.4500 C   0  0  0  0  0  3  0  0  0  0  0  0
  183.5980  177.9880  138.3740 C   0  0  0  0  0  0  0  0  0  0  0  0
  182.1350  178.1390  138.6330 C   0  0  2  0  0  3  0  0  0  0  0  0
  180.4150  178.4660  140.3480 C   0  0  1  0  0  3  0  0  0  0  0  0
  181.4570  179.3780  140.5570 O   0  0  0  0  0  0  0  0  0  0  0  0
  181.8260  178.0910  140.1210 C   0  0  2  0  0  3  0  0  0  0  0  0
  178.9880  176.9390  141.6940 O   0  0  0  0  0  0  0  0  0  0  0  0
  180.3780  178.4370  142.7260 O   0  0  0  0  0  1  0  0  0  0  0  0
  179.9420  177.9450  141.6550 C   0  0  0  0  0  0  0  0  0  0  0  0
  1 10  1  0  0  0  0
  2 22  1  1  0  0  0
  2  1  1  0  0  0  0
  3  4  1  0  0  0  0
  4 32  1  0  0  0  0
  4  8  2  0  0  0  0
  5  7  2  0  0  0  0
  5  2  1  0  0  0  0
  6  3  1  0  0  0  0
  6  7  1  0  0  0  0
  7  9  1  0  0  0  0
  9  8  1  0  0  0  0
  9  1  2  0  0  0  0
 10 12  1  0  0  0  0
 12 11  1  6  0  0  0
 12 13  1  0  0  0  0
 14 20  2  0  0  0  0
 14 15  1  0  0  0  0
 15 16  1  0  0  0  0
 17 19  1  0  0  0  0
 18 17  2  0  0  0  0
 19 15  1  0  0  0  0
 21 12  1  6  0  0  0
 21 17  1  0  0  0  0
 21 14  1  0  0  0  0
 23 22  1  0  0  0  0
 24 23  1  0  0  0  0
 25 26  1  0  0  0  0
 25 24  1  0  0  0  0
 26 27  1  0  0  0  0
 28 31  1  0  0  0  0
 28 27  1  0  0  0  0
 30 31  2  0  0  0  0
 31 29  1  0  0  0  0
 32 37  1  6  0  0  0
 33 36  1  0  0  0  0
 33 35  1  1  0  0  0
 34 32  1  6  0  0  0
 34 33  1  0  0  0  0
 34 36  1  0  0  0  0
 36 35  1  1  0  0  0
 37 38  1  1  0  0  0
 40 42  2  0  0  0  0
 41 40  1  0  0  0  0
 41 39  2  0  0  0  0
 42 43  1  0  0  0  0
 42 37  1  0  0  0  0
 43 39  1  6  0  0  0
 43 46  1  0  0  0  0
 44 45  1  0  0  0  0
 44 49  1  1  0  0  0
 46 44  1  0  0  0  0
 46 45  1  1  0  0  0
 49 47  2  0  0  0  0
 49 48  1  0  0  0  0
M  END
>  <MODEL>
9

>  <REMARK>
 VINA RESULT:      -6.7      2.370      3.902
  Name = 
  17 active torsions:
  status: ('A' for Active; 'I' for Inactive)
    1  A    between atoms: C_1  and  C_10
    2  A    between atoms: C_1  and  N_39
    3  A    between atoms: C_4  and  N_7
    4  A    between atoms: N_7  and  C_30
    5  A    between atoms: C_8  and  C_27
    6  A    between atoms: C_10  and  C_25
    7  A    between atoms: C_14  and  C_45
    8  A    between atoms: C_15  and  C_45
    9  A    between atoms: C_19  and  C_44
   10  A    between atoms: C_19  and  C_45
   11  A    between atoms: O_21  and  C_25
   12  A    between atoms: O_21  and  C_43
   13  A    between atoms: C_27  and  N_39
   14  A    between atoms: C_29  and  C_32
   15  A    between atoms: C_30  and  C_49
   16  A    between atoms: C_38  and  C_43
   17  A    between atoms: C_42  and  C_48
                            x       y       z     vdW  Elec       q    Type
                         _______ _______ _______ _____ _____    ______ ____

>  <TORSDO>
F 17

$$$$
