=
 OpenBabel11032420193D

 32 34  0  0  1  0  0  0  0  0999 V2000
  186.1170  178.0630  145.5140 C   0  0  0  0  0  0  0  0  0  0  0  0
  188.5020  177.6630  145.3120 C   0  0  0  0  0  0  0  0  0  0  0  0
  187.3650  177.8640  146.1020 C   0  0  0  0  0  3  0  0  0  0  0  0
  183.7370  179.0580  144.3870 C   0  0  0  0  0  0  0  0  0  0  0  0
  185.9920  178.0760  144.1190 C   0  0  0  0  0  0  0  0  0  0  0  0
  183.8800  179.0260  145.6830 N   0  0  0  0  0  0  0  0  0  0  0  0
  187.1210  177.8890  143.3210 C   0  0  0  0  0  3  0  0  0  0  0  0
  190.7790  176.0340  144.3620 C   0  0  0  0  0  2  0  0  0  0  0  0
  190.6010  176.9200  143.1800 C   0  0  0  0  0  0  0  0  0  0  0  0
  190.8460  176.8510  145.6130 C   0  0  0  0  0  0  0  0  0  0  0  0
  188.3790  177.6730  143.8940 C   0  0  0  0  0  0  0  0  0  0  0  0
  184.6460  178.2630  143.4880 C   0  0  0  0  0  2  0  0  0  0  0  0
  189.7860  177.5410  146.0320 C   0  0  0  0  0  3  0  0  0  0  0  0
  189.5010  177.5930  142.9990 N   0  0  0  0  0  0  0  0  0  0  0  0
  191.6370  176.9610  142.1980 N   0  0  0  0  0  2  0  0  0  0  0  0
  184.8880  178.2070  146.3600 C   0  0  0  0  0  2  0  0  0  0  0  0
  192.0060  176.8800  146.3870 O   0  0  0  0  0  0  0  0  0  0  0  0
  192.2290  175.9780  147.4610 C   0  0  0  0  0  1  0  0  0  0  0  0
  181.7650  179.3190  143.1710 O   0  0  0  0  0  1  0  0  0  0  0  0
  182.7050  179.8480  143.7980 N   0  0  0  0  0  2  0  0  0  0  0  0
  191.5430  177.7740  140.9970 C   0  0  0  0  0  2  0  0  0  0  0  0
  191.5650  176.9120  139.8270 N   0  0  0  0  0  2  0  0  0  0  0  0
  190.4640  175.5890  137.7710 S   0  0  0  0  0  0  0  0  0  0  0  0
  190.4150  176.6540  139.0170 C   0  0  0  0  0  0  0  0  0  0  0  0
  189.1790  177.4500  139.2420 C   0  0  0  0  0  2  0  0  0  0  0  0
  189.1370  178.6170  138.2740 C   0  0  0  0  0  2  0  0  0  0  0  0
  187.9940  178.4550  137.2850 C   0  0  0  0  0  2  0  0  0  0  0  0
  186.7900  176.1120  136.5550 S   0  0  0  0  0  1  0  0  0  0  0  0
  186.9780  177.4360  137.7820 C   0  0  2  0  0  3  0  0  0  0  0  0
  185.6560  178.0780  138.0380 C   0  0  0  0  0  0  0  0  0  0  0  0
  185.5810  179.0710  138.8050 O   0  0  0  0  0  1  0  0  0  0  0  0
  184.5060  177.5910  137.4250 O   0  0  0  0  0  0  0  0  0  0  0  0
  1  3  1  0  0  0  0
  1 16  1  0  0  0  0
  2 13  1  0  0  0  0
  2  3  2  0  0  0  0
  4  6  2  0  0  0  0
  5  1  2  0  0  0  0
  6 16  1  0  0  0  0
  7 11  2  0  0  0  0
  7  5  1  0  0  0  0
  8 10  1  0  0  0  0
  9  8  1  0  0  0  0
 10 13  2  0  0  0  0
 10 17  1  0  0  0  0
 11  2  1  0  0  0  0
 12  5  1  0  0  0  0
 12  4  1  0  0  0  0
 14  9  2  0  0  0  0
 14 11  1  0  0  0  0
 15  9  1  0  0  0  0
 17 18  1  0  0  0  0
 19 20  1  0  0  0  0
 20  4  1  0  0  0  0
 21 15  1  0  0  0  0
 22 21  1  0  0  0  0
 23 24  2  0  0  0  0
 24 25  1  0  0  0  0
 24 22  1  0  0  0  0
 26 25  1  0  0  0  0
 27 29  1  0  0  0  0
 27 26  1  0  0  0  0
 29 28  1  6  0  0  0
 29 30  1  0  0  0  0
 30 31  1  0  0  0  0
 32 30  2  0  0  0  0
M  END
>  <MODEL>
1

>  <REMARK>
 VINA RESULT:      -8.4      0.000      0.000
  Name = 
  10 active torsions:
  status: ('A' for Active; 'I' for Inactive)
    1  A    between atoms: C_2  and  C_24
    2  A    between atoms: C_2  and  C_30
    3  A    between atoms: C_5  and  N_23
    4  A    between atoms: O_8  and  C_16
    5  A    between atoms: C_15  and  C_27
    6  A    between atoms: C_22  and  C_24
    7  A    between atoms: C_22  and  C_27
    8  A    between atoms: N_26  and  C_30
    9  A    between atoms: N_26  and  C_31
   10  A    between atoms: N_29  and  C_31
                            x       y       z     vdW  Elec       q    Type
                         _______ _______ _______ _____ _____    ______ ____

>  <TORSDO>
F 10

$$$$
=
 OpenBabel11032420193D

 32 34  0  0  1  0  0  0  0  0999 V2000
  188.6300  177.5380  145.9390 C   0  0  0  0  0  0  0  0  0  0  0  0
  186.9740  177.8760  144.1970 C   0  0  0  0  0  0  0  0  0  0  0  0
  187.3000  177.6650  145.5410 C   0  0  0  0  0  3  0  0  0  0  0  0
  191.2080  176.6800  146.6790 C   0  0  0  0  0  0  0  0  0  0  0  0
  189.6570  177.6070  144.9890 C   0  0  0  0  0  0  0  0  0  0  0  0
  190.2320  176.6350  147.5450 N   0  0  0  0  0  0  0  0  0  0  0  0
  189.3430  177.8050  143.6440 C   0  0  0  0  0  3  0  0  0  0  0  0
  185.8250  179.4870  142.0010 C   0  0  0  0  0  2  0  0  0  0  0  0
  186.8020  178.6750  141.2250 C   0  0  0  0  0  0  0  0  0  0  0  0
  184.9880  178.5980  142.8650 C   0  0  0  0  0  0  0  0  0  0  0  0
  188.0150  177.9500  143.2290 C   0  0  0  0  0  0  0  0  0  0  0  0
  191.0870  177.4980  145.4200 C   0  0  0  0  0  2  0  0  0  0  0  0
  185.5340  177.9180  143.8720 C   0  0  0  0  0  3  0  0  0  0  0  0
  187.7780  178.0470  141.8140 N   0  0  0  0  0  0  0  0  0  0  0  0
  186.6930  178.6590  139.8010 N   0  0  0  0  0  2  0  0  0  0  0  0
  188.9830  177.3830  147.3870 C   0  0  0  0  0  2  0  0  0  0  0  0
  183.6120  178.4900  142.6590 O   0  0  0  0  0  0  0  0  0  0  0  0
  182.6610  178.9230  143.6210 C   0  0  0  0  0  1  0  0  0  0  0  0
  192.8800  175.8430  148.0700 O   0  0  0  0  0  1  0  0  0  0  0  0
  192.4130  175.9570  146.9190 N   0  0  0  0  0  2  0  0  0  0  0  0
  187.6170  177.9180  138.9570 C   0  0  0  0  0  2  0  0  0  0  0  0
  187.8080  178.6340  137.7060 N   0  0  0  0  0  2  0  0  0  0  0  0
  187.1990  177.9360  135.1890 S   0  0  0  0  0  0  0  0  0  0  0  0
  188.2000  177.9980  136.4860 C   0  0  0  0  0  0  0  0  0  0  0  0
  189.5020  177.2820  136.4320 C   0  0  0  0  0  2  0  0  0  0  0  0
  189.3070  175.8300  136.8280 C   0  0  0  0  0  2  0  0  0  0  0  0
  190.4170  175.3730  137.7620 C   0  0  0  0  0  2  0  0  0  0  0  0
  193.0260  176.1850  137.7760 S   0  0  0  0  0  1  0  0  0  0  0  0
  191.2940  176.5430  138.1850 C   0  0  2  0  0  3  0  0  0  0  0  0
  191.1660  176.8080  139.6470 C   0  0  0  0  0  0  0  0  0  0  0  0
  190.2880  176.2070  140.3160 O   0  0  0  0  0  1  0  0  0  0  0  0
  192.0180  177.7090  140.2770 O   0  0  0  0  0  0  0  0  0  0  0  0
  1 16  1  0  0  0  0
  2  3  2  0  0  0  0
  3  1  1  0  0  0  0
  4 20  1  0  0  0  0
  4  6  2  0  0  0  0
  5 12  1  0  0  0  0
  5  1  2  0  0  0  0
  7  5  1  0  0  0  0
  8 10  1  0  0  0  0
  9 14  2  0  0  0  0
  9  8  1  0  0  0  0
 10 13  2  0  0  0  0
 11  7  2  0  0  0  0
 11  2  1  0  0  0  0
 12  4  1  0  0  0  0
 13  2  1  0  0  0  0
 14 11  1  0  0  0  0
 15  9  1  0  0  0  0
 16  6  1  0  0  0  0
 17 10  1  0  0  0  0
 17 18  1  0  0  0  0
 20 19  1  0  0  0  0
 21 15  1  0  0  0  0
 22 21  1  0  0  0  0
 23 24  2  0  0  0  0
 24 22  1  0  0  0  0
 25 24  1  0  0  0  0
 25 26  1  0  0  0  0
 26 27  1  0  0  0  0
 27 29  1  0  0  0  0
 29 28  1  1  0  0  0
 29 30  1  0  0  0  0
 30 32  2  0  0  0  0
 30 31  1  0  0  0  0
M  END
>  <MODEL>
2

>  <REMARK>
 VINA RESULT:      -8.2      2.649      6.029
  Name = 
  10 active torsions:
  status: ('A' for Active; 'I' for Inactive)
    1  A    between atoms: C_2  and  C_24
    2  A    between atoms: C_2  and  C_30
    3  A    between atoms: C_5  and  N_23
    4  A    between atoms: O_8  and  C_16
    5  A    between atoms: C_15  and  C_27
    6  A    between atoms: C_22  and  C_24
    7  A    between atoms: C_22  and  C_27
    8  A    between atoms: N_26  and  C_30
    9  A    between atoms: N_26  and  C_31
   10  A    between atoms: N_29  and  C_31
                            x       y       z     vdW  Elec       q    Type
                         _______ _______ _______ _____ _____    ______ ____

>  <TORSDO>
F 10

$$$$
=
 OpenBabel11032420193D

 32 34  0  0  1  0  0  0  0  0999 V2000
  188.7020  177.5080  146.0000 C   0  0  0  0  0  0  0  0  0  0  0  0
  187.1100  177.8030  144.1920 C   0  0  0  0  0  0  0  0  0  0  0  0
  187.3870  177.6270  145.5520 C   0  0  0  0  0  3  0  0  0  0  0  0
  191.2490  176.6660  146.8540 C   0  0  0  0  0  0  0  0  0  0  0  0
  189.7620  177.5510  145.0860 C   0  0  0  0  0  0  0  0  0  0  0  0
  190.2440  176.6450  147.6850 N   0  0  0  0  0  0  0  0  0  0  0  0
  189.4970  177.7150  143.7260 C   0  0  0  0  0  3  0  0  0  0  0  0
  186.0430  179.3580  141.9150 C   0  0  0  0  0  2  0  0  0  0  0  0
  187.0450  178.5260  141.1970 C   0  0  0  0  0  0  0  0  0  0  0  0
  185.1740  178.4930  142.7720 C   0  0  0  0  0  0  0  0  0  0  0  0
  188.1840  177.8510  143.2600 C   0  0  0  0  0  0  0  0  0  0  0  0
  191.1760  177.4510  145.5710 C   0  0  0  0  0  2  0  0  0  0  0  0
  185.6820  177.8390  143.8150 C   0  0  0  0  0  3  0  0  0  0  0  0
  187.9980  177.9110  141.8360 N   0  0  0  0  0  0  0  0  0  0  0  0
  186.9870  178.4720  139.7700 N   0  0  0  0  0  2  0  0  0  0  0  0
  189.0020  177.3900  147.4630 C   0  0  0  0  0  2  0  0  0  0  0  0
  183.8060  178.3820  142.5200 O   0  0  0  0  0  0  0  0  0  0  0  0
  182.8250  178.9710  143.3610 C   0  0  0  0  0  1  0  0  0  0  0  0
  192.9230  175.9440  148.3070 O   0  0  0  0  0  1  0  0  0  0  0  0
  192.4440  175.9480  147.1550 N   0  0  0  0  0  2  0  0  0  0  0  0
  187.9380  177.7090  138.9790 C   0  0  0  0  0  2  0  0  0  0  0  0
  187.5650  177.7790  137.5760 N   0  0  0  0  0  2  0  0  0  0  0  0
  187.7700  175.8690  135.7050 S   0  0  0  0  0  0  0  0  0  0  0  0
  186.9600  176.6950  136.8660 C   0  0  0  0  0  0  0  0  0  0  0  0
  185.5270  176.3820  137.1120 C   0  0  0  0  0  2  0  0  0  0  0  0
  184.6520  177.4280  136.4480 C   0  0  0  0  0  2  0  0  0  0  0  0
  183.3690  177.6370  137.2380 C   0  0  0  0  0  2  0  0  0  0  0  0
  182.6310  176.6800  139.6890 S   0  0  0  0  0  1  0  0  0  0  0  0
  183.6610  177.8180  138.7210 C   0  0  2  0  0  3  0  0  0  0  0  0
  183.4010  179.2230  139.1500 C   0  0  0  0  0  0  0  0  0  0  0  0
  184.3030  180.0900  139.0310 O   0  0  0  0  0  0  0  0  0  0  0  0
  182.1640  179.5810  139.6740 O   0  0  0  0  0  1  0  0  0  0  0  0
  1 16  1  0  0  0  0
  2  3  2  0  0  0  0
  3  1  1  0  0  0  0
  4 20  1  0  0  0  0
  4  6  2  0  0  0  0
  5 12  1  0  0  0  0
  5  1  2  0  0  0  0
  7  5  1  0  0  0  0
  8 10  1  0  0  0  0
  9 14  2  0  0  0  0
  9  8  1  0  0  0  0
 10 13  2  0  0  0  0
 11  7  2  0  0  0  0
 11  2  1  0  0  0  0
 12  4  1  0  0  0  0
 13  2  1  0  0  0  0
 14 11  1  0  0  0  0
 15  9  1  0  0  0  0
 16  6  1  0  0  0  0
 17 10  1  0  0  0  0
 17 18  1  0  0  0  0
 20 19  1  0  0  0  0
 21 15  1  0  0  0  0
 22 21  1  0  0  0  0
 23 24  2  0  0  0  0
 24 25  1  0  0  0  0
 24 22  1  0  0  0  0
 26 25  1  0  0  0  0
 26 27  1  0  0  0  0
 27 29  1  0  0  0  0
 29 30  1  0  0  0  0
 29 28  1  1  0  0  0
 30 32  1  0  0  0  0
 31 30  2  0  0  0  0
M  END
>  <MODEL>
3

>  <REMARK>
 VINA RESULT:      -8.0      2.495      5.739
  Name = 
  10 active torsions:
  status: ('A' for Active; 'I' for Inactive)
    1  A    between atoms: C_2  and  C_24
    2  A    between atoms: C_2  and  C_30
    3  A    between atoms: C_5  and  N_23
    4  A    between atoms: O_8  and  C_16
    5  A    between atoms: C_15  and  C_27
    6  A    between atoms: C_22  and  C_24
    7  A    between atoms: C_22  and  C_27
    8  A    between atoms: N_26  and  C_30
    9  A    between atoms: N_26  and  C_31
   10  A    between atoms: N_29  and  C_31
                            x       y       z     vdW  Elec       q    Type
                         _______ _______ _______ _____ _____    ______ ____

>  <TORSDO>
F 10

$$$$
=
 OpenBabel11032420193D

 32 34  0  0  1  0  0  0  0  0999 V2000
  188.1560  177.6700  146.3750 C   0  0  0  0  0  0  0  0  0  0  0  0
  186.0630  178.0790  145.2160 C   0  0  0  0  0  0  0  0  0  0  0  0
  186.7780  177.8760  146.4020 C   0  0  0  0  0  3  0  0  0  0  0  0
  190.7840  176.6610  146.3190 C   0  0  0  0  0  0  0  0  0  0  0  0
  188.8390  177.6520  145.1530 C   0  0  0  0  0  0  0  0  0  0  0  0
  190.1240  176.6990  147.4440 N   0  0  0  0  0  0  0  0  0  0  0  0
  188.1350  177.8410  143.9630 C   0  0  0  0  0  3  0  0  0  0  0  0
  184.3810  179.7150  143.4170 C   0  0  0  0  0  2  0  0  0  0  0  0
  185.0220  178.8240  142.4120 C   0  0  0  0  0  0  0  0  0  0  0  0
  183.8050  178.9020  144.5330 C   0  0  0  0  0  0  0  0  0  0  0  0
  186.7540  178.0640  143.9720 C   0  0  0  0  0  0  0  0  0  0  0  0
  190.3250  177.4570  145.1260 C   0  0  0  0  0  2  0  0  0  0  0  0
  184.5980  178.2090  145.3490 C   0  0  0  0  0  3  0  0  0  0  0  0
  186.0960  178.1460  142.6960 N   0  0  0  0  0  0  0  0  0  0  0  0
  184.4770  178.7850  141.0930 N   0  0  0  0  0  2  0  0  0  0  0  0
  188.9310  177.5240  147.6490 C   0  0  0  0  0  2  0  0  0  0  0  0
  182.4300  178.8800  144.7650 O   0  0  0  0  0  0  0  0  0  0  0  0
  181.4780  178.8790  143.7100 C   0  0  0  0  0  1  0  0  0  0  0  0
  192.6530  175.5870  147.2050 O   0  0  0  0  0  1  0  0  0  0  0  0
  191.9620  175.8660  146.2050 N   0  0  0  0  0  2  0  0  0  0  0  0
  185.0500  177.9670  140.0360 C   0  0  0  0  0  2  0  0  0  0  0  0
  186.1600  178.6770  139.4240 N   0  0  0  0  0  2  0  0  0  0  0  0
  186.0540  177.5420  136.9960 S   0  0  0  0  0  0  0  0  0  0  0  0
  186.8530  178.2060  138.2640 C   0  0  0  0  0  0  0  0  0  0  0  0
  188.3400  178.2210  138.2560 C   0  0  0  0  0  2  0  0  0  0  0  0
  188.8600  178.3550  139.6760 C   0  0  0  0  0  2  0  0  0  0  0  0
  189.7540  177.1790  140.0350 C   0  0  0  0  0  2  0  0  0  0  0  0
  191.3070  175.8010  138.2580 S   0  0  0  0  0  1  0  0  0  0  0  0
  191.0900  177.2640  139.3100 C   0  0  2  0  0  3  0  0  0  0  0  0
  192.2200  177.3620  140.2780 C   0  0  0  0  0  0  0  0  0  0  0  0
  191.9830  177.4880  141.5060 O   0  0  0  0  0  1  0  0  0  0  0  0
  193.5370  177.3050  139.8320 O   0  0  0  0  0  0  0  0  0  0  0  0
  1  3  1  0  0  0  0
  1 16  1  0  0  0  0
  2 13  1  0  0  0  0
  2  3  2  0  0  0  0
  4  6  2  0  0  0  0
  5  1  2  0  0  0  0
  6 16  1  0  0  0  0
  7 11  2  0  0  0  0
  7  5  1  0  0  0  0
  8 10  1  0  0  0  0
  9 14  2  0  0  0  0
  9  8  1  0  0  0  0
 10 17  1  0  0  0  0
 10 13  2  0  0  0  0
 11  2  1  0  0  0  0
 12  5  1  0  0  0  0
 12  4  1  0  0  0  0
 14 11  1  0  0  0  0
 15  9  1  0  0  0  0
 18 17  1  0  0  0  0
 20  4  1  0  0  0  0
 20 19  1  0  0  0  0
 21 15  1  0  0  0  0
 22 21  1  0  0  0  0
 23 24  2  0  0  0  0
 24 22  1  0  0  0  0
 25 24  1  0  0  0  0
 25 26  1  0  0  0  0
 26 27  1  0  0  0  0
 29 28  1  1  0  0  0
 29 27  1  0  0  0  0
 29 30  1  0  0  0  0
 30 31  1  0  0  0  0
 32 30  2  0  0  0  0
M  END
>  <MODEL>
4

>  <REMARK>
 VINA RESULT:      -8.0      2.667      6.327
  Name = 
  10 active torsions:
  status: ('A' for Active; 'I' for Inactive)
    1  A    between atoms: C_2  and  C_24
    2  A    between atoms: C_2  and  C_30
    3  A    between atoms: C_5  and  N_23
    4  A    between atoms: O_8  and  C_16
    5  A    between atoms: C_15  and  C_27
    6  A    between atoms: C_22  and  C_24
    7  A    between atoms: C_22  and  C_27
    8  A    between atoms: N_26  and  C_30
    9  A    between atoms: N_26  and  C_31
   10  A    between atoms: N_29  and  C_31
                            x       y       z     vdW  Elec       q    Type
                         _______ _______ _______ _____ _____    ______ ____

>  <TORSDO>
F 10

$$$$
=
 OpenBabel11032420193D

 32 34  0  0  1  0  0  0  0  0999 V2000
  188.7920  177.5710  145.0440 C   0  0  0  0  0  0  0  0  0  0  0  0
  189.9450  177.6190  142.9090 C   0  0  0  0  0  0  0  0  0  0  0  0
  189.9740  177.6320  144.3080 C   0  0  0  0  0  3  0  0  0  0  0  0
  186.4510  178.0590  146.5300 C   0  0  0  0  0  0  0  0  0  0  0  0
  187.5570  177.5090  144.3860 C   0  0  0  0  0  0  0  0  0  0  0  0
  187.6160  178.1020  147.1170 N   0  0  0  0  0  0  0  0  0  0  0  0
  187.5150  177.5080  142.9920 C   0  0  0  0  0  3  0  0  0  0  0  0
  190.5780  176.4120  140.2850 C   0  0  0  0  0  2  0  0  0  0  0  0
  189.3760  177.2040  139.9080 C   0  0  0  0  0  0  0  0  0  0  0  0
  191.5510  177.2730  141.0270 C   0  0  0  0  0  0  0  0  0  0  0  0
  188.6920  177.5530  142.2370 C   0  0  0  0  0  0  0  0  0  0  0  0
  186.2890  177.4160  145.1780 C   0  0  0  0  0  2  0  0  0  0  0  0
  191.2460  177.7670  142.2260 C   0  0  0  0  0  3  0  0  0  0  0  0
  188.5500  177.6520  140.8090 N   0  0  0  0  0  0  0  0  0  0  0  0
  189.1010  177.4020  138.5210 N   0  0  0  0  0  2  0  0  0  0  0  0
  188.8270  177.5130  146.5410 C   0  0  0  0  0  2  0  0  0  0  0  0
  192.8110  177.5480  140.4950 O   0  0  0  0  0  0  0  0  0  0  0  0
  193.2240  177.0640  139.2250 C   0  0  0  0  0  1  0  0  0  0  0  0
  184.1950  178.6420  146.6000 O   0  0  0  0  0  1  0  0  0  0  0  0
  185.3050  178.6190  147.1690 N   0  0  0  0  0  2  0  0  0  0  0  0
  187.9370  178.1390  138.0530 C   0  0  0  0  0  2  0  0  0  0  0  0
  186.9170  177.2010  137.6140 N   0  0  0  0  0  2  0  0  0  0  0  0
  186.7750  177.8940  135.0270 S   0  0  0  0  0  0  0  0  0  0  0  0
  186.1170  177.3980  136.4440 C   0  0  0  0  0  0  0  0  0  0  0  0
  184.6400  177.2560  136.5470 C   0  0  0  0  0  2  0  0  0  0  0  0
  184.2660  176.7800  137.9390 C   0  0  0  0  0  2  0  0  0  0  0  0
  183.2230  177.6950  138.5580 C   0  0  0  0  0  2  0  0  0  0  0  0
  182.0910  178.4510  140.9280 S   0  0  0  0  0  1  0  0  0  0  0  0
  183.5950  178.0630  139.9880 C   0  0  2  0  0  3  0  0  0  0  0  0
  184.5240  179.2300  140.0180 C   0  0  0  0  0  0  0  0  0  0  0  0
  185.3150  179.3740  140.9830 O   0  0  0  0  0  1  0  0  0  0  0  0
  184.5260  180.1540  138.9790 O   0  0  0  0  0  0  0  0  0  0  0  0
  1 16  1  0  0  0  0
  2  3  1  0  0  0  0
  3  1  2  0  0  0  0
  4  6  2  0  0  0  0
  4 20  1  0  0  0  0
  5  1  1  0  0  0  0
  5 12  1  0  0  0  0
  7  5  2  0  0  0  0
  8 10  1  0  0  0  0
  9  8  1  0  0  0  0
  9 14  2  0  0  0  0
 10 13  2  0  0  0  0
 11  2  2  0  0  0  0
 11  7  1  0  0  0  0
 12  4  1  0  0  0  0
 13  2  1  0  0  0  0
 14 11  1  0  0  0  0
 15  9  1  0  0  0  0
 16  6  1  0  0  0  0
 17 10  1  0  0  0  0
 18 17  1  0  0  0  0
 19 20  1  0  0  0  0
 21 15  1  0  0  0  0
 22 21  1  0  0  0  0
 23 24  2  0  0  0  0
 24 25  1  0  0  0  0
 24 22  1  0  0  0  0
 25 26  1  0  0  0  0
 26 27  1  0  0  0  0
 27 29  1  0  0  0  0
 29 30  1  0  0  0  0
 29 28  1  1  0  0  0
 30 31  1  0  0  0  0
 32 30  2  0  0  0  0
M  END
>  <MODEL>
5

>  <REMARK>
 VINA RESULT:      -7.9      2.666      4.276
  Name = 
  10 active torsions:
  status: ('A' for Active; 'I' for Inactive)
    1  A    between atoms: C_2  and  C_24
    2  A    between atoms: C_2  and  C_30
    3  A    between atoms: C_5  and  N_23
    4  A    between atoms: O_8  and  C_16
    5  A    between atoms: C_15  and  C_27
    6  A    between atoms: C_22  and  C_24
    7  A    between atoms: C_22  and  C_27
    8  A    between atoms: N_26  and  C_30
    9  A    between atoms: N_26  and  C_31
   10  A    between atoms: N_29  and  C_31
                            x       y       z     vdW  Elec       q    Type
                         _______ _______ _______ _____ _____    ______ ____

>  <TORSDO>
F 10

$$$$
=
 OpenBabel11032420193D

 32 34  0  0  1  0  0  0  0  0999 V2000
  186.1620  178.0460  145.7270 C   0  0  0  0  0  0  0  0  0  0  0  0
  188.5460  177.6270  145.5510 C   0  0  0  0  0  0  0  0  0  0  0  0
  187.4070  177.8650  146.3270 C   0  0  0  0  0  3  0  0  0  0  0  0
  183.7910  179.0050  144.5520 C   0  0  0  0  0  0  0  0  0  0  0  0
  186.0430  178.0030  144.3320 C   0  0  0  0  0  0  0  0  0  0  0  0
  183.9290  179.0250  145.8490 N   0  0  0  0  0  0  0  0  0  0  0  0
  187.1740  177.7780  143.5470 C   0  0  0  0  0  3  0  0  0  0  0  0
  190.8190  175.9510  144.6760 C   0  0  0  0  0  2  0  0  0  0  0  0
  190.6490  176.7880  143.4580 C   0  0  0  0  0  0  0  0  0  0  0  0
  190.8850  176.8180  145.8930 C   0  0  0  0  0  0  0  0  0  0  0  0
  188.4280  177.5800  144.1330 C   0  0  0  0  0  0  0  0  0  0  0  0
  184.7000  178.1700  143.6890 C   0  0  0  0  0  2  0  0  0  0  0  0
  189.8270  177.5290  146.2800 C   0  0  0  0  0  3  0  0  0  0  0  0
  189.5530  177.4590  143.2460 N   0  0  0  0  0  0  0  0  0  0  0  0
  191.6890  176.7850  142.4800 N   0  0  0  0  0  2  0  0  0  0  0  0
  184.9320  178.2300  146.5620 C   0  0  0  0  0  2  0  0  0  0  0  0
  192.0430  176.8730  146.6690 O   0  0  0  0  0  0  0  0  0  0  0  0
  192.3600  175.8820  147.6360 C   0  0  0  0  0  1  0  0  0  0  0  0
  181.8320  179.2260  143.3080 O   0  0  0  0  0  1  0  0  0  0  0  0
  182.7650  179.7750  143.9280 N   0  0  0  0  0  2  0  0  0  0  0  0
  191.6020  177.5490  141.2460 C   0  0  0  0  0  2  0  0  0  0  0  0
  190.9460  176.7480  140.2260 N   0  0  0  0  0  2  0  0  0  0  0  0
  189.0050  178.4040  139.3990 S   0  0  0  0  0  0  0  0  0  0  0  0
  190.1980  177.3090  139.1430 C   0  0  0  0  0  0  0  0  0  0  0  0
  190.4360  176.8050  137.7640 C   0  0  0  0  0  2  0  0  0  0  0  0
  191.8830  176.3710  137.6190 C   0  0  0  0  0  2  0  0  0  0  0  0
  192.2510  176.2100  136.1530 C   0  0  0  0  0  2  0  0  0  0  0  0
  193.5550  174.2010  137.4700 S   0  0  0  0  0  1  0  0  0  0  0  0
  193.4010  175.2270  135.9800 C   0  0  2  0  0  3  0  0  0  0  0  0
  194.6850  175.9420  135.7250 C   0  0  0  0  0  0  0  0  0  0  0  0
  195.6790  175.7220  136.4610 O   0  0  0  0  0  1  0  0  0  0  0  0
  194.7900  176.8450  134.6720 O   0  0  0  0  0  0  0  0  0  0  0  0
  1  3  1  0  0  0  0
  1 16  1  0  0  0  0
  2 13  1  0  0  0  0
  2  3  2  0  0  0  0
  4  6  2  0  0  0  0
  5  1  2  0  0  0  0
  6 16  1  0  0  0  0
  7 11  2  0  0  0  0
  7  5  1  0  0  0  0
  8 10  1  0  0  0  0
  9  8  1  0  0  0  0
 10 13  2  0  0  0  0
 10 17  1  0  0  0  0
 11  2  1  0  0  0  0
 12  5  1  0  0  0  0
 12  4  1  0  0  0  0
 14  9  2  0  0  0  0
 14 11  1  0  0  0  0
 15  9  1  0  0  0  0
 17 18  1  0  0  0  0
 19 20  1  0  0  0  0
 20  4  1  0  0  0  0
 21 15  1  0  0  0  0
 22 21  1  0  0  0  0
 24 23  2  0  0  0  0
 24 22  1  0  0  0  0
 25 24  1  0  0  0  0
 26 25  1  0  0  0  0
 27 26  1  0  0  0  0
 29 27  1  0  0  0  0
 29 28  1  1  0  0  0
 30 29  1  0  0  0  0
 30 31  1  0  0  0  0
 32 30  2  0  0  0  0
M  END
>  <MODEL>
6

>  <REMARK>
 VINA RESULT:      -7.8      3.133      3.875
  Name = 
  10 active torsions:
  status: ('A' for Active; 'I' for Inactive)
    1  A    between atoms: C_2  and  C_24
    2  A    between atoms: C_2  and  C_30
    3  A    between atoms: C_5  and  N_23
    4  A    between atoms: O_8  and  C_16
    5  A    between atoms: C_15  and  C_27
    6  A    between atoms: C_22  and  C_24
    7  A    between atoms: C_22  and  C_27
    8  A    between atoms: N_26  and  C_30
    9  A    between atoms: N_26  and  C_31
   10  A    between atoms: N_29  and  C_31
                            x       y       z     vdW  Elec       q    Type
                         _______ _______ _______ _____ _____    ______ ____

>  <TORSDO>
F 10

$$$$
=
 OpenBabel11032420193D

 32 34  0  0  1  0  0  0  0  0999 V2000
  188.6510  177.4440  145.8390 C   0  0  0  0  0  0  0  0  0  0  0  0
  187.1070  177.7210  143.9870 C   0  0  0  0  0  0  0  0  0  0  0  0
  187.3480  177.5200  145.3510 C   0  0  0  0  0  3  0  0  0  0  0  0
  191.2040  176.6880  146.7550 C   0  0  0  0  0  0  0  0  0  0  0  0
  189.7370  177.5570  144.9610 C   0  0  0  0  0  0  0  0  0  0  0  0
  190.1740  176.6020  147.5510 N   0  0  0  0  0  0  0  0  0  0  0  0
  189.5090  177.7450  143.5980 C   0  0  0  0  0  3  0  0  0  0  0  0
  186.0480  179.2900  141.7160 C   0  0  0  0  0  2  0  0  0  0  0  0
  187.1070  178.5190  141.0100 C   0  0  0  0  0  0  0  0  0  0  0  0
  185.1890  178.3670  142.5220 C   0  0  0  0  0  0  0  0  0  0  0  0
  188.2080  177.8380  143.0930 C   0  0  0  0  0  0  0  0  0  0  0  0
  191.1380  177.5020  145.4900 C   0  0  0  0  0  2  0  0  0  0  0  0
  185.6920  177.7070  143.5640 C   0  0  0  0  0  3  0  0  0  0  0  0
  188.0650  177.9290  141.6650 N   0  0  0  0  0  0  0  0  0  0  0  0
  187.0980  178.5010  139.5820 N   0  0  0  0  0  2  0  0  0  0  0  0
  188.9090  177.3000  147.3080 C   0  0  0  0  0  2  0  0  0  0  0  0
  183.8370  178.2050  142.2210 O   0  0  0  0  0  0  0  0  0  0  0  0
  183.3570  178.1190  140.8860 C   0  0  0  0  0  1  0  0  0  0  0  0
  192.8640  176.0060  148.2420 O   0  0  0  0  0  1  0  0  0  0  0  0
  192.4180  176.0120  147.0770 N   0  0  0  0  0  2  0  0  0  0  0  0
  188.1050  177.8000  138.8030 C   0  0  0  0  0  2  0  0  0  0  0  0
  187.4520  176.9440  137.8270 N   0  0  0  0  0  2  0  0  0  0  0  0
  187.2790  174.4500  136.8550 S   0  0  0  0  0  0  0  0  0  0  0  0
  188.0940  175.8300  137.2000 C   0  0  0  0  0  0  0  0  0  0  0  0
  189.5600  175.8850  136.9580 C   0  0  0  0  0  2  0  0  0  0  0  0
  190.1500  174.4900  137.0540 C   0  0  0  0  0  2  0  0  0  0  0  0
  191.6240  174.5530  137.4230 C   0  0  0  0  0  2  0  0  0  0  0  0
  192.7440  175.0300  134.9760 S   0  0  0  0  0  1  0  0  0  0  0  0
  192.3400  175.6420  136.6370 C   0  0  2  0  0  3  0  0  0  0  0  0
  193.5870  176.0740  137.3320 C   0  0  0  0  0  0  0  0  0  0  0  0
  193.5120  176.6660  138.4380 O   0  0  0  0  0  1  0  0  0  0  0  0
  194.8320  175.8160  136.7690 O   0  0  0  0  0  0  0  0  0  0  0  0
  1 16  1  0  0  0  0
  2  3  2  0  0  0  0
  3  1  1  0  0  0  0
  4 20  1  0  0  0  0
  4  6  2  0  0  0  0
  5 12  1  0  0  0  0
  5  1  2  0  0  0  0
  7  5  1  0  0  0  0
  8 10  1  0  0  0  0
  9 14  2  0  0  0  0
  9  8  1  0  0  0  0
 10 13  2  0  0  0  0
 11  7  2  0  0  0  0
 11  2  1  0  0  0  0
 12  4  1  0  0  0  0
 13  2  1  0  0  0  0
 14 11  1  0  0  0  0
 15  9  1  0  0  0  0
 16  6  1  0  0  0  0
 17 10  1  0  0  0  0
 18 17  1  0  0  0  0
 20 19  1  0  0  0  0
 21 15  1  0  0  0  0
 22 21  1  0  0  0  0
 23 24  2  0  0  0  0
 24 22  1  0  0  0  0
 25 26  1  0  0  0  0
 25 24  1  0  0  0  0
 26 27  1  0  0  0  0
 29 28  1  6  0  0  0
 29 30  1  0  0  0  0
 29 27  1  0  0  0  0
 30 31  1  0  0  0  0
 32 30  2  0  0  0  0
M  END
>  <MODEL>
7

>  <REMARK>
 VINA RESULT:      -7.8      3.386      6.372
  Name = 
  10 active torsions:
  status: ('A' for Active; 'I' for Inactive)
    1  A    between atoms: C_2  and  C_24
    2  A    between atoms: C_2  and  C_30
    3  A    between atoms: C_5  and  N_23
    4  A    between atoms: O_8  and  C_16
    5  A    between atoms: C_15  and  C_27
    6  A    between atoms: C_22  and  C_24
    7  A    between atoms: C_22  and  C_27
    8  A    between atoms: N_26  and  C_30
    9  A    between atoms: N_26  and  C_31
   10  A    between atoms: N_29  and  C_31
                            x       y       z     vdW  Elec       q    Type
                         _______ _______ _______ _____ _____    ______ ____

>  <TORSDO>
F 10

$$$$
=
 OpenBabel11032420193D

 32 34  0  0  1  0  0  0  0  0999 V2000
  182.3570  178.9210  143.4240 C   0  0  0  0  0  0  0  0  0  0  0  0
  184.4660  178.7140  144.6070 C   0  0  0  0  0  0  0  0  0  0  0  0
  183.0940  178.9880  144.6050 C   0  0  0  0  0  3  0  0  0  0  0  0
  180.9830  179.3870  141.0100 C   0  0  0  0  0  0  0  0  0  0  0  0
  182.9900  178.5890  142.2190 C   0  0  0  0  0  0  0  0  0  0  0  0
  180.4170  179.6780  142.1490 N   0  0  0  0  0  0  0  0  0  0  0  0
  184.3600  178.3270  142.2070 C   0  0  0  0  0  3  0  0  0  0  0  0
  186.8210  177.1310  145.4340 C   0  0  0  0  0  2  0  0  0  0  0  0
  187.3370  177.6880  144.1550 C   0  0  0  0  0  0  0  0  0  0  0  0
  186.2540  178.2260  146.2820 C   0  0  0  0  0  0  0  0  0  0  0  0
  185.1120  178.3750  143.3850 C   0  0  0  0  0  0  0  0  0  0  0  0
  182.1920  178.4910  140.9550 C   0  0  0  0  0  2  0  0  0  0  0  0
  185.1660  178.8910  145.8950 C   0  0  0  0  0  3  0  0  0  0  0  0
  186.5330  178.1910  143.2630 N   0  0  0  0  0  0  0  0  0  0  0  0
  188.7370  177.5930  143.8870 N   0  0  0  0  0  2  0  0  0  0  0  0
  180.8750  179.1450  143.4340 C   0  0  0  0  0  2  0  0  0  0  0  0
  186.8290  178.5490  147.5110 O   0  0  0  0  0  0  0  0  0  0  0  0
  187.9460  177.8460  148.0380 C   0  0  0  0  0  1  0  0  0  0  0  0
  181.1170  180.7060  139.0930 O   0  0  0  0  0  1  0  0  0  0  0  0
  180.4570  179.9110  139.7930 N   0  0  0  0  0  2  0  0  0  0  0  0
  189.3300  178.0840  142.6530 C   0  0  0  0  0  2  0  0  0  0  0  0
  189.1740  177.0840  141.6110 N   0  0  0  0  0  2  0  0  0  0  0  0
  190.8890  176.7800  139.5710 S   0  0  0  0  0  0  0  0  0  0  0  0
  189.4920  177.3220  140.2360 C   0  0  0  0  0  0  0  0  0  0  0  0
  188.5850  178.1750  139.4230 C   0  0  0  0  0  2  0  0  0  0  0  0
  188.3060  177.5040  138.0910 C   0  0  0  0  0  2  0  0  0  0  0  0
  187.1890  178.2210  137.3500 C   0  0  0  0  0  2  0  0  0  0  0  0
  185.4650  177.0710  135.5690 S   0  0  0  0  0  1  0  0  0  0  0  0
  185.9290  177.3690  137.2980 C   0  0  2  0  0  3  0  0  0  0  0  0
  184.8030  178.0320  138.0160 C   0  0  0  0  0  0  0  0  0  0  0  0
  183.6400  177.5670  137.9200 O   0  0  0  0  0  0  0  0  0  0  0  0
  185.0330  179.1580  138.8000 O   0  0  0  0  0  1  0  0  0  0  0  0
  1 16  1  0  0  0  0
  1  3  1  0  0  0  0
  2 13  1  0  0  0  0
  3  2  2  0  0  0  0
  4  6  2  0  0  0  0
  5  1  2  0  0  0  0
  6 16  1  0  0  0  0
  7  5  1  0  0  0  0
  7 11  2  0  0  0  0
  8 10  1  0  0  0  0
  9  8  1  0  0  0  0
 10 17  1  0  0  0  0
 11  2  1  0  0  0  0
 12  4  1  0  0  0  0
 12  5  1  0  0  0  0
 13 10  2  0  0  0  0
 14 11  1  0  0  0  0
 14  9  2  0  0  0  0
 15  9  1  0  0  0  0
 17 18  1  0  0  0  0
 19 20  1  0  0  0  0
 20  4  1  0  0  0  0
 21 15  1  0  0  0  0
 22 21  1  0  0  0  0
 23 24  2  0  0  0  0
 24 22  1  0  0  0  0
 25 24  1  0  0  0  0
 26 25  1  0  0  0  0
 27 26  1  0  0  0  0
 29 28  1  6  0  0  0
 29 27  1  0  0  0  0
 29 30  1  0  0  0  0
 30 32  1  0  0  0  0
 31 30  2  0  0  0  0
M  END
>  <MODEL>
8

>  <REMARK>
 VINA RESULT:      -7.7      2.337      3.580
  Name = 
  10 active torsions:
  status: ('A' for Active; 'I' for Inactive)
    1  A    between atoms: C_2  and  C_24
    2  A    between atoms: C_2  and  C_30
    3  A    between atoms: C_5  and  N_23
    4  A    between atoms: O_8  and  C_16
    5  A    between atoms: C_15  and  C_27
    6  A    between atoms: C_22  and  C_24
    7  A    between atoms: C_22  and  C_27
    8  A    between atoms: N_26  and  C_30
    9  A    between atoms: N_26  and  C_31
   10  A    between atoms: N_29  and  C_31
                            x       y       z     vdW  Elec       q    Type
                         _______ _______ _______ _____ _____    ______ ____

>  <TORSDO>
F 10

$$$$
=
 OpenBabel11032420193D

 32 34  0  0  1  0  0  0  0  0999 V2000
  186.1730  178.0370  145.6890 C   0  0  0  0  0  0  0  0  0  0  0  0
  188.5580  177.6260  145.5080 C   0  0  0  0  0  0  0  0  0  0  0  0
  187.4170  177.8440  146.2870 C   0  0  0  0  0  3  0  0  0  0  0  0
  183.8030  179.0210  144.5300 C   0  0  0  0  0  0  0  0  0  0  0  0
  186.0570  178.0270  144.2930 C   0  0  0  0  0  0  0  0  0  0  0  0
  183.9380  179.0100  145.8280 N   0  0  0  0  0  0  0  0  0  0  0  0
  187.1900  177.8220  143.5050 C   0  0  0  0  0  3  0  0  0  0  0  0
  190.8350  175.9730  144.6000 C   0  0  0  0  0  2  0  0  0  0  0  0
  190.6660  176.8390  143.4020 C   0  0  0  0  0  0  0  0  0  0  0  0
  190.8970  176.8110  145.8370 C   0  0  0  0  0  0  0  0  0  0  0  0
  188.4430  177.6120  144.0900 C   0  0  0  0  0  0  0  0  0  0  0  0
  184.7150  178.2070  143.6510 C   0  0  0  0  0  2  0  0  0  0  0  0
  189.8370  177.5120  146.2380 C   0  0  0  0  0  3  0  0  0  0  0  0
  189.5700  177.5120  143.2020 N   0  0  0  0  0  0  0  0  0  0  0  0
  191.7090  176.8590  142.4260 N   0  0  0  0  0  2  0  0  0  0  0  0
  184.9400  178.2000  146.5250 C   0  0  0  0  0  2  0  0  0  0  0  0
  192.0530  176.8500  146.6170 O   0  0  0  0  0  0  0  0  0  0  0  0
  192.2640  175.9680  147.7110 C   0  0  0  0  0  1  0  0  0  0  0  0
  181.8110  179.2660  143.3450 O   0  0  0  0  0  1  0  0  0  0  0  0
  182.7770  179.8040  143.9220 N   0  0  0  0  0  2  0  0  0  0  0  0
  191.6240  177.6520  141.2100 C   0  0  0  0  0  2  0  0  0  0  0  0
  190.9520  176.8820  140.1770 N   0  0  0  0  0  2  0  0  0  0  0  0
  188.6700  178.2510  139.8440 S   0  0  0  0  0  0  0  0  0  0  0  0
  189.9790  177.4370  139.2860 C   0  0  0  0  0  0  0  0  0  0  0  0
  190.1030  177.1750  137.8280 C   0  0  0  0  0  2  0  0  0  0  0  0
  189.6540  175.7590  137.5210 C   0  0  0  0  0  2  0  0  0  0  0  0
  188.2000  175.7380  137.0780 C   0  0  0  0  0  2  0  0  0  0  0  0
  187.1330  175.0890  134.6470 S   0  0  0  0  0  1  0  0  0  0  0  0
  187.9140  174.5360  136.1900 C   0  0  2  0  0  3  0  0  0  0  0  0
  187.0260  173.5570  136.8820 C   0  0  0  0  0  0  0  0  0  0  0  0
  186.0280  173.9660  137.5270 O   0  0  0  0  0  1  0  0  0  0  0  0
  187.2910  172.1930  136.8110 O   0  0  0  0  0  0  0  0  0  0  0  0
  1  3  1  0  0  0  0
  1 16  1  0  0  0  0
  2 13  1  0  0  0  0
  2  3  2  0  0  0  0
  4  6  2  0  0  0  0
  5  1  2  0  0  0  0
  6 16  1  0  0  0  0
  7 11  2  0  0  0  0
  7  5  1  0  0  0  0
  8 10  1  0  0  0  0
  9  8  1  0  0  0  0
 10 13  2  0  0  0  0
 10 17  1  0  0  0  0
 11  2  1  0  0  0  0
 12  5  1  0  0  0  0
 12  4  1  0  0  0  0
 14  9  2  0  0  0  0
 14 11  1  0  0  0  0
 15  9  1  0  0  0  0
 17 18  1  0  0  0  0
 19 20  1  0  0  0  0
 20  4  1  0  0  0  0
 21 15  1  0  0  0  0
 22 21  1  0  0  0  0
 24 23  2  0  0  0  0
 24 22  1  0  0  0  0
 25 24  1  0  0  0  0
 26 25  1  0  0  0  0
 27 26  1  0  0  0  0
 29 28  1  6  0  0  0
 29 30  1  0  0  0  0
 29 27  1  0  0  0  0
 30 31  1  0  0  0  0
 32 30  2  0  0  0  0
M  END
>  <MODEL>
9

>  <REMARK>
 VINA RESULT:      -7.6      1.872      2.105
  Name = 
  10 active torsions:
  status: ('A' for Active; 'I' for Inactive)
    1  A    between atoms: C_2  and  C_24
    2  A    between atoms: C_2  and  C_30
    3  A    between atoms: C_5  and  N_23
    4  A    between atoms: O_8  and  C_16
    5  A    between atoms: C_15  and  C_27
    6  A    between atoms: C_22  and  C_24
    7  A    between atoms: C_22  and  C_27
    8  A    between atoms: N_26  and  C_30
    9  A    between atoms: N_26  and  C_31
   10  A    between atoms: N_29  and  C_31
                            x       y       z     vdW  Elec       q    Type
                         _______ _______ _______ _____ _____    ______ ____

>  <TORSDO>
F 10

$$$$
