=
 OpenBabel11042412213D

 44 46  0  0  1  0  0  0  0  0999 V2000
  186.7780  177.4770  143.4570 C   0  0  2  0  0  3  0  0  0  0  0  0
  187.9800  176.7720  142.8910 C   0  0  0  0  0  3  0  0  0  0  0  0
  188.5800  177.1260  141.7830 C   0  0  0  0  0  0  0  0  0  0  0  0
  189.1820  177.4800  140.6820 C   0  0  0  0  0  0  0  0  0  0  0  0
  188.6170  178.5880  139.8590 C   0  0  0  0  0  1  0  0  0  0  0  0
  190.4340  176.7710  140.2670 C   0  0  2  0  0  3  0  0  0  0  0  0
  191.5640  177.5380  142.2210 O   0  0  0  0  0  1  0  0  0  0  0  0
  192.7860  177.6460  140.2860 O   0  0  0  0  0  0  0  0  0  0  0  0
  191.6290  177.3150  140.9850 C   0  0  0  0  0  0  0  0  0  0  0  0
  190.6140  176.8610  138.8260 N   0  0  0  0  0  2  0  0  0  0  0  0
  190.6570  175.4980  138.3180 C   0  0  0  0  0  2  0  0  0  0  0  0
  192.0080  175.2180  137.6830 C   0  0  0  0  0  2  0  0  0  0  0  0
  192.1230  173.4270  136.3980 C   0  0  0  0  0  1  0  0  0  0  0  0
  191.8400  174.7930  136.3630 O   0  0  0  0  0  0  0  0  0  0  0  0
  186.1270  178.4590  142.4840 C   0  0  0  0  0  2  0  0  0  0  0  0
  184.6480  178.1470  142.3570 C   0  0  1  0  0  3  0  0  0  0  0  0
  183.9560  178.5910  143.5740 C   0  0  0  0  0  0  0  0  0  0  0  0
  183.3920  178.9610  144.5740 C   0  0  0  0  0  3  0  0  0  0  0  0
  184.0840  178.8540  141.1350 C   0  0  0  0  0  2  0  0  0  0  0  0
  181.9880  177.7680  140.3570 C   0  0  0  0  0  2  0  0  0  0  0  0
  183.4800  177.8500  140.1620 C   0  0  1  0  0  3  0  0  0  0  0  0
  183.6160  178.3810  138.7560 C   0  0  2  0  0  3  0  0  0  0  0  0
  182.2820  178.4080  138.1740 N   0  0  0  0  0  2  0  0  0  0  0  0
  181.3770  178.4830  139.2480 N   0  0  0  0  0  2  0  0  0  0  0  0
  186.2190  175.8940  136.4520 C   0  0  2  0  0  3  0  0  0  0  0  0
  186.6330  177.1410  136.8180 C   0  0  0  0  0  0  0  0  0  0  0  0
  187.1970  175.2050  135.7060 N   0  0  0  0  0  0  0  0  0  0  0  0
  185.8130  177.9910  137.5610 C   0  0  0  0  0  3  0  0  0  0  0  0
  184.9560  175.4100  136.7920 C   0  0  0  0  0  3  0  0  0  0  0  0
  188.3590  176.0870  135.5850 C   0  0  0  0  0  3  0  0  0  0  0  0
  184.1080  176.2440  137.5400 C   0  0  0  0  0  3  0  0  0  0  0  0
  187.9980  177.4030  136.3100 C   0  0  0  0  0  3  0  0  0  0  0  0
  184.5300  177.5320  137.9280 C   0  0  0  0  0  0  0  0  0  0  0  0
  187.1680  178.1790  144.7460 C   0  0  0  0  0  2  0  0  0  0  0  0
  186.5650  177.4600  145.9410 C   0  0  0  0  0  2  0  0  0  0  0  0
  186.6210  178.3290  147.1520 C   0  0  0  0  0  0  0  0  0  0  0  0
  185.8420  179.2620  147.2760 O   0  0  0  0  0  0  0  0  0  0  0  0
  187.6620  178.0800  148.1930 C   0  0  0  0  0  2  0  0  0  0  0  0
  188.5430  177.0070  147.7650 N   0  0  0  0  0  2  0  0  0  0  0  0
  189.8960  177.5390  147.7830 C   0  0  0  0  0  2  0  0  0  0  0  0
  190.7070  176.9120  146.6920 C   0  0  0  0  0  0  0  0  0  0  0  0
  190.3140  177.0230  145.4770 N   0  0  0  0  0  2  0  0  0  0  0  0
  192.4810  176.4220  148.2230 O   0  0  0  0  0  1  0  0  0  0  0  0
  191.9170  176.0780  146.9920 C   0  0  0  0  0  2  0  0  0  0  0  0
  1 15  1  6  0  0  0
  1 34  1  0  0  0  0
  2  1  1  0  0  0  0
  3  2  2  0  0  0  0
  4  3  2  0  0  0  0
  5  4  1  0  0  0  0
  6 10  1  6  0  0  0
  6  4  1  0  0  0  0
  6  9  1  0  0  0  0
  8  9  2  0  0  0  0
  9  7  1  0  0  0  0
 11 10  1  0  0  0  0
 12 11  1  0  0  0  0
 14 13  1  0  0  0  0
 14 12  1  0  0  0  0
 16 19  1  6  0  0  0
 16 15  1  0  0  0  0
 16 17  1  0  0  0  0
 17 18  3  0  0  0  0
 21 20  1  0  0  0  0
 21 19  1  1  0  0  0
 22 33  1  6  0  0  0
 22 21  1  0  0  0  0
 23 22  1  0  0  0  0
 23 24  1  0  0  0  0
 24 20  1  0  0  0  0
 25 29  1  6  0  0  0
 25 26  1  0  0  0  0
 26 28  1  0  0  0  0
 27 25  1  0  0  0  0
 28 33  2  0  0  0  0
 29 31  2  0  0  0  0
 30 27  2  0  0  0  0
 30 32  1  0  0  0  0
 31 33  1  0  0  0  0
 32 26  2  0  0  0  0
 34 35  1  0  0  0  0
 35 36  1  0  0  0  0
 36 37  2  0  0  0  0
 36 38  1  0  0  0  0
 39 40  1  0  0  0  0
 39 38  1  0  0  0  0
 41 44  1  0  0  0  0
 41 40  1  0  0  0  0
 42 41  2  0  0  0  0
 44 43  1  0  0  0  0
M  END
>  <MODEL>
1

>  <REMARK>
 VINA RESULT:      -7.2      0.000      0.000
  Name = 
  21 active torsions:
  status: ('A' for Active; 'I' for Inactive)
    1  A    between atoms: C_2  and  C_11
    2  A    between atoms: C_2  and  C_21
    3  A    between atoms: C_3  and  C_7
    4  A    between atoms: C_3  and  O_41
    5  A    between atoms: C_4  and  C_10
    6  A    between atoms: C_7  and  N_35
    7  A    between atoms: C_10  and  C_13
    8  A    between atoms: C_10  and  C_31
    9  A    between atoms: C_11  and  C_13
   10  A    between atoms: N_14  and  C_19
   11  A    between atoms: N_14  and  C_21
   12  A    between atoms: C_17  and  C_32
   13  A    between atoms: C_19  and  C_25
   14  A    between atoms: C_20  and  C_22
   15  A    between atoms: C_20  and  C_24
   16  A    between atoms: C_24  and  C_31
   17  A    between atoms: C_24  and  C_34
   18  A    between atoms: C_25  and  C_30
   19  A    between atoms: C_28  and  C_44
   20  A    between atoms: C_29  and  C_32
   21  A    between atoms: C_32  and  N_35
                            x       y       z     vdW  Elec       q    Type
                         _______ _______ _______ _____ _____    ______ ____

>  <TORSDO>
F 21

$$$$
=
 OpenBabel11042412213D

 44 46  0  0  1  0  0  0  0  0999 V2000
  186.6890  178.0980  141.8800 C   0  0  2  0  0  3  0  0  0  0  0  0
  186.9110  178.3020  140.4060 C   0  0  0  0  0  3  0  0  0  0  0  0
  187.9910  177.9240  139.7710 C   0  0  0  0  0  0  0  0  0  0  0  0
  189.0640  177.5440  139.1360 C   0  0  0  0  0  0  0  0  0  0  0  0
  190.1990  176.9510  139.9000 C   0  0  0  0  0  1  0  0  0  0  0  0
  189.1340  177.7050  137.6490 C   0  0  2  0  0  3  0  0  0  0  0  0
  189.1610  180.0840  137.5010 O   0  0  0  0  0  1  0  0  0  0  0  0
  187.3280  179.0730  136.5690 O   0  0  0  0  0  0  0  0  0  0  0  0
  188.5580  179.0170  137.2170 C   0  0  0  0  0  0  0  0  0  0  0  0
  188.4540  176.6020  136.9860 N   0  0  0  0  0  2  0  0  0  0  0  0
  189.4340  175.9530  136.1280 C   0  0  0  0  0  2  0  0  0  0  0  0
  189.5320  174.4760  136.4690 C   0  0  0  0  0  2  0  0  0  0  0  0
  191.5850  174.5080  137.2790 C   0  0  0  0  0  1  0  0  0  0  0  0
  190.2560  174.3030  137.6520 O   0  0  0  0  0  0  0  0  0  0  0  0
  185.8200  179.1770  142.5260 C   0  0  0  0  0  2  0  0  0  0  0  0
  184.7830  178.5280  143.4230 C   0  0  1  0  0  3  0  0  0  0  0  0
  185.3230  178.4250  144.7850 C   0  0  0  0  0  0  0  0  0  0  0  0
  185.7700  178.3460  145.9030 C   0  0  0  0  0  3  0  0  0  0  0  0
  183.5130  179.3630  143.4140 C   0  0  0  0  0  2  0  0  0  0  0  0
  181.0880  178.8600  143.6240 C   0  0  0  0  0  2  0  0  0  0  0  0
  182.3460  178.5640  142.8490 C   0  0  1  0  0  3  0  0  0  0  0  0
  182.0260  179.0690  141.4640 C   0  0  2  0  0  3  0  0  0  0  0  0
  180.6200  179.4450  141.4560 N   0  0  0  0  0  2  0  0  0  0  0  0
  180.2730  179.7280  142.7890 N   0  0  0  0  0  2  0  0  0  0  0  0
  182.7950  176.0440  138.5430 C   0  0  2  0  0  3  0  0  0  0  0  0
  183.6380  177.1130  138.6410 C   0  0  0  0  0  0  0  0  0  0  0  0
  183.1950  175.1390  137.5390 N   0  0  0  0  0  0  0  0  0  0  0  0
  183.4200  178.1280  139.5720 C   0  0  0  0  0  3  0  0  0  0  0  0
  181.6710  175.9190  139.3590 C   0  0  0  0  0  3  0  0  0  0  0  0
  184.4200  175.6680  136.9350 C   0  0  0  0  0  3  0  0  0  0  0  0
  181.4260  176.9270  140.3070 C   0  0  0  0  0  3  0  0  0  0  0  0
  184.7290  177.0040  137.6460 C   0  0  0  0  0  3  0  0  0  0  0  0
  182.2960  178.0310  140.4190 C   0  0  0  0  0  0  0  0  0  0  0  0
  188.0320  178.0000  142.5820 C   0  0  0  0  0  2  0  0  0  0  0  0
  188.1940  176.6310  143.2210 C   0  0  0  0  0  2  0  0  0  0  0  0
  189.6280  176.2170  143.2040 C   0  0  0  0  0  0  0  0  0  0  0  0
  189.9330  175.0710  142.9130 O   0  0  0  0  0  0  0  0  0  0  0  0
  190.6840  177.2000  143.5870 C   0  0  0  0  0  2  0  0  0  0  0  0
  191.5920  176.6010  144.5500 N   0  0  0  0  0  2  0  0  0  0  0  0
  191.5720  177.4470  145.7320 C   0  0  0  0  0  2  0  0  0  0  0  0
  190.9370  176.7150  146.8730 C   0  0  0  0  0  0  0  0  0  0  0  0
  191.6530  175.9340  147.5930 N   0  0  0  0  0  2  0  0  0  0  0  0
  189.1840  177.6910  148.1790 O   0  0  0  0  0  1  0  0  0  0  0  0
  189.4630  176.8020  147.1390 C   0  0  0  0  0  2  0  0  0  0  0  0
  1  2  1  6  0  0  0
  1 15  1  0  0  0  0
  1 34  1  0  0  0  0
  3  2  2  0  0  0  0
  4  3  2  0  0  0  0
  4  5  1  0  0  0  0
  6 10  1  6  0  0  0
  6  4  1  0  0  0  0
  8  9  2  0  0  0  0
  9  7  1  0  0  0  0
  9  6  1  0  0  0  0
 11 12  1  0  0  0  0
 11 10  1  0  0  0  0
 12 14  1  0  0  0  0
 13 14  1  0  0  0  0
 16 15  1  6  0  0  0
 16 17  1  0  0  0  0
 17 18  3  0  0  0  0
 19 16  1  0  0  0  0
 21 19  1  1  0  0  0
 21 20  1  0  0  0  0
 22 33  1  6  0  0  0
 22 21  1  0  0  0  0
 23 22  1  0  0  0  0
 23 24  1  0  0  0  0
 24 20  1  0  0  0  0
 25 26  1  0  0  0  0
 25 29  1  6  0  0  0
 26 28  1  0  0  0  0
 27 25  1  0  0  0  0
 28 33  2  0  0  0  0
 29 31  2  0  0  0  0
 30 27  2  0  0  0  0
 30 32  1  0  0  0  0
 31 33  1  0  0  0  0
 32 26  2  0  0  0  0
 34 35  1  0  0  0  0
 36 35  1  0  0  0  0
 36 38  1  0  0  0  0
 37 36  2  0  0  0  0
 38 39  1  0  0  0  0
 39 40  1  0  0  0  0
 40 41  1  0  0  0  0
 41 44  1  0  0  0  0
 41 42  2  0  0  0  0
 44 43  1  0  0  0  0
M  END
>  <MODEL>
2

>  <REMARK>
 VINA RESULT:      -6.8      2.172      3.589
  Name = 
  21 active torsions:
  status: ('A' for Active; 'I' for Inactive)
    1  A    between atoms: C_2  and  C_11
    2  A    between atoms: C_2  and  C_21
    3  A    between atoms: C_3  and  C_7
    4  A    between atoms: C_3  and  O_41
    5  A    between atoms: C_4  and  C_10
    6  A    between atoms: C_7  and  N_35
    7  A    between atoms: C_10  and  C_13
    8  A    between atoms: C_10  and  C_31
    9  A    between atoms: C_11  and  C_13
   10  A    between atoms: N_14  and  C_19
   11  A    between atoms: N_14  and  C_21
   12  A    between atoms: C_17  and  C_32
   13  A    between atoms: C_19  and  C_25
   14  A    between atoms: C_20  and  C_22
   15  A    between atoms: C_20  and  C_24
   16  A    between atoms: C_24  and  C_31
   17  A    between atoms: C_24  and  C_34
   18  A    between atoms: C_25  and  C_30
   19  A    between atoms: C_28  and  C_44
   20  A    between atoms: C_29  and  C_32
   21  A    between atoms: C_32  and  N_35
                            x       y       z     vdW  Elec       q    Type
                         _______ _______ _______ _____ _____    ______ ____

>  <TORSDO>
F 21

$$$$
=
 OpenBabel11042412213D

 44 46  0  0  1  0  0  0  0  0999 V2000
  185.1100  178.2210  142.7580 C   0  0  2  0  0  3  0  0  0  0  0  0
  186.4280  178.5170  142.0960 C   0  0  0  0  0  3  0  0  0  0  0  0
  187.4910  177.7630  142.2140 C   0  0  0  0  0  0  0  0  0  0  0  0
  188.5490  177.0100  142.3270 C   0  0  0  0  0  0  0  0  0  0  0  0
  188.5160  175.8250  143.2330 C   0  0  0  0  0  1  0  0  0  0  0  0
  189.7780  177.3460  141.5390 C   0  0  2  0  0  3  0  0  0  0  0  0
  192.0020  177.1150  142.3650 O   0  0  0  0  0  0  0  0  0  0  0  0
  190.7410  178.7230  143.4030 O   0  0  0  0  0  1  0  0  0  0  0  0
  190.9090  177.7340  142.4380 C   0  0  0  0  0  0  0  0  0  0  0  0
  189.4940  178.4050  140.5830 N   0  0  0  0  0  2  0  0  0  0  0  0
  189.5830  177.8140  139.2560 C   0  0  0  0  0  2  0  0  0  0  0  0
  188.1930  177.6170  138.6760 C   0  0  0  0  0  2  0  0  0  0  0  0
  189.0480  179.0330  137.2150 C   0  0  0  0  0  1  0  0  0  0  0  0
  187.8560  178.6980  137.8560 O   0  0  0  0  0  0  0  0  0  0  0  0
  183.9980  177.8550  141.7760 C   0  0  0  0  0  2  0  0  0  0  0  0
  183.8870  178.9260  140.7080 C   0  0  1  0  0  3  0  0  0  0  0  0
  184.1970  178.3350  139.4000 C   0  0  0  0  0  0  0  0  0  0  0  0
  184.4450  177.8500  138.3240 C   0  0  0  0  0  3  0  0  0  0  0  0
  182.4800  179.5030  140.7140 C   0  0  0  0  0  2  0  0  0  0  0  0
  180.9520  179.1590  142.6430 C   0  0  0  0  0  2  0  0  0  0  0  0
  181.5070  178.5430  141.3850 C   0  0  1  0  0  3  0  0  0  0  0  0
  180.2880  178.3830  140.5110 C   0  0  2  0  0  3  0  0  0  0  0  0
  179.1280  178.7250  141.3210 N   0  0  0  0  0  2  0  0  0  0  0  0
  179.5890  179.5720  142.3450 N   0  0  0  0  0  2  0  0  0  0  0  0
  179.9480  174.3700  139.0800 C   0  0  0  0  0  0  0  0  0  0  0  0
  180.8120  175.2300  138.4680 C   0  0  0  0  0  0  0  0  0  0  0  0
  179.9640  173.0890  138.4920 N   0  0  0  0  0  0  0  0  0  0  0  0
  180.9480  176.5510  138.8940 C   0  0  0  0  0  2  0  0  0  0  0  0
  179.1520  174.7690  140.1540 C   0  0  0  0  0  3  0  0  0  0  0  0
  180.9390  173.1190  137.4000 C   0  0  0  0  0  3  0  0  0  0  0  0
  179.2670  176.0950  140.6050 C   0  0  0  0  0  3  0  0  0  0  0  0
  181.5100  174.5540  137.3510 C   0  0  0  0  0  3  0  0  0  0  0  0
  180.1630  176.9880  139.9810 C   0  0  0  0  0  0  0  0  0  0  0  0
  184.7000  179.4070  143.6140 C   0  0  0  0  0  2  0  0  0  0  0  0
  184.2070  178.9320  144.9710 C   0  0  0  0  0  2  0  0  0  0  0  0
  185.3550  178.7500  145.9060 C   0  0  0  0  0  0  0  0  0  0  0  0
  185.6040  179.5980  146.7470 O   0  0  0  0  0  0  0  0  0  0  0  0
  186.2260  177.5430  145.7780 C   0  0  0  0  0  2  0  0  0  0  0  0
  187.2420  177.5540  146.8170 N   0  0  0  0  0  2  0  0  0  0  0  0
  188.5300  177.4600  146.1490 C   0  0  0  0  0  2  0  0  0  0  0  0
  189.6320  177.4520  147.1620 C   0  0  0  0  0  0  0  0  0  0  0  0
  189.4600  178.0570  148.2790 N   0  0  0  0  0  2  0  0  0  0  0  0
  191.8390  176.9660  147.9490 O   0  0  0  0  0  1  0  0  0  0  0  0
  190.9650  176.8330  146.8680 C   0  0  0  0  0  2  0  0  0  0  0  0
  1 15  1  6  0  0  0
  1 34  1  0  0  0  0
  2  3  2  0  0  0  0
  2  1  1  0  0  0  0
  3  4  2  0  0  0  0
  4  5  1  0  0  0  0
  6 10  1  6  0  0  0
  6  4  1  0  0  0  0
  6  9  1  0  0  0  0
  7  9  2  0  0  0  0
  9  8  1  0  0  0  0
 11 10  1  0  0  0  0
 12 11  1  0  0  0  0
 13 14  1  0  0  0  0
 14 12  1  0  0  0  0
 16 17  1  6  0  0  0
 16 19  1  0  0  0  0
 16 15  1  0  0  0  0
 18 17  3  0  0  0  0
 21 19  1  6  0  0  0
 21 20  1  0  0  0  0
 22 33  1  1  0  0  0
 22 23  1  0  0  0  0
 22 21  1  0  0  0  0
 23 24  1  0  0  0  0
 24 20  1  0  0  0  0
 25 29  2  0  0  0  0
 26 28  1  0  0  0  0
 26 25  1  0  0  0  0
 27 25  1  0  0  0  0
 28 33  1  0  0  0  0
 29 31  1  0  0  0  0
 30 27  2  0  0  0  0
 32 30  1  0  0  0  0
 32 26  2  0  0  0  0
 33 31  2  0  0  0  0
 34 35  1  0  0  0  0
 35 36  1  0  0  0  0
 36 37  2  0  0  0  0
 38 36  1  0  0  0  0
 38 39  1  0  0  0  0
 40 39  1  0  0  0  0
 40 41  1  0  0  0  0
 41 42  2  0  0  0  0
 44 41  1  0  0  0  0
 44 43  1  0  0  0  0
M  END
>  <MODEL>
3

>  <REMARK>
 VINA RESULT:      -6.6      2.441      4.129
  Name = 
  21 active torsions:
  status: ('A' for Active; 'I' for Inactive)
    1  A    between atoms: C_2  and  C_11
    2  A    between atoms: C_2  and  C_21
    3  A    between atoms: C_3  and  C_7
    4  A    between atoms: C_3  and  O_41
    5  A    between atoms: C_4  and  C_10
    6  A    between atoms: C_7  and  N_35
    7  A    between atoms: C_10  and  C_13
    8  A    between atoms: C_10  and  C_31
    9  A    between atoms: C_11  and  C_13
   10  A    between atoms: N_14  and  C_19
   11  A    between atoms: N_14  and  C_21
   12  A    between atoms: C_17  and  C_32
   13  A    between atoms: C_19  and  C_25
   14  A    between atoms: C_20  and  C_22
   15  A    between atoms: C_20  and  C_24
   16  A    between atoms: C_24  and  C_31
   17  A    between atoms: C_24  and  C_34
   18  A    between atoms: C_25  and  C_30
   19  A    between atoms: C_28  and  C_44
   20  A    between atoms: C_29  and  C_32
   21  A    between atoms: C_32  and  N_35
                            x       y       z     vdW  Elec       q    Type
                         _______ _______ _______ _____ _____    ______ ____

>  <TORSDO>
F 21

$$$$
=
 OpenBabel11042412213D

 44 46  0  0  1  0  0  0  0  0999 V2000
  186.1180  177.6820  143.8190 C   0  0  2  0  0  3  0  0  0  0  0  0
  187.3690  177.0000  143.3370 C   0  0  0  0  0  3  0  0  0  0  0  0
  187.9300  177.2340  142.1790 C   0  0  0  0  0  0  0  0  0  0  0  0
  188.4930  177.4700  141.0270 C   0  0  0  0  0  0  0  0  0  0  0  0
  187.8330  178.3970  140.0620 C   0  0  0  0  0  1  0  0  0  0  0  0
  189.7950  176.8090  140.6950 C   0  0  2  0  0  3  0  0  0  0  0  0
  190.5210  175.5080  142.5550 O   0  0  0  0  0  1  0  0  0  0  0  0
  191.4440  177.6010  142.4140 O   0  0  0  0  0  0  0  0  0  0  0  0
  190.6210  176.5910  141.9230 C   0  0  0  0  0  0  0  0  0  0  0  0
  190.5280  177.5970  139.7150 N   0  0  0  0  0  2  0  0  0  0  0  0
  191.3670  176.6710  138.9680 C   0  0  0  0  0  2  0  0  0  0  0  0
  191.0360  176.7430  137.4880 C   0  0  0  0  0  2  0  0  0  0  0  0
  189.5700  177.2970  135.9340 C   0  0  0  0  0  1  0  0  0  0  0  0
  189.8410  177.4410  137.2950 O   0  0  0  0  0  0  0  0  0  0  0  0
  185.5910  178.7470  142.8580 C   0  0  0  0  0  2  0  0  0  0  0  0
  184.2620  178.2990  142.2780 C   0  0  1  0  0  3  0  0  0  0  0  0
  183.1820  178.6900  143.1930 C   0  0  0  0  0  0  0  0  0  0  0  0
  182.2940  179.0160  143.9410 C   0  0  0  0  0  3  0  0  0  0  0  0
  184.0640  178.9390  140.9140 C   0  0  0  0  0  2  0  0  0  0  0  0
  181.8010  178.3980  140.0390 C   0  0  0  0  0  2  0  0  0  0  0  0
  183.2600  178.0230  140.0000 C   0  0  1  0  0  3  0  0  0  0  0  0
  183.6480  178.2900  138.5670 C   0  0  2  0  0  3  0  0  0  0  0  0
  182.4270  178.6150  137.8430 N   0  0  0  0  0  2  0  0  0  0  0  0
  181.5110  179.0950  138.7960 N   0  0  0  0  0  2  0  0  0  0  0  0
  185.5870  174.9620  136.7160 C   0  0  2  0  0  3  0  0  0  0  0  0
  184.3900  174.7770  137.3440 C   0  0  0  0  0  0  0  0  0  0  0  0
  186.0850  173.7680  136.1540 N   0  0  0  0  0  0  0  0  0  0  0  0
  183.7270  175.8320  137.9700 C   0  0  0  0  0  3  0  0  0  0  0  0
  186.2120  176.2080  136.6780 C   0  0  0  0  0  3  0  0  0  0  0  0
  185.1120  172.7110  136.4360 C   0  0  0  0  0  3  0  0  0  0  0  0
  185.5670  177.2900  137.3000 C   0  0  0  0  0  3  0  0  0  0  0  0
  183.9710  173.3600  137.2520 C   0  0  0  0  0  3  0  0  0  0  0  0
  184.3250  177.1090  137.9450 C   0  0  0  0  0  0  0  0  0  0  0  0
  186.3680  178.2770  145.1930 C   0  0  0  0  0  2  0  0  0  0  0  0
  187.5750  177.6190  145.8410 C   0  0  0  0  0  2  0  0  0  0  0  0
  187.6240  177.9440  147.2960 C   0  0  0  0  0  0  0  0  0  0  0  0
  186.6430  178.4060  147.8570 O   0  0  0  0  0  0  0  0  0  0  0  0
  188.8950  177.7430  148.0550 C   0  0  0  0  0  2  0  0  0  0  0  0
  189.6960  176.7130  147.4150 N   0  0  0  0  0  2  0  0  0  0  0  0
  191.0480  177.2360  147.3090 C   0  0  0  0  0  2  0  0  0  0  0  0
  192.0380  176.1210  147.4480 C   0  0  0  0  0  0  0  0  0  0  0  0
  192.7530  176.0480  148.5090 N   0  0  0  0  0  2  0  0  0  0  0  0
  191.9990  175.7050  145.0910 O   0  0  0  0  0  1  0  0  0  0  0  0
  192.2810  175.1430  146.3380 C   0  0  0  0  0  2  0  0  0  0  0  0
  1 15  1  6  0  0  0
  1 34  1  0  0  0  0
  2  1  1  0  0  0  0
  3  2  2  0  0  0  0
  4  3  2  0  0  0  0
  5  4  1  0  0  0  0
  6 10  1  6  0  0  0
  6  4  1  0  0  0  0
  6  9  1  0  0  0  0
  9  8  2  0  0  0  0
  9  7  1  0  0  0  0
 11 10  1  0  0  0  0
 12 11  1  0  0  0  0
 13 14  1  0  0  0  0
 14 12  1  0  0  0  0
 16 19  1  6  0  0  0
 16 15  1  0  0  0  0
 16 17  1  0  0  0  0
 17 18  3  0  0  0  0
 21 20  1  0  0  0  0
 21 19  1  1  0  0  0
 22 33  1  6  0  0  0
 22 21  1  0  0  0  0
 23 22  1  0  0  0  0
 23 24  1  0  0  0  0
 24 20  1  0  0  0  0
 25 29  1  1  0  0  0
 25 26  1  0  0  0  0
 26 28  1  0  0  0  0
 27 30  2  0  0  0  0
 27 25  1  0  0  0  0
 29 31  2  0  0  0  0
 30 32  1  0  0  0  0
 31 33  1  0  0  0  0
 32 26  2  0  0  0  0
 33 28  2  0  0  0  0
 34 35  1  0  0  0  0
 35 36  1  0  0  0  0
 36 37  2  0  0  0  0
 36 38  1  0  0  0  0
 39 38  1  0  0  0  0
 40 39  1  0  0  0  0
 40 41  1  0  0  0  0
 41 42  2  0  0  0  0
 43 44  1  0  0  0  0
 44 41  1  0  0  0  0
M  END
>  <MODEL>
4

>  <REMARK>
 VINA RESULT:      -6.6      1.446      2.080
  Name = 
  21 active torsions:
  status: ('A' for Active; 'I' for Inactive)
    1  A    between atoms: C_2  and  C_11
    2  A    between atoms: C_2  and  C_21
    3  A    between atoms: C_3  and  C_7
    4  A    between atoms: C_3  and  O_41
    5  A    between atoms: C_4  and  C_10
    6  A    between atoms: C_7  and  N_35
    7  A    between atoms: C_10  and  C_13
    8  A    between atoms: C_10  and  C_31
    9  A    between atoms: C_11  and  C_13
   10  A    between atoms: N_14  and  C_19
   11  A    between atoms: N_14  and  C_21
   12  A    between atoms: C_17  and  C_32
   13  A    between atoms: C_19  and  C_25
   14  A    between atoms: C_20  and  C_22
   15  A    between atoms: C_20  and  C_24
   16  A    between atoms: C_24  and  C_31
   17  A    between atoms: C_24  and  C_34
   18  A    between atoms: C_25  and  C_30
   19  A    between atoms: C_28  and  C_44
   20  A    between atoms: C_29  and  C_32
   21  A    between atoms: C_32  and  N_35
                            x       y       z     vdW  Elec       q    Type
                         _______ _______ _______ _____ _____    ______ ____

>  <TORSDO>
F 21

$$$$
=
 OpenBabel11042412213D

 44 46  0  0  1  0  0  0  0  0999 V2000
  190.8110  176.7510  139.2420 C   0  0  2  0  0  3  0  0  0  0  0  0
  189.6090  177.2510  138.4890 C   0  0  0  0  0  3  0  0  0  0  0  0
  188.8380  176.4900  137.7550 C   0  0  0  0  0  0  0  0  0  0  0  0
  188.0660  175.7330  137.0270 C   0  0  0  0  0  0  0  0  0  0  0  0
  188.4190  174.2970  136.8300 C   0  0  0  0  0  1  0  0  0  0  0  0
  186.8350  176.3180  136.4070 C   0  0  2  0  0  3  0  0  0  0  0  0
  187.3920  178.4290  135.4490 O   0  0  0  0  0  0  0  0  0  0  0  0
  186.4250  178.5270  137.5240 O   0  0  0  0  0  1  0  0  0  0  0  0
  186.8790  177.8140  136.4190 C   0  0  0  0  0  0  0  0  0  0  0  0
  185.6440  175.8330  137.0870 N   0  0  0  0  0  2  0  0  0  0  0  0
  184.7610  175.2920  136.0640 C   0  0  0  0  0  2  0  0  0  0  0  0
  184.7570  173.7740  136.1260 C   0  0  0  0  0  2  0  0  0  0  0  0
  183.9440  171.9680  137.1000 C   0  0  0  0  0  1  0  0  0  0  0  0
  184.1070  173.3420  137.2850 O   0  0  0  0  0  0  0  0  0  0  0  0
  191.1590  177.5890  140.4720 C   0  0  0  0  0  2  0  0  0  0  0  0
  190.7710  176.8340  141.7290 C   0  0  1  0  0  3  0  0  0  0  0  0
  191.2080  177.6010  142.9040 C   0  0  0  0  0  0  0  0  0  0  0  0
  191.5640  178.2360  143.8650 C   0  0  0  0  0  3  0  0  0  0  0  0
  189.2650  176.6320  141.7540 C   0  0  0  0  0  2  0  0  0  0  0  0
  188.1590  178.7880  141.2010 C   0  0  0  0  0  2  0  0  0  0  0  0
  188.5650  177.8620  142.3180 C   0  0  1  0  0  3  0  0  0  0  0  0
  187.2460  177.4470  142.9210 C   0  0  2  0  0  3  0  0  0  0  0  0
  186.2090  178.2450  142.2820 N   0  0  0  0  0  2  0  0  0  0  0  0
  186.7210  178.6410  141.0330 N   0  0  0  0  0  2  0  0  0  0  0  0
  187.1550  178.1200  147.1410 C   0  0  0  0  0  0  0  0  0  0  0  0
  188.3080  177.6850  146.5560 C   0  0  0  0  0  0  0  0  0  0  0  0
  187.2970  178.2980  148.5320 N   0  0  0  0  0  0  0  0  0  0  0  0
  188.3800  177.4430  145.1840 C   0  0  0  0  0  3  0  0  0  0  0  0
  185.9910  178.3330  146.4020 C   0  0  0  0  0  3  0  0  0  0  0  0
  188.6780  177.9550  148.8800 C   0  0  0  0  0  2  0  0  0  0  0  0
  186.0340  178.0970  145.0180 C   0  0  0  0  0  3  0  0  0  0  0  0
  189.3730  177.5220  147.5700 C   0  0  0  0  0  3  0  0  0  0  0  0
  187.2240  177.6540  144.4040 C   0  0  0  0  0  0  0  0  0  0  0  0
  191.9970  176.6700  138.2960 C   0  0  0  0  0  2  0  0  0  0  0  0
  192.1570  175.2530  137.7700 C   0  0  0  0  0  2  0  0  0  0  0  0
  192.4650  175.2730  136.3110 C   0  0  0  0  0  0  0  0  0  0  0  0
  191.5650  175.1750  135.4910 O   0  0  0  0  0  0  0  0  0  0  0  0
  193.8840  175.3700  135.8570 C   0  0  0  0  0  2  0  0  0  0  0  0
  194.7680  175.4490  137.0080 N   0  0  0  0  0  2  0  0  0  0  0  0
  195.6500  174.2960  136.9420 C   0  0  0  0  0  2  0  0  0  0  0  0
  196.0330  173.8660  138.3240 C   0  0  0  0  0  0  0  0  0  0  0  0
  195.4300  172.8700  138.8600 N   0  0  0  0  0  2  0  0  0  0  0  0
  197.9470  175.3040  138.3150 O   0  0  0  0  0  1  0  0  0  0  0  0
  197.0390  174.6280  139.1340 C   0  0  0  0  0  2  0  0  0  0  0  0
  1 34  1  6  0  0  0
  1 15  1  0  0  0  0
  2  1  1  0  0  0  0
  3  2  2  0  0  0  0
  4  3  2  0  0  0  0
  5  4  1  0  0  0  0
  6  9  1  1  0  0  0
  6  4  1  0  0  0  0
  6 10  1  0  0  0  0
  7  9  2  0  0  0  0
  9  8  1  0  0  0  0
 11 12  1  0  0  0  0
 11 10  1  0  0  0  0
 12 14  1  0  0  0  0
 13 14  1  0  0  0  0
 16 15  1  6  0  0  0
 16 19  1  0  0  0  0
 16 17  1  0  0  0  0
 17 18  3  0  0  0  0
 20 21  1  0  0  0  0
 21 19  1  6  0  0  0
 21 22  1  0  0  0  0
 22 33  1  1  0  0  0
 23 22  1  0  0  0  0
 24 20  1  0  0  0  0
 24 23  1  0  0  0  0
 25 27  2  0  0  0  0
 26 25  1  0  0  0  0
 26 32  2  0  0  0  0
 27 30  1  0  0  0  0
 28 26  1  0  0  0  0
 29 25  1  0  0  0  0
 31 29  2  0  0  0  0
 32 30  1  0  0  0  0
 33 31  1  0  0  0  0
 33 28  2  0  0  0  0
 35 34  1  0  0  0  0
 36 35  1  0  0  0  0
 37 36  2  0  0  0  0
 38 36  1  0  0  0  0
 38 39  1  0  0  0  0
 40 39  1  0  0  0  0
 40 41  1  0  0  0  0
 41 42  2  0  0  0  0
 41 44  1  0  0  0  0
 43 44  1  0  0  0  0
M  END
>  <MODEL>
5

>  <REMARK>
 VINA RESULT:      -6.5      3.586      8.766
  Name = 
  21 active torsions:
  status: ('A' for Active; 'I' for Inactive)
    1  A    between atoms: C_2  and  C_11
    2  A    between atoms: C_2  and  C_21
    3  A    between atoms: C_3  and  C_7
    4  A    between atoms: C_3  and  O_41
    5  A    between atoms: C_4  and  C_10
    6  A    between atoms: C_7  and  N_35
    7  A    between atoms: C_10  and  C_13
    8  A    between atoms: C_10  and  C_31
    9  A    between atoms: C_11  and  C_13
   10  A    between atoms: N_14  and  C_19
   11  A    between atoms: N_14  and  C_21
   12  A    between atoms: C_17  and  C_32
   13  A    between atoms: C_19  and  C_25
   14  A    between atoms: C_20  and  C_22
   15  A    between atoms: C_20  and  C_24
   16  A    between atoms: C_24  and  C_31
   17  A    between atoms: C_24  and  C_34
   18  A    between atoms: C_25  and  C_30
   19  A    between atoms: C_28  and  C_44
   20  A    between atoms: C_29  and  C_32
   21  A    between atoms: C_32  and  N_35
                            x       y       z     vdW  Elec       q    Type
                         _______ _______ _______ _____ _____    ______ ____

>  <TORSDO>
F 21

$$$$
=
 OpenBabel11042412213D

 44 46  0  0  1  0  0  0  0  0999 V2000
  187.6700  177.6400  142.1070 C   0  0  2  0  0  3  0  0  0  0  0  0
  188.2200  177.0130  143.3590 C   0  0  0  0  0  3  0  0  0  0  0  0
  189.2220  177.5040  144.0430 C   0  0  0  0  0  0  0  0  0  0  0  0
  190.2160  177.9950  144.7280 C   0  0  0  0  0  0  0  0  0  0  0  0
  190.9360  179.1980  144.2210 C   0  0  0  0  0  1  0  0  0  0  0  0
  190.6130  177.3440  146.0170 C   0  0  2  0  0  3  0  0  0  0  0  0
  192.3200  175.8530  146.7590 O   0  0  0  0  0  1  0  0  0  0  0  0
  191.8820  175.7880  144.5110 O   0  0  0  0  0  0  0  0  0  0  0  0
  191.6340  176.2720  145.7920 C   0  0  0  0  0  0  0  0  0  0  0  0
  189.4440  176.8050  146.6960 N   0  0  0  0  0  2  0  0  0  0  0  0
  189.2150  177.6350  147.8690 C   0  0  0  0  0  2  0  0  0  0  0  0
  187.8100  178.2130  147.8350 C   0  0  0  0  0  2  0  0  0  0  0  0
  185.9130  178.3700  146.7180 C   0  0  0  0  0  1  0  0  0  0  0  0
  187.0500  177.5730  146.8520 O   0  0  0  0  0  0  0  0  0  0  0  0
  188.5650  178.7310  141.5220 C   0  0  0  0  0  2  0  0  0  0  0  0
  189.3170  178.1860  140.3230 C   0  0  1  0  0  3  0  0  0  0  0  0
  190.6370  177.7120  140.7580 C   0  0  0  0  0  0  0  0  0  0  0  0
  191.7200  177.3230  141.1220 C   0  0  0  0  0  3  0  0  0  0  0  0
  188.5210  177.0500  139.7000 C   0  0  0  0  0  2  0  0  0  0  0  0
  188.6740  178.5650  137.7370 C   0  0  0  0  0  2  0  0  0  0  0  0
  187.8440  177.5070  138.4150 C   0  0  1  0  0  3  0  0  0  0  0  0
  187.8510  176.3720  137.4210 C   0  0  2  0  0  3  0  0  0  0  0  0
  188.4940  176.8620  136.2110 N   0  0  0  0  0  2  0  0  0  0  0  0
  189.3230  177.9300  136.6010 N   0  0  0  0  0  2  0  0  0  0  0  0
  183.8660  175.0510  136.6190 C   0  0  0  0  0  0  0  0  0  0  0  0
  184.8180  174.1390  136.9680 C   0  0  0  0  0  0  0  0  0  0  0  0
  182.6090  174.4530  136.3980 N   0  0  0  0  0  0  0  0  0  0  0  0
  186.1340  174.5230  137.2290 C   0  0  0  0  0  3  0  0  0  0  0  0
  184.1610  176.4090  136.4950 C   0  0  0  0  0  3  0  0  0  0  0  0
  182.7590  173.0160  136.6350 C   0  0  0  0  0  2  0  0  0  0  0  0
  185.4780  176.8260  136.7520 C   0  0  0  0  0  3  0  0  0  0  0  0
  184.2400  172.7760  137.0030 C   0  0  0  0  0  3  0  0  0  0  0  0
  186.4670  175.8890  137.1200 C   0  0  0  0  0  0  0  0  0  0  0  0
  186.2790  178.1820  142.3880 C   0  0  0  0  0  2  0  0  0  0  0  0
  185.7900  179.0130  141.2130 C   0  0  0  0  0  2  0  0  0  0  0  0
  184.3370  178.7730  140.9760 C   0  0  0  0  0  0  0  0  0  0  0  0
  183.5830  178.5900  141.9180 O   0  0  0  0  0  0  0  0  0  0  0  0
  183.8170  178.7160  139.5770 C   0  0  0  0  0  2  0  0  0  0  0  0
  183.5080  180.0560  139.1090 N   0  0  0  0  0  2  0  0  0  0  0  0
  182.2980  179.9550  138.3100 C   0  0  0  0  0  2  0  0  0  0  0  0
  181.2380  180.8510  138.8720 C   0  0  0  0  0  0  0  0  0  0  0  0
  181.1050  182.0360  138.4010 N   0  0  0  0  0  2  0  0  0  0  0  0
  180.3300  179.0400  140.1480 O   0  0  0  0  0  1  0  0  0  0  0  0
  180.3890  180.4310  140.0350 C   0  0  0  0  0  2  0  0  0  0  0  0
  1 15  1  1  0  0  0
  1 34  1  0  0  0  0
  1  2  1  0  0  0  0
  2  3  2  0  0  0  0
  3  4  2  0  0  0  0
  5  4  1  0  0  0  0
  6  4  1  6  0  0  0
  6 10  1  0  0  0  0
  8  9  2  0  0  0  0
  9  6  1  0  0  0  0
  9  7  1  0  0  0  0
 10 11  1  0  0  0  0
 12 11  1  0  0  0  0
 13 14  1  0  0  0  0
 14 12  1  0  0  0  0
 16 19  1  1  0  0  0
 16 17  1  0  0  0  0
 16 15  1  0  0  0  0
 17 18  3  0  0  0  0
 20 21  1  0  0  0  0
 21 19  1  1  0  0  0
 22 33  1  6  0  0  0
 22 21  1  0  0  0  0
 23 24  1  0  0  0  0
 23 22  1  0  0  0  0
 24 20  1  0  0  0  0
 25 26  1  0  0  0  0
 26 32  2  0  0  0  0
 26 28  1  0  0  0  0
 27 25  2  0  0  0  0
 27 30  1  0  0  0  0
 29 25  1  0  0  0  0
 29 31  2  0  0  0  0
 30 32  1  0  0  0  0
 31 33  1  0  0  0  0
 33 28  2  0  0  0  0
 35 34  1  0  0  0  0
 36 35  1  0  0  0  0
 36 37  2  0  0  0  0
 38 36  1  0  0  0  0
 39 38  1  0  0  0  0
 40 41  1  0  0  0  0
 40 39  1  0  0  0  0
 41 44  1  0  0  0  0
 42 41  2  0  0  0  0
 44 43  1  0  0  0  0
M  END
>  <MODEL>
6

>  <REMARK>
 VINA RESULT:      -6.5      2.520      7.560
  Name = 
  21 active torsions:
  status: ('A' for Active; 'I' for Inactive)
    1  A    between atoms: C_2  and  C_11
    2  A    between atoms: C_2  and  C_21
    3  A    between atoms: C_3  and  C_7
    4  A    between atoms: C_3  and  O_41
    5  A    between atoms: C_4  and  C_10
    6  A    between atoms: C_7  and  N_35
    7  A    between atoms: C_10  and  C_13
    8  A    between atoms: C_10  and  C_31
    9  A    between atoms: C_11  and  C_13
   10  A    between atoms: N_14  and  C_19
   11  A    between atoms: N_14  and  C_21
   12  A    between atoms: C_17  and  C_32
   13  A    between atoms: C_19  and  C_25
   14  A    between atoms: C_20  and  C_22
   15  A    between atoms: C_20  and  C_24
   16  A    between atoms: C_24  and  C_31
   17  A    between atoms: C_24  and  C_34
   18  A    between atoms: C_25  and  C_30
   19  A    between atoms: C_28  and  C_44
   20  A    between atoms: C_29  and  C_32
   21  A    between atoms: C_32  and  N_35
                            x       y       z     vdW  Elec       q    Type
                         _______ _______ _______ _____ _____    ______ ____

>  <TORSDO>
F 21

$$$$
=
 OpenBabel11042412213D

 44 46  0  0  1  0  0  0  0  0999 V2000
  189.5280  176.6050  138.4020 C   0  0  2  0  0  3  0  0  0  0  0  0
  188.1740  176.7500  137.7620 C   0  0  0  0  0  3  0  0  0  0  0  0
  187.1760  177.4000  138.3030 C   0  0  0  0  0  0  0  0  0  0  0  0
  186.1820  178.0510  138.8390 C   0  0  0  0  0  0  0  0  0  0  0  0
  186.3290  178.6200  140.2100 C   0  0  0  0  0  1  0  0  0  0  0  0
  184.9120  178.2210  138.0640 C   0  0  2  0  0  3  0  0  0  0  0  0
  182.7890  178.9520  138.8660 O   0  0  0  0  0  0  0  0  0  0  0  0
  184.4890  180.4720  139.0900 O   0  0  0  0  0  1  0  0  0  0  0  0
  184.0080  179.2210  138.7160 C   0  0  0  0  0  0  0  0  0  0  0  0
  184.2360  176.9410  137.9100 N   0  0  0  0  0  2  0  0  0  0  0  0
  184.0880  176.7080  136.4810 C   0  0  0  0  0  2  0  0  0  0  0  0
  184.1880  175.2230  136.1800 C   0  0  0  0  0  2  0  0  0  0  0  0
  182.1870  174.7050  135.4050 C   0  0  0  0  0  1  0  0  0  0  0  0
  182.9990  174.5790  136.5330 O   0  0  0  0  0  0  0  0  0  0  0  0
  189.8950  177.7600  139.3330 C   0  0  0  0  0  2  0  0  0  0  0  0
  190.5450  177.2150  140.5910 C   0  0  1  0  0  3  0  0  0  0  0  0
  192.0010  177.3780  140.4880 C   0  0  0  0  0  0  0  0  0  0  0  0
  193.1960  177.5140  140.3980 C   0  0  0  0  0  3  0  0  0  0  0  0
  190.0090  177.9610  141.8020 C   0  0  0  0  0  2  0  0  0  0  0  0
  190.3180  175.7690  142.9290 C   0  0  0  0  0  2  0  0  0  0  0  0
  189.4390  176.9880  142.8260 C   0  0  1  0  0  3  0  0  0  0  0  0
  189.5380  177.6030  144.2000 C   0  0  2  0  0  3  0  0  0  0  0  0
  190.2780  176.6710  145.0380 N   0  0  0  0  0  2  0  0  0  0  0  0
  191.0640  175.8900  144.1720 N   0  0  0  0  0  2  0  0  0  0  0  0
  185.6860  178.3010  145.9170 C   0  0  0  0  0  0  0  0  0  0  0  0
  185.8270  178.3060  144.5600 C   0  0  0  0  0  0  0  0  0  0  0  0
  184.3550  178.5380  146.3160 N   0  0  0  0  0  0  0  0  0  0  0  0
  187.0670  178.0930  143.9560 C   0  0  0  0  0  2  0  0  0  0  0  0
  186.7730  178.0940  146.7670 C   0  0  0  0  0  3  0  0  0  0  0  0
  183.5560  178.7030  145.1010 C   0  0  0  0  0  3  0  0  0  0  0  0
  188.0340  177.8770  146.1870 C   0  0  0  0  0  3  0  0  0  0  0  0
  184.5260  178.5690  143.9060 C   0  0  0  0  0  3  0  0  0  0  0  0
  188.1870  177.8740  144.7850 C   0  0  0  0  0  0  0  0  0  0  0  0
  190.5800  176.4340  137.3200 C   0  0  0  0  0  2  0  0  0  0  0  0
  191.4060  175.1860  137.5800 C   0  0  0  0  0  2  0  0  0  0  0  0
  192.8560  175.4720  137.3790 C   0  0  0  0  0  0  0  0  0  0  0  0
  193.2070  176.4810  136.7880 O   0  0  0  0  0  0  0  0  0  0  0  0
  193.8770  174.4960  137.8660 C   0  0  0  0  0  2  0  0  0  0  0  0
  195.0130  175.2070  138.4270 N   0  0  0  0  0  2  0  0  0  0  0  0
  195.9750  174.2010  138.8450 C   0  0  0  0  0  2  0  0  0  0  0  0
  197.2650  174.8560  139.2290 C   0  0  0  0  0  0  0  0  0  0  0  0
  198.1750  175.0170  138.3410 N   0  0  0  0  0  2  0  0  0  0  0  0
  197.0190  176.4980  140.9540 O   0  0  0  0  0  1  0  0  0  0  0  0
  197.5570  175.2460  140.6480 C   0  0  0  0  0  2  0  0  0  0  0  0
  1 34  1  6  0  0  0
  1 15  1  0  0  0  0
  2  3  2  0  0  0  0
  2  1  1  0  0  0  0
  3  4  2  0  0  0  0
  4  5  1  0  0  0  0
  6 10  1  1  0  0  0
  6  9  1  0  0  0  0
  6  4  1  0  0  0  0
  9  7  2  0  0  0  0
  9  8  1  0  0  0  0
 11 10  1  0  0  0  0
 12 11  1  0  0  0  0
 12 14  1  0  0  0  0
 13 14  1  0  0  0  0
 16 15  1  6  0  0  0
 16 19  1  0  0  0  0
 17 16  1  0  0  0  0
 18 17  3  0  0  0  0
 20 24  1  0  0  0  0
 21 19  1  6  0  0  0
 21 20  1  0  0  0  0
 21 22  1  0  0  0  0
 22 33  1  1  0  0  0
 22 23  1  0  0  0  0
 24 23  1  0  0  0  0
 25 27  1  0  0  0  0
 25 29  2  0  0  0  0
 26 25  1  0  0  0  0
 28 26  1  0  0  0  0
 28 33  1  0  0  0  0
 30 27  2  0  0  0  0
 31 29  1  0  0  0  0
 32 26  2  0  0  0  0
 32 30  1  0  0  0  0
 33 31  2  0  0  0  0
 34 35  1  0  0  0  0
 36 35  1  0  0  0  0
 36 38  1  0  0  0  0
 37 36  2  0  0  0  0
 38 39  1  0  0  0  0
 39 40  1  0  0  0  0
 40 41  1  0  0  0  0
 41 44  1  0  0  0  0
 42 41  2  0  0  0  0
 44 43  1  0  0  0  0
M  END
>  <MODEL>
7

>  <REMARK>
 VINA RESULT:      -6.5      3.435      8.881
  Name = 
  21 active torsions:
  status: ('A' for Active; 'I' for Inactive)
    1  A    between atoms: C_2  and  C_11
    2  A    between atoms: C_2  and  C_21
    3  A    between atoms: C_3  and  C_7
    4  A    between atoms: C_3  and  O_41
    5  A    between atoms: C_4  and  C_10
    6  A    between atoms: C_7  and  N_35
    7  A    between atoms: C_10  and  C_13
    8  A    between atoms: C_10  and  C_31
    9  A    between atoms: C_11  and  C_13
   10  A    between atoms: N_14  and  C_19
   11  A    between atoms: N_14  and  C_21
   12  A    between atoms: C_17  and  C_32
   13  A    between atoms: C_19  and  C_25
   14  A    between atoms: C_20  and  C_22
   15  A    between atoms: C_20  and  C_24
   16  A    between atoms: C_24  and  C_31
   17  A    between atoms: C_24  and  C_34
   18  A    between atoms: C_25  and  C_30
   19  A    between atoms: C_28  and  C_44
   20  A    between atoms: C_29  and  C_32
   21  A    between atoms: C_32  and  N_35
                            x       y       z     vdW  Elec       q    Type
                         _______ _______ _______ _____ _____    ______ ____

>  <TORSDO>
F 21

$$$$
=
 OpenBabel11042412213D

 44 46  0  0  1  0  0  0  0  0999 V2000
  189.1940  177.3080  141.5380 C   0  0  2  0  0  3  0  0  0  0  0  0
  187.9440  177.2430  140.7050 C   0  0  0  0  0  3  0  0  0  0  0  0
  187.8360  177.7560  139.5060 C   0  0  0  0  0  0  0  0  0  0  0  0
  187.7300  178.2630  138.3100 C   0  0  0  0  0  0  0  0  0  0  0  0
  188.8650  179.0430  137.7370 C   0  0  0  0  0  1  0  0  0  0  0  0
  186.4700  178.0470  137.5300 C   0  0  2  0  0  3  0  0  0  0  0  0
  184.2730  177.6400  138.3610 O   0  0  0  0  0  0  0  0  0  0  0  0
  185.1970  179.6390  138.9950 O   0  0  0  0  0  1  0  0  0  0  0  0
  185.2630  178.4150  138.3350 C   0  0  0  0  0  0  0  0  0  0  0  0
  186.3840  176.6670  137.0750 N   0  0  0  0  0  2  0  0  0  0  0  0
  186.9160  176.6330  135.7210 C   0  0  0  0  0  2  0  0  0  0  0  0
  188.1330  175.7260  135.6610 C   0  0  0  0  0  2  0  0  0  0  0  0
  188.8800  173.9440  136.7270 C   0  0  0  0  0  1  0  0  0  0  0  0
  187.7800  174.4210  136.0130 O   0  0  0  0  0  0  0  0  0  0  0  0
  189.0750  178.2240  142.7550 C   0  0  0  0  0  2  0  0  0  0  0  0
  188.9820  177.3870  144.0170 C   0  0  1  0  0  3  0  0  0  0  0  0
  190.3190  176.8850  144.3600 C   0  0  0  0  0  0  0  0  0  0  0  0
  191.4160  176.4750  144.6470 C   0  0  0  0  0  3  0  0  0  0  0  0
  188.4240  178.2360  145.1480 C   0  0  0  0  0  2  0  0  0  0  0  0
  186.9660  177.3700  146.9650 C   0  0  0  0  0  2  0  0  0  0  0  0
  187.0170  177.7860  145.5170 C   0  0  1  0  0  3  0  0  0  0  0  0
  186.0880  178.9730  145.4650 C   0  0  2  0  0  3  0  0  0  0  0  0
  185.4420  179.0730  146.7660 N   0  0  0  0  0  2  0  0  0  0  0  0
  186.2950  178.4390  147.6870 N   0  0  0  0  0  2  0  0  0  0  0  0
  183.2080  178.6270  142.3270 C   0  0  2  0  0  3  0  0  0  0  0  0
  182.7870  178.8920  143.5970 C   0  0  0  0  0  0  0  0  0  0  0  0
  182.1360  178.5530  141.4150 N   0  0  0  0  0  0  0  0  0  0  0  0
  183.6910  179.0040  144.6540 C   0  0  0  0  0  3  0  0  0  0  0  0
  184.5570  178.4440  142.0230 C   0  0  0  0  0  3  0  0  0  0  0  0
  180.9040  178.8040  142.1640 C   0  0  0  0  0  3  0  0  0  0  0  0
  185.4900  178.5500  143.0680 C   0  0  0  0  0  3  0  0  0  0  0  0
  181.3130  179.0170  143.6380 C   0  0  0  0  0  3  0  0  0  0  0  0
  185.0640  178.8300  144.3830 C   0  0  0  0  0  0  0  0  0  0  0  0
  190.3600  177.7320  140.6610 C   0  0  0  0  0  2  0  0  0  0  0  0
  191.2120  176.5280  140.2980 C   0  0  0  0  0  2  0  0  0  0  0  0
  191.7410  176.6650  138.9100 C   0  0  0  0  0  0  0  0  0  0  0  0
  191.0030  176.4980  137.9520 O   0  0  0  0  0  0  0  0  0  0  0  0
  193.1880  176.9670  138.6980 C   0  0  0  0  0  2  0  0  0  0  0  0
  193.6630  176.2940  137.5010 N   0  0  0  0  0  2  0  0  0  0  0  0
  194.2800  175.0510  137.9330 C   0  0  0  0  0  2  0  0  0  0  0  0
  195.1780  174.5250  136.8560 C   0  0  0  0  0  0  0  0  0  0  0  0
  194.6580  174.0270  135.7950 N   0  0  0  0  0  2  0  0  0  0  0  0
  197.0470  174.8850  138.3070 O   0  0  0  0  0  1  0  0  0  0  0  0
  196.6670  174.4810  137.0250 C   0  0  0  0  0  2  0  0  0  0  0  0
  1 34  1  6  0  0  0
  1 15  1  0  0  0  0
  2  1  1  0  0  0  0
  3  2  2  0  0  0  0
  4  3  2  0  0  0  0
  5  4  1  0  0  0  0
  6 10  1  1  0  0  0
  6  4  1  0  0  0  0
  6  9  1  0  0  0  0
  9  7  2  0  0  0  0
  9  8  1  0  0  0  0
 11 10  1  0  0  0  0
 12 11  1  0  0  0  0
 12 14  1  0  0  0  0
 14 13  1  0  0  0  0
 16 15  1  6  0  0  0
 16 17  1  0  0  0  0
 16 19  1  0  0  0  0
 17 18  3  0  0  0  0
 20 24  1  0  0  0  0
 21 19  1  1  0  0  0
 21 20  1  0  0  0  0
 22 33  1  6  0  0  0
 22 21  1  0  0  0  0
 22 23  1  0  0  0  0
 23 24  1  0  0  0  0
 25 29  1  1  0  0  0
 25 26  1  0  0  0  0
 26 32  2  0  0  0  0
 26 28  1  0  0  0  0
 27 30  2  0  0  0  0
 27 25  1  0  0  0  0
 29 31  2  0  0  0  0
 30 32  1  0  0  0  0
 31 33  1  0  0  0  0
 33 28  2  0  0  0  0
 35 34  1  0  0  0  0
 36 35  1  0  0  0  0
 37 36  2  0  0  0  0
 38 36  1  0  0  0  0
 39 40  1  0  0  0  0
 39 38  1  0  0  0  0
 41 44  1  0  0  0  0
 41 40  1  0  0  0  0
 42 41  2  0  0  0  0
 44 43  1  0  0  0  0
M  END
>  <MODEL>
8

>  <REMARK>
 VINA RESULT:      -6.4      2.873      7.660
  Name = 
  21 active torsions:
  status: ('A' for Active; 'I' for Inactive)
    1  A    between atoms: C_2  and  C_11
    2  A    between atoms: C_2  and  C_21
    3  A    between atoms: C_3  and  C_7
    4  A    between atoms: C_3  and  O_41
    5  A    between atoms: C_4  and  C_10
    6  A    between atoms: C_7  and  N_35
    7  A    between atoms: C_10  and  C_13
    8  A    between atoms: C_10  and  C_31
    9  A    between atoms: C_11  and  C_13
   10  A    between atoms: N_14  and  C_19
   11  A    between atoms: N_14  and  C_21
   12  A    between atoms: C_17  and  C_32
   13  A    between atoms: C_19  and  C_25
   14  A    between atoms: C_20  and  C_22
   15  A    between atoms: C_20  and  C_24
   16  A    between atoms: C_24  and  C_31
   17  A    between atoms: C_24  and  C_34
   18  A    between atoms: C_25  and  C_30
   19  A    between atoms: C_28  and  C_44
   20  A    between atoms: C_29  and  C_32
   21  A    between atoms: C_32  and  N_35
                            x       y       z     vdW  Elec       q    Type
                         _______ _______ _______ _____ _____    ______ ____

>  <TORSDO>
F 21

$$$$
=
 OpenBabel11042412213D

 44 46  0  0  1  0  0  0  0  0999 V2000
  185.1470  178.2480  142.5550 C   0  0  2  0  0  3  0  0  0  0  0  0
  186.3410  178.5580  141.6930 C   0  0  0  0  0  3  0  0  0  0  0  0
  187.4700  177.8980  141.7440 C   0  0  0  0  0  0  0  0  0  0  0  0
  188.5930  177.2380  141.7900 C   0  0  0  0  0  0  0  0  0  0  0  0
  188.7750  176.1660  142.8110 C   0  0  0  0  0  1  0  0  0  0  0  0
  189.6790  177.5660  140.8130 C   0  0  2  0  0  3  0  0  0  0  0  0
  189.0240  179.0200  139.0410 O   0  0  0  0  0  1  0  0  0  0  0  0
  188.6400  176.7930  138.6630 O   0  0  0  0  0  0  0  0  0  0  0  0
  189.1200  177.8350  139.4500 C   0  0  0  0  0  0  0  0  0  0  0  0
  190.6590  176.4920  140.7640 N   0  0  0  0  0  2  0  0  0  0  0  0
  191.9590  177.1130  140.5600 C   0  0  0  0  0  2  0  0  0  0  0  0
  192.3710  177.8850  141.8010 C   0  0  0  0  0  2  0  0  0  0  0  0
  191.6840  178.1460  143.8820 C   0  0  0  0  0  1  0  0  0  0  0  0
  192.0290  177.1680  142.9500 O   0  0  0  0  0  0  0  0  0  0  0  0
  183.8930  177.8850  141.7600 C   0  0  0  0  0  2  0  0  0  0  0  0
  183.5680  178.9990  140.7830 C   0  0  1  0  0  3  0  0  0  0  0  0
  183.7980  178.5190  139.4140 C   0  0  0  0  0  0  0  0  0  0  0  0
  183.9880  178.1190  138.2920 C   0  0  0  0  0  3  0  0  0  0  0  0
  182.1200  179.4240  140.9630 C   0  0  0  0  0  2  0  0  0  0  0  0
  180.8310  178.7800  142.9880 C   0  0  0  0  0  2  0  0  0  0  0  0
  181.3140  178.3210  141.6370 C   0  0  1  0  0  3  0  0  0  0  0  0
  180.0350  178.1020  140.8680 C   0  0  2  0  0  3  0  0  0  0  0  0
  178.9340  178.2610  141.8080 N   0  0  0  0  0  2  0  0  0  0  0  0
  179.4130  179.0710  142.8530 N   0  0  0  0  0  2  0  0  0  0  0  0
  179.9440  174.1940  139.1390 C   0  0  0  0  0  0  0  0  0  0  0  0
  180.6000  175.2000  138.4910 C   0  0  0  0  0  0  0  0  0  0  0  0
  180.0170  172.9720  138.4400 N   0  0  0  0  0  0  0  0  0  0  0  0
  180.6470  176.4930  139.0130 C   0  0  0  0  0  2  0  0  0  0  0  0
  179.2800  174.4090  140.3470 C   0  0  0  0  0  3  0  0  0  0  0  0
  180.8040  173.2070  137.2280 C   0  0  0  0  0  3  0  0  0  0  0  0
  179.3100  175.7020  140.8970 C   0  0  0  0  0  3  0  0  0  0  0  0
  181.1920  174.7020  137.2290 C   0  0  0  0  0  3  0  0  0  0  0  0
  179.9920  176.7450  140.2360 C   0  0  0  0  0  0  0  0  0  0  0  0
  184.8750  179.4240  143.4770 C   0  0  0  0  0  2  0  0  0  0  0  0
  184.0450  178.9780  144.6690 C   0  0  0  0  0  2  0  0  0  0  0  0
  184.9230  178.7380  145.8510 C   0  0  0  0  0  0  0  0  0  0  0  0
  184.4320  178.4950  146.9420 O   0  0  0  0  0  0  0  0  0  0  0  0
  186.4060  178.8390  145.7030 C   0  0  0  0  0  2  0  0  0  0  0  0
  187.0310  177.5980  146.1280 N   0  0  0  0  0  2  0  0  0  0  0  0
  188.4590  177.7480  145.9060 C   0  0  0  0  0  2  0  0  0  0  0  0
  189.2130  177.3410  147.1340 C   0  0  0  0  0  0  0  0  0  0  0  0
  188.7610  177.6760  148.2860 N   0  0  0  0  0  2  0  0  0  0  0  0
  191.4670  177.1860  147.9230 O   0  0  0  0  0  1  0  0  0  0  0  0
  190.5300  176.6300  147.0490 C   0  0  0  0  0  2  0  0  0  0  0  0
  1  2  1  6  0  0  0
  1 34  1  0  0  0  0
  2  3  2  0  0  0  0
  3  4  2  0  0  0  0
  4  5  1  0  0  0  0
  6  9  1  6  0  0  0
  6  4  1  0  0  0  0
  7  9  1  0  0  0  0
  8  9  2  0  0  0  0
 10  6  1  0  0  0  0
 11 10  1  0  0  0  0
 11 12  1  0  0  0  0
 12 14  1  0  0  0  0
 14 13  1  0  0  0  0
 15  1  1  0  0  0  0
 16 17  1  6  0  0  0
 16 19  1  0  0  0  0
 16 15  1  0  0  0  0
 18 17  3  0  0  0  0
 21 19  1  6  0  0  0
 21 20  1  0  0  0  0
 22 33  1  1  0  0  0
 22 21  1  0  0  0  0
 22 23  1  0  0  0  0
 23 24  1  0  0  0  0
 24 20  1  0  0  0  0
 25 29  2  0  0  0  0
 26 28  1  0  0  0  0
 26 25  1  0  0  0  0
 27 25  1  0  0  0  0
 28 33  1  0  0  0  0
 29 31  1  0  0  0  0
 30 32  1  0  0  0  0
 30 27  2  0  0  0  0
 32 26  2  0  0  0  0
 33 31  2  0  0  0  0
 34 35  1  0  0  0  0
 35 36  1  0  0  0  0
 36 37  2  0  0  0  0
 38 36  1  0  0  0  0
 38 39  1  0  0  0  0
 40 39  1  0  0  0  0
 40 41  1  0  0  0  0
 41 42  2  0  0  0  0
 44 41  1  0  0  0  0
 44 43  1  0  0  0  0
M  END
>  <MODEL>
9

>  <REMARK>
 VINA RESULT:      -6.3      2.511      4.451
  Name = 
  21 active torsions:
  status: ('A' for Active; 'I' for Inactive)
    1  A    between atoms: C_2  and  C_11
    2  A    between atoms: C_2  and  C_21
    3  A    between atoms: C_3  and  C_7
    4  A    between atoms: C_3  and  O_41
    5  A    between atoms: C_4  and  C_10
    6  A    between atoms: C_7  and  N_35
    7  A    between atoms: C_10  and  C_13
    8  A    between atoms: C_10  and  C_31
    9  A    between atoms: C_11  and  C_13
   10  A    between atoms: N_14  and  C_19
   11  A    between atoms: N_14  and  C_21
   12  A    between atoms: C_17  and  C_32
   13  A    between atoms: C_19  and  C_25
   14  A    between atoms: C_20  and  C_22
   15  A    between atoms: C_20  and  C_24
   16  A    between atoms: C_24  and  C_31
   17  A    between atoms: C_24  and  C_34
   18  A    between atoms: C_25  and  C_30
   19  A    between atoms: C_28  and  C_44
   20  A    between atoms: C_29  and  C_32
   21  A    between atoms: C_32  and  N_35
                            x       y       z     vdW  Elec       q    Type
                         _______ _______ _______ _____ _____    ______ ____

>  <TORSDO>
F 21

$$$$
