=
 OpenBabel11042411093D

 68 77  0  0  1  0  0  0  0  0999 V2000
  190.0330  177.6150  139.5380 C   0  0  1  0  0  3  0  0  0  0  0  0
  188.7930  177.0880  138.8260 C   0  0  0  0  0  2  0  0  0  0  0  0
  188.5330  177.8630  137.6930 O   0  0  0  0  0  0  0  0  0  0  0  0
  187.3470  177.3410  137.1620 C   0  0  1  0  0  3  0  0  0  0  0  0
  186.1690  178.0930  137.7680 C   0  0  0  0  0  1  0  0  0  0  0  0
  187.3500  177.4950  135.6320 C   0  0  1  0  0  3  0  0  0  0  0  0
  189.4990  177.5890  134.8350 C   0  0  0  0  0  1  0  0  0  0  0  0
  188.3780  176.7610  134.9980 O   0  0  0  0  0  0  0  0  0  0  0  0
  185.9710  177.2730  134.9930 C   0  0  0  0  0  2  0  0  0  0  0  0
  185.7450  175.7980  134.6900 C   0  0  0  0  0  2  0  0  0  0  0  0
  184.6730  175.1530  135.5660 C   0  0  2  0  0  3  0  0  0  0  0  0
  184.6300  173.7690  135.3780 O   0  0  0  0  0  0  0  0  0  0  0  0
  185.2500  173.2670  136.4250 O   0  0  0  0  0  1  0  0  0  0  0  0
  183.3060  175.7690  135.3140 C   0  0  0  0  0  2  0  0  0  0  0  0
  182.0750  176.7240  139.3260 C   0  0  0  0  0  2  0  0  0  0  0  0
  180.5680  179.4670  137.2660 C   0  0  0  0  0  2  0  0  0  0  0  0
  181.0610  175.8610  138.5530 C   0  0  1  0  0  0  0  0  0  0  0  0
  181.9030  179.6920  137.9560 C   0  0  0  0  0  2  0  0  0  0  0  0
  182.3040  174.0740  137.5430 O   0  0  0  0  0  1  0  0  0  0  0  0
  180.3400  175.6270  137.1800 C   0  0  2  0  0  0  0  0  0  0  0  0
  179.9790  174.4190  136.3530 C   0  0  0  0  0  2  0  0  0  0  0  0
  180.9210  177.4090  138.7080 C   0  0  2  0  0  3  0  0  0  0  0  0
  179.4350  174.6110  137.5980 O   0  0  0  0  0  0  0  0  0  0  0  0
  181.8400  175.3860  137.3570 C   0  0  1  0  0  0  0  0  0  0  0  0
  181.4670  178.2920  137.5700 C   0  0  0  0  0  0  0  0  0  0  0  0
  182.1190  177.7140  136.3170 C   0  0  0  0  0  2  0  0  0  0  0  0
  182.7810  176.3660  136.6090 C   0  0  2  0  0  3  0  0  0  0  0  0
  189.9260  177.4140  140.9190 O   0  0  0  0  0  0  0  0  0  0  0  0
  188.5760  177.1250  141.1340 C   0  0  0  0  0  2  0  0  0  0  0  0
  188.2240  177.3150  142.5960 C   0  0  0  0  0  2  0  0  0  0  0  0
  184.8930  178.4670  144.1090 C   0  0  0  0  0  0  0  0  0  0  0  0
  186.1930  177.9020  144.0080 C   0  0  0  0  0  0  0  0  0  0  0  0
  186.8330  177.8510  142.7470 C   0  0  0  0  0  0  0  0  0  0  0  0
  184.2600  178.9240  142.9420 C   0  0  0  0  0  3  0  0  0  0  0  0
  186.1740  178.3140  141.6070 C   0  0  0  0  0  3  0  0  0  0  0  0
  184.8880  178.8420  141.7010 C   0  0  0  0  0  0  0  0  0  0  0  0
  184.1920  179.3330  140.4840 C   0  0  0  0  0  1  0  0  0  0  0  0
  184.1620  178.6230  145.3940 C   0  0  0  0  0  0  0  0  0  0  0  0
  182.9410  179.2880  145.4590 O   0  0  0  0  0  0  0  0  0  0  0  0
  184.6390  178.1330  146.4520 O   0  0  0  0  0  1  0  0  0  0  0  0
  186.8930  177.3240  145.2060 C   0  0  0  0  0  2  0  0  0  0  0  0
  187.3560  178.3930  146.0820 N   0  0  0  0  0  2  0  0  0  0  0  0
  188.6130  177.9680  146.6800 C   0  0  0  0  0  2  0  0  0  0  0  0
  189.4350  177.1610  145.6880 C   0  0  0  0  0  2  0  0  0  0  0  0
  190.3930  178.0690  144.9420 C   0  0  0  0  0  2  0  0  0  0  0  0
  191.7570  177.4140  144.8680 C   0  0  0  0  0  3  0  0  0  0  0  0
  191.6420  176.1180  144.0950 C   0  0  0  0  0  2  0  0  0  0  0  0
  191.7080  176.0940  145.6080 C   0  0  0  0  0  2  0  0  0  0  0  0
  191.2910  176.9410  138.9990 C   0  0  0  0  0  2  0  0  0  0  0  0
  190.9970  175.5500  138.4580 C   0  0  0  0  0  2  0  0  0  0  0  0
  190.6430  172.5980  135.1640 N   0  0  1  0  0  0  0  0  0  0  0  0
  194.0380  175.5450  138.0120 N   0  0  0  0  0  0  0  0  0  0  0  0
  193.9390  173.8570  135.3130 N   0  0  0  0  0  0  0  0  0  0  0  0
  191.6190  175.3970  137.0810 C   0  0  2  0  0  3  0  0  0  0  0  0
  191.9410  173.9160  136.8070 C   0  0  2  0  0  3  0  0  0  0  0  0
  191.8240  173.0940  134.5940 N   0  0  0  0  0  2  0  0  0  0  0  0
  194.9390  174.2270  136.2380 N   0  0  0  0  0  2  0  0  0  0  0  0
  192.6630  173.7210  135.5330 C   0  0  0  0  0  0  0  0  0  0  0  0
  193.0530  176.5100  136.9100 S   0  0  0  0  0  0  0  0  0  0  0  0
  190.6260  173.1320  136.5550 C   0  0  1  0  0  3  0  0  0  0  0  0
  194.7700  174.5500  137.6250 C   0  0  0  0  0  0  0  0  0  0  0  0
  189.7830  173.7390  135.5110 C   0  0  0  0  0  2  0  0  0  0  0  0
  195.6570  173.8910  138.6230 C   0  0  0  0  0  2  0  0  0  0  0  0
  196.6630  174.7830  139.0280 O   0  0  0  0  0  0  0  0  0  0  0  0
  197.9600  175.2120  137.1810 F   0  0  0  0  0  0  0  0  0  0  0  0
  198.9240  174.7360  139.1520 F   0  0  0  0  0  0  0  0  0  0  0  0
  197.8810  173.1040  138.0160 F   0  0  0  0  0  0  0  0  0  0  0  0
  197.8450  174.4540  138.3380 C   0  0  0  0  0  0  0  0  0  0  0  0
  1  2  1  6  0  0  0
  1 28  1  0  0  0  0
  3  2  1  0  0  0  0
  4  3  1  0  0  0  0
  4  5  1  1  0  0  0
  6  9  1  6  0  0  0
  6  4  1  0  0  0  0
  7  8  1  0  0  0  0
  8  6  1  0  0  0  0
 10  9  1  0  0  0  0
 11 10  1  6  0  0  0
 12 11  1  0  0  0  0
 12 13  1  0  0  0  0
 14 11  1  0  0  0  0
 16 25  1  0  0  0  0
 16 18  1  0  0  0  0
 17 22  1  0  0  0  0
 17 15  1  1  0  0  0
 20 21  1  6  0  0  0
 20 24  1  0  0  0  0
 20 23  1  0  0  0  0
 20 17  1  0  0  0  0
 21 23  1  0  0  0  0
 22 15  1  1  0  0  0
 24 19  1  1  0  0  0
 24 17  1  0  0  0  0
 25 18  1  0  0  0  0
 25 22  1  0  0  0  0
 26 27  1  0  0  0  0
 26 25  1  0  0  0  0
 27 14  1  6  0  0  0
 27 24  1  0  0  0  0
 28 29  1  0  0  0  0
 29 30  1  0  0  0  0
 30 33  1  0  0  0  0
 31 38  1  0  0  0  0
 32 31  1  0  0  0  0
 32 41  1  0  0  0  0
 33 32  2  0  0  0  0
 34 31  2  0  0  0  0
 35 36  2  0  0  0  0
 35 33  1  0  0  0  0
 36 34  1  0  0  0  0
 37 36  1  0  0  0  0
 38 39  2  0  0  0  0
 38 40  1  0  0  0  0
 41 42  1  0  0  0  0
 42 43  1  0  0  0  0
 44 43  1  0  0  0  0
 45 44  1  0  0  0  0
 46 45  1  0  0  0  0
 46 48  1  0  0  0  0
 47 46  1  0  0  0  0
 47 48  1  0  0  0  0
 49  1  1  0  0  0  0
 50 49  1  0  0  0  0
 51 62  1  6  0  0  0
 51 60  1  0  0  0  0
 53 58  2  0  0  0  0
 53 57  1  0  0  0  0
 54 50  1  1  0  0  0
 55 58  1  6  0  0  0
 55 54  1  0  0  0  0
 56 51  1  0  0  0  0
 56 58  1  0  0  0  0
 57 61  1  0  0  0  0
 59 54  1  0  0  0  0
 59 52  1  0  0  0  0
 60 62  1  6  0  0  0
 60 55  1  0  0  0  0
 61 52  2  0  0  0  0
 61 63  1  0  0  0  0
 63 64  1  0  0  0  0
 65 68  1  0  0  0  0
 67 68  1  0  0  0  0
 68 64  1  0  0  0  0
 68 66  1  0  0  0  0
M  END
>  <MODEL>
1

>  <REMARK>
 VINA RESULT:      -6.7      0.000      0.000
  Name = 
  28 active torsions:
  status: ('A' for Active; 'I' for Inactive)
    1  A    between atoms: C_5  and  C_13
    2  A    between atoms: C_7  and  C_9
    3  A    between atoms: C_7  and  C_12
    4  A    between atoms: C_8  and  C_18
    5  A    between atoms: C_8  and  C_48
    6  A    between atoms: C_8  and  O_62
    7  A    between atoms: C_11  and  C_25
    8  A    between atoms: C_12  and  C_15
    9  A    between atoms: C_14  and  C_64
   10  A    between atoms: C_15  and  C_59
   11  A    between atoms: C_15  and  O_60
   12  A    between atoms: C_18  and  O_26
   13  A    between atoms: C_21  and  C_33
   14  A    between atoms: C_22  and  C_23
   15  A    between atoms: C_22  and  O_30
   16  A    between atoms: C_22  and  C_37
   17  A    between atoms: C_23  and  C_66
   18  A    between atoms: C_25  and  C_36
   19  A    between atoms: O_26  and  C_59
   20  A    between atoms: C_33  and  C_61
   21  A    between atoms: C_36  and  C_50
   22  A    between atoms: C_37  and  C_48
   23  A    between atoms: N_43  and  C_50
   24  A    between atoms: N_43  and  C_64
   25  A    between atoms: C_47  and  O_58
   26  A    between atoms: C_47  and  C_63
   27  A    between atoms: O_58  and  C_68
   28  A    between atoms: O_60  and  C_61
                            x       y       z     vdW  Elec       q    Type
                         _______ _______ _______ _____ _____    ______ ____

>  <TORSDO>
F 28

$$$$
=
 OpenBabel11042411093D

 68 77  0  0  1  0  0  0  0  0999 V2000
  189.3990  177.7980  139.0960 C   0  0  1  0  0  3  0  0  0  0  0  0
  188.5040  176.8320  138.3280 C   0  0  0  0  0  2  0  0  0  0  0  0
  187.5680  177.5480  137.5780 O   0  0  0  0  0  0  0  0  0  0  0  0
  187.0100  176.6080  136.7030 C   0  0  1  0  0  3  0  0  0  0  0  0
  186.6290  175.3670  137.5000 C   0  0  0  0  0  1  0  0  0  0  0  0
  185.7710  177.2060  136.0170 C   0  0  1  0  0  3  0  0  0  0  0  0
  185.9610  175.3150  134.7320 C   0  0  0  0  0  1  0  0  0  0  0  0
  185.0620  176.2700  135.2300 O   0  0  0  0  0  0  0  0  0  0  0  0
  184.8650  177.9960  136.9720 C   0  0  0  0  0  2  0  0  0  0  0  0
  184.2560  177.0800  138.0250 C   0  0  0  0  0  2  0  0  0  0  0  0
  182.8050  176.7000  137.7370 C   0  0  2  0  0  3  0  0  0  0  0  0
  181.9180  177.6220  138.3000 O   0  0  0  0  0  0  0  0  0  0  0  0
  180.9760  176.8890  138.8550 O   0  0  0  0  0  1  0  0  0  0  0  0
  182.4920  175.2940  138.2240 C   0  0  0  0  0  2  0  0  0  0  0  0
  181.6420  173.1250  134.6050 C   0  0  0  0  0  2  0  0  0  0  0  0
  184.1310  170.9510  136.3710 C   0  0  0  0  0  2  0  0  0  0  0  0
  180.7500  172.7230  135.7950 C   0  0  1  0  0  0  0  0  0  0  0  0
  184.6060  171.9250  135.3060 C   0  0  0  0  0  2  0  0  0  0  0  0
  179.9490  174.7620  136.7740 O   0  0  0  0  0  1  0  0  0  0  0  0
  180.7040  172.4120  137.3310 C   0  0  2  0  0  0  0  0  0  0  0  0
  179.7650  172.7480  138.4620 C   0  0  0  0  0  2  0  0  0  0  0  0
  182.0100  171.9080  135.3590 C   0  0  2  0  0  3  0  0  0  0  0  0
  179.3500  171.9760  137.4070 O   0  0  0  0  0  0  0  0  0  0  0  0
  180.9880  173.8180  136.7990 C   0  0  1  0  0  0  0  0  0  0  0  0
  183.3360  172.2030  136.0860 C   0  0  0  0  0  0  0  0  0  0  0  0
  183.4540  173.2380  137.2010 C   0  0  0  0  0  2  0  0  0  0  0  0
  182.4240  174.3560  137.0300 C   0  0  2  0  0  3  0  0  0  0  0  0
  188.8530  178.0760  140.3530 O   0  0  0  0  0  0  0  0  0  0  0  0
  189.6880  177.4170  141.2590 C   0  0  0  0  0  2  0  0  0  0  0  0
  188.8960  176.4080  142.0670 C   0  0  0  0  0  2  0  0  0  0  0  0
  187.2200  177.8730  145.1910 C   0  0  0  0  0  0  0  0  0  0  0  0
  187.4160  177.4640  143.8440 C   0  0  0  0  0  0  0  0  0  0  0  0
  188.6580  176.9040  143.4600 C   0  0  0  0  0  0  0  0  0  0  0  0
  188.2850  177.7490  146.0980 C   0  0  0  0  0  3  0  0  0  0  0  0
  189.6950  176.7960  144.3890 C   0  0  0  0  0  3  0  0  0  0  0  0
  189.5130  177.2240  145.7020 C   0  0  0  0  0  0  0  0  0  0  0  0
  190.6210  177.1060  146.6850 C   0  0  0  0  0  1  0  0  0  0  0  0
  185.9360  178.4140  145.7080 C   0  0  0  0  0  0  0  0  0  0  0  0
  185.8920  179.2230  146.8380 O   0  0  0  0  0  1  0  0  0  0  0  0
  184.8580  178.1530  145.1090 O   0  0  0  0  0  0  0  0  0  0  0  0
  186.3440  177.6420  142.8060 C   0  0  0  0  0  2  0  0  0  0  0  0
  186.4310  178.9720  142.2160 N   0  0  0  0  0  2  0  0  0  0  0  0
  185.3840  179.0850  141.2120 C   0  0  0  0  0  2  0  0  0  0  0  0
  184.1610  178.2770  141.6150 C   0  0  0  0  0  2  0  0  0  0  0  0
  182.9950  179.2020  141.9020 C   0  0  0  0  0  2  0  0  0  0  0  0
  181.6950  178.4350  141.7670 C   0  0  0  0  0  3  0  0  0  0  0  0
  180.6230  179.3690  141.2500 C   0  0  0  0  0  2  0  0  0  0  0  0
  180.6780  179.0240  142.7230 C   0  0  0  0  0  2  0  0  0  0  0  0
  190.8070  177.2290  139.2400 C   0  0  0  0  0  2  0  0  0  0  0  0
  190.8680  175.7680  138.8190 C   0  0  0  0  0  2  0  0  0  0  0  0
  190.3470  172.9870  135.4010 N   0  0  1  0  0  0  0  0  0  0  0  0
  193.8950  175.7090  138.2860 N   0  0  0  0  0  0  0  0  0  0  0  0
  193.6770  174.1560  135.5140 N   0  0  0  0  0  0  0  0  0  0  0  0
  191.4480  175.6660  137.4190 C   0  0  2  0  0  3  0  0  0  0  0  0
  191.7240  174.1920  137.0660 C   0  0  2  0  0  3  0  0  0  0  0  0
  191.5240  173.4800  134.8210 N   0  0  0  0  0  2  0  0  0  0  0  0
  194.7120  174.4560  136.4260 N   0  0  0  0  0  2  0  0  0  0  0  0
  192.4050  174.0410  135.7640 C   0  0  0  0  0  0  0  0  0  0  0  0
  192.9060  176.7500  137.2600 S   0  0  0  0  0  0  0  0  0  0  0  0
  190.3820  173.4540  136.8150 C   0  0  1  0  0  3  0  0  0  0  0  0
  194.5900  174.7160  137.8310 C   0  0  0  0  0  0  0  0  0  0  0  0
  189.5270  174.1310  135.8260 C   0  0  0  0  0  2  0  0  0  0  0  0
  195.4860  173.9870  138.7700 C   0  0  0  0  0  2  0  0  0  0  0  0
  196.5180  174.8390  139.2000 O   0  0  0  0  0  0  0  0  0  0  0  0
  198.8140  174.7620  139.1900 F   0  0  0  0  0  0  0  0  0  0  0  0
  197.6280  173.2270  138.0590 F   0  0  0  0  0  0  0  0  0  0  0  0
  197.7140  175.3340  137.2890 F   0  0  0  0  0  0  0  0  0  0  0  0
  197.6670  174.5550  138.4380 C   0  0  0  0  0  0  0  0  0  0  0  0
  1  2  1  1  0  0  0
  1 49  1  0  0  0  0
  1 28  1  0  0  0  0
  3  2  1  0  0  0  0
  4  5  1  1  0  0  0
  4  3  1  0  0  0  0
  6  4  1  0  0  0  0
  6  9  1  1  0  0  0
  7  8  1  0  0  0  0
  8  6  1  0  0  0  0
  9 10  1  0  0  0  0
 11 10  1  1  0  0  0
 11 14  1  0  0  0  0
 11 12  1  0  0  0  0
 12 13  1  0  0  0  0
 17 15  1  6  0  0  0
 17 24  1  0  0  0  0
 17 20  1  0  0  0  0
 18 25  1  0  0  0  0
 18 16  1  0  0  0  0
 20 23  1  0  0  0  0
 20 21  1  1  0  0  0
 22 15  1  6  0  0  0
 22 17  1  0  0  0  0
 22 25  1  0  0  0  0
 23 21  1  0  0  0  0
 24 19  1  1  0  0  0
 24 27  1  0  0  0  0
 24 20  1  0  0  0  0
 25 16  1  0  0  0  0
 25 26  1  0  0  0  0
 27 26  1  0  0  0  0
 27 14  1  1  0  0  0
 28 29  1  0  0  0  0
 29 30  1  0  0  0  0
 30 33  1  0  0  0  0
 31 38  1  0  0  0  0
 31 34  1  0  0  0  0
 32 31  2  0  0  0  0
 33 32  1  0  0  0  0
 33 35  2  0  0  0  0
 35 36  1  0  0  0  0
 36 34  2  0  0  0  0
 36 37  1  0  0  0  0
 38 39  1  0  0  0  0
 40 38  2  0  0  0  0
 41 32  1  0  0  0  0
 42 41  1  0  0  0  0
 43 44  1  0  0  0  0
 43 42  1  0  0  0  0
 44 45  1  0  0  0  0
 46 45  1  0  0  0  0
 46 48  1  0  0  0  0
 47 46  1  0  0  0  0
 47 48  1  0  0  0  0
 50 49  1  0  0  0  0
 51 62  1  6  0  0  0
 51 60  1  0  0  0  0
 53 58  2  0  0  0  0
 53 57  1  0  0  0  0
 54 50  1  1  0  0  0
 55 58  1  6  0  0  0
 55 54  1  0  0  0  0
 56 51  1  0  0  0  0
 56 58  1  0  0  0  0
 57 61  1  0  0  0  0
 59 54  1  0  0  0  0
 59 52  1  0  0  0  0
 60 62  1  6  0  0  0
 60 55  1  0  0  0  0
 61 52  2  0  0  0  0
 61 63  1  0  0  0  0
 63 64  1  0  0  0  0
 66 68  1  0  0  0  0
 67 68  1  0  0  0  0
 68 65  1  0  0  0  0
 68 64  1  0  0  0  0
M  END
>  <MODEL>
2

>  <REMARK>
 VINA RESULT:      -6.6      1.784      4.380
  Name = 
  28 active torsions:
  status: ('A' for Active; 'I' for Inactive)
    1  A    between atoms: C_5  and  C_13
    2  A    between atoms: C_7  and  C_9
    3  A    between atoms: C_7  and  C_12
    4  A    between atoms: C_8  and  C_18
    5  A    between atoms: C_8  and  C_48
    6  A    between atoms: C_8  and  O_62
    7  A    between atoms: C_11  and  C_25
    8  A    between atoms: C_12  and  C_15
    9  A    between atoms: C_14  and  C_64
   10  A    between atoms: C_15  and  C_59
   11  A    between atoms: C_15  and  O_60
   12  A    between atoms: C_18  and  O_26
   13  A    between atoms: C_21  and  C_33
   14  A    between atoms: C_22  and  C_23
   15  A    between atoms: C_22  and  O_30
   16  A    between atoms: C_22  and  C_37
   17  A    between atoms: C_23  and  C_66
   18  A    between atoms: C_25  and  C_36
   19  A    between atoms: O_26  and  C_59
   20  A    between atoms: C_33  and  C_61
   21  A    between atoms: C_36  and  C_50
   22  A    between atoms: C_37  and  C_48
   23  A    between atoms: N_43  and  C_50
   24  A    between atoms: N_43  and  C_64
   25  A    between atoms: C_47  and  O_58
   26  A    between atoms: C_47  and  C_63
   27  A    between atoms: O_58  and  C_68
   28  A    between atoms: O_60  and  C_61
                            x       y       z     vdW  Elec       q    Type
                         _______ _______ _______ _____ _____    ______ ____

>  <TORSDO>
F 28

$$$$
=
 OpenBabel11042411093D

 68 77  0  0  1  0  0  0  0  0999 V2000
  188.7500  177.9910  140.5450 C   0  0  1  0  0  3  0  0  0  0  0  0
  189.0120  177.1610  139.2940 C   0  0  0  0  0  2  0  0  0  0  0  0
  188.6030  177.8690  138.1610 O   0  0  0  0  0  0  0  0  0  0  0  0
  188.2780  176.8880  137.2180 C   0  0  1  0  0  3  0  0  0  0  0  0
  188.2110  177.5380  135.8410 C   0  0  0  0  0  1  0  0  0  0  0  0
  189.3420  175.7780  137.2330 C   0  0  1  0  0  3  0  0  0  0  0  0
  187.4720  174.4910  136.8980 C   0  0  0  0  0  1  0  0  0  0  0  0
  188.7950  174.4810  137.3650 O   0  0  0  0  0  0  0  0  0  0  0  0
  190.3580  175.8880  136.0880 C   0  0  0  0  0  2  0  0  0  0  0  0
  191.5620  176.7220  136.5070 C   0  0  0  0  0  2  0  0  0  0  0  0
  192.3890  176.0810  137.6200 C   0  0  2  0  0  3  0  0  0  0  0  0
  192.2740  176.7980  138.8140 O   0  0  0  0  0  0  0  0  0  0  0  0
  193.5120  176.9660  139.2280 O   0  0  0  0  0  1  0  0  0  0  0  0
  193.8490  175.9450  137.2180 C   0  0  0  0  0  2  0  0  0  0  0  0
  195.3700  172.0170  138.1010 C   0  0  0  0  0  2  0  0  0  0  0  0
  194.0540  171.6870  134.6090 C   0  0  0  0  0  2  0  0  0  0  0  0
  196.3930  172.9400  137.4120 C   0  0  1  0  0  0  0  0  0  0  0  0
  193.1820  171.2720  135.7830 C   0  0  0  0  0  2  0  0  0  0  0  0
  196.3300  175.0340  138.5830 O   0  0  0  0  0  1  0  0  0  0  0  0
  196.6220  174.0090  136.2880 C   0  0  2  0  0  0  0  0  0  0  0  0
  197.3840  175.3050  136.1840 C   0  0  0  0  0  2  0  0  0  0  0  0
  195.5600  171.8650  136.6430 C   0  0  2  0  0  3  0  0  0  0  0  0
  198.0370  174.1180  136.3990 O   0  0  0  0  0  0  0  0  0  0  0  0
  195.7680  174.3040  137.5230 C   0  0  1  0  0  0  0  0  0  0  0  0
  194.2570  172.3270  135.9620 C   0  0  0  0  0  0  0  0  0  0  0  0
  193.7710  173.7730  136.0040 C   0  0  0  0  0  2  0  0  0  0  0  0
  194.2480  174.4800  137.2740 C   0  0  2  0  0  3  0  0  0  0  0  0
  187.5150  177.6510  141.1080 O   0  0  0  0  0  0  0  0  0  0  0  0
  186.7720  178.8330  141.0770 C   0  0  0  0  0  2  0  0  0  0  0  0
  185.6440  178.7200  140.0690 C   0  0  0  0  0  2  0  0  0  0  0  0
  181.8620  178.7500  140.7020 C   0  0  0  0  0  0  0  0  0  0  0  0
  183.1030  178.7610  140.0110 C   0  0  0  0  0  0  0  0  0  0  0  0
  184.3100  178.7640  140.7490 C   0  0  0  0  0  0  0  0  0  0  0  0
  181.8670  178.7860  142.1060 C   0  0  0  0  0  3  0  0  0  0  0  0
  184.2790  178.7990  142.1450 C   0  0  0  0  0  3  0  0  0  0  0  0
  183.0620  178.8190  142.8220 C   0  0  0  0  0  0  0  0  0  0  0  0
  183.0350  178.8570  144.3070 C   0  0  0  0  0  1  0  0  0  0  0  0
  180.5420  178.6840  140.0220 C   0  0  0  0  0  0  0  0  0  0  0  0
  180.0500  179.7570  139.2860 O   0  0  0  0  0  0  0  0  0  0  0  0
  179.8500  177.6330  140.0920 O   0  0  0  0  0  1  0  0  0  0  0  0
  183.1650  178.8020  138.5100 C   0  0  0  0  0  2  0  0  0  0  0  0
  183.4740  177.4790  137.9820 N   0  0  0  0  0  2  0  0  0  0  0  0
  182.2460  176.9180  137.4390 C   0  0  0  0  0  2  0  0  0  0  0  0
  181.9200  175.5900  138.1040 C   0  0  0  0  0  2  0  0  0  0  0  0
  180.5900  175.0650  137.6000 C   0  0  0  0  0  2  0  0  0  0  0  0
  180.2980  173.7240  138.2410 C   0  0  0  0  0  3  0  0  0  0  0  0
  178.9730  173.2070  137.7240 C   0  0  0  0  0  2  0  0  0  0  0  0
  179.0520  173.8500  139.0930 C   0  0  0  0  0  2  0  0  0  0  0  0
  189.8700  177.7980  141.5630 C   0  0  0  0  0  2  0  0  0  0  0  0
  189.4150  178.1450  142.9730 C   0  0  0  0  0  2  0  0  0  0  0  0
  191.8500  174.5790  143.9950 N   0  0  1  0  0  0  0  0  0  0  0  0
  189.1610  178.7200  145.9810 N   0  0  0  0  0  0  0  0  0  0  0  0
  191.2990  176.5380  146.8810 N   0  0  0  0  0  0  0  0  0  0  0  0
  190.5350  177.8550  143.9550 C   0  0  2  0  0  3  0  0  0  0  0  0
  190.3480  176.4570  144.5750 C   0  0  2  0  0  3  0  0  0  0  0  0
  192.2510  175.1960  145.1880 N   0  0  0  0  0  2  0  0  0  0  0  0
  190.3010  177.2990  147.5250 N   0  0  0  0  0  2  0  0  0  0  0  0
  191.3390  176.1710  145.6330 C   0  0  0  0  0  0  0  0  0  0  0  0
  190.6600  179.1990  145.1830 S   0  0  0  0  0  0  0  0  0  0  0  0
  190.6780  175.3680  143.5210 C   0  0  1  0  0  3  0  0  0  0  0  0
  189.1130  177.8530  146.9420 C   0  0  0  0  0  0  0  0  0  0  0  0
  192.0010  175.5490  142.9000 C   0  0  0  0  0  2  0  0  0  0  0  0
  187.8110  177.6230  147.6260 C   0  0  0  0  0  2  0  0  0  0  0  0
  186.7980  177.4300  146.6700 O   0  0  0  0  0  0  0  0  0  0  0  0
  184.6410  178.1220  147.0460 F   0  0  0  0  0  0  0  0  0  0  0  0
  186.3660  179.3940  147.7120 F   0  0  0  0  0  0  0  0  0  0  0  0
  185.9090  179.2230  145.5210 F   0  0  0  0  0  0  0  0  0  0  0  0
  185.9260  178.5330  146.7260 C   0  0  0  0  0  0  0  0  0  0  0  0
  1  2  1  6  0  0  0
  1 28  1  0  0  0  0
  1 49  1  0  0  0  0
  3  2  1  0  0  0  0
  4  5  1  6  0  0  0
  4  6  1  0  0  0  0
  4  3  1  0  0  0  0
  6  9  1  6  0  0  0
  6  8  1  0  0  0  0
  7  8  1  0  0  0  0
  9 10  1  0  0  0  0
 11 10  1  6  0  0  0
 11 12  1  0  0  0  0
 12 13  1  0  0  0  0
 14 11  1  0  0  0  0
 16 18  1  0  0  0  0
 16 25  1  0  0  0  0
 17 24  1  0  0  0  0
 17 15  1  1  0  0  0
 18 25  1  0  0  0  0
 20 21  1  6  0  0  0
 20 23  1  0  0  0  0
 20 17  1  0  0  0  0
 20 24  1  0  0  0  0
 21 23  1  0  0  0  0
 22 17  1  0  0  0  0
 22 15  1  1  0  0  0
 24 19  1  1  0  0  0
 25 26  1  0  0  0  0
 25 22  1  0  0  0  0
 26 27  1  0  0  0  0
 27 14  1  6  0  0  0
 27 24  1  0  0  0  0
 29 28  1  0  0  0  0
 30 33  1  0  0  0  0
 30 29  1  0  0  0  0
 31 34  1  0  0  0  0
 32 31  2  0  0  0  0
 32 33  1  0  0  0  0
 33 35  2  0  0  0  0
 34 36  2  0  0  0  0
 35 36  1  0  0  0  0
 36 37  1  0  0  0  0
 38 40  1  0  0  0  0
 38 31  1  0  0  0  0
 39 38  2  0  0  0  0
 41 32  1  0  0  0  0
 42 41  1  0  0  0  0
 43 42  1  0  0  0  0
 43 44  1  0  0  0  0
 45 44  1  0  0  0  0
 45 46  1  0  0  0  0
 46 48  1  0  0  0  0
 47 46  1  0  0  0  0
 47 48  1  0  0  0  0
 49 50  1  0  0  0  0
 51 62  1  6  0  0  0
 51 56  1  0  0  0  0
 52 61  2  0  0  0  0
 53 57  1  0  0  0  0
 54 50  1  6  0  0  0
 54 55  1  0  0  0  0
 54 59  1  0  0  0  0
 55 58  1  1  0  0  0
 56 58  1  0  0  0  0
 58 53  2  0  0  0  0
 59 52  1  0  0  0  0
 60 62  1  6  0  0  0
 60 51  1  0  0  0  0
 60 55  1  0  0  0  0
 61 57  1  0  0  0  0
 61 63  1  0  0  0  0
 64 68  1  0  0  0  0
 64 63  1  0  0  0  0
 67 68  1  0  0  0  0
 68 65  1  0  0  0  0
 68 66  1  0  0  0  0
M  END
>  <MODEL>
3

>  <REMARK>
 VINA RESULT:      -6.1      4.553     10.400
  Name = 
  28 active torsions:
  status: ('A' for Active; 'I' for Inactive)
    1  A    between atoms: C_5  and  C_13
    2  A    between atoms: C_7  and  C_9
    3  A    between atoms: C_7  and  C_12
    4  A    between atoms: C_8  and  C_18
    5  A    between atoms: C_8  and  C_48
    6  A    between atoms: C_8  and  O_62
    7  A    between atoms: C_11  and  C_25
    8  A    between atoms: C_12  and  C_15
    9  A    between atoms: C_14  and  C_64
   10  A    between atoms: C_15  and  C_59
   11  A    between atoms: C_15  and  O_60
   12  A    between atoms: C_18  and  O_26
   13  A    between atoms: C_21  and  C_33
   14  A    between atoms: C_22  and  C_23
   15  A    between atoms: C_22  and  O_30
   16  A    between atoms: C_22  and  C_37
   17  A    between atoms: C_23  and  C_66
   18  A    between atoms: C_25  and  C_36
   19  A    between atoms: O_26  and  C_59
   20  A    between atoms: C_33  and  C_61
   21  A    between atoms: C_36  and  C_50
   22  A    between atoms: C_37  and  C_48
   23  A    between atoms: N_43  and  C_50
   24  A    between atoms: N_43  and  C_64
   25  A    between atoms: C_47  and  O_58
   26  A    between atoms: C_47  and  C_63
   27  A    between atoms: O_58  and  C_68
   28  A    between atoms: O_60  and  C_61
                            x       y       z     vdW  Elec       q    Type
                         _______ _______ _______ _____ _____    ______ ____

>  <TORSDO>
F 28

$$$$
=
 OpenBabel11042411093D

 68 77  0  0  1  0  0  0  0  0999 V2000
  189.2590  176.9520  138.5420 C   0  0  1  0  0  3  0  0  0  0  0  0
  190.0710  177.6670  139.6160 C   0  0  0  0  0  2  0  0  0  0  0  0
  189.8240  177.0860  140.8630 O   0  0  0  0  0  0  0  0  0  0  0  0
  191.0910  176.8210  141.3960 C   0  0  1  0  0  3  0  0  0  0  0  0
  192.1330  177.5620  140.5680 C   0  0  0  0  0  1  0  0  0  0  0  0
  191.1450  177.2840  142.8620 C   0  0  1  0  0  3  0  0  0  0  0  0
  191.5060  179.2500  143.9870 C   0  0  0  0  0  1  0  0  0  0  0  0
  192.0650  178.3350  143.0820 O   0  0  0  0  0  0  0  0  0  0  0  0
  189.7620  177.5570  143.4690 C   0  0  0  0  0  2  0  0  0  0  0  0
  189.5410  176.7120  144.7170 C   0  0  0  0  0  2  0  0  0  0  0  0
  188.9020  177.4830  145.8700 C   0  0  2  0  0  3  0  0  0  0  0  0
  189.4590  177.1150  147.0970 O   0  0  0  0  0  0  0  0  0  0  0  0
  188.4550  177.1510  147.9480 O   0  0  0  0  0  1  0  0  0  0  0  0
  187.3920  177.2990  145.8910 C   0  0  0  0  0  2  0  0  0  0  0  0
  185.6720  180.6380  143.7920 C   0  0  0  0  0  2  0  0  0  0  0  0
  184.9470  177.7230  141.5530 C   0  0  0  0  0  2  0  0  0  0  0  0
  184.6830  179.9120  144.7210 C   0  0  1  0  0  0  0  0  0  0  0  0
  186.1690  178.5870  141.2890 C   0  0  0  0  0  2  0  0  0  0  0  0
  185.7970  179.6290  146.8280 O   0  0  0  0  0  1  0  0  0  0  0  0
  184.1710  178.5220  145.2360 C   0  0  2  0  0  0  0  0  0  0  0  0
  183.7770  177.9560  146.5770 C   0  0  0  0  0  2  0  0  0  0  0  0
  184.7490  179.6590  143.1810 C   0  0  2  0  0  3  0  0  0  0  0  0
  183.0700  178.9860  146.0090 O   0  0  0  0  0  0  0  0  0  0  0  0
  185.5700  179.0440  145.5720 C   0  0  1  0  0  0  0  0  0  0  0  0
  185.6000  178.4730  142.6900 C   0  0  0  0  0  0  0  0  0  0  0  0
  186.3560  177.5490  143.6420 C   0  0  0  0  0  2  0  0  0  0  0  0
  186.7550  178.2820  144.9240 C   0  0  2  0  0  3  0  0  0  0  0  0
  187.9880  177.5240  138.4280 O   0  0  0  0  0  0  0  0  0  0  0  0
  187.2020  176.5350  137.8330 C   0  0  0  0  0  2  0  0  0  0  0  0
  186.4570  177.1020  136.6400 C   0  0  0  0  0  2  0  0  0  0  0  0
  182.6280  177.0600  136.8450 C   0  0  0  0  0  0  0  0  0  0  0  0
  183.9490  176.7420  136.4310 C   0  0  0  0  0  0  0  0  0  0  0  0
  185.0420  177.4370  137.0010 C   0  0  0  0  0  0  0  0  0  0  0  0
  182.4390  178.0900  137.7810 C   0  0  0  0  0  3  0  0  0  0  0  0
  184.8190  178.4550  137.9300 C   0  0  0  0  0  3  0  0  0  0  0  0
  183.5220  178.7870  138.3130 C   0  0  0  0  0  0  0  0  0  0  0  0
  183.2910  179.8730  139.3020 C   0  0  0  0  0  1  0  0  0  0  0  0
  181.4180  176.3480  136.3550 C   0  0  0  0  0  0  0  0  0  0  0  0
  180.5960  175.6320  137.2180 O   0  0  0  0  0  1  0  0  0  0  0  0
  181.1110  176.4000  135.1330 O   0  0  0  0  0  0  0  0  0  0  0  0
  184.2130  175.7050  135.3760 C   0  0  0  0  0  2  0  0  0  0  0  0
  183.7910  174.3910  135.8460 N   0  0  0  0  0  2  0  0  0  0  0  0
  184.1780  174.2710  137.2440 C   0  0  0  0  0  2  0  0  0  0  0  0
  185.1830  173.1450  137.4290 C   0  0  0  0  0  2  0  0  0  0  0  0
  184.7160  171.9020  136.6980 C   0  0  0  0  0  2  0  0  0  0  0  0
  185.8800  171.2890  135.9460 C   0  0  0  0  0  3  0  0  0  0  0  0
  186.0010  171.9570  134.5940 C   0  0  0  0  0  2  0  0  0  0  0  0
  185.3510  170.5940  134.7090 C   0  0  0  0  0  2  0  0  0  0  0  0
  189.9850  176.9940  137.2010 C   0  0  0  0  0  2  0  0  0  0  0  0
  191.4330  176.5460  137.3310 C   0  0  0  0  0  2  0  0  0  0  0  0
  190.2910  172.5380  135.8070 N   0  0  1  0  0  0  0  0  0  0  0  0
  194.3530  175.8720  136.6490 N   0  0  0  0  0  0  0  0  0  0  0  0
  193.6750  173.2040  135.0470 N   0  0  0  0  0  0  0  0  0  0  0  0
  191.8160  175.7060  136.1250 C   0  0  2  0  0  3  0  0  0  0  0  0
  191.9490  174.2260  136.5310 C   0  0  2  0  0  3  0  0  0  0  0  0
  191.4110  172.5410  134.9640 N   0  0  0  0  0  2  0  0  0  0  0  0
  194.8380  173.7840  135.6000 N   0  0  0  0  0  2  0  0  0  0  0  0
  192.4420  173.3790  135.4260 C   0  0  0  0  0  0  0  0  0  0  0  0
  193.3060  176.3920  135.3270 S   0  0  0  0  0  0  0  0  0  0  0  0
  190.5420  173.6270  136.7940 C   0  0  1  0  0  3  0  0  0  0  0  0
  194.9180  174.7080  136.6940 C   0  0  0  0  0  0  0  0  0  0  0  0
  189.6090  173.8340  135.6730 C   0  0  0  0  0  2  0  0  0  0  0  0
  195.8820  174.4280  137.7930 C   0  0  0  0  0  2  0  0  0  0  0  0
  197.0910  175.1010  137.5480 O   0  0  0  0  0  0  0  0  0  0  0  0
  197.6040  172.8650  137.4330 F   0  0  0  0  0  0  0  0  0  0  0  0
  198.9070  174.3760  136.4040 F   0  0  0  0  0  0  0  0  0  0  0  0
  198.9330  174.2470  138.6460 F   0  0  0  0  0  0  0  0  0  0  0  0
  198.1260  174.1470  137.5200 C   0  0  0  0  0  0  0  0  0  0  0  0
  1 49  1  6  0  0  0
  1  2  1  0  0  0  0
  2  3  1  0  0  0  0
  3  4  1  0  0  0  0
  4  5  1  6  0  0  0
  4  6  1  0  0  0  0
  6  8  1  0  0  0  0
  6  9  1  6  0  0  0
  8  7  1  0  0  0  0
  9 10  1  0  0  0  0
 11 10  1  6  0  0  0
 11 14  1  0  0  0  0
 11 12  1  0  0  0  0
 12 13  1  0  0  0  0
 16 25  1  0  0  0  0
 17 15  1  1  0  0  0
 17 20  1  0  0  0  0
 17 24  1  0  0  0  0
 18 16  1  0  0  0  0
 18 25  1  0  0  0  0
 20 24  1  0  0  0  0
 20 23  1  0  0  0  0
 20 21  1  6  0  0  0
 22 15  1  6  0  0  0
 22 17  1  0  0  0  0
 23 21  1  0  0  0  0
 24 19  1  1  0  0  0
 25 22  1  0  0  0  0
 25 26  1  0  0  0  0
 26 27  1  0  0  0  0
 27 24  1  0  0  0  0
 27 14  1  1  0  0  0
 28  1  1  0  0  0  0
 29 28  1  0  0  0  0
 30 33  1  0  0  0  0
 30 29  1  0  0  0  0
 31 34  1  0  0  0  0
 32 31  2  0  0  0  0
 32 33  1  0  0  0  0
 33 35  2  0  0  0  0
 34 36  2  0  0  0  0
 35 36  1  0  0  0  0
 36 37  1  0  0  0  0
 38 31  1  0  0  0  0
 38 39  1  0  0  0  0
 40 38  2  0  0  0  0
 41 42  1  0  0  0  0
 41 32  1  0  0  0  0
 42 43  1  0  0  0  0
 43 44  1  0  0  0  0
 45 44  1  0  0  0  0
 46 45  1  0  0  0  0
 47 48  1  0  0  0  0
 47 46  1  0  0  0  0
 48 46  1  0  0  0  0
 49 50  1  0  0  0  0
 51 62  1  6  0  0  0
 51 60  1  0  0  0  0
 52 61  2  0  0  0  0
 53 58  2  0  0  0  0
 53 57  1  0  0  0  0
 54 55  1  0  0  0  0
 54 50  1  1  0  0  0
 55 58  1  6  0  0  0
 55 60  1  0  0  0  0
 56 58  1  0  0  0  0
 56 51  1  0  0  0  0
 57 61  1  0  0  0  0
 59 54  1  0  0  0  0
 59 52  1  0  0  0  0
 60 62  1  6  0  0  0
 61 63  1  0  0  0  0
 64 63  1  0  0  0  0
 65 68  1  0  0  0  0
 66 68  1  0  0  0  0
 68 64  1  0  0  0  0
 68 67  1  0  0  0  0
M  END
>  <MODEL>
4

>  <REMARK>
 VINA RESULT:      -5.8      2.154      7.505
  Name = 
  28 active torsions:
  status: ('A' for Active; 'I' for Inactive)
    1  A    between atoms: C_5  and  C_13
    2  A    between atoms: C_7  and  C_9
    3  A    between atoms: C_7  and  C_12
    4  A    between atoms: C_8  and  C_18
    5  A    between atoms: C_8  and  C_48
    6  A    between atoms: C_8  and  O_62
    7  A    between atoms: C_11  and  C_25
    8  A    between atoms: C_12  and  C_15
    9  A    between atoms: C_14  and  C_64
   10  A    between atoms: C_15  and  C_59
   11  A    between atoms: C_15  and  O_60
   12  A    between atoms: C_18  and  O_26
   13  A    between atoms: C_21  and  C_33
   14  A    between atoms: C_22  and  C_23
   15  A    between atoms: C_22  and  O_30
   16  A    between atoms: C_22  and  C_37
   17  A    between atoms: C_23  and  C_66
   18  A    between atoms: C_25  and  C_36
   19  A    between atoms: O_26  and  C_59
   20  A    between atoms: C_33  and  C_61
   21  A    between atoms: C_36  and  C_50
   22  A    between atoms: C_37  and  C_48
   23  A    between atoms: N_43  and  C_50
   24  A    between atoms: N_43  and  C_64
   25  A    between atoms: C_47  and  O_58
   26  A    between atoms: C_47  and  C_63
   27  A    between atoms: O_58  and  C_68
   28  A    between atoms: O_60  and  C_61
                            x       y       z     vdW  Elec       q    Type
                         _______ _______ _______ _____ _____    ______ ____

>  <TORSDO>
F 28

$$$$
=
 OpenBabel11042411093D

 68 77  0  0  1  0  0  0  0  0999 V2000
  184.3780  178.0390  138.7690 C   0  0  1  0  0  3  0  0  0  0  0  0
  184.9370  178.7990  139.9660 C   0  0  0  0  0  2  0  0  0  0  0  0
  184.9440  177.9710  141.0920 O   0  0  0  0  0  0  0  0  0  0  0  0
  185.7790  178.6170  142.0110 C   0  0  1  0  0  3  0  0  0  0  0  0
  184.9470  179.6120  142.8100 C   0  0  0  0  0  1  0  0  0  0  0  0
  186.4210  177.5820  142.9490 C   0  0  1  0  0  3  0  0  0  0  0  0
  188.2190  176.1570  142.9310 C   0  0  0  0  0  1  0  0  0  0  0  0
  187.8260  177.4990  142.8120 O   0  0  0  0  0  0  0  0  0  0  0  0
  185.9660  177.7150  144.4090 C   0  0  0  0  0  2  0  0  0  0  0  0
  187.0990  178.2330  145.2850 C   0  0  0  0  0  2  0  0  0  0  0  0
  186.9520  177.8560  146.7580 C   0  0  2  0  0  3  0  0  0  0  0  0
  186.3830  178.8980  147.4950 O   0  0  0  0  0  0  0  0  0  0  0  0
  185.2150  179.1140  146.9270 O   0  0  0  0  0  1  0  0  0  0  0  0
  188.2860  177.4430  147.3600 C   0  0  0  0  0  2  0  0  0  0  0  0
  191.0580  175.9600  144.4210 C   0  0  0  0  0  2  0  0  0  0  0  0
  191.4720  179.6780  144.2240 C   0  0  0  0  0  2  0  0  0  0  0  0
  191.6810  176.1670  145.8140 C   0  0  1  0  0  0  0  0  0  0  0  0
  190.5430  178.9730  143.2490 C   0  0  0  0  0  2  0  0  0  0  0  0
  190.1860  175.1540  147.3950 O   0  0  0  0  0  1  0  0  0  0  0  0
  191.7650  177.1040  147.0690 C   0  0  2  0  0  0  0  0  0  0  0  0
  191.7830  176.8940  148.5610 C   0  0  0  0  0  2  0  0  0  0  0  0
  191.8240  177.2020  144.6530 C   0  0  2  0  0  3  0  0  0  0  0  0
  192.7930  176.4120  147.7680 O   0  0  0  0  0  0  0  0  0  0  0  0
  190.4860  176.3430  146.7120 C   0  0  1  0  0  0  0  0  0  0  0  0
  190.8210  178.3710  144.6130 C   0  0  0  0  0  0  0  0  0  0  0  0
  189.7220  178.5530  145.6570 C   0  0  0  0  0  2  0  0  0  0  0  0
  189.2880  177.2080  146.2420 C   0  0  2  0  0  3  0  0  0  0  0  0
  185.4110  177.4200  138.0580 O   0  0  0  0  0  0  0  0  0  0  0  0
  185.2210  177.8190  136.7320 C   0  0  0  0  0  2  0  0  0  0  0  0
  186.4900  177.6010  135.9300 C   0  0  0  0  0  2  0  0  0  0  0  0
  189.5140  175.7160  137.3490 C   0  0  0  0  0  0  0  0  0  0  0  0
  188.4210  176.0510  136.5040 C   0  0  0  0  0  0  0  0  0  0  0  0
  187.6190  177.1730  136.8180 C   0  0  0  0  0  0  0  0  0  0  0  0
  189.7410  176.4870  138.5010 C   0  0  0  0  0  3  0  0  0  0  0  0
  187.8740  177.9180  137.9710 C   0  0  0  0  0  3  0  0  0  0  0  0
  188.9260  177.5720  138.8150 C   0  0  0  0  0  0  0  0  0  0  0  0
  189.1930  178.3690  140.0410 C   0  0  0  0  0  1  0  0  0  0  0  0
  190.4520  174.5960  137.0760 C   0  0  0  0  0  0  0  0  0  0  0  0
  191.6760  174.8100  136.4520 O   0  0  0  0  0  0  0  0  0  0  0  0
  190.1490  173.4230  137.4250 O   0  0  0  0  0  1  0  0  0  0  0  0
  188.0760  175.2200  135.3000 C   0  0  0  0  0  2  0  0  0  0  0  0
  186.7980  174.5490  135.5020 N   0  0  0  0  0  2  0  0  0  0  0  0
  187.0720  173.1930  135.9530 C   0  0  0  0  0  2  0  0  0  0  0  0
  186.5290  172.9710  137.3550 C   0  0  0  0  0  2  0  0  0  0  0  0
  185.0950  173.4540  137.4420 C   0  0  0  0  0  2  0  0  0  0  0  0
  184.1560  172.2650  137.4000 C   0  0  0  0  0  3  0  0  0  0  0  0
  183.8140  171.9560  135.9590 C   0  0  0  0  0  2  0  0  0  0  0  0
  182.8280  172.7110  136.8250 C   0  0  0  0  0  2  0  0  0  0  0  0
  183.3480  177.0070  139.2190 C   0  0  0  0  0  2  0  0  0  0  0  0
  182.9520  176.0760  138.0830 C   0  0  0  0  0  2  0  0  0  0  0  0
  180.7690  178.2930  134.9190 N   0  0  1  0  0  0  0  0  0  0  0  0
  180.9140  177.1550  140.1160 N   0  0  0  0  0  0  0  0  0  0  0  0
  178.9340  178.3670  137.9350 N   0  0  0  0  0  0  0  0  0  0  0  0
  181.4890  176.2910  137.7360 C   0  0  2  0  0  3  0  0  0  0  0  0
  181.2600  177.7450  137.2810 C   0  0  2  0  0  3  0  0  0  0  0  0
  179.5900  178.2070  135.6730 N   0  0  0  0  0  2  0  0  0  0  0  0
  179.1060  178.5010  139.3300 N   0  0  0  0  0  2  0  0  0  0  0  0
  179.8330  178.0460  137.0500 C   0  0  0  0  0  0  0  0  0  0  0  0
  180.4290  175.7750  139.1270 S   0  0  0  0  0  0  0  0  0  0  0  0
  181.8660  177.9530  135.8670 C   0  0  1  0  0  3  0  0  0  0  0  0
  180.3090  178.2990  140.0850 C   0  0  0  0  0  0  0  0  0  0  0  0
  181.3930  176.9620  134.8860 C   0  0  0  0  0  2  0  0  0  0  0  0
  180.7250  179.3480  141.0550 C   0  0  0  0  0  2  0  0  0  0  0  0
  180.1610  179.0830  142.3140 O   0  0  0  0  0  0  0  0  0  0  0  0
  180.7870  178.2640  144.3660 F   0  0  0  0  0  0  0  0  0  0  0  0
  182.2490  178.2780  142.6620 F   0  0  0  0  0  0  0  0  0  0  0  0
  181.6760  180.2190  143.6340 F   0  0  0  0  0  0  0  0  0  0  0  0
  181.2070  178.9700  143.2490 C   0  0  0  0  0  0  0  0  0  0  0  0
  1 49  1  1  0  0  0
  1  2  1  0  0  0  0
  2  3  1  0  0  0  0
  3  4  1  0  0  0  0
  4  5  1  1  0  0  0
  4  6  1  0  0  0  0
  6  9  1  1  0  0  0
  8  7  1  0  0  0  0
  8  6  1  0  0  0  0
  9 10  1  0  0  0  0
 11 10  1  6  0  0  0
 11 14  1  0  0  0  0
 11 12  1  0  0  0  0
 13 12  1  0  0  0  0
 16 25  1  0  0  0  0
 17 15  1  6  0  0  0
 17 24  1  0  0  0  0
 17 20  1  0  0  0  0
 18 16  1  0  0  0  0
 18 25  1  0  0  0  0
 20 23  1  0  0  0  0
 20 21  1  6  0  0  0
 22 15  1  6  0  0  0
 22 17  1  0  0  0  0
 23 21  1  0  0  0  0
 24 20  1  0  0  0  0
 24 19  1  1  0  0  0
 25 22  1  0  0  0  0
 25 26  1  0  0  0  0
 26 27  1  0  0  0  0
 27 24  1  0  0  0  0
 27 14  1  1  0  0  0
 28  1  1  0  0  0  0
 29 28  1  0  0  0  0
 30 29  1  0  0  0  0
 30 33  1  0  0  0  0
 31 34  1  0  0  0  0
 32 33  1  0  0  0  0
 32 31  2  0  0  0  0
 33 35  2  0  0  0  0
 34 36  2  0  0  0  0
 35 36  1  0  0  0  0
 36 37  1  0  0  0  0
 38 31  1  0  0  0  0
 38 40  1  0  0  0  0
 39 38  2  0  0  0  0
 41 42  1  0  0  0  0
 41 32  1  0  0  0  0
 42 43  1  0  0  0  0
 43 44  1  0  0  0  0
 44 45  1  0  0  0  0
 46 45  1  0  0  0  0
 47 48  1  0  0  0  0
 47 46  1  0  0  0  0
 48 46  1  0  0  0  0
 50 49  1  0  0  0  0
 51 62  1  6  0  0  0
 51 56  1  0  0  0  0
 51 60  1  0  0  0  0
 53 57  1  0  0  0  0
 54 50  1  1  0  0  0
 54 59  1  0  0  0  0
 55 58  1  6  0  0  0
 55 54  1  0  0  0  0
 56 58  1  0  0  0  0
 57 61  1  0  0  0  0
 58 53  2  0  0  0  0
 59 52  1  0  0  0  0
 60 62  1  6  0  0  0
 60 55  1  0  0  0  0
 61 52  2  0  0  0  0
 61 63  1  0  0  0  0
 63 64  1  0  0  0  0
 64 68  1  0  0  0  0
 66 68  1  0  0  0  0
 68 67  1  0  0  0  0
 68 65  1  0  0  0  0
M  END
>  <MODEL>
5

>  <REMARK>
 VINA RESULT:      -5.6      5.586     11.696
  Name = 
  28 active torsions:
  status: ('A' for Active; 'I' for Inactive)
    1  A    between atoms: C_5  and  C_13
    2  A    between atoms: C_7  and  C_9
    3  A    between atoms: C_7  and  C_12
    4  A    between atoms: C_8  and  C_18
    5  A    between atoms: C_8  and  C_48
    6  A    between atoms: C_8  and  O_62
    7  A    between atoms: C_11  and  C_25
    8  A    between atoms: C_12  and  C_15
    9  A    between atoms: C_14  and  C_64
   10  A    between atoms: C_15  and  C_59
   11  A    between atoms: C_15  and  O_60
   12  A    between atoms: C_18  and  O_26
   13  A    between atoms: C_21  and  C_33
   14  A    between atoms: C_22  and  C_23
   15  A    between atoms: C_22  and  O_30
   16  A    between atoms: C_22  and  C_37
   17  A    between atoms: C_23  and  C_66
   18  A    between atoms: C_25  and  C_36
   19  A    between atoms: O_26  and  C_59
   20  A    between atoms: C_33  and  C_61
   21  A    between atoms: C_36  and  C_50
   22  A    between atoms: C_37  and  C_48
   23  A    between atoms: N_43  and  C_50
   24  A    between atoms: N_43  and  C_64
   25  A    between atoms: C_47  and  O_58
   26  A    between atoms: C_47  and  C_63
   27  A    between atoms: O_58  and  C_68
   28  A    between atoms: O_60  and  C_61
                            x       y       z     vdW  Elec       q    Type
                         _______ _______ _______ _____ _____    ______ ____

>  <TORSDO>
F 28

$$$$
=
 OpenBabel11042411093D

 68 77  0  0  1  0  0  0  0  0999 V2000
  186.3910  178.1040  141.4360 C   0  0  1  0  0  3  0  0  0  0  0  0
  185.4380  179.1760  141.9520 C   0  0  0  0  0  2  0  0  0  0  0  0
  184.1980  179.0530  141.3210 O   0  0  0  0  0  0  0  0  0  0  0  0
  183.3560  178.4860  142.2850 C   0  0  1  0  0  3  0  0  0  0  0  0
  183.6470  179.1390  143.6300 C   0  0  0  0  0  1  0  0  0  0  0  0
  181.8870  178.7100  141.8890 C   0  0  1  0  0  3  0  0  0  0  0  0
  180.2320  180.0400  142.7580 C   0  0  0  0  0  1  0  0  0  0  0  0
  181.4550  180.0440  142.0710 O   0  0  0  0  0  0  0  0  0  0  0  0
  181.5340  178.1470  140.5050 C   0  0  0  0  0  2  0  0  0  0  0  0
  180.1750  177.4590  140.5290 C   0  0  0  0  0  2  0  0  0  0  0  0
  180.0320  176.3570  139.4820 C   0  0  2  0  0  3  0  0  0  0  0  0
  179.0700  175.4170  139.8630 O   0  0  0  0  0  0  0  0  0  0  0  0
  179.4710  174.9810  141.0380 O   0  0  0  0  0  1  0  0  0  0  0  0
  181.3640  175.6750  139.2070 C   0  0  0  0  0  2  0  0  0  0  0  0
  182.1790  174.0580  135.3040 C   0  0  0  0  0  2  0  0  0  0  0  0
  179.9100  176.9550  134.6000 C   0  0  0  0  0  2  0  0  0  0  0  0
  183.1460  175.1790  135.7270 C   0  0  1  0  0  0  0  0  0  0  0  0
  179.3280  175.5560  134.7150 C   0  0  0  0  0  2  0  0  0  0  0  0
  183.8660  174.6620  137.9570 O   0  0  0  0  0  1  0  0  0  0  0  0
  183.2820  176.5820  136.4150 C   0  0  2  0  0  0  0  0  0  0  0  0
  184.2480  177.2060  137.3880 C   0  0  0  0  0  2  0  0  0  0  0  0
  181.9200  175.4190  134.7890 C   0  0  2  0  0  3  0  0  0  0  0  0
  184.6610  176.8070  136.1430 O   0  0  0  0  0  0  0  0  0  0  0  0
  182.8880  175.3290  137.2010 C   0  0  1  0  0  0  0  0  0  0  0  0
  180.6130  175.9130  135.4370 C   0  0  0  0  0  0  0  0  0  0  0  0
  180.4830  176.1790  136.9340 C   0  0  0  0  0  2  0  0  0  0  0  0
  181.4350  175.2920  137.7390 C   0  0  2  0  0  3  0  0  0  0  0  0
  186.3130  178.0120  140.0420 O   0  0  0  0  0  0  0  0  0  0  0  0
  187.5790  178.3910  139.5880 C   0  0  0  0  0  2  0  0  0  0  0  0
  187.8530  177.7840  138.2250 C   0  0  0  0  0  2  0  0  0  0  0  0
  190.7780  175.4950  137.2700 C   0  0  0  0  0  0  0  0  0  0  0  0
  189.4740  176.0600  137.2990 C   0  0  0  0  0  0  0  0  0  0  0  0
  189.1950  177.1190  138.1950 C   0  0  0  0  0  0  0  0  0  0  0  0
  191.7460  175.9780  138.1670 C   0  0  0  0  0  3  0  0  0  0  0  0
  190.1800  177.5740  139.0730 C   0  0  0  0  0  3  0  0  0  0  0  0
  191.4500  177.0010  139.0650 C   0  0  0  0  0  0  0  0  0  0  0  0
  192.4950  177.4900  140.0020 C   0  0  0  0  0  1  0  0  0  0  0  0
  191.1910  174.4240  136.3260 C   0  0  0  0  0  0  0  0  0  0  0  0
  191.3050  174.6640  134.9610 O   0  0  0  0  0  0  0  0  0  0  0  0
  191.4600  173.2730  136.7620 O   0  0  0  0  0  1  0  0  0  0  0  0
  188.3730  175.5360  136.4210 C   0  0  0  0  0  2  0  0  0  0  0  0
  188.1360  174.1250  136.7000 N   0  0  0  0  0  2  0  0  0  0  0  0
  186.8480  173.7660  136.1260 C   0  0  0  0  0  2  0  0  0  0  0  0
  186.5020  172.3200  136.4420 C   0  0  0  0  0  2  0  0  0  0  0  0
  185.0360  172.0600  136.1560 C   0  0  0  0  0  2  0  0  0  0  0  0
  184.8790  170.6980  135.5110 C   0  0  0  0  0  3  0  0  0  0  0  0
  183.6610  170.7130  134.6140 C   0  0  0  0  0  2  0  0  0  0  0  0
  183.5820  170.0770  135.9860 C   0  0  0  0  0  2  0  0  0  0  0  0
  187.8220  178.4000  141.8720 C   0  0  0  0  0  2  0  0  0  0  0  0
  188.5530  177.1350  142.2980 C   0  0  0  0  0  2  0  0  0  0  0  0
  192.0160  174.9690  144.0300 N   0  0  1  0  0  0  0  0  0  0  0  0
  188.0190  178.3220  145.0820 N   0  0  0  0  0  0  0  0  0  0  0  0
  190.7380  177.2820  146.3730 N   0  0  0  0  0  0  0  0  0  0  0  0
  189.6720  177.4930  143.2590 C   0  0  2  0  0  3  0  0  0  0  0  0
  189.9490  176.3150  144.2130 C   0  0  2  0  0  3  0  0  0  0  0  0
  192.1450  175.9620  145.0120 N   0  0  0  0  0  2  0  0  0  0  0  0
  189.5200  177.7990  146.8630 N   0  0  0  0  0  2  0  0  0  0  0  0
  190.9420  176.6520  145.2530 C   0  0  0  0  0  0  0  0  0  0  0  0
  189.2930  179.0610  144.1110 S   0  0  0  0  0  0  0  0  0  0  0  0
  190.6630  175.1740  143.4410 C   0  0  1  0  0  3  0  0  0  0  0  0
  188.2350  177.7570  146.2270 C   0  0  0  0  0  0  0  0  0  0  0  0
  191.8670  175.6280  142.7240 C   0  0  0  0  0  2  0  0  0  0  0  0
  187.0650  177.2810  147.0160 C   0  0  0  0  0  2  0  0  0  0  0  0
  185.8860  177.4530  146.2700 O   0  0  0  0  0  0  0  0  0  0  0  0
  185.5470  179.6970  145.9150 F   0  0  0  0  0  0  0  0  0  0  0  0
  183.8770  178.4110  146.6890 F   0  0  0  0  0  0  0  0  0  0  0  0
  185.6000  178.9060  148.0410 F   0  0  0  0  0  0  0  0  0  0  0  0
  185.2420  178.6160  146.7310 C   0  0  0  0  0  0  0  0  0  0  0  0
  1 49  1  6  0  0  0
  1  2  1  0  0  0  0
  3  2  1  0  0  0  0
  3  4  1  0  0  0  0
  4  5  1  1  0  0  0
  6  9  1  6  0  0  0
  6  8  1  0  0  0  0
  6  4  1  0  0  0  0
  8  7  1  0  0  0  0
  9 10  1  0  0  0  0
 11 14  1  1  0  0  0
 11 12  1  0  0  0  0
 11 10  1  0  0  0  0
 12 13  1  0  0  0  0
 16 18  1  0  0  0  0
 16 25  1  0  0  0  0
 17 15  1  6  0  0  0
 17 20  1  0  0  0  0
 17 24  1  0  0  0  0
 18 25  1  0  0  0  0
 20 24  1  0  0  0  0
 20 21  1  6  0  0  0
 22 15  1  1  0  0  0
 22 25  1  0  0  0  0
 22 17  1  0  0  0  0
 23 20  1  0  0  0  0
 23 21  1  0  0  0  0
 24 27  1  0  0  0  0
 24 19  1  1  0  0  0
 25 26  1  0  0  0  0
 26 27  1  0  0  0  0
 27 14  1  1  0  0  0
 28  1  1  0  0  0  0
 29 28  1  0  0  0  0
 30 29  1  0  0  0  0
 31 32  2  0  0  0  0
 31 34  1  0  0  0  0
 32 33  1  0  0  0  0
 33 30  1  0  0  0  0
 33 35  2  0  0  0  0
 34 36  2  0  0  0  0
 36 35  1  0  0  0  0
 36 37  1  0  0  0  0
 38 40  1  0  0  0  0
 38 31  1  0  0  0  0
 39 38  2  0  0  0  0
 41 42  1  0  0  0  0
 41 32  1  0  0  0  0
 43 44  1  0  0  0  0
 43 42  1  0  0  0  0
 45 44  1  0  0  0  0
 46 48  1  0  0  0  0
 46 45  1  0  0  0  0
 47 46  1  0  0  0  0
 47 48  1  0  0  0  0
 49 50  1  0  0  0  0
 51 62  1  6  0  0  0
 51 56  1  0  0  0  0
 52 61  2  0  0  0  0
 53 57  1  0  0  0  0
 54 50  1  6  0  0  0
 54 59  1  0  0  0  0
 54 55  1  0  0  0  0
 55 58  1  1  0  0  0
 56 58  1  0  0  0  0
 58 53  2  0  0  0  0
 59 52  1  0  0  0  0
 60 62  1  6  0  0  0
 60 51  1  0  0  0  0
 60 55  1  0  0  0  0
 61 57  1  0  0  0  0
 61 63  1  0  0  0  0
 64 68  1  0  0  0  0
 64 63  1  0  0  0  0
 65 68  1  0  0  0  0
 66 68  1  0  0  0  0
 68 67  1  0  0  0  0
M  END
>  <MODEL>
6

>  <REMARK>
 VINA RESULT:      -5.4      4.387      9.130
  Name = 
  28 active torsions:
  status: ('A' for Active; 'I' for Inactive)
    1  A    between atoms: C_5  and  C_13
    2  A    between atoms: C_7  and  C_9
    3  A    between atoms: C_7  and  C_12
    4  A    between atoms: C_8  and  C_18
    5  A    between atoms: C_8  and  C_48
    6  A    between atoms: C_8  and  O_62
    7  A    between atoms: C_11  and  C_25
    8  A    between atoms: C_12  and  C_15
    9  A    between atoms: C_14  and  C_64
   10  A    between atoms: C_15  and  C_59
   11  A    between atoms: C_15  and  O_60
   12  A    between atoms: C_18  and  O_26
   13  A    between atoms: C_21  and  C_33
   14  A    between atoms: C_22  and  C_23
   15  A    between atoms: C_22  and  O_30
   16  A    between atoms: C_22  and  C_37
   17  A    between atoms: C_23  and  C_66
   18  A    between atoms: C_25  and  C_36
   19  A    between atoms: O_26  and  C_59
   20  A    between atoms: C_33  and  C_61
   21  A    between atoms: C_36  and  C_50
   22  A    between atoms: C_37  and  C_48
   23  A    between atoms: N_43  and  C_50
   24  A    between atoms: N_43  and  C_64
   25  A    between atoms: C_47  and  O_58
   26  A    between atoms: C_47  and  C_63
   27  A    between atoms: O_58  and  C_68
   28  A    between atoms: O_60  and  C_61
                            x       y       z     vdW  Elec       q    Type
                         _______ _______ _______ _____ _____    ______ ____

>  <TORSDO>
F 28

$$$$
=
 OpenBabel11042411093D

 68 77  0  0  1  0  0  0  0  0999 V2000
  191.4870  177.6770  140.1650 C   0  0  1  0  0  3  0  0  0  0  0  0
  190.0500  177.2960  139.8260 C   0  0  0  0  0  2  0  0  0  0  0  0
  189.5490  178.1600  138.8490 O   0  0  0  0  0  0  0  0  0  0  0  0
  188.3390  177.5840  138.4430 C   0  0  1  0  0  3  0  0  0  0  0  0
  187.2370  178.0490  139.3860 C   0  0  0  0  0  1  0  0  0  0  0  0
  188.0210  178.0050  136.9990 C   0  0  1  0  0  3  0  0  0  0  0  0
  189.4310  177.6490  135.2250 C   0  0  0  0  0  1  0  0  0  0  0  0
  188.4470  177.0630  136.0340 O   0  0  0  0  0  0  0  0  0  0  0  0
  186.5660  178.4540  136.7990 C   0  0  0  0  0  2  0  0  0  0  0  0
  185.8190  177.4830  135.8940 C   0  0  0  0  0  2  0  0  0  0  0  0
  184.9290  176.5020  136.6550 C   0  0  2  0  0  3  0  0  0  0  0  0
  183.9520  175.9520  135.8210 O   0  0  0  0  0  0  0  0  0  0  0  0
  184.0050  176.6690  134.7190 O   0  0  0  0  0  1  0  0  0  0  0  0
  184.2880  177.1590  137.8670 C   0  0  0  0  0  2  0  0  0  0  0  0
  180.0520  176.9880  137.1310 C   0  0  0  0  0  2  0  0  0  0  0  0
  180.4520  175.1900  140.3930 C   0  0  0  0  0  2  0  0  0  0  0  0
  180.4870  178.1990  137.9760 C   0  0  1  0  0  0  0  0  0  0  0  0
  180.3930  174.3950  139.0990 C   0  0  0  0  0  2  0  0  0  0  0  0
  182.3630  179.1860  136.8500 O   0  0  0  0  0  1  0  0  0  0  0  0
  181.4080  178.7000  139.1430 C   0  0  2  0  0  0  0  0  0  0  0  0
  182.2670  179.9160  139.3800 C   0  0  0  0  0  2  0  0  0  0  0  0
  179.8950  176.8940  138.5970 C   0  0  2  0  0  3  0  0  0  0  0  0
  180.9080  180.0300  139.2360 O   0  0  0  0  0  0  0  0  0  0  0  0
  181.9820  178.2290  137.8050 C   0  0  1  0  0  0  0  0  0  0  0  0
  180.8890  175.8280  139.0950 C   0  0  0  0  0  0  0  0  0  0  0  0
  182.4030  176.0070  139.0130 C   0  0  0  0  0  2  0  0  0  0  0  0
  182.7900  176.9070  137.8380 C   0  0  2  0  0  3  0  0  0  0  0  0
  191.7380  177.4740  141.5260 O   0  0  0  0  0  0  0  0  0  0  0  0
  190.4860  177.2090  142.0850 C   0  0  0  0  0  2  0  0  0  0  0  0
  190.4240  177.7300  143.5080 C   0  0  0  0  0  2  0  0  0  0  0  0
  187.3440  177.9180  145.7860 C   0  0  0  0  0  0  0  0  0  0  0  0
  188.6990  177.8000  145.3740 C   0  0  0  0  0  0  0  0  0  0  0  0
  189.0080  177.7980  143.9930 C   0  0  0  0  0  0  0  0  0  0  0  0
  186.3410  177.9880  144.8060 C   0  0  0  0  0  3  0  0  0  0  0  0
  187.9860  177.8690  143.0450 C   0  0  0  0  0  3  0  0  0  0  0  0
  186.6550  177.9550  143.4490 C   0  0  0  0  0  0  0  0  0  0  0  0
  185.5710  178.0310  142.4350 C   0  0  0  0  0  1  0  0  0  0  0  0
  186.9210  177.9920  147.2090 C   0  0  0  0  0  0  0  0  0  0  0  0
  187.8130  178.3450  148.2160 O   0  0  0  0  0  1  0  0  0  0  0  0
  185.7250  177.7450  147.5220 O   0  0  0  0  0  0  0  0  0  0  0  0
  189.8120  177.6420  146.3720 C   0  0  0  0  0  2  0  0  0  0  0  0
  190.1820  176.2380  146.4940 N   0  0  0  0  0  2  0  0  0  0  0  0
  191.6220  176.1380  146.3070 C   0  0  0  0  0  2  0  0  0  0  0  0
  192.3610  176.8560  147.4260 C   0  0  0  0  0  2  0  0  0  0  0  0
  192.5650  175.9210  148.6010 C   0  0  0  0  0  2  0  0  0  0  0  0
  193.7800  176.3590  149.3930 C   0  0  0  0  0  3  0  0  0  0  0  0
  193.5830  175.9880  150.8470 C   0  0  0  0  0  2  0  0  0  0  0  0
  193.3580  177.4150  150.3930 C   0  0  0  0  0  2  0  0  0  0  0  0
  192.4700  176.8770  139.3170 C   0  0  0  0  0  2  0  0  0  0  0  0
  191.8540  175.5790  138.8150 C   0  0  0  0  0  2  0  0  0  0  0  0
  189.8300  173.1620  135.6920 N   0  0  1  0  0  0  0  0  0  0  0  0
  194.4380  175.3800  137.1640 N   0  0  0  0  0  0  0  0  0  0  0  0
  193.0520  174.1050  134.5960 N   0  0  0  0  0  0  0  0  0  0  0  0
  191.8520  175.5700  137.2970 C   0  0  2  0  0  3  0  0  0  0  0  0
  191.8370  174.1200  136.7760 C   0  0  2  0  0  3  0  0  0  0  0  0
  190.7430  173.6320  134.7380 N   0  0  0  0  0  2  0  0  0  0  0  0
  194.3760  174.2540  135.0600 N   0  0  0  0  0  2  0  0  0  0  0  0
  191.9620  174.0470  135.3060 C   0  0  0  0  0  0  0  0  0  0  0  0
  193.2370  176.5710  136.6590 S   0  0  0  0  0  0  0  0  0  0  0  0
  190.4370  173.4940  137.0120 C   0  0  1  0  0  3  0  0  0  0  0  0
  194.8160  174.3910  136.4180 C   0  0  0  0  0  0  0  0  0  0  0  0
  189.3400  174.3110  136.4680 C   0  0  0  0  0  2  0  0  0  0  0  0
  195.9280  173.5260  136.8970 C   0  0  0  0  0  2  0  0  0  0  0  0
  197.1570  174.1820  136.7100 O   0  0  0  0  0  0  0  0  0  0  0  0
  199.1520  173.4470  135.8420 F   0  0  0  0  0  0  0  0  0  0  0  0
  198.7760  173.3440  138.0540 F   0  0  0  0  0  0  0  0  0  0  0  0
  197.6860  171.9350  136.6880 F   0  0  0  0  0  0  0  0  0  0  0  0
  198.1840  173.2260  136.8110 C   0  0  0  0  0  0  0  0  0  0  0  0
  1 49  1  6  0  0  0
  1 28  1  0  0  0  0
  2  1  1  0  0  0  0
  3  2  1  0  0  0  0
  4  3  1  0  0  0  0
  4  5  1  1  0  0  0
  6  9  1  1  0  0  0
  6  4  1  0  0  0  0
  7  8  1  0  0  0  0
  8  6  1  0  0  0  0
 10  9  1  0  0  0  0
 11 10  1  6  0  0  0
 11 14  1  0  0  0  0
 12 11  1  0  0  0  0
 13 12  1  0  0  0  0
 17 15  1  6  0  0  0
 17 22  1  0  0  0  0
 17 20  1  0  0  0  0
 18 16  1  0  0  0  0
 20 23  1  0  0  0  0
 20 21  1  1  0  0  0
 22 15  1  6  0  0  0
 22 25  1  0  0  0  0
 23 21  1  0  0  0  0
 24 19  1  6  0  0  0
 24 27  1  0  0  0  0
 24 17  1  0  0  0  0
 24 20  1  0  0  0  0
 25 18  1  0  0  0  0
 25 16  1  0  0  0  0
 26 25  1  0  0  0  0
 27 14  1  1  0  0  0
 27 26  1  0  0  0  0
 28 29  1  0  0  0  0
 29 30  1  0  0  0  0
 30 33  1  0  0  0  0
 31 38  1  0  0  0  0
 32 31  1  0  0  0  0
 32 41  1  0  0  0  0
 33 32  2  0  0  0  0
 34 31  2  0  0  0  0
 35 36  2  0  0  0  0
 35 33  1  0  0  0  0
 36 34  1  0  0  0  0
 37 36  1  0  0  0  0
 38 40  2  0  0  0  0
 38 39  1  0  0  0  0
 41 42  1  0  0  0  0
 43 42  1  0  0  0  0
 43 44  1  0  0  0  0
 44 45  1  0  0  0  0
 45 46  1  0  0  0  0
 46 48  1  0  0  0  0
 46 47  1  0  0  0  0
 48 47  1  0  0  0  0
 50 49  1  0  0  0  0
 51 62  1  6  0  0  0
 51 60  1  0  0  0  0
 53 57  1  0  0  0  0
 53 58  2  0  0  0  0
 54 50  1  1  0  0  0
 55 58  1  6  0  0  0
 55 60  1  0  0  0  0
 55 54  1  0  0  0  0
 56 58  1  0  0  0  0
 56 51  1  0  0  0  0
 57 61  1  0  0  0  0
 59 52  1  0  0  0  0
 59 54  1  0  0  0  0
 60 62  1  6  0  0  0
 61 63  1  0  0  0  0
 61 52  2  0  0  0  0
 64 68  1  0  0  0  0
 64 63  1  0  0  0  0
 65 68  1  0  0  0  0
 67 68  1  0  0  0  0
 68 66  1  0  0  0  0
M  END
>  <MODEL>
7

>  <REMARK>
 VINA RESULT:      -4.8      2.073      2.995
  Name = 
  28 active torsions:
  status: ('A' for Active; 'I' for Inactive)
    1  A    between atoms: C_5  and  C_13
    2  A    between atoms: C_7  and  C_9
    3  A    between atoms: C_7  and  C_12
    4  A    between atoms: C_8  and  C_18
    5  A    between atoms: C_8  and  C_48
    6  A    between atoms: C_8  and  O_62
    7  A    between atoms: C_11  and  C_25
    8  A    between atoms: C_12  and  C_15
    9  A    between atoms: C_14  and  C_64
   10  A    between atoms: C_15  and  C_59
   11  A    between atoms: C_15  and  O_60
   12  A    between atoms: C_18  and  O_26
   13  A    between atoms: C_21  and  C_33
   14  A    between atoms: C_22  and  C_23
   15  A    between atoms: C_22  and  O_30
   16  A    between atoms: C_22  and  C_37
   17  A    between atoms: C_23  and  C_66
   18  A    between atoms: C_25  and  C_36
   19  A    between atoms: O_26  and  C_59
   20  A    between atoms: C_33  and  C_61
   21  A    between atoms: C_36  and  C_50
   22  A    between atoms: C_37  and  C_48
   23  A    between atoms: N_43  and  C_50
   24  A    between atoms: N_43  and  C_64
   25  A    between atoms: C_47  and  O_58
   26  A    between atoms: C_47  and  C_63
   27  A    between atoms: O_58  and  C_68
   28  A    between atoms: O_60  and  C_61
                            x       y       z     vdW  Elec       q    Type
                         _______ _______ _______ _____ _____    ______ ____

>  <TORSDO>
F 28

$$$$
=
 OpenBabel11042411093D

 68 77  0  0  1  0  0  0  0  0999 V2000
  189.5790  177.3980  139.1780 C   0  0  1  0  0  3  0  0  0  0  0  0
  188.7980  176.2700  138.5150 C   0  0  0  0  0  2  0  0  0  0  0  0
  188.0530  176.7730  137.4460 O   0  0  0  0  0  0  0  0  0  0  0  0
  187.2280  175.7150  137.0490 C   0  0  1  0  0  3  0  0  0  0  0  0
  186.1080  175.5610  138.0700 C   0  0  0  0  0  1  0  0  0  0  0  0
  186.6450  176.0020  135.6560 C   0  0  1  0  0  3  0  0  0  0  0  0
  186.5150  173.9720  134.5940 C   0  0  0  0  0  1  0  0  0  0  0  0
  185.7660  174.9930  135.1980 O   0  0  0  0  0  0  0  0  0  0  0  0
  186.0620  177.4160  135.5160 C   0  0  0  0  0  2  0  0  0  0  0  0
  185.3650  177.8450  136.8000 C   0  0  0  0  0  2  0  0  0  0  0  0
  183.8590  177.5920  136.7900 C   0  0  2  0  0  3  0  0  0  0  0  0
  183.4590  176.9550  135.6110 O   0  0  0  0  0  0  0  0  0  0  0  0
  182.7470  177.8550  134.9670 O   0  0  0  0  0  1  0  0  0  0  0  0
  183.0780  178.8820  136.9910 C   0  0  0  0  0  2  0  0  0  0  0  0
  178.9780  178.1420  138.0670 C   0  0  0  0  0  2  0  0  0  0  0  0
  180.7680  178.1310  141.3580 C   0  0  0  0  0  2  0  0  0  0  0  0
  179.3670  179.6310  138.0890 C   0  0  1  0  0  0  0  0  0  0  0  0
  180.4930  176.8160  140.6490 C   0  0  0  0  0  2  0  0  0  0  0  0
  180.5250  180.0710  136.0340 O   0  0  0  0  0  1  0  0  0  0  0  0
  180.4650  180.6770  138.4900 C   0  0  2  0  0  0  0  0  0  0  0  0
  181.0560  181.9060  137.8480 C   0  0  0  0  0  2  0  0  0  0  0  0
  179.3100  178.7450  139.3750 C   0  0  2  0  0  3  0  0  0  0  0  0
  179.7300  181.8610  138.1990 O   0  0  0  0  0  0  0  0  0  0  0  0
  180.6870  179.6610  137.3670 C   0  0  1  0  0  0  0  0  0  0  0  0
  180.6250  178.1010  139.8550 C   0  0  0  0  0  0  0  0  0  0  0  0
  181.9550  178.3050  139.1360 C   0  0  0  0  0  2  0  0  0  0  0  0
  181.7440  178.5610  137.6430 C   0  0  2  0  0  3  0  0  0  0  0  0
  189.1120  177.6190  140.4780 O   0  0  0  0  0  0  0  0  0  0  0  0
  190.0910  177.0690  141.3080 C   0  0  0  0  0  2  0  0  0  0  0  0
  189.4820  176.0210  142.2190 C   0  0  0  0  0  2  0  0  0  0  0  0
  188.2820  177.4140  145.5840 C   0  0  0  0  0  0  0  0  0  0  0  0
  188.2750  177.0250  144.2180 C   0  0  0  0  0  0  0  0  0  0  0  0
  189.4520  176.4960  143.6390 C   0  0  0  0  0  0  0  0  0  0  0  0
  189.4760  177.3010  146.3150 C   0  0  0  0  0  3  0  0  0  0  0  0
  190.6230  176.3980  144.3940 C   0  0  0  0  0  3  0  0  0  0  0  0
  190.6380  176.8070  145.7260 C   0  0  0  0  0  0  0  0  0  0  0  0
  191.8860  176.7000  146.5250 C   0  0  0  0  0  1  0  0  0  0  0  0
  187.0830  177.9220  146.3020 C   0  0  0  0  0  0  0  0  0  0  0  0
  185.9680  177.1190  146.5130 O   0  0  0  0  0  0  0  0  0  0  0  0
  187.0710  179.1010  146.7470 O   0  0  0  0  0  1  0  0  0  0  0  0
  187.0520  177.1940  143.3610 C   0  0  0  0  0  2  0  0  0  0  0  0
  186.8330  178.6040  143.0680 N   0  0  0  0  0  2  0  0  0  0  0  0
  186.5250  178.7250  141.6510 C   0  0  0  0  0  2  0  0  0  0  0  0
  185.0450  178.4870  141.4000 C   0  0  0  0  0  2  0  0  0  0  0  0
  184.3570  178.0730  142.6850 C   0  0  0  0  0  2  0  0  0  0  0  0
  183.7280  179.2880  143.3380 C   0  0  0  0  0  3  0  0  0  0  0  0
  184.2230  179.3940  144.7640 C   0  0  0  0  0  2  0  0  0  0  0  0
  182.8470  178.8280  144.4810 C   0  0  0  0  0  2  0  0  0  0  0  0
  191.0720  177.0820  139.1950 C   0  0  0  0  0  2  0  0  0  0  0  0
  191.3430  175.6300  138.8310 C   0  0  0  0  0  2  0  0  0  0  0  0
  190.3720  173.2250  135.2300 N   0  0  1  0  0  0  0  0  0  0  0  0
  194.3200  175.1730  138.2200 N   0  0  0  0  0  0  0  0  0  0  0  0
  193.8390  173.8860  135.3470 N   0  0  0  0  0  0  0  0  0  0  0  0
  191.8820  175.5530  137.4130 C   0  0  2  0  0  3  0  0  0  0  0  0
  191.9340  174.0860  136.9450 C   0  0  2  0  0  3  0  0  0  0  0  0
  191.6010  173.5860  134.6590 N   0  0  0  0  0  2  0  0  0  0  0  0
  194.9190  173.9620  136.2520 N   0  0  0  0  0  2  0  0  0  0  0  0
  192.5670  173.9380  135.6190 C   0  0  0  0  0  0  0  0  0  0  0  0
  193.4810  176.4230  137.2990 S   0  0  0  0  0  0  0  0  0  0  0  0
  190.4950  173.5720  136.6740 C   0  0  1  0  0  3  0  0  0  0  0  0
  194.8560  174.1280  137.6760 C   0  0  0  0  0  0  0  0  0  0  0  0
  189.7350  174.4400  135.7590 C   0  0  0  0  0  2  0  0  0  0  0  0
  195.6490  173.2070  138.5360 C   0  0  0  0  0  2  0  0  0  0  0  0
  195.0850  171.9210  138.5030 O   0  0  0  0  0  0  0  0  0  0  0  0
  195.9910  169.8100  138.4910 F   0  0  0  0  0  0  0  0  0  0  0  0
  195.6310  170.8950  136.5590 F   0  0  0  0  0  0  0  0  0  0  0  0
  197.2890  171.5780  137.9100 F   0  0  0  0  0  0  0  0  0  0  0  0
  196.0030  171.0550  137.8800 C   0  0  0  0  0  0  0  0  0  0  0  0
  1  2  1  1  0  0  0
  1 49  1  0  0  0  0
  1 28  1  0  0  0  0
  3  2  1  0  0  0  0
  4  3  1  0  0  0  0
  4  5  1  1  0  0  0
  6  9  1  1  0  0  0
  6  4  1  0  0  0  0
  7  8  1  0  0  0  0
  8  6  1  0  0  0  0
  9 10  1  0  0  0  0
 11 10  1  6  0  0  0
 11 14  1  0  0  0  0
 12 11  1  0  0  0  0
 13 12  1  0  0  0  0
 17 15  1  6  0  0  0
 17 20  1  0  0  0  0
 17 22  1  0  0  0  0
 18 16  1  0  0  0  0
 20 21  1  1  0  0  0
 21 23  1  0  0  0  0
 22 15  1  6  0  0  0
 22 25  1  0  0  0  0
 23 20  1  0  0  0  0
 24 19  1  6  0  0  0
 24 27  1  0  0  0  0
 24 17  1  0  0  0  0
 24 20  1  0  0  0  0
 25 18  1  0  0  0  0
 25 16  1  0  0  0  0
 26 25  1  0  0  0  0
 27 14  1  1  0  0  0
 27 26  1  0  0  0  0
 28 29  1  0  0  0  0
 29 30  1  0  0  0  0
 30 33  1  0  0  0  0
 31 38  1  0  0  0  0
 31 34  1  0  0  0  0
 32 31  2  0  0  0  0
 33 32  1  0  0  0  0
 33 35  2  0  0  0  0
 35 36  1  0  0  0  0
 36 34  2  0  0  0  0
 36 37  1  0  0  0  0
 38 39  2  0  0  0  0
 38 40  1  0  0  0  0
 41 32  1  0  0  0  0
 42 41  1  0  0  0  0
 43 42  1  0  0  0  0
 44 43  1  0  0  0  0
 44 45  1  0  0  0  0
 45 46  1  0  0  0  0
 46 48  1  0  0  0  0
 46 47  1  0  0  0  0
 48 47  1  0  0  0  0
 50 49  1  0  0  0  0
 51 62  1  6  0  0  0
 51 60  1  0  0  0  0
 53 58  2  0  0  0  0
 53 57  1  0  0  0  0
 54 50  1  1  0  0  0
 55 58  1  6  0  0  0
 55 54  1  0  0  0  0
 56 51  1  0  0  0  0
 56 58  1  0  0  0  0
 57 61  1  0  0  0  0
 59 54  1  0  0  0  0
 59 52  1  0  0  0  0
 60 62  1  6  0  0  0
 60 55  1  0  0  0  0
 61 52  2  0  0  0  0
 61 63  1  0  0  0  0
 64 63  1  0  0  0  0
 66 68  1  0  0  0  0
 68 67  1  0  0  0  0
 68 65  1  0  0  0  0
 68 64  1  0  0  0  0
M  END
>  <MODEL>
8

>  <REMARK>
 VINA RESULT:      -4.7      2.027      4.120
  Name = 
  28 active torsions:
  status: ('A' for Active; 'I' for Inactive)
    1  A    between atoms: C_5  and  C_13
    2  A    between atoms: C_7  and  C_9
    3  A    between atoms: C_7  and  C_12
    4  A    between atoms: C_8  and  C_18
    5  A    between atoms: C_8  and  C_48
    6  A    between atoms: C_8  and  O_62
    7  A    between atoms: C_11  and  C_25
    8  A    between atoms: C_12  and  C_15
    9  A    between atoms: C_14  and  C_64
   10  A    between atoms: C_15  and  C_59
   11  A    between atoms: C_15  and  O_60
   12  A    between atoms: C_18  and  O_26
   13  A    between atoms: C_21  and  C_33
   14  A    between atoms: C_22  and  C_23
   15  A    between atoms: C_22  and  O_30
   16  A    between atoms: C_22  and  C_37
   17  A    between atoms: C_23  and  C_66
   18  A    between atoms: C_25  and  C_36
   19  A    between atoms: O_26  and  C_59
   20  A    between atoms: C_33  and  C_61
   21  A    between atoms: C_36  and  C_50
   22  A    between atoms: C_37  and  C_48
   23  A    between atoms: N_43  and  C_50
   24  A    between atoms: N_43  and  C_64
   25  A    between atoms: C_47  and  O_58
   26  A    between atoms: C_47  and  C_63
   27  A    between atoms: O_58  and  C_68
   28  A    between atoms: O_60  and  C_61
                            x       y       z     vdW  Elec       q    Type
                         _______ _______ _______ _____ _____    ______ ____

>  <TORSDO>
F 28

$$$$
=
 OpenBabel11042411093D

 68 77  0  0  1  0  0  0  0  0999 V2000
  190.9810  176.9770  139.0480 C   0  0  1  0  0  3  0  0  0  0  0  0
  189.8020  176.0550  138.7610 C   0  0  0  0  0  2  0  0  0  0  0  0
  188.7090  176.8070  138.3220 O   0  0  0  0  0  0  0  0  0  0  0  0
  188.4500  176.3450  137.0260 C   0  0  1  0  0  3  0  0  0  0  0  0
  189.2640  175.0790  136.7880 C   0  0  0  0  0  1  0  0  0  0  0  0
  186.9480  176.0530  136.8680 C   0  0  1  0  0  3  0  0  0  0  0  0
  186.1650  178.2090  136.9050 C   0  0  0  0  0  1  0  0  0  0  0  0
  186.1240  176.9700  137.5610 O   0  0  0  0  0  0  0  0  0  0  0  0
  186.5170  175.8400  135.4100 C   0  0  0  0  0  2  0  0  0  0  0  0
  185.7830  174.5160  135.2490 C   0  0  0  0  0  2  0  0  0  0  0  0
  185.8460  173.6300  136.4910 C   0  0  2  0  0  3  0  0  0  0  0  0
  186.0380  172.2880  136.1490 O   0  0  0  0  0  0  0  0  0  0  0  0
  187.3340  172.0920  136.2710 O   0  0  0  0  0  1  0  0  0  0  0  0
  184.5990  173.7870  137.3480 C   0  0  0  0  0  2  0  0  0  0  0  0
  181.2920  173.6900  134.5960 C   0  0  0  0  0  2  0  0  0  0  0  0
  180.6120  170.8090  136.8930 C   0  0  0  0  0  2  0  0  0  0  0  0
  181.0160  174.5090  135.8700 C   0  0  1  0  0  0  0  0  0  0  0  0
  181.3160  170.5640  135.5690 C   0  0  0  0  0  2  0  0  0  0  0  0
  182.9120  175.9460  136.1890 O   0  0  0  0  0  1  0  0  0  0  0  0
  181.1830  174.5760  137.4290 C   0  0  2  0  0  0  0  0  0  0  0  0
  181.5420  175.6520  138.4210 C   0  0  0  0  0  2  0  0  0  0  0  0
  180.5300  173.0360  135.6810 C   0  0  2  0  0  3  0  0  0  0  0  0
  180.4010  175.7420  137.6640 O   0  0  0  0  0  0  0  0  0  0  0  0
  182.3810  174.6800  136.4820 C   0  0  1  0  0  0  0  0  0  0  0  0
  181.4170  171.9140  136.2520 C   0  0  0  0  0  0  0  0  0  0  0  0
  182.7240  172.1890  136.9900 C   0  0  0  0  0  2  0  0  0  0  0  0
  183.3720  173.4880  136.5040 C   0  0  2  0  0  3  0  0  0  0  0  0
  190.7880  177.6570  140.2550 O   0  0  0  0  0  0  0  0  0  0  0  0
  189.5620  177.1910  140.7350 C   0  0  0  0  0  2  0  0  0  0  0  0
  188.6740  178.3560  141.1270 C   0  0  0  0  0  2  0  0  0  0  0  0
  186.4020  178.3150  144.2170 C   0  0  0  0  0  0  0  0  0  0  0  0
  186.8440  178.5280  142.8830 C   0  0  0  0  0  0  0  0  0  0  0  0
  188.1750  178.2020  142.5310 C   0  0  0  0  0  0  0  0  0  0  0  0
  187.3170  177.8240  145.1640 C   0  0  0  0  0  3  0  0  0  0  0  0
  189.0580  177.7160  143.4980 C   0  0  0  0  0  3  0  0  0  0  0  0
  188.6340  177.5350  144.8130 C   0  0  0  0  0  0  0  0  0  0  0  0
  189.5780  177.0170  145.8370 C   0  0  0  0  0  1  0  0  0  0  0  0
  185.0100  178.5660  144.6730 C   0  0  0  0  0  0  0  0  0  0  0  0
  184.4760  177.9060  145.7750 O   0  0  0  0  0  1  0  0  0  0  0  0
  184.2920  179.4040  144.0650 O   0  0  0  0  0  0  0  0  0  0  0  0
  185.9380  179.1240  141.8430 C   0  0  0  0  0  2  0  0  0  0  0  0
  185.8590  178.2450  140.6830 N   0  0  0  0  0  2  0  0  0  0  0  0
  184.5210  178.3660  140.1220 C   0  0  0  0  0  2  0  0  0  0  0  0
  183.4660  178.1810  141.2000 C   0  0  0  0  0  2  0  0  0  0  0  0
  182.0970  178.0220  140.5690 C   0  0  0  0  0  2  0  0  0  0  0  0
  181.4710  179.3860  140.3650 C   0  0  0  0  0  3  0  0  0  0  0  0
  179.9680  179.2320  140.2720 C   0  0  0  0  0  2  0  0  0  0  0  0
  180.7890  179.4150  139.0120 C   0  0  0  0  0  2  0  0  0  0  0  0
  192.2860  176.1870  139.0850 C   0  0  0  0  0  2  0  0  0  0  0  0
  192.7290  175.7690  137.6900 C   0  0  0  0  0  2  0  0  0  0  0  0
  195.6990  176.9150  134.5990 N   0  0  1  0  0  0  0  0  0  0  0  0
  194.4420  173.2870  138.2850 N   0  0  0  0  0  0  0  0  0  0  0  0
  196.9200  174.2040  136.5060 N   0  0  0  0  0  0  0  0  0  0  0  0
  194.2460  175.7870  137.6120 C   0  0  2  0  0  3  0  0  0  0  0  0
  194.7100  175.3260  136.2170 C   0  0  2  0  0  3  0  0  0  0  0  0
  196.6960  176.2220  135.3010 N   0  0  0  0  0  2  0  0  0  0  0  0
  196.4990  172.9990  137.1080 N   0  0  0  0  0  2  0  0  0  0  0  0
  196.1790  175.2040  136.1220 C   0  0  0  0  0  0  0  0  0  0  0  0
  194.9590  174.8230  138.9860 S   0  0  0  0  0  0  0  0  0  0  0  0
  194.4110  176.4350  135.1730 C   0  0  1  0  0  3  0  0  0  0  0  0
  195.1590  172.6120  137.4450 C   0  0  0  0  0  0  0  0  0  0  0  0
  194.9560  177.7490  135.5550 C   0  0  0  0  0  2  0  0  0  0  0  0
  194.6780  171.2690  137.0190 C   0  0  0  0  0  2  0  0  0  0  0  0
  193.3400  171.3540  136.6000 O   0  0  0  0  0  0  0  0  0  0  0  0
  194.6070  171.6520  134.7080 F   0  0  0  0  0  0  0  0  0  0  0  0
  192.8500  170.2550  134.6810 F   0  0  0  0  0  0  0  0  0  0  0  0
  192.4920  172.4690  134.7660 F   0  0  0  0  0  0  0  0  0  0  0  0
  193.3250  171.4450  135.1960 C   0  0  0  0  0  0  0  0  0  0  0  0
  1  2  1  1  0  0  0
  1 49  1  0  0  0  0
  1 28  1  0  0  0  0
  3  2  1  0  0  0  0
  4  5  1  1  0  0  0
  4  3  1  0  0  0  0
  6  9  1  6  0  0  0
  6  4  1  0  0  0  0
  6  8  1  0  0  0  0
  7  8  1  0  0  0  0
 10  9  1  0  0  0  0
 11 10  1  6  0  0  0
 11 14  1  0  0  0  0
 12 13  1  0  0  0  0
 12 11  1  0  0  0  0
 17 15  1  6  0  0  0
 17 24  1  0  0  0  0
 17 20  1  0  0  0  0
 18 25  1  0  0  0  0
 18 16  1  0  0  0  0
 20 23  1  0  0  0  0
 20 21  1  1  0  0  0
 22 15  1  6  0  0  0
 22 17  1  0  0  0  0
 22 25  1  0  0  0  0
 23 21  1  0  0  0  0
 24 19  1  6  0  0  0
 24 27  1  0  0  0  0
 24 20  1  0  0  0  0
 25 16  1  0  0  0  0
 25 26  1  0  0  0  0
 27 26  1  0  0  0  0
 27 14  1  1  0  0  0
 28 29  1  0  0  0  0
 29 30  1  0  0  0  0
 30 33  1  0  0  0  0
 31 38  1  0  0  0  0
 31 34  1  0  0  0  0
 32 31  2  0  0  0  0
 33 32  1  0  0  0  0
 33 35  2  0  0  0  0
 35 36  1  0  0  0  0
 36 34  2  0  0  0  0
 36 37  1  0  0  0  0
 38 39  1  0  0  0  0
 40 38  2  0  0  0  0
 41 32  1  0  0  0  0
 42 41  1  0  0  0  0
 43 42  1  0  0  0  0
 43 44  1  0  0  0  0
 45 44  1  0  0  0  0
 46 45  1  0  0  0  0
 47 46  1  0  0  0  0
 48 47  1  0  0  0  0
 48 46  1  0  0  0  0
 50 49  1  0  0  0  0
 51 60  1  0  0  0  0
 51 56  1  0  0  0  0
 51 62  1  1  0  0  0
 52 59  1  0  0  0  0
 53 57  1  0  0  0  0
 54 50  1  6  0  0  0
 54 59  1  0  0  0  0
 55 58  1  1  0  0  0
 55 54  1  0  0  0  0
 56 58  1  0  0  0  0
 57 61  1  0  0  0  0
 58 53  2  0  0  0  0
 60 62  1  1  0  0  0
 60 55  1  0  0  0  0
 61 52  2  0  0  0  0
 63 61  1  0  0  0  0
 64 63  1  0  0  0  0
 65 68  1  0  0  0  0
 66 68  1  0  0  0  0
 67 68  1  0  0  0  0
 68 64  1  0  0  0  0
M  END
>  <MODEL>
9

>  <REMARK>
 VINA RESULT:      -4.6      2.482      5.040
  Name = 
  28 active torsions:
  status: ('A' for Active; 'I' for Inactive)
    1  A    between atoms: C_5  and  C_13
    2  A    between atoms: C_7  and  C_9
    3  A    between atoms: C_7  and  C_12
    4  A    between atoms: C_8  and  C_18
    5  A    between atoms: C_8  and  C_48
    6  A    between atoms: C_8  and  O_62
    7  A    between atoms: C_11  and  C_25
    8  A    between atoms: C_12  and  C_15
    9  A    between atoms: C_14  and  C_64
   10  A    between atoms: C_15  and  C_59
   11  A    between atoms: C_15  and  O_60
   12  A    between atoms: C_18  and  O_26
   13  A    between atoms: C_21  and  C_33
   14  A    between atoms: C_22  and  C_23
   15  A    between atoms: C_22  and  O_30
   16  A    between atoms: C_22  and  C_37
   17  A    between atoms: C_23  and  C_66
   18  A    between atoms: C_25  and  C_36
   19  A    between atoms: O_26  and  C_59
   20  A    between atoms: C_33  and  C_61
   21  A    between atoms: C_36  and  C_50
   22  A    between atoms: C_37  and  C_48
   23  A    between atoms: N_43  and  C_50
   24  A    between atoms: N_43  and  C_64
   25  A    between atoms: C_47  and  O_58
   26  A    between atoms: C_47  and  C_63
   27  A    between atoms: O_58  and  C_68
   28  A    between atoms: O_60  and  C_61
                            x       y       z     vdW  Elec       q    Type
                         _______ _______ _______ _____ _____    ______ ____

>  <TORSDO>
F 28

$$$$
