=
 OpenBabel11032419373D

 49 53  0  0  1  0  0  0  0  0999 V2000
  189.9580  177.4670  143.3480 C   0  0  2  0  0  3  0  0  0  0  0  0
  189.3250  177.7330  145.7490 C   0  0  0  0  0  3  0  0  0  0  0  0
  189.5870  177.5550  147.1090 C   0  0  0  0  0  3  0  0  0  0  0  0
  191.4340  176.6680  145.2430 C   0  0  0  0  0  3  0  0  0  0  0  0
  191.6600  176.5100  146.6120 C   0  0  0  0  0  3  0  0  0  0  0  0
  190.7390  176.9530  147.5090 N   0  0  0  0  0  0  0  0  0  0  0  0
  190.2560  177.2890  144.8080 C   0  0  0  0  0  0  0  0  0  0  0  0
  186.7990  178.8640  141.7830 C   0  0  0  0  0  3  0  0  0  0  0  0
  187.4930  177.1030  143.8390 C   0  0  0  0  0  3  0  0  0  0  0  0
  188.1450  178.5970  142.0480 C   0  0  0  0  0  3  0  0  0  0  0  0
  188.4990  177.7130  143.0730 C   0  0  0  0  0  0  0  0  0  0  0  0
  186.1470  177.3680  143.5730 C   0  0  0  0  0  3  0  0  0  0  0  0
  185.7980  178.2500  142.5440 C   0  0  0  0  0  0  0  0  0  0  0  0
  184.3630  178.5520  142.2670 C   0  0  0  0  0  2  0  0  0  0  0  0
  185.5650  178.8020  138.3010 O   0  0  0  0  0  1  0  0  0  0  0  0
  183.3030  178.0210  138.1530 C   0  0  2  0  0  3  0  0  0  0  0  0
  184.2440  179.1450  138.5950 C   0  0  1  0  0  3  0  0  0  0  0  0
  184.1150  179.4710  140.0220 N   0  0  0  0  0  2  0  0  0  0  0  0
  183.0400  178.0890  136.7670 O   0  0  0  0  0  0  0  0  0  0  0  0
  183.1250  175.7800  136.8970 O   0  0  0  0  0  0  0  0  0  0  0  0
  182.0060  178.0440  138.9720 C   0  0  2  0  0  3  0  0  0  0  0  0
  181.4410  175.9760  137.3420 P   0  0  1  0  0  4  0  0  0  0  0  0
  182.3200  177.5350  140.7010 S   0  0  0  0  0  0  0  0  0  0  0  0
  184.0130  178.2480  140.8190 C   0  0  2  0  0  3  0  0  0  0  0  0
  182.6040  176.8340  136.2400 C   0  0  0  0  0  2  0  0  0  0  0  0
  180.8910  177.2780  138.3960 N   0  0  0  0  0  2  0  0  0  0  0  0
  180.3940  175.3630  136.4430 O   0  0  0  0  0  0  0  0  0  0  0  0
  190.2330  175.1160  142.8180 O   0  0  0  0  0  1  0  0  0  0  0  0
  190.6250  176.4070  142.4600 C   0  0  1  0  0  3  0  0  0  0  0  0
  190.3230  176.6440  141.0440 C   0  0  0  0  0  0  0  0  0  0  0  0
  190.0850  176.8410  139.8790 C   0  0  0  0  0  0  0  0  0  0  0  0
  189.0950  175.9590  135.8270 C   0  0  0  0  0  2  0  0  0  0  0  0
  189.8060  177.0840  138.4630 C   0  0  1  0  0  0  0  0  0  0  0  0
  190.5140  176.4410  136.1270 C   0  0  1  0  0  3  0  0  0  0  0  0
  188.3910  176.6020  138.1410 C   0  0  0  0  0  2  0  0  0  0  0  0
  189.9080  178.4420  138.2140 F   0  0  0  0  0  0  0  0  0  0  0  0
  188.0840  176.7500  136.6500 C   0  0  2  0  0  3  0  0  0  0  0  0
  190.8320  176.3260  137.6190 C   0  0  0  0  0  2  0  0  0  0  0  0
  186.6870  176.2430  136.3520 C   0  0  0  0  0  2  0  0  0  0  0  0
  186.0390  177.1150  135.4760 O   0  0  0  0  0  1  0  0  0  0  0  0
  191.5450  175.6960  135.2850 C   0  0  0  0  0  2  0  0  0  0  0  0
  192.2290  174.2420  136.1460 S   0  0  0  0  0  0  0  0  0  0  0  0
  193.7980  174.3670  135.2470 C   0  0  0  0  0  2  0  0  0  0  0  0
  194.5970  175.5320  135.7920 C   0  0  0  0  0  2  0  0  0  0  0  0
  194.6160  175.4690  137.2410 N   0  0  0  0  0  2  0  0  0  0  0  0
  195.7230  174.6050  137.6150 C   0  0  0  0  0  2  0  0  0  0  0  0
  196.7080  174.3200  139.7610 O   0  0  0  0  0  1  0  0  0  0  0  0
  195.5350  174.1050  139.0370 C   0  0  0  0  0  3  0  0  0  0  0  0
  195.2440  172.7400  139.0250 O   0  0  0  0  0  1  0  0  0  0  0  0
  1 29  1  6  0  0  0
  1  7  1  0  0  0  0
  2  3  1  0  0  0  0
  3  6  2  0  0  0  0
  4  5  2  0  0  0  0
  5  6  1  0  0  0  0
  7  4  1  0  0  0  0
  7  2  2  0  0  0  0
  8 10  2  0  0  0  0
  8 13  1  0  0  0  0
 10 11  1  0  0  0  0
 11  1  1  0  0  0  0
 11  9  2  0  0  0  0
 12  9  1  0  0  0  0
 13 12  2  0  0  0  0
 14 13  1  0  0  0  0
 16 19  1  6  0  0  0
 16 17  1  0  0  0  0
 16 21  1  0  0  0  0
 17 15  1  1  0  0  0
 17 18  1  0  0  0  0
 18 24  1  0  0  0  0
 20 22  1  0  0  0  0
 21 26  1  6  0  0  0
 21 23  1  0  0  0  0
 22 27  2  6  0  0  0
 22 26  1  0  0  0  0
 23 24  1  0  0  0  0
 24 14  1  1  0  0  0
 25 19  1  0  0  0  0
 25 20  1  0  0  0  0
 29 28  1  1  0  0  0
 30 29  1  0  0  0  0
 31 30  3  0  0  0  0
 32 34  1  0  0  0  0
 32 37  1  0  0  0  0
 33 36  1  6  0  0  0
 33 31  1  0  0  0  0
 34 41  1  6  0  0  0
 34 38  1  0  0  0  0
 35 33  1  0  0  0  0
 37 39  1  1  0  0  0
 37 35  1  0  0  0  0
 38 33  1  0  0  0  0
 40 39  1  0  0  0  0
 41 42  1  0  0  0  0
 43 44  1  0  0  0  0
 43 42  1  0  0  0  0
 44 45  1  0  0  0  0
 45 46  1  0  0  0  0
 46 48  1  0  0  0  0
 48 47  1  0  0  0  0
 49 48  1  0  0  0  0
M  END
>  <MODEL>
1

>  <REMARK>
 VINA RESULT:      -8.1      0.000      0.000
  Name = 
  15 active torsions:
  status: ('A' for Active; 'I' for Inactive)
    1  A    between atoms: N_2  and  C_6
    2  A    between atoms: N_2  and  C_21
    3  A    between atoms: S_3  and  C_23
    4  A    between atoms: S_3  and  C_34
    5  A    between atoms: C_6  and  C_34
    6  A    between atoms: C_8  and  C_40
    7  A    between atoms: C_11  and  C_23
    8  A    between atoms: C_17  and  C_43
    9  A    between atoms: C_19  and  C_47
   10  A    between atoms: C_20  and  C_45
   11  A    between atoms: C_21  and  C_24
   12  A    between atoms: C_28  and  C_31
   13  A    between atoms: C_28  and  C_38
   14  A    between atoms: C_42  and  C_47
   15  A    between atoms: C_45  and  C_47
                            x       y       z     vdW  Elec       q    Type
                         _______ _______ _______ _____ _____    ______ ____

>  <TORSDO>
F 15

$$$$
=
 OpenBabel11032419373D

 49 53  0  0  1  0  0  0  0  0999 V2000
  188.4100  177.5980  143.9140 C   0  0  2  0  0  3  0  0  0  0  0  0
  189.7300  177.1910  145.9950 C   0  0  0  0  0  3  0  0  0  0  0  0
  189.8640  177.2290  147.3850 C   0  0  0  0  0  3  0  0  0  0  0  0
  187.5010  178.0950  146.2240 C   0  0  0  0  0  3  0  0  0  0  0  0
  187.6740  178.1150  147.6100 C   0  0  0  0  0  3  0  0  0  0  0  0
  188.8420  177.6850  148.1560 N   0  0  0  0  0  0  0  0  0  0  0  0
  188.5390  177.6240  145.4090 C   0  0  0  0  0  0  0  0  0  0  0  0
  184.6470  178.0770  143.9040 C   0  0  0  0  0  3  0  0  0  0  0  0
  186.7860  178.4010  142.1340 C   0  0  0  0  0  3  0  0  0  0  0  0
  185.9490  177.7830  144.3210 C   0  0  0  0  0  3  0  0  0  0  0  0
  187.0240  177.9470  143.4400 C   0  0  0  0  0  0  0  0  0  0  0  0
  185.4850  178.6970  141.7180 C   0  0  0  0  0  3  0  0  0  0  0  0
  184.4140  178.5350  142.6030 C   0  0  0  0  0  0  0  0  0  0  0  0
  183.0200  178.8300  142.1590 C   0  0  0  0  0  2  0  0  0  0  0  0
  182.7050  180.6910  138.4610 O   0  0  0  0  0  1  0  0  0  0  0  0
  182.2930  178.3820  137.9630 C   0  0  2  0  0  3  0  0  0  0  0  0
  181.8350  179.6310  138.7230 C   0  0  1  0  0  3  0  0  0  0  0  0
  181.7310  179.4120  140.1720 N   0  0  0  0  0  2  0  0  0  0  0  0
  181.8790  178.4230  136.6140 O   0  0  0  0  0  0  0  0  0  0  0  0
  183.9420  177.4520  136.2170 O   0  0  0  0  0  0  0  0  0  0  0  0
  181.8010  177.1090  138.6630 C   0  0  2  0  0  3  0  0  0  0  0  0
  183.0540  175.9800  136.5630 P   0  0  1  0  0  4  0  0  0  0  0  0
  182.6780  176.8560  140.2470 S   0  0  0  0  0  0  0  0  0  0  0  0
  182.8760  178.6410  140.6570 C   0  0  2  0  0  3  0  0  0  0  0  0
  182.6730  177.5750  135.7810 C   0  0  0  0  0  2  0  0  0  0  0  0
  181.8440  175.8900  137.8410 N   0  0  0  0  0  2  0  0  0  0  0  0
  182.9420  174.9450  135.4690 O   0  0  0  0  0  0  0  0  0  0  0  0
  188.1180  175.2900  143.2260 O   0  0  0  0  0  1  0  0  0  0  0  0
  189.0280  176.3470  143.2740 C   0  0  1  0  0  3  0  0  0  0  0  0
  189.5230  176.6390  141.9240 C   0  0  0  0  0  0  0  0  0  0  0  0
  189.9200  176.8770  140.8110 C   0  0  0  0  0  0  0  0  0  0  0  0
  190.1990  176.5890  136.5670 C   0  0  0  0  0  2  0  0  0  0  0  0
  190.3930  177.1640  139.4570 C   0  0  1  0  0  0  0  0  0  0  0  0
  191.3850  176.0960  137.3960 C   0  0  1  0  0  3  0  0  0  0  0  0
  189.2180  177.6530  138.6090 C   0  0  0  0  0  2  0  0  0  0  0  0
  191.3660  178.1480  139.5220 F   0  0  0  0  0  0  0  0  0  0  0  0
  189.6430  177.8800  137.1570 C   0  0  2  0  0  3  0  0  0  0  0  0
  190.9870  175.8890  138.8580 C   0  0  0  0  0  2  0  0  0  0  0  0
  188.4570  178.3400  136.3320 C   0  0  0  0  0  2  0  0  0  0  0  0
  187.6240  179.1510  137.1030 O   0  0  0  0  0  1  0  0  0  0  0  0
  191.9910  174.8280  136.8040 C   0  0  0  0  0  2  0  0  0  0  0  0
  193.2800  175.1850  135.5640 S   0  0  0  0  0  0  0  0  0  0  0  0
  194.4590  174.0720  136.3760 C   0  0  0  0  0  2  0  0  0  0  0  0
  194.3360  174.2210  137.8780 C   0  0  0  0  0  2  0  0  0  0  0  0
  195.4420  175.0160  138.3770 N   0  0  0  0  0  2  0  0  0  0  0  0
  196.5580  174.1090  138.5850 C   0  0  0  0  0  2  0  0  0  0  0  0
  198.3580  175.5680  139.1210 O   0  0  0  0  0  1  0  0  0  0  0  0
  197.8480  174.7540  138.1100 C   0  0  0  0  0  3  0  0  0  0  0  0
  197.6020  175.5260  136.9740 O   0  0  0  0  0  1  0  0  0  0  0  0
  1 29  1  1  0  0  0
  1  7  1  0  0  0  0
  2  3  1  0  0  0  0
  3  6  2  0  0  0  0
  4  5  2  0  0  0  0
  5  6  1  0  0  0  0
  7  2  2  0  0  0  0
  7  4  1  0  0  0  0
  8 10  1  0  0  0  0
  9 11  1  0  0  0  0
 11  1  1  0  0  0  0
 11 10  2  0  0  0  0
 12  9  2  0  0  0  0
 12 13  1  0  0  0  0
 13  8  2  0  0  0  0
 14 13  1  0  0  0  0
 16 19  1  6  0  0  0
 16 21  1  0  0  0  0
 16 17  1  0  0  0  0
 17 15  1  1  0  0  0
 17 18  1  0  0  0  0
 18 24  1  0  0  0  0
 20 22  1  0  0  0  0
 21 26  1  6  0  0  0
 21 23  1  0  0  0  0
 22 27  2  6  0  0  0
 22 26  1  0  0  0  0
 23 24  1  0  0  0  0
 24 14  1  1  0  0  0
 25 20  1  0  0  0  0
 25 19  1  0  0  0  0
 29 28  1  6  0  0  0
 30 29  1  0  0  0  0
 31 30  3  0  0  0  0
 32 37  1  0  0  0  0
 32 34  1  0  0  0  0
 33 36  1  1  0  0  0
 33 31  1  0  0  0  0
 34 41  1  6  0  0  0
 34 38  1  0  0  0  0
 35 33  1  0  0  0  0
 37 39  1  6  0  0  0
 37 35  1  0  0  0  0
 38 33  1  0  0  0  0
 39 40  1  0  0  0  0
 42 43  1  0  0  0  0
 42 41  1  0  0  0  0
 43 44  1  0  0  0  0
 44 45  1  0  0  0  0
 45 46  1  0  0  0  0
 48 46  1  0  0  0  0
 48 47  1  0  0  0  0
 49 48  1  0  0  0  0
M  END
>  <MODEL>
2

>  <REMARK>
 VINA RESULT:      -8.0      1.642      2.148
  Name = 
  15 active torsions:
  status: ('A' for Active; 'I' for Inactive)
    1  A    between atoms: N_2  and  C_6
    2  A    between atoms: N_2  and  C_21
    3  A    between atoms: S_3  and  C_23
    4  A    between atoms: S_3  and  C_34
    5  A    between atoms: C_6  and  C_34
    6  A    between atoms: C_8  and  C_40
    7  A    between atoms: C_11  and  C_23
    8  A    between atoms: C_17  and  C_43
    9  A    between atoms: C_19  and  C_47
   10  A    between atoms: C_20  and  C_45
   11  A    between atoms: C_21  and  C_24
   12  A    between atoms: C_28  and  C_31
   13  A    between atoms: C_28  and  C_38
   14  A    between atoms: C_42  and  C_47
   15  A    between atoms: C_45  and  C_47
                            x       y       z     vdW  Elec       q    Type
                         _______ _______ _______ _____ _____    ______ ____

>  <TORSDO>
F 15

$$$$
=
 OpenBabel11032419373D

 49 53  0  0  1  0  0  0  0  0999 V2000
  188.4810  176.8680  145.6880 C   0  0  2  0  0  3  0  0  0  0  0  0
  189.8650  177.6040  147.6330 C   0  0  0  0  0  3  0  0  0  0  0  0
  191.0570  177.5880  148.3600 C   0  0  0  0  0  3  0  0  0  0  0  0
  190.8730  176.1080  146.0240 C   0  0  0  0  0  3  0  0  0  0  0  0
  192.0470  176.1200  146.7790 C   0  0  0  0  0  3  0  0  0  0  0  0
  192.1140  176.8540  147.9220 N   0  0  0  0  0  0  0  0  0  0  0  0
  189.7720  176.8610  146.4540 C   0  0  0  0  0  0  0  0  0  0  0  0
  188.1120  177.1490  141.9240 C   0  0  0  0  0  3  0  0  0  0  0  0
  189.4650  178.4720  143.9810 C   0  0  0  0  0  3  0  0  0  0  0  0
  187.9680  176.7160  143.2440 C   0  0  0  0  0  3  0  0  0  0  0  0
  188.6400  177.3760  144.2790 C   0  0  0  0  0  0  0  0  0  0  0  0
  189.6070  178.9060  142.6610 C   0  0  0  0  0  3  0  0  0  0  0  0
  188.9310  178.2460  141.6300 C   0  0  0  0  0  0  0  0  0  0  0  0
  189.0940  178.6930  140.2150 C   0  0  0  0  0  2  0  0  0  0  0  0
  190.4740  175.1520  138.5430 O   0  0  0  0  0  1  0  0  0  0  0  0
  188.4940  175.6330  137.2800 C   0  0  2  0  0  3  0  0  0  0  0  0
  189.9000  176.0880  137.6810 C   0  0  1  0  0  3  0  0  0  0  0  0
  189.9140  177.4200  138.3040 N   0  0  0  0  0  2  0  0  0  0  0  0
  188.5420  174.6730  136.2460 O   0  0  0  0  0  0  0  0  0  0  0  0
  186.7740  173.7210  137.3950 O   0  0  0  0  0  0  0  0  0  0  0  0
  187.6240  176.8360  136.8890 C   0  0  2  0  0  3  0  0  0  0  0  0
  185.8450  174.8640  136.4440 P   0  0  1  0  0  4  0  0  0  0  0  0
  187.2230  177.8520  138.3550 S   0  0  0  0  0  0  0  0  0  0  0  0
  188.8050  177.5540  139.2490 C   0  0  2  0  0  3  0  0  0  0  0  0
  187.3530  173.8830  136.1900 C   0  0  0  0  0  2  0  0  0  0  0  0
  186.4070  176.5050  136.1330 N   0  0  0  0  0  2  0  0  0  0  0  0
  184.8260  174.3170  135.4740 O   0  0  0  0  0  0  0  0  0  0  0  0
  187.7420  178.4660  147.3560 O   0  0  0  0  0  1  0  0  0  0  0  0
  187.3110  177.4710  146.4770 C   0  0  1  0  0  3  0  0  0  0  0  0
  186.2920  178.0150  145.5720 C   0  0  0  0  0  0  0  0  0  0  0  0
  185.4500  178.4650  144.8360 C   0  0  0  0  0  0  0  0  0  0  0  0
  182.1190  178.5050  142.1770 C   0  0  0  0  0  2  0  0  0  0  0  0
  184.4230  179.0150  143.9510 C   0  0  1  0  0  0  0  0  0  0  0  0
  183.4890  178.8750  141.6100 C   0  0  1  0  0  3  0  0  0  0  0  0
  183.0420  178.6510  144.4980 C   0  0  0  0  0  2  0  0  0  0  0  0
  184.5630  180.3920  143.9070 F   0  0  0  0  0  0  0  0  0  0  0  0
  181.9340  179.1260  143.5580 C   0  0  2  0  0  3  0  0  0  0  0  0
  184.6120  178.4320  142.5500 C   0  0  0  0  0  2  0  0  0  0  0  0
  180.5780  178.7310  144.1080 C   0  0  0  0  0  2  0  0  0  0  0  0
  179.8140  178.1270  143.1100 O   0  0  0  0  0  1  0  0  0  0  0  0
  183.6860  178.3040  140.2090 C   0  0  0  0  0  2  0  0  0  0  0  0
  183.6770  179.5970  138.9230 S   0  0  0  0  0  0  0  0  0  0  0  0
  181.8880  179.4310  138.6790 C   0  0  0  0  0  2  0  0  0  0  0  0
  181.4030  180.5320  137.7600 C   0  0  0  0  0  2  0  0  0  0  0  0
  181.6340  181.8210  138.3860 N   0  0  0  0  0  2  0  0  0  0  0  0
  180.6780  182.7510  137.8080 C   0  0  0  0  0  2  0  0  0  0  0  0
  182.0720  184.6140  137.3130 O   0  0  0  0  0  1  0  0  0  0  0  0
  181.3480  183.5770  136.7230 C   0  0  0  0  0  3  0  0  0  0  0  0
  180.3830  184.1130  135.8710 O   0  0  0  0  0  1  0  0  0  0  0  0
  1  7  1  0  0  0  0
  1 29  1  1  0  0  0
  2  3  1  0  0  0  0
  4  7  1  0  0  0  0
  4  5  2  0  0  0  0
  5  6  1  0  0  0  0
  6  3  2  0  0  0  0
  7  2  2  0  0  0  0
  8 10  1  0  0  0  0
  9 11  1  0  0  0  0
 10 11  2  0  0  0  0
 11  1  1  0  0  0  0
 12  9  2  0  0  0  0
 13  8  2  0  0  0  0
 13 12  1  0  0  0  0
 14 13  1  0  0  0  0
 16 19  1  6  0  0  0
 16 17  1  0  0  0  0
 17 18  1  0  0  0  0
 17 15  1  1  0  0  0
 18 24  1  0  0  0  0
 21 26  1  1  0  0  0
 21 16  1  0  0  0  0
 21 23  1  0  0  0  0
 22 27  2  6  0  0  0
 22 20  1  0  0  0  0
 23 24  1  0  0  0  0
 24 14  1  1  0  0  0
 25 19  1  0  0  0  0
 25 20  1  0  0  0  0
 26 22  1  0  0  0  0
 29 28  1  1  0  0  0
 30 29  1  0  0  0  0
 31 30  3  0  0  0  0
 32 37  1  0  0  0  0
 33 36  1  6  0  0  0
 33 35  1  0  0  0  0
 33 31  1  0  0  0  0
 34 41  1  6  0  0  0
 34 32  1  0  0  0  0
 34 38  1  0  0  0  0
 37 39  1  1  0  0  0
 37 35  1  0  0  0  0
 38 33  1  0  0  0  0
 40 39  1  0  0  0  0
 42 41  1  0  0  0  0
 43 42  1  0  0  0  0
 44 45  1  0  0  0  0
 44 43  1  0  0  0  0
 46 45  1  0  0  0  0
 48 47  1  0  0  0  0
 48 46  1  0  0  0  0
 49 48  1  0  0  0  0
M  END
>  <MODEL>
3

>  <REMARK>
 VINA RESULT:      -7.9      3.447      8.421
  Name = 
  15 active torsions:
  status: ('A' for Active; 'I' for Inactive)
    1  A    between atoms: N_2  and  C_6
    2  A    between atoms: N_2  and  C_21
    3  A    between atoms: S_3  and  C_23
    4  A    between atoms: S_3  and  C_34
    5  A    between atoms: C_6  and  C_34
    6  A    between atoms: C_8  and  C_40
    7  A    between atoms: C_11  and  C_23
    8  A    between atoms: C_17  and  C_43
    9  A    between atoms: C_19  and  C_47
   10  A    between atoms: C_20  and  C_45
   11  A    between atoms: C_21  and  C_24
   12  A    between atoms: C_28  and  C_31
   13  A    between atoms: C_28  and  C_38
   14  A    between atoms: C_42  and  C_47
   15  A    between atoms: C_45  and  C_47
                            x       y       z     vdW  Elec       q    Type
                         _______ _______ _______ _____ _____    ______ ____

>  <TORSDO>
F 15

$$$$
=
 OpenBabel11032419373D

 49 53  0  0  1  0  0  0  0  0999 V2000
  188.4450  176.8740  145.6790 C   0  0  2  0  0  3  0  0  0  0  0  0
  190.8220  176.1400  145.9020 C   0  0  0  0  0  3  0  0  0  0  0  0
  192.0290  176.1020  146.6040 C   0  0  0  0  0  3  0  0  0  0  0  0
  189.8690  177.4600  147.6880 C   0  0  0  0  0  3  0  0  0  0  0  0
  191.0920  177.3970  148.3600 C   0  0  0  0  0  3  0  0  0  0  0  0
  192.1370  176.7250  147.8080 N   0  0  0  0  0  0  0  0  0  0  0  0
  189.7320  176.8220  146.4480 C   0  0  0  0  0  0  0  0  0  0  0  0
  188.1300  177.1220  141.9070 C   0  0  0  0  0  3  0  0  0  0  0  0
  189.4610  178.4560  143.9710 C   0  0  0  0  0  3  0  0  0  0  0  0
  187.9650  176.7020  143.2300 C   0  0  0  0  0  3  0  0  0  0  0  0
  188.6260  177.3680  144.2680 C   0  0  0  0  0  0  0  0  0  0  0  0
  189.6240  178.8770  142.6490 C   0  0  0  0  0  3  0  0  0  0  0  0
  188.9590  178.2100  141.6150 C   0  0  0  0  0  0  0  0  0  0  0  0
  189.1440  178.6430  140.1980 C   0  0  0  0  0  2  0  0  0  0  0  0
  190.3490  175.1120  138.3780 O   0  0  0  0  0  1  0  0  0  0  0  0
  188.2950  175.6450  137.2620 C   0  0  2  0  0  3  0  0  0  0  0  0
  189.7330  176.0720  137.5730 C   0  0  1  0  0  3  0  0  0  0  0  0
  189.8110  177.3920  138.2150 N   0  0  0  0  0  2  0  0  0  0  0  0
  188.2570  174.7020  136.2110 O   0  0  0  0  0  0  0  0  0  0  0  0
  186.5560  173.7560  137.4640 O   0  0  0  0  0  0  0  0  0  0  0  0
  187.4200  176.8660  136.9510 C   0  0  2  0  0  3  0  0  0  0  0  0
  185.5830  174.9290  136.5980 P   0  0  1  0  0  4  0  0  0  0  0  0
  187.1370  177.8630  138.4580 S   0  0  0  0  0  0  0  0  0  0  0  0
  188.7720  177.5260  139.2360 C   0  0  2  0  0  3  0  0  0  0  0  0
  187.0540  173.9300  136.2250 C   0  0  0  0  0  2  0  0  0  0  0  0
  186.1490  176.5670  136.2760 N   0  0  0  0  0  2  0  0  0  0  0  0
  184.4900  174.4140  135.6920 O   0  0  0  0  0  0  0  0  0  0  0  0
  187.7590  178.5390  147.3040 O   0  0  0  0  0  1  0  0  0  0  0  0
  187.2970  177.5260  146.4620 C   0  0  1  0  0  3  0  0  0  0  0  0
  186.2790  178.0620  145.5510 C   0  0  0  0  0  0  0  0  0  0  0  0
  185.4370  178.5060  144.8120 C   0  0  0  0  0  0  0  0  0  0  0  0
  182.1320  178.5200  142.1190 C   0  0  0  0  0  2  0  0  0  0  0  0
  184.4100  179.0480  143.9220 C   0  0  1  0  0  0  0  0  0  0  0  0
  183.5020  178.9170  141.5700 C   0  0  1  0  0  3  0  0  0  0  0  0
  183.0300  178.6570  144.4520 C   0  0  0  0  0  2  0  0  0  0  0  0
  184.5280  180.4280  143.8920 F   0  0  0  0  0  0  0  0  0  0  0  0
  181.9240  179.1240  143.5040 C   0  0  2  0  0  3  0  0  0  0  0  0
  184.6220  178.4820  142.5170 C   0  0  0  0  0  2  0  0  0  0  0  0
  180.5680  178.7030  144.0380 C   0  0  0  0  0  2  0  0  0  0  0  0
  179.9320  177.8680  143.1190 O   0  0  0  0  0  1  0  0  0  0  0  0
  183.7210  178.3630  140.1660 C   0  0  0  0  0  2  0  0  0  0  0  0
  183.5160  179.6350  138.8760 S   0  0  0  0  0  0  0  0  0  0  0  0
  181.8700  179.0160  138.4370 C   0  0  0  0  0  2  0  0  0  0  0  0
  181.9900  178.0490  137.2780 C   0  0  0  0  0  2  0  0  0  0  0  0
  180.8590  177.1390  137.2890 N   0  0  0  0  0  2  0  0  0  0  0  0
  180.5220  176.8960  138.6820 C   0  0  0  0  0  2  0  0  0  0  0  0
  182.1650  175.4590  139.6260 O   0  0  0  0  0  1  0  0  0  0  0  0
  180.8890  175.4730  139.0640 C   0  0  0  0  0  3  0  0  0  0  0  0
  180.8740  174.6580  137.9310 O   0  0  0  0  0  1  0  0  0  0  0  0
  1  7  1  0  0  0  0
  1 29  1  1  0  0  0
  2  7  2  0  0  0  0
  2  3  1  0  0  0  0
  3  6  2  0  0  0  0
  4  5  2  0  0  0  0
  6  5  1  0  0  0  0
  7  4  1  0  0  0  0
  8 10  1  0  0  0  0
  9 11  1  0  0  0  0
 10 11  2  0  0  0  0
 11  1  1  0  0  0  0
 12  9  2  0  0  0  0
 13  8  2  0  0  0  0
 13 12  1  0  0  0  0
 14 13  1  0  0  0  0
 16 19  1  6  0  0  0
 16 17  1  0  0  0  0
 17 18  1  0  0  0  0
 17 15  1  1  0  0  0
 18 24  1  0  0  0  0
 19 25  1  0  0  0  0
 21 26  1  1  0  0  0
 21 16  1  0  0  0  0
 21 23  1  0  0  0  0
 22 27  2  6  0  0  0
 22 20  1  0  0  0  0
 23 24  1  0  0  0  0
 24 14  1  1  0  0  0
 25 20  1  0  0  0  0
 26 22  1  0  0  0  0
 29 28  1  6  0  0  0
 30 29  1  0  0  0  0
 31 30  3  0  0  0  0
 32 37  1  0  0  0  0
 33 36  1  6  0  0  0
 33 35  1  0  0  0  0
 33 31  1  0  0  0  0
 34 41  1  6  0  0  0
 34 32  1  0  0  0  0
 34 38  1  0  0  0  0
 37 39  1  1  0  0  0
 37 35  1  0  0  0  0
 38 33  1  0  0  0  0
 40 39  1  0  0  0  0
 42 41  1  0  0  0  0
 43 42  1  0  0  0  0
 44 45  1  0  0  0  0
 44 43  1  0  0  0  0
 45 46  1  0  0  0  0
 46 48  1  0  0  0  0
 48 47  1  0  0  0  0
 49 48  1  0  0  0  0
M  END
>  <MODEL>
4

>  <REMARK>
 VINA RESULT:      -7.7      3.315      7.834
  Name = 
  15 active torsions:
  status: ('A' for Active; 'I' for Inactive)
    1  A    between atoms: N_2  and  C_6
    2  A    between atoms: N_2  and  C_21
    3  A    between atoms: S_3  and  C_23
    4  A    between atoms: S_3  and  C_34
    5  A    between atoms: C_6  and  C_34
    6  A    between atoms: C_8  and  C_40
    7  A    between atoms: C_11  and  C_23
    8  A    between atoms: C_17  and  C_43
    9  A    between atoms: C_19  and  C_47
   10  A    between atoms: C_20  and  C_45
   11  A    between atoms: C_21  and  C_24
   12  A    between atoms: C_28  and  C_31
   13  A    between atoms: C_28  and  C_38
   14  A    between atoms: C_42  and  C_47
   15  A    between atoms: C_45  and  C_47
                            x       y       z     vdW  Elec       q    Type
                         _______ _______ _______ _____ _____    ______ ____

>  <TORSDO>
F 15

$$$$
=
 OpenBabel11032419373D

 49 53  0  0  1  0  0  0  0  0999 V2000
  185.9100  177.7840  143.6340 C   0  0  2  0  0  3  0  0  0  0  0  0
  187.6150  177.6260  145.4510 C   0  0  0  0  0  3  0  0  0  0  0  0
  188.0060  177.8060  146.7800 C   0  0  0  0  0  3  0  0  0  0  0  0
  185.4280  178.4810  146.0190 C   0  0  0  0  0  3  0  0  0  0  0  0
  185.8560  178.6450  147.3380 C   0  0  0  0  0  3  0  0  0  0  0  0
  187.1260  178.3070  147.6880 N   0  0  0  0  0  0  0  0  0  0  0  0
  186.3160  177.9630  145.0670 C   0  0  0  0  0  0  0  0  0  0  0  0
  189.1330  176.5860  142.0340 C   0  0  0  0  0  3  0  0  0  0  0  0
  187.2830  178.6510  141.6810 C   0  0  0  0  0  3  0  0  0  0  0  0
  188.0190  176.6750  142.8720 C   0  0  0  0  0  3  0  0  0  0  0  0
  187.0870  177.7040  142.6980 C   0  0  0  0  0  0  0  0  0  0  0  0
  188.3960  178.5610  140.8410 C   0  0  0  0  0  3  0  0  0  0  0  0
  189.3240  177.5290  141.0170 C   0  0  0  0  0  0  0  0  0  0  0  0
  190.5250  177.4390  140.1360 C   0  0  0  0  0  2  0  0  0  0  0  0
  192.0400  174.2610  137.9360 O   0  0  0  0  0  1  0  0  0  0  0  0
  190.0680  174.8910  136.7260 C   0  0  2  0  0  3  0  0  0  0  0  0
  191.4530  175.3110  137.2270 C   0  0  1  0  0  3  0  0  0  0  0  0
  191.4160  176.5210  138.0610 N   0  0  0  0  0  2  0  0  0  0  0  0
  190.1630  174.1150  135.5490 O   0  0  0  0  0  0  0  0  0  0  0  0
  188.4050  172.9390  136.4870 O   0  0  0  0  0  0  0  0  0  0  0  0
  189.1690  176.1170  136.5190 C   0  0  2  0  0  3  0  0  0  0  0  0
  187.4590  174.1980  135.7170 P   0  0  1  0  0  4  0  0  0  0  0  0
  188.7130  176.8670  138.1230 S   0  0  0  0  0  0  0  0  0  0  0  0
  190.2880  176.4680  138.9900 C   0  0  2  0  0  3  0  0  0  0  0  0
  188.9990  173.3130  135.3380 C   0  0  0  0  0  2  0  0  0  0  0  0
  187.9760  175.8820  135.6920 N   0  0  0  0  0  2  0  0  0  0  0  0
  186.4730  173.7910  134.6480 O   0  0  0  0  0  0  0  0  0  0  0  0
  185.2570  180.0360  143.0140 O   0  0  0  0  0  1  0  0  0  0  0  0
  184.7870  178.7350  143.1990 C   0  0  1  0  0  3  0  0  0  0  0  0
  184.1430  178.2590  141.9690 C   0  0  0  0  0  0  0  0  0  0  0  0
  183.6240  177.8680  140.9540 C   0  0  0  0  0  0  0  0  0  0  0  0
  182.3520  177.9170  136.8850 C   0  0  0  0  0  2  0  0  0  0  0  0
  183.0020  177.3930  139.7170 C   0  0  1  0  0  0  0  0  0  0  0  0
  181.2770  177.9800  137.9700 C   0  0  1  0  0  3  0  0  0  0  0  0
  184.0620  177.3300  138.6160 C   0  0  0  0  0  2  0  0  0  0  0  0
  182.4770  176.1310  139.9380 F   0  0  0  0  0  0  0  0  0  0  0  0
  183.4420  176.9250  137.2780 C   0  0  2  0  0  3  0  0  0  0  0  0
  181.8820  178.3570  139.3240 C   0  0  0  0  0  2  0  0  0  0  0  0
  184.5060  176.8940  136.1980 C   0  0  0  0  0  2  0  0  0  0  0  0
  183.9650  177.3130  134.9830 O   0  0  0  0  0  1  0  0  0  0  0  0
  180.1510  178.9330  137.5850 C   0  0  0  0  0  2  0  0  0  0  0  0
  180.6230  180.6830  137.7790 S   0  0  0  0  0  0  0  0  0  0  0  0
  180.4040  181.0050  136.0080 C   0  0  0  0  0  2  0  0  0  0  0  0
  179.9440  182.4340  135.8110 C   0  0  0  0  0  2  0  0  0  0  0  0
  180.9850  183.1880  135.1370 N   0  0  0  0  0  2  0  0  0  0  0  0
  180.9900  184.5200  135.7190 C   0  0  0  0  0  2  0  0  0  0  0  0
  180.1930  185.3140  137.8140 O   0  0  0  0  0  1  0  0  0  0  0  0
  181.0970  184.4260  137.2300 C   0  0  0  0  0  3  0  0  0  0  0  0
  182.3920  184.7520  137.6360 O   0  0  0  0  0  1  0  0  0  0  0  0
  1 29  1  6  0  0  0
  1  7  1  0  0  0  0
  2  3  1  0  0  0  0
  3  6  2  0  0  0  0
  4  5  2  0  0  0  0
  5  6  1  0  0  0  0
  7  2  2  0  0  0  0
  7  4  1  0  0  0  0
  8 10  1  0  0  0  0
  9 11  1  0  0  0  0
 11 10  2  0  0  0  0
 11  1  1  0  0  0  0
 12 13  1  0  0  0  0
 12  9  2  0  0  0  0
 13  8  2  0  0  0  0
 14 13  1  0  0  0  0
 16 19  1  6  0  0  0
 16 17  1  0  0  0  0
 17 15  1  1  0  0  0
 17 18  1  0  0  0  0
 18 24  1  0  0  0  0
 21 26  1  1  0  0  0
 21 16  1  0  0  0  0
 21 23  1  0  0  0  0
 22 27  2  6  0  0  0
 22 20  1  0  0  0  0
 23 24  1  0  0  0  0
 24 14  1  1  0  0  0
 25 19  1  0  0  0  0
 25 20  1  0  0  0  0
 26 22  1  0  0  0  0
 29 28  1  6  0  0  0
 30 29  1  0  0  0  0
 31 30  3  0  0  0  0
 32 37  1  0  0  0  0
 32 34  1  0  0  0  0
 33 36  1  1  0  0  0
 33 31  1  0  0  0  0
 34 41  1  6  0  0  0
 34 38  1  0  0  0  0
 35 33  1  0  0  0  0
 37 39  1  6  0  0  0
 37 35  1  0  0  0  0
 38 33  1  0  0  0  0
 40 39  1  0  0  0  0
 41 42  1  0  0  0  0
 43 42  1  0  0  0  0
 44 43  1  0  0  0  0
 45 46  1  0  0  0  0
 45 44  1  0  0  0  0
 46 48  1  0  0  0  0
 48 49  1  0  0  0  0
 48 47  1  0  0  0  0
M  END
>  <MODEL>
5

>  <REMARK>
 VINA RESULT:      -7.7      3.767      8.937
  Name = 
  15 active torsions:
  status: ('A' for Active; 'I' for Inactive)
    1  A    between atoms: N_2  and  C_6
    2  A    between atoms: N_2  and  C_21
    3  A    between atoms: S_3  and  C_23
    4  A    between atoms: S_3  and  C_34
    5  A    between atoms: C_6  and  C_34
    6  A    between atoms: C_8  and  C_40
    7  A    between atoms: C_11  and  C_23
    8  A    between atoms: C_17  and  C_43
    9  A    between atoms: C_19  and  C_47
   10  A    between atoms: C_20  and  C_45
   11  A    between atoms: C_21  and  C_24
   12  A    between atoms: C_28  and  C_31
   13  A    between atoms: C_28  and  C_38
   14  A    between atoms: C_42  and  C_47
   15  A    between atoms: C_45  and  C_47
                            x       y       z     vdW  Elec       q    Type
                         _______ _______ _______ _____ _____    ______ ____

>  <TORSDO>
F 15

$$$$
=
 OpenBabel11032419373D

 49 53  0  0  1  0  0  0  0  0999 V2000
  188.5180  177.6060  144.0400 C   0  0  2  0  0  3  0  0  0  0  0  0
  190.4800  177.0100  145.4660 C   0  0  0  0  0  3  0  0  0  0  0  0
  191.1020  176.9210  146.7140 C   0  0  0  0  0  3  0  0  0  0  0  0
  188.5100  177.8890  146.5560 C   0  0  0  0  0  3  0  0  0  0  0  0
  189.1660  177.7820  147.7840 C   0  0  0  0  0  3  0  0  0  0  0  0
  190.4380  177.3050  147.8370 N   0  0  0  0  0  0  0  0  0  0  0  0
  189.1730  177.4950  145.3860 C   0  0  0  0  0  0  0  0  0  0  0  0
  185.1120  179.0290  143.1700 C   0  0  0  0  0  3  0  0  0  0  0  0
  186.2700  177.5250  145.2210 C   0  0  0  0  0  3  0  0  0  0  0  0
  186.4660  178.6900  143.1070 C   0  0  0  0  0  3  0  0  0  0  0  0
  187.0510  177.9330  144.1280 C   0  0  0  0  0  0  0  0  0  0  0  0
  184.9160  177.8630  145.2830 C   0  0  0  0  0  3  0  0  0  0  0  0
  184.3350  178.6160  144.2580 C   0  0  0  0  0  0  0  0  0  0  0  0
  182.8940  178.9970  144.3280 C   0  0  0  0  0  2  0  0  0  0  0  0
  180.0390  180.8580  141.9560 O   0  0  0  0  0  1  0  0  0  0  0  0
  180.9560  179.1770  140.5130 C   0  0  2  0  0  3  0  0  0  0  0  0
  180.1960  179.4790  141.8090 C   0  0  1  0  0  3  0  0  0  0  0  0
  180.8510  178.9170  143.0000 N   0  0  0  0  0  2  0  0  0  0  0  0
  180.0980  179.2250  139.3940 O   0  0  0  0  0  0  0  0  0  0  0  0
  181.9310  180.1750  138.3490 O   0  0  0  0  0  0  0  0  0  0  0  0
  181.6790  177.8270  140.6090 C   0  0  2  0  0  3  0  0  0  0  0  0
  182.3600  178.4950  138.0910 P   0  0  1  0  0  4  0  0  0  0  0  0
  183.0780  177.9200  141.7840 S   0  0  0  0  0  0  0  0  0  0  0  0
  182.2970  179.1270  142.9350 C   0  0  2  0  0  3  0  0  0  0  0  0
  180.8140  179.4440  138.1760 C   0  0  0  0  0  2  0  0  0  0  0  0
  182.1130  177.2600  139.3240 N   0  0  0  0  0  2  0  0  0  0  0  0
  182.4660  178.0000  136.6680 O   0  0  0  0  0  0  0  0  0  0  0  0
  187.9830  175.3880  143.2150 O   0  0  0  0  0  1  0  0  0  0  0  0
  188.8780  176.4520  143.0940 C   0  0  1  0  0  3  0  0  0  0  0  0
  188.9210  176.9100  141.7010 C   0  0  0  0  0  0  0  0  0  0  0  0
  188.9620  177.2940  140.5590 C   0  0  0  0  0  0  0  0  0  0  0  0
  188.7070  177.1480  136.3060 C   0  0  0  0  0  2  0  0  0  0  0  0
  189.0180  177.7690  139.1760 C   0  0  1  0  0  0  0  0  0  0  0  0
  190.0890  177.3300  136.9330 C   0  0  1  0  0  3  0  0  0  0  0  0
  187.6440  177.5900  138.5290 C   0  0  0  0  0  2  0  0  0  0  0  0
  189.3650  179.1090  139.1770 F   0  0  0  0  0  0  0  0  0  0  0  0
  187.6750  177.9870  137.0520 C   0  0  2  0  0  3  0  0  0  0  0  0
  190.0730  176.9630  138.4180 C   0  0  0  0  0  2  0  0  0  0  0  0
  186.3100  177.7770  136.4270 C   0  0  0  0  0  2  0  0  0  0  0  0
  186.0780  176.4150  136.2320 O   0  0  0  0  0  1  0  0  0  0  0  0
  191.1520  176.5360  136.1800 C   0  0  0  0  0  2  0  0  0  0  0  0
  190.8180  174.7430  136.1890 S   0  0  0  0  0  0  0  0  0  0  0  0
  192.5490  174.3590  136.5670 C   0  0  0  0  0  2  0  0  0  0  0  0
  193.4170  175.5440  136.2030 C   0  0  0  0  0  2  0  0  0  0  0  0
  194.6060  175.5460  137.0350 N   0  0  0  0  0  2  0  0  0  0  0  0
  194.3340  174.6760  138.1670 C   0  0  0  0  0  2  0  0  0  0  0  0
  196.7030  174.8900  138.1860 O   0  0  0  0  0  1  0  0  0  0  0  0
  195.6370  174.2540  138.8230 C   0  0  0  0  0  3  0  0  0  0  0  0
  195.7950  172.8720  138.7200 O   0  0  0  0  0  1  0  0  0  0  0  0
  1 29  1  1  0  0  0
  1 11  1  0  0  0  0
  1  7  1  0  0  0  0
  2  3  1  0  0  0  0
  3  6  2  0  0  0  0
  4  5  2  0  0  0  0
  5  6  1  0  0  0  0
  7  2  2  0  0  0  0
  7  4  1  0  0  0  0
  8 13  1  0  0  0  0
  9 12  1  0  0  0  0
 10  8  2  0  0  0  0
 10 11  1  0  0  0  0
 11  9  2  0  0  0  0
 13 14  1  0  0  0  0
 13 12  2  0  0  0  0
 16 19  1  6  0  0  0
 16 21  1  0  0  0  0
 16 17  1  0  0  0  0
 17 15  1  1  0  0  0
 17 18  1  0  0  0  0
 21 26  1  6  0  0  0
 21 23  1  0  0  0  0
 22 27  2  6  0  0  0
 22 20  1  0  0  0  0
 22 26  1  0  0  0  0
 23 24  1  0  0  0  0
 24 18  1  0  0  0  0
 24 14  1  1  0  0  0
 25 20  1  0  0  0  0
 25 19  1  0  0  0  0
 29 28  1  6  0  0  0
 30 29  1  0  0  0  0
 31 30  3  0  0  0  0
 32 34  1  0  0  0  0
 32 37  1  0  0  0  0
 33 36  1  6  0  0  0
 33 31  1  0  0  0  0
 34 41  1  6  0  0  0
 34 38  1  0  0  0  0
 35 33  1  0  0  0  0
 37 39  1  6  0  0  0
 37 35  1  0  0  0  0
 38 33  1  0  0  0  0
 40 39  1  0  0  0  0
 41 42  1  0  0  0  0
 42 43  1  0  0  0  0
 44 43  1  0  0  0  0
 44 45  1  0  0  0  0
 45 46  1  0  0  0  0
 46 48  1  0  0  0  0
 47 48  1  0  0  0  0
 49 48  1  0  0  0  0
M  END
>  <MODEL>
6

>  <REMARK>
 VINA RESULT:      -7.5      1.990      2.475
  Name = 
  15 active torsions:
  status: ('A' for Active; 'I' for Inactive)
    1  A    between atoms: N_2  and  C_6
    2  A    between atoms: N_2  and  C_21
    3  A    between atoms: S_3  and  C_23
    4  A    between atoms: S_3  and  C_34
    5  A    between atoms: C_6  and  C_34
    6  A    between atoms: C_8  and  C_40
    7  A    between atoms: C_11  and  C_23
    8  A    between atoms: C_17  and  C_43
    9  A    between atoms: C_19  and  C_47
   10  A    between atoms: C_20  and  C_45
   11  A    between atoms: C_21  and  C_24
   12  A    between atoms: C_28  and  C_31
   13  A    between atoms: C_28  and  C_38
   14  A    between atoms: C_42  and  C_47
   15  A    between atoms: C_45  and  C_47
                            x       y       z     vdW  Elec       q    Type
                         _______ _______ _______ _____ _____    ______ ____

>  <TORSDO>
F 15

$$$$
=
 OpenBabel11032419373D

 49 53  0  0  1  0  0  0  0  0999 V2000
  187.6640  178.0420  143.4950 C   0  0  2  0  0  3  0  0  0  0  0  0
  188.4200  177.5460  145.8230 C   0  0  0  0  0  3  0  0  0  0  0  0
  188.2130  177.5550  147.2040 C   0  0  0  0  0  3  0  0  0  0  0  0
  186.2370  178.5380  145.5270 C   0  0  0  0  0  3  0  0  0  0  0  0
  186.0670  178.5280  146.9130 C   0  0  0  0  0  3  0  0  0  0  0  0
  187.0500  178.0410  147.7160 N   0  0  0  0  0  0  0  0  0  0  0  0
  187.4250  178.0380  144.9770 C   0  0  0  0  0  0  0  0  0  0  0  0
  185.3270  178.9840  140.6600 C   0  0  0  0  0  3  0  0  0  0  0  0
  185.1430  177.8890  143.2250 C   0  0  0  0  0  3  0  0  0  0  0  0
  186.4850  178.7790  141.4160 C   0  0  0  0  0  3  0  0  0  0  0  0
  186.3990  178.2270  142.6990 C   0  0  0  0  0  0  0  0  0  0  0  0
  183.9860  178.0920  142.4690 C   0  0  0  0  0  3  0  0  0  0  0  0
  184.0760  178.6400  141.1850 C   0  0  0  0  0  0  0  0  0  0  0  0
  182.8430  178.8780  140.3800 C   0  0  0  0  0  2  0  0  0  0  0  0
  184.3560  177.2050  136.8950 O   0  0  0  0  0  1  0  0  0  0  0  0
  182.2490  176.0960  137.1790 C   0  0  2  0  0  3  0  0  0  0  0  0
  182.9790  177.4240  136.9560 C   0  0  1  0  0  3  0  0  0  0  0  0
  182.6750  178.4240  137.9900 N   0  0  0  0  0  2  0  0  0  0  0  0
  182.1080  175.3810  135.9690 O   0  0  0  0  0  0  0  0  0  0  0  0
  182.5040  173.5370  137.3110 O   0  0  0  0  0  0  0  0  0  0  0  0
  180.8920  176.3280  137.8560 C   0  0  2  0  0  3  0  0  0  0  0  0
  180.7750  173.6520  137.5770 P   0  0  1  0  0  4  0  0  0  0  0  0
  181.1140  176.8640  139.5910 S   0  0  0  0  0  0  0  0  0  0  0  0
  182.6730  177.8050  139.3150 C   0  0  2  0  0  3  0  0  0  0  0  0
  181.9020  173.9840  136.1920 C   0  0  0  0  0  2  0  0  0  0  0  0
  179.9540  175.1990  137.7730 N   0  0  0  0  0  2  0  0  0  0  0  0
  179.9110  172.4930  137.1410 O   0  0  0  0  0  0  0  0  0  0  0  0
  187.9860  175.6520  143.2310 O   0  0  0  0  0  1  0  0  0  0  0  0
  188.5760  176.9010  143.0250 C   0  0  1  0  0  3  0  0  0  0  0  0
  188.9250  177.0570  141.6090 C   0  0  0  0  0  0  0  0  0  0  0  0
  189.2200  177.1930  140.4480 C   0  0  0  0  0  0  0  0  0  0  0  0
  190.2370  176.0910  136.4570 C   0  0  0  0  0  2  0  0  0  0  0  0
  189.5860  177.3620  139.0420 C   0  0  1  0  0  0  0  0  0  0  0  0
  191.3220  176.7390  137.3180 C   0  0  1  0  0  3  0  0  0  0  0  0
  188.5150  176.7150  138.1630 C   0  0  0  0  0  2  0  0  0  0  0  0
  189.6680  178.7160  138.7620 F   0  0  0  0  0  0  0  0  0  0  0  0
  188.8990  176.7860  136.6840 C   0  0  2  0  0  3  0  0  0  0  0  0
  190.9440  176.7020  138.8000 C   0  0  0  0  0  2  0  0  0  0  0  0
  187.8350  176.1160  135.8370 C   0  0  0  0  0  2  0  0  0  0  0  0
  187.1020  175.2170  136.6120 O   0  0  0  0  0  1  0  0  0  0  0  0
  192.6830  176.0930  137.0790 C   0  0  0  0  0  2  0  0  0  0  0  0
  192.7160  174.3380  137.5730 S   0  0  0  0  0  0  0  0  0  0  0  0
  194.5270  174.3260  137.6440 C   0  0  0  0  0  2  0  0  0  0  0  0
  195.0010  172.9750  138.1360 C   0  0  0  0  0  2  0  0  0  0  0  0
  196.4470  172.9860  138.2620 N   0  0  0  0  0  2  0  0  0  0  0  0
  196.8690  174.3760  138.1930 C   0  0  0  0  0  2  0  0  0  0  0  0
  199.1060  174.3120  137.3880 O   0  0  0  0  0  1  0  0  0  0  0  0
  197.7920  174.5800  137.0040 C   0  0  0  0  0  3  0  0  0  0  0  0
  197.7010  175.8980  136.5550 O   0  0  0  0  0  1  0  0  0  0  0  0
  1 29  1  6  0  0  0
  1  7  1  0  0  0  0
  2  3  1  0  0  0  0
  3  6  2  0  0  0  0
  4  5  2  0  0  0  0
  5  6  1  0  0  0  0
  7  4  1  0  0  0  0
  7  2  2  0  0  0  0
  8 13  2  0  0  0  0
  8 10  1  0  0  0  0
 10 11  2  0  0  0  0
 11  9  1  0  0  0  0
 11  1  1  0  0  0  0
 12  9  2  0  0  0  0
 13 12  1  0  0  0  0
 14 13  1  0  0  0  0
 16 19  1  6  0  0  0
 16 21  1  0  0  0  0
 17 15  1  1  0  0  0
 17 16  1  0  0  0  0
 17 18  1  0  0  0  0
 18 24  1  0  0  0  0
 19 25  1  0  0  0  0
 20 22  1  0  0  0  0
 21 26  1  1  0  0  0
 21 23  1  0  0  0  0
 22 27  2  6  0  0  0
 22 26  1  0  0  0  0
 24 23  1  0  0  0  0
 24 14  1  1  0  0  0
 25 20  1  0  0  0  0
 29 28  1  6  0  0  0
 30 29  1  0  0  0  0
 31 30  3  0  0  0  0
 32 37  1  0  0  0  0
 32 34  1  0  0  0  0
 33 36  1  6  0  0  0
 33 31  1  0  0  0  0
 34 41  1  1  0  0  0
 34 38  1  0  0  0  0
 35 33  1  0  0  0  0
 37 39  1  6  0  0  0
 37 35  1  0  0  0  0
 38 33  1  0  0  0  0
 39 40  1  0  0  0  0
 41 42  1  0  0  0  0
 42 43  1  0  0  0  0
 43 44  1  0  0  0  0
 44 45  1  0  0  0  0
 46 45  1  0  0  0  0
 48 47  1  0  0  0  0
 48 46  1  0  0  0  0
 49 48  1  0  0  0  0
M  END
>  <MODEL>
7

>  <REMARK>
 VINA RESULT:      -7.2      1.929      2.575
  Name = 
  15 active torsions:
  status: ('A' for Active; 'I' for Inactive)
    1  A    between atoms: N_2  and  C_6
    2  A    between atoms: N_2  and  C_21
    3  A    between atoms: S_3  and  C_23
    4  A    between atoms: S_3  and  C_34
    5  A    between atoms: C_6  and  C_34
    6  A    between atoms: C_8  and  C_40
    7  A    between atoms: C_11  and  C_23
    8  A    between atoms: C_17  and  C_43
    9  A    between atoms: C_19  and  C_47
   10  A    between atoms: C_20  and  C_45
   11  A    between atoms: C_21  and  C_24
   12  A    between atoms: C_28  and  C_31
   13  A    between atoms: C_28  and  C_38
   14  A    between atoms: C_42  and  C_47
   15  A    between atoms: C_45  and  C_47
                            x       y       z     vdW  Elec       q    Type
                         _______ _______ _______ _____ _____    ______ ____

>  <TORSDO>
F 15

$$$$
=
 OpenBabel11032419373D

 49 53  0  0  1  0  0  0  0  0999 V2000
  188.8210  177.2630  140.5170 C   0  0  2  0  0  3  0  0  0  0  0  0
  189.8700  176.0240  142.4150 C   0  0  0  0  0  3  0  0  0  0  0  0
  190.6460  175.9960  143.5760 C   0  0  0  0  0  3  0  0  0  0  0  0
  190.1950  178.4160  142.3040 C   0  0  0  0  0  3  0  0  0  0  0  0
  190.9640  178.3460  143.4670 C   0  0  0  0  0  3  0  0  0  0  0  0
  191.1720  177.1470  144.0740 N   0  0  0  0  0  0  0  0  0  0  0  0
  189.6400  177.2430  141.7740 C   0  0  0  0  0  0  0  0  0  0  0  0
  189.4920  175.3930  137.2870 C   0  0  0  0  0  3  0  0  0  0  0  0
  190.9390  176.8650  139.1720 C   0  0  0  0  0  3  0  0  0  0  0  0
  188.8370  175.9530  138.3870 C   0  0  0  0  0  3  0  0  0  0  0  0
  189.5550  176.6940  139.3320 C   0  0  0  0  0  0  0  0  0  0  0  0
  191.5940  176.3060  138.0710 C   0  0  0  0  0  3  0  0  0  0  0  0
  190.8710  175.5690  137.1270 C   0  0  0  0  0  0  0  0  0  0  0  0
  191.5680  174.9540  135.9600 C   0  0  0  0  0  2  0  0  0  0  0  0
  194.8690  177.4680  136.0820 O   0  0  0  0  0  1  0  0  0  0  0  0
  195.8370  175.2750  136.0660 C   0  0  2  0  0  3  0  0  0  0  0  0
  194.9780  176.3030  135.3220 C   0  0  1  0  0  3  0  0  0  0  0  0
  193.6400  175.7940  134.9870 N   0  0  0  0  0  2  0  0  0  0  0  0
  197.2130  175.5420  135.9000 O   0  0  0  0  0  0  0  0  0  0  0  0
  197.3510  174.8610  138.1070 O   0  0  0  0  0  0  0  0  0  0  0  0
  195.4850  173.8490  135.6220 C   0  0  2  0  0  3  0  0  0  0  0  0
  197.4540  173.2750  137.3670 P   0  0  1  0  0  4  0  0  0  0  0  0
  193.8250  173.3720  136.2240 S   0  0  0  0  0  0  0  0  0  0  0  0
  193.0780  175.0510  136.1150 C   0  0  2  0  0  3  0  0  0  0  0  0
  198.0050  174.9510  136.9330 C   0  0  0  0  0  2  0  0  0  0  0  0
  196.4810  172.8250  135.9680 N   0  0  0  0  0  2  0  0  0  0  0  0
  198.7120  172.4690  137.5880 O   0  0  0  0  0  0  0  0  0  0  0  0
  187.4660  178.6280  139.0390 O   0  0  0  0  0  1  0  0  0  0  0  0
  188.1180  178.6060  140.2730 C   0  0  1  0  0  3  0  0  0  0  0  0
  187.1610  178.8990  141.3460 C   0  0  0  0  0  0  0  0  0  0  0  0
  186.3690  179.1320  142.2250 C   0  0  0  0  0  0  0  0  0  0  0  0
  183.5200  178.3290  145.2930 C   0  0  0  0  0  2  0  0  0  0  0  0
  185.4030  179.4050  143.2890 C   0  0  1  0  0  0  0  0  0  0  0  0
  183.0190  178.9900  144.0080 C   0  0  1  0  0  3  0  0  0  0  0  0
  185.8840  178.7470  144.5830 C   0  0  0  0  0  2  0  0  0  0  0  0
  185.3100  180.7760  143.4660 F   0  0  0  0  0  0  0  0  0  0  0  0
  184.8610  178.9270  145.7050 C   0  0  2  0  0  3  0  0  0  0  0  0
  184.0420  178.8430  142.8790 C   0  0  0  0  0  2  0  0  0  0  0  0
  185.3470  178.2450  146.9690 C   0  0  0  0  0  2  0  0  0  0  0  0
  186.6320  177.7390  146.7750 O   0  0  0  0  0  1  0  0  0  0  0  0
  181.6580  178.4420  143.5940 C   0  0  0  0  0  2  0  0  0  0  0  0
  180.6140  179.7040  142.7920 S   0  0  0  0  0  0  0  0  0  0  0  0
  179.9970  178.5120  141.5740 C   0  0  0  0  0  2  0  0  0  0  0  0
  180.1760  179.0800  140.1820 C   0  0  0  0  0  2  0  0  0  0  0  0
  181.4690  179.7320  140.0880 N   0  0  0  0  0  2  0  0  0  0  0  0
  181.9230  179.5820  138.7160 C   0  0  0  0  0  2  0  0  0  0  0  0
  183.3220  177.6860  139.0400 O   0  0  0  0  0  1  0  0  0  0  0  0
  183.3400  179.0380  138.6940 C   0  0  0  0  0  3  0  0  0  0  0  0
  184.1320  179.7370  139.6050 O   0  0  0  0  0  1  0  0  0  0  0  0
  1 29  1  6  0  0  0
  1  7  1  0  0  0  0
  2  3  1  0  0  0  0
  3  6  2  0  0  0  0
  4  5  2  0  0  0  0
  5  6  1  0  0  0  0
  7  4  1  0  0  0  0
  7  2  2  0  0  0  0
  8 10  1  0  0  0  0
  9 11  1  0  0  0  0
 10 11  2  0  0  0  0
 11  1  1  0  0  0  0
 12  9  2  0  0  0  0
 13  8  2  0  0  0  0
 13 12  1  0  0  0  0
 14 13  1  0  0  0  0
 16 19  1  6  0  0  0
 17 16  1  0  0  0  0
 17 15  1  1  0  0  0
 18 17  1  0  0  0  0
 18 24  1  0  0  0  0
 19 25  1  0  0  0  0
 21 26  1  1  0  0  0
 21 16  1  0  0  0  0
 21 23  1  0  0  0  0
 22 27  2  6  0  0  0
 22 20  1  0  0  0  0
 24 14  1  6  0  0  0
 24 23  1  0  0  0  0
 25 20  1  0  0  0  0
 26 22  1  0  0  0  0
 29 28  1  6  0  0  0
 29 30  1  0  0  0  0
 30 31  3  0  0  0  0
 31 33  1  0  0  0  0
 32 37  1  0  0  0  0
 33 36  1  1  0  0  0
 33 35  1  0  0  0  0
 34 41  1  6  0  0  0
 34 32  1  0  0  0  0
 35 37  1  0  0  0  0
 37 39  1  1  0  0  0
 38 33  1  0  0  0  0
 38 34  1  0  0  0  0
 40 39  1  0  0  0  0
 42 41  1  0  0  0  0
 43 42  1  0  0  0  0
 44 43  1  0  0  0  0
 45 44  1  0  0  0  0
 46 45  1  0  0  0  0
 48 46  1  0  0  0  0
 48 47  1  0  0  0  0
 48 49  1  0  0  0  0
M  END
>  <MODEL>
8

>  <REMARK>
 VINA RESULT:      -7.1      3.470     10.806
  Name = 
  15 active torsions:
  status: ('A' for Active; 'I' for Inactive)
    1  A    between atoms: N_2  and  C_6
    2  A    between atoms: N_2  and  C_21
    3  A    between atoms: S_3  and  C_23
    4  A    between atoms: S_3  and  C_34
    5  A    between atoms: C_6  and  C_34
    6  A    between atoms: C_8  and  C_40
    7  A    between atoms: C_11  and  C_23
    8  A    between atoms: C_17  and  C_43
    9  A    between atoms: C_19  and  C_47
   10  A    between atoms: C_20  and  C_45
   11  A    between atoms: C_21  and  C_24
   12  A    between atoms: C_28  and  C_31
   13  A    between atoms: C_28  and  C_38
   14  A    between atoms: C_42  and  C_47
   15  A    between atoms: C_45  and  C_47
                            x       y       z     vdW  Elec       q    Type
                         _______ _______ _______ _____ _____    ______ ____

>  <TORSDO>
F 15

$$$$
=
 OpenBabel11032419373D

 49 53  0  0  1  0  0  0  0  0999 V2000
  189.3880  176.7940  138.8210 C   0  0  2  0  0  3  0  0  0  0  0  0
  191.1320  176.2900  137.1050 C   0  0  0  0  0  3  0  0  0  0  0  0
  192.4690  176.1680  136.7210 C   0  0  0  0  0  3  0  0  0  0  0  0
  191.8660  176.8820  139.3300 C   0  0  0  0  0  3  0  0  0  0  0  0
  193.1900  176.7480  138.9070 C   0  0  0  0  0  3  0  0  0  0  0  0
  193.4620  176.3970  137.6220 N   0  0  0  0  0  0  0  0  0  0  0  0
  190.8260  176.6470  138.4200 C   0  0  0  0  0  0  0  0  0  0  0  0
  186.9330  176.9480  135.9340 C   0  0  0  0  0  3  0  0  0  0  0  0
  188.1020  175.0010  137.5630 C   0  0  0  0  0  3  0  0  0  0  0  0
  187.8410  177.3230  136.9280 C   0  0  0  0  0  3  0  0  0  0  0  0
  188.4320  176.3530  137.7440 C   0  0  0  0  0  0  0  0  0  0  0  0
  187.1950  174.6260  136.5680 C   0  0  0  0  0  3  0  0  0  0  0  0
  186.6090  175.5990  135.7520 C   0  0  0  0  0  0  0  0  0  0  0  0
  185.6260  175.2070  134.7000 C   0  0  0  0  0  2  0  0  0  0  0  0
  182.1580  176.6970  136.4290 O   0  0  0  0  0  1  0  0  0  0  0  0
  181.9620  174.3260  136.7340 C   0  0  2  0  0  3  0  0  0  0  0  0
  182.7600  175.5970  137.0430 C   0  0  1  0  0  3  0  0  0  0  0  0
  184.1680  175.5020  136.6330 N   0  0  0  0  0  2  0  0  0  0  0  0
  180.8350  174.2130  137.5780 O   0  0  0  0  0  0  0  0  0  0  0  0
  179.8140  173.3800  135.6750 O   0  0  0  0  0  0  0  0  0  0  0  0
  182.8590  173.0850  136.8260 C   0  0  2  0  0  3  0  0  0  0  0  0
  180.5260  171.8790  136.2340 P   0  0  1  0  0  4  0  0  0  0  0  0
  184.0610  173.0490  135.4480 S   0  0  0  0  0  0  0  0  0  0  0  0
  184.2760  174.8720  135.3160 C   0  0  2  0  0  3  0  0  0  0  0  0
  179.8310  173.3610  137.0220 C   0  0  0  0  0  2  0  0  0  0  0  0
  182.1440  171.8050  136.9300 N   0  0  0  0  0  2  0  0  0  0  0  0
  179.5970  170.7440  136.5930 O   0  0  0  0  0  0  0  0  0  0  0  0
  187.7340  178.5060  139.2890 O   0  0  0  0  0  1  0  0  0  0  0  0
  189.0730  178.1530  139.4620 C   0  0  1  0  0  3  0  0  0  0  0  0
  189.4050  178.1470  140.8920 C   0  0  0  0  0  0  0  0  0  0  0  0
  189.6700  178.1490  142.0680 C   0  0  0  0  0  0  0  0  0  0  0  0
  189.8640  176.7530  146.0910 C   0  0  0  0  0  2  0  0  0  0  0  0
  189.9830  178.1580  143.4970 C   0  0  1  0  0  0  0  0  0  0  0  0
  188.9530  177.9420  145.7910 C   0  0  1  0  0  3  0  0  0  0  0  0
  190.8910  176.9700  143.8190 C   0  0  0  0  0  2  0  0  0  0  0  0
  190.6320  179.3420  143.8040 F   0  0  0  0  0  0  0  0  0  0  0  0
  191.1730  176.8840  145.3190 C   0  0  2  0  0  3  0  0  0  0  0  0
  188.6800  178.0630  144.2910 C   0  0  0  0  0  2  0  0  0  0  0  0
  192.0530  175.6850  145.6160 C   0  0  0  0  0  2  0  0  0  0  0  0
  192.1460  175.4890  146.9940 O   0  0  0  0  0  1  0  0  0  0  0  0
  187.6520  177.8610  146.5840 C   0  0  0  0  0  2  0  0  0  0  0  0
  186.2240  177.4300  145.5350 S   0  0  0  0  0  0  0  0  0  0  0  0
  185.3920  178.9960  145.9130 C   0  0  0  0  0  2  0  0  0  0  0  0
  184.2160  179.1780  144.9770 C   0  0  0  0  0  2  0  0  0  0  0  0
  184.3380  178.2560  143.8630 N   0  0  0  0  0  2  0  0  0  0  0  0
  183.9550  178.9840  142.6650 C   0  0  0  0  0  2  0  0  0  0  0  0
  186.2610  179.0040  142.0820 O   0  0  0  0  0  1  0  0  0  0  0  0
  184.9850  178.7630  141.5710 C   0  0  0  0  0  3  0  0  0  0  0  0
  184.7410  179.6320  140.5070 O   0  0  0  0  0  1  0  0  0  0  0  0
  1 29  1  6  0  0  0
  2  7  1  0  0  0  0
  3  2  2  0  0  0  0
  3  6  1  0  0  0  0
  5  4  1  0  0  0  0
  6  5  2  0  0  0  0
  7  1  1  0  0  0  0
  7  4  2  0  0  0  0
  8 10  1  0  0  0  0
  9 11  1  0  0  0  0
 10 11  2  0  0  0  0
 11  1  1  0  0  0  0
 12  9  2  0  0  0  0
 13  8  2  0  0  0  0
 13 12  1  0  0  0  0
 14 13  1  0  0  0  0
 16 21  1  0  0  0  0
 16 17  1  0  0  0  0
 16 19  1  1  0  0  0
 17 15  1  6  0  0  0
 18 17  1  0  0  0  0
 20 22  1  0  0  0  0
 20 25  1  0  0  0  0
 21 23  1  6  0  0  0
 21 26  1  0  0  0  0
 22 27  2  1  0  0  0
 22 26  1  0  0  0  0
 24 14  1  1  0  0  0
 24 23  1  0  0  0  0
 24 18  1  0  0  0  0
 25 19  1  0  0  0  0
 29 28  1  1  0  0  0
 29 30  1  0  0  0  0
 30 31  3  0  0  0  0
 31 33  1  0  0  0  0
 33 36  1  1  0  0  0
 33 35  1  0  0  0  0
 33 38  1  0  0  0  0
 34 32  1  0  0  0  0
 34 41  1  1  0  0  0
 35 37  1  0  0  0  0
 37 39  1  6  0  0  0
 37 32  1  0  0  0  0
 38 34  1  0  0  0  0
 39 40  1  0  0  0  0
 42 43  1  0  0  0  0
 42 41  1  0  0  0  0
 44 43  1  0  0  0  0
 45 44  1  0  0  0  0
 46 45  1  0  0  0  0
 48 47  1  0  0  0  0
 48 46  1  0  0  0  0
 49 48  1  0  0  0  0
M  END
>  <MODEL>
9

>  <REMARK>
 VINA RESULT:      -7.1      3.407      8.297
  Name = 
  15 active torsions:
  status: ('A' for Active; 'I' for Inactive)
    1  A    between atoms: N_2  and  C_6
    2  A    between atoms: N_2  and  C_21
    3  A    between atoms: S_3  and  C_23
    4  A    between atoms: S_3  and  C_34
    5  A    between atoms: C_6  and  C_34
    6  A    between atoms: C_8  and  C_40
    7  A    between atoms: C_11  and  C_23
    8  A    between atoms: C_17  and  C_43
    9  A    between atoms: C_19  and  C_47
   10  A    between atoms: C_20  and  C_45
   11  A    between atoms: C_21  and  C_24
   12  A    between atoms: C_28  and  C_31
   13  A    between atoms: C_28  and  C_38
   14  A    between atoms: C_42  and  C_47
   15  A    between atoms: C_45  and  C_47
                            x       y       z     vdW  Elec       q    Type
                         _______ _______ _______ _____ _____    ______ ____

>  <TORSDO>
F 15

$$$$
