=
 OpenBabel11042412213D

 44 49  0  0  1  0  0  0  0  0999 V2000
  190.3000  176.7300  137.8360 C   0  0  1  0  0  3  0  0  0  0  0  0
  189.0180  176.4450  137.1610 N   0  0  0  0  0  0  0  0  0  0  0  0
  188.8620  177.5320  139.7740 C   0  0  0  0  0  0  0  0  0  0  0  0
  188.7380  177.9230  141.1150 C   0  0  0  0  0  0  0  0  0  0  0  0
  191.0840  177.5750  141.3800 N   0  0  0  0  0  0  0  0  0  0  0  0
  191.6010  178.0060  145.0070 C   0  0  0  0  0  3  0  0  0  0  0  0
  187.6480  177.5370  143.8920 N   0  0  0  0  0  0  0  0  0  0  0  0
  187.4500  178.3320  141.6090 N   0  0  0  0  0  0  0  0  0  0  0  0
  189.8940  177.9680  141.9120 C   0  0  0  0  0  0  0  0  0  0  0  0
  188.0580  177.5180  137.4200 C   0  0  0  0  0  2  0  0  0  0  0  0
  188.9200  177.6120  144.1420 C   0  0  0  0  0  0  0  0  0  0  0  0
  186.9570  178.1750  142.8060 C   0  0  0  0  0  3  0  0  0  0  0  0
  187.6510  177.4840  138.8840 C   0  0  0  0  0  2  0  0  0  0  0  0
  190.7270  177.0260  145.6730 C   0  0  0  0  0  0  0  0  0  0  0  0
  189.4630  176.8570  145.2820 C   0  0  0  0  0  3  0  0  0  0  0  0
  190.1130  177.1090  139.2910 C   0  0  0  0  0  0  0  0  0  0  0  0
  191.2480  176.2490  146.8260 C   0  0  0  0  0  1  0  0  0  0  0  0
  189.8250  178.4880  143.3160 C   0  0  0  0  0  0  0  0  0  0  0  0
  191.1900  177.1620  140.1180 N   0  0  0  0  0  0  0  0  0  0  0  0
  191.1880  178.6920  143.9370 C   0  0  0  0  0  2  0  0  0  0  0  0
  189.2060  176.3360  135.7060 C   0  0  0  0  0  2  0  0  0  0  0  0
  188.6060  175.0620  135.1140 C   0  0  0  0  0  2  0  0  0  0  0  0
  187.0960  175.1830  135.0920 C   0  0  0  0  0  2  0  0  0  0  0  0
  186.3680  174.0070  136.2680 S   0  0  0  0  0  0  0  0  0  0  0  0
  184.6710  174.5750  135.9460 C   0  0  0  0  0  2  0  0  0  0  0  0
  183.1250  178.8980  139.8160 C   0  0  0  0  0  3  0  0  0  0  0  0
  182.0980  176.6170  139.7420 C   0  0  0  0  0  2  0  0  0  0  0  0
  183.1890  176.3250  138.8180 N   0  0  0  0  0  0  0  0  0  0  0  0
  183.9790  178.5770  138.6500 C   0  0  0  0  0  3  0  0  0  0  0  0
  184.2320  175.5050  137.0200 C   0  0  0  0  0  0  0  0  0  0  0  0
  184.6530  176.8320  137.1130 O   0  0  0  0  0  0  0  0  0  0  0  0
  182.2770  177.9960  140.3380 C   0  0  0  0  0  3  0  0  0  0  0  0
  183.3620  175.1870  137.9840 C   0  0  0  0  0  3  0  0  0  0  0  0
  183.9720  177.3270  138.2070 C   0  0  0  0  0  0  0  0  0  0  0  0
  191.2350  175.5320  137.7080 C   0  0  0  0  0  2  0  0  0  0  0  0
  192.7940  176.0580  136.9360 S   0  0  0  0  0  0  0  0  0  0  0  0
  193.7140  174.6320  137.5900 C   0  0  0  0  0  2  0  0  0  0  0  0
  194.8820  175.0720  138.3400 N   0  0  0  0  0  2  0  0  0  0  0  0
  195.7590  174.1710  139.0200 C   0  0  0  0  0  0  0  0  0  0  0  0
  195.5280  172.9320  139.0280 O   0  0  0  0  0  0  0  0  0  0  0  0
  196.9670  174.7010  139.7100 C   0  0  0  0  0  2  0  0  0  0  0  0
  197.9770  174.2920  137.4700 O   0  0  0  0  0  0  0  0  0  0  0  0
  199.1620  175.3950  139.0930 O   0  0  0  0  0  1  0  0  0  0  0  0
  198.1020  174.8060  138.7540 C   0  0  0  0  0  0  0  0  0  0  0  0
  1 35  1  1  0  0  0
  1 16  1  0  0  0  0
  2 10  1  0  0  0  0
  2  1  1  0  0  0  0
  3  4  1  0  0  0  0
  4  8  2  0  0  0  0
  4  9  1  0  0  0  0
  5  9  1  0  0  0  0
  6 14  2  0  0  0  0
  7 11  1  0  0  0  0
  8 12  1  0  0  0  0
  9 18  2  0  0  0  0
 10 13  1  0  0  0  0
 11 15  2  0  0  0  0
 12  7  2  0  0  0  0
 13  3  1  0  0  0  0
 14 17  1  0  0  0  0
 15 14  1  0  0  0  0
 16  3  2  0  0  0  0
 16 19  1  0  0  0  0
 18 20  1  0  0  0  0
 18 11  1  0  0  0  0
 19  5  2  0  0  0  0
 20  6  1  0  0  0  0
 21  2  1  0  0  0  0
 22 21  1  0  0  0  0
 23 22  1  0  0  0  0
 23 24  1  0  0  0  0
 25 24  1  0  0  0  0
 25 30  1  0  0  0  0
 26 32  2  0  0  0  0
 27 32  1  0  0  0  0
 28 27  1  0  0  0  0
 29 26  1  0  0  0  0
 30 31  1  0  0  0  0
 30 33  2  0  0  0  0
 31 34  1  0  0  0  0
 33 28  1  0  0  0  0
 34 29  2  0  0  0  0
 34 28  1  0  0  0  0
 36 37  1  0  0  0  0
 36 35  1  0  0  0  0
 37 38  1  0  0  0  0
 38 39  1  0  0  0  0
 39 40  2  0  0  0  0
 39 41  1  0  0  0  0
 42 44  2  0  0  0  0
 44 43  1  0  0  0  0
 44 41  1  0  0  0  0
M  END
>  <MODEL>
1

>  <REMARK>
 VINA RESULT:      -7.9      0.000      0.000
  Name = 
  12 active torsions:
  status: ('A' for Active; 'I' for Inactive)
    1  A    between atoms: C_1  and  C_25
    2  A    between atoms: C_1  and  C_34
    3  A    between atoms: S_2  and  C_34
    4  A    between atoms: S_2  and  C_41
    5  A    between atoms: C_3  and  S_8
    6  A    between atoms: C_3  and  N_27
    7  A    between atoms: C_4  and  C_36
    8  A    between atoms: N_5  and  C_25
    9  A    between atoms: S_8  and  C_36
   10  A    between atoms: C_12  and  C_22
   11  A    between atoms: C_12  and  C_31
   12  A    between atoms: C_35  and  C_41
                            x       y       z     vdW  Elec       q    Type
                         _______ _______ _______ _____ _____    ______ ____

>  <TORSDO>
F 12

$$$$
=
 OpenBabel11042412213D

 44 49  0  0  1  0  0  0  0  0999 V2000
  184.6500  178.9580  140.8150 C   0  0  1  0  0  3  0  0  0  0  0  0
  184.7110  178.6020  142.2480 N   0  0  0  0  0  0  0  0  0  0  0  0
  187.1080  178.3070  140.7640 C   0  0  0  0  0  0  0  0  0  0  0  0
  188.2690  178.0010  140.0390 C   0  0  0  0  0  0  0  0  0  0  0  0
  187.0430  178.3520  138.0230 N   0  0  0  0  0  0  0  0  0  0  0  0
  189.4010  177.2780  135.3970 C   0  0  0  0  0  3  0  0  0  0  0  0
  190.4490  176.0990  139.2170 N   0  0  0  0  0  0  0  0  0  0  0  0
  189.4840  177.7080  140.7530 N   0  0  0  0  0  0  0  0  0  0  0  0
  188.2220  178.0610  138.6360 C   0  0  0  0  0  0  0  0  0  0  0  0
  185.9650  179.0740  142.8350 C   0  0  0  0  0  2  0  0  0  0  0  0
  189.9990  176.4630  138.0550 C   0  0  0  0  0  0  0  0  0  0  0  0
  190.4410  176.8880  140.4180 C   0  0  0  0  0  3  0  0  0  0  0  0
  187.1210  178.2680  142.2660 C   0  0  0  0  0  2  0  0  0  0  0  0
  189.7530  175.8810  135.6990 C   0  0  0  0  0  0  0  0  0  0  0  0
  190.0560  175.5030  136.9410 C   0  0  0  0  0  3  0  0  0  0  0  0
  185.9130  178.5710  140.0720 C   0  0  2  0  0  3  0  0  0  0  0  0
  189.8190  174.8900  134.5950 C   0  0  0  0  0  1  0  0  0  0  0  0
  189.4670  177.8530  137.8280 C   0  0  0  0  0  0  0  0  0  0  0  0
  185.9310  178.5990  138.7140 N   0  0  0  0  0  0  0  0  0  0  0  0
  189.2850  178.1910  136.3650 C   0  0  0  0  0  3  0  0  0  0  0  0
  183.5960  179.2150  142.9860 C   0  0  0  0  0  2  0  0  0  0  0  0
  183.3680  178.5900  144.3610 C   0  0  0  0  0  2  0  0  0  0  0  0
  184.3680  179.1620  145.3440 C   0  0  0  0  0  2  0  0  0  0  0  0
  184.8230  177.8970  146.5640 S   0  0  0  0  0  0  0  0  0  0  0  0
  186.2240  178.8660  147.2000 C   0  0  0  0  0  2  0  0  0  0  0  0
  191.3470  176.6020  145.0320 C   0  0  0  0  0  3  0  0  0  0  0  0
  190.8190  176.8610  147.4660 C   0  0  0  0  0  2  0  0  0  0  0  0
  189.4770  177.1670  146.9840 N   0  0  0  0  0  0  0  0  0  0  0  0
  190.0560  177.2250  144.6630 C   0  0  0  0  0  3  0  0  0  0  0  0
  187.5070  178.2110  146.8290 C   0  0  0  0  0  0  0  0  0  0  0  0
  187.9630  178.0940  145.5150 O   0  0  0  0  0  0  0  0  0  0  0  0
  191.6940  176.4100  146.3160 C   0  0  0  0  0  3  0  0  0  0  0  0
  188.3770  177.7020  147.7070 C   0  0  0  0  0  3  0  0  0  0  0  0
  189.1930  177.4790  145.6370 C   0  0  0  0  0  0  0  0  0  0  0  0
  183.4280  178.3150  140.1700 C   0  0  0  0  0  2  0  0  0  0  0  0
  182.5470  179.5510  139.1710 S   0  0  0  0  0  0  0  0  0  0  0  0
  182.0300  178.3260  137.9300 C   0  0  0  0  0  2  0  0  0  0  0  0
  182.8390  177.1190  138.0300 N   0  0  0  0  0  2  0  0  0  0  0  0
  183.6600  176.6390  136.9620 C   0  0  0  0  0  0  0  0  0  0  0  0
  183.6860  177.2360  135.8520 O   0  0  0  0  0  0  0  0  0  0  0  0
  184.5050  175.4310  137.1710 C   0  0  0  0  0  2  0  0  0  0  0  0
  184.3390  174.2550  134.9810 O   0  0  0  0  0  0  0  0  0  0  0  0
  186.2810  175.3120  135.5860 O   0  0  0  0  0  1  0  0  0  0  0  0
  185.1010  174.9890  135.8810 C   0  0  0  0  0  0  0  0  0  0  0  0
  1 35  1  6  0  0  0
  1  2  1  0  0  0  0
  2 10  1  0  0  0  0
  2 21  1  0  0  0  0
  3 13  1  0  0  0  0
  4  8  1  0  0  0  0
  4  3  2  0  0  0  0
  5  9  1  0  0  0  0
  5 19  2  0  0  0  0
  6 14  1  0  0  0  0
  6 20  2  0  0  0  0
  7 12  1  0  0  0  0
  9  4  1  0  0  0  0
 11  7  2  0  0  0  0
 12  8  2  0  0  0  0
 13 10  1  0  0  0  0
 14 15  2  0  0  0  0
 15 11  1  0  0  0  0
 16 19  1  6  0  0  0
 16  3  1  0  0  0  0
 16  1  1  0  0  0  0
 17 14  1  0  0  0  0
 18 11  1  0  0  0  0
 18  9  2  0  0  0  0
 20 18  1  0  0  0  0
 21 22  1  0  0  0  0
 22 23  1  0  0  0  0
 23 24  1  0  0  0  0
 24 25  1  0  0  0  0
 26 32  2  0  0  0  0
 28 27  1  0  0  0  0
 28 33  1  0  0  0  0
 29 26  1  0  0  0  0
 29 34  2  0  0  0  0
 30 25  1  0  0  0  0
 30 33  2  0  0  0  0
 31 34  1  0  0  0  0
 31 30  1  0  0  0  0
 32 27  1  0  0  0  0
 34 28  1  0  0  0  0
 36 35  1  0  0  0  0
 37 38  1  0  0  0  0
 37 36  1  0  0  0  0
 39 41  1  0  0  0  0
 39 38  1  0  0  0  0
 40 39  2  0  0  0  0
 42 44  2  0  0  0  0
 43 44  1  0  0  0  0
 44 41  1  0  0  0  0
M  END
>  <MODEL>
2

>  <REMARK>
 VINA RESULT:      -7.9      4.425      9.482
  Name = 
  12 active torsions:
  status: ('A' for Active; 'I' for Inactive)
    1  A    between atoms: C_1  and  C_25
    2  A    between atoms: C_1  and  C_34
    3  A    between atoms: S_2  and  C_34
    4  A    between atoms: S_2  and  C_41
    5  A    between atoms: C_3  and  S_8
    6  A    between atoms: C_3  and  N_27
    7  A    between atoms: C_4  and  C_36
    8  A    between atoms: N_5  and  C_25
    9  A    between atoms: S_8  and  C_36
   10  A    between atoms: C_12  and  C_22
   11  A    between atoms: C_12  and  C_31
   12  A    between atoms: C_35  and  C_41
                            x       y       z     vdW  Elec       q    Type
                         _______ _______ _______ _____ _____    ______ ____

>  <TORSDO>
F 12

$$$$
=
 OpenBabel11042412213D

 44 49  0  0  1  0  0  0  0  0999 V2000
  189.3810  178.1090  139.0980 C   0  0  1  0  0  3  0  0  0  0  0  0
  190.3570  177.0880  139.5300 N   0  0  0  0  0  0  0  0  0  0  0  0
  188.3640  176.2450  137.6990 C   0  0  0  0  0  0  0  0  0  0  0  0
  187.3100  175.7490  136.9170 C   0  0  0  0  0  0  0  0  0  0  0  0
  186.1590  177.8120  137.2490 N   0  0  0  0  0  0  0  0  0  0  0  0
  182.8430  177.1810  135.7600 C   0  0  0  0  0  3  0  0  0  0  0  0
  185.0970  173.7780  136.4080 N   0  0  0  0  0  0  0  0  0  0  0  0
  187.4290  174.4390  136.3340 N   0  0  0  0  0  0  0  0  0  0  0  0
  186.2040  176.5800  136.6730 C   0  0  0  0  0  0  0  0  0  0  0  0
  190.7510  176.2520  138.3970 C   0  0  0  0  0  2  0  0  0  0  0  0
  184.4480  174.8970  136.3040 C   0  0  0  0  0  0  0  0  0  0  0  0
  186.4860  173.5680  136.1040 C   0  0  0  0  0  3  0  0  0  0  0  0
  189.5710  175.3930  137.9720 C   0  0  0  0  0  2  0  0  0  0  0  0
  182.2850  176.0140  136.4620 C   0  0  0  0  0  0  0  0  0  0  0  0
  183.0310  174.9340  136.6970 C   0  0  0  0  0  3  0  0  0  0  0  0
  188.2440  177.5150  138.2910 C   0  0  2  0  0  3  0  0  0  0  0  0
  180.8580  176.0230  136.8710 C   0  0  0  0  0  1  0  0  0  0  0  0
  185.1110  176.1310  135.7510 C   0  0  0  0  0  0  0  0  0  0  0  0
  187.1410  178.2630  138.0270 N   0  0  0  0  0  0  0  0  0  0  0  0
  184.1330  177.2350  135.4150 C   0  0  0  0  0  3  0  0  0  0  0  0
  191.5650  177.7210  140.0800 C   0  0  0  0  0  2  0  0  0  0  0  0
  192.1900  176.9300  141.2280 C   0  0  0  0  0  2  0  0  0  0  0  0
  191.6210  177.4200  142.5430 C   0  0  0  0  0  2  0  0  0  0  0  0
  191.2360  176.0040  143.6130 S   0  0  0  0  0  0  0  0  0  0  0  0
  191.2040  177.0180  145.1210 C   0  0  0  0  0  2  0  0  0  0  0  0
  185.8230  178.5430  147.3100 C   0  0  0  0  0  3  0  0  0  0  0  0
  186.2560  177.8510  144.9430 C   0  0  0  0  0  2  0  0  0  0  0  0
  187.5730  177.4850  145.4540 N   0  0  0  0  0  0  0  0  0  0  0  0
  187.2640  178.4310  147.6310 C   0  0  0  0  0  3  0  0  0  0  0  0
  189.7970  177.2860  145.5250 C   0  0  0  0  0  0  0  0  0  0  0  0
  189.4340  177.7720  146.7820 O   0  0  0  0  0  0  0  0  0  0  0  0
  185.3490  178.2550  146.0860 C   0  0  0  0  0  3  0  0  0  0  0  0
  188.7390  177.1330  144.7230 C   0  0  0  0  0  3  0  0  0  0  0  0
  188.0640  177.9180  146.7040 C   0  0  0  0  0  0  0  0  0  0  0  0
  188.8430  178.8630  140.3100 C   0  0  0  0  0  2  0  0  0  0  0  0
  187.8570  177.7350  141.3390 S   0  0  0  0  0  0  0  0  0  0  0  0
  186.5200  178.9480  141.5620 C   0  0  0  0  0  2  0  0  0  0  0  0
  185.2290  178.3550  141.2430 N   0  0  0  0  0  2  0  0  0  0  0  0
  184.3490  178.8870  140.2500 C   0  0  0  0  0  0  0  0  0  0  0  0
  184.6490  179.9380  139.6220 O   0  0  0  0  0  0  0  0  0  0  0  0
  183.0750  178.1810  139.9420 C   0  0  0  0  0  2  0  0  0  0  0  0
  181.8550  178.6980  142.0510 O   0  0  0  0  0  1  0  0  0  0  0  0
  181.0890  179.4950  140.0420 O   0  0  0  0  0  0  0  0  0  0  0  0
  181.9440  178.8170  140.6700 C   0  0  0  0  0  0  0  0  0  0  0  0
  1  2  1  0  0  0  0
  1 35  1  1  0  0  0
  2 21  1  0  0  0  0
  3 13  1  0  0  0  0
  4  3  2  0  0  0  0
  5 19  2  0  0  0  0
  6 14  1  0  0  0  0
  8  4  1  0  0  0  0
  9  4  1  0  0  0  0
  9  5  1  0  0  0  0
 10  2  1  0  0  0  0
 11  7  2  0  0  0  0
 11 15  1  0  0  0  0
 12  8  2  0  0  0  0
 12  7  1  0  0  0  0
 13 10  1  0  0  0  0
 14 15  2  0  0  0  0
 14 17  1  0  0  0  0
 16  3  1  6  0  0  0
 16  1  1  0  0  0  0
 18 11  1  0  0  0  0
 18  9  2  0  0  0  0
 19 16  1  0  0  0  0
 20 18  1  0  0  0  0
 20  6  2  0  0  0  0
 21 22  1  0  0  0  0
 22 23  1  0  0  0  0
 23 24  1  0  0  0  0
 24 25  1  0  0  0  0
 25 30  1  0  0  0  0
 26 29  1  0  0  0  0
 27 28  1  0  0  0  0
 27 32  1  0  0  0  0
 28 34  1  0  0  0  0
 30 31  1  0  0  0  0
 32 26  2  0  0  0  0
 33 28  1  0  0  0  0
 33 30  2  0  0  0  0
 34 31  1  0  0  0  0
 34 29  2  0  0  0  0
 35 36  1  0  0  0  0
 36 37  1  0  0  0  0
 38 37  1  0  0  0  0
 39 38  1  0  0  0  0
 40 39  2  0  0  0  0
 41 39  1  0  0  0  0
 41 44  1  0  0  0  0
 43 44  2  0  0  0  0
 44 42  1  0  0  0  0
M  END
>  <MODEL>
3

>  <REMARK>
 VINA RESULT:      -7.6      4.226      9.652
  Name = 
  12 active torsions:
  status: ('A' for Active; 'I' for Inactive)
    1  A    between atoms: C_1  and  C_25
    2  A    between atoms: C_1  and  C_34
    3  A    between atoms: S_2  and  C_34
    4  A    between atoms: S_2  and  C_41
    5  A    between atoms: C_3  and  S_8
    6  A    between atoms: C_3  and  N_27
    7  A    between atoms: C_4  and  C_36
    8  A    between atoms: N_5  and  C_25
    9  A    between atoms: S_8  and  C_36
   10  A    between atoms: C_12  and  C_22
   11  A    between atoms: C_12  and  C_31
   12  A    between atoms: C_35  and  C_41
                            x       y       z     vdW  Elec       q    Type
                         _______ _______ _______ _____ _____    ______ ____

>  <TORSDO>
F 12

$$$$
=
 OpenBabel11042412213D

 44 49  0  0  1  0  0  0  0  0999 V2000
  187.7520  177.8790  137.9390 C   0  0  1  0  0  3  0  0  0  0  0  0
  188.3160  178.5480  139.1290 N   0  0  0  0  0  0  0  0  0  0  0  0
  185.4980  178.2600  139.0510 C   0  0  0  0  0  0  0  0  0  0  0  0
  184.0960  178.2780  138.9850 C   0  0  0  0  0  0  0  0  0  0  0  0
  184.2470  177.5900  136.7050 N   0  0  0  0  0  0  0  0  0  0  0  0
  180.7590  177.7980  135.5240 C   0  0  0  0  0  3  0  0  0  0  0  0
  181.4610  179.7200  139.1160 N   0  0  0  0  0  0  0  0  0  0  0  0
  183.3430  178.6090  140.1650 N   0  0  0  0  0  0  0  0  0  0  0  0
  183.4760  177.9000  137.7820 C   0  0  0  0  0  0  0  0  0  0  0  0
  187.6210  178.1050  140.3370 C   0  0  0  0  0  2  0  0  0  0  0  0
  181.3600  179.1430  137.9570 C   0  0  0  0  0  0  0  0  0  0  0  0
  182.2020  179.2330  140.2470 C   0  0  0  0  0  3  0  0  0  0  0  0
  186.2000  178.6440  140.3240 C   0  0  0  0  0  2  0  0  0  0  0  0
  180.3230  179.1860  135.7490 C   0  0  0  0  0  0  0  0  0  0  0  0
  180.5860  179.8100  136.8980 C   0  0  0  0  0  2  0  0  0  0  0  0
  186.2390  177.9600  137.8950 C   0  0  0  0  0  0  0  0  0  0  0  0
  179.5400  179.8850  134.6980 C   0  0  0  0  0  1  0  0  0  0  0  0
  181.9830  177.7950  137.7030 C   0  0  0  0  0  0  0  0  0  0  0  0
  185.5780  177.6180  136.7590 N   0  0  0  0  0  0  0  0  0  0  0  0
  181.5040  177.1490  136.4220 C   0  0  0  0  0  3  0  0  0  0  0  0
  189.7460  178.2320  139.2760 C   0  0  0  0  0  2  0  0  0  0  0  0
  190.0230  177.1770  140.3450 C   0  0  0  0  0  2  0  0  0  0  0  0
  191.4420  177.3350  140.8500 C   0  0  0  0  0  2  0  0  0  0  0  0
  191.4600  177.2750  142.6650 S   0  0  0  0  0  0  0  0  0  0  0  0
  189.9100  176.3290  142.7530 C   0  0  0  0  0  2  0  0  0  0  0  0
  187.3860  178.2190  147.8640 C   0  0  0  0  0  3  0  0  0  0  0  0
  186.2810  178.2850  145.6180 C   0  0  0  0  0  2  0  0  0  0  0  0
  187.4230  177.4770  145.2050 N   0  0  0  0  0  0  0  0  0  0  0  0
  188.6260  177.6790  147.2640 C   0  0  0  0  0  3  0  0  0  0  0  0
  189.1170  176.7610  143.9350 C   0  0  0  0  0  0  0  0  0  0  0  0
  189.6440  176.8640  145.2230 O   0  0  0  0  0  0  0  0  0  0  0  0
  186.2970  178.4770  147.1200 C   0  0  0  0  0  3  0  0  0  0  0  0
  187.8340  177.1330  143.8890 C   0  0  0  0  0  3  0  0  0  0  0  0
  188.5930  177.3390  145.9820 C   0  0  0  0  0  0  0  0  0  0  0  0
  188.3590  178.4700  136.6710 C   0  0  0  0  0  2  0  0  0  0  0  0
  188.6370  177.1480  135.4560 S   0  0  0  0  0  0  0  0  0  0  0  0
  189.3920  176.0410  136.6860 C   0  0  0  0  0  2  0  0  0  0  0  0
  190.8300  175.9420  136.4750 N   0  0  0  0  0  2  0  0  0  0  0  0
  191.6270  174.8860  137.0180 C   0  0  0  0  0  0  0  0  0  0  0  0
  191.1100  173.9990  137.7470 O   0  0  0  0  0  0  0  0  0  0  0  0
  193.0810  174.8260  136.7000 C   0  0  0  0  0  2  0  0  0  0  0  0
  193.6000  176.9840  137.8320 O   0  0  0  0  0  0  0  0  0  0  0  0
  194.7200  175.0690  138.4140 O   0  0  0  0  0  1  0  0  0  0  0  0
  193.8570  175.6270  137.6850 C   0  0  0  0  0  0  0  0  0  0  0  0
  1 35  1  6  0  0  0
  1  2  1  0  0  0  0
  2 21  1  0  0  0  0
  2 10  1  0  0  0  0
  3 13  1  0  0  0  0
  4  3  1  0  0  0  0
  4  8  1  0  0  0  0
  5 19  2  0  0  0  0
  5  9  1  0  0  0  0
  6 14  2  0  0  0  0
  6 20  1  0  0  0  0
  7 12  1  0  0  0  0
  8 12  2  0  0  0  0
  9  4  2  0  0  0  0
 11  7  2  0  0  0  0
 13 10  1  0  0  0  0
 14 15  1  0  0  0  0
 15 11  1  0  0  0  0
 16  1  1  0  0  0  0
 16  3  2  0  0  0  0
 17 14  1  0  0  0  0
 18  9  1  0  0  0  0
 18 11  1  0  0  0  0
 19 16  1  0  0  0  0
 20 18  2  0  0  0  0
 21 22  1  0  0  0  0
 22 23  1  0  0  0  0
 23 24  1  0  0  0  0
 24 25  1  0  0  0  0
 25 30  1  0  0  0  0
 27 32  1  0  0  0  0
 28 27  1  0  0  0  0
 28 34  1  0  0  0  0
 29 26  1  0  0  0  0
 30 31  1  0  0  0  0
 31 34  1  0  0  0  0
 32 26  2  0  0  0  0
 33 30  2  0  0  0  0
 33 28  1  0  0  0  0
 34 29  2  0  0  0  0
 36 35  1  0  0  0  0
 36 37  1  0  0  0  0
 38 37  1  0  0  0  0
 38 39  1  0  0  0  0
 39 40  2  0  0  0  0
 41 39  1  0  0  0  0
 41 44  1  0  0  0  0
 44 42  2  0  0  0  0
 44 43  1  0  0  0  0
M  END
>  <MODEL>
4

>  <REMARK>
 VINA RESULT:      -7.6      3.140      7.876
  Name = 
  12 active torsions:
  status: ('A' for Active; 'I' for Inactive)
    1  A    between atoms: C_1  and  C_25
    2  A    between atoms: C_1  and  C_34
    3  A    between atoms: S_2  and  C_34
    4  A    between atoms: S_2  and  C_41
    5  A    between atoms: C_3  and  S_8
    6  A    between atoms: C_3  and  N_27
    7  A    between atoms: C_4  and  C_36
    8  A    between atoms: N_5  and  C_25
    9  A    between atoms: S_8  and  C_36
   10  A    between atoms: C_12  and  C_22
   11  A    between atoms: C_12  and  C_31
   12  A    between atoms: C_35  and  C_41
                            x       y       z     vdW  Elec       q    Type
                         _______ _______ _______ _____ _____    ______ ____

>  <TORSDO>
F 12

$$$$
=
 OpenBabel11042412213D

 44 49  0  0  1  0  0  0  0  0999 V2000
  184.5520  178.9770  141.0120 C   0  0  1  0  0  3  0  0  0  0  0  0
  184.6050  178.6460  142.4500 N   0  0  0  0  0  0  0  0  0  0  0  0
  187.0290  178.4000  141.0010 C   0  0  0  0  0  0  0  0  0  0  0  0
  188.2080  178.1170  140.2950 C   0  0  0  0  0  0  0  0  0  0  0  0
  186.9970  178.4000  138.2590 N   0  0  0  0  0  0  0  0  0  0  0  0
  189.4200  177.3560  135.6800 C   0  0  0  0  0  3  0  0  0  0  0  0
  190.4540  176.2690  139.5320 N   0  0  0  0  0  0  0  0  0  0  0  0
  189.4210  177.8730  141.0290 N   0  0  0  0  0  0  0  0  0  0  0  0
  188.1770  178.1540  138.8910 C   0  0  0  0  0  0  0  0  0  0  0  0
  185.8370  179.1650  143.0450 C   0  0  0  0  0  2  0  0  0  0  0  0
  190.0080  176.6010  138.3580 C   0  0  0  0  0  0  0  0  0  0  0  0
  190.4060  177.0770  140.7190 C   0  0  0  0  0  3  0  0  0  0  0  0
  187.0240  178.3850  142.5040 C   0  0  0  0  0  2  0  0  0  0  0  0
  189.8100  175.9750  136.0090 C   0  0  0  0  0  0  0  0  0  0  0  0
  190.1080  175.6260  137.2610 C   0  0  0  0  0  2  0  0  0  0  0  0
  185.8350  178.6170  140.2900 C   0  0  0  0  0  0  0  0  0  0  0  0
  189.9190  174.9690  134.9220 C   0  0  0  0  0  1  0  0  0  0  0  0
  189.4380  177.9710  138.1020 C   0  0  0  0  0  0  0  0  0  0  0  0
  185.8700  178.6240  138.9320 N   0  0  0  0  0  0  0  0  0  0  0  0
  189.2640  178.2800  136.6320 C   0  0  0  0  0  3  0  0  0  0  0  0
  183.4630  179.2360  143.1650 C   0  0  0  0  0  2  0  0  0  0  0  0
  183.2490  178.6420  144.5550 C   0  0  0  0  0  2  0  0  0  0  0  0
  184.2870  179.2020  145.5050 C   0  0  0  0  0  2  0  0  0  0  0  0
  184.8880  177.8880  146.6050 S   0  0  0  0  0  0  0  0  0  0  0  0
  186.3220  178.8600  147.1540 C   0  0  0  0  0  2  0  0  0  0  0  0
  191.3540  176.4860  144.8930 C   0  0  0  0  0  3  0  0  0  0  0  0
  190.8720  176.7450  147.3360 C   0  0  0  0  0  2  0  0  0  0  0  0
  189.5290  177.0850  146.8770 N   0  0  0  0  0  0  0  0  0  0  0  0
  190.0730  177.1420  144.5470 C   0  0  0  0  0  3  0  0  0  0  0  0
  187.5830  178.1760  146.7590 C   0  0  0  0  0  0  0  0  0  0  0  0
  188.0140  178.0560  145.4370 O   0  0  0  0  0  0  0  0  0  0  0  0
  191.7170  176.2790  146.1700 C   0  0  0  0  0  3  0  0  0  0  0  0
  188.4540  177.6430  147.6210 C   0  0  0  0  0  3  0  0  0  0  0  0
  189.2310  177.4110  145.5370 C   0  0  0  0  0  0  0  0  0  0  0  0
  183.3580  178.2870  140.3620 C   0  0  0  0  0  2  0  0  0  0  0  0
  182.4310  179.4900  139.3640 S   0  0  0  0  0  0  0  0  0  0  0  0
  181.7300  178.2050  138.2850 C   0  0  0  0  0  2  0  0  0  0  0  0
  180.4990  177.6710  138.8520 N   0  0  0  0  0  2  0  0  0  0  0  0
  180.3070  176.2810  139.1300 C   0  0  0  0  0  0  0  0  0  0  0  0
  181.2030  175.4400  138.8530 O   0  0  0  0  0  0  0  0  0  0  0  0
  179.0410  175.8290  139.7710 C   0  0  0  0  0  2  0  0  0  0  0  0
  179.1730  174.5510  141.9050 O   0  0  0  0  0  1  0  0  0  0  0  0
  179.5020  173.4940  139.8970 O   0  0  0  0  0  0  0  0  0  0  0  0
  179.2660  174.5620  140.5190 C   0  0  0  0  0  0  0  0  0  0  0  0
  1 35  1  6  0  0  0
  1  2  1  0  0  0  0
  2 10  1  0  0  0  0
  2 21  1  0  0  0  0
  3 13  1  0  0  0  0
  4  3  1  0  0  0  0
  4  8  1  0  0  0  0
  5  9  1  0  0  0  0
  5 19  2  0  0  0  0
  6 14  2  0  0  0  0
  6 20  1  0  0  0  0
  7 12  1  0  0  0  0
  9  4  2  0  0  0  0
 11  7  2  0  0  0  0
 12  8  2  0  0  0  0
 13 10  1  0  0  0  0
 14 15  1  0  0  0  0
 15 11  1  0  0  0  0
 16  3  2  0  0  0  0
 16  1  1  0  0  0  0
 17 14  1  0  0  0  0
 18 11  1  0  0  0  0
 18  9  1  0  0  0  0
 19 16  1  0  0  0  0
 20 18  2  0  0  0  0
 21 22  1  0  0  0  0
 22 23  1  0  0  0  0
 23 24  1  0  0  0  0
 24 25  1  0  0  0  0
 26 32  2  0  0  0  0
 28 27  1  0  0  0  0
 28 33  1  0  0  0  0
 29 26  1  0  0  0  0
 29 34  2  0  0  0  0
 30 25  1  0  0  0  0
 30 33  2  0  0  0  0
 31 34  1  0  0  0  0
 31 30  1  0  0  0  0
 32 27  1  0  0  0  0
 34 28  1  0  0  0  0
 36 35  1  0  0  0  0
 37 38  1  0  0  0  0
 37 36  1  0  0  0  0
 38 39  1  0  0  0  0
 39 41  1  0  0  0  0
 40 39  2  0  0  0  0
 41 44  1  0  0  0  0
 43 44  2  0  0  0  0
 44 42  1  0  0  0  0
M  END
>  <MODEL>
5

>  <REMARK>
 VINA RESULT:      -7.6      4.770     10.518
  Name = 
  12 active torsions:
  status: ('A' for Active; 'I' for Inactive)
    1  A    between atoms: C_1  and  C_25
    2  A    between atoms: C_1  and  C_34
    3  A    between atoms: S_2  and  C_34
    4  A    between atoms: S_2  and  C_41
    5  A    between atoms: C_3  and  S_8
    6  A    between atoms: C_3  and  N_27
    7  A    between atoms: C_4  and  C_36
    8  A    between atoms: N_5  and  C_25
    9  A    between atoms: S_8  and  C_36
   10  A    between atoms: C_12  and  C_22
   11  A    between atoms: C_12  and  C_31
   12  A    between atoms: C_35  and  C_41
                            x       y       z     vdW  Elec       q    Type
                         _______ _______ _______ _____ _____    ______ ____

>  <TORSDO>
F 12

$$$$
=
 OpenBabel11042412213D

 44 49  0  0  1  0  0  0  0  0999 V2000
  188.7430  177.7950  137.9350 C   0  0  1  0  0  3  0  0  0  0  0  0
  189.6920  176.6650  138.0110 N   0  0  0  0  0  0  0  0  0  0  0  0
  187.0430  176.0460  137.2140 C   0  0  0  0  0  0  0  0  0  0  0  0
  185.7140  175.6730  136.9660 C   0  0  0  0  0  0  0  0  0  0  0  0
  185.0340  177.8770  137.5760 N   0  0  0  0  0  0  0  0  0  0  0  0
  181.3530  177.6500  137.6100 C   0  0  0  0  0  3  0  0  0  0  0  0
  183.2850  173.9970  137.5470 N   0  0  0  0  0  0  0  0  0  0  0  0
  185.4380  174.3450  136.4850 N   0  0  0  0  0  0  0  0  0  0  0  0
  184.7040  176.6350  137.1270 C   0  0  0  0  0  0  0  0  0  0  0  0
  189.4910  175.7570  136.8830 C   0  0  0  0  0  2  0  0  0  0  0  0
  182.7790  175.1890  137.6300 C   0  0  0  0  0  0  0  0  0  0  0  0
  184.3950  173.6000  136.7250 C   0  0  0  0  0  3  0  0  0  0  0  0
  188.1550  175.0490  137.0390 C   0  0  0  0  0  2  0  0  0  0  0  0
  181.0080  176.5840  138.5640 C   0  0  0  0  0  0  0  0  0  0  0  0
  181.6620  175.4210  138.5590 C   0  0  0  0  0  3  0  0  0  0  0  0
  187.3170  177.3350  137.7050 C   0  0  2  0  0  3  0  0  0  0  0  0
  179.8860  176.7900  139.5150 C   0  0  0  0  0  1  0  0  0  0  0  0
  183.2860  176.3120  136.7640 C   0  0  0  0  0  0  0  0  0  0  0  0
  186.2930  178.2140  137.8540 N   0  0  0  0  0  0  0  0  0  0  0  0
  182.3840  177.5250  136.7700 C   0  0  0  0  0  3  0  0  0  0  0  0
  191.0810  177.1470  137.9750 C   0  0  0  0  0  2  0  0  0  0  0  0
  192.0000  176.4100  138.9470 C   0  0  0  0  0  2  0  0  0  0  0  0
  192.1780  177.2420  140.1990 C   0  0  0  0  0  2  0  0  0  0  0  0
  191.1580  176.5630  141.5400 S   0  0  0  0  0  0  0  0  0  0  0  0
  191.6810  177.8390  142.7250 C   0  0  0  0  0  2  0  0  0  0  0  0
  187.6200  177.5850  147.1410 C   0  0  0  0  0  3  0  0  0  0  0  0
  190.0120  176.8800  147.3610 C   0  0  0  0  0  2  0  0  0  0  0  0
  190.1560  177.5090  146.0530 N   0  0  0  0  0  0  0  0  0  0  0  0
  187.8210  177.9020  145.7100 C   0  0  0  0  0  3  0  0  0  0  0  0
  190.8230  177.7900  143.9390 C   0  0  0  0  0  0  0  0  0  0  0  0
  189.4540  178.0610  143.9290 O   0  0  0  0  0  0  0  0  0  0  0  0
  188.6260  177.1380  147.9120 C   0  0  0  0  0  3  0  0  0  0  0  0
  191.2560  177.4430  145.1550 C   0  0  0  0  0  3  0  0  0  0  0  0
  189.0580  177.8500  145.2340 C   0  0  0  0  0  0  0  0  0  0  0  0
  188.8370  178.6420  139.2000 C   0  0  0  0  0  2  0  0  0  0  0  0
  188.4400  177.6180  140.6480 S   0  0  0  0  0  0  0  0  0  0  0  0
  187.2910  178.8520  141.3290 C   0  0  0  0  0  2  0  0  0  0  0  0
  185.9920  178.2500  141.6020 N   0  0  0  0  0  2  0  0  0  0  0  0
  184.7730  178.7360  141.0370 C   0  0  0  0  0  0  0  0  0  0  0  0
  184.7690  179.7520  140.2920 O   0  0  0  0  0  0  0  0  0  0  0  0
  183.4970  178.0220  141.3180 C   0  0  0  0  0  2  0  0  0  0  0  0
  183.5020  179.3410  143.4310 O   0  0  0  0  0  1  0  0  0  0  0  0
  181.5240  178.6420  142.5040 O   0  0  0  0  0  0  0  0  0  0  0  0
  182.7820  178.6690  142.4510 C   0  0  0  0  0  0  0  0  0  0  0  0
  1  2  1  0  0  0  0
  1 35  1  1  0  0  0
  4  9  1  0  0  0  0
  4  3  2  0  0  0  0
  5 19  2  0  0  0  0
  6 14  1  0  0  0  0
  7 11  2  0  0  0  0
  8 12  2  0  0  0  0
  8  4  1  0  0  0  0
  9  5  1  0  0  0  0
 10 13  1  0  0  0  0
 10  2  1  0  0  0  0
 11 15  1  0  0  0  0
 12  7  1  0  0  0  0
 13  3  1  0  0  0  0
 14 17  1  0  0  0  0
 15 14  2  0  0  0  0
 16  3  1  6  0  0  0
 16 19  1  0  0  0  0
 16  1  1  0  0  0  0
 18 20  1  0  0  0  0
 18  9  2  0  0  0  0
 18 11  1  0  0  0  0
 20  6  2  0  0  0  0
 21  2  1  0  0  0  0
 21 22  1  0  0  0  0
 22 23  1  0  0  0  0
 23 24  1  0  0  0  0
 24 25  1  0  0  0  0
 25 30  1  0  0  0  0
 26 32  2  0  0  0  0
 27 32  1  0  0  0  0
 28 27  1  0  0  0  0
 29 26  1  0  0  0  0
 30 33  2  0  0  0  0
 31 30  1  0  0  0  0
 31 34  1  0  0  0  0
 33 28  1  0  0  0  0
 34 29  2  0  0  0  0
 34 28  1  0  0  0  0
 35 36  1  0  0  0  0
 36 37  1  0  0  0  0
 37 38  1  0  0  0  0
 39 41  1  0  0  0  0
 39 38  1  0  0  0  0
 40 39  2  0  0  0  0
 41 44  1  0  0  0  0
 44 43  2  0  0  0  0
 44 42  1  0  0  0  0
M  END
>  <MODEL>
6

>  <REMARK>
 VINA RESULT:      -7.4      3.824      9.498
  Name = 
  12 active torsions:
  status: ('A' for Active; 'I' for Inactive)
    1  A    between atoms: C_1  and  C_25
    2  A    between atoms: C_1  and  C_34
    3  A    between atoms: S_2  and  C_34
    4  A    between atoms: S_2  and  C_41
    5  A    between atoms: C_3  and  S_8
    6  A    between atoms: C_3  and  N_27
    7  A    between atoms: C_4  and  C_36
    8  A    between atoms: N_5  and  C_25
    9  A    between atoms: S_8  and  C_36
   10  A    between atoms: C_12  and  C_22
   11  A    between atoms: C_12  and  C_31
   12  A    between atoms: C_35  and  C_41
                            x       y       z     vdW  Elec       q    Type
                         _______ _______ _______ _____ _____    ______ ____

>  <TORSDO>
F 12

$$$$
=
 OpenBabel11042412213D

 44 49  0  0  1  0  0  0  0  0999 V2000
  190.4910  176.4570  137.9160 C   0  0  1  0  0  3  0  0  0  0  0  0
  189.2530  176.1890  137.1550 N   0  0  0  0  0  0  0  0  0  0  0  0
  188.9440  177.4070  139.6960 C   0  0  0  0  0  0  0  0  0  0  0  0
  188.7340  177.8660  141.0050 C   0  0  0  0  0  0  0  0  0  0  0  0
  191.0360  177.4420  141.4690 N   0  0  0  0  0  0  0  0  0  0  0  0
  191.2910  178.0280  145.1010 C   0  0  0  0  0  3  0  0  0  0  0  0
  187.4200  177.6580  143.7020 N   0  0  0  0  0  0  0  0  0  0  0  0
  187.4310  178.3480  141.3770 N   0  0  0  0  0  0  0  0  0  0  0  0
  189.8270  177.9050  141.8870 C   0  0  0  0  0  0  0  0  0  0  0  0
  188.3230  177.3090  137.2900 C   0  0  0  0  0  2  0  0  0  0  0  0
  188.6710  177.6960  144.0480 C   0  0  0  0  0  0  0  0  0  0  0  0
  186.8410  178.2690  142.5370 C   0  0  0  0  0  3  0  0  0  0  0  0
  187.8030  177.3620  138.7180 C   0  0  0  0  0  2  0  0  0  0  0  0
  190.3290  177.1160  145.7400 C   0  0  0  0  0  0  0  0  0  0  0  0
  189.0930  176.9770  145.2600 C   0  0  0  0  0  3  0  0  0  0  0  0
  190.2090  176.9130  139.3330 C   0  0  0  0  0  0  0  0  0  0  0  0
  190.7270  176.3760  146.9650 C   0  0  0  0  0  1  0  0  0  0  0  0
  189.6720  178.4950  143.2560 C   0  0  0  0  0  0  0  0  0  0  0  0
  191.2210  176.9650  140.2380 N   0  0  0  0  0  0  0  0  0  0  0  0
  190.9910  178.6770  143.9730 C   0  0  0  0  0  2  0  0  0  0  0  0
  189.5480  176.0020  135.7260 C   0  0  0  0  0  2  0  0  0  0  0  0
  188.3260  175.5890  134.9080 C   0  0  0  0  0  2  0  0  0  0  0  0
  188.3310  174.0870  134.7220 C   0  0  0  0  0  2  0  0  0  0  0  0
  187.2800  173.3070  135.9800 S   0  0  0  0  0  0  0  0  0  0  0  0
  186.0720  174.6660  135.9630 C   0  0  0  0  0  2  0  0  0  0  0  0
  180.9260  171.8840  137.3210 C   0  0  0  0  0  3  0  0  0  0  0  0
  181.2860  174.3580  137.4470 C   0  0  0  0  0  2  0  0  0  0  0  0
  182.5350  174.0560  136.7570 N   0  0  0  0  0  0  0  0  0  0  0  0
  182.3340  171.6760  136.9160 C   0  0  0  0  0  3  0  0  0  0  0  0
  184.7110  174.1410  136.2550 C   0  0  0  0  0  0  0  0  0  0  0  0
  184.4030  172.7820  136.3150 O   0  0  0  0  0  0  0  0  0  0  0  0
  180.4300  173.1130  137.5430 C   0  0  0  0  0  3  0  0  0  0  0  0
  183.6500  174.9070  136.5310 C   0  0  0  0  0  3  0  0  0  0  0  0
  183.0670  172.7520  136.6590 C   0  0  0  0  0  0  0  0  0  0  0  0
  191.3820  175.2190  137.9160 C   0  0  0  0  0  2  0  0  0  0  0  0
  193.0470  175.6690  137.3450 S   0  0  0  0  0  0  0  0  0  0  0  0
  193.5280  173.9370  137.0690 C   0  0  0  0  0  2  0  0  0  0  0  0
  194.9640  173.8310  136.8460 N   0  0  0  0  0  2  0  0  0  0  0  0
  195.9020  173.5960  137.9000 C   0  0  0  0  0  0  0  0  0  0  0  0
  195.5170  173.5060  139.0960 O   0  0  0  0  0  0  0  0  0  0  0  0
  197.3460  173.4370  137.5750 C   0  0  0  0  0  2  0  0  0  0  0  0
  198.2050  175.4450  138.7740 O   0  0  0  0  0  1  0  0  0  0  0  0
  198.4690  175.2480  136.5050 O   0  0  0  0  0  0  0  0  0  0  0  0
  198.0240  174.7620  137.5780 C   0  0  0  0  0  0  0  0  0  0  0  0
  1 35  1  1  0  0  0
  1 16  1  0  0  0  0
  2 10  1  0  0  0  0
  2  1  1  0  0  0  0
  3  4  1  0  0  0  0
  4  8  2  0  0  0  0
  4  9  1  0  0  0  0
  5  9  1  0  0  0  0
  6 14  2  0  0  0  0
  7 11  1  0  0  0  0
  8 12  1  0  0  0  0
  9 18  2  0  0  0  0
 10 13  1  0  0  0  0
 11 15  2  0  0  0  0
 12  7  2  0  0  0  0
 13  3  1  0  0  0  0
 14 17  1  0  0  0  0
 15 14  1  0  0  0  0
 16  3  2  0  0  0  0
 16 19  1  0  0  0  0
 18 20  1  0  0  0  0
 18 11  1  0  0  0  0
 19  5  2  0  0  0  0
 20  6  1  0  0  0  0
 21  2  1  0  0  0  0
 22 21  1  0  0  0  0
 23 22  1  0  0  0  0
 23 24  1  0  0  0  0
 25 24  1  0  0  0  0
 25 30  1  0  0  0  0
 26 32  2  0  0  0  0
 27 32  1  0  0  0  0
 28 27  1  0  0  0  0
 29 26  1  0  0  0  0
 30 31  1  0  0  0  0
 30 33  2  0  0  0  0
 31 34  1  0  0  0  0
 33 28  1  0  0  0  0
 34 28  1  0  0  0  0
 34 29  2  0  0  0  0
 36 35  1  0  0  0  0
 37 36  1  0  0  0  0
 38 37  1  0  0  0  0
 38 39  1  0  0  0  0
 39 40  2  0  0  0  0
 41 44  1  0  0  0  0
 41 39  1  0  0  0  0
 43 44  2  0  0  0  0
 44 42  1  0  0  0  0
M  END
>  <MODEL>
7

>  <REMARK>
 VINA RESULT:      -7.4      1.740      2.381
  Name = 
  12 active torsions:
  status: ('A' for Active; 'I' for Inactive)
    1  A    between atoms: C_1  and  C_25
    2  A    between atoms: C_1  and  C_34
    3  A    between atoms: S_2  and  C_34
    4  A    between atoms: S_2  and  C_41
    5  A    between atoms: C_3  and  S_8
    6  A    between atoms: C_3  and  N_27
    7  A    between atoms: C_4  and  C_36
    8  A    between atoms: N_5  and  C_25
    9  A    between atoms: S_8  and  C_36
   10  A    between atoms: C_12  and  C_22
   11  A    between atoms: C_12  and  C_31
   12  A    between atoms: C_35  and  C_41
                            x       y       z     vdW  Elec       q    Type
                         _______ _______ _______ _____ _____    ______ ____

>  <TORSDO>
F 12

$$$$
=
 OpenBabel11042412213D

 44 49  0  0  1  0  0  0  0  0999 V2000
  189.2550  176.3650  137.9460 C   0  0  1  0  0  3  0  0  0  0  0  0
  188.1680  176.0590  136.9940 N   0  0  0  0  0  0  0  0  0  0  0  0
  190.5130  174.4800  136.7940 C   0  0  0  0  0  0  0  0  0  0  0  0
  191.7070  173.7800  136.5590 C   0  0  0  0  0  0  0  0  0  0  0  0
  192.8160  175.2700  138.0560 N   0  0  0  0  0  0  0  0  0  0  0  0
  196.3690  174.3450  137.6960 C   0  0  0  0  0  3  0  0  0  0  0  0
  193.9070  172.8430  134.7360 N   0  0  0  0  0  0  0  0  0  0  0  0
  191.6870  172.6350  135.6890 N   0  0  0  0  0  0  0  0  0  0  0  0
  192.8670  174.1830  137.2400 C   0  0  0  0  0  0  0  0  0  0  0  0
  188.0300  174.6120  136.8300 C   0  0  0  0  0  2  0  0  0  0  0  0
  194.6000  173.4130  135.6740 C   0  0  0  0  0  0  0  0  0  0  0  0
  192.6260  172.2100  134.8910 C   0  0  0  0  0  3  0  0  0  0  0  0
  189.2460  174.0720  136.0960 C   0  0  0  0  0  2  0  0  0  0  0  0
  196.6990  174.5030  136.2700 C   0  0  0  0  0  0  0  0  0  0  0  0
  195.8810  174.0460  135.3220 C   0  0  0  0  0  3  0  0  0  0  0  0
  190.5310  175.6140  137.6250 C   0  0  2  0  0  3  0  0  0  0  0  0
  197.9850  175.1390  135.8860 C   0  0  0  0  0  1  0  0  0  0  0  0
  194.1350  173.3940  137.1060 C   0  0  0  0  0  0  0  0  0  0  0  0
  191.6910  175.9590  138.2430 N   0  0  0  0  0  0  0  0  0  0  0  0
  195.2030  173.8220  138.0860 C   0  0  0  0  0  3  0  0  0  0  0  0
  186.8850  176.5940  137.4760 C   0  0  0  0  0  2  0  0  0  0  0  0
  185.6740  175.9490  136.8070 C   0  0  0  0  0  2  0  0  0  0  0  0
  184.5130  176.9210  136.8240 C   0  0  0  0  0  2  0  0  0  0  0  0
  183.4990  176.6430  138.3040 S   0  0  0  0  0  0  0  0  0  0  0  0
  183.6470  178.3680  138.8580 C   0  0  0  0  0  2  0  0  0  0  0  0
  185.3090  178.7300  144.6180 C   0  0  0  0  0  3  0  0  0  0  0  0
  182.9790  179.0980  143.7800 C   0  0  0  0  0  2  0  0  0  0  0  0
  183.5130  178.5800  142.5250 N   0  0  0  0  0  0  0  0  0  0  0  0
  185.7980  178.5240  143.2360 C   0  0  0  0  0  3  0  0  0  0  0  0
  183.8770  178.4150  140.3270 C   0  0  0  0  0  0  0  0  0  0  0  0
  185.1400  178.3240  140.9140 O   0  0  0  0  0  0  0  0  0  0  0  0
  184.0130  178.9700  144.8780 C   0  0  0  0  0  3  0  0  0  0  0  0
  182.9140  178.5880  141.2370 C   0  0  0  0  0  3  0  0  0  0  0  0
  184.8950  178.4610  142.2650 C   0  0  0  0  0  0  0  0  0  0  0  0
  189.5100  177.8680  137.9820 C   0  0  0  0  0  2  0  0  0  0  0  0
  188.7230  178.5840  139.4550 S   0  0  0  0  0  0  0  0  0  0  0  0
  189.3370  177.2650  140.5460 C   0  0  0  0  0  2  0  0  0  0  0  0
  189.3540  177.7100  141.9330 N   0  0  0  0  0  2  0  0  0  0  0  0
  189.6300  176.8360  143.0300 C   0  0  0  0  0  0  0  0  0  0  0  0
  189.8380  175.6080  142.8380 O   0  0  0  0  0  0  0  0  0  0  0  0
  189.6910  177.3880  144.4120 C   0  0  0  0  0  2  0  0  0  0  0  0
  191.6630  176.6130  145.7220 O   0  0  0  0  0  1  0  0  0  0  0  0
  191.8120  178.4740  144.3920 O   0  0  0  0  0  0  0  0  0  0  0  0
  191.1070  177.5360  144.8460 C   0  0  0  0  0  0  0  0  0  0  0  0
  1 35  1  6  0  0  0
  2 21  1  0  0  0  0
  2  1  1  0  0  0  0
  4  3  2  0  0  0  0
  4  9  1  0  0  0  0
  5 19  2  0  0  0  0
  6 20  2  0  0  0  0
  7 12  1  0  0  0  0
  7 11  2  0  0  0  0
  8  4  1  0  0  0  0
  9  5  1  0  0  0  0
 10  2  1  0  0  0  0
 11 18  1  0  0  0  0
 12  8  2  0  0  0  0
 13  3  1  0  0  0  0
 13 10  1  0  0  0  0
 14  6  1  0  0  0  0
 15 11  1  0  0  0  0
 15 14  2  0  0  0  0
 16  3  1  1  0  0  0
 16  1  1  0  0  0  0
 16 19  1  0  0  0  0
 17 14  1  0  0  0  0
 18  9  2  0  0  0  0
 18 20  1  0  0  0  0
 22 23  1  0  0  0  0
 22 21  1  0  0  0  0
 23 24  1  0  0  0  0
 24 25  1  0  0  0  0
 25 30  1  0  0  0  0
 26 32  2  0  0  0  0
 27 32  1  0  0  0  0
 28 27  1  0  0  0  0
 29 26  1  0  0  0  0
 30 31  1  0  0  0  0
 30 33  2  0  0  0  0
 31 34  1  0  0  0  0
 33 28  1  0  0  0  0
 34 28  1  0  0  0  0
 34 29  2  0  0  0  0
 35 36  1  0  0  0  0
 36 37  1  0  0  0  0
 37 38  1  0  0  0  0
 38 39  1  0  0  0  0
 39 41  1  0  0  0  0
 40 39  2  0  0  0  0
 41 44  1  0  0  0  0
 43 44  2  0  0  0  0
 44 42  1  0  0  0  0
M  END
>  <MODEL>
8

>  <REMARK>
 VINA RESULT:      -7.2      3.241      7.137
  Name = 
  12 active torsions:
  status: ('A' for Active; 'I' for Inactive)
    1  A    between atoms: C_1  and  C_25
    2  A    between atoms: C_1  and  C_34
    3  A    between atoms: S_2  and  C_34
    4  A    between atoms: S_2  and  C_41
    5  A    between atoms: C_3  and  S_8
    6  A    between atoms: C_3  and  N_27
    7  A    between atoms: C_4  and  C_36
    8  A    between atoms: N_5  and  C_25
    9  A    between atoms: S_8  and  C_36
   10  A    between atoms: C_12  and  C_22
   11  A    between atoms: C_12  and  C_31
   12  A    between atoms: C_35  and  C_41
                            x       y       z     vdW  Elec       q    Type
                         _______ _______ _______ _____ _____    ______ ____

>  <TORSDO>
F 12

$$$$
=
 OpenBabel11042412213D

 44 49  0  0  1  0  0  0  0  0999 V2000
  188.8420  177.6820  137.7570 C   0  0  1  0  0  3  0  0  0  0  0  0
  189.4620  176.3680  137.4880 N   0  0  0  0  0  0  0  0  0  0  0  0
  186.6320  176.4850  137.3690 C   0  0  0  0  0  0  0  0  0  0  0  0
  185.2320  176.4610  137.4510 C   0  0  0  0  0  0  0  0  0  0  0  0
  185.3010  178.6510  138.3970 N   0  0  0  0  0  0  0  0  0  0  0  0
  181.7980  179.2590  139.3820 C   0  0  0  0  0  3  0  0  0  0  0  0
  182.6640  175.3120  138.5140 N   0  0  0  0  0  0  0  0  0  0  0  0
  184.5210  175.3140  136.9540 N   0  0  0  0  0  0  0  0  0  0  0  0
  184.5680  177.5940  137.9510 C   0  0  0  0  0  0  0  0  0  0  0  0
  188.7760  175.7010  136.3820 C   0  0  0  0  0  2  0  0  0  0  0  0
  182.5130  176.5640  138.8240 C   0  0  0  0  0  0  0  0  0  0  0  0
  183.4090  174.7970  137.3980 C   0  0  0  0  0  3  0  0  0  0  0  0
  187.3790  175.2990  136.8260 C   0  0  0  0  0  2  0  0  0  0  0  0
  181.4280  178.1730  140.3030 C   0  0  0  0  0  0  0  0  0  0  0  0
  181.7430  176.9060  140.0310 C   0  0  0  0  0  3  0  0  0  0  0  0
  187.3340  177.5940  137.8740 C   0  0  2  0  0  3  0  0  0  0  0  0
  180.6520  178.4880  141.5290 C   0  0  0  0  0  1  0  0  0  0  0  0
  183.0710  177.6550  137.9490 C   0  0  0  0  0  0  0  0  0  0  0  0
  186.6320  178.6510  138.3590 N   0  0  0  0  0  0  0  0  0  0  0  0
  182.5360  179.0270  138.2920 C   0  0  0  0  0  3  0  0  0  0  0  0
  190.8790  176.5240  137.1260 C   0  0  0  0  0  2  0  0  0  0  0  0
  191.2030  176.0140  135.7230 C   0  0  0  0  0  2  0  0  0  0  0  0
  192.4960  175.2290  135.7600 C   0  0  0  0  0  2  0  0  0  0  0  0
  192.3110  173.7880  136.8500 S   0  0  0  0  0  0  0  0  0  0  0  0
  193.9270  173.0980  136.3860 C   0  0  0  0  0  2  0  0  0  0  0  0
  197.8050  175.2640  140.4280 C   0  0  0  0  0  3  0  0  0  0  0  0
  198.4230  174.5030  138.1240 C   0  0  0  0  0  2  0  0  0  0  0  0
  196.9790  174.4570  137.9200 N   0  0  0  0  0  0  0  0  0  0  0  0
  196.3940  174.8800  140.2010 C   0  0  0  0  0  3  0  0  0  0  0  0
  194.9960  173.6860  137.2380 C   0  0  0  0  0  0  0  0  0  0  0  0
  194.8050  174.0570  138.5700 O   0  0  0  0  0  0  0  0  0  0  0  0
  198.7380  175.1170  139.4710 C   0  0  0  0  0  3  0  0  0  0  0  0
  196.2560  173.8850  136.8390 C   0  0  0  0  0  3  0  0  0  0  0  0
  196.0470  174.4970  138.9790 C   0  0  0  0  0  0  0  0  0  0  0  0
  189.4450  178.2950  139.0170 C   0  0  0  0  0  2  0  0  0  0  0  0
  189.3500  177.0980  140.3800 S   0  0  0  0  0  0  0  0  0  0  0  0
  188.7170  178.3340  141.5540 C   0  0  0  0  0  2  0  0  0  0  0  0
  187.2760  178.4900  141.4110 N   0  0  0  0  0  2  0  0  0  0  0  0
  186.3470  178.1310  142.4370 C   0  0  0  0  0  0  0  0  0  0  0  0
  186.7460  177.6180  143.5160 O   0  0  0  0  0  0  0  0  0  0  0  0
  184.8930  178.3830  142.2320 C   0  0  0  0  0  2  0  0  0  0  0  0
  184.9280  180.1300  144.0080 O   0  0  0  0  0  1  0  0  0  0  0  0
  183.2270  178.5940  143.9240 O   0  0  0  0  0  0  0  0  0  0  0  0
  184.3070  179.0260  143.4400 C   0  0  0  0  0  0  0  0  0  0  0  0
  1 16  1  0  0  0  0
  1 35  1  1  0  0  0
  2  1  1  0  0  0  0
  3  4  2  0  0  0  0
  4  9  1  0  0  0  0
  6 14  1  0  0  0  0
  7 11  2  0  0  0  0
  8 12  2  0  0  0  0
  8  4  1  0  0  0  0
  9  5  1  0  0  0  0
 10 13  1  0  0  0  0
 10  2  1  0  0  0  0
 11 15  1  0  0  0  0
 12  7  1  0  0  0  0
 13  3  1  0  0  0  0
 14 17  1  0  0  0  0
 15 14  2  0  0  0  0
 16  3  1  6  0  0  0
 16 19  1  0  0  0  0
 18  9  2  0  0  0  0
 18 20  1  0  0  0  0
 18 11  1  0  0  0  0
 19  5  2  0  0  0  0
 20  6  2  0  0  0  0
 21  2  1  0  0  0  0
 22 23  1  0  0  0  0
 22 21  1  0  0  0  0
 23 24  1  0  0  0  0
 25 24  1  0  0  0  0
 25 30  1  0  0  0  0
 27 32  1  0  0  0  0
 28 27  1  0  0  0  0
 28 34  1  0  0  0  0
 29 26  1  0  0  0  0
 30 31  1  0  0  0  0
 31 34  1  0  0  0  0
 32 26  2  0  0  0  0
 33 30  2  0  0  0  0
 33 28  1  0  0  0  0
 34 29  2  0  0  0  0
 35 36  1  0  0  0  0
 36 37  1  0  0  0  0
 38 37  1  0  0  0  0
 38 39  1  0  0  0  0
 39 40  2  0  0  0  0
 41 39  1  0  0  0  0
 41 44  1  0  0  0  0
 44 43  2  0  0  0  0
 44 42  1  0  0  0  0
M  END
>  <MODEL>
9

>  <REMARK>
 VINA RESULT:      -7.1      2.672      9.849
  Name = 
  12 active torsions:
  status: ('A' for Active; 'I' for Inactive)
    1  A    between atoms: C_1  and  C_25
    2  A    between atoms: C_1  and  C_34
    3  A    between atoms: S_2  and  C_34
    4  A    between atoms: S_2  and  C_41
    5  A    between atoms: C_3  and  S_8
    6  A    between atoms: C_3  and  N_27
    7  A    between atoms: C_4  and  C_36
    8  A    between atoms: N_5  and  C_25
    9  A    between atoms: S_8  and  C_36
   10  A    between atoms: C_12  and  C_22
   11  A    between atoms: C_12  and  C_31
   12  A    between atoms: C_35  and  C_41
                            x       y       z     vdW  Elec       q    Type
                         _______ _______ _______ _____ _____    ______ ____

>  <TORSDO>
F 12

$$$$
