=
 OpenBabel11032420313D

 33 35  0  0  1  0  0  0  0  0999 V2000
  186.6370  178.0520  143.3540 C   0  0  1  0  0  3  0  0  0  0  0  0
  183.2400  178.6490  141.9020 N   0  0  0  0  0  0  0  0  0  0  0  0
  184.0600  178.6240  140.9050 C   0  0  0  0  0  0  0  0  0  0  0  0
  185.4160  178.4030  141.2710 N   0  0  0  0  0  0  0  0  0  0  0  0
  185.3950  178.2640  142.5510 C   0  0  0  0  0  0  0  0  0  0  0  0
  184.0160  178.4060  143.1080 C   0  0  0  0  0  2  0  0  0  0  0  0
  182.1380  179.1040  139.4570 C   0  0  0  0  0  3  0  0  0  0  0  0
  180.4040  181.1040  138.8020 Cl  0  0  0  0  0  0  0  0  0  0  0  0
  181.9620  180.3420  139.0310 C   0  0  0  0  0  0  0  0  0  0  0  0
  183.6210  178.8940  139.5020 C   0  0  1  0  0  3  0  0  0  0  0  0
  183.1980  180.9850  138.7860 N   0  0  0  0  0  0  0  0  0  0  0  0
  184.1420  180.1780  139.0480 N   0  0  0  0  0  0  0  0  0  0  0  0
  186.3060  177.3740  144.6770 C   0  0  0  0  0  2  0  0  0  0  0  0
  185.5900  179.0210  146.4080 C   0  0  0  0  0  1  0  0  0  0  0  0
  186.7580  178.2260  145.8580 C   0  0  1  0  0  3  0  0  0  0  0  0
  187.4450  177.3980  146.9510 C   0  0  0  0  0  2  0  0  0  0  0  0
  188.8820  178.2760  148.8070 C   0  0  0  0  0  1  0  0  0  0  0  0
  188.8320  177.9140  147.3340 C   0  0  1  0  0  3  0  0  0  0  0  0
  189.9790  176.9780  146.9120 C   0  0  0  0  0  2  0  0  0  0  0  0
  190.4000  177.0170  145.4340 C   0  0  2  0  0  3  0  0  0  0  0  0
  191.6780  176.4820  145.2440 O   0  0  0  0  0  0  0  0  0  0  0  0
  192.0400  175.9560  146.4850 C   0  0  0  0  0  1  0  0  0  0  0  0
  190.3110  178.4230  144.8590 C   0  0  0  0  0  2  0  0  0  0  0  0
  191.5840  178.7710  144.1110 C   0  0  0  0  0  1  0  0  0  0  0  0
  187.6300  177.2110  142.5730 C   0  0  0  0  0  2  0  0  0  0  0  0
  188.5760  178.0800  141.8870 N   0  0  0  0  0  2  0  0  0  0  0  0
  189.1340  177.7650  140.6090 C   0  0  0  0  0  0  0  0  0  0  0  0
  189.3890  178.2240  138.1310 C   0  0  0  0  0  2  0  0  0  0  0  0
  190.1590  176.8960  140.5440 C   0  0  0  0  0  0  0  0  0  0  0  0
  190.8320  176.5430  139.2420 C   0  0  0  0  0  2  0  0  0  0  0  0
  190.6680  176.3400  141.7120 O   0  0  0  0  0  1  0  0  0  0  0  0
  189.9480  176.8160  138.0300 C   0  0  0  0  0  2  0  0  0  0  0  0
  188.4870  178.3180  139.3580 C   0  0  0  0  0  2  0  0  0  0  0  0
  1 25  1  6  0  0  0
  1 13  1  0  0  0  0
  2  6  1  0  0  0  0
  3  4  1  0  0  0  0
  3  2  2  0  0  0  0
  4  5  2  0  0  0  0
  5  6  1  0  0  0  0
  5  1  1  0  0  0  0
  7 10  1  0  0  0  0
  8  9  1  0  0  0  0
  9  7  2  0  0  0  0
 10  3  1  1  0  0  0
 11  9  1  0  0  0  0
 11 12  2  0  0  0  0
 12 10  1  0  0  0  0
 13 15  1  0  0  0  0
 15 14  1  1  0  0  0
 15 16  1  0  0  0  0
 16 18  1  0  0  0  0
 18 17  1  1  0  0  0
 19 18  1  0  0  0  0
 20 23  1  1  0  0  0
 20 19  1  0  0  0  0
 21 20  1  0  0  0  0
 21 22  1  0  0  0  0
 24 23  1  0  0  0  0
 26 25  1  0  0  0  0
 27 26  1  0  0  0  0
 28 33  1  0  0  0  0
 29 27  2  0  0  0  0
 29 31  1  0  0  0  0
 30 29  1  0  0  0  0
 32 28  1  0  0  0  0
 32 30  1  0  0  0  0
 33 27  1  0  0  0  0
M  END
>  <MODEL>
1

>  <REMARK>
 VINA RESULT:      -8.0      0.000      0.000
  Name = 
  13 active torsions:
  status: ('A' for Active; 'I' for Inactive)
    1  A    between atoms: C_3  and  N_28
    2  A    between atoms: C_4  and  C_17
    3  A    between atoms: C_4  and  C_27
    4  A    between atoms: C_6  and  C_14
    5  A    between atoms: C_8  and  O_10
    6  A    between atoms: C_8  and  C_20
    7  A    between atoms: C_8  and  C_29
    8  A    between atoms: C_16  and  C_17
    9  A    between atoms: C_16  and  N_28
   10  A    between atoms: C_17  and  C_25
   11  A    between atoms: C_22  and  C_23
   12  A    between atoms: C_22  and  C_29
   13  A    between atoms: C_23  and  C_27
                            x       y       z     vdW  Elec       q    Type
                         _______ _______ _______ _____ _____    ______ ____

>  <TORSDO>
F 13

$$$$
=
 OpenBabel11032420313D

 33 35  0  0  1  0  0  0  0  0999 V2000
  186.1830  178.1940  143.7420 C   0  0  1  0  0  3  0  0  0  0  0  0
  182.6420  178.8730  142.7400 N   0  0  0  0  0  0  0  0  0  0  0  0
  183.2350  178.4170  141.6870 C   0  0  0  0  0  0  0  0  0  0  0  0
  184.6060  178.0990  141.8820 N   0  0  0  0  0  0  0  0  0  0  0  0
  184.8330  178.3550  143.1230 C   0  0  0  0  0  0  0  0  0  0  0  0
  183.6190  178.8780  143.8180 C   0  0  0  0  0  2  0  0  0  0  0  0
  183.3500  177.4660  139.4280 C   0  0  0  0  0  3  0  0  0  0  0  0
  183.0410  175.1150  138.0810 Cl  0  0  0  0  0  0  0  0  0  0  0  0
  182.5820  176.4320  139.1390 C   0  0  0  0  0  0  0  0  0  0  0  0
  182.5500  178.3210  140.3630 C   0  0  1  0  0  3  0  0  0  0  0  0
  181.3330  176.5140  139.7980 N   0  0  0  0  0  0  0  0  0  0  0  0
  181.3020  177.5770  140.4910 N   0  0  0  0  0  0  0  0  0  0  0  0
  186.0760  177.4620  145.0740 C   0  0  0  0  0  2  0  0  0  0  0  0
  185.6580  179.0500  146.9520 C   0  0  0  0  0  1  0  0  0  0  0  0
  186.7170  178.2710  146.1970 C   0  0  1  0  0  3  0  0  0  0  0  0
  187.5610  177.4030  147.1380 C   0  0  0  0  0  2  0  0  0  0  0  0
  189.1970  178.3410  148.7870 C   0  0  0  0  0  1  0  0  0  0  0  0
  188.9840  177.9220  147.3440 C   0  0  1  0  0  3  0  0  0  0  0  0
  190.0740  176.9620  146.8350 C   0  0  0  0  0  2  0  0  0  0  0  0
  190.3820  176.9950  145.3300 C   0  0  2  0  0  3  0  0  0  0  0  0
  191.6630  176.5070  145.0510 O   0  0  0  0  0  0  0  0  0  0  0  0
  192.0940  175.9170  146.2400 C   0  0  0  0  0  1  0  0  0  0  0  0
  190.1940  178.3890  144.7470 C   0  0  0  0  0  2  0  0  0  0  0  0
  191.4610  178.8460  144.0500 C   0  0  0  0  0  1  0  0  0  0  0  0
  187.1030  177.4340  142.8040 C   0  0  0  0  0  2  0  0  0  0  0  0
  187.7040  178.3570  141.8520 N   0  0  0  0  0  2  0  0  0  0  0  0
  188.5020  177.9230  140.7470 C   0  0  0  0  0  0  0  0  0  0  0  0
  190.4740  176.6370  139.8120 C   0  0  0  0  0  2  0  0  0  0  0  0
  188.0270  178.0840  139.4990 C   0  0  0  0  0  0  0  0  0  0  0  0
  188.7850  177.6140  138.2840 C   0  0  0  0  0  2  0  0  0  0  0  0
  186.7700  178.6460  139.3060 O   0  0  0  0  0  1  0  0  0  0  0  0
  190.2790  177.4540  138.5480 C   0  0  0  0  0  2  0  0  0  0  0  0
  189.9020  177.4060  140.9990 C   0  0  0  0  0  2  0  0  0  0  0  0
  1 25  1  6  0  0  0
  1 13  1  0  0  0  0
  2  6  1  0  0  0  0
  3  4  1  0  0  0  0
  3  2  2  0  0  0  0
  4  5  2  0  0  0  0
  5  1  1  0  0  0  0
  5  6  1  0  0  0  0
  7 10  1  0  0  0  0
  8  9  1  0  0  0  0
  9  7  2  0  0  0  0
  9 11  1  0  0  0  0
 10 12  1  0  0  0  0
 10  3  1  1  0  0  0
 11 12  2  0  0  0  0
 13 15  1  0  0  0  0
 15 14  1  1  0  0  0
 15 16  1  0  0  0  0
 16 18  1  0  0  0  0
 18 17  1  1  0  0  0
 19 18  1  0  0  0  0
 20 23  1  1  0  0  0
 20 19  1  0  0  0  0
 21 20  1  0  0  0  0
 21 22  1  0  0  0  0
 24 23  1  0  0  0  0
 26 25  1  0  0  0  0
 27 33  1  0  0  0  0
 27 26  1  0  0  0  0
 28 33  1  0  0  0  0
 29 27  2  0  0  0  0
 30 32  1  0  0  0  0
 30 29  1  0  0  0  0
 31 29  1  0  0  0  0
 32 28  1  0  0  0  0
M  END
>  <MODEL>
2

>  <REMARK>
 VINA RESULT:      -7.9      1.835      2.252
  Name = 
  13 active torsions:
  status: ('A' for Active; 'I' for Inactive)
    1  A    between atoms: C_3  and  N_28
    2  A    between atoms: C_4  and  C_17
    3  A    between atoms: C_4  and  C_27
    4  A    between atoms: C_6  and  C_14
    5  A    between atoms: C_8  and  O_10
    6  A    between atoms: C_8  and  C_20
    7  A    between atoms: C_8  and  C_29
    8  A    between atoms: C_16  and  C_17
    9  A    between atoms: C_16  and  N_28
   10  A    between atoms: C_17  and  C_25
   11  A    between atoms: C_22  and  C_23
   12  A    between atoms: C_22  and  C_29
   13  A    between atoms: C_23  and  C_27
                            x       y       z     vdW  Elec       q    Type
                         _______ _______ _______ _____ _____    ______ ____

>  <TORSDO>
F 13

$$$$
=
 OpenBabel11032420313D

 33 35  0  0  1  0  0  0  0  0999 V2000
  185.1350  178.7860  143.0560 C   0  0  1  0  0  3  0  0  0  0  0  0
  181.4660  178.9160  143.7790 N   0  0  0  0  0  0  0  0  0  0  0  0
  181.5780  178.8080  142.4970 C   0  0  0  0  0  0  0  0  0  0  0  0
  182.9200  178.7440  142.0330 N   0  0  0  0  0  0  0  0  0  0  0  0
  183.6420  178.7890  143.0980 C   0  0  0  0  0  0  0  0  0  0  0  0
  182.8100  178.9060  144.3340 C   0  0  0  0  0  2  0  0  0  0  0  0
  180.6860  178.0690  140.3340 C   0  0  0  0  0  3  0  0  0  0  0  0
  179.7280  175.8540  139.0630 Cl  0  0  0  0  0  0  0  0  0  0  0  0
  179.8200  177.0720  140.3170 C   0  0  0  0  0  0  0  0  0  0  0  0
  180.3950  178.8410  141.5850 C   0  0  1  0  0  3  0  0  0  0  0  0
  178.9710  177.1040  141.4480 N   0  0  0  0  0  0  0  0  0  0  0  0
  179.2850  178.0980  142.1720 N   0  0  0  0  0  0  0  0  0  0  0  0
  185.6930  177.7130  143.9830 C   0  0  0  0  0  2  0  0  0  0  0  0
  185.8120  178.8530  146.1980 C   0  0  0  0  0  1  0  0  0  0  0  0
  186.6200  178.3210  145.0300 C   0  0  1  0  0  3  0  0  0  0  0  0
  187.7060  177.3420  145.4910 C   0  0  0  0  0  2  0  0  0  0  0  0
  188.3220  176.8850  147.8770 C   0  0  0  0  0  1  0  0  0  0  0  0
  188.5000  177.8310  146.7030 C   0  0  1  0  0  3  0  0  0  0  0  0
  189.9790  178.1270  146.3970 C   0  0  0  0  0  2  0  0  0  0  0  0
  190.9120  176.9150  146.2360 C   0  0  2  0  0  3  0  0  0  0  0  0
  191.9420  176.9230  147.1820 O   0  0  0  0  0  0  0  0  0  0  0  0
  192.3030  175.5840  147.3370 C   0  0  0  0  0  1  0  0  0  0  0  0
  191.4740  176.8210  144.8240 C   0  0  0  0  0  2  0  0  0  0  0  0
  191.8180  178.2020  144.2980 C   0  0  0  0  0  1  0  0  0  0  0  0
  185.6190  178.5510  141.6370 C   0  0  0  0  0  2  0  0  0  0  0  0
  186.9660  179.0840  141.4840 N   0  0  0  0  0  2  0  0  0  0  0  0
  188.0710  178.2870  141.0480 C   0  0  0  0  0  0  0  0  0  0  0  0
  189.9380  176.6430  141.5230 C   0  0  0  0  0  2  0  0  0  0  0  0
  188.2620  178.1080  139.7280 C   0  0  0  0  0  0  0  0  0  0  0  0
  189.3740  177.2480  139.1870 C   0  0  0  0  0  2  0  0  0  0  0  0
  187.3770  178.6780  138.8200 O   0  0  0  0  0  1  0  0  0  0  0  0
  190.5140  177.0640  140.1830 C   0  0  0  0  0  2  0  0  0  0  0  0
  189.0610  177.7670  142.0660 C   0  0  0  0  0  2  0  0  0  0  0  0
  1 25  1  6  0  0  0
  1  5  1  0  0  0  0
  1 13  1  0  0  0  0
  2  6  1  0  0  0  0
  3  2  2  0  0  0  0
  4  3  1  0  0  0  0
  4  5  2  0  0  0  0
  5  6  1  0  0  0  0
  7 10  1  0  0  0  0
  8  9  1  0  0  0  0
  9  7  2  0  0  0  0
  9 11  1  0  0  0  0
 10 12  1  0  0  0  0
 10  3  1  1  0  0  0
 11 12  2  0  0  0  0
 13 15  1  0  0  0  0
 15 16  1  0  0  0  0
 15 14  1  1  0  0  0
 16 18  1  0  0  0  0
 18 17  1  1  0  0  0
 19 18  1  0  0  0  0
 20 23  1  6  0  0  0
 20 19  1  0  0  0  0
 20 21  1  0  0  0  0
 21 22  1  0  0  0  0
 24 23  1  0  0  0  0
 26 25  1  0  0  0  0
 27 26  1  0  0  0  0
 27 33  1  0  0  0  0
 28 33  1  0  0  0  0
 29 27  2  0  0  0  0
 30 29  1  0  0  0  0
 30 32  1  0  0  0  0
 31 29  1  0  0  0  0
 32 28  1  0  0  0  0
M  END
>  <MODEL>
3

>  <REMARK>
 VINA RESULT:      -7.9      2.168      2.836
  Name = 
  13 active torsions:
  status: ('A' for Active; 'I' for Inactive)
    1  A    between atoms: C_3  and  N_28
    2  A    between atoms: C_4  and  C_17
    3  A    between atoms: C_4  and  C_27
    4  A    between atoms: C_6  and  C_14
    5  A    between atoms: C_8  and  O_10
    6  A    between atoms: C_8  and  C_20
    7  A    between atoms: C_8  and  C_29
    8  A    between atoms: C_16  and  C_17
    9  A    between atoms: C_16  and  N_28
   10  A    between atoms: C_17  and  C_25
   11  A    between atoms: C_22  and  C_23
   12  A    between atoms: C_22  and  C_29
   13  A    between atoms: C_23  and  C_27
                            x       y       z     vdW  Elec       q    Type
                         _______ _______ _______ _____ _____    ______ ____

>  <TORSDO>
F 13

$$$$
=
 OpenBabel11032420313D

 33 35  0  0  1  0  0  0  0  0999 V2000
  185.5620  178.4460  143.6340 C   0  0  1  0  0  3  0  0  0  0  0  0
  182.0170  178.9210  142.5360 N   0  0  0  0  0  0  0  0  0  0  0  0
  182.6520  178.4530  141.5130 C   0  0  0  0  0  0  0  0  0  0  0  0
  184.0330  178.2070  141.7480 N   0  0  0  0  0  0  0  0  0  0  0  0
  184.2200  178.5210  142.9830 C   0  0  0  0  0  0  0  0  0  0  0  0
  182.9680  179.0130  143.6320 C   0  0  0  0  0  2  0  0  0  0  0  0
  181.2420  179.5130  139.8080 C   0  0  0  0  0  3  0  0  0  0  0  0
  181.3170  181.4140  137.8530 Cl  0  0  0  0  0  0  0  0  0  0  0  0
  181.8170  179.9720  138.7110 C   0  0  0  0  0  0  0  0  0  0  0  0
  182.0020  178.2760  140.1800 C   0  0  1  0  0  3  0  0  0  0  0  0
  182.8980  179.1520  138.3110 N   0  0  0  0  0  0  0  0  0  0  0  0
  183.0120  178.1910  139.1320 N   0  0  0  0  0  0  0  0  0  0  0  0
  185.4490  177.8230  145.0200 C   0  0  0  0  0  2  0  0  0  0  0  0
  185.7560  179.4080  146.9210 C   0  0  0  0  0  1  0  0  0  0  0  0
  186.4550  178.4430  145.9840 C   0  0  1  0  0  3  0  0  0  0  0  0
  187.2580  177.3870  146.7530 C   0  0  0  0  0  2  0  0  0  0  0  0
  188.7240  178.2400  148.5980 C   0  0  0  0  0  1  0  0  0  0  0  0
  188.6670  177.8430  147.1340 C   0  0  1  0  0  3  0  0  0  0  0  0
  189.7690  176.8400  146.7460 C   0  0  0  0  0  2  0  0  0  0  0  0
  190.4550  177.0540  145.3870 C   0  0  2  0  0  3  0  0  0  0  0  0
  191.8450  176.9310  145.4830 O   0  0  0  0  0  0  0  0  0  0  0  0
  192.0580  175.9710  146.4730 C   0  0  0  0  0  1  0  0  0  0  0  0
  190.0710  178.3890  144.7650 C   0  0  0  0  0  2  0  0  0  0  0  0
  191.2930  179.0730  144.1820 C   0  0  0  0  0  1  0  0  0  0  0  0
  186.5170  177.6360  142.7770 C   0  0  0  0  0  2  0  0  0  0  0  0
  187.3030  178.5320  141.9390 N   0  0  0  0  0  2  0  0  0  0  0  0
  188.1720  178.0630  140.9040 C   0  0  0  0  0  0  0  0  0  0  0  0
  190.2220  176.7830  140.1460 C   0  0  0  0  0  2  0  0  0  0  0  0
  187.7640  178.1490  139.6250 C   0  0  0  0  0  0  0  0  0  0  0  0
  188.5990  177.6380  138.4790 C   0  0  0  0  0  2  0  0  0  0  0  0
  186.5070  178.6670  139.3350 O   0  0  0  0  0  1  0  0  0  0  0  0
  190.0780  177.5310  138.8320 C   0  0  0  0  0  2  0  0  0  0  0  0
  189.5670  177.5970  141.2580 C   0  0  0  0  0  2  0  0  0  0  0  0
  1 25  1  6  0  0  0
  1 13  1  0  0  0  0
  2  6  1  0  0  0  0
  3  4  1  0  0  0  0
  3  2  2  0  0  0  0
  4  5  2  0  0  0  0
  5  6  1  0  0  0  0
  5  1  1  0  0  0  0
  7 10  1  0  0  0  0
  8  9  1  0  0  0  0
  9  7  2  0  0  0  0
 10  3  1  1  0  0  0
 11  9  1  0  0  0  0
 11 12  2  0  0  0  0
 12 10  1  0  0  0  0
 13 15  1  0  0  0  0
 15 16  1  0  0  0  0
 15 14  1  1  0  0  0
 16 18  1  0  0  0  0
 18 17  1  1  0  0  0
 19 18  1  0  0  0  0
 20 23  1  1  0  0  0
 20 21  1  0  0  0  0
 20 19  1  0  0  0  0
 21 22  1  0  0  0  0
 24 23  1  0  0  0  0
 26 25  1  0  0  0  0
 27 33  1  0  0  0  0
 27 26  1  0  0  0  0
 28 33  1  0  0  0  0
 29 27  2  0  0  0  0
 30 32  1  0  0  0  0
 30 29  1  0  0  0  0
 31 29  1  0  0  0  0
 32 28  1  0  0  0  0
M  END
>  <MODEL>
4

>  <REMARK>
 VINA RESULT:      -7.7      1.338      1.654
  Name = 
  13 active torsions:
  status: ('A' for Active; 'I' for Inactive)
    1  A    between atoms: C_3  and  N_28
    2  A    between atoms: C_4  and  C_17
    3  A    between atoms: C_4  and  C_27
    4  A    between atoms: C_6  and  C_14
    5  A    between atoms: C_8  and  O_10
    6  A    between atoms: C_8  and  C_20
    7  A    between atoms: C_8  and  C_29
    8  A    between atoms: C_16  and  C_17
    9  A    between atoms: C_16  and  N_28
   10  A    between atoms: C_17  and  C_25
   11  A    between atoms: C_22  and  C_23
   12  A    between atoms: C_22  and  C_29
   13  A    between atoms: C_23  and  C_27
                            x       y       z     vdW  Elec       q    Type
                         _______ _______ _______ _____ _____    ______ ____

>  <TORSDO>
F 13

$$$$
=
 OpenBabel11032420313D

 33 35  0  0  1  0  0  0  0  0999 V2000
  185.5820  178.3680  143.8270 C   0  0  1  0  0  3  0  0  0  0  0  0
  188.5300  176.8190  142.1200 N   0  0  0  0  0  0  0  0  0  0  0  0
  188.2450  177.8880  141.4520 C   0  0  0  0  0  0  0  0  0  0  0  0
  187.1370  178.6160  141.9630 N   0  0  0  0  0  0  0  0  0  0  0  0
  186.7600  177.9590  143.0040 C   0  0  0  0  0  0  0  0  0  0  0  0
  187.5930  176.7410  143.2300 C   0  0  0  0  0  2  0  0  0  0  0  0
  189.8700  177.1470  139.7690 C   0  0  0  0  0  3  0  0  0  0  0  0
  190.1210  175.4690  137.6340 Cl  0  0  0  0  0  0  0  0  0  0  0  0
  189.4240  176.7610  138.5880 C   0  0  0  0  0  0  0  0  0  0  0  0
  188.9700  178.2650  140.2010 C   0  0  1  0  0  3  0  0  0  0  0  0
  188.3000  177.5200  138.1860 N   0  0  0  0  0  0  0  0  0  0  0  0
  188.0340  178.3720  139.0880 N   0  0  0  0  0  0  0  0  0  0  0  0
  186.0150  179.2970  144.9540 C   0  0  0  0  0  2  0  0  0  0  0  0
  184.3460  178.2190  146.4630 C   0  0  0  0  0  1  0  0  0  0  0  0
  185.7940  178.6460  146.3160 C   0  0  1  0  0  3  0  0  0  0  0  0
  186.7570  177.4810  146.5740 C   0  0  0  0  0  2  0  0  0  0  0  0
  188.2660  178.2080  148.4380 C   0  0  0  0  0  1  0  0  0  0  0  0
  188.1710  177.9240  146.9500 C   0  0  1  0  0  3  0  0  0  0  0  0
  189.2720  176.9680  146.4550 C   0  0  0  0  0  2  0  0  0  0  0  0
  190.5340  177.6110  145.8570 C   0  0  2  0  0  3  0  0  0  0  0  0
  190.2540  178.3000  144.6730 O   0  0  0  0  0  0  0  0  0  0  0  0
  191.4980  178.5340  144.0850 C   0  0  0  0  0  1  0  0  0  0  0  0
  191.6390  176.5870  145.6390 C   0  0  0  0  0  2  0  0  0  0  0  0
  192.0240  175.9350  146.9530 C   0  0  0  0  0  1  0  0  0  0  0  0
  184.5460  179.0550  142.9560 C   0  0  0  0  0  2  0  0  0  0  0  0
  184.1600  178.1720  141.8640 N   0  0  0  0  0  2  0  0  0  0  0  0
  183.2080  178.5450  140.8650 C   0  0  0  0  0  0  0  0  0  0  0  0
  180.8160  178.8100  140.0760 C   0  0  0  0  0  2  0  0  0  0  0  0
  183.6270  179.2500  139.7980 C   0  0  0  0  0  0  0  0  0  0  0  0
  182.6810  179.7200  138.7230 C   0  0  0  0  0  2  0  0  0  0  0  0
  184.9640  179.6200  139.6980 O   0  0  0  0  0  1  0  0  0  0  0  0
  181.3930  178.9050  138.6750 C   0  0  0  0  0  2  0  0  0  0  0  0
  181.7860  178.0400  140.9670 C   0  0  0  0  0  2  0  0  0  0  0  0
  1 25  1  6  0  0  0
  1 13  1  0  0  0  0
  2  6  1  0  0  0  0
  3  4  1  0  0  0  0
  3  2  2  0  0  0  0
  4  5  2  0  0  0  0
  5  6  1  0  0  0  0
  5  1  1  0  0  0  0
  7 10  1  0  0  0  0
  8  9  1  0  0  0  0
  9  7  2  0  0  0  0
 10  3  1  1  0  0  0
 11  9  1  0  0  0  0
 11 12  2  0  0  0  0
 12 10  1  0  0  0  0
 13 15  1  0  0  0  0
 15 14  1  6  0  0  0
 15 16  1  0  0  0  0
 16 18  1  0  0  0  0
 18 17  1  1  0  0  0
 19 18  1  0  0  0  0
 20 23  1  6  0  0  0
 20 19  1  0  0  0  0
 21 20  1  0  0  0  0
 22 21  1  0  0  0  0
 23 24  1  0  0  0  0
 26 25  1  0  0  0  0
 27 33  1  0  0  0  0
 27 26  1  0  0  0  0
 28 33  1  0  0  0  0
 29 27  2  0  0  0  0
 30 29  1  0  0  0  0
 31 29  1  0  0  0  0
 32 30  1  0  0  0  0
 32 28  1  0  0  0  0
M  END
>  <MODEL>
5

>  <REMARK>
 VINA RESULT:      -7.5      2.654      5.262
  Name = 
  13 active torsions:
  status: ('A' for Active; 'I' for Inactive)
    1  A    between atoms: C_3  and  N_28
    2  A    between atoms: C_4  and  C_17
    3  A    between atoms: C_4  and  C_27
    4  A    between atoms: C_6  and  C_14
    5  A    between atoms: C_8  and  O_10
    6  A    between atoms: C_8  and  C_20
    7  A    between atoms: C_8  and  C_29
    8  A    between atoms: C_16  and  C_17
    9  A    between atoms: C_16  and  N_28
   10  A    between atoms: C_17  and  C_25
   11  A    between atoms: C_22  and  C_23
   12  A    between atoms: C_22  and  C_29
   13  A    between atoms: C_23  and  C_27
                            x       y       z     vdW  Elec       q    Type
                         _______ _______ _______ _____ _____    ______ ____

>  <TORSDO>
F 13

$$$$
=
 OpenBabel11032420313D

 33 35  0  0  1  0  0  0  0  0999 V2000
  188.2880  178.2150  142.4810 C   0  0  1  0  0  3  0  0  0  0  0  0
  190.1330  176.8590  139.5200 N   0  0  0  0  0  0  0  0  0  0  0  0
  189.3330  177.7660  139.0640 C   0  0  0  0  0  0  0  0  0  0  0  0
  188.5420  178.3990  140.0610 N   0  0  0  0  0  0  0  0  0  0  0  0
  188.9090  177.8580  141.1700 C   0  0  0  0  0  0  0  0  0  0  0  0
  189.9590  176.8160  140.9640 C   0  0  0  0  0  2  0  0  0  0  0  0
  188.1340  177.1830  137.0050 C   0  0  0  0  0  2  0  0  0  0  0  0
  185.7230  177.5100  135.7720 Cl  0  0  0  0  0  0  0  0  0  0  0  0
  187.2030  178.0090  136.5620 C   0  0  0  0  0  0  0  0  0  0  0  0
  189.1980  178.0510  137.6040 C   0  0  1  0  0  3  0  0  0  0  0  0
  187.5470  179.3580  136.8110 N   0  0  0  0  0  0  0  0  0  0  0  0
  188.6710  179.3960  137.3990 N   0  0  0  0  0  2  0  0  0  0  0  0
  187.1880  177.2230  142.8370 C   0  0  0  0  0  2  0  0  0  0  0  0
  185.5390  178.3190  144.3550 C   0  0  0  0  0  1  0  0  0  0  0  0
  185.8320  177.9150  142.9220 C   0  0  1  0  0  3  0  0  0  0  0  0
  185.7190  179.1060  141.9640 C   0  0  0  0  0  2  0  0  0  0  0  0
  185.0870  178.7580  139.5640 C   0  0  0  0  0  1  0  0  0  0  0  0
  184.5630  178.9890  140.9700 C   0  0  1  0  0  3  0  0  0  0  0  0
  183.4920  177.9640  141.3830 C   0  0  0  0  0  2  0  0  0  0  0  0
  182.0700  178.4990  141.6150 C   0  0  2  0  0  3  0  0  0  0  0  0
  181.5860  179.1890  140.4990 O   0  0  0  0  0  0  0  0  0  0  0  0
  181.3120  178.2010  139.5520 C   0  0  0  0  0  1  0  0  0  0  0  0
  181.9910  179.3650  142.8640 C   0  0  0  0  0  2  0  0  0  0  0  0
  181.2870  178.6200  143.9820 C   0  0  0  0  0  1  0  0  0  0  0  0
  189.3420  178.2370  143.5730 C   0  0  0  0  0  2  0  0  0  0  0  0
  189.0710  177.1800  144.5370 N   0  0  0  0  0  2  0  0  0  0  0  0
  189.0930  177.3960  145.9510 C   0  0  0  0  0  0  0  0  0  0  0  0
  187.8990  177.6550  148.1700 C   0  0  0  0  0  2  0  0  0  0  0  0
  190.2660  177.3050  146.6040 C   0  0  0  0  0  0  0  0  0  0  0  0
  190.3690  177.4740  148.0980 C   0  0  0  0  0  2  0  0  0  0  0  0
  191.4230  176.9840  145.9030 O   0  0  0  0  0  1  0  0  0  0  0  0
  189.1960  178.2520  148.6840 C   0  0  0  0  0  2  0  0  0  0  0  0
  187.8290  177.8360  146.6560 C   0  0  0  0  0  2  0  0  0  0  0  0
  1 13  1  1  0  0  0
  1 25  1  0  0  0  0
  2  6  1  0  0  0  0
  3  2  2  0  0  0  0
  3  4  1  0  0  0  0
  4  5  2  0  0  0  0
  5  1  1  0  0  0  0
  6  5  1  0  0  0  0
  7 10  1  0  0  0  0
  8  9  1  0  0  0  0
  9 11  2  0  0  0  0
  9  7  1  0  0  0  0
 10  3  1  1  0  0  0
 11 12  1  0  0  0  0
 12 10  1  0  0  0  0
 13 15  1  0  0  0  0
 15 14  1  1  0  0  0
 16 15  1  0  0  0  0
 18 17  1  6  0  0  0
 18 19  1  0  0  0  0
 18 16  1  0  0  0  0
 20 19  1  6  0  0  0
 20 23  1  0  0  0  0
 21 20  1  0  0  0  0
 22 21  1  0  0  0  0
 23 24  1  0  0  0  0
 25 26  1  0  0  0  0
 26 27  1  0  0  0  0
 27 29  2  0  0  0  0
 27 33  1  0  0  0  0
 28 32  1  0  0  0  0
 29 30  1  0  0  0  0
 30 32  1  0  0  0  0
 31 29  1  0  0  0  0
 33 28  1  0  0  0  0
M  END
>  <MODEL>
6

>  <REMARK>
 VINA RESULT:      -7.4      2.770      7.133
  Name = 
  13 active torsions:
  status: ('A' for Active; 'I' for Inactive)
    1  A    between atoms: C_3  and  N_28
    2  A    between atoms: C_4  and  C_17
    3  A    between atoms: C_4  and  C_27
    4  A    between atoms: C_6  and  C_14
    5  A    between atoms: C_8  and  O_10
    6  A    between atoms: C_8  and  C_20
    7  A    between atoms: C_8  and  C_29
    8  A    between atoms: C_16  and  C_17
    9  A    between atoms: C_16  and  N_28
   10  A    between atoms: C_17  and  C_25
   11  A    between atoms: C_22  and  C_23
   12  A    between atoms: C_22  and  C_29
   13  A    between atoms: C_23  and  C_27
                            x       y       z     vdW  Elec       q    Type
                         _______ _______ _______ _____ _____    ______ ____

>  <TORSDO>
F 13

$$$$
=
 OpenBabel11032420313D

 33 35  0  0  1  0  0  0  0  0999 V2000
  185.1120  178.6590  142.0600 C   0  0  1  0  0  3  0  0  0  0  0  0
  188.7360  178.0140  141.3830 N   0  0  0  0  0  0  0  0  0  0  0  0
  188.1820  178.2090  140.2320 C   0  0  0  0  0  0  0  0  0  0  0  0
  186.7870  178.4730  140.2940 N   0  0  0  0  0  0  0  0  0  0  0  0
  186.5030  178.4610  141.5500 C   0  0  0  0  0  0  0  0  0  0  0  0
  187.7000  178.1660  142.3930 C   0  0  0  0  0  2  0  0  0  0  0  0
  188.1350  177.2880  137.9580 C   0  0  0  0  0  3  0  0  0  0  0  0
  186.9930  177.6880  135.5140 Cl  0  0  0  0  0  0  0  0  0  0  0  0
  187.9010  178.1080  136.9500 C   0  0  0  0  0  0  0  0  0  0  0  0
  188.9370  178.0760  138.9490 C   0  0  1  0  0  3  0  0  0  0  0  0
  188.4750  179.3810  137.1760 N   0  0  0  0  0  0  0  0  0  0  0  0
  189.0630  179.3760  138.3000 N   0  0  0  0  0  0  0  0  0  0  0  0
  185.0790  179.7720  143.0990 C   0  0  0  0  0  2  0  0  0  0  0  0
  183.0360  178.9900  144.2970 C   0  0  0  0  0  1  0  0  0  0  0  0
  184.5210  179.2660  144.4260 C   0  0  1  0  0  3  0  0  0  0  0  0
  185.2810  178.0440  144.9550 C   0  0  0  0  0  2  0  0  0  0  0  0
  185.9050  179.0450  147.1670 C   0  0  0  0  0  1  0  0  0  0  0  0
  186.4310  178.3970  145.8990 C   0  0  1  0  0  3  0  0  0  0  0  0
  187.3830  177.2210  146.1820 C   0  0  0  0  0  2  0  0  0  0  0  0
  188.8900  177.4990  146.0540 C   0  0  2  0  0  3  0  0  0  0  0  0
  189.4620  176.7810  144.9980 O   0  0  0  0  0  0  0  0  0  0  0  0
  190.6440  177.4590  144.6960 C   0  0  0  0  0  1  0  0  0  0  0  0
  189.6270  177.2250  147.3570 C   0  0  0  0  0  2  0  0  0  0  0  0
  189.0660  178.0860  148.4730 C   0  0  0  0  0  1  0  0  0  0  0  0
  184.1760  178.9910  140.9120 C   0  0  0  0  0  2  0  0  0  0  0  0
  183.4300  177.8000  140.5290 N   0  0  0  0  0  2  0  0  0  0  0  0
  183.0620  177.5180  139.1760 C   0  0  0  0  0  0  0  0  0  0  0  0
  183.6800  177.1160  136.7530 C   0  0  0  0  0  2  0  0  0  0  0  0
  181.8110  177.0970  138.9160 C   0  0  0  0  0  0  0  0  0  0  0  0
  181.3570  176.7360  137.5250 C   0  0  0  0  0  2  0  0  0  0  0  0
  180.9100  176.9270  139.9610 O   0  0  0  0  0  1  0  0  0  0  0  0
  182.2170  177.3750  136.4410 C   0  0  0  0  0  2  0  0  0  0  0  0
  184.0440  177.8090  138.0620 C   0  0  0  0  0  2  0  0  0  0  0  0
  1 25  1  6  0  0  0
  1 13  1  0  0  0  0
  2  6  1  0  0  0  0
  3  4  1  0  0  0  0
  3  2  2  0  0  0  0
  4  5  2  0  0  0  0
  5  1  1  0  0  0  0
  5  6  1  0  0  0  0
  7 10  1  0  0  0  0
  8  9  1  0  0  0  0
  9 11  1  0  0  0  0
  9  7  2  0  0  0  0
 10  3  1  1  0  0  0
 11 12  2  0  0  0  0
 12 10  1  0  0  0  0
 13 15  1  0  0  0  0
 15 14  1  6  0  0  0
 15 16  1  0  0  0  0
 16 18  1  0  0  0  0
 18 19  1  0  0  0  0
 18 17  1  1  0  0  0
 20 19  1  1  0  0  0
 20 23  1  0  0  0  0
 21 20  1  0  0  0  0
 22 21  1  0  0  0  0
 23 24  1  0  0  0  0
 26 25  1  0  0  0  0
 27 26  1  0  0  0  0
 28 33  1  0  0  0  0
 29 27  2  0  0  0  0
 29 31  1  0  0  0  0
 30 29  1  0  0  0  0
 32 28  1  0  0  0  0
 32 30  1  0  0  0  0
 33 27  1  0  0  0  0
M  END
>  <MODEL>
7

>  <REMARK>
 VINA RESULT:      -7.3      2.921      5.210
  Name = 
  13 active torsions:
  status: ('A' for Active; 'I' for Inactive)
    1  A    between atoms: C_3  and  N_28
    2  A    between atoms: C_4  and  C_17
    3  A    between atoms: C_4  and  C_27
    4  A    between atoms: C_6  and  C_14
    5  A    between atoms: C_8  and  O_10
    6  A    between atoms: C_8  and  C_20
    7  A    between atoms: C_8  and  C_29
    8  A    between atoms: C_16  and  C_17
    9  A    between atoms: C_16  and  N_28
   10  A    between atoms: C_17  and  C_25
   11  A    between atoms: C_22  and  C_23
   12  A    between atoms: C_22  and  C_29
   13  A    between atoms: C_23  and  C_27
                            x       y       z     vdW  Elec       q    Type
                         _______ _______ _______ _____ _____    ______ ____

>  <TORSDO>
F 13

$$$$
=
 OpenBabel11032420313D

 33 35  0  0  1  0  0  0  0  0999 V2000
  188.8860  177.0970  141.0480 C   0  0  1  0  0  3  0  0  0  0  0  0
  188.8880  178.8950  137.7660 N   0  0  0  0  0  0  0  0  0  0  0  0
  188.5850  177.6660  137.5050 C   0  0  0  0  0  0  0  0  0  0  0  0
  188.5350  176.8230  138.6490 N   0  0  0  0  0  0  0  0  0  0  0  0
  188.7970  177.5980  139.6440 C   0  0  0  0  0  0  0  0  0  0  0  0
  189.0550  179.0030  139.2070 C   0  0  0  0  0  2  0  0  0  0  0  0
  189.6840  176.6280  135.5730 C   0  0  0  0  0  3  0  0  0  0  0  0
  190.6600  174.2350  134.7020 Cl  0  0  0  0  0  0  0  0  0  0  0  0
  189.4670  175.3470  135.3370 C   0  0  0  0  0  0  0  0  0  0  0  0
  188.3940  177.1690  136.1100 C   0  0  1  0  0  3  0  0  0  0  0  0
  188.1420  174.9770  135.6690 N   0  0  0  0  0  0  0  0  0  0  0  0
  187.5260  175.9960  136.1050 N   0  0  0  0  0  0  0  0  0  0  0  0
  190.3400  176.8740  141.4440 C   0  0  0  0  0  2  0  0  0  0  0  0
  190.5530  175.1340  143.2190 C   0  0  0  0  0  1  0  0  0  0  0  0
  190.4680  176.6230  142.9430 C   0  0  1  0  0  3  0  0  0  0  0  0
  191.6440  177.3830  143.5670 C   0  0  0  0  0  2  0  0  0  0  0  0
  191.3100  179.7530  144.3120 C   0  0  0  0  0  1  0  0  0  0  0  0
  191.2410  178.2950  144.7270 C   0  0  1  0  0  3  0  0  0  0  0  0
  189.8930  177.9220  145.3690 C   0  0  0  0  0  2  0  0  0  0  0  0
  189.9190  176.8510  146.4710 C   0  0  2  0  0  3  0  0  0  0  0  0
  188.7670  176.8910  147.2620 O   0  0  0  0  0  0  0  0  0  0  0  0
  189.0140  177.8790  148.2160 C   0  0  0  0  0  1  0  0  0  0  0  0
  191.1700  176.9590  147.3320 C   0  0  0  0  0  2  0  0  0  0  0  0
  192.0250  175.7150  147.1840 C   0  0  0  0  0  1  0  0  0  0  0  0
  188.2340  178.0840  141.9990 C   0  0  0  0  0  2  0  0  0  0  0  0
  186.8530  177.6910  142.2430 N   0  0  0  0  0  2  0  0  0  0  0  0
  186.0620  178.2490  143.2960 C   0  0  0  0  0  0  0  0  0  0  0  0
  185.6770  178.7490  145.7490 C   0  0  0  0  0  2  0  0  0  0  0  0
  185.0440  179.0700  142.9790 C   0  0  0  0  0  0  0  0  0  0  0  0
  184.1910  179.7340  144.0280 C   0  0  0  0  0  2  0  0  0  0  0  0
  184.7960  179.3770  141.6460 O   0  0  0  0  0  1  0  0  0  0  0  0
  184.2300  179.0050  145.3670 C   0  0  0  0  0  2  0  0  0  0  0  0
  186.3080  177.8120  144.7230 C   0  0  0  0  0  2  0  0  0  0  0  0
  1 13  1  1  0  0  0
  1 25  1  0  0  0  0
  2  6  1  0  0  0  0
  3  2  2  0  0  0  0
  3  4  1  0  0  0  0
  4  5  2  0  0  0  0
  5  1  1  0  0  0  0
  6  5  1  0  0  0  0
  7 10  1  0  0  0  0
  8  9  1  0  0  0  0
  9  7  2  0  0  0  0
  9 11  1  0  0  0  0
 10  3  1  1  0  0  0
 11 12  2  0  0  0  0
 12 10  1  0  0  0  0
 13 15  1  0  0  0  0
 15 14  1  6  0  0  0
 15 16  1  0  0  0  0
 16 18  1  0  0  0  0
 18 17  1  6  0  0  0
 18 19  1  0  0  0  0
 20 19  1  6  0  0  0
 20 21  1  0  0  0  0
 20 23  1  0  0  0  0
 21 22  1  0  0  0  0
 24 23  1  0  0  0  0
 25 26  1  0  0  0  0
 26 27  1  0  0  0  0
 27 33  1  0  0  0  0
 29 27  2  0  0  0  0
 29 30  1  0  0  0  0
 30 32  1  0  0  0  0
 31 29  1  0  0  0  0
 32 28  1  0  0  0  0
 33 28  1  0  0  0  0
M  END
>  <MODEL>
8

>  <REMARK>
 VINA RESULT:      -7.3      3.488      6.205
  Name = 
  13 active torsions:
  status: ('A' for Active; 'I' for Inactive)
    1  A    between atoms: C_3  and  N_28
    2  A    between atoms: C_4  and  C_17
    3  A    between atoms: C_4  and  C_27
    4  A    between atoms: C_6  and  C_14
    5  A    between atoms: C_8  and  O_10
    6  A    between atoms: C_8  and  C_20
    7  A    between atoms: C_8  and  C_29
    8  A    between atoms: C_16  and  C_17
    9  A    between atoms: C_16  and  N_28
   10  A    between atoms: C_17  and  C_25
   11  A    between atoms: C_22  and  C_23
   12  A    between atoms: C_22  and  C_29
   13  A    between atoms: C_23  and  C_27
                            x       y       z     vdW  Elec       q    Type
                         _______ _______ _______ _____ _____    ______ ____

>  <TORSDO>
F 13

$$$$
=
 OpenBabel11032420313D

 33 35  0  0  1  0  0  0  0  0999 V2000
  186.4650  178.6880  142.3900 C   0  0  1  0  0  3  0  0  0  0  0  0
  189.3720  177.1660  140.5910 N   0  0  0  0  0  0  0  0  0  0  0  0
  188.8000  177.9600  139.7470 C   0  0  0  0  0  0  0  0  0  0  0  0
  187.6610  178.6360  140.2640 N   0  0  0  0  0  0  0  0  0  0  0  0
  187.5670  178.2410  141.4860 C   0  0  0  0  0  0  0  0  0  0  0  0
  188.6360  177.2610  141.8420 C   0  0  0  0  0  2  0  0  0  0  0  0
  188.4880  177.1310  137.4600 C   0  0  0  0  0  3  0  0  0  0  0  0
  186.7610  177.2700  135.3540 Cl  0  0  0  0  0  0  0  0  0  0  0  0
  187.8250  177.8830  136.6010 C   0  0  0  0  0  0  0  0  0  0  0  0
  189.2540  178.0810  138.3290 C   0  0  1  0  0  3  0  0  0  0  0  0
  188.0760  179.2590  136.8160 N   0  0  0  0  0  0  0  0  0  0  0  0
  188.8810  179.3840  137.7890 N   0  0  0  0  0  0  0  0  0  0  0  0
  185.2490  179.1140  141.5780 C   0  0  0  0  0  2  0  0  0  0  0  0
  182.9690  178.9780  142.5810 C   0  0  0  0  0  1  0  0  0  0  0  0
  184.0560  178.2060  141.8590 C   0  0  1  0  0  3  0  0  0  0  0  0
  183.5230  177.5280  140.5910 C   0  0  0  0  0  2  0  0  0  0  0  0
  184.4750  178.1050  138.3460 C   0  0  0  0  0  1  0  0  0  0  0  0
  183.4290  178.4640  139.3860 C   0  0  1  0  0  3  0  0  0  0  0  0
  182.0130  178.5720  138.7930 C   0  0  0  0  0  2  0  0  0  0  0  0
  181.2650  179.8970  139.0150 C   0  0  2  0  0  3  0  0  0  0  0  0
  182.1410  180.9860  139.0580 O   0  0  0  0  0  0  0  0  0  0  0  0
  181.5040  181.9930  138.3300 C   0  0  0  0  0  1  0  0  0  0  0  0
  180.3960  179.8510  140.2640 C   0  0  0  0  0  2  0  0  0  0  0  0
  179.7980  178.4690  140.4420 C   0  0  0  0  0  1  0  0  0  0  0  0
  186.0860  177.5710  143.3460 C   0  0  0  0  0  2  0  0  0  0  0  0
  185.9740  178.1010  144.6980 N   0  0  0  0  0  2  0  0  0  0  0  0
  186.9800  177.9020  145.6950 C   0  0  0  0  0  0  0  0  0  0  0  0
  189.3710  177.3910  146.3550 C   0  0  0  0  0  2  0  0  0  0  0  0
  186.7160  178.2610  146.9650 C   0  0  0  0  0  0  0  0  0  0  0  0
  187.7370  178.1270  148.0660 C   0  0  0  0  0  2  0  0  0  0  0  0
  185.4890  178.8320  147.2790 O   0  0  0  0  0  1  0  0  0  0  0  0
  188.8220  177.1060  147.7420 C   0  0  0  0  0  2  0  0  0  0  0  0
  188.2630  177.1900  145.3260 C   0  0  0  0  0  2  0  0  0  0  0  0
  1 13  1  6  0  0  0
  1 25  1  0  0  0  0
  2  6  1  0  0  0  0
  3  4  1  0  0  0  0
  3  2  2  0  0  0  0
  4  5  2  0  0  0  0
  5  6  1  0  0  0  0
  5  1  1  0  0  0  0
  7 10  1  0  0  0  0
  8  9  1  0  0  0  0
  9 11  1  0  0  0  0
  9  7  2  0  0  0  0
 10  3  1  1  0  0  0
 11 12  2  0  0  0  0
 12 10  1  0  0  0  0
 13 15  1  0  0  0  0
 15 14  1  6  0  0  0
 16 15  1  0  0  0  0
 18 17  1  6  0  0  0
 18 16  1  0  0  0  0
 19 18  1  0  0  0  0
 20 19  1  1  0  0  0
 20 21  1  0  0  0  0
 20 23  1  0  0  0  0
 22 21  1  0  0  0  0
 23 24  1  0  0  0  0
 25 26  1  0  0  0  0
 26 27  1  0  0  0  0
 27 29  2  0  0  0  0
 28 32  1  0  0  0  0
 29 31  1  0  0  0  0
 29 30  1  0  0  0  0
 32 30  1  0  0  0  0
 33 27  1  0  0  0  0
 33 28  1  0  0  0  0
M  END
>  <MODEL>
9

>  <REMARK>
 VINA RESULT:      -7.2      3.123      7.883
  Name = 
  13 active torsions:
  status: ('A' for Active; 'I' for Inactive)
    1  A    between atoms: C_3  and  N_28
    2  A    between atoms: C_4  and  C_17
    3  A    between atoms: C_4  and  C_27
    4  A    between atoms: C_6  and  C_14
    5  A    between atoms: C_8  and  O_10
    6  A    between atoms: C_8  and  C_20
    7  A    between atoms: C_8  and  C_29
    8  A    between atoms: C_16  and  C_17
    9  A    between atoms: C_16  and  N_28
   10  A    between atoms: C_17  and  C_25
   11  A    between atoms: C_22  and  C_23
   12  A    between atoms: C_22  and  C_29
   13  A    between atoms: C_23  and  C_27
                            x       y       z     vdW  Elec       q    Type
                         _______ _______ _______ _____ _____    ______ ____

>  <TORSDO>
F 13

$$$$
