=
 OpenBabel11042412343D

 41 45  0  0  1  0  0  0  0  0999 V2000
  183.7360  178.0180  142.3450 C   0  0  0  0  0  3  0  0  0  0  0  0
  185.1050  179.4320  141.1650 C   0  0  0  0  0  3  0  0  0  0  0  0
  184.4350  178.7500  140.2530 C   0  0  0  0  0  0  0  0  0  0  0  0
  184.6630  178.9550  142.4650 C   0  0  0  0  0  0  0  0  0  0  0  0
  183.4950  177.7660  140.8930 C   0  0  2  0  0  3  0  0  0  0  0  0
  179.4470  176.0100  138.8450 N   0  0  0  0  0  0  0  0  0  0  0  0
  180.6310  175.1400  138.8120 C   0  0  0  0  0  2  0  0  0  0  0  0
  181.3620  179.0470  141.0440 C   0  0  0  0  0  3  0  0  0  0  0  0
  182.0560  178.0190  140.5240 C   0  0  0  0  0  0  0  0  0  0  0  0
  179.9160  179.3050  140.6860 C   0  0  0  0  0  2  0  0  0  0  0  0
  179.9810  177.3300  139.1660 C   0  0  2  0  0  3  0  0  0  0  0  0
  178.9320  176.0770  137.4860 C   0  0  0  0  0  1  0  0  0  0  0  0
  181.7050  175.8470  139.4890 N   0  0  0  0  0  2  0  0  0  0  0  0
  181.3430  177.0630  139.6610 C   0  0  2  0  0  3  0  0  0  0  0  0
  179.1880  178.0140  140.2790 C   0  0  0  0  0  2  0  0  0  0  0  0
  185.1330  179.4940  143.7710 C   0  0  0  0  0  2  0  0  0  0  0  0
  184.3470  178.8580  144.9050 C   0  0  0  0  0  2  0  0  0  0  0  0
  185.3540  179.2780  147.0220 O   0  0  0  0  0  1  0  0  0  0  0  0
  185.2940  178.3520  145.9810 C   0  0  2  0  0  3  0  0  0  0  0  0
  186.6570  178.1660  145.4130 C   0  0  0  0  0  3  0  0  0  0  0  0
  187.6410  177.6850  146.1610 C   0  0  0  0  0  3  0  0  0  0  0  0
  190.1000  177.3350  146.4130 C   0  0  0  0  0  0  0  0  0  0  0  0
  190.0090  177.3910  147.6720 O   0  0  0  0  0  0  0  0  0  0  0  0
  188.9380  177.5000  145.5990 N   0  0  0  0  0  2  0  0  0  0  0  0
  191.3360  177.1170  145.7980 O   0  0  0  0  0  0  0  0  0  0  0  0
  191.6610  175.8910  145.1500 C   0  0  0  0  0  2  0  0  0  0  0  0
  190.4490  175.6090  143.1140 O   0  0  0  0  0  0  0  0  0  0  0  0
  191.8510  177.4200  143.3230 O   0  0  0  0  0  0  0  0  0  0  0  0
  190.2080  176.4360  142.0180 C   0  0  0  0  0  2  0  0  0  0  0  0
  191.6630  176.0700  143.6430 C   0  0  0  0  0  3  0  0  0  0  0  0
  191.1740  177.5790  142.1190 C   0  0  0  0  0  2  0  0  0  0  0  0
  184.6240  178.9710  138.7830 C   0  0  0  0  0  2  0  0  0  0  0  0
  185.1730  177.7350  138.0870 C   0  0  0  0  0  2  0  0  0  0  0  0
  187.2010  175.1240  136.7940 O   0  0  0  0  0  1  0  0  0  0  0  0
  187.6920  176.4230  136.6660 C   0  0  2  0  0  3  0  0  0  0  0  0
  187.5790  177.1450  137.9990 C   0  0  2  0  0  3  0  0  0  0  0  0
  186.6090  177.3210  136.0970 C   0  0  0  0  0  2  0  0  0  0  0  0
  186.5040  178.0490  137.4270 C   0  0  1  0  0  3  0  0  0  0  0  0
  188.7140  179.5100  137.4120 O   0  0  0  0  0  1  0  0  0  0  0  0
  188.6000  178.8390  139.8910 O   0  0  0  0  0  1  0  0  0  0  0  0
  189.1200  178.1330  138.3900 P   0  0  0  0  0  0  0  0  0  0  0  0
  1  4  2  0  0  0  0
  2  4  1  0  0  0  0
  3  5  1  0  0  0  0
  3  2  2  0  0  0  0
  4 16  1  0  0  0  0
  5  9  1  1  0  0  0
  5  1  1  0  0  0  0
  6 11  1  0  0  0  0
  7  6  1  0  0  0  0
  7 13  1  0  0  0  0
  9  8  2  0  0  0  0
 10  8  1  0  0  0  0
 11 14  1  0  0  0  0
 11 15  1  1  0  0  0
 12  6  1  0  0  0  0
 14 13  1  1  0  0  0
 14  9  1  0  0  0  0
 15 10  1  0  0  0  0
 16 17  1  0  0  0  0
 17 19  1  0  0  0  0
 19 18  1  1  0  0  0
 20 19  1  0  0  0  0
 20 21  2  0  0  0  0
 22 23  2  0  0  0  0
 24 21  1  0  0  0  0
 24 22  1  0  0  0  0
 25 22  1  0  0  0  0
 26 25  1  0  0  0  0
 27 30  1  0  0  0  0
 28 30  1  0  0  0  0
 29 31  1  0  0  0  0
 29 27  1  0  0  0  0
 30 26  1  0  0  0  0
 31 28  1  0  0  0  0
 32  3  1  0  0  0  0
 33 32  1  0  0  0  0
 35 34  1  1  0  0  0
 35 36  1  0  0  0  0
 36 41  1  6  0  0  0
 37 35  1  0  0  0  0
 37 38  1  0  0  0  0
 38 36  1  0  0  0  0
 38 33  1  1  0  0  0
 39 41  1  0  0  0  0
 41 40  1  0  0  0  0
M  END
>  <MODEL>
1

>  <REMARK>
 VINA RESULT:      -8.1      0.000      0.000
  Name = 
  13 active torsions:
  status: ('A' for Active; 'I' for Inactive)
    1  A    between atoms: C_1  and  C_20
    2  A    between atoms: C_1  and  C_33
    3  A    between atoms: C_5  and  C_15
    4  A    between atoms: C_5  and  C_36
    5  A    between atoms: C_10  and  C_15
    6  A    between atoms: C_12  and  O_28
    7  A    between atoms: C_12  and  C_34
    8  A    between atoms: C_13  and  C_22
    9  A    between atoms: C_14  and  O_28
   10  A    between atoms: C_24  and  P_25
   11  A    between atoms: C_33  and  C_41
   12  A    between atoms: N_35  and  C_40
   13  A    between atoms: C_37  and  C_41
                            x       y       z     vdW  Elec       q    Type
                         _______ _______ _______ _____ _____    ______ ____

>  <TORSDO>
F 13

$$$$
=
 OpenBabel11042412343D

 41 45  0  0  1  0  0  0  0  0999 V2000
  188.8520  176.5690  142.6680 C   0  0  0  0  0  3  0  0  0  0  0  0
  187.4970  178.2260  141.8410 C   0  0  0  0  0  3  0  0  0  0  0  0
  186.8720  177.7610  142.9090 C   0  0  0  0  0  0  0  0  0  0  0  0
  188.7260  177.4630  141.7010 C   0  0  0  0  0  0  0  0  0  0  0  0
  187.6520  176.6480  143.5540 C   0  0  2  0  0  3  0  0  0  0  0  0
  191.2660  177.1710  146.7670 N   0  0  0  0  0  0  0  0  0  0  0  0
  191.6480  176.7550  145.4100 C   0  0  0  0  0  2  0  0  0  0  0  0
  187.1760  177.5330  145.8350 C   0  0  0  0  0  3  0  0  0  0  0  0
  188.0400  176.9650  144.9750 C   0  0  0  0  0  0  0  0  0  0  0  0
  187.5590  177.8610  147.2610 C   0  0  0  0  0  2  0  0  0  0  0  0
  189.8280  176.9260  146.8260 C   0  0  2  0  0  3  0  0  0  0  0  0
  191.8950  176.2380  147.6890 C   0  0  0  0  0  1  0  0  0  0  0  0
  190.4290  176.6820  144.6230 N   0  0  0  0  0  2  0  0  0  0  0  0
  189.4280  176.7560  145.4180 C   0  0  2  0  0  3  0  0  0  0  0  0
  189.0670  178.1180  147.4040 C   0  0  0  0  0  2  0  0  0  0  0  0
  189.7540  177.6970  140.6500 C   0  0  0  0  0  2  0  0  0  0  0  0
  189.1190  178.3720  139.4470 C   0  0  0  0  0  2  0  0  0  0  0  0
  187.8010  176.8370  138.1890 O   0  0  0  0  0  1  0  0  0  0  0  0
  189.0700  177.4120  138.2700 C   0  0  2  0  0  3  0  0  0  0  0  0
  190.0840  176.3360  138.4490 C   0  0  0  0  0  3  0  0  0  0  0  0
  191.0620  176.1770  137.5680 C   0  0  0  0  0  3  0  0  0  0  0  0
  193.4260  175.4410  137.8830 C   0  0  0  0  0  0  0  0  0  0  0  0
  193.8420  176.6300  137.7840 O   0  0  0  0  0  0  0  0  0  0  0  0
  192.0330  175.1520  137.7590 N   0  0  0  0  0  2  0  0  0  0  0  0
  194.3210  174.3910  138.1100 O   0  0  0  0  0  0  0  0  0  0  0  0
  195.6720  174.4280  137.6610 C   0  0  0  0  0  2  0  0  0  0  0  0
  197.9140  174.6590  138.4460 O   0  0  0  0  0  0  0  0  0  0  0  0
  196.1850  175.0210  139.9190 O   0  0  0  0  0  0  0  0  0  0  0  0
  198.4750  175.1940  139.6040 C   0  0  0  0  0  2  0  0  0  0  0  0
  196.6260  174.2590  138.8300 C   0  0  0  0  0  3  0  0  0  0  0  0
  197.3550  175.3600  140.5900 C   0  0  0  0  0  2  0  0  0  0  0  0
  185.5580  178.3100  143.3740 C   0  0  0  0  0  2  0  0  0  0  0  0
  184.9110  179.2050  142.3280 C   0  0  0  0  0  2  0  0  0  0  0  0
  184.1000  180.3520  139.0680 O   0  0  0  0  0  1  0  0  0  0  0  0
  183.5360  179.1400  139.4670 C   0  0  2  0  0  3  0  0  0  0  0  0
  182.9230  179.2940  140.8500 C   0  0  2  0  0  3  0  0  0  0  0  0
  184.6120  178.2460  140.0510 C   0  0  0  0  0  2  0  0  0  0  0  0
  183.9950  178.3910  141.4320 C   0  0  1  0  0  3  0  0  0  0  0  0
  180.3980  179.8580  141.5760 O   0  0  0  0  0  1  0  0  0  0  0  0
  180.7400  178.6840  139.3160 O   0  0  0  0  0  1  0  0  0  0  0  0
  181.2460  178.4710  140.9660 P   0  0  0  0  0  0  0  0  0  0  0  0
  1  5  1  0  0  0  0
  2  3  2  0  0  0  0
  3 32  1  0  0  0  0
  3  5  1  0  0  0  0
  4  2  1  0  0  0  0
  4  1  2  0  0  0  0
  5  9  1  1  0  0  0
  6 11  1  0  0  0  0
  6 12  1  0  0  0  0
  7  6  1  0  0  0  0
  8 10  1  0  0  0  0
  9 14  1  0  0  0  0
  9  8  2  0  0  0  0
 10 15  1  0  0  0  0
 11 15  1  6  0  0  0
 13  7  1  0  0  0  0
 14 13  1  6  0  0  0
 14 11  1  0  0  0  0
 16  4  1  0  0  0  0
 17 16  1  0  0  0  0
 19 18  1  1  0  0  0
 19 20  1  0  0  0  0
 19 17  1  0  0  0  0
 21 24  1  0  0  0  0
 21 20  2  0  0  0  0
 22 25  1  0  0  0  0
 23 22  2  0  0  0  0
 24 22  1  0  0  0  0
 26 25  1  0  0  0  0
 26 30  1  0  0  0  0
 27 30  1  0  0  0  0
 27 29  1  0  0  0  0
 28 31  1  0  0  0  0
 29 31  1  0  0  0  0
 30 28  1  0  0  0  0
 33 32  1  0  0  0  0
 35 34  1  1  0  0  0
 35 37  1  0  0  0  0
 35 36  1  0  0  0  0
 36 41  1  6  0  0  0
 36 38  1  0  0  0  0
 37 38  1  0  0  0  0
 38 33  1  1  0  0  0
 40 41  1  0  0  0  0
 41 39  1  0  0  0  0
M  END
>  <MODEL>
2

>  <REMARK>
 VINA RESULT:      -7.7      4.429      8.543
  Name = 
  13 active torsions:
  status: ('A' for Active; 'I' for Inactive)
    1  A    between atoms: C_1  and  C_20
    2  A    between atoms: C_1  and  C_33
    3  A    between atoms: C_5  and  C_15
    4  A    between atoms: C_5  and  C_36
    5  A    between atoms: C_10  and  C_15
    6  A    between atoms: C_12  and  O_28
    7  A    between atoms: C_12  and  C_34
    8  A    between atoms: C_13  and  C_22
    9  A    between atoms: C_14  and  O_28
   10  A    between atoms: C_24  and  P_25
   11  A    between atoms: C_33  and  C_41
   12  A    between atoms: N_35  and  C_40
   13  A    between atoms: C_37  and  C_41
                            x       y       z     vdW  Elec       q    Type
                         _______ _______ _______ _____ _____    ______ ____

>  <TORSDO>
F 13

$$$$
=
 OpenBabel11042412343D

 41 45  0  0  1  0  0  0  0  0999 V2000
  185.6500  179.2140  145.2850 C   0  0  0  0  0  3  0  0  0  0  0  0
  185.3620  177.8290  143.4790 C   0  0  0  0  0  3  0  0  0  0  0  0
  186.6690  177.8990  143.6630 C   0  0  0  0  0  0  0  0  0  0  0  0
  184.7430  178.6640  144.4940 C   0  0  0  0  0  0  0  0  0  0  0  0
  187.0070  178.7930  144.8240 C   0  0  2  0  0  3  0  0  0  0  0  0
  191.3090  177.1980  146.4390 N   0  0  0  0  0  0  0  0  0  0  0  0
  191.3030  177.8590  145.1260 C   0  0  0  0  0  2  0  0  0  0  0  0
  187.2000  177.8260  147.1130 C   0  0  0  0  0  3  0  0  0  0  0  0
  187.7550  178.0670  145.9120 C   0  0  0  0  0  0  0  0  0  0  0  0
  187.9460  177.1050  148.2140 C   0  0  0  0  0  2  0  0  0  0  0  0
  189.9050  176.8840  146.6880 C   0  0  2  0  0  3  0  0  0  0  0  0
  192.0050  175.9310  146.2720 C   0  0  0  0  0  1  0  0  0  0  0  0
  189.9360  178.2670  144.8550 N   0  0  0  0  0  2  0  0  0  0  0  0
  189.1680  177.7050  145.7120 C   0  0  2  0  0  3  0  0  0  0  0  0
  189.4660  177.2930  148.0930 C   0  0  0  0  0  2  0  0  0  0  0  0
  183.2750  178.8300  144.6760 C   0  0  0  0  0  2  0  0  0  0  0  0
  182.5780  178.7860  143.3260 C   0  0  0  0  0  2  0  0  0  0  0  0
  180.3850  178.1300  143.9840 O   0  0  0  0  0  1  0  0  0  0  0  0
  181.1230  179.1970  143.4720 C   0  0  2  0  0  3  0  0  0  0  0  0
  180.5680  179.5830  142.1450 C   0  0  0  0  0  3  0  0  0  0  0  0
  181.2300  179.3070  141.0300 C   0  0  0  0  0  3  0  0  0  0  0  0
  181.5040  179.9370  138.6300 C   0  0  0  0  0  0  0  0  0  0  0  0
  182.7630  179.8940  138.7310 O   0  0  0  0  0  0  0  0  0  0  0  0
  180.6810  179.6710  139.7670 N   0  0  0  0  0  2  0  0  0  0  0  0
  180.8980  180.2490  137.4090 O   0  0  0  0  0  0  0  0  0  0  0  0
  180.1210  181.4270  137.2220 C   0  0  0  0  0  2  0  0  0  0  0  0
  180.2580  183.3300  135.7880 O   0  0  0  0  0  0  0  0  0  0  0  0
  181.4180  183.3570  137.7740 O   0  0  0  0  0  0  0  0  0  0  0  0
  180.7370  184.6280  135.9590 C   0  0  0  0  0  2  0  0  0  0  0  0
  180.9880  182.5610  136.7050 C   0  0  0  0  0  3  0  0  0  0  0  0
  181.5550  184.6240  137.2170 C   0  0  0  0  0  2  0  0  0  0  0  0
  187.6440  177.1600  142.7980 C   0  0  0  0  0  2  0  0  0  0  0  0
  188.3160  178.0740  141.7860 C   0  0  0  0  0  2  0  0  0  0  0  0
  191.6780  177.8760  140.6650 O   0  0  0  0  0  1  0  0  0  0  0  0
  190.7190  177.2200  139.8940 C   0  0  2  0  0  3  0  0  0  0  0  0
  189.5470  178.1520  139.6350 C   0  0  2  0  0  3  0  0  0  0  0  0
  189.8380  176.3730  140.7920 C   0  0  0  0  0  2  0  0  0  0  0  0
  188.6630  177.3000  140.5260 C   0  0  1  0  0  3  0  0  0  0  0  0
  187.2630  178.0700  138.2210 O   0  0  0  0  0  1  0  0  0  0  0  0
  189.0540  179.7540  137.4710 O   0  0  0  0  0  1  0  0  0  0  0  0
  188.9610  178.0620  137.8590 P   0  0  0  0  0  0  0  0  0  0  0  0
  2  3  2  0  0  0  0
  2  4  1  0  0  0  0
  3  5  1  0  0  0  0
  4 16  1  0  0  0  0
  4  1  2  0  0  0  0
  5  1  1  0  0  0  0
  5  9  1  1  0  0  0
  6 11  1  0  0  0  0
  7  6  1  0  0  0  0
  8 10  1  0  0  0  0
  9  8  2  0  0  0  0
 11 15  1  1  0  0  0
 12  6  1  0  0  0  0
 13  7  1  0  0  0  0
 14 13  1  1  0  0  0
 14  9  1  0  0  0  0
 14 11  1  0  0  0  0
 15 10  1  0  0  0  0
 17 19  1  0  0  0  0
 17 16  1  0  0  0  0
 19 18  1  6  0  0  0
 20 19  1  0  0  0  0
 21 20  2  0  0  0  0
 22 23  2  0  0  0  0
 22 24  1  0  0  0  0
 24 21  1  0  0  0  0
 25 22  1  0  0  0  0
 26 25  1  0  0  0  0
 27 29  1  0  0  0  0
 27 30  1  0  0  0  0
 29 31  1  0  0  0  0
 30 26  1  0  0  0  0
 30 28  1  0  0  0  0
 31 28  1  0  0  0  0
 32  3  1  0  0  0  0
 33 32  1  0  0  0  0
 35 34  1  1  0  0  0
 35 37  1  0  0  0  0
 36 41  1  6  0  0  0
 36 35  1  0  0  0  0
 36 38  1  0  0  0  0
 38 37  1  0  0  0  0
 38 33  1  1  0  0  0
 40 41  1  0  0  0  0
 41 39  1  0  0  0  0
M  END
>  <MODEL>
3

>  <REMARK>
 VINA RESULT:      -7.6      3.639      9.365
  Name = 
  13 active torsions:
  status: ('A' for Active; 'I' for Inactive)
    1  A    between atoms: C_1  and  C_20
    2  A    between atoms: C_1  and  C_33
    3  A    between atoms: C_5  and  C_15
    4  A    between atoms: C_5  and  C_36
    5  A    between atoms: C_10  and  C_15
    6  A    between atoms: C_12  and  O_28
    7  A    between atoms: C_12  and  C_34
    8  A    between atoms: C_13  and  C_22
    9  A    between atoms: C_14  and  O_28
   10  A    between atoms: C_24  and  P_25
   11  A    between atoms: C_33  and  C_41
   12  A    between atoms: N_35  and  C_40
   13  A    between atoms: C_37  and  C_41
                            x       y       z     vdW  Elec       q    Type
                         _______ _______ _______ _____ _____    ______ ____

>  <TORSDO>
F 13

$$$$
=
 OpenBabel11042412343D

 41 45  0  0  1  0  0  0  0  0999 V2000
  189.5610  176.5800  141.6860 C   0  0  0  0  0  3  0  0  0  0  0  0
  188.0610  178.2530  141.2240 C   0  0  0  0  0  3  0  0  0  0  0  0
  187.7180  177.7910  142.4140 C   0  0  0  0  0  0  0  0  0  0  0  0
  189.2070  177.4770  140.7810 C   0  0  0  0  0  0  0  0  0  0  0  0
  188.6220  176.6700  142.8440 C   0  0  2  0  0  3  0  0  0  0  0  0
  188.3240  177.3050  147.6580 N   0  0  0  0  0  0  0  0  0  0  0  0
  187.0630  177.0480  146.9490 C   0  0  0  0  0  2  0  0  0  0  0  0
  190.6980  176.9220  144.2000 C   0  0  0  0  0  3  0  0  0  0  0  0
  189.3570  176.9780  144.1230 C   0  0  0  0  0  0  0  0  0  0  0  0
  191.4430  177.2230  145.4820 C   0  0  0  0  0  2  0  0  0  0  0  0
  189.2610  177.6730  146.5990 C   0  0  2  0  0  3  0  0  0  0  0  0
  188.1170  178.4910  148.4740 C   0  0  0  0  0  1  0  0  0  0  0  0
  187.3860  176.8710  145.5430 N   0  0  0  0  0  2  0  0  0  0  0  0
  188.5980  177.2400  145.3570 C   0  0  2  0  0  3  0  0  0  0  0  0
  190.5880  176.9270  146.7240 C   0  0  0  0  0  2  0  0  0  0  0  0
  189.9430  177.7040  139.5060 C   0  0  0  0  0  2  0  0  0  0  0  0
  189.0530  178.4430  138.5210 C   0  0  0  0  0  2  0  0  0  0  0  0
  188.8230  178.0340  136.1860 O   0  0  0  0  0  1  0  0  0  0  0  0
  188.5580  177.4920  137.4440 C   0  0  2  0  0  3  0  0  0  0  0  0
  187.0910  177.2820  137.5860 C   0  0  0  0  0  3  0  0  0  0  0  0
  186.2980  178.2800  137.9510 C   0  0  0  0  0  3  0  0  0  0  0  0
  184.0380  179.0040  138.7250 C   0  0  0  0  0  0  0  0  0  0  0  0
  184.5200  180.0430  139.2570 O   0  0  0  0  0  0  0  0  0  0  0  0
  184.8940  178.0670  138.0710 N   0  0  0  0  0  2  0  0  0  0  0  0
  182.6630  178.7530  138.7710 O   0  0  0  0  0  0  0  0  0  0  0  0
  181.7940  179.0520  137.6840 C   0  0  0  0  0  2  0  0  0  0  0  0
  179.6500  179.1350  138.7270 O   0  0  0  0  0  0  0  0  0  0  0  0
  181.1120  180.8780  139.0660 O   0  0  0  0  0  0  0  0  0  0  0  0
  179.0990  179.9370  139.7250 C   0  0  0  0  0  2  0  0  0  0  0  0
  180.6460  179.9310  138.1450 C   0  0  0  0  0  3  0  0  0  0  0  0
  180.0180  181.1120  139.8910 C   0  0  0  0  0  2  0  0  0  0  0  0
  186.5680  178.3530  143.1940 C   0  0  0  0  0  2  0  0  0  0  0  0
  185.2300  178.0370  142.5430 C   0  0  0  0  0  2  0  0  0  0  0  0
  184.0620  178.6390  145.8410 O   0  0  0  0  0  1  0  0  0  0  0  0
  183.5600  179.4650  144.8360 C   0  0  2  0  0  3  0  0  0  0  0  0
  183.0950  178.6180  143.6630 C   0  0  2  0  0  3  0  0  0  0  0  0
  184.7050  179.9920  143.9920 C   0  0  0  0  0  2  0  0  0  0  0  0
  184.2350  179.1520  142.8160 C   0  0  1  0  0  3  0  0  0  0  0  0
  181.4340  178.1570  141.6010 O   0  0  0  0  0  1  0  0  0  0  0  0
  180.4050  178.2110  143.9550 O   0  0  0  0  0  1  0  0  0  0  0  0
  181.4510  179.2040  142.9860 P   0  0  0  0  0  0  0  0  0  0  0  0
  1  5  1  0  0  0  0
  2  3  2  0  0  0  0
  3  5  1  0  0  0  0
  3 32  1  0  0  0  0
  4  2  1  0  0  0  0
  4  1  2  0  0  0  0
  5  9  1  1  0  0  0
  6 12  1  0  0  0  0
  7  6  1  0  0  0  0
  8 10  1  0  0  0  0
  9  8  2  0  0  0  0
 10 15  1  0  0  0  0
 11 15  1  1  0  0  0
 11  6  1  0  0  0  0
 13  7  1  0  0  0  0
 14  9  1  1  0  0  0
 14 13  1  0  0  0  0
 14 11  1  0  0  0  0
 16  4  1  0  0  0  0
 17 16  1  0  0  0  0
 19 18  1  6  0  0  0
 19 20  1  0  0  0  0
 19 17  1  0  0  0  0
 20 21  2  0  0  0  0
 21 24  1  0  0  0  0
 22 25  1  0  0  0  0
 22 23  2  0  0  0  0
 24 22  1  0  0  0  0
 26 30  1  0  0  0  0
 26 25  1  0  0  0  0
 27 29  1  0  0  0  0
 28 31  1  0  0  0  0
 29 31  1  0  0  0  0
 30 27  1  0  0  0  0
 30 28  1  0  0  0  0
 33 32  1  0  0  0  0
 35 34  1  1  0  0  0
 36 41  1  6  0  0  0
 36 35  1  0  0  0  0
 37 35  1  0  0  0  0
 38 33  1  1  0  0  0
 38 36  1  0  0  0  0
 38 37  1  0  0  0  0
 39 41  1  0  0  0  0
 41 40  1  0  0  0  0
M  END
>  <MODEL>
4

>  <REMARK>
 VINA RESULT:      -7.6      3.477      9.637
  Name = 
  13 active torsions:
  status: ('A' for Active; 'I' for Inactive)
    1  A    between atoms: C_1  and  C_20
    2  A    between atoms: C_1  and  C_33
    3  A    between atoms: C_5  and  C_15
    4  A    between atoms: C_5  and  C_36
    5  A    between atoms: C_10  and  C_15
    6  A    between atoms: C_12  and  O_28
    7  A    between atoms: C_12  and  C_34
    8  A    between atoms: C_13  and  C_22
    9  A    between atoms: C_14  and  O_28
   10  A    between atoms: C_24  and  P_25
   11  A    between atoms: C_33  and  C_41
   12  A    between atoms: N_35  and  C_40
   13  A    between atoms: C_37  and  C_41
                            x       y       z     vdW  Elec       q    Type
                         _______ _______ _______ _____ _____    ______ ____

>  <TORSDO>
F 13

$$$$
=
 OpenBabel11042412343D

 41 45  0  0  1  0  0  0  0  0999 V2000
  187.7080  178.8130  141.0610 C   0  0  0  0  0  3  0  0  0  0  0  0
  188.3210  177.0980  142.4570 C   0  0  0  0  0  3  0  0  0  0  0  0
  187.2630  177.6520  143.0240 C   0  0  0  0  0  0  0  0  0  0  0  0
  188.5900  177.8430  141.2380 C   0  0  0  0  0  0  0  0  0  0  0  0
  186.7550  178.8110  142.2110 C   0  0  2  0  0  3  0  0  0  0  0  0
  182.0270  179.2730  143.2570 N   0  0  0  0  0  0  0  0  0  0  0  0
  182.9750  179.6650  144.3100 C   0  0  0  0  0  2  0  0  0  0  0  0
  185.0400  178.3670  140.4580 C   0  0  0  0  0  3  0  0  0  0  0  0
  185.3360  178.6110  141.7470 C   0  0  0  0  0  0  0  0  0  0  0  0
  183.6180  178.1730  139.9820 C   0  0  0  0  0  2  0  0  0  0  0  0
  182.8310  178.4860  142.3270 C   0  0  2  0  0  3  0  0  0  0  0  0
  181.0690  178.3640  143.8660 C   0  0  0  0  0  1  0  0  0  0  0  0
  184.3130  179.4670  143.7810 N   0  0  0  0  0  2  0  0  0  0  0  0
  184.2240  178.7950  142.6940 C   0  0  2  0  0  3  0  0  0  0  0  0
  182.6090  178.9100  140.8760 C   0  0  0  0  0  2  0  0  0  0  0  0
  189.6720  177.5190  140.2680 C   0  0  0  0  0  2  0  0  0  0  0  0
  189.3090  178.0520  138.8930 C   0  0  0  0  0  2  0  0  0  0  0  0
  188.0750  176.2610  137.9230 O   0  0  0  0  0  1  0  0  0  0  0  0
  189.3020  176.9220  137.8760 C   0  0  2  0  0  3  0  0  0  0  0  0
  190.3920  175.9560  138.1820 C   0  0  0  0  0  3  0  0  0  0  0  0
  191.2880  175.6340  137.2590 C   0  0  0  0  0  3  0  0  0  0  0  0
  193.6990  175.1250  137.6600 C   0  0  0  0  0  0  0  0  0  0  0  0
  194.0220  176.3230  137.4200 O   0  0  0  0  0  0  0  0  0  0  0  0
  192.3340  174.7170  137.5710 N   0  0  0  0  0  2  0  0  0  0  0  0
  194.6700  174.1820  138.0090 O   0  0  0  0  0  0  0  0  0  0  0  0
  195.9630  174.1590  137.4120 C   0  0  0  0  0  2  0  0  0  0  0  0
  197.9900  175.1400  138.2010 O   0  0  0  0  0  0  0  0  0  0  0  0
  196.4700  174.3570  139.7390 O   0  0  0  0  0  0  0  0  0  0  0  0
  198.4240  175.5710  139.4530 C   0  0  0  0  0  2  0  0  0  0  0  0
  197.0420  174.1450  138.4780 C   0  0  0  0  0  3  0  0  0  0  0  0
  197.4710  174.9960  140.4610 C   0  0  0  0  0  2  0  0  0  0  0  0
  186.6840  177.1480  144.3110 C   0  0  0  0  0  2  0  0  0  0  0  0
  187.3230  177.8100  145.5220 C   0  0  0  0  0  2  0  0  0  0  0  0
  189.1570  178.8270  148.3860 O   0  0  0  0  0  1  0  0  0  0  0  0
  189.4900  177.5920  147.8330 C   0  0  2  0  0  3  0  0  0  0  0  0
  189.6660  177.7360  146.3300 C   0  0  2  0  0  3  0  0  0  0  0  0
  188.2290  176.7820  147.6000 C   0  0  0  0  0  2  0  0  0  0  0  0
  188.4090  176.9180  146.0970 C   0  0  1  0  0  3  0  0  0  0  0  0
  191.9400  178.1770  144.9660 O   0  0  0  0  0  1  0  0  0  0  0  0
  192.1200  176.8590  147.1650 O   0  0  0  0  0  1  0  0  0  0  0  0
  191.1700  176.8090  145.7100 P   0  0  0  0  0  0  0  0  0  0  0  0
  1  4  2  0  0  0  0
  1  5  1  0  0  0  0
  2  3  2  0  0  0  0
  3 32  1  0  0  0  0
  4  2  1  0  0  0  0
  5  9  1  6  0  0  0
  5  3  1  0  0  0  0
  6 12  1  0  0  0  0
  6  7  1  0  0  0  0
  8  9  2  0  0  0  0
 10  8  1  0  0  0  0
 10 15  1  0  0  0  0
 11 15  1  6  0  0  0
 11 14  1  0  0  0  0
 11  6  1  0  0  0  0
 13  7  1  0  0  0  0
 14  9  1  6  0  0  0
 14 13  1  0  0  0  0
 16  4  1  0  0  0  0
 17 16  1  0  0  0  0
 19 18  1  1  0  0  0
 19 20  1  0  0  0  0
 19 17  1  0  0  0  0
 21 24  1  0  0  0  0
 21 20  2  0  0  0  0
 22 25  1  0  0  0  0
 23 22  2  0  0  0  0
 24 22  1  0  0  0  0
 26 25  1  0  0  0  0
 26 30  1  0  0  0  0
 27 30  1  0  0  0  0
 27 29  1  0  0  0  0
 28 31  1  0  0  0  0
 29 31  1  0  0  0  0
 30 28  1  0  0  0  0
 32 33  1  0  0  0  0
 35 34  1  1  0  0  0
 36 41  1  6  0  0  0
 36 35  1  0  0  0  0
 37 35  1  0  0  0  0
 38 33  1  1  0  0  0
 38 36  1  0  0  0  0
 38 37  1  0  0  0  0
 39 41  1  0  0  0  0
 41 40  1  0  0  0  0
M  END
>  <MODEL>
5

>  <REMARK>
 VINA RESULT:      -7.6      4.283      7.726
  Name = 
  13 active torsions:
  status: ('A' for Active; 'I' for Inactive)
    1  A    between atoms: C_1  and  C_20
    2  A    between atoms: C_1  and  C_33
    3  A    between atoms: C_5  and  C_15
    4  A    between atoms: C_5  and  C_36
    5  A    between atoms: C_10  and  C_15
    6  A    between atoms: C_12  and  O_28
    7  A    between atoms: C_12  and  C_34
    8  A    between atoms: C_13  and  C_22
    9  A    between atoms: C_14  and  O_28
   10  A    between atoms: C_24  and  P_25
   11  A    between atoms: C_33  and  C_41
   12  A    between atoms: N_35  and  C_40
   13  A    between atoms: C_37  and  C_41
                            x       y       z     vdW  Elec       q    Type
                         _______ _______ _______ _____ _____    ______ ____

>  <TORSDO>
F 13

$$$$
=
 OpenBabel11042412343D

 41 45  0  0  1  0  0  0  0  0999 V2000
  185.2680  178.6790  140.8870 C   0  0  0  0  0  3  0  0  0  0  0  0
  183.0630  178.8420  141.4990 C   0  0  0  0  0  3  0  0  0  0  0  0
  183.1120  179.2560  140.2450 C   0  0  0  0  0  0  0  0  0  0  0  0
  184.4210  178.4950  141.8860 C   0  0  0  0  0  0  0  0  0  0  0  0
  184.5170  179.2110  139.7110 C   0  0  2  0  0  3  0  0  0  0  0  0
  187.4990  177.2350  136.4150 N   0  0  0  0  0  0  0  0  0  0  0  0
  188.1030  178.1800  137.3660 C   0  0  0  0  0  2  0  0  0  0  0  0
  183.6730  177.4510  138.1620 C   0  0  0  0  0  3  0  0  0  0  0  0
  184.6510  178.3030  138.5170 C   0  0  0  0  0  0  0  0  0  0  0  0
  183.8030  176.5300  136.9690 C   0  0  0  0  0  2  0  0  0  0  0  0
  186.0640  177.4810  136.5290 C   0  0  2  0  0  3  0  0  0  0  0  0
  187.9000  177.6600  135.0830 C   0  0  0  0  0  1  0  0  0  0  0  0
  187.0480  178.6260  138.2600 N   0  0  0  0  0  2  0  0  0  0  0  0
  185.9230  178.2520  137.7760 C   0  0  2  0  0  3  0  0  0  0  0  0
  185.2690  176.1840  136.6690 C   0  0  0  0  0  2  0  0  0  0  0  0
  184.8080  177.9350  143.2100 C   0  0  0  0  0  2  0  0  0  0  0  0
  184.4970  178.9400  144.3070 C   0  0  0  0  0  2  0  0  0  0  0  0
  185.6790  179.7140  146.2240 O   0  0  0  0  0  1  0  0  0  0  0  0
  185.2210  178.5600  145.5880 C   0  0  2  0  0  3  0  0  0  0  0  0
  186.3810  177.6810  145.2750 C   0  0  0  0  0  3  0  0  0  0  0  0
  187.6030  178.0080  145.6720 C   0  0  0  0  0  3  0  0  0  0  0  0
  190.0100  177.6570  145.1080 C   0  0  0  0  0  0  0  0  0  0  0  0
  190.2180  178.9030  145.0860 O   0  0  0  0  0  0  0  0  0  0  0  0
  188.7020  177.1490  145.3770 N   0  0  0  0  0  2  0  0  0  0  0  0
  191.0520  176.7570  144.8650 O   0  0  0  0  0  0  0  0  0  0  0  0
  191.1510  176.0110  143.6570 C   0  0  0  0  0  2  0  0  0  0  0  0
  192.0380  177.4070  141.9370 O   0  0  0  0  0  0  0  0  0  0  0  0
  190.1660  176.1500  141.4840 O   0  0  0  0  0  0  0  0  0  0  0  0
  191.8070  177.5050  140.5660 C   0  0  0  0  0  2  0  0  0  0  0  0
  190.8440  176.8920  142.4600 C   0  0  0  0  0  3  0  0  0  0  0  0
  190.5440  176.7450  140.2850 C   0  0  0  0  0  2  0  0  0  0  0  0
  181.8920  179.7010  139.4970 C   0  0  0  0  0  2  0  0  0  0  0  0
  182.1960  180.8350  138.5300 C   0  0  0  0  0  2  0  0  0  0  0  0
  179.3560  180.6610  136.4090 O   0  0  0  0  0  1  0  0  0  0  0  0
  179.4170  181.7400  137.2900 C   0  0  2  0  0  3  0  0  0  0  0  0
  180.7880  182.3890  137.2080 C   0  0  2  0  0  3  0  0  0  0  0  0
  179.7450  181.2390  138.6840 C   0  0  0  0  0  2  0  0  0  0  0  0
  181.1130  181.8960  138.6060 C   0  0  1  0  0  3  0  0  0  0  0  0
  182.3380  184.5510  137.5970 O   0  0  0  0  0  1  0  0  0  0  0  0
  180.8820  184.5090  135.4800 O   0  0  0  0  0  1  0  0  0  0  0  0
  180.6760  184.2580  137.1870 P   0  0  0  0  0  0  0  0  0  0  0  0
  1  4  2  0  0  0  0
  2  4  1  0  0  0  0
  3  2  2  0  0  0  0
  4 16  1  0  0  0  0
  5  9  1  6  0  0  0
  5  3  1  0  0  0  0
  5  1  1  0  0  0  0
  6 11  1  0  0  0  0
  6  7  1  0  0  0  0
  7 13  1  0  0  0  0
  8  9  2  0  0  0  0
 10  8  1  0  0  0  0
 11 15  1  1  0  0  0
 11 14  1  0  0  0  0
 12  6  1  0  0  0  0
 14 13  1  1  0  0  0
 14  9  1  0  0  0  0
 15 10  1  0  0  0  0
 16 17  1  0  0  0  0
 17 19  1  0  0  0  0
 19 18  1  6  0  0  0
 20 19  1  0  0  0  0
 20 21  2  0  0  0  0
 22 24  1  0  0  0  0
 23 22  2  0  0  0  0
 24 21  1  0  0  0  0
 25 22  1  0  0  0  0
 26 25  1  0  0  0  0
 27 30  1  0  0  0  0
 28 30  1  0  0  0  0
 29 27  1  0  0  0  0
 30 26  1  0  0  0  0
 31 29  1  0  0  0  0
 31 28  1  0  0  0  0
 32  3  1  0  0  0  0
 33 32  1  0  0  0  0
 35 34  1  6  0  0  0
 35 37  1  0  0  0  0
 36 41  1  1  0  0  0
 36 35  1  0  0  0  0
 36 38  1  0  0  0  0
 38 33  1  6  0  0  0
 38 37  1  0  0  0  0
 40 41  1  0  0  0  0
 41 39  1  0  0  0  0
M  END
>  <MODEL>
6

>  <REMARK>
 VINA RESULT:      -7.4      3.688      5.433
  Name = 
  13 active torsions:
  status: ('A' for Active; 'I' for Inactive)
    1  A    between atoms: C_1  and  C_20
    2  A    between atoms: C_1  and  C_33
    3  A    between atoms: C_5  and  C_15
    4  A    between atoms: C_5  and  C_36
    5  A    between atoms: C_10  and  C_15
    6  A    between atoms: C_12  and  O_28
    7  A    between atoms: C_12  and  C_34
    8  A    between atoms: C_13  and  C_22
    9  A    between atoms: C_14  and  O_28
   10  A    between atoms: C_24  and  P_25
   11  A    between atoms: C_33  and  C_41
   12  A    between atoms: N_35  and  C_40
   13  A    between atoms: C_37  and  C_41
                            x       y       z     vdW  Elec       q    Type
                         _______ _______ _______ _____ _____    ______ ____

>  <TORSDO>
F 13

$$$$
=
 OpenBabel11042412343D

 41 45  0  0  1  0  0  0  0  0999 V2000
  190.1170  176.7750  140.6420 C   0  0  0  0  0  3  0  0  0  0  0  0
  192.3070  177.3700  140.3010 C   0  0  0  0  0  3  0  0  0  0  0  0
  191.9110  176.8220  139.1660 C   0  0  0  0  0  0  0  0  0  0  0  0
  191.1770  177.3220  141.2140 C   0  0  0  0  0  0  0  0  0  0  0  0
  190.4790  176.3710  139.2500 C   0  0  2  0  0  3  0  0  0  0  0  0
  186.8580  175.9070  136.0350 N   0  0  0  0  0  0  0  0  0  0  0  0
  187.2940  174.6790  136.7160 C   0  0  0  0  0  2  0  0  0  0  0  0
  189.5080  178.3920  138.1620 C   0  0  0  0  0  3  0  0  0  0  0  0
  189.5990  177.0530  138.2350 C   0  0  0  0  0  0  0  0  0  0  0  0
  188.6220  179.0860  137.1520 C   0  0  0  0  0  2  0  0  0  0  0  0
  187.9430  176.8530  136.2740 C   0  0  2  0  0  3  0  0  0  0  0  0
  186.8500  175.6190  134.6090 C   0  0  0  0  0  1  0  0  0  0  0  0
  188.3570  175.0500  137.6340 N   0  0  0  0  0  2  0  0  0  0  0  0
  188.7230  176.2470  137.3670 C   0  0  2  0  0  3  0  0  0  0  0  0
  187.4260  178.2120  136.7450 C   0  0  0  0  0  2  0  0  0  0  0  0
  191.1780  177.8810  142.5940 C   0  0  0  0  0  2  0  0  0  0  0  0
  191.6550  176.8270  143.5780 C   0  0  0  0  0  2  0  0  0  0  0  0
  191.8620  176.3380  145.9000 O   0  0  0  0  0  1  0  0  0  0  0  0
  191.5970  177.3680  144.9980 C   0  0  2  0  0  3  0  0  0  0  0  0
  190.2450  177.9260  145.2740 C   0  0  0  0  0  3  0  0  0  0  0  0
  189.2490  177.1320  145.6410 C   0  0  0  0  0  3  0  0  0  0  0  0
  187.4650  177.8190  147.2480 C   0  0  0  0  0  0  0  0  0  0  0  0
  188.1490  177.4100  148.2280 O   0  0  0  0  0  0  0  0  0  0  0  0
  187.9630  177.6830  145.9160 N   0  0  0  0  0  2  0  0  0  0  0  0
  186.2120  178.4050  147.4490 O   0  0  0  0  0  0  0  0  0  0  0  0
  185.6880  179.4040  146.5810 C   0  0  0  0  0  2  0  0  0  0  0  0
  183.4980  179.0500  145.7020 O   0  0  0  0  0  0  0  0  0  0  0  0
  185.2550  179.2660  144.2350 O   0  0  0  0  0  0  0  0  0  0  0  0
  182.9480  179.1500  144.4260 C   0  0  0  0  0  2  0  0  0  0  0  0
  184.8540  178.7720  145.4820 C   0  0  0  0  0  3  0  0  0  0  0  0
  184.0990  179.2170  143.4640 C   0  0  0  0  0  2  0  0  0  0  0  0
  192.8140  176.6940  137.9760 C   0  0  0  0  0  2  0  0  0  0  0  0
  192.7520  175.3050  137.3600 C   0  0  0  0  0  2  0  0  0  0  0  0
  193.5510  171.9420  136.5530 O   0  0  0  0  0  1  0  0  0  0  0  0
  194.5030  172.9090  136.2290 C   0  0  2  0  0  3  0  0  0  0  0  0
  194.7340  173.8170  137.4260 C   0  0  2  0  0  3  0  0  0  0  0  0
  193.8330  174.0560  135.4980 C   0  0  0  0  0  2  0  0  0  0  0  0
  194.0720  174.9670  136.6910 C   0  0  1  0  0  3  0  0  0  0  0  0
  196.5750  175.6840  136.8350 O   0  0  0  0  0  1  0  0  0  0  0  0
  196.4480  174.8840  139.2730 O   0  0  0  0  0  1  0  0  0  0  0  0
  196.5530  174.1730  137.6910 P   0  0  0  0  0  0  0  0  0  0  0  0
  1  4  2  0  0  0  0
  2  4  1  0  0  0  0
  3  5  1  0  0  0  0
  3  2  2  0  0  0  0
  4 16  1  0  0  0  0
  5  9  1  6  0  0  0
  5  1  1  0  0  0  0
  6 11  1  0  0  0  0
  6  7  1  0  0  0  0
  7 13  1  0  0  0  0
  8  9  2  0  0  0  0
 10  8  1  0  0  0  0
 11 15  1  1  0  0  0
 11 14  1  0  0  0  0
 12  6  1  0  0  0  0
 14 13  1  1  0  0  0
 14  9  1  0  0  0  0
 15 10  1  0  0  0  0
 16 17  1  0  0  0  0
 17 19  1  0  0  0  0
 19 20  1  0  0  0  0
 19 18  1  1  0  0  0
 20 21  2  0  0  0  0
 21 24  1  0  0  0  0
 22 25  1  0  0  0  0
 22 23  2  0  0  0  0
 24 22  1  0  0  0  0
 26 25  1  0  0  0  0
 28 30  1  0  0  0  0
 29 27  1  0  0  0  0
 30 27  1  0  0  0  0
 30 26  1  0  0  0  0
 31 28  1  0  0  0  0
 31 29  1  0  0  0  0
 32  3  1  0  0  0  0
 33 32  1  0  0  0  0
 35 34  1  1  0  0  0
 35 36  1  0  0  0  0
 36 41  1  6  0  0  0
 37 35  1  0  0  0  0
 37 38  1  0  0  0  0
 38 33  1  1  0  0  0
 38 36  1  0  0  0  0
 39 41  1  0  0  0  0
 41 40  1  0  0  0  0
M  END
>  <MODEL>
7

>  <REMARK>
 VINA RESULT:      -7.3      4.063      7.315
  Name = 
  13 active torsions:
  status: ('A' for Active; 'I' for Inactive)
    1  A    between atoms: C_1  and  C_20
    2  A    between atoms: C_1  and  C_33
    3  A    between atoms: C_5  and  C_15
    4  A    between atoms: C_5  and  C_36
    5  A    between atoms: C_10  and  C_15
    6  A    between atoms: C_12  and  O_28
    7  A    between atoms: C_12  and  C_34
    8  A    between atoms: C_13  and  C_22
    9  A    between atoms: C_14  and  O_28
   10  A    between atoms: C_24  and  P_25
   11  A    between atoms: C_33  and  C_41
   12  A    between atoms: N_35  and  C_40
   13  A    between atoms: C_37  and  C_41
                            x       y       z     vdW  Elec       q    Type
                         _______ _______ _______ _____ _____    ______ ____

>  <TORSDO>
F 13

$$$$
=
 OpenBabel11042412343D

 41 45  0  0  1  0  0  0  0  0999 V2000
  190.8750  176.7500  140.6530 C   0  0  0  0  0  3  0  0  0  0  0  0
  188.7660  177.6070  140.3670 C   0  0  0  0  0  3  0  0  0  0  0  0
  189.3820  177.7950  139.2120 C   0  0  0  0  0  0  0  0  0  0  0  0
  189.7180  176.9630  141.2570 C   0  0  0  0  0  0  0  0  0  0  0  0
  190.7950  177.2820  139.2600 C   0  0  2  0  0  3  0  0  0  0  0  0
  194.1090  174.6720  136.8390 N   0  0  0  0  0  0  0  0  0  0  0  0
  194.6230  175.7110  137.7410 C   0  0  0  0  0  2  0  0  0  0  0  0
  190.0780  175.3620  137.8420 C   0  0  0  0  0  3  0  0  0  0  0  0
  191.0500  176.2000  138.2430 C   0  0  0  0  0  0  0  0  0  0  0  0
  190.3270  174.2680  136.8280 C   0  0  0  0  0  2  0  0  0  0  0  0
  192.7000  175.0130  136.6640 C   0  0  2  0  0  3  0  0  0  0  0  0
  194.7580  174.8710  135.5520 C   0  0  0  0  0  1  0  0  0  0  0  0
  193.4750  176.3440  138.3680 N   0  0  0  0  0  2  0  0  0  0  0  0
  192.4180  175.9680  137.7500 C   0  0  2  0  0  3  0  0  0  0  0  0
  191.7900  173.7990  136.8400 C   0  0  0  0  0  2  0  0  0  0  0  0
  189.4160  176.5280  142.6480 C   0  0  0  0  0  2  0  0  0  0  0  0
  190.4650  177.0770  143.6010 C   0  0  0  0  0  2  0  0  0  0  0  0
  190.0550  177.1510  145.9460 O   0  0  0  0  0  1  0  0  0  0  0  0
  189.7960  177.8170  144.7480 C   0  0  2  0  0  3  0  0  0  0  0  0
  188.3250  177.8750  144.5270 C   0  0  0  0  0  3  0  0  0  0  0  0
  187.4840  177.7170  145.5400 C   0  0  0  0  0  3  0  0  0  0  0  0
  185.2370  178.6740  146.0540 C   0  0  0  0  0  0  0  0  0  0  0  0
  185.7220  179.4000  146.9680 O   0  0  0  0  0  0  0  0  0  0  0  0
  186.0780  177.7880  145.3160 N   0  0  0  0  0  2  0  0  0  0  0  0
  183.8710  178.7230  145.7560 O   0  0  0  0  0  0  0  0  0  0  0  0
  183.3590  179.4390  144.6370 C   0  0  0  0  0  2  0  0  0  0  0  0
  182.2770  178.7010  142.6420 O   0  0  0  0  0  0  0  0  0  0  0  0
  184.5510  179.0420  142.6030 O   0  0  0  0  0  0  0  0  0  0  0  0
  182.6760  178.6120  141.3100 C   0  0  0  0  0  2  0  0  0  0  0  0
  183.4680  178.6020  143.3750 C   0  0  0  0  0  3  0  0  0  0  0  0
  184.1690  178.7620  141.2960 C   0  0  0  0  0  2  0  0  0  0  0  0
  188.7100  178.4390  138.0380 C   0  0  0  0  0  2  0  0  0  0  0  0
  187.2700  177.9740  137.8800 C   0  0  0  0  0  2  0  0  0  0  0  0
  184.1730  177.4920  136.2140 O   0  0  0  0  0  1  0  0  0  0  0  0
  185.2530  176.7320  135.7660 C   0  0  2  0  0  3  0  0  0  0  0  0
  185.9530  176.0900  136.9520 C   0  0  2  0  0  3  0  0  0  0  0  0
  186.4550  177.6330  135.5540 C   0  0  0  0  0  2  0  0  0  0  0  0
  187.1590  176.9850  136.7340 C   0  0  1  0  0  3  0  0  0  0  0  0
  185.1510  173.6090  137.6060 O   0  0  0  0  0  1  0  0  0  0  0  0
  185.5460  174.1030  135.1150 O   0  0  0  0  0  1  0  0  0  0  0  0
  186.3980  174.3030  136.6160 P   0  0  0  0  0  0  0  0  0  0  0  0
  1  4  2  0  0  0  0
  2  4  1  0  0  0  0
  3  5  1  0  0  0  0
  3  2  2  0  0  0  0
  4 16  1  0  0  0  0
  5  9  1  6  0  0  0
  5  1  1  0  0  0  0
  6  7  1  0  0  0  0
  7 13  1  0  0  0  0
  8  9  2  0  0  0  0
 10 15  1  0  0  0  0
 10  8  1  0  0  0  0
 11  6  1  0  0  0  0
 11 15  1  1  0  0  0
 11 14  1  0  0  0  0
 12  6  1  0  0  0  0
 14  9  1  1  0  0  0
 14 13  1  0  0  0  0
 16 17  1  0  0  0  0
 17 19  1  0  0  0  0
 19 18  1  1  0  0  0
 20 19  1  0  0  0  0
 20 21  2  0  0  0  0
 22 23  2  0  0  0  0
 24 21  1  0  0  0  0
 24 22  1  0  0  0  0
 25 22  1  0  0  0  0
 26 25  1  0  0  0  0
 27 30  1  0  0  0  0
 28 30  1  0  0  0  0
 29 27  1  0  0  0  0
 30 26  1  0  0  0  0
 31 29  1  0  0  0  0
 31 28  1  0  0  0  0
 32  3  1  0  0  0  0
 33 32  1  0  0  0  0
 35 34  1  1  0  0  0
 35 36  1  0  0  0  0
 36 41  1  6  0  0  0
 37 35  1  0  0  0  0
 37 38  1  0  0  0  0
 38 36  1  0  0  0  0
 38 33  1  1  0  0  0
 40 41  1  0  0  0  0
 41 39  1  0  0  0  0
M  END
>  <MODEL>
8

>  <REMARK>
 VINA RESULT:      -7.0      3.652      8.035
  Name = 
  13 active torsions:
  status: ('A' for Active; 'I' for Inactive)
    1  A    between atoms: C_1  and  C_20
    2  A    between atoms: C_1  and  C_33
    3  A    between atoms: C_5  and  C_15
    4  A    between atoms: C_5  and  C_36
    5  A    between atoms: C_10  and  C_15
    6  A    between atoms: C_12  and  O_28
    7  A    between atoms: C_12  and  C_34
    8  A    between atoms: C_13  and  C_22
    9  A    between atoms: C_14  and  O_28
   10  A    between atoms: C_24  and  P_25
   11  A    between atoms: C_33  and  C_41
   12  A    between atoms: N_35  and  C_40
   13  A    between atoms: C_37  and  C_41
                            x       y       z     vdW  Elec       q    Type
                         _______ _______ _______ _____ _____    ______ ____

>  <TORSDO>
F 13

$$$$
=
 OpenBabel11042412343D

 41 45  0  0  1  0  0  0  0  0999 V2000
  188.0440  178.6170  141.2130 C   0  0  0  0  0  3  0  0  0  0  0  0
  188.4570  176.8580  142.6270 C   0  0  0  0  0  3  0  0  0  0  0  0
  187.4270  177.4980  143.1530 C   0  0  0  0  0  0  0  0  0  0  0  0
  188.8350  177.5770  141.4220 C   0  0  0  0  0  0  0  0  0  0  0  0
  187.0490  178.6940  142.3250 C   0  0  2  0  0  3  0  0  0  0  0  0
  182.3260  179.4310  143.2300 N   0  0  0  0  0  0  0  0  0  0  0  0
  183.2590  179.7090  144.3320 C   0  0  0  0  0  2  0  0  0  0  0  0
  185.3740  178.4470  140.4960 C   0  0  0  0  0  3  0  0  0  0  0  0
  185.6370  178.6120  141.8040 C   0  0  0  0  0  0  0  0  0  0  0  0
  183.9600  178.3710  139.9630 C   0  0  0  0  0  2  0  0  0  0  0  0
  183.1100  178.6330  142.2920 C   0  0  2  0  0  3  0  0  0  0  0  0
  181.2880  178.5630  143.7640 C   0  0  0  0  0  1  0  0  0  0  0  0
  184.6000  179.4440  143.8400 N   0  0  0  0  0  2  0  0  0  0  0  0
  184.5060  178.8290  142.7210 C   0  0  2  0  0  3  0  0  0  0  0  0
  182.9700  179.1360  140.8560 C   0  0  0  0  0  2  0  0  0  0  0  0
  189.9240  177.1640  140.4950 C   0  0  0  0  0  2  0  0  0  0  0  0
  189.6550  177.7140  139.1050 C   0  0  0  0  0  2  0  0  0  0  0  0
  190.4080  176.7830  137.0460 O   0  0  0  0  0  1  0  0  0  0  0  0
  189.5240  176.5770  138.1050 C   0  0  2  0  0  3  0  0  0  0  0  0
  188.1330  176.5200  137.5780 C   0  0  0  0  0  3  0  0  0  0  0  0
  187.7720  175.5730  136.7230 C   0  0  0  0  0  3  0  0  0  0  0  0
  185.4810  174.5820  136.7330 C   0  0  0  0  0  0  0  0  0  0  0  0
  185.8210  173.7280  137.6000 O   0  0  0  0  0  0  0  0  0  0  0  0
  186.4340  175.5230  136.2370 N   0  0  0  0  0  2  0  0  0  0  0  0
  184.1730  174.6140  136.2410 O   0  0  0  0  0  0  0  0  0  0  0  0
  183.1060  173.9030  136.8600 C   0  0  0  0  0  2  0  0  0  0  0  0
  180.9030  174.2090  137.7250 O   0  0  0  0  0  0  0  0  0  0  0  0
  182.6390  175.3670  138.6900 O   0  0  0  0  0  0  0  0  0  0  0  0
  180.4000  174.8020  138.8810 C   0  0  0  0  0  2  0  0  0  0  0  0
  182.1180  174.8680  137.4900 C   0  0  0  0  0  3  0  0  0  0  0  0
  181.5140  175.6170  139.4690 C   0  0  0  0  0  2  0  0  0  0  0  0
  186.7570  177.0430  144.4150 C   0  0  0  0  0  2  0  0  0  0  0  0
  187.3520  177.7070  145.6470 C   0  0  0  0  0  2  0  0  0  0  0  0
  189.2300  178.8300  148.4420 O   0  0  0  0  0  1  0  0  0  0  0  0
  189.5650  177.5810  147.9210 C   0  0  2  0  0  3  0  0  0  0  0  0
  189.7100  177.6790  146.4120 C   0  0  2  0  0  3  0  0  0  0  0  0
  188.3060  176.7530  147.7380 C   0  0  0  0  0  2  0  0  0  0  0  0
  188.4570  176.8440  146.2290 C   0  0  1  0  0  3  0  0  0  0  0  0
  192.0100  178.1200  145.0910 O   0  0  0  0  0  1  0  0  0  0  0  0
  192.1400  176.7490  147.2610 O   0  0  0  0  0  1  0  0  0  0  0  0
  191.2110  176.7470  145.7920 P   0  0  0  0  0  0  0  0  0  0  0  0
  1  4  2  0  0  0  0
  1  5  1  0  0  0  0
  2  3  2  0  0  0  0
  3 32  1  0  0  0  0
  4  2  1  0  0  0  0
  5  9  1  6  0  0  0
  5  3  1  0  0  0  0
  6 12  1  0  0  0  0
  6  7  1  0  0  0  0
  8  9  2  0  0  0  0
 10  8  1  0  0  0  0
 10 15  1  0  0  0  0
 11 15  1  6  0  0  0
 11 14  1  0  0  0  0
 11  6  1  0  0  0  0
 13  7  1  0  0  0  0
 14  9  1  6  0  0  0
 14 13  1  0  0  0  0
 16  4  1  0  0  0  0
 17 16  1  0  0  0  0
 19 18  1  6  0  0  0
 19 17  1  0  0  0  0
 20 19  1  0  0  0  0
 21 20  2  0  0  0  0
 22 23  2  0  0  0  0
 24 21  1  0  0  0  0
 24 22  1  0  0  0  0
 25 22  1  0  0  0  0
 25 26  1  0  0  0  0
 26 30  1  0  0  0  0
 27 29  1  0  0  0  0
 28 31  1  0  0  0  0
 29 31  1  0  0  0  0
 30 27  1  0  0  0  0
 30 28  1  0  0  0  0
 32 33  1  0  0  0  0
 35 34  1  1  0  0  0
 36 41  1  6  0  0  0
 36 35  1  0  0  0  0
 37 35  1  0  0  0  0
 38 33  1  6  0  0  0
 38 36  1  0  0  0  0
 38 37  1  0  0  0  0
 39 41  1  0  0  0  0
 41 40  1  0  0  0  0
M  END
>  <MODEL>
9

>  <REMARK>
 VINA RESULT:      -7.0      2.881      8.527
  Name = 
  13 active torsions:
  status: ('A' for Active; 'I' for Inactive)
    1  A    between atoms: C_1  and  C_20
    2  A    between atoms: C_1  and  C_33
    3  A    between atoms: C_5  and  C_15
    4  A    between atoms: C_5  and  C_36
    5  A    between atoms: C_10  and  C_15
    6  A    between atoms: C_12  and  O_28
    7  A    between atoms: C_12  and  C_34
    8  A    between atoms: C_13  and  C_22
    9  A    between atoms: C_14  and  O_28
   10  A    between atoms: C_24  and  P_25
   11  A    between atoms: C_33  and  C_41
   12  A    between atoms: N_35  and  C_40
   13  A    between atoms: C_37  and  C_41
                            x       y       z     vdW  Elec       q    Type
                         _______ _______ _______ _____ _____    ______ ____

>  <TORSDO>
F 13

$$$$
