=
 OpenBabel11032420293D

 33 36  0  0  1  0  0  0  0  0999 V2000
  187.3210  178.2620  142.2540 C   0  0  0  0  0  3  0  0  0  0  0  0
  186.6490  178.6550  141.0810 C   0  0  0  0  0  0  0  0  0  0  0  0
  189.3510  177.1800  143.1610 O   0  0  0  0  0  0  0  0  0  0  0  0
  190.4360  176.7100  141.1050 C   0  0  0  0  0  2  0  0  0  0  0  0
  187.2350  178.4010  139.8250 C   0  0  0  0  0  3  0  0  0  0  0  0
  188.5560  177.6300  142.1300 C   0  0  0  0  0  0  0  0  0  0  0  0
  190.5340  176.5730  142.6410 C   0  0  1  0  0  3  0  0  0  0  0  0
  189.1250  177.3870  140.9150 C   0  0  0  0  0  0  0  0  0  0  0  0
  188.4820  177.7620  139.7240 C   0  0  0  0  0  0  0  0  0  0  0  0
  188.7210  176.1360  137.8680 C   0  0  0  0  0  3  0  0  0  0  0  0
  188.6970  178.5980  137.3840 C   0  0  0  0  0  0  0  0  0  0  0  0
  187.6200  177.0660  135.8950 C   0  0  0  0  0  0  0  0  0  0  0  0
  189.0700  177.5150  138.3650 C   0  0  1  0  0  3  0  0  0  0  0  0
  189.0510  179.7870  137.5980 O   0  0  0  0  0  0  0  0  0  0  0  0
  186.8670  176.8150  134.7150 N   0  0  0  0  0  1  0  0  0  0  0  0
  187.9410  178.2850  136.2070 N   0  0  0  0  0  0  0  0  0  0  0  0
  188.0450  175.9340  136.7350 C   0  0  0  0  0  3  0  0  0  0  0  0
  185.3740  179.3100  141.1250 N   0  0  0  0  0  2  0  0  0  0  0  0
  184.0660  180.0230  139.1580 N   0  0  0  0  0  0  0  0  0  0  0  0
  184.3160  179.1730  140.1680 C   0  0  0  0  0  0  0  0  0  0  0  0
  183.0180  179.5270  138.5230 N   0  0  0  0  0  2  0  0  0  0  0  0
  182.6010  178.4030  139.0890 N   0  0  0  0  0  0  0  0  0  0  0  0
  183.4040  178.1440  140.1410 C   0  0  0  0  0  3  0  0  0  0  0  0
  191.7570  177.3080  143.1620 C   0  0  0  0  0  2  0  0  0  0  0  0
  191.4310  177.9930  144.4020 N   0  0  0  0  0  2  0  0  0  0  0  0
  189.6310  177.6210  146.5950 N   0  0  0  0  0  2  0  0  0  0  0  0
  191.7650  177.1230  145.4470 N   0  0  0  0  0  2  0  0  0  0  0  0
  190.8770  176.9220  146.5430 C   0  0  0  0  0  0  0  0  0  0  0  0
  191.1970  176.1200  147.4620 O   0  0  0  0  0  0  0  0  0  0  0  0
  188.6900  177.4670  147.6940 C   0  0  1  0  0  3  0  0  0  0  0  0
  189.0870  178.2680  148.7650 O   0  0  0  0  0  1  0  0  0  0  0  0
  187.0910  177.5350  145.7860 C   0  0  0  0  0  1  0  0  0  0  0  0
  187.3020  177.8870  147.2460 C   0  0  0  0  0  2  0  0  0  0  0  0
  2 18  1  0  0  0  0
  2  1  2  0  0  0  0
  4  7  1  0  0  0  0
  5  2  1  0  0  0  0
  6  1  1  0  0  0  0
  6  3  1  0  0  0  0
  7  3  1  0  0  0  0
  7 24  1  1  0  0  0
  8  4  1  0  0  0  0
  8  6  2  0  0  0  0
  9  5  2  0  0  0  0
  9  8  1  0  0  0  0
 10 13  1  0  0  0  0
 11 14  2  0  0  0  0
 11 13  1  0  0  0  0
 12 16  2  0  0  0  0
 12 17  1  0  0  0  0
 13  9  1  1  0  0  0
 15 12  1  0  0  0  0
 16 11  1  0  0  0  0
 17 10  2  0  0  0  0
 19 20  2  0  0  0  0
 20 18  1  0  0  0  0
 21 22  1  0  0  0  0
 21 19  1  0  0  0  0
 22 23  2  0  0  0  0
 23 20  1  0  0  0  0
 24 25  1  0  0  0  0
 25 27  1  0  0  0  0
 26 30  1  0  0  0  0
 27 28  1  0  0  0  0
 28 26  1  0  0  0  0
 28 29  2  0  0  0  0
 30 31  1  1  0  0  0
 32 33  1  0  0  0  0
 33 30  1  0  0  0  0
M  END
>  <MODEL>
1

>  <REMARK>
 VINA RESULT:      -8.6      0.000      0.000
  Name = 
  8 active torsions:
  status: ('A' for Active; 'I' for Inactive)
    1  A    between atoms: N_1  and  C_20
    2  A    between atoms: C_4  and  N_12
    3  A    between atoms: N_7  and  N_25
    4  A    between atoms: C_11  and  N_12
    5  A    between atoms: C_17  and  C_22
    6  A    between atoms: C_17  and  N_25
    7  A    between atoms: C_19  and  C_28
    8  A    between atoms: C_20  and  C_32
                            x       y       z     vdW  Elec       q    Type
                         _______ _______ _______ _____ _____    ______ ____

>  <TORSDO>
F 8

$$$$
=
 OpenBabel11032420293D

 33 36  0  0  1  0  0  0  0  0999 V2000
  186.0460  178.3310  141.7610 C   0  0  0  0  0  3  0  0  0  0  0  0
  186.4730  178.0850  143.0800 C   0  0  0  0  0  0  0  0  0  0  0  0
  186.7680  178.5620  139.4070 O   0  0  0  0  0  0  0  0  0  0  0  0
  189.0890  178.1890  139.7230 C   0  0  0  0  0  2  0  0  0  0  0  0
  187.8390  177.8610  143.3390 C   0  0  0  0  0  3  0  0  0  0  0  0
  187.0010  178.3420  140.7470 C   0  0  0  0  0  0  0  0  0  0  0  0
  187.9950  178.5120  138.6790 C   0  0  1  0  0  3  0  0  0  0  0  0
  188.3230  178.1210  140.9960 C   0  0  0  0  0  0  0  0  0  0  0  0
  188.7850  177.8770  142.3000 C   0  0  0  0  0  0  0  0  0  0  0  0
  190.7880  178.7310  143.4850 C   0  0  0  0  0  3  0  0  0  0  0  0
  190.4490  176.2600  143.2150 C   0  0  0  0  0  0  0  0  0  0  0  0
  191.3720  177.1360  145.2410 C   0  0  0  0  0  0  0  0  0  0  0  0
  190.2300  177.6290  142.6220 C   0  0  1  0  0  3  0  0  0  0  0  0
  190.1620  175.2330  142.5460 O   0  0  0  0  0  0  0  0  0  0  0  0
  191.8910  176.9330  146.5490 N   0  0  0  0  0  1  0  0  0  0  0  0
  190.9820  176.1160  144.5380 N   0  0  0  0  0  0  0  0  0  0  0  0
  191.3040  178.5010  144.6940 C   0  0  0  0  0  3  0  0  0  0  0  0
  185.5510  178.0590  144.1790 N   0  0  0  0  0  2  0  0  0  0  0  0
  185.3650  179.5230  146.1560 N   0  0  0  0  0  0  0  0  0  0  0  0
  185.8350  178.4290  145.5340 C   0  0  0  0  0  0  0  0  0  0  0  0
  185.8620  179.4800  147.3810 N   0  0  0  0  0  2  0  0  0  0  0  0
  186.6210  178.4080  147.5530 N   0  0  0  0  0  0  0  0  0  0  0  0
  186.6290  177.7120  146.3980 C   0  0  0  0  0  3  0  0  0  0  0  0
  187.9220  177.4140  137.6310 C   0  0  0  0  0  2  0  0  0  0  0  0
  189.2320  177.2130  137.0360 N   0  0  0  0  0  2  0  0  0  0  0  0
  191.9330  176.4630  137.6090 N   0  0  0  0  0  2  0  0  0  0  0  0
  189.5620  175.8650  137.2260 N   0  0  0  0  0  2  0  0  0  0  0  0
  190.9020  175.4760  137.5180 C   0  0  0  0  0  0  0  0  0  0  0  0
  191.1670  174.2570  137.7010 O   0  0  0  0  0  0  0  0  0  0  0  0
  193.3200  176.1240  137.8910 C   0  0  1  0  0  3  0  0  0  0  0  0
  194.1560  176.7840  136.9910 O   0  0  0  0  0  1  0  0  0  0  0  0
  192.6050  177.4660  139.8640 C   0  0  0  0  0  1  0  0  0  0  0  0
  193.6760  176.5490  139.3040 C   0  0  0  0  0  2  0  0  0  0  0  0
  1  2  1  0  0  0  0
  2  5  2  0  0  0  0
  2 18  1  0  0  0  0
  3  6  1  0  0  0  0
  4  8  1  0  0  0  0
  6  8  1  0  0  0  0
  6  1  2  0  0  0  0
  7 24  1  6  0  0  0
  7  3  1  0  0  0  0
  7  4  1  0  0  0  0
  8  9  2  0  0  0  0
  9  5  1  0  0  0  0
 10 17  2  0  0  0  0
 11 16  1  0  0  0  0
 12 15  1  0  0  0  0
 13  9  1  1  0  0  0
 13 11  1  0  0  0  0
 13 10  1  0  0  0  0
 14 11  2  0  0  0  0
 16 12  2  0  0  0  0
 17 12  1  0  0  0  0
 18 20  1  0  0  0  0
 19 21  1  0  0  0  0
 20 19  2  0  0  0  0
 20 23  1  0  0  0  0
 21 22  1  0  0  0  0
 23 22  2  0  0  0  0
 25 27  1  0  0  0  0
 25 24  1  0  0  0  0
 26 30  1  0  0  0  0
 27 28  1  0  0  0  0
 28 26  1  0  0  0  0
 28 29  2  0  0  0  0
 30 31  1  6  0  0  0
 30 33  1  0  0  0  0
 33 32  1  0  0  0  0
M  END
>  <MODEL>
2

>  <REMARK>
 VINA RESULT:      -8.2      2.922      7.570
  Name = 
  8 active torsions:
  status: ('A' for Active; 'I' for Inactive)
    1  A    between atoms: N_1  and  C_20
    2  A    between atoms: C_4  and  N_12
    3  A    between atoms: N_7  and  N_25
    4  A    between atoms: C_11  and  N_12
    5  A    between atoms: C_17  and  C_22
    6  A    between atoms: C_17  and  N_25
    7  A    between atoms: C_19  and  C_28
    8  A    between atoms: C_20  and  C_32
                            x       y       z     vdW  Elec       q    Type
                         _______ _______ _______ _____ _____    ______ ____

>  <TORSDO>
F 8

$$$$
=
 OpenBabel11032420293D

 33 36  0  0  1  0  0  0  0  0999 V2000
  188.4170  178.3750  140.0460 C   0  0  0  0  0  3  0  0  0  0  0  0
  188.7440  178.2340  138.6830 C   0  0  0  0  0  0  0  0  0  0  0  0
  189.0160  177.7180  142.3530 O   0  0  0  0  0  0  0  0  0  0  0  0
  190.8660  176.3250  141.8420 C   0  0  0  0  0  2  0  0  0  0  0  0
  189.8290  177.4160  138.3090 C   0  0  0  0  0  3  0  0  0  0  0  0
  189.1870  177.6960  140.9860 C   0  0  0  0  0  0  0  0  0  0  0  0
  189.9890  176.8860  142.9840 C   0  0  1  0  0  3  0  0  0  0  0  0
  190.2400  176.9070  140.6250 C   0  0  0  0  0  0  0  0  0  0  0  0
  190.5920  176.7400  139.2760 C   0  0  0  0  0  0  0  0  0  0  0  0
  191.3780  175.0840  137.6070 C   0  0  0  0  0  3  0  0  0  0  0  0
  193.0060  176.6840  138.6490 C   0  0  0  0  0  0  0  0  0  0  0  0
  193.2100  176.0900  136.3400 C   0  0  0  0  0  0  0  0  0  0  0  0
  191.7420  175.8820  138.8320 C   0  0  1  0  0  3  0  0  0  0  0  0
  193.5110  177.2910  139.6300 O   0  0  0  0  0  0  0  0  0  0  0  0
  193.8770  176.2070  135.0910 N   0  0  0  0  0  1  0  0  0  0  0  0
  193.6400  176.7610  137.3660 N   0  0  0  0  0  0  0  0  0  0  0  0
  192.0500  175.1900  136.4590 C   0  0  0  0  0  3  0  0  0  0  0  0
  187.9990  178.8990  137.6550 N   0  0  0  0  0  2  0  0  0  0  0  0
  187.1620  178.2520  135.4260 N   0  0  0  0  0  0  0  0  0  0  0  0
  187.0530  178.2940  136.7640 C   0  0  0  0  0  0  0  0  0  0  0  0
  186.0900  177.6060  134.9990 N   0  0  0  0  0  2  0  0  0  0  0  0
  185.3160  177.2400  136.0110 N   0  0  0  0  0  0  0  0  0  0  0  0
  185.8970  177.6600  137.1530 C   0  0  0  0  0  3  0  0  0  0  0  0
  190.8300  177.7170  143.9390 C   0  0  0  0  0  2  0  0  0  0  0  0
  189.9680  178.5700  144.7410 N   0  0  0  0  0  2  0  0  0  0  0  0
  187.2190  178.3260  145.4970 N   0  0  0  0  0  2  0  0  0  0  0  0
  189.6150  177.8350  145.8790 N   0  0  0  0  0  2  0  0  0  0  0  0
  188.2500  177.6980  146.2660 C   0  0  0  0  0  0  0  0  0  0  0  0
  187.9590  177.0170  147.2850 O   0  0  0  0  0  0  0  0  0  0  0  0
  185.8110  178.2330  145.8500 C   0  0  1  0  0  3  0  0  0  0  0  0
  185.4930  179.2300  146.7720 O   0  0  0  0  0  1  0  0  0  0  0  0
  183.6020  178.9850  144.9790 C   0  0  0  0  0  1  0  0  0  0  0  0
  184.9570  178.4130  144.6080 C   0  0  0  0  0  2  0  0  0  0  0  0
  1  6  1  0  0  0  0
  2  1  2  0  0  0  0
  3  7  1  0  0  0  0
  4  7  1  0  0  0  0
  5  2  1  0  0  0  0
  5  9  2  0  0  0  0
  6  3  1  0  0  0  0
  7 24  1  1  0  0  0
  8  6  2  0  0  0  0
  8  4  1  0  0  0  0
  9  8  1  0  0  0  0
 10 13  1  0  0  0  0
 11 13  1  0  0  0  0
 11 14  2  0  0  0  0
 12 17  1  0  0  0  0
 12 16  2  0  0  0  0
 13  9  1  6  0  0  0
 15 12  1  0  0  0  0
 16 11  1  0  0  0  0
 17 10  2  0  0  0  0
 18  2  1  0  0  0  0
 19 20  2  0  0  0  0
 20 23  1  0  0  0  0
 20 18  1  0  0  0  0
 21 19  1  0  0  0  0
 21 22  1  0  0  0  0
 22 23  2  0  0  0  0
 24 25  1  0  0  0  0
 25 27  1  0  0  0  0
 26 30  1  0  0  0  0
 26 28  1  0  0  0  0
 27 28  1  0  0  0  0
 28 29  2  0  0  0  0
 30 31  1  1  0  0  0
 33 32  1  0  0  0  0
 33 30  1  0  0  0  0
M  END
>  <MODEL>
3

>  <REMARK>
 VINA RESULT:      -8.1      2.790      3.747
  Name = 
  8 active torsions:
  status: ('A' for Active; 'I' for Inactive)
    1  A    between atoms: N_1  and  C_20
    2  A    between atoms: C_4  and  N_12
    3  A    between atoms: N_7  and  N_25
    4  A    between atoms: C_11  and  N_12
    5  A    between atoms: C_17  and  C_22
    6  A    between atoms: C_17  and  N_25
    7  A    between atoms: C_19  and  C_28
    8  A    between atoms: C_20  and  C_32
                            x       y       z     vdW  Elec       q    Type
                         _______ _______ _______ _____ _____    ______ ____

>  <TORSDO>
F 8

$$$$
=
 OpenBabel11032420293D

 33 36  0  0  1  0  0  0  0  0999 V2000
  186.4260  178.3180  141.5070 C   0  0  0  0  0  3  0  0  0  0  0  0
  186.7370  178.0180  142.8470 C   0  0  0  0  0  0  0  0  0  0  0  0
  187.3450  178.6100  139.2300 O   0  0  0  0  0  0  0  0  0  0  0  0
  189.6220  178.1690  139.7200 C   0  0  0  0  0  2  0  0  0  0  0  0
  188.0720  177.7500  143.2090 C   0  0  0  0  0  3  0  0  0  0  0  0
  187.4610  178.3400  140.5750 C   0  0  0  0  0  0  0  0  0  0  0  0
  188.6260  178.5530  138.6030 C   0  0  1  0  0  3  0  0  0  0  0  0
  188.7540  178.0770  140.9240 C   0  0  0  0  0  0  0  0  0  0  0  0
  189.1010  177.7780  142.2510 C   0  0  0  0  0  0  0  0  0  0  0  0
  191.0660  178.6090  143.5130 C   0  0  0  0  0  3  0  0  0  0  0  0
  190.6210  176.1440  143.3660 C   0  0  0  0  0  0  0  0  0  0  0  0
  191.4570  177.0980  145.3940 C   0  0  0  0  0  0  0  0  0  0  0  0
  190.5090  177.4830  142.6810 C   0  0  1  0  0  3  0  0  0  0  0  0
  190.3250  175.0930  142.7390 O   0  0  0  0  0  0  0  0  0  0  0  0
  191.8830  176.9510  146.7420 N   0  0  0  0  0  1  0  0  0  0  0  0
  191.0620  176.0560  144.7260 N   0  0  0  0  0  0  0  0  0  0  0  0
  191.4920  178.4290  144.7650 C   0  0  0  0  0  3  0  0  0  0  0  0
  185.7280  177.9770  143.8650 N   0  0  0  0  0  2  0  0  0  0  0  0
  185.3410  179.4330  145.8190 N   0  0  0  0  0  0  0  0  0  0  0  0
  185.8920  178.3540  145.2380 C   0  0  0  0  0  0  0  0  0  0  0  0
  185.7400  179.4040  147.0800 N   0  0  0  0  0  2  0  0  0  0  0  0
  186.5150  178.3550  147.3140 N   0  0  0  0  0  0  0  0  0  0  0  0
  186.6350  177.6600  146.1640 C   0  0  0  0  0  3  0  0  0  0  0  0
  188.6150  177.4930  137.5140 C   0  0  0  0  0  2  0  0  0  0  0  0
  187.4190  176.6770  137.6320 N   0  0  0  0  0  2  0  0  0  0  0  0
  184.6280  177.3030  137.6890 N   0  0  0  0  0  2  0  0  0  0  0  0
  186.7070  176.8240  136.4350 N   0  0  0  0  0  2  0  0  0  0  0  0
  185.3180  177.1420  136.4470 C   0  0  0  0  0  0  0  0  0  0  0  0
  184.7060  177.2850  135.3540 O   0  0  0  0  0  0  0  0  0  0  0  0
  183.2090  177.6150  137.7640 C   0  0  1  0  0  3  0  0  0  0  0  0
  182.4720  176.4310  137.8200 O   0  0  0  0  0  1  0  0  0  0  0  0
  183.8710  179.6210  139.0820 C   0  0  0  0  0  1  0  0  0  0  0  0
  182.9270  178.4370  139.0080 C   0  0  0  0  0  2  0  0  0  0  0  0
  1  2  1  0  0  0  0
  2  5  2  0  0  0  0
  2 18  1  0  0  0  0
  3  6  1  0  0  0  0
  4  8  1  0  0  0  0
  6  8  1  0  0  0  0
  6  1  2  0  0  0  0
  7 24  1  6  0  0  0
  7  3  1  0  0  0  0
  7  4  1  0  0  0  0
  8  9  2  0  0  0  0
  9  5  1  0  0  0  0
 10 17  2  0  0  0  0
 11 16  1  0  0  0  0
 12 15  1  0  0  0  0
 13  9  1  1  0  0  0
 13 11  1  0  0  0  0
 13 10  1  0  0  0  0
 14 11  2  0  0  0  0
 16 12  2  0  0  0  0
 17 12  1  0  0  0  0
 18 20  1  0  0  0  0
 19 21  1  0  0  0  0
 20 19  2  0  0  0  0
 20 23  1  0  0  0  0
 21 22  1  0  0  0  0
 23 22  2  0  0  0  0
 24 25  1  0  0  0  0
 26 30  1  0  0  0  0
 27 28  1  0  0  0  0
 27 25  1  0  0  0  0
 28 26  1  0  0  0  0
 29 28  2  0  0  0  0
 30 31  1  1  0  0  0
 30 33  1  0  0  0  0
 33 32  1  0  0  0  0
M  END
>  <MODEL>
4

>  <REMARK>
 VINA RESULT:      -8.1      2.533      7.903
  Name = 
  8 active torsions:
  status: ('A' for Active; 'I' for Inactive)
    1  A    between atoms: N_1  and  C_20
    2  A    between atoms: C_4  and  N_12
    3  A    between atoms: N_7  and  N_25
    4  A    between atoms: C_11  and  N_12
    5  A    between atoms: C_17  and  C_22
    6  A    between atoms: C_17  and  N_25
    7  A    between atoms: C_19  and  C_28
    8  A    between atoms: C_20  and  C_32
                            x       y       z     vdW  Elec       q    Type
                         _______ _______ _______ _____ _____    ______ ____

>  <TORSDO>
F 8

$$$$
=
 OpenBabel11032420293D

 33 36  0  0  1  0  0  0  0  0999 V2000
  186.5700  178.3330  141.4870 C   0  0  0  0  0  3  0  0  0  0  0  0
  186.8400  178.0020  142.8290 C   0  0  0  0  0  0  0  0  0  0  0  0
  187.5520  178.6570  139.2410 O   0  0  0  0  0  0  0  0  0  0  0  0
  189.8100  178.1750  139.7830 C   0  0  0  0  0  2  0  0  0  0  0  0
  188.1620  177.7100  143.2200 C   0  0  0  0  0  3  0  0  0  0  0  0
  187.6290  178.3590  140.5840 C   0  0  0  0  0  0  0  0  0  0  0  0
  188.8490  178.5950  138.6480 C   0  0  1  0  0  3  0  0  0  0  0  0
  188.9080  178.0720  140.9610 C   0  0  0  0  0  0  0  0  0  0  0  0
  189.2160  177.7420  142.2910 C   0  0  0  0  0  0  0  0  0  0  0  0
  191.1680  178.5330  143.6000 C   0  0  0  0  0  3  0  0  0  0  0  0
  190.6790  176.0770  143.4360 C   0  0  0  0  0  0  0  0  0  0  0  0
  191.4870  177.0110  145.4850 C   0  0  0  0  0  0  0  0  0  0  0  0
  190.6080  177.4190  142.7520 C   0  0  1  0  0  3  0  0  0  0  0  0
  190.3770  175.0330  142.8000 O   0  0  0  0  0  0  0  0  0  0  0  0
  191.8790  176.8540  146.8420 N   0  0  0  0  0  1  0  0  0  0  0  0
  191.0870  175.9780  144.8060 N   0  0  0  0  0  0  0  0  0  0  0  0
  191.5610  178.3430  144.8600 C   0  0  0  0  0  3  0  0  0  0  0  0
  185.8040  177.9560  143.8190 N   0  0  0  0  0  2  0  0  0  0  0  0
  185.3200  179.4250  145.7400 N   0  0  0  0  0  0  0  0  0  0  0  0
  185.9210  178.3570  145.1890 C   0  0  0  0  0  0  0  0  0  0  0  0
  185.6880  179.4280  147.0110 N   0  0  0  0  0  2  0  0  0  0  0  0
  186.4910  178.4080  147.2790 N   0  0  0  0  0  0  0  0  0  0  0  0
  186.6630  177.7020  146.1430 C   0  0  0  0  0  3  0  0  0  0  0  0
  188.8540  177.5570  137.5380 C   0  0  0  0  0  2  0  0  0  0  0  0
  187.4910  177.2700  137.1250 N   0  0  0  0  0  2  0  0  0  0  0  0
  186.7720  174.5060  136.9460 N   0  0  0  0  0  2  0  0  0  0  0  0
  187.5700  176.6010  135.8980 N   0  0  0  0  0  2  0  0  0  0  0  0
  187.2100  175.2260  135.7900 C   0  0  0  0  0  0  0  0  0  0  0  0
  187.2750  174.6540  134.6690 O   0  0  0  0  0  0  0  0  0  0  0  0
  186.4040  173.0990  136.9000 C   0  0  1  0  0  3  0  0  0  0  0  0
  187.4640  172.3230  137.3700 O   0  0  0  0  0  1  0  0  0  0  0  0
  184.1710  173.9680  137.5790 C   0  0  0  0  0  1  0  0  0  0  0  0
  185.1850  172.8570  137.7720 C   0  0  0  0  0  2  0  0  0  0  0  0
  1  2  1  0  0  0  0
  2  5  2  0  0  0  0
  2 18  1  0  0  0  0
  3  6  1  0  0  0  0
  4  8  1  0  0  0  0
  6  8  1  0  0  0  0
  6  1  2  0  0  0  0
  7 24  1  6  0  0  0
  7  3  1  0  0  0  0
  7  4  1  0  0  0  0
  8  9  2  0  0  0  0
  9  5  1  0  0  0  0
 10 17  2  0  0  0  0
 11 16  1  0  0  0  0
 12 15  1  0  0  0  0
 13  9  1  1  0  0  0
 13 11  1  0  0  0  0
 13 10  1  0  0  0  0
 14 11  2  0  0  0  0
 16 12  2  0  0  0  0
 17 12  1  0  0  0  0
 18 20  1  0  0  0  0
 19 21  1  0  0  0  0
 20 19  2  0  0  0  0
 20 23  1  0  0  0  0
 21 22  1  0  0  0  0
 23 22  2  0  0  0  0
 25 24  1  0  0  0  0
 27 25  1  0  0  0  0
 28 27  1  0  0  0  0
 28 26  1  0  0  0  0
 29 28  2  0  0  0  0
 30 26  1  0  0  0  0
 30 31  1  1  0  0  0
 30 33  1  0  0  0  0
 32 33  1  0  0  0  0
M  END
>  <MODEL>
5

>  <REMARK>
 VINA RESULT:      -8.1      2.799      8.061
  Name = 
  8 active torsions:
  status: ('A' for Active; 'I' for Inactive)
    1  A    between atoms: N_1  and  C_20
    2  A    between atoms: C_4  and  N_12
    3  A    between atoms: N_7  and  N_25
    4  A    between atoms: C_11  and  N_12
    5  A    between atoms: C_17  and  C_22
    6  A    between atoms: C_17  and  N_25
    7  A    between atoms: C_19  and  C_28
    8  A    between atoms: C_20  and  C_32
                            x       y       z     vdW  Elec       q    Type
                         _______ _______ _______ _____ _____    ______ ____

>  <TORSDO>
F 8

$$$$
=
 OpenBabel11032420293D

 33 36  0  0  1  0  0  0  0  0999 V2000
  185.8940  178.5140  146.7070 C   0  0  0  0  0  3  0  0  0  0  0  0
  187.1510  177.8930  146.5790 C   0  0  0  0  0  0  0  0  0  0  0  0
  183.9130  179.3530  145.4870 O   0  0  0  0  0  0  0  0  0  0  0  0
  184.6040  178.7950  143.2880 C   0  0  0  0  0  2  0  0  0  0  0  0
  187.6250  177.5390  145.3000 C   0  0  0  0  0  3  0  0  0  0  0  0
  185.1550  178.7600  145.5520 C   0  0  0  0  0  0  0  0  0  0  0  0
  183.4830  179.4460  144.1290 C   0  0  1  0  0  3  0  0  0  0  0  0
  185.6110  178.4140  144.3140 C   0  0  0  0  0  0  0  0  0  0  0  0
  186.8610  177.7960  144.1480 C   0  0  0  0  0  0  0  0  0  0  0  0
  187.9700  178.5910  142.0780 C   0  0  0  0  0  3  0  0  0  0  0  0
  188.3890  176.2610  142.9110 C   0  0  0  0  0  0  0  0  0  0  0  0
  190.1670  177.5300  141.9370 C   0  0  0  0  0  0  0  0  0  0  0  0
  187.4050  177.3990  142.8060 C   0  0  1  0  0  3  0  0  0  0  0  0
  188.0160  175.1490  143.3690 O   0  0  0  0  0  0  0  0  0  0  0  0
  191.5280  177.6460  141.5430 N   0  0  0  0  0  1  0  0  0  0  0  0
  189.7490  176.4330  142.4920 N   0  0  0  0  0  0  0  0  0  0  0  0
  189.2450  178.6510  141.6890 C   0  0  0  0  0  3  0  0  0  0  0  0
  187.9720  177.6070  147.7190 N   0  0  0  0  0  2  0  0  0  0  0  0
  190.3150  178.0010  148.3850 N   0  0  0  0  0  0  0  0  0  0  0  0
  189.3760  177.3230  147.7040 C   0  0  0  0  0  0  0  0  0  0  0  0
  191.4630  177.4140  148.0950 N   0  0  0  0  0  2  0  0  0  0  0  0
  191.2860  176.3970  147.2630 N   0  0  0  0  0  0  0  0  0  0  0  0
  189.9680  176.3070  146.9910 C   0  0  0  0  0  3  0  0  0  0  0  0
  182.1790  178.6870  143.9530 C   0  0  0  0  0  2  0  0  0  0  0  0
  181.3480  179.3550  142.9670 N   0  0  0  0  0  2  0  0  0  0  0  0
  182.7850  179.2310  140.4960 N   0  0  0  0  0  2  0  0  0  0  0  0
  181.0090  178.3970  142.0030 N   0  0  0  0  0  2  0  0  0  0  0  0
  181.7190  178.3170  140.7700 C   0  0  0  0  0  0  0  0  0  0  0  0
  181.4040  177.4340  139.9290 O   0  0  0  0  0  0  0  0  0  0  0  0
  183.5370  179.2070  139.2500 C   0  0  1  0  0  3  0  0  0  0  0  0
  184.1340  180.4500  139.0400 O   0  0  0  0  0  1  0  0  0  0  0  0
  185.5500  178.2590  138.1320 C   0  0  0  0  0  1  0  0  0  0  0  0
  184.6160  178.1420  139.3210 C   0  0  0  0  0  2  0  0  0  0  0  0
  2  1  1  0  0  0  0
  2 18  1  0  0  0  0
  3  6  1  0  0  0  0
  4  7  1  0  0  0  0
  4  8  1  0  0  0  0
  5  2  2  0  0  0  0
  6  1  2  0  0  0  0
  7 24  1  1  0  0  0
  7  3  1  0  0  0  0
  8  6  1  0  0  0  0
  9  8  2  0  0  0  0
  9  5  1  0  0  0  0
 10 13  1  0  0  0  0
 11 14  2  0  0  0  0
 12 16  2  0  0  0  0
 13 11  1  0  0  0  0
 13  9  1  1  0  0  0
 15 12  1  0  0  0  0
 16 11  1  0  0  0  0
 17 12  1  0  0  0  0
 17 10  2  0  0  0  0
 20 18  1  0  0  0  0
 20 19  2  0  0  0  0
 21 19  1  0  0  0  0
 22 21  1  0  0  0  0
 23 22  2  0  0  0  0
 23 20  1  0  0  0  0
 25 24  1  0  0  0  0
 26 28  1  0  0  0  0
 27 25  1  0  0  0  0
 28 27  1  0  0  0  0
 29 28  2  0  0  0  0
 30 31  1  1  0  0  0
 30 33  1  0  0  0  0
 30 26  1  0  0  0  0
 32 33  1  0  0  0  0
M  END
>  <MODEL>
6

>  <REMARK>
 VINA RESULT:      -7.8      3.132      8.437
  Name = 
  8 active torsions:
  status: ('A' for Active; 'I' for Inactive)
    1  A    between atoms: N_1  and  C_20
    2  A    between atoms: C_4  and  N_12
    3  A    between atoms: N_7  and  N_25
    4  A    between atoms: C_11  and  N_12
    5  A    between atoms: C_17  and  C_22
    6  A    between atoms: C_17  and  N_25
    7  A    between atoms: C_19  and  C_28
    8  A    between atoms: C_20  and  C_32
                            x       y       z     vdW  Elec       q    Type
                         _______ _______ _______ _____ _____    ______ ____

>  <TORSDO>
F 8

$$$$
=
 OpenBabel11032420293D

 33 36  0  0  1  0  0  0  0  0999 V2000
  187.3260  178.1340  142.3910 C   0  0  0  0  0  3  0  0  0  0  0  0
  186.6630  178.6250  141.2490 C   0  0  0  0  0  0  0  0  0  0  0  0
  189.3070  176.9040  143.2120 O   0  0  0  0  0  0  0  0  0  0  0  0
  190.3470  176.4940  141.1200 C   0  0  0  0  0  2  0  0  0  0  0  0
  187.2240  178.4120  139.9740 C   0  0  0  0  0  3  0  0  0  0  0  0
  188.5260  177.4490  142.2170 C   0  0  0  0  0  0  0  0  0  0  0  0
  190.4530  176.2680  142.6450 C   0  0  1  0  0  3  0  0  0  0  0  0
  189.0710  177.2450  140.9830 C   0  0  0  0  0  0  0  0  0  0  0  0
  188.4360  177.7170  139.8230 C   0  0  0  0  0  0  0  0  0  0  0  0
  190.4940  177.6900  138.4410 C   0  0  0  0  0  3  0  0  0  0  0  0
  188.5620  176.2040  137.8440 C   0  0  0  0  0  0  0  0  0  0  0  0
  190.8080  175.4210  137.5890 C   0  0  0  0  0  0  0  0  0  0  0  0
  188.9970  177.5170  138.4450 C   0  0  1  0  0  3  0  0  0  0  0  0
  187.3380  175.9780  137.6520 O   0  0  0  0  0  0  0  0  0  0  0  0
  191.7230  174.3960  137.2240 N   0  0  0  0  0  1  0  0  0  0  0  0
  189.5300  175.2090  137.4890 N   0  0  0  0  0  0  0  0  0  0  0  0
  191.3240  176.7190  138.0560 C   0  0  0  0  0  3  0  0  0  0  0  0
  185.4240  179.3400  141.3450 N   0  0  0  0  0  2  0  0  0  0  0  0
  184.6730  179.7770  143.6540 N   0  0  0  0  0  0  0  0  0  0  0  0
  184.4850  179.2690  142.4240 C   0  0  0  0  0  0  0  0  0  0  0  0
  183.5710  179.4970  144.3300 N   0  0  0  0  0  2  0  0  0  0  0  0
  182.7020  178.8380  143.5780 N   0  0  0  0  0  0  0  0  0  0  0  0
  183.2470  178.6730  142.3560 C   0  0  0  0  0  3  0  0  0  0  0  0
  191.7170  176.9110  143.1910 C   0  0  0  0  0  2  0  0  0  0  0  0
  191.4030  177.6860  144.3780 N   0  0  0  0  0  2  0  0  0  0  0  0
  189.6420  177.5250  146.6280 N   0  0  0  0  0  2  0  0  0  0  0  0
  191.7430  176.8950  145.4830 N   0  0  0  0  0  2  0  0  0  0  0  0
  190.8740  176.7990  146.6080 C   0  0  0  0  0  0  0  0  0  0  0  0
  191.1980  176.0660  147.5810 O   0  0  0  0  0  0  0  0  0  0  0  0
  188.7220  177.4770  147.7550 C   0  0  1  0  0  3  0  0  0  0  0  0
  189.1950  178.2950  148.7810 O   0  0  0  0  0  1  0  0  0  0  0  0
  187.0750  177.5520  145.8880 C   0  0  0  0  0  1  0  0  0  0  0  0
  187.3520  177.9650  147.3200 C   0  0  0  0  0  2  0  0  0  0  0  0
  2 18  1  0  0  0  0
  2  1  2  0  0  0  0
  4  7  1  0  0  0  0
  5  2  1  0  0  0  0
  6  1  1  0  0  0  0
  6  3  1  0  0  0  0
  7 24  1  1  0  0  0
  7  3  1  0  0  0  0
  8  4  1  0  0  0  0
  8  6  2  0  0  0  0
  9  5  2  0  0  0  0
  9  8  1  0  0  0  0
 10 13  1  0  0  0  0
 11 13  1  0  0  0  0
 12 17  1  0  0  0  0
 13  9  1  1  0  0  0
 14 11  2  0  0  0  0
 15 12  1  0  0  0  0
 16 12  2  0  0  0  0
 16 11  1  0  0  0  0
 17 10  2  0  0  0  0
 18 20  1  0  0  0  0
 19 21  1  0  0  0  0
 20 19  2  0  0  0  0
 22 21  1  0  0  0  0
 23 20  1  0  0  0  0
 23 22  2  0  0  0  0
 24 25  1  0  0  0  0
 25 27  1  0  0  0  0
 26 30  1  0  0  0  0
 27 28  1  0  0  0  0
 28 26  1  0  0  0  0
 28 29  2  0  0  0  0
 30 31  1  1  0  0  0
 32 33  1  0  0  0  0
 33 30  1  0  0  0  0
M  END
>  <MODEL>
7

>  <REMARK>
 VINA RESULT:      -7.8      1.904      2.423
  Name = 
  8 active torsions:
  status: ('A' for Active; 'I' for Inactive)
    1  A    between atoms: N_1  and  C_20
    2  A    between atoms: C_4  and  N_12
    3  A    between atoms: N_7  and  N_25
    4  A    between atoms: C_11  and  N_12
    5  A    between atoms: C_17  and  C_22
    6  A    between atoms: C_17  and  N_25
    7  A    between atoms: C_19  and  C_28
    8  A    between atoms: C_20  and  C_32
                            x       y       z     vdW  Elec       q    Type
                         _______ _______ _______ _____ _____    ______ ____

>  <TORSDO>
F 8

$$$$
=
 OpenBabel11032420293D

 33 36  0  0  1  0  0  0  0  0999 V2000
  188.4210  178.3000  141.2990 C   0  0  0  0  0  3  0  0  0  0  0  0
  189.4240  177.6810  140.5280 C   0  0  0  0  0  0  0  0  0  0  0  0
  186.1040  179.1620  141.2950 O   0  0  0  0  0  0  0  0  0  0  0  0
  185.5520  178.6510  139.0460 C   0  0  0  0  0  2  0  0  0  0  0  0
  189.1650  177.3550  139.1820 C   0  0  0  0  0  3  0  0  0  0  0  0
  187.1940  178.5690  140.6980 C   0  0  0  0  0  0  0  0  0  0  0  0
  185.0350  179.2840  140.3570 C   0  0  1  0  0  3  0  0  0  0  0  0
  186.9410  178.2490  139.3960 C   0  0  0  0  0  0  0  0  0  0  0  0
  187.9190  177.6360  138.5960 C   0  0  0  0  0  0  0  0  0  0  0  0
  188.7360  177.8780  136.2680 C   0  0  0  0  0  3  0  0  0  0  0  0
  187.5620  175.7750  136.9730 C   0  0  0  0  0  0  0  0  0  0  0  0
  189.4180  175.6720  135.4680 C   0  0  0  0  0  0  0  0  0  0  0  0
  187.6860  177.2670  137.1600 C   0  0  1  0  0  3  0  0  0  0  0  0
  186.6330  175.1470  137.5470 O   0  0  0  0  0  0  0  0  0  0  0  0
  190.3150  174.9150  134.6660 N   0  0  0  0  0  1  0  0  0  0  0  0
  188.4920  175.0650  136.1470 N   0  0  0  0  0  0  0  0  0  0  0  0
  189.5370  177.1390  135.4980 C   0  0  0  0  0  3  0  0  0  0  0  0
  190.7140  177.3730  141.0740 N   0  0  0  0  0  2  0  0  0  0  0  0
  191.5240  178.2560  143.2300 N   0  0  0  0  0  0  0  0  0  0  0  0
  191.0430  177.2630  142.4640 C   0  0  0  0  0  0  0  0  0  0  0  0
  191.6830  177.7340  144.4350 N   0  0  0  0  0  2  0  0  0  0  0  0
  191.3220  176.4600  144.4570 N   0  0  0  0  0  0  0  0  0  0  0  0
  190.9070  176.1220  143.2190 C   0  0  0  0  0  3  0  0  0  0  0  0
  183.8190  178.5270  140.8670 C   0  0  0  0  0  2  0  0  0  0  0  0
  184.1370  177.8760  142.1270 N   0  0  0  0  0  2  0  0  0  0  0  0
  185.3110  178.3670  144.6900 N   0  0  0  0  0  2  0  0  0  0  0  0
  183.4040  178.5370  143.1210 N   0  0  0  0  0  2  0  0  0  0  0  0
  183.9760  178.7950  144.4010 C   0  0  0  0  0  0  0  0  0  0  0  0
  183.3000  179.4060  145.2710 O   0  0  0  0  0  0  0  0  0  0  0  0
  185.9430  178.5900  145.9820 C   0  0  1  0  0  3  0  0  0  0  0  0
  185.1240  178.0920  146.9950 O   0  0  0  0  0  1  0  0  0  0  0  0
  187.5260  177.1290  144.7320 C   0  0  0  0  0  1  0  0  0  0  0  0
  187.2820  177.8780  146.0280 C   0  0  0  0  0  2  0  0  0  0  0  0
  2 18  1  0  0  0  0
  2  1  2  0  0  0  0
  4  8  1  0  0  0  0
  4  7  1  0  0  0  0
  5  2  1  0  0  0  0
  6  3  1  0  0  0  0
  6  1  1  0  0  0  0
  7 24  1  1  0  0  0
  7  3  1  0  0  0  0
  8  6  2  0  0  0  0
  9  5  2  0  0  0  0
  9  8  1  0  0  0  0
 10 13  1  0  0  0  0
 11 13  1  0  0  0  0
 11 14  2  0  0  0  0
 12 17  1  0  0  0  0
 12 16  2  0  0  0  0
 13  9  1  1  0  0  0
 15 12  1  0  0  0  0
 16 11  1  0  0  0  0
 17 10  2  0  0  0  0
 18 20  1  0  0  0  0
 19 21  1  0  0  0  0
 20 23  1  0  0  0  0
 20 19  2  0  0  0  0
 21 22  1  0  0  0  0
 23 22  2  0  0  0  0
 24 25  1  0  0  0  0
 25 27  1  0  0  0  0
 26 30  1  0  0  0  0
 27 28  1  0  0  0  0
 28 26  1  0  0  0  0
 28 29  2  0  0  0  0
 30 33  1  0  0  0  0
 30 31  1  1  0  0  0
 32 33  1  0  0  0  0
M  END
>  <MODEL>
8

>  <REMARK>
 VINA RESULT:      -7.6      2.547      5.654
  Name = 
  8 active torsions:
  status: ('A' for Active; 'I' for Inactive)
    1  A    between atoms: N_1  and  C_20
    2  A    between atoms: C_4  and  N_12
    3  A    between atoms: N_7  and  N_25
    4  A    between atoms: C_11  and  N_12
    5  A    between atoms: C_17  and  C_22
    6  A    between atoms: C_17  and  N_25
    7  A    between atoms: C_19  and  C_28
    8  A    between atoms: C_20  and  C_32
                            x       y       z     vdW  Elec       q    Type
                         _______ _______ _______ _____ _____    ______ ____

>  <TORSDO>
F 8

$$$$
=
 OpenBabel11032420293D

 33 36  0  0  1  0  0  0  0  0999 V2000
  187.5720  178.2120  139.4790 C   0  0  0  0  0  3  0  0  0  0  0  0
  187.3400  178.6210  140.8070 C   0  0  0  0  0  0  0  0  0  0  0  0
  189.1690  177.1080  137.9490 O   0  0  0  0  0  0  0  0  0  0  0  0
  190.8840  176.6420  139.5200 C   0  0  0  0  0  2  0  0  0  0  0  0
  188.3200  178.3800  141.7910 C   0  0  0  0  0  3  0  0  0  0  0  0
  188.7750  177.5750  139.1820 C   0  0  0  0  0  0  0  0  0  0  0  0
  190.4710  176.5280  138.0350 C   0  0  1  0  0  3  0  0  0  0  0  0
  189.7220  177.3390  140.1350 C   0  0  0  0  0  0  0  0  0  0  0  0
  189.5260  177.7360  141.4670 C   0  0  0  0  0  0  0  0  0  0  0  0
  190.7230  178.7280  143.3990 C   0  0  0  0  0  3  0  0  0  0  0  0
  190.2170  176.2700  143.3640 C   0  0  0  0  0  0  0  0  0  0  0  0
  190.0700  177.5020  145.4100 C   0  0  0  0  0  0  0  0  0  0  0  0
  190.5400  177.4970  142.5490 C   0  0  1  0  0  3  0  0  0  0  0  0
  190.1740  175.1420  142.8080 O   0  0  0  0  0  0  0  0  0  0  0  0
  189.7990  177.5490  146.8040 N   0  0  0  0  0  1  0  0  0  0  0  0
  189.9590  176.3770  144.7700 N   0  0  0  0  0  0  0  0  0  0  0  0
  190.4960  178.7280  144.7140 C   0  0  0  0  0  3  0  0  0  0  0  0
  186.1280  179.2840  141.1920 N   0  0  0  0  0  2  0  0  0  0  0  0
  184.4080  179.7550  139.4880 N   0  0  0  0  0  0  0  0  0  0  0  0
  184.8400  179.1150  140.5870 C   0  0  0  0  0  0  0  0  0  0  0  0
  183.1810  179.3090  139.2720 N   0  0  0  0  0  2  0  0  0  0  0  0
  182.8280  178.4180  140.1870 N   0  0  0  0  0  0  0  0  0  0  0  0
  183.8590  178.2670  141.0420 C   0  0  0  0  0  3  0  0  0  0  0  0
  190.4100  175.0700  137.6120 C   0  0  0  0  0  2  0  0  0  0  0  0
  191.3500  174.8310  136.5290 N   0  0  0  0  0  2  0  0  0  0  0  0
  194.0380  174.6410  137.4880 N   0  0  0  0  0  2  0  0  0  0  0  0
  192.1970  175.9450  136.4720 N   0  0  0  0  0  2  0  0  0  0  0  0
  193.5410  175.8650  136.9400 C   0  0  0  0  0  0  0  0  0  0  0  0
  194.2860  176.8780  136.8610 O   0  0  0  0  0  0  0  0  0  0  0  0
  195.3960  174.5030  137.9940 C   0  0  1  0  0  3  0  0  0  0  0  0
  195.4790  175.0600  139.2700 O   0  0  0  0  0  1  0  0  0  0  0  0
  197.1910  172.8290  137.5730 C   0  0  0  0  0  1  0  0  0  0  0  0
  195.7720  173.0350  138.0650 C   0  0  0  0  0  2  0  0  0  0  0  0
  1  2  1  0  0  0  0
  2 18  1  0  0  0  0
  2  5  2  0  0  0  0
  3  7  1  0  0  0  0
  3  6  1  0  0  0  0
  4  8  1  0  0  0  0
  6  1  2  0  0  0  0
  6  8  1  0  0  0  0
  7 24  1  1  0  0  0
  7  4  1  0  0  0  0
  8  9  2  0  0  0  0
  9  5  1  0  0  0  0
 10 17  2  0  0  0  0
 11 16  1  0  0  0  0
 12 15  1  0  0  0  0
 13  9  1  6  0  0  0
 13 11  1  0  0  0  0
 13 10  1  0  0  0  0
 14 11  2  0  0  0  0
 16 12  2  0  0  0  0
 17 12  1  0  0  0  0
 19 20  2  0  0  0  0
 20 23  1  0  0  0  0
 20 18  1  0  0  0  0
 21 19  1  0  0  0  0
 21 22  1  0  0  0  0
 22 23  2  0  0  0  0
 25 24  1  0  0  0  0
 26 30  1  0  0  0  0
 27 25  1  0  0  0  0
 27 28  1  0  0  0  0
 28 26  1  0  0  0  0
 29 28  2  0  0  0  0
 30 33  1  0  0  0  0
 30 31  1  1  0  0  0
 32 33  1  0  0  0  0
M  END
>  <MODEL>
9

>  <REMARK>
 VINA RESULT:      -7.5      3.601      7.455
  Name = 
  8 active torsions:
  status: ('A' for Active; 'I' for Inactive)
    1  A    between atoms: N_1  and  C_20
    2  A    between atoms: C_4  and  N_12
    3  A    between atoms: N_7  and  N_25
    4  A    between atoms: C_11  and  N_12
    5  A    between atoms: C_17  and  C_22
    6  A    between atoms: C_17  and  N_25
    7  A    between atoms: C_19  and  C_28
    8  A    between atoms: C_20  and  C_32
                            x       y       z     vdW  Elec       q    Type
                         _______ _______ _______ _____ _____    ______ ____

>  <TORSDO>
F 8

$$$$
