=
 OpenBabel11032420263D

 39 43  0  0  1  0  0  0  0  0999 V2000
  187.6590  178.2670  140.6080 C   0  0  0  0  0  3  0  0  0  0  0  0
  185.6710  178.4160  144.4860 O   0  0  0  0  0  0  0  0  0  0  0  0
  186.8910  178.1120  144.3960 C   0  0  0  0  0  0  0  0  0  0  0  0
  189.0350  177.4780  145.5450 C   0  0  0  0  0  0  0  0  0  0  0  0
  189.5950  177.6700  141.8490 C   0  0  0  0  0  0  0  0  0  0  0  0
  191.6990  177.0910  142.8080 C   0  0  0  0  0  3  0  0  0  0  0  0
  187.5750  178.0590  143.0750 C   0  0  0  0  0  0  0  0  0  0  0  0
  189.1130  177.2350  147.9610 C   0  0  0  0  0  3  0  0  0  0  0  0
  187.7570  177.5610  148.0420 C   0  0  0  0  0  3  0  0  0  0  0  0
  189.7490  177.1930  146.7190 C   0  0  0  0  0  3  0  0  0  0  0  0
  187.6620  177.8070  145.6270 C   0  0  0  0  0  0  0  0  0  0  0  0
  186.9320  178.3410  141.8210 C   0  0  0  0  0  0  0  0  0  0  0  0
  189.0100  177.9170  140.6550 C   0  0  0  0  0  0  0  0  0  0  0  0
  191.0830  177.1210  144.0830 C   0  0  0  0  0  3  0  0  0  0  0  0
  189.7010  177.4360  144.2230 C   0  0  0  0  0  0  0  0  0  0  0  0
  187.0360  177.8460  146.8810 C   0  0  0  0  0  3  0  0  0  0  0  0
  191.2370  177.4260  140.3500 O   0  0  0  0  0  0  0  0  0  0  0  0
  190.9010  177.3780  141.6980 C   0  0  0  0  0  0  0  0  0  0  0  0
  190.0620  177.7700  139.5790 C   0  0  1  0  0  3  0  0  0  0  0  0
  188.9450  177.7220  143.0650 C   0  0  0  0  0  0  0  0  0  0  0  0
  189.7160  176.6330  138.6130 C   0  0  1  0  0  3  0  0  0  0  0  0
  189.0960  177.1690  137.3320 C   0  0  0  0  0  1  0  0  0  0  0  0
  190.9400  175.7790  138.2840 C   0  0  0  0  0  2  0  0  0  0  0  0
  191.7650  176.4200  137.2700 N   0  0  0  0  0  2  0  0  0  0  0  0
  192.2810  175.4320  136.5020 O   0  0  0  0  0  0  0  0  0  0  0  0
  194.7890  174.1710  135.8630 C   0  0  0  0  0  1  0  0  0  0  0  0
  194.4540  176.8610  136.1220 O   0  0  0  0  0  0  0  0  0  0  0  0
  194.3300  175.5010  138.3490 O   0  0  0  0  0  1  0  0  0  0  0  0
  193.9610  175.5540  136.6990 P   0  0  1  0  0  0  0  0  0  0  0  0
  185.4830  178.6880  141.7310 C   0  0  0  0  0  2  0  0  0  0  0  0
  185.2150  179.3590  140.4680 N   0  0  0  0  0  2  0  0  0  0  0  0
  183.8770  179.1090  140.1390 N   0  0  0  0  0  2  0  0  0  0  0  0
  183.3970  177.7700  140.0050 C   0  0  0  0  0  3  0  0  0  0  0  0
  182.1000  177.4820  140.0860 C   0  0  0  0  0  3  0  0  0  0  0  0
  181.0500  178.5160  140.3310 C   0  0  0  0  0  2  0  0  0  0  0  0
  180.4310  178.3280  141.7040 C   0  0  0  0  0  2  0  0  0  0  0  0
  180.9540  179.3600  142.6390 C   0  0  0  0  0  0  0  0  0  0  0  0
  180.3030  180.4180  142.8380 O   0  0  0  0  0  0  0  0  0  0  0  0
  182.1770  179.1700  143.2700 O   0  0  0  0  0  1  0  0  0  0  0  0
  1 13  2  0  0  0  0
  1 12  1  0  0  0  0
  3  2  2  0  0  0  0
  3 11  1  0  0  0  0
  4 11  2  0  0  0  0
  4 10  1  0  0  0  0
  5 20  1  0  0  0  0
  6 14  2  0  0  0  0
  7  3  1  0  0  0  0
  8  9  1  0  0  0  0
 10  8  2  0  0  0  0
 11 16  1  0  0  0  0
 12  7  2  0  0  0  0
 13  5  1  0  0  0  0
 14 15  1  0  0  0  0
 15  4  1  0  0  0  0
 16  9  2  0  0  0  0
 17 18  1  0  0  0  0
 18  5  2  0  0  0  0
 18  6  1  0  0  0  0
 19 21  1  6  0  0  0
 19 17  1  0  0  0  0
 19 13  1  0  0  0  0
 20  7  1  0  0  0  0
 20 15  2  0  0  0  0
 21 22  1  6  0  0  0
 23 21  1  0  0  0  0
 24 23  1  0  0  0  0
 25 29  1  0  0  0  0
 25 24  1  0  0  0  0
 27 29  2  0  0  0  0
 29 26  1  6  0  0  0
 29 28  1  0  0  0  0
 30 12  1  0  0  0  0
 31 30  1  0  0  0  0
 32 31  1  0  0  0  0
 33 34  2  0  0  0  0
 33 32  1  0  0  0  0
 34 35  1  0  0  0  0
 35 36  1  0  0  0  0
 36 37  1  0  0  0  0
 37 38  2  0  0  0  0
 37 39  1  0  0  0  0
M  END
>  <MODEL>
1

>  <REMARK>
 VINA RESULT:      -9.1      0.000      0.000
  Name = 
  12 active torsions:
  status: ('A' for Active; 'I' for Inactive)
    1  A    between atoms: C_1  and  N_32
    2  A    between atoms: N_2  and  C_28
    3  A    between atoms: N_2  and  O_35
    4  A    between atoms: C_4  and  C_25
    5  A    between atoms: C_4  and  N_30
    6  A    between atoms: C_8  and  C_34
    7  A    between atoms: C_17  and  C_28
    8  A    between atoms: C_17  and  C_38
    9  A    between atoms: P_20  and  O_35
   10  A    between atoms: C_22  and  C_31
   11  A    between atoms: C_22  and  C_34
   12  A    between atoms: N_30  and  N_32
                            x       y       z     vdW  Elec       q    Type
                         _______ _______ _______ _____ _____    ______ ____

>  <TORSDO>
F 12

$$$$
=
 OpenBabel11032420263D

 39 43  0  0  1  0  0  0  0  0999 V2000
  187.6450  178.2350  140.5440 C   0  0  0  0  0  3  0  0  0  0  0  0
  185.6960  178.3550  144.4440 O   0  0  0  0  0  0  0  0  0  0  0  0
  186.9170  178.0580  144.3400 C   0  0  0  0  0  0  0  0  0  0  0  0
  189.0770  177.4300  145.4630 C   0  0  0  0  0  0  0  0  0  0  0  0
  189.5970  177.6420  141.7630 C   0  0  0  0  0  0  0  0  0  0  0  0
  191.7140  177.0710  142.6960 C   0  0  0  0  0  3  0  0  0  0  0  0
  187.5870  178.0150  143.0110 C   0  0  0  0  0  0  0  0  0  0  0  0
  189.1820  177.1770  147.8770 C   0  0  0  0  0  3  0  0  0  0  0  0
  187.8250  177.4950  147.9740 C   0  0  0  0  0  3  0  0  0  0  0  0
  189.8050  177.1440  146.6280 C   0  0  0  0  0  3  0  0  0  0  0  0
  187.7030  177.7520  145.5620 C   0  0  0  0  0  0  0  0  0  0  0  0
  186.9290  178.2990  141.7660 C   0  0  0  0  0  0  0  0  0  0  0  0
  188.9980  177.8920  140.5760 C   0  0  0  0  0  0  0  0  0  0  0  0
  191.1110  177.0920  143.9770 C   0  0  0  0  0  3  0  0  0  0  0  0
  189.7290  177.3990  144.1340 C   0  0  0  0  0  0  0  0  0  0  0  0
  187.0900  177.7820  146.8220 C   0  0  0  0  0  3  0  0  0  0  0  0
  191.2240  177.4150  140.2450 O   0  0  0  0  0  0  0  0  0  0  0  0
  190.9030  177.3590  141.5960 C   0  0  0  0  0  0  0  0  0  0  0  0
  190.0390  177.7560  139.4880 C   0  0  1  0  0  3  0  0  0  0  0  0
  188.9600  177.6850  142.9850 C   0  0  0  0  0  0  0  0  0  0  0  0
  189.6890  176.6210  138.5210 C   0  0  1  0  0  3  0  0  0  0  0  0
  188.8010  177.1160  137.3890 C   0  0  0  0  0  1  0  0  0  0  0  0
  190.9420  175.9590  137.9500 C   0  0  0  0  0  2  0  0  0  0  0  0
  190.8340  174.5080  138.0020 N   0  0  0  0  0  2  0  0  0  0  0  0
  191.4760  174.0270  136.9110 O   0  0  0  0  0  0  0  0  0  0  0  0
  188.7390  173.1430  136.7950 C   0  0  0  0  0  1  0  0  0  0  0  0
  189.9450  174.6310  134.8610 O   0  0  0  0  0  0  0  0  0  0  0  0
  190.7470  172.1500  135.0230 O   0  0  0  0  0  1  0  0  0  0  0  0
  190.2430  173.5330  135.8570 P   0  0  1  0  0  0  0  0  0  0  0  0
  185.4780  178.6390  141.6920 C   0  0  0  0  0  2  0  0  0  0  0  0
  185.2160  179.4250  140.4960 N   0  0  0  0  0  2  0  0  0  0  0  0
  183.8340  179.3940  140.2710 N   0  0  0  0  0  2  0  0  0  0  0  0
  183.1620  178.1550  140.0420 C   0  0  0  0  0  3  0  0  0  0  0  0
  181.9400  177.9250  140.5180 C   0  0  0  0  0  3  0  0  0  0  0  0
  181.1830  178.9230  141.3320 C   0  0  0  0  0  2  0  0  0  0  0  0
  180.0900  178.2350  142.1320 C   0  0  0  0  0  2  0  0  0  0  0  0
  180.3410  178.4150  143.5870 C   0  0  0  0  0  0  0  0  0  0  0  0
  179.3920  178.3120  144.4070 O   0  0  0  0  0  1  0  0  0  0  0  0
  181.6150  178.7280  144.0400 O   0  0  0  0  0  0  0  0  0  0  0  0
  1 13  2  0  0  0  0
  1 12  1  0  0  0  0
  3  2  2  0  0  0  0
  3 11  1  0  0  0  0
  4 11  2  0  0  0  0
  4 10  1  0  0  0  0
  5 20  1  0  0  0  0
  6 14  2  0  0  0  0
  7  3  1  0  0  0  0
  8  9  1  0  0  0  0
 10  8  2  0  0  0  0
 11 16  1  0  0  0  0
 12  7  2  0  0  0  0
 13  5  1  0  0  0  0
 14 15  1  0  0  0  0
 15  4  1  0  0  0  0
 16  9  2  0  0  0  0
 17 18  1  0  0  0  0
 18  5  2  0  0  0  0
 18  6  1  0  0  0  0
 19 21  1  6  0  0  0
 19 17  1  0  0  0  0
 19 13  1  0  0  0  0
 20  7  1  0  0  0  0
 20 15  2  0  0  0  0
 21 22  1  6  0  0  0
 23 24  1  0  0  0  0
 23 21  1  0  0  0  0
 25 24  1  0  0  0  0
 27 29  2  0  0  0  0
 28 29  1  0  0  0  0
 29 26  1  1  0  0  0
 29 25  1  0  0  0  0
 30 12  1  0  0  0  0
 31 30  1  0  0  0  0
 32 31  1  0  0  0  0
 33 32  1  0  0  0  0
 33 34  2  0  0  0  0
 34 35  1  0  0  0  0
 35 36  1  0  0  0  0
 36 37  1  0  0  0  0
 37 39  2  0  0  0  0
 37 38  1  0  0  0  0
M  END
>  <MODEL>
2

>  <REMARK>
 VINA RESULT:      -8.9      1.523      1.899
  Name = 
  12 active torsions:
  status: ('A' for Active; 'I' for Inactive)
    1  A    between atoms: C_1  and  N_32
    2  A    between atoms: N_2  and  C_28
    3  A    between atoms: N_2  and  O_35
    4  A    between atoms: C_4  and  C_25
    5  A    between atoms: C_4  and  N_30
    6  A    between atoms: C_8  and  C_34
    7  A    between atoms: C_17  and  C_28
    8  A    between atoms: C_17  and  C_38
    9  A    between atoms: P_20  and  O_35
   10  A    between atoms: C_22  and  C_31
   11  A    between atoms: C_22  and  C_34
   12  A    between atoms: N_30  and  N_32
                            x       y       z     vdW  Elec       q    Type
                         _______ _______ _______ _____ _____    ______ ____

>  <TORSDO>
F 12

$$$$
=
 OpenBabel11032420263D

 39 43  0  0  1  0  0  0  0  0999 V2000
  187.7050  178.3820  140.0750 C   0  0  0  0  0  3  0  0  0  0  0  0
  185.3280  178.6910  143.7180 O   0  0  0  0  0  0  0  0  0  0  0  0
  186.5240  178.2950  143.7580 C   0  0  0  0  0  0  0  0  0  0  0  0
  188.4780  177.5020  145.1260 C   0  0  0  0  0  0  0  0  0  0  0  0
  189.4450  177.6410  141.5140 C   0  0  0  0  0  0  0  0  0  0  0  0
  191.3830  176.9070  142.6890 C   0  0  0  0  0  3  0  0  0  0  0  0
  187.3400  178.1870  142.5170 C   0  0  0  0  0  0  0  0  0  0  0  0
  188.2760  177.2600  147.5360 C   0  0  0  0  0  3  0  0  0  0  0  0
  186.9490  177.6890  147.4730 C   0  0  0  0  0  3  0  0  0  0  0  0
  189.0370  177.1670  146.3690 C   0  0  0  0  0  3  0  0  0  0  0  0
  187.1330  177.9350  145.0630 C   0  0  0  0  0  0  0  0  0  0  0  0
  186.8590  178.5140  141.2040 C   0  0  0  0  0  0  0  0  0  0  0  0
  189.0120  177.9290  140.2650 C   0  0  0  0  0  0  0  0  0  0  0  0
  190.6380  176.9870  143.8910 C   0  0  0  0  0  3  0  0  0  0  0  0
  189.2770  177.4060  143.8840 C   0  0  0  0  0  0  0  0  0  0  0  0
  186.3800  178.0250  146.2420 C   0  0  0  0  0  3  0  0  0  0  0  0
  191.2150  177.2700  140.1980 O   0  0  0  0  0  0  0  0  0  0  0  0
  190.7340  177.2510  141.5020 C   0  0  0  0  0  0  0  0  0  0  0  0
  190.1600  177.7000  139.3080 C   0  0  1  0  0  3  0  0  0  0  0  0
  188.6740  177.7460  142.6530 C   0  0  0  0  0  0  0  0  0  0  0  0
  189.8340  176.5900  138.3040 C   0  0  1  0  0  3  0  0  0  0  0  0
  189.3180  177.1660  136.9940 C   0  0  0  0  0  1  0  0  0  0  0  0
  191.0430  175.6940  138.0410 C   0  0  0  0  0  2  0  0  0  0  0  0
  191.7030  176.0610  136.7960 N   0  0  0  0  0  2  0  0  0  0  0  0
  192.3110  174.9450  136.3290 O   0  0  0  0  0  0  0  0  0  0  0  0
  194.5590  174.2710  137.9960 C   0  0  0  0  0  1  0  0  0  0  0  0
  194.7380  174.7990  135.3320 O   0  0  0  0  0  0  0  0  0  0  0  0
  194.2250  176.8640  136.8470 O   0  0  0  0  0  1  0  0  0  0  0  0
  193.9680  175.2160  136.5640 P   0  0  1  0  0  0  0  0  0  0  0  0
  185.4580  178.9700  140.9600 C   0  0  0  0  0  2  0  0  0  0  0  0
  185.2720  179.2510  139.5450 N   0  0  0  0  0  2  0  0  0  0  0  0
  184.1530  180.0870  139.4300 N   0  0  0  0  0  2  0  0  0  0  0  0
  182.9370  179.6030  138.8610 C   0  0  0  0  0  3  0  0  0  0  0  0
  182.0140  180.4310  138.3760 C   0  0  0  0  0  3  0  0  0  0  0  0
  182.1650  181.9170  138.3960 C   0  0  0  0  0  2  0  0  0  0  0  0
  180.9620  182.5800  137.7480 C   0  0  0  0  0  2  0  0  0  0  0  0
  181.3950  183.7860  136.9930 C   0  0  0  0  0  0  0  0  0  0  0  0
  181.0230  183.9510  135.8030 O   0  0  0  0  0  0  0  0  0  0  0  0
  182.2370  184.7150  137.5900 O   0  0  0  0  0  1  0  0  0  0  0  0
  1 13  2  0  0  0  0
  1 12  1  0  0  0  0
  2  3  2  0  0  0  0
  3 11  1  0  0  0  0
  4 10  1  0  0  0  0
  5 20  1  0  0  0  0
  6 14  2  0  0  0  0
  7 20  1  0  0  0  0
  7  3  1  0  0  0  0
  9  8  1  0  0  0  0
 10  8  2  0  0  0  0
 11  4  2  0  0  0  0
 11 16  1  0  0  0  0
 12  7  2  0  0  0  0
 13  5  1  0  0  0  0
 15 14  1  0  0  0  0
 15  4  1  0  0  0  0
 16  9  2  0  0  0  0
 17 18  1  0  0  0  0
 18  5  2  0  0  0  0
 18  6  1  0  0  0  0
 19 21  1  6  0  0  0
 19 17  1  0  0  0  0
 19 13  1  0  0  0  0
 20 15  2  0  0  0  0
 21 22  1  6  0  0  0
 23 21  1  0  0  0  0
 24 23  1  0  0  0  0
 25 29  1  0  0  0  0
 25 24  1  0  0  0  0
 27 29  2  0  0  0  0
 29 28  1  0  0  0  0
 29 26  1  1  0  0  0
 30 12  1  0  0  0  0
 31 30  1  0  0  0  0
 32 31  1  0  0  0  0
 33 32  1  0  0  0  0
 34 35  1  0  0  0  0
 34 33  2  0  0  0  0
 36 35  1  0  0  0  0
 37 39  1  0  0  0  0
 37 36  1  0  0  0  0
 38 37  2  0  0  0  0
M  END
>  <MODEL>
3

>  <REMARK>
 VINA RESULT:      -8.9      2.408      2.634
  Name = 
  12 active torsions:
  status: ('A' for Active; 'I' for Inactive)
    1  A    between atoms: C_1  and  N_32
    2  A    between atoms: N_2  and  C_28
    3  A    between atoms: N_2  and  O_35
    4  A    between atoms: C_4  and  C_25
    5  A    between atoms: C_4  and  N_30
    6  A    between atoms: C_8  and  C_34
    7  A    between atoms: C_17  and  C_28
    8  A    between atoms: C_17  and  C_38
    9  A    between atoms: P_20  and  O_35
   10  A    between atoms: C_22  and  C_31
   11  A    between atoms: C_22  and  C_34
   12  A    between atoms: N_30  and  N_32
                            x       y       z     vdW  Elec       q    Type
                         _______ _______ _______ _____ _____    ______ ____

>  <TORSDO>
F 12

$$$$
=
 OpenBabel11032420263D

 39 43  0  0  1  0  0  0  0  0999 V2000
  187.6920  178.3070  140.4910 C   0  0  0  0  0  3  0  0  0  0  0  0
  185.6210  178.4480  144.3270 O   0  0  0  0  0  0  0  0  0  0  0  0
  186.8400  178.1350  144.2620 C   0  0  0  0  0  0  0  0  0  0  0  0
  188.9540  177.4770  145.4520 C   0  0  0  0  0  0  0  0  0  0  0  0
  189.5950  177.6870  141.7710 C   0  0  0  0  0  0  0  0  0  0  0  0
  191.6730  177.0860  142.7710 C   0  0  0  0  0  3  0  0  0  0  0  0
  187.5520  178.0850  142.9550 C   0  0  0  0  0  0  0  0  0  0  0  0
  188.9780  177.2200  147.8680 C   0  0  0  0  0  3  0  0  0  0  0  0
  187.6230  177.5560  147.9220 C   0  0  0  0  0  3  0  0  0  0  0  0
  189.6400  177.1800  146.6390 C   0  0  0  0  0  3  0  0  0  0  0  0
  187.5820  177.8170  145.5070 C   0  0  0  0  0  0  0  0  0  0  0  0
  186.9380  178.3790  141.6890 C   0  0  0  0  0  0  0  0  0  0  0  0
  189.0380  177.9450  140.5660 C   0  0  0  0  0  0  0  0  0  0  0  0
  191.0310  177.1140  144.0320 C   0  0  0  0  0  3  0  0  0  0  0  0
  189.6480  177.4380  144.1450 C   0  0  0  0  0  0  0  0  0  0  0  0
  186.9290  177.8530  146.7470 C   0  0  0  0  0  3  0  0  0  0  0  0
  191.2670  177.4390  140.3060 O   0  0  0  0  0  0  0  0  0  0  0  0
  190.9020  177.3860  141.6460 C   0  0  0  0  0  0  0  0  0  0  0  0
  190.1120  177.7970  139.5120 C   0  0  1  0  0  3  0  0  0  0  0  0
  188.9200  177.7360  142.9730 C   0  0  0  0  0  0  0  0  0  0  0  0
  189.7780  176.6680  138.5320 C   0  0  1  0  0  3  0  0  0  0  0  0
  189.2540  177.2190  137.2150 C   0  0  0  0  0  1  0  0  0  0  0  0
  190.9850  175.7660  138.2780 C   0  0  0  0  0  2  0  0  0  0  0  0
  191.7520  176.2320  137.1320 N   0  0  0  0  0  2  0  0  0  0  0  0
  192.3700  175.1490  136.6050 O   0  0  0  0  0  0  0  0  0  0  0  0
  194.9710  174.3920  135.6300 C   0  0  0  0  0  1  0  0  0  0  0  0
  194.2920  176.9250  136.3580 O   0  0  0  0  0  0  0  0  0  0  0  0
  194.5270  175.2240  138.3260 O   0  0  0  0  0  1  0  0  0  0  0  0
  194.0280  175.4850  136.7310 P   0  0  1  0  0  0  0  0  0  0  0  0
  185.4950  178.7380  141.5700 C   0  0  0  0  0  2  0  0  0  0  0  0
  185.2580  179.4080  140.3000 N   0  0  0  0  0  2  0  0  0  0  0  0
  183.9930  179.0070  139.8480 N   0  0  0  0  0  2  0  0  0  0  0  0
  182.9340  178.7610  140.7720 C   0  0  0  0  0  3  0  0  0  0  0  0
  181.9550  177.9000  140.5000 C   0  0  0  0  0  3  0  0  0  0  0  0
  181.8760  177.1370  139.2180 C   0  0  0  0  0  2  0  0  0  0  0  0
  182.5780  175.7970  139.3540 C   0  0  0  0  0  2  0  0  0  0  0  0
  183.2330  175.4370  138.0680 C   0  0  0  0  0  0  0  0  0  0  0  0
  184.1620  176.1530  137.6130 O   0  0  0  0  0  1  0  0  0  0  0  0
  182.7990  174.3290  137.3530 O   0  0  0  0  0  0  0  0  0  0  0  0
  1 13  2  0  0  0  0
  1 12  1  0  0  0  0
  3  2  2  0  0  0  0
  3 11  1  0  0  0  0
  4 11  2  0  0  0  0
  4 10  1  0  0  0  0
  5 20  1  0  0  0  0
  6 14  2  0  0  0  0
  7 20  1  0  0  0  0
  7  3  1  0  0  0  0
  8  9  1  0  0  0  0
 10  8  2  0  0  0  0
 11 16  1  0  0  0  0
 12  7  2  0  0  0  0
 13  5  1  0  0  0  0
 14 15  1  0  0  0  0
 15  4  1  0  0  0  0
 16  9  2  0  0  0  0
 17 18  1  0  0  0  0
 18  5  2  0  0  0  0
 18  6  1  0  0  0  0
 19 21  1  6  0  0  0
 19 17  1  0  0  0  0
 19 13  1  0  0  0  0
 20 15  2  0  0  0  0
 21 22  1  6  0  0  0
 23 21  1  0  0  0  0
 24 23  1  0  0  0  0
 25 29  1  0  0  0  0
 25 24  1  0  0  0  0
 27 29  2  0  0  0  0
 29 26  1  6  0  0  0
 29 28  1  0  0  0  0
 30 12  1  0  0  0  0
 31 30  1  0  0  0  0
 32 31  1  0  0  0  0
 32 33  1  0  0  0  0
 34 33  2  0  0  0  0
 35 36  1  0  0  0  0
 35 34  1  0  0  0  0
 37 36  1  0  0  0  0
 38 37  1  0  0  0  0
 39 37  2  0  0  0  0
M  END
>  <MODEL>
4

>  <REMARK>
 VINA RESULT:      -8.7      1.760      2.173
  Name = 
  12 active torsions:
  status: ('A' for Active; 'I' for Inactive)
    1  A    between atoms: C_1  and  N_32
    2  A    between atoms: N_2  and  C_28
    3  A    between atoms: N_2  and  O_35
    4  A    between atoms: C_4  and  C_25
    5  A    between atoms: C_4  and  N_30
    6  A    between atoms: C_8  and  C_34
    7  A    between atoms: C_17  and  C_28
    8  A    between atoms: C_17  and  C_38
    9  A    between atoms: P_20  and  O_35
   10  A    between atoms: C_22  and  C_31
   11  A    between atoms: C_22  and  C_34
   12  A    between atoms: N_30  and  N_32
                            x       y       z     vdW  Elec       q    Type
                         _______ _______ _______ _____ _____    ______ ____

>  <TORSDO>
F 12

$$$$
=
 OpenBabel11032420263D

 39 43  0  0  1  0  0  0  0  0999 V2000
  187.6940  178.1550  140.5970 C   0  0  0  0  0  3  0  0  0  0  0  0
  185.7460  178.2560  144.4970 O   0  0  0  0  0  0  0  0  0  0  0  0
  186.9750  177.9930  144.3950 C   0  0  0  0  0  0  0  0  0  0  0  0
  189.1520  177.4370  145.5220 C   0  0  0  0  0  0  0  0  0  0  0  0
  189.6630  177.6290  141.8200 C   0  0  0  0  0  0  0  0  0  0  0  0
  191.7960  177.1260  142.7560 C   0  0  0  0  0  3  0  0  0  0  0  0
  187.6450  177.9570  143.0660 C   0  0  0  0  0  0  0  0  0  0  0  0
  189.2650  177.2100  147.9380 C   0  0  0  0  0  3  0  0  0  0  0  0
  187.9000  177.4910  148.0330 C   0  0  0  0  0  3  0  0  0  0  0  0
  189.8880  177.1830  146.6890 C   0  0  0  0  0  3  0  0  0  0  0  0
  187.7690  177.7210  145.6190 C   0  0  0  0  0  0  0  0  0  0  0  0
  186.9780  178.2100  141.8190 C   0  0  0  0  0  0  0  0  0  0  0  0
  189.0570  177.8500  140.6310 C   0  0  0  0  0  0  0  0  0  0  0  0
  191.1940  177.1430  144.0380 C   0  0  0  0  0  3  0  0  0  0  0  0
  189.8040  177.4110  144.1930 C   0  0  0  0  0  0  0  0  0  0  0  0
  187.1560  177.7450  146.8790 C   0  0  0  0  0  3  0  0  0  0  0  0
  191.2950  177.4330  140.3020 O   0  0  0  0  0  0  0  0  0  0  0  0
  190.9770  177.3810  141.6540 C   0  0  0  0  0  0  0  0  0  0  0  0
  190.1010  177.7330  139.5440 C   0  0  1  0  0  3  0  0  0  0  0  0
  189.0260  177.6650  143.0420 C   0  0  0  0  0  0  0  0  0  0  0  0
  189.7820  176.5800  138.5870 C   0  0  1  0  0  3  0  0  0  0  0  0
  189.1570  177.0910  137.2980 C   0  0  0  0  0  1  0  0  0  0  0  0
  191.0240  175.7480  138.2720 C   0  0  0  0  0  2  0  0  0  0  0  0
  190.8210  174.9370  137.0810 N   0  0  0  0  0  2  0  0  0  0  0  0
  190.3220  173.7490  137.4940 O   0  0  0  0  0  0  0  0  0  0  0  0
  187.8500  172.3820  136.9380 C   0  0  0  0  0  1  0  0  0  0  0  0
  188.8220  174.4450  135.4510 O   0  0  0  0  0  1  0  0  0  0  0  0
  190.1260  172.1930  135.2230 O   0  0  0  0  0  0  0  0  0  0  0  0
  189.2880  173.2470  136.2470 P   0  0  1  0  0  0  0  0  0  0  0  0
  185.5180  178.5080  141.7430 C   0  0  0  0  0  2  0  0  0  0  0  0
  185.3000  179.7100  140.9520 N   0  0  0  0  0  2  0  0  0  0  0  0
  184.3580  179.3930  139.9650 N   0  0  0  0  0  2  0  0  0  0  0  0
  183.3070  178.4650  140.2320 C   0  0  0  0  0  3  0  0  0  0  0  0
  182.6060  177.9030  139.2490 C   0  0  0  0  0  3  0  0  0  0  0  0
  182.8460  178.2000  137.8050 C   0  0  0  0  0  2  0  0  0  0  0  0
  183.3630  176.9640  137.0890 C   0  0  0  0  0  2  0  0  0  0  0  0
  184.7850  177.1640  136.7010 C   0  0  0  0  0  0  0  0  0  0  0  0
  185.6620  177.3330  137.5880 O   0  0  0  0  0  1  0  0  0  0  0  0
  185.1420  177.1950  135.3600 O   0  0  0  0  0  0  0  0  0  0  0  0
  1 13  2  0  0  0  0
  1 12  1  0  0  0  0
  3  2  2  0  0  0  0
  3 11  1  0  0  0  0
  4 11  2  0  0  0  0
  4 10  1  0  0  0  0
  5 20  1  0  0  0  0
  6 14  2  0  0  0  0
  7  3  1  0  0  0  0
  8  9  1  0  0  0  0
 10  8  2  0  0  0  0
 11 16  1  0  0  0  0
 12  7  2  0  0  0  0
 13  5  1  0  0  0  0
 14 15  1  0  0  0  0
 15  4  1  0  0  0  0
 16  9  2  0  0  0  0
 17 18  1  0  0  0  0
 18  5  2  0  0  0  0
 18  6  1  0  0  0  0
 19 21  1  6  0  0  0
 19 17  1  0  0  0  0
 19 13  1  0  0  0  0
 20  7  1  0  0  0  0
 20 15  2  0  0  0  0
 21 22  1  6  0  0  0
 23 21  1  0  0  0  0
 24 25  1  0  0  0  0
 24 23  1  0  0  0  0
 27 29  1  0  0  0  0
 28 29  2  0  0  0  0
 29 26  1  1  0  0  0
 29 25  1  0  0  0  0
 30 12  1  0  0  0  0
 31 30  1  0  0  0  0
 32 33  1  0  0  0  0
 32 31  1  0  0  0  0
 34 33  2  0  0  0  0
 35 34  1  0  0  0  0
 36 35  1  0  0  0  0
 37 36  1  0  0  0  0
 37 38  1  0  0  0  0
 39 37  2  0  0  0  0
M  END
>  <MODEL>
5

>  <REMARK>
 VINA RESULT:      -8.5      2.356      3.231
  Name = 
  12 active torsions:
  status: ('A' for Active; 'I' for Inactive)
    1  A    between atoms: C_1  and  N_32
    2  A    between atoms: N_2  and  C_28
    3  A    between atoms: N_2  and  O_35
    4  A    between atoms: C_4  and  C_25
    5  A    between atoms: C_4  and  N_30
    6  A    between atoms: C_8  and  C_34
    7  A    between atoms: C_17  and  C_28
    8  A    between atoms: C_17  and  C_38
    9  A    between atoms: P_20  and  O_35
   10  A    between atoms: C_22  and  C_31
   11  A    between atoms: C_22  and  C_34
   12  A    between atoms: N_30  and  N_32
                            x       y       z     vdW  Elec       q    Type
                         _______ _______ _______ _____ _____    ______ ____

>  <TORSDO>
F 12

$$$$
=
 OpenBabel11032420263D

 39 43  0  0  1  0  0  0  0  0999 V2000
  187.9360  178.4930  142.4260 C   0  0  0  0  0  3  0  0  0  0  0  0
  191.8790  176.9710  141.3490 O   0  0  0  0  0  0  0  0  0  0  0  0
  190.9830  177.1220  140.4750 C   0  0  0  0  0  0  0  0  0  0  0  0
  190.2860  176.9600  138.0650 C   0  0  0  0  0  0  0  0  0  0  0  0
  187.4410  178.2710  140.1130 C   0  0  0  0  0  0  0  0  0  0  0  0
  186.6570  178.1950  137.8640 C   0  0  0  0  0  3  0  0  0  0  0  0
  189.6350  177.6400  140.8370 C   0  0  0  0  0  0  0  0  0  0  0  0
  191.8410  176.1430  136.3860 C   0  0  0  0  0  3  0  0  0  0  0  0
  192.8180  175.9700  137.3690 C   0  0  0  0  0  3  0  0  0  0  0  0
  190.5810  176.6350  136.7330 C   0  0  0  0  0  3  0  0  0  0  0  0
  191.2760  176.7830  139.0600 C   0  0  0  0  0  0  0  0  0  0  0  0
  189.2420  178.0070  142.1700 C   0  0  0  0  0  0  0  0  0  0  0  0
  187.0420  178.6090  141.3600 C   0  0  0  0  0  0  0  0  0  0  0  0
  187.9230  177.6900  137.4800 C   0  0  0  0  0  3  0  0  0  0  0  0
  188.9530  177.4830  138.4420 C   0  0  0  0  0  0  0  0  0  0  0  0
  192.5370  176.2890  138.6990 C   0  0  0  0  0  3  0  0  0  0  0  0
  185.3340  178.9790  139.8640 O   0  0  0  0  0  0  0  0  0  0  0  0
  186.4570  178.4770  139.2170 C   0  0  0  0  0  0  0  0  0  0  0  0
  185.6150  179.1010  141.2780 C   0  0  1  0  0  3  0  0  0  0  0  0
  188.6950  177.7900  139.7950 C   0  0  0  0  0  0  0  0  0  0  0  0
  184.6690  178.2020  142.0810 C   0  0  1  0  0  3  0  0  0  0  0  0
  184.4120  178.7730  143.4670 C   0  0  0  0  0  1  0  0  0  0  0  0
  183.3440  177.9840  141.3520 C   0  0  0  0  0  2  0  0  0  0  0  0
  182.3320  178.9200  141.8180 N   0  0  0  0  0  2  0  0  0  0  0  0
  181.2180  178.6920  141.0840 O   0  0  0  0  0  0  0  0  0  0  0  0
  179.1230  180.3960  142.0840 C   0  0  0  0  0  1  0  0  0  0  0  0
  178.9310  177.6860  141.8990 O   0  0  0  0  0  0  0  0  0  0  0  0
  180.5420  178.5670  143.7570 O   0  0  0  0  0  1  0  0  0  0  0  0
  179.9360  178.7760  142.1920 P   0  0  1  0  0  0  0  0  0  0  0  0
  190.1620  177.8660  143.3370 C   0  0  0  0  0  2  0  0  0  0  0  0
  189.4980  177.1270  144.4000 N   0  0  0  0  0  2  0  0  0  0  0  0
  190.0450  177.5610  145.6150 N   0  0  0  0  0  2  0  0  0  0  0  0
  189.8890  176.7860  146.8030 C   0  0  0  0  0  3  0  0  0  0  0  0
  188.9540  177.0720  147.7060 C   0  0  0  0  0  3  0  0  0  0  0  0
  188.0080  178.2200  147.5620 C   0  0  0  0  0  2  0  0  0  0  0  0
  186.8300  177.8300  146.6870 C   0  0  0  0  0  2  0  0  0  0  0  0
  185.6750  178.7240  146.9670 C   0  0  0  0  0  0  0  0  0  0  0  0
  185.8720  179.8990  147.3710 O   0  0  0  0  0  1  0  0  0  0  0  0
  184.3780  178.2520  146.8140 O   0  0  0  0  0  0  0  0  0  0  0  0
  3  7  1  0  0  0  0
  3  2  2  0  0  0  0
  4 15  1  0  0  0  0
  4 11  1  0  0  0  0
  5 13  1  0  0  0  0
  6 18  1  0  0  0  0
  7 12  2  0  0  0  0
  8 10  1  0  0  0  0
  8  9  2  0  0  0  0
  9 16  1  0  0  0  0
 10  4  2  0  0  0  0
 11  3  1  0  0  0  0
 12  1  1  0  0  0  0
 12 30  1  0  0  0  0
 13  1  2  0  0  0  0
 14  6  2  0  0  0  0
 14 15  1  0  0  0  0
 15 20  2  0  0  0  0
 16 11  2  0  0  0  0
 17 19  1  0  0  0  0
 18 17  1  0  0  0  0
 18  5  2  0  0  0  0
 19 13  1  0  0  0  0
 19 21  1  1  0  0  0
 20  5  1  0  0  0  0
 20  7  1  0  0  0  0
 21 22  1  1  0  0  0
 23 24  1  0  0  0  0
 23 21  1  0  0  0  0
 25 24  1  0  0  0  0
 25 29  1  0  0  0  0
 27 29  2  0  0  0  0
 29 26  1  6  0  0  0
 29 28  1  0  0  0  0
 30 31  1  0  0  0  0
 31 32  1  0  0  0  0
 32 33  1  0  0  0  0
 33 34  2  0  0  0  0
 35 34  1  0  0  0  0
 36 37  1  0  0  0  0
 36 35  1  0  0  0  0
 37 38  1  0  0  0  0
 39 37  2  0  0  0  0
M  END
>  <MODEL>
6

>  <REMARK>
 VINA RESULT:      -8.3      3.445      8.871
  Name = 
  12 active torsions:
  status: ('A' for Active; 'I' for Inactive)
    1  A    between atoms: C_1  and  N_32
    2  A    between atoms: N_2  and  C_28
    3  A    between atoms: N_2  and  O_35
    4  A    between atoms: C_4  and  C_25
    5  A    between atoms: C_4  and  N_30
    6  A    between atoms: C_8  and  C_34
    7  A    between atoms: C_17  and  C_28
    8  A    between atoms: C_17  and  C_38
    9  A    between atoms: P_20  and  O_35
   10  A    between atoms: C_22  and  C_31
   11  A    between atoms: C_22  and  C_34
   12  A    between atoms: N_30  and  N_32
                            x       y       z     vdW  Elec       q    Type
                         _______ _______ _______ _____ _____    ______ ____

>  <TORSDO>
F 12

$$$$
=
 OpenBabel11032420263D

 39 43  0  0  1  0  0  0  0  0999 V2000
  187.0950  178.3990  140.1740 C   0  0  0  0  0  3  0  0  0  0  0  0
  182.8190  178.8800  139.4640 O   0  0  0  0  0  0  0  0  0  0  0  0
  183.2690  178.7430  140.6340 C   0  0  0  0  0  0  0  0  0  0  0  0
  182.8220  178.6110  143.1040 C   0  0  0  0  0  0  0  0  0  0  0  0
  186.4960  178.2890  142.4710 C   0  0  0  0  0  0  0  0  0  0  0  0
  186.2200  178.1750  144.8350 C   0  0  0  0  0  3  0  0  0  0  0  0
  184.7280  178.5780  140.8820 C   0  0  0  0  0  0  0  0  0  0  0  0
  180.5520  178.7710  143.9550 C   0  0  0  0  0  3  0  0  0  0  0  0
  180.0680  178.9100  142.6520 C   0  0  0  0  0  3  0  0  0  0  0  0
  181.9220  178.6220  144.1800 C   0  0  0  0  0  3  0  0  0  0  0  0
  182.3320  178.7510  141.7840 C   0  0  0  0  0  0  0  0  0  0  0  0
  185.7260  178.5620  139.8480 C   0  0  0  0  0  0  0  0  0  0  0  0
  187.4530  178.2560  141.5160 C   0  0  0  0  0  0  0  0  0  0  0  0
  184.8250  178.3210  144.6410 C   0  0  0  0  0  3  0  0  0  0  0  0
  184.2760  178.4540  143.3330 C   0  0  0  0  0  0  0  0  0  0  0  0
  180.9540  178.9000  141.5720 C   0  0  0  0  0  3  0  0  0  0  0  0
  188.4140  178.0450  143.5950 O   0  0  0  0  0  0  0  0  0  0  0  0
  187.0330  178.1650  143.7000 C   0  0  0  0  0  0  0  0  0  0  0  0
  188.7920  178.0910  142.2000 C   0  0  1  0  0  3  0  0  0  0  0  0
  185.1480  178.4410  142.2230 C   0  0  0  0  0  0  0  0  0  0  0  0
  189.4660  176.7760  141.7940 C   0  0  1  0  0  3  0  0  0  0  0  0
  190.7050  177.0310  140.9500 C   0  0  0  0  0  1  0  0  0  0  0  0
  189.8280  175.9280  143.0120 C   0  0  0  0  0  2  0  0  0  0  0  0
  191.2200  176.1260  143.3900 N   0  0  0  0  0  2  0  0  0  0  0  0
  191.3740  175.5830  144.6210 O   0  0  0  0  0  0  0  0  0  0  0  0
  189.6080  176.9920  146.4040 C   0  0  0  0  0  1  0  0  0  0  0  0
  192.2870  176.7250  146.8050 O   0  0  0  0  0  1  0  0  0  0  0  0
  191.6040  178.3230  144.8550 O   0  0  0  0  0  0  0  0  0  0  0  0
  191.2750  176.8920  145.6940 P   0  0  1  0  0  0  0  0  0  0  0  0
  185.3750  178.6800  138.4020 C   0  0  0  0  0  2  0  0  0  0  0  0
  185.7530  177.4620  137.7030 N   0  0  0  0  0  2  0  0  0  0  0  0
  186.4360  177.8440  136.5400 N   0  0  0  0  0  2  0  0  0  0  0  0
  187.5670  178.7120  136.6120 C   0  0  0  0  0  3  0  0  0  0  0  0
  188.8100  178.2500  136.5000 C   0  0  0  0  0  3  0  0  0  0  0  0
  189.1260  176.8030  136.3040 C   0  0  0  0  0  2  0  0  0  0  0  0
  189.3920  176.1330  137.6400 C   0  0  0  0  0  2  0  0  0  0  0  0
  190.7950  175.6400  137.6870 C   0  0  0  0  0  0  0  0  0  0  0  0
  191.0300  174.4390  137.9770 O   0  0  0  0  0  1  0  0  0  0  0  0
  191.8470  176.5120  137.4410 O   0  0  0  0  0  0  0  0  0  0  0  0
  1 13  1  0  0  0  0
  2  3  2  0  0  0  0
  3  7  1  0  0  0  0
  3 11  1  0  0  0  0
  4 15  1  0  0  0  0
  4 10  1  0  0  0  0
  5 18  1  0  0  0  0
  7 20  2  0  0  0  0
  8 10  2  0  0  0  0
  9  8  1  0  0  0  0
 11  4  2  0  0  0  0
 12  1  2  0  0  0  0
 12  7  1  0  0  0  0
 13 19  1  0  0  0  0
 13  5  2  0  0  0  0
 14  6  1  0  0  0  0
 15 14  2  0  0  0  0
 16 11  1  0  0  0  0
 16  9  2  0  0  0  0
 17 18  1  0  0  0  0
 18  6  2  0  0  0  0
 19 21  1  6  0  0  0
 19 17  1  0  0  0  0
 20  5  1  0  0  0  0
 20 15  1  0  0  0  0
 21 22  1  1  0  0  0
 21 23  1  0  0  0  0
 23 24  1  0  0  0  0
 24 25  1  0  0  0  0
 25 29  1  0  0  0  0
 28 29  2  0  0  0  0
 29 26  1  1  0  0  0
 29 27  1  0  0  0  0
 30 12  1  0  0  0  0
 31 30  1  0  0  0  0
 32 33  1  0  0  0  0
 32 31  1  0  0  0  0
 34 33  2  0  0  0  0
 35 34  1  0  0  0  0
 35 36  1  0  0  0  0
 36 37  1  0  0  0  0
 37 38  1  0  0  0  0
 39 37  2  0  0  0  0
M  END
>  <MODEL>
7

>  <REMARK>
 VINA RESULT:      -8.3      2.916      7.162
  Name = 
  12 active torsions:
  status: ('A' for Active; 'I' for Inactive)
    1  A    between atoms: C_1  and  N_32
    2  A    between atoms: N_2  and  C_28
    3  A    between atoms: N_2  and  O_35
    4  A    between atoms: C_4  and  C_25
    5  A    between atoms: C_4  and  N_30
    6  A    between atoms: C_8  and  C_34
    7  A    between atoms: C_17  and  C_28
    8  A    between atoms: C_17  and  C_38
    9  A    between atoms: P_20  and  O_35
   10  A    between atoms: C_22  and  C_31
   11  A    between atoms: C_22  and  C_34
   12  A    between atoms: N_30  and  N_32
                            x       y       z     vdW  Elec       q    Type
                         _______ _______ _______ _____ _____    ______ ____

>  <TORSDO>
F 12

$$$$
=
 OpenBabel11032420263D

 39 43  0  0  1  0  0  0  0  0999 V2000
  184.0320  178.8240  139.4110 C   0  0  0  0  0  3  0  0  0  0  0  0
  187.3710  178.0750  142.1140 O   0  0  0  0  0  0  0  0  0  0  0  0
  186.2120  178.2890  142.5620 C   0  0  0  0  0  0  0  0  0  0  0  0
  184.6830  178.5060  144.5450 C   0  0  0  0  0  0  0  0  0  0  0  0
  182.7310  179.0030  141.3910 C   0  0  0  0  0  0  0  0  0  0  0  0
  181.1660  179.2070  143.1770 C   0  0  0  0  0  3  0  0  0  0  0  0
  185.0680  178.5460  141.6440 C   0  0  0  0  0  0  0  0  0  0  0  0
  185.5500  178.2590  146.8020 C   0  0  0  0  0  3  0  0  0  0  0  0
  186.8310  178.0350  146.2900 C   0  0  0  0  0  3  0  0  0  0  0  0
  184.4820  178.4930  145.9340 C   0  0  0  0  0  3  0  0  0  0  0  0
  185.9800  178.2800  144.0280 C   0  0  0  0  0  0  0  0  0  0  0  0
  185.1740  178.5710  140.2110 C   0  0  0  0  0  0  0  0  0  0  0  0
  182.8060  179.0460  140.0420 C   0  0  0  0  0  0  0  0  0  0  0  0
  182.2280  178.9750  144.0840 C   0  0  0  0  0  3  0  0  0  0  0  0
  183.5560  178.7530  143.6180 C   0  0  0  0  0  0  0  0  0  0  0  0
  187.0440  178.0460  144.9100 C   0  0  0  0  0  3  0  0  0  0  0  0
  180.6360  179.4030  140.7170 O   0  0  0  0  0  0  0  0  0  0  0  0
  181.4690  179.2110  141.8140 C   0  0  0  0  0  0  0  0  0  0  0  0
  181.4190  179.3160  139.5040 C   0  0  1  0  0  3  0  0  0  0  0  0
  183.8020  178.7660  142.2280 C   0  0  0  0  0  0  0  0  0  0  0  0
  181.3640  180.6470  138.7470 C   0  0  1  0  0  3  0  0  0  0  0  0
  181.3710  180.4240  137.2420 C   0  0  0  0  0  1  0  0  0  0  0  0
  180.1440  181.4740  139.1470 C   0  0  0  0  0  2  0  0  0  0  0  0
  179.5940  182.1810  137.9990 N   0  0  0  0  0  2  0  0  0  0  0  0
  179.5060  183.4860  138.3470 O   0  0  0  0  0  0  0  0  0  0  0  0
  180.0100  183.5090  135.5130 C   0  0  0  0  0  1  0  0  0  0  0  0
  179.8000  185.7500  137.0440 O   0  0  0  0  0  0  0  0  0  0  0  0
  181.9640  184.3370  137.4250 O   0  0  0  0  0  1  0  0  0  0  0  0
  180.3020  184.3260  137.1070 P   0  0  1  0  0  0  0  0  0  0  0  0
  186.4730  178.3690  139.5050 C   0  0  0  0  0  2  0  0  0  0  0  0
  186.3030  178.6160  138.0810 N   0  0  0  0  0  2  0  0  0  0  0  0
  186.8530  177.5210  137.4010 N   0  0  0  0  0  2  0  0  0  0  0  0
  187.9320  177.7010  136.4830 C   0  0  0  0  0  3  0  0  0  0  0  0
  189.1780  177.3480  136.7920 C   0  0  0  0  0  3  0  0  0  0  0  0
  189.5510  176.7530  138.1110 C   0  0  0  0  0  2  0  0  0  0  0  0
  190.1000  177.8220  139.0380 C   0  0  0  0  0  2  0  0  0  0  0  0
  190.7550  177.1840  140.2120 C   0  0  0  0  0  0  0  0  0  0  0  0
  190.1150  176.3650  140.9210 O   0  0  0  0  0  1  0  0  0  0  0  0
  192.0610  177.5150  140.5450 O   0  0  0  0  0  0  0  0  0  0  0  0
  1 13  2  0  0  0  0
  1 12  1  0  0  0  0
  2  3  2  0  0  0  0
  3 11  1  0  0  0  0
  4 10  1  0  0  0  0
  5 18  2  0  0  0  0
  5 20  1  0  0  0  0
  6 14  2  0  0  0  0
  7 20  1  0  0  0  0
  7  3  1  0  0  0  0
  9  8  1  0  0  0  0
 10  8  2  0  0  0  0
 11  4  2  0  0  0  0
 11 16  1  0  0  0  0
 12  7  2  0  0  0  0
 13  5  1  0  0  0  0
 15 14  1  0  0  0  0
 15  4  1  0  0  0  0
 16  9  2  0  0  0  0
 17 18  1  0  0  0  0
 18  6  1  0  0  0  0
 19 21  1  1  0  0  0
 19 13  1  0  0  0  0
 19 17  1  0  0  0  0
 20 15  2  0  0  0  0
 21 22  1  6  0  0  0
 21 23  1  0  0  0  0
 24 25  1  0  0  0  0
 24 23  1  0  0  0  0
 27 29  2  0  0  0  0
 29 26  1  6  0  0  0
 29 28  1  0  0  0  0
 29 25  1  0  0  0  0
 30 12  1  0  0  0  0
 31 30  1  0  0  0  0
 32 31  1  0  0  0  0
 33 34  2  0  0  0  0
 33 32  1  0  0  0  0
 34 35  1  0  0  0  0
 35 36  1  0  0  0  0
 36 37  1  0  0  0  0
 37 39  2  0  0  0  0
 37 38  1  0  0  0  0
M  END
>  <MODEL>
8

>  <REMARK>
 VINA RESULT:      -8.2      3.954      9.080
  Name = 
  12 active torsions:
  status: ('A' for Active; 'I' for Inactive)
    1  A    between atoms: C_1  and  N_32
    2  A    between atoms: N_2  and  C_28
    3  A    between atoms: N_2  and  O_35
    4  A    between atoms: C_4  and  C_25
    5  A    between atoms: C_4  and  N_30
    6  A    between atoms: C_8  and  C_34
    7  A    between atoms: C_17  and  C_28
    8  A    between atoms: C_17  and  C_38
    9  A    between atoms: P_20  and  O_35
   10  A    between atoms: C_22  and  C_31
   11  A    between atoms: C_22  and  C_34
   12  A    between atoms: N_30  and  N_32
                            x       y       z     vdW  Elec       q    Type
                         _______ _______ _______ _____ _____    ______ ____

>  <TORSDO>
F 12

$$$$
=
 OpenBabel11032420263D

 39 43  0  0  1  0  0  0  0  0999 V2000
  186.6430  178.7160  142.9350 C   0  0  0  0  0  3  0  0  0  0  0  0
  185.1160  178.7030  138.8510 O   0  0  0  0  0  0  0  0  0  0  0  0
  184.3290  178.7570  139.8350 C   0  0  0  0  0  0  0  0  0  0  0  0
  181.9710  178.8970  140.6930 C   0  0  0  0  0  0  0  0  0  0  0  0
  184.3580  178.8410  143.5750 C   0  0  0  0  0  0  0  0  0  0  0  0
  182.1780  179.0020  144.5250 C   0  0  0  0  0  3  0  0  0  0  0  0
  184.8450  178.7610  141.2310 C   0  0  0  0  0  0  0  0  0  0  0  0
  180.0980  178.9510  139.1460 C   0  0  0  0  0  3  0  0  0  0  0  0
  180.9820  178.8780  138.0670 C   0  0  0  0  0  3  0  0  0  0  0  0
  180.5900  178.9600  140.4520 C   0  0  0  0  0  3  0  0  0  0  0  0
  182.8660  178.8230  139.6000 C   0  0  0  0  0  0  0  0  0  0  0  0
  186.2390  178.7080  141.5770 C   0  0  0  0  0  0  0  0  0  0  0  0
  185.6620  178.7780  143.9270 C   0  0  0  0  0  0  0  0  0  0  0  0
  181.6470  178.9910  143.2120 C   0  0  0  0  0  3  0  0  0  0  0  0
  182.5020  178.9070  142.0760 C   0  0  0  0  0  0  0  0  0  0  0  0
  182.3590  178.8150  138.2930 C   0  0  0  0  0  3  0  0  0  0  0  0
  184.3480  178.9210  145.8100 O   0  0  0  0  0  0  0  0  0  0  0  0
  183.5660  178.9240  144.6610 C   0  0  0  0  0  0  0  0  0  0  0  0
  185.7420  178.8250  145.4360 C   0  0  1  0  0  3  0  0  0  0  0  0
  183.8970  178.8350  142.2750 C   0  0  0  0  0  0  0  0  0  0  0  0
  186.3510  177.5380  146.0030 C   0  0  1  0  0  3  0  0  0  0  0  0
  186.7590  176.5860  144.8890 C   0  0  0  0  0  1  0  0  0  0  0  0
  187.5480  177.8300  146.9060 C   0  0  0  0  0  2  0  0  0  0  0  0
  188.7650  177.2430  146.3650 N   0  0  0  0  0  2  0  0  0  0  0  0
  189.4940  178.2570  145.8440 O   0  0  0  0  0  0  0  0  0  0  0  0
  191.6340  178.7240  143.9750 C   0  0  0  0  0  1  0  0  0  0  0  0
  191.7100  176.8470  145.9460 O   0  0  0  0  0  1  0  0  0  0  0  0
  190.0870  176.3230  143.9670 O   0  0  0  0  0  0  0  0  0  0  0  0
  190.7460  177.5030  144.9840 P   0  0  1  0  0  0  0  0  0  0  0  0
  187.3120  178.6100  140.5440 C   0  0  0  0  0  2  0  0  0  0  0  0
  188.6130  178.5430  141.1910 N   0  0  0  0  0  2  0  0  0  0  0  0
  189.1960  177.3210  140.8300 N   0  0  0  0  0  2  0  0  0  0  0  0
  190.5840  177.2430  140.5070 C   0  0  0  0  0  3  0  0  0  0  0  0
  191.0040  176.7540  139.3410 C   0  0  0  0  0  3  0  0  0  0  0  0
  190.0730  176.2420  138.2910 C   0  0  0  0  0  2  0  0  0  0  0  0
  190.0410  177.1880  137.1040 C   0  0  0  0  0  2  0  0  0  0  0  0
  188.8740  178.1030  137.2190 C   0  0  0  0  0  0  0  0  0  0  0  0
  187.7280  177.7070  136.8830 O   0  0  0  0  0  0  0  0  0  0  0  0
  189.0530  179.4050  137.6670 O   0  0  0  0  0  1  0  0  0  0  0  0
  1 13  1  0  0  0  0
  2  3  2  0  0  0  0
  3  7  1  0  0  0  0
  4 15  1  0  0  0  0
  5 13  2  0  0  0  0
  5 18  1  0  0  0  0
  6 18  2  0  0  0  0
  7 12  1  0  0  0  0
  7 20  2  0  0  0  0
  8 10  2  0  0  0  0
  9 16  2  0  0  0  0
  9  8  1  0  0  0  0
 10  4  1  0  0  0  0
 11  3  1  0  0  0  0
 11  4  2  0  0  0  0
 12  1  2  0  0  0  0
 13 19  1  0  0  0  0
 14  6  1  0  0  0  0
 15 20  1  0  0  0  0
 15 14  2  0  0  0  0
 16 11  1  0  0  0  0
 18 17  1  0  0  0  0
 19 17  1  0  0  0  0
 19 21  1  1  0  0  0
 20  5  1  0  0  0  0
 21 22  1  6  0  0  0
 21 23  1  0  0  0  0
 24 23  1  0  0  0  0
 25 24  1  0  0  0  0
 28 29  2  0  0  0  0
 29 26  1  6  0  0  0
 29 25  1  0  0  0  0
 29 27  1  0  0  0  0
 30 31  1  0  0  0  0
 30 12  1  0  0  0  0
 32 31  1  0  0  0  0
 33 32  1  0  0  0  0
 34 33  2  0  0  0  0
 35 34  1  0  0  0  0
 36 37  1  0  0  0  0
 36 35  1  0  0  0  0
 37 39  1  0  0  0  0
 38 37  2  0  0  0  0
M  END
>  <MODEL>
9

>  <REMARK>
 VINA RESULT:      -8.2      3.188      8.293
  Name = 
  12 active torsions:
  status: ('A' for Active; 'I' for Inactive)
    1  A    between atoms: C_1  and  N_32
    2  A    between atoms: N_2  and  C_28
    3  A    between atoms: N_2  and  O_35
    4  A    between atoms: C_4  and  C_25
    5  A    between atoms: C_4  and  N_30
    6  A    between atoms: C_8  and  C_34
    7  A    between atoms: C_17  and  C_28
    8  A    between atoms: C_17  and  C_38
    9  A    between atoms: P_20  and  O_35
   10  A    between atoms: C_22  and  C_31
   11  A    between atoms: C_22  and  C_34
   12  A    between atoms: N_30  and  N_32
                            x       y       z     vdW  Elec       q    Type
                         _______ _______ _______ _____ _____    ______ ____

>  <TORSDO>
F 12

$$$$
