=
 OpenBabel11032420333D

 53 57  0  0  1  0  0  0  0  0999 V2000
  186.6750  177.8110  144.4110 C   0  0  0  0  0  0  0  0  0  0  0  0
  186.6320  178.6850  138.3130 C   0  0  0  0  0  2  0  0  0  0  0  0
  187.6320  177.5100  145.3740 C   0  0  0  0  0  3  0  0  0  0  0  0
  188.9840  177.3980  145.0420 C   0  0  0  0  0  0  0  0  0  0  0  0
  188.0390  178.4120  138.8780 C   0  0  1  0  0  3  0  0  0  0  0  0
  184.3180  178.8280  139.3730 C   0  0  0  0  0  0  0  0  0  0  0  0
  188.7840  178.0410  141.3300 N   0  0  0  0  0  0  0  0  0  0  0  0
  189.9160  177.1040  146.0480 C   0  0  0  0  0  0  0  0  0  0  0  0
  188.4250  177.8780  142.7100 C   0  0  0  0  0  0  0  0  0  0  0  0
  185.2500  177.9310  144.8430 C   0  0  0  0  0  1  0  0  0  0  0  0
  187.7880  178.2840  140.3420 C   0  0  0  0  0  0  0  0  0  0  0  0
  187.0580  177.9980  143.0750 C   0  0  0  0  0  0  0  0  0  0  0  0
  185.7410  178.6560  139.4710 N   0  0  0  0  0  0  0  0  0  0  0  0
  186.0020  178.3650  142.0490 C   0  0  0  0  0  3  0  0  0  0  0  0
  186.5180  178.4160  140.6380 C   0  0  0  0  0  0  0  0  0  0  0  0
  189.4070  177.5830  143.6970 C   0  0  0  0  0  0  0  0  0  0  0  0
  190.7980  177.4630  143.4210 C   0  0  0  0  0  0  0  0  0  0  0  0
  183.7850  178.9910  138.2440 O   0  0  0  0  0  0  0  0  0  0  0  0
  191.2680  177.0020  145.7080 C   0  0  0  0  0  3  0  0  0  0  0  0
  191.6680  177.1810  144.4270 N   0  0  0  0  0  0  0  0  0  0  0  0
  191.3830  177.6390  142.0590 C   0  0  0  0  0  1  0  0  0  0  0  0
  188.3880  175.0600  137.0970 C   0  0  0  0  0  3  0  0  0  0  0  0
  189.9680  176.8670  138.5290 C   0  0  0  0  0  3  0  0  0  0  0  0
  189.7470  174.7860  137.3030 C   0  0  0  0  0  0  0  0  0  0  0  0
  187.8240  176.2340  137.6000 C   0  0  0  0  0  3  0  0  0  0  0  0
  188.6160  177.1490  138.3120 C   0  0  0  0  0  0  0  0  0  0  0  0
  190.5300  175.6910  138.0270 C   0  0  0  0  0  3  0  0  0  0  0  0
  190.3740  173.5370  136.7710 C   0  0  1  0  0  3  0  0  0  0  0  0
  189.3100  172.5720  136.2800 C   0  0  0  0  0  1  0  0  0  0  0  0
  191.2980  173.8520  135.6900 N   0  0  0  0  0  2  0  0  0  0  0  0
  192.8850  172.1100  135.1460 C   0  0  0  0  0  1  0  0  0  0  0  0
  192.6000  173.2990  136.0370 C   0  0  1  0  0  3  0  0  0  0  0  0
  195.6910  174.3510  139.0510 C   0  0  0  0  0  1  0  0  0  0  0  0
  194.7390  172.3920  137.8600 C   0  0  0  0  0  1  0  0  0  0  0  0
  195.1510  175.8170  136.7170 O   0  0  0  0  0  0  0  0  0  0  0  0
  194.9370  173.8300  137.9260 N   0  0  0  0  0  0  0  0  0  0  0  0
  194.5910  174.6930  136.8280 C   0  0  0  0  0  0  0  0  0  0  0  0
  193.6330  174.3060  135.8350 N   0  0  0  0  0  2  0  0  0  0  0  0
  189.3230  177.9910  148.2840 C   0  0  0  0  0  1  0  0  0  0  0  0
  189.4870  176.9160  147.3690 O   0  0  0  0  0  0  0  0  0  0  0  0
  183.4360  178.7900  140.5770 C   0  0  0  0  0  2  0  0  0  0  0  0
  181.1170  178.1820  139.9040 C   0  0  0  0  0  1  0  0  0  0  0  0
  182.4200  177.6580  140.4780 C   0  0  1  0  0  3  0  0  0  0  0  0
  182.9380  176.4870  139.6490 C   0  0  0  0  0  2  0  0  0  0  0  0
  181.8390  175.6820  139.1310 N   0  0  0  0  0  2  0  0  0  0  0  0
  181.2360  176.0330  136.4200 O   0  0  0  0  0  0  0  0  0  0  0  0
  182.0480  173.7240  137.3320 O   0  0  0  0  0  1  0  0  0  0  0  0
  182.2540  175.2150  137.4920 P   0  0  2  0  0  0  0  0  0  0  0  0
  183.3290  174.6120  134.6930 O   0  0  0  0  0  0  0  0  0  0  0  0
  183.9850  175.6730  137.1320 C   0  0  0  0  0  2  0  0  0  0  0  0
  184.5040  175.1570  135.4740 P   0  0  2  0  0  4  0  0  0  0  0  0
  184.7470  174.5630  137.0960 O   0  0  0  0  0  0  0  0  0  0  0  0
  185.4930  176.5030  134.7720 C   0  0  0  0  0  1  0  0  0  0  0  0
  1 10  1  0  0  0  0
  1  3  1  0  0  0  0
  2  5  1  0  0  0  0
  2 13  1  0  0  0  0
  4  3  2  0  0  0  0
  4  8  1  0  0  0  0
  5 26  1  6  0  0  0
  5 11  1  0  0  0  0
  6 13  1  0  0  0  0
  6 41  1  0  0  0  0
  7  9  1  0  0  0  0
  8 40  1  0  0  0  0
  9 12  1  0  0  0  0
  9 16  2  0  0  0  0
 11 15  1  0  0  0  0
 11  7  2  0  0  0  0
 12  1  2  0  0  0  0
 13 15  1  0  0  0  0
 14 12  1  0  0  0  0
 15 14  2  0  0  0  0
 16  4  1  0  0  0  0
 17 16  1  0  0  0  0
 17 20  2  0  0  0  0
 18  6  2  0  0  0  0
 19  8  2  0  0  0  0
 20 19  1  0  0  0  0
 21 17  1  0  0  0  0
 22 24  2  0  0  0  0
 22 25  1  0  0  0  0
 24 27  1  0  0  0  0
 25 26  2  0  0  0  0
 26 23  1  0  0  0  0
 27 23  2  0  0  0  0
 28 29  1  6  0  0  0
 28 24  1  0  0  0  0
 30 32  1  0  0  0  0
 30 28  1  0  0  0  0
 32 31  1  6  0  0  0
 34 36  1  0  0  0  0
 35 37  2  0  0  0  0
 36 33  1  0  0  0  0
 37 36  1  0  0  0  0
 38 32  1  0  0  0  0
 38 37  1  0  0  0  0
 40 39  1  0  0  0  0
 43 42  1  6  0  0  0
 43 41  1  0  0  0  0
 44 43  1  0  0  0  0
 45 44  1  0  0  0  0
 47 48  1  0  0  0  0
 48 46  2  6  0  0  0
 48 45  1  0  0  0  0
 49 51  2  0  0  0  0
 50 48  1  0  0  0  0
 51 53  1  1  0  0  0
 51 52  1  0  0  0  0
 52 50  1  0  0  0  0
M  END
>  <MODEL>
1

>  <REMARK>
 VINA RESULT:      -8.3      0.000      0.000
  Name = 
  12 active torsions:
  status: ('A' for Active; 'I' for Inactive)
    1  A    between atoms: N_2  and  C_52
    2  A    between atoms: N_2  and  P_53
    3  A    between atoms: C_7  and  N_10
    4  A    between atoms: C_7  and  C_27
    5  A    between atoms: N_10  and  C_22
    6  A    between atoms: C_13  and  P_53
    7  A    between atoms: C_14  and  C_33
    8  A    between atoms: C_17  and  C_39
    9  A    between atoms: C_22  and  N_50
   10  A    between atoms: C_24  and  O_46
   11  A    between atoms: C_30  and  C_39
   12  A    between atoms: C_30  and  C_52
                            x       y       z     vdW  Elec       q    Type
                         _______ _______ _______ _____ _____    ______ ____

>  <TORSDO>
F 12

$$$$
=
 OpenBabel11032420333D

 53 57  0  0  1  0  0  0  0  0999 V2000
  189.2890  177.5100  140.6250 C   0  0  0  0  0  0  0  0  0  0  0  0
  183.3810  179.2400  140.8370 C   0  0  0  0  0  2  0  0  0  0  0  0
  190.1930  177.1460  139.6320 C   0  0  0  0  0  3  0  0  0  0  0  0
  189.8380  177.1820  138.2810 C   0  0  0  0  0  0  0  0  0  0  0  0
  183.8910  178.9930  139.4050 C   0  0  1  0  0  3  0  0  0  0  0  0
  184.4660  179.0600  143.1360 C   0  0  0  0  0  0  0  0  0  0  0  0
  186.2590  178.3310  138.5920 N   0  0  0  0  0  0  0  0  0  0  0  0
  190.7850  176.8160  137.3130 C   0  0  0  0  0  0  0  0  0  0  0  0
  187.6040  177.9470  138.9150 C   0  0  0  0  0  0  0  0  0  0  0  0
  189.7440  177.4620  142.0470 C   0  0  0  0  0  1  0  0  0  0  0  0
  185.3230  178.6390  139.6200 C   0  0  0  0  0  0  0  0  0  0  0  0
  187.9920  177.9130  140.2790 C   0  0  0  0  0  0  0  0  0  0  0  0
  184.5290  178.9810  141.7030 N   0  0  0  0  0  0  0  0  0  0  0  0
  187.0360  178.3440  141.3770 C   0  0  0  0  0  3  0  0  0  0  0  0
  185.6440  178.6340  140.8900 C   0  0  0  0  0  0  0  0  0  0  0  0
  188.5320  177.5870  137.8970 C   0  0  0  0  0  0  0  0  0  0  0  0
  188.2310  177.6100  136.5060 C   0  0  0  0  0  0  0  0  0  0  0  0
  183.3760  179.3430  143.7000 O   0  0  0  0  0  0  0  0  0  0  0  0
  190.4250  176.8630  135.9640 C   0  0  0  0  0  3  0  0  0  0  0  0
  189.1800  177.2520  135.6000 N   0  0  0  0  0  0  0  0  0  0  0  0
  186.9040  178.0210  135.9590 C   0  0  0  0  0  1  0  0  0  0  0  0
  182.1020  176.8520  136.8070 C   0  0  0  0  0  3  0  0  0  0  0  0
  182.7530  176.7740  139.5240 C   0  0  0  0  0  3  0  0  0  0  0  0
  181.7220  175.7490  137.5840 C   0  0  0  0  0  0  0  0  0  0  0  0
  182.8080  177.9080  137.3860 C   0  0  0  0  0  3  0  0  0  0  0  0
  183.1450  177.8690  138.7490 C   0  0  0  0  0  0  0  0  0  0  0  0
  182.0450  175.7190  138.9440 C   0  0  0  0  0  3  0  0  0  0  0  0
  180.9680  174.6050  136.9840 C   0  0  1  0  0  3  0  0  0  0  0  0
  179.8260  175.1090  136.1220 C   0  0  0  0  0  1  0  0  0  0  0  0
  181.8590  173.7680  136.1910 N   0  0  0  0  0  2  0  0  0  0  0  0
  180.8950  171.9490  137.4610 C   0  0  0  0  0  1  0  0  0  0  0  0
  182.1810  172.5850  136.9760 C   0  0  1  0  0  3  0  0  0  0  0  0
  186.4270  173.0470  135.7500 C   0  0  0  0  0  1  0  0  0  0  0  0
  184.9860  173.0510  137.7720 C   0  0  0  0  0  1  0  0  0  0  0  0
  184.6400  171.1570  134.6900 O   0  0  0  0  0  0  0  0  0  0  0  0
  185.1720  172.6790  136.3800 N   0  0  0  0  0  0  0  0  0  0  0  0
  184.2540  171.8040  135.7010 C   0  0  0  0  0  0  0  0  0  0  0  0
  182.9050  171.6270  136.1520 N   0  0  0  0  0  2  0  0  0  0  0  0
  192.5380  175.0800  137.5400 C   0  0  0  0  0  1  0  0  0  0  0  0
  192.0690  176.4110  137.7040 O   0  0  0  0  0  0  0  0  0  0  0  0
  185.6590  178.7860  143.9920 C   0  0  0  0  0  2  0  0  0  0  0  0
  184.3040  178.1550  145.9830 C   0  0  0  0  0  1  0  0  0  0  0  0
  185.3680  179.0980  145.4550 C   0  0  1  0  0  3  0  0  0  0  0  0
  186.6220  179.0310  146.3210 C   0  0  0  0  0  2  0  0  0  0  0  0
  186.7480  177.7300  146.9660 N   0  0  0  0  0  2  0  0  0  0  0  0
  188.6300  175.9750  148.0670 O   0  0  0  0  0  1  0  0  0  0  0  0
  189.0350  178.5550  148.0620 O   0  0  0  0  0  0  0  0  0  0  0  0
  188.4550  177.4320  147.2290 P   0  0  2  0  0  0  0  0  0  0  0  0
  191.4740  176.9450  147.2800 O   0  0  0  0  0  0  0  0  0  0  0  0
  189.3210  177.3010  145.6250 C   0  0  0  0  0  2  0  0  0  0  0  0
  191.1130  177.1200  145.8210 P   0  0  2  0  0  4  0  0  0  0  0  0
  190.0310  178.4230  145.4030 O   0  0  0  0  0  0  0  0  0  0  0  0
  191.6690  175.8910  144.6120 C   0  0  0  0  0  1  0  0  0  0  0  0
  1 10  1  0  0  0  0
  2 13  1  0  0  0  0
  3  1  2  0  0  0  0
  4  3  1  0  0  0  0
  5 26  1  1  0  0  0
  5 11  1  0  0  0  0
  5  2  1  0  0  0  0
  6 18  2  0  0  0  0
  6 41  1  0  0  0  0
  7  9  2  0  0  0  0
  7 11  1  0  0  0  0
  8 40  1  0  0  0  0
  8  4  2  0  0  0  0
  9 12  1  0  0  0  0
 11 15  2  0  0  0  0
 12  1  1  0  0  0  0
 12 14  2  0  0  0  0
 13  6  1  0  0  0  0
 15 14  1  0  0  0  0
 15 13  1  0  0  0  0
 16  4  1  0  0  0  0
 16  9  1  0  0  0  0
 17 16  2  0  0  0  0
 19  8  1  0  0  0  0
 20 19  2  0  0  0  0
 20 17  1  0  0  0  0
 21 17  1  0  0  0  0
 22 25  2  0  0  0  0
 22 24  1  0  0  0  0
 24 27  2  0  0  0  0
 25 26  1  0  0  0  0
 26 23  2  0  0  0  0
 27 23  1  0  0  0  0
 28 29  1  6  0  0  0
 28 24  1  0  0  0  0
 30 32  1  0  0  0  0
 30 28  1  0  0  0  0
 32 31  1  6  0  0  0
 33 36  1  0  0  0  0
 35 37  2  0  0  0  0
 36 34  1  0  0  0  0
 37 38  1  0  0  0  0
 37 36  1  0  0  0  0
 38 32  1  0  0  0  0
 39 40  1  0  0  0  0
 41 43  1  0  0  0  0
 43 42  1  1  0  0  0
 43 44  1  0  0  0  0
 44 45  1  0  0  0  0
 45 48  1  0  0  0  0
 48 47  2  1  0  0  0
 48 46  1  0  0  0  0
 50 48  1  0  0  0  0
 51 53  1  1  0  0  0
 51 49  2  0  0  0  0
 52 50  1  0  0  0  0
 52 51  1  0  0  0  0
M  END
>  <MODEL>
2

>  <REMARK>
 VINA RESULT:      -8.3      3.677      8.585
  Name = 
  12 active torsions:
  status: ('A' for Active; 'I' for Inactive)
    1  A    between atoms: N_2  and  C_52
    2  A    between atoms: N_2  and  P_53
    3  A    between atoms: C_7  and  N_10
    4  A    between atoms: C_7  and  C_27
    5  A    between atoms: N_10  and  C_22
    6  A    between atoms: C_13  and  P_53
    7  A    between atoms: C_14  and  C_33
    8  A    between atoms: C_17  and  C_39
    9  A    between atoms: C_22  and  N_50
   10  A    between atoms: C_24  and  O_46
   11  A    between atoms: C_30  and  C_39
   12  A    between atoms: C_30  and  C_52
                            x       y       z     vdW  Elec       q    Type
                         _______ _______ _______ _____ _____    ______ ____

>  <TORSDO>
F 12

$$$$
=
 OpenBabel11032420333D

 53 56  0  0  1  0  0  0  0  0999 V2000
  186.9050  177.7240  143.1370 C   0  0  0  0  0  0  0  0  0  0  0  0
  188.0750  178.4290  137.1300 C   0  0  0  0  0  2  0  0  0  0  0  0
  187.6540  177.4800  144.2820 C   0  0  0  0  0  3  0  0  0  0  0  0
  189.0480  177.4030  144.2340 C   0  0  0  0  0  0  0  0  0  0  0  0
  189.3450  178.2170  137.9750 C   0  0  1  0  0  3  0  0  0  0  0  0
  185.5920  178.5270  137.6960 C   0  0  0  0  0  0  0  0  0  0  0  0
  189.5880  177.9370  140.5390 N   0  0  0  0  0  0  0  0  0  0  0  0
  189.7640  177.1660  145.4160 C   0  0  0  0  0  0  0  0  0  0  0  0
  188.9600  177.8000  141.8220 C   0  0  0  0  0  0  0  0  0  0  0  0
  185.4190  177.8100  143.2680 C   0  0  0  0  0  1  0  0  0  0  0  0
  188.8070  178.1210  139.3620 C   0  0  0  0  0  0  0  0  0  0  0  0
  187.5460  177.8870  141.9010 C   0  0  0  0  0  0  0  0  0  0  0  0
  186.9700  178.4040  138.0850 N   0  0  0  0  0  0  0  0  0  0  0  0
  186.7100  178.1910  140.6710 C   0  0  0  0  0  3  0  0  0  0  0  0
  187.5000  178.2200  139.3920 C   0  0  0  0  0  0  0  0  0  0  0  0
  189.7290  177.5640  142.9970 C   0  0  0  0  0  0  0  0  0  0  0  0
  191.1500  177.4800  143.0100 C   0  0  0  0  0  0  0  0  0  0  0  0
  185.2940  178.6430  136.4780 O   0  0  0  0  0  0  0  0  0  0  0  0
  191.1590  177.0980  145.3590 C   0  0  0  0  0  3  0  0  0  0  0  0
  191.8060  177.2540  144.1810 N   0  0  0  0  0  0  0  0  0  0  0  0
  191.9940  177.6380  141.7890 C   0  0  0  0  0  1  0  0  0  0  0  0
  191.9220  175.4160  137.7710 C   0  0  0  0  0  3  0  0  0  0  0  0
  189.5050  176.1540  136.5780 C   0  0  0  0  0  3  0  0  0  0  0  0
  191.3590  174.6050  136.7760 C   0  0  0  0  0  0  0  0  0  0  0  0
  191.2770  176.5870  138.1700 C   0  0  0  0  0  3  0  0  0  0  0  0
  190.0570  176.9580  137.5800 C   0  0  0  0  0  0  0  0  0  0  0  0
  190.1530  174.9830  136.1780 C   0  0  0  0  0  3  0  0  0  0  0  0
  192.0310  173.3430  136.3350 C   0  0  1  0  0  3  0  0  0  0  0  0
  191.0300  172.3980  135.6960 C   0  0  0  0  0  1  0  0  0  0  0  0
  193.1050  173.6400  135.3970 N   0  0  0  0  0  2  0  0  0  0  0  0
  194.5120  171.7630  134.8060 C   0  0  0  0  0  1  0  0  0  0  0  0
  194.2780  172.8780  135.8030 C   0  0  1  0  0  3  0  0  0  0  0  0
  196.0240  174.6100  139.5040 C   0  0  0  0  0  1  0  0  0  0  0  0
  195.3410  172.4340  138.5220 C   0  0  0  0  0  1  0  0  0  0  0  0
  196.6960  175.3850  136.8900 O   0  0  0  0  0  0  0  0  0  0  0  0
  195.7140  173.8250  138.3230 N   0  0  0  0  0  0  0  0  0  0  0  0
  195.9730  174.3590  137.0130 C   0  0  0  0  0  0  0  0  0  0  0  0
  195.4470  173.7470  135.8300 N   0  0  0  0  0  2  0  0  0  0  0  0
  189.4660  177.6660  147.8250 C   0  0  0  0  0  1  0  0  0  0  0  0
  189.0820  177.0010  146.6290 O   0  0  0  0  0  0  0  0  0  0  0  0
  184.4850  178.4940  138.6980 C   0  0  0  0  0  2  0  0  0  0  0  0
  183.3140  176.3130  138.4300 C   0  0  0  0  0  1  0  0  0  0  0  0
  183.2530  177.7990  138.1320 C   0  0  1  0  0  3  0  0  0  0  0  0
  181.9550  178.4000  138.6640 C   0  0  0  0  0  2  0  0  0  0  0  0
  181.8520  179.8130  138.3260 N   0  0  0  0  0  2  0  0  0  0  0  0
  180.1490  181.2860  139.9900 O   0  0  0  0  0  1  0  0  0  0  0  0
  179.3420  179.0780  138.8500 O   0  0  0  0  0  0  0  0  0  0  0  0
  180.1940  180.3060  138.6140 P   0  0  2  0  0  0  0  0  0  0  0  0
  181.6600  182.8900  137.8850 O   0  0  0  0  0  0  0  0  0  0  0  0
  179.5710  181.2620  137.1860 C   0  0  0  0  0  2  0  0  0  0  0  0
  180.4750  182.8140  136.9480 P   0  0  0  0  0  0  0  0  0  0  0  0
  178.9320  182.3630  137.6240 O   0  0  0  0  0  0  0  0  0  0  0  0
  180.7340  183.0240  135.1660 C   0  0  0  0  0 15  0  0  0  0  0  0
  1 10  1  0  0  0  0
  1  3  1  0  0  0  0
  2  5  1  0  0  0  0
  2 13  1  0  0  0  0
  4  3  2  0  0  0  0
  4  8  1  0  0  0  0
  5 26  1  6  0  0  0
  5 11  1  0  0  0  0
  6 13  1  0  0  0  0
  6 41  1  0  0  0  0
  7  9  1  0  0  0  0
  8 40  1  0  0  0  0
  9 12  1  0  0  0  0
  9 16  2  0  0  0  0
 11 15  1  0  0  0  0
 11  7  2  0  0  0  0
 12  1  2  0  0  0  0
 13 15  1  0  0  0  0
 14 12  1  0  0  0  0
 15 14  2  0  0  0  0
 16 17  1  0  0  0  0
 16  4  1  0  0  0  0
 17 20  2  0  0  0  0
 18  6  2  0  0  0  0
 19  8  2  0  0  0  0
 20 19  1  0  0  0  0
 21 17  1  0  0  0  0
 22 25  1  0  0  0  0
 23 26  1  0  0  0  0
 24 22  2  0  0  0  0
 26 25  2  0  0  0  0
 27 23  2  0  0  0  0
 27 24  1  0  0  0  0
 28 29  1  6  0  0  0
 28 24  1  0  0  0  0
 30 32  1  0  0  0  0
 30 28  1  0  0  0  0
 32 31  1  6  0  0  0
 32 38  1  0  0  0  0
 35 37  2  0  0  0  0
 36 34  1  0  0  0  0
 36 33  1  0  0  0  0
 37 36  1  0  0  0  0
 38 37  1  0  0  0  0
 40 39  1  0  0  0  0
 43 42  1  1  0  0  0
 43 44  1  0  0  0  0
 43 41  1  0  0  0  0
 45 48  1  0  0  0  0
 45 44  1  0  0  0  0
 48 47  2  1  0  0  0
 48 46  1  0  0  0  0
 50 52  1  0  0  0  0
 50 48  1  0  0  0  0
 51 52  1  0  0  0  0
 51 49  2  0  0  0  0
M  END
>  <MODEL>
3

>  <REMARK>
 VINA RESULT:      -7.6      2.524      3.450
  Name = 
  12 active torsions:
  status: ('A' for Active; 'I' for Inactive)
    1  A    between atoms: N_2  and  C_52
    2  A    between atoms: N_2  and  P_53
    3  A    between atoms: C_7  and  N_10
    4  A    between atoms: C_7  and  C_27
    5  A    between atoms: N_10  and  C_22
    6  A    between atoms: C_13  and  P_53
    7  A    between atoms: C_14  and  C_33
    8  A    between atoms: C_17  and  C_39
    9  A    between atoms: C_22  and  N_50
   10  A    between atoms: C_24  and  O_46
   11  A    between atoms: C_30  and  C_39
   12  A    between atoms: C_30  and  C_52
                            x       y       z     vdW  Elec       q    Type
                         _______ _______ _______ _____ _____    ______ ____

>  <TORSDO>
F 12

$$$$
=
 OpenBabel11032420333D

 53 56  0  0  1  0  0  0  0  0999 V2000
  187.0060  177.5760  143.3130 C   0  0  0  0  0  0  0  0  0  0  0  0
  188.2280  178.4230  137.3360 C   0  0  0  0  0  2  0  0  0  0  0  0
  187.7500  177.3700  144.4690 C   0  0  0  0  0  3  0  0  0  0  0  0
  189.1460  177.3850  144.4450 C   0  0  0  0  0  0  0  0  0  0  0  0
  189.4950  178.2850  138.2010 C   0  0  1  0  0  3  0  0  0  0  0  0
  185.7350  178.3500  137.8580 C   0  0  0  0  0  0  0  0  0  0  0  0
  189.7120  177.9940  140.7660 N   0  0  0  0  0  0  0  0  0  0  0  0
  189.8570  177.1830  145.6380 C   0  0  0  0  0  0  0  0  0  0  0  0
  189.0730  177.8020  142.0360 C   0  0  0  0  0  0  0  0  0  0  0  0
  185.5150  177.5620  143.4190 C   0  0  0  0  0  1  0  0  0  0  0  0
  188.9410  178.1390  139.5770 C   0  0  0  0  0  0  0  0  0  0  0  0
  187.6550  177.7940  142.0900 C   0  0  0  0  0  0  0  0  0  0  0  0
  187.1110  178.3130  138.2700 N   0  0  0  0  0  0  0  0  0  0  0  0
  186.8220  178.0560  140.8490 C   0  0  0  0  0  3  0  0  0  0  0  0
  187.6300  178.1510  139.5850 C   0  0  0  0  0  0  0  0  0  0  0  0
  189.8360  177.6050  143.2220 C   0  0  0  0  0  0  0  0  0  0  0  0
  191.2590  177.6150  143.2600 C   0  0  0  0  0  0  0  0  0  0  0  0
  185.4510  178.4590  136.6360 O   0  0  0  0  0  0  0  0  0  0  0  0
  191.2530  177.2080  145.6050 C   0  0  0  0  0  3  0  0  0  0  0  0
  191.9080  177.4200  144.4390 N   0  0  0  0  0  0  0  0  0  0  0  0
  192.1120  177.8420  142.0550 C   0  0  0  0  0  1  0  0  0  0  0  0
  192.2640  175.6740  138.0010 C   0  0  0  0  0  3  0  0  0  0  0  0
  189.8050  176.2420  136.8000 C   0  0  0  0  0  3  0  0  0  0  0  0
  191.7630  174.8270  137.0030 C   0  0  0  0  0  0  0  0  0  0  0  0
  191.5360  176.7960  138.3990 C   0  0  0  0  0  3  0  0  0  0  0  0
  190.2960  177.0810  137.8060 C   0  0  0  0  0  0  0  0  0  0  0  0
  190.5360  175.1210  136.4010 C   0  0  0  0  0  3  0  0  0  0  0  0
  192.5240  173.6170  136.5620 C   0  0  1  0  0  3  0  0  0  0  0  0
  191.5820  172.5650  136.0060 C   0  0  0  0  0  1  0  0  0  0  0  0
  193.5160  173.9780  135.5580 N   0  0  0  0  0  2  0  0  0  0  0  0
  195.0530  172.1330  135.2640 C   0  0  0  0  0  1  0  0  0  0  0  0
  194.8010  173.4410  135.9830 C   0  0  1  0  0  3  0  0  0  0  0  0
  197.9610  174.7520  138.8190 C   0  0  0  0  0  1  0  0  0  0  0  0
  196.9330  172.6940  137.8860 C   0  0  0  0  0  1  0  0  0  0  0  0
  197.4390  175.9380  136.3280 O   0  0  0  0  0  0  0  0  0  0  0  0
  197.1770  174.1220  137.7730 N   0  0  0  0  0  0  0  0  0  0  0  0
  196.8450  174.8550  136.5800 C   0  0  0  0  0  0  0  0  0  0  0  0
  195.8630  174.3810  135.6510 N   0  0  0  0  0  2  0  0  0  0  0  0
  189.1570  177.8980  147.9050 C   0  0  0  0  0  1  0  0  0  0  0  0
  189.1660  176.9600  146.8370 O   0  0  0  0  0  0  0  0  0  0  0  0
  184.6160  178.2320  138.8410 C   0  0  0  0  0  2  0  0  0  0  0  0
  182.4440  178.3340  137.6280 C   0  0  0  0  0  1  0  0  0  0  0  0
  183.4450  179.1250  138.4480 C   0  0  1  0  0  3  0  0  0  0  0  0
  182.7660  179.7550  139.6600 C   0  0  0  0  0  2  0  0  0  0  0  0
  181.3160  179.7420  139.5170 N   0  0  0  0  0  2  0  0  0  0  0  0
  179.9960  180.6250  141.8230 O   0  0  0  0  0  0  0  0  0  0  0  0
  181.7320  178.6750  141.9260 O   0  0  0  0  0  1  0  0  0  0  0  0
  180.6370  179.2590  141.0600 P   0  0  2  0  0  0  0  0  0  0  0  0
  181.4160  176.4890  140.0250 O   0  0  0  0  0  0  0  0  0  0  0  0
  179.2980  178.0440  140.7990 C   0  0  0  0  0  2  0  0  0  0  0  0
  179.9050  176.4930  140.0850 P   0  0  0  0  0  0  0  0  0  0  0  0
  179.0700  177.9000  139.4800 O   0  0  0  0  0  0  0  0  0  0  0  0
  179.0440  175.1360  140.9240 C   0  0  0  0  0 15  0  0  0  0  0  0
  1 10  1  0  0  0  0
  1  3  1  0  0  0  0
  2  5  1  0  0  0  0
  2 13  1  0  0  0  0
  4  3  2  0  0  0  0
  4  8  1  0  0  0  0
  5 26  1  6  0  0  0
  5 11  1  0  0  0  0
  6 13  1  0  0  0  0
  6 41  1  0  0  0  0
  7  9  1  0  0  0  0
  8 40  1  0  0  0  0
  9 12  1  0  0  0  0
  9 16  2  0  0  0  0
 11 15  1  0  0  0  0
 11  7  2  0  0  0  0
 12  1  2  0  0  0  0
 13 15  1  0  0  0  0
 14 12  1  0  0  0  0
 15 14  2  0  0  0  0
 16 17  1  0  0  0  0
 16  4  1  0  0  0  0
 17 20  2  0  0  0  0
 18  6  2  0  0  0  0
 19  8  2  0  0  0  0
 20 19  1  0  0  0  0
 21 17  1  0  0  0  0
 22 25  1  0  0  0  0
 23 26  1  0  0  0  0
 24 22  2  0  0  0  0
 26 25  2  0  0  0  0
 27 23  2  0  0  0  0
 27 24  1  0  0  0  0
 28 29  1  6  0  0  0
 28 24  1  0  0  0  0
 30 32  1  0  0  0  0
 30 28  1  0  0  0  0
 32 31  1  6  0  0  0
 35 37  2  0  0  0  0
 36 34  1  0  0  0  0
 36 33  1  0  0  0  0
 37 36  1  0  0  0  0
 38 32  1  0  0  0  0
 38 37  1  0  0  0  0
 40 39  1  0  0  0  0
 43 42  1  1  0  0  0
 43 41  1  0  0  0  0
 43 44  1  0  0  0  0
 45 44  1  0  0  0  0
 45 48  1  0  0  0  0
 48 46  2  1  0  0  0
 48 47  1  0  0  0  0
 49 51  2  0  0  0  0
 50 48  1  0  0  0  0
 52 51  1  0  0  0  0
 52 50  1  0  0  0  0
M  END
>  <MODEL>
4

>  <REMARK>
 VINA RESULT:      -7.6      2.217      3.262
  Name = 
  12 active torsions:
  status: ('A' for Active; 'I' for Inactive)
    1  A    between atoms: N_2  and  C_52
    2  A    between atoms: N_2  and  P_53
    3  A    between atoms: C_7  and  N_10
    4  A    between atoms: C_7  and  C_27
    5  A    between atoms: N_10  and  C_22
    6  A    between atoms: C_13  and  P_53
    7  A    between atoms: C_14  and  C_33
    8  A    between atoms: C_17  and  C_39
    9  A    between atoms: C_22  and  N_50
   10  A    between atoms: C_24  and  O_46
   11  A    between atoms: C_30  and  C_39
   12  A    between atoms: C_30  and  C_52
                            x       y       z     vdW  Elec       q    Type
                         _______ _______ _______ _____ _____    ______ ____

>  <TORSDO>
F 12

$$$$
=
 OpenBabel11032420333D

 53 56  0  0  1  0  0  0  0  0999 V2000
  186.8650  177.6060  143.1470 C   0  0  0  0  0  0  0  0  0  0  0  0
  188.4630  178.3960  137.2510 C   0  0  0  0  0  2  0  0  0  0  0  0
  187.5340  177.4020  144.3480 C   0  0  0  0  0  3  0  0  0  0  0  0
  188.9300  177.4030  144.4100 C   0  0  0  0  0  0  0  0  0  0  0  0
  189.6720  178.2530  138.1930 C   0  0  1  0  0  3  0  0  0  0  0  0
  185.9410  178.3520  137.6190 C   0  0  0  0  0  0  0  0  0  0  0  0
  189.7280  177.9790  140.7690 N   0  0  0  0  0  0  0  0  0  0  0  0
  189.5630  177.2030  145.6460 C   0  0  0  0  0  0  0  0  0  0  0  0
  189.0100  177.8030  141.9990 C   0  0  0  0  0  0  0  0  0  0  0  0
  185.3710  177.6080  143.1610 C   0  0  0  0  0  1  0  0  0  0  0  0
  189.0330  178.1220  139.5340 C   0  0  0  0  0  0  0  0  0  0  0  0
  187.5910  177.8090  141.9650 C   0  0  0  0  0  0  0  0  0  0  0  0
  187.2890  178.3050  138.1150 N   0  0  0  0  0  0  0  0  0  0  0  0
  186.8390  178.0700  140.6730 C   0  0  0  0  0  3  0  0  0  0  0  0
  187.7240  178.1480  139.4600 C   0  0  0  0  0  0  0  0  0  0  0  0
  189.6960  177.6070  143.2300 C   0  0  0  0  0  0  0  0  0  0  0  0
  191.1140  177.6030  143.3560 C   0  0  0  0  0  0  0  0  0  0  0  0
  185.7340  178.4540  136.3810 O   0  0  0  0  0  0  0  0  0  0  0  0
  190.9590  177.2140  145.6990 C   0  0  0  0  0  3  0  0  0  0  0  0
  191.6870  177.4110  144.5740 N   0  0  0  0  0  0  0  0  0  0  0  0
  192.0420  177.8120  142.2050 C   0  0  0  0  0  1  0  0  0  0  0  0
  192.3380  175.5300  138.2800 C   0  0  0  0  0  3  0  0  0  0  0  0
  190.1380  176.2840  136.7300 C   0  0  0  0  0  3  0  0  0  0  0  0
  191.9810  174.7690  137.1590 C   0  0  0  0  0  0  0  0  0  0  0  0
  191.5950  176.6590  138.6270 C   0  0  0  0  0  3  0  0  0  0  0  0
  190.4830  177.0370  137.8570 C   0  0  0  0  0  0  0  0  0  0  0  0
  190.8840  175.1560  136.3830 C   0  0  0  0  0  3  0  0  0  0  0  0
  192.7610  173.5530  136.7710 C   0  0  1  0  0  3  0  0  0  0  0  0
  191.8570  172.5240  136.1150 C   0  0  0  0  0  1  0  0  0  0  0  0
  193.8450  173.9110  135.8670 N   0  0  0  0  0  2  0  0  0  0  0  0
  195.6210  175.0290  137.0690 C   0  0  0  0  0  1  0  0  0  0  0  0
  195.1030  173.6980  136.5690 C   0  0  1  0  0  3  0  0  0  0  0  0
  197.4520  170.0030  137.3310 C   0  0  0  0  0  1  0  0  0  0  0  0
  197.7510  172.4280  136.8900 C   0  0  0  0  0  1  0  0  0  0  0  0
  195.0840  170.7110  138.6640 O   0  0  0  0  0  0  0  0  0  0  0  0
  196.8890  171.3410  137.3230 N   0  0  0  0  0  0  0  0  0  0  0  0
  195.6020  171.5850  137.9190 C   0  0  0  0  0  0  0  0  0  0  0  0
  194.8910  172.8100  137.7040 N   0  0  0  0  0  2  0  0  0  0  0  0
  189.0820  177.6370  148.0370 C   0  0  0  0  0  1  0  0  0  0  0  0
  188.7980  176.9960  146.8010 O   0  0  0  0  0  0  0  0  0  0  0  0
  184.7620  178.2530  138.5310 C   0  0  0  0  0  2  0  0  0  0  0  0
  183.1790  176.3990  139.0350 C   0  0  0  0  0  1  0  0  0  0  0  0
  183.6980  177.3280  137.9540 C   0  0  1  0  0  3  0  0  0  0  0  0
  182.5480  178.0990  137.3130 C   0  0  0  0  0  2  0  0  0  0  0  0
  181.3850  178.1350  138.1900 N   0  0  0  0  0  2  0  0  0  0  0  0
  180.1650  180.2140  136.7670 O   0  0  0  0  0  0  0  0  0  0  0  0
  182.0060  180.7030  138.5550 O   0  0  0  0  0  1  0  0  0  0  0  0
  180.8300  179.7970  138.2640 P   0  0  2  0  0  0  0  0  0  0  0  0
  181.5840  179.0480  141.1320 O   0  0  0  0  0  0  0  0  0  0  0  0
  179.5450  179.9680  139.5510 C   0  0  0  0  0  2  0  0  0  0  0  0
  180.1100  179.3860  141.1720 P   0  0  0  0  0  0  0  0  0  0  0  0
  179.0950  178.7490  139.9050 O   0  0  0  0  0  0  0  0  0  0  0  0
  179.4980  180.5580  142.4120 C   0  0  0  0  0 15  0  0  0  0  0  0
  1 10  1  0  0  0  0
  1  3  1  0  0  0  0
  2 13  1  0  0  0  0
  2  5  1  0  0  0  0
  3  4  2  0  0  0  0
  4  8  1  0  0  0  0
  5 26  1  6  0  0  0
  5 11  1  0  0  0  0
  6 13  1  0  0  0  0
  6 41  1  0  0  0  0
  7  9  1  0  0  0  0
  8 19  2  0  0  0  0
  8 40  1  0  0  0  0
  9 16  2  0  0  0  0
 11  7  2  0  0  0  0
 12  9  1  0  0  0  0
 12  1  2  0  0  0  0
 13 15  1  0  0  0  0
 14 12  1  0  0  0  0
 15 11  1  0  0  0  0
 15 14  2  0  0  0  0
 16 17  1  0  0  0  0
 16  4  1  0  0  0  0
 17 20  2  0  0  0  0
 18  6  2  0  0  0  0
 20 19  1  0  0  0  0
 21 17  1  0  0  0  0
 22 25  1  0  0  0  0
 23 26  1  0  0  0  0
 24 22  2  0  0  0  0
 26 25  2  0  0  0  0
 27 23  2  0  0  0  0
 27 24  1  0  0  0  0
 28 29  1  6  0  0  0
 28 24  1  0  0  0  0
 30 32  1  0  0  0  0
 30 28  1  0  0  0  0
 32 31  1  1  0  0  0
 32 38  1  0  0  0  0
 34 36  1  0  0  0  0
 36 33  1  0  0  0  0
 36 37  1  0  0  0  0
 37 35  2  0  0  0  0
 38 37  1  0  0  0  0
 40 39  1  0  0  0  0
 43 41  1  0  0  0  0
 43 42  1  1  0  0  0
 44 43  1  0  0  0  0
 44 45  1  0  0  0  0
 45 48  1  0  0  0  0
 48 46  2  6  0  0  0
 48 47  1  0  0  0  0
 48 50  1  0  0  0  0
 49 51  2  0  0  0  0
 50 52  1  0  0  0  0
 52 51  1  0  0  0  0
M  END
>  <MODEL>
5

>  <REMARK>
 VINA RESULT:      -7.3      2.387      3.659
  Name = 
  12 active torsions:
  status: ('A' for Active; 'I' for Inactive)
    1  A    between atoms: N_2  and  C_52
    2  A    between atoms: N_2  and  P_53
    3  A    between atoms: C_7  and  N_10
    4  A    between atoms: C_7  and  C_27
    5  A    between atoms: N_10  and  C_22
    6  A    between atoms: C_13  and  P_53
    7  A    between atoms: C_14  and  C_33
    8  A    between atoms: C_17  and  C_39
    9  A    between atoms: C_22  and  N_50
   10  A    between atoms: C_24  and  O_46
   11  A    between atoms: C_30  and  C_39
   12  A    between atoms: C_30  and  C_52
                            x       y       z     vdW  Elec       q    Type
                         _______ _______ _______ _____ _____    ______ ____

>  <TORSDO>
F 12

$$$$
=
 OpenBabel11032420333D

 53 56  0  0  1  0  0  0  0  0999 V2000
  190.7770  177.2560  139.5650 C   0  0  0  0  0  0  0  0  0  0  0  0
  184.9290  178.0750  137.8110 C   0  0  0  0  0  2  0  0  0  0  0  0
  191.9250  176.7090  139.0020 C   0  0  0  0  0  3  0  0  0  0  0  0
  191.9310  176.2270  137.6910 C   0  0  0  0  0  0  0  0  0  0  0  0
  185.8050  177.4280  136.7220 C   0  0  1  0  0  3  0  0  0  0  0  0
  185.3900  178.8550  140.1930 C   0  0  0  0  0  0  0  0  0  0  0  0
  188.3360  176.8790  136.7560 N   0  0  0  0  0  0  0  0  0  0  0  0
  193.1160  175.6930  137.1610 C   0  0  0  0  0  0  0  0  0  0  0  0
  189.5700  176.8290  137.4860 C   0  0  0  0  0  0  0  0  0  0  0  0
  190.8500  177.7660  140.9670 C   0  0  0  0  0  1  0  0  0  0  0  0
  187.1500  177.3820  137.3630 C   0  0  0  0  0  0  0  0  0  0  0  0
  189.5940  177.3230  138.8170 C   0  0  0  0  0  0  0  0  0  0  0  0
  185.8260  178.2980  138.9420 N   0  0  0  0  0  0  0  0  0  0  0  0
  188.3640  177.9610  139.4370 C   0  0  0  0  0  3  0  0  0  0  0  0
  187.1310  177.8600  138.5830 C   0  0  0  0  0  0  0  0  0  0  0  0
  190.7490  176.2810  136.9060 C   0  0  0  0  0  0  0  0  0  0  0  0
  190.8170  175.7810  135.5750 C   0  0  0  0  0  0  0  0  0  0  0  0
  184.1770  179.1530  140.3560 O   0  0  0  0  0  0  0  0  0  0  0  0
  193.1150  175.2210  135.8460 C   0  0  0  0  0  3  0  0  0  0  0  0
  191.9870  175.2760  135.0990 N   0  0  0  0  0  0  0  0  0  0  0  0
  189.6570  175.7820  134.6350 C   0  0  0  0  0  1  0  0  0  0  0  0
  184.7020  174.3530  134.7580 C   0  0  0  0  0  3  0  0  0  0  0  0
  184.9770  175.1770  137.4140 C   0  0  0  0  0  3  0  0  0  0  0  0
  184.3740  173.4730  135.7990 C   0  0  0  0  0  0  0  0  0  0  0  0
  185.1700  175.6360  135.0450 C   0  0  0  0  0  3  0  0  0  0  0  0
  185.3180  176.0510  136.3780 C   0  0  0  0  0  0  0  0  0  0  0  0
  184.5070  173.8940  137.1250 C   0  0  0  0  0  3  0  0  0  0  0  0
  183.8740  172.0920  135.5150 C   0  0  1  0  0  3  0  0  0  0  0  0
  185.0290  171.1120  135.4260 C   0  0  0  0  0  1  0  0  0  0  0  0
  182.9380  171.6670  136.5470 N   0  0  0  0  0  2  0  0  0  0  0  0
  180.9030  170.7270  135.6400 C   0  0  0  0  0  1  0  0  0  0  0  0
  181.5930  171.9950  136.0960 C   0  0  1  0  0  3  0  0  0  0  0  0
  181.3560  176.3560  136.9140 C   0  0  0  0  0  1  0  0  0  0  0  0
  181.0180  174.7100  135.0860 C   0  0  0  0  0  1  0  0  0  0  0  0
  180.4820  174.3390  138.6610 O   0  0  0  0  0  0  0  0  0  0  0  0
  181.1250  174.9810  136.5100 N   0  0  0  0  0  0  0  0  0  0  0  0
  180.8080  173.9830  137.4970 C   0  0  0  0  0  0  0  0  0  0  0  0
  180.8350  172.5840  137.1910 N   0  0  0  0  0  2  0  0  0  0  0  0
  195.0510  174.4570  138.0920 C   0  0  0  0  0  1  0  0  0  0  0  0
  194.2740  175.6380  137.9480 O   0  0  0  0  0  0  0  0  0  0  0  0
  186.3340  179.0680  141.3310 C   0  0  0  0  0  2  0  0  0  0  0  0
  184.4070  177.9440  142.4370 C   0  0  0  0  0  1  0  0  0  0  0  0
  185.6620  178.7650  142.6650 C   0  0  1  0  0  3  0  0  0  0  0  0
  186.6000  178.0530  143.6360 C   0  0  0  0  0  2  0  0  0  0  0  0
  187.9050  177.8200  143.0310 N   0  0  0  0  0  2  0  0  0  0  0  0
  190.2170  178.8640  144.2150 O   0  0  0  0  0  1  0  0  0  0  0  0
  189.7550  176.2930  144.1980 O   0  0  0  0  0  0  0  0  0  0  0  0
  189.0650  177.6330  144.3330 P   0  0  2  0  0  0  0  0  0  0  0  0
  190.7040  177.0530  146.8490 O   0  0  0  0  0  0  0  0  0  0  0  0
  188.2180  177.7670  145.9460 C   0  0  0  0  0  2  0  0  0  0  0  0
  189.2890  177.2900  147.3280 P   0  0  0  0  0  0  0  0  0  0  0  0
  187.9920  176.5350  146.4400 O   0  0  0  0  0  0  0  0  0  0  0  0
  188.9910  178.4660  148.6760 C   0  0  0  0  0 15  0  0  0  0  0  0
  1 10  1  0  0  0  0
  2 13  1  0  0  0  0
  3  1  1  0  0  0  0
  4  3  2  0  0  0  0
  5 26  1  1  0  0  0
  5 11  1  0  0  0  0
  5  2  1  0  0  0  0
  6 18  2  0  0  0  0
  6 41  1  0  0  0  0
  7 11  2  0  0  0  0
  7  9  1  0  0  0  0
  8  4  1  0  0  0  0
  8 40  1  0  0  0  0
  9 12  1  0  0  0  0
 11 15  1  0  0  0  0
 12 14  1  0  0  0  0
 12  1  2  0  0  0  0
 13  6  1  0  0  0  0
 15 13  1  0  0  0  0
 15 14  2  0  0  0  0
 16  9  2  0  0  0  0
 16  4  1  0  0  0  0
 17 16  1  0  0  0  0
 19  8  2  0  0  0  0
 20 17  2  0  0  0  0
 20 19  1  0  0  0  0
 21 17  1  0  0  0  0
 22 25  2  0  0  0  0
 22 24  1  0  0  0  0
 24 27  2  0  0  0  0
 25 26  1  0  0  0  0
 26 23  2  0  0  0  0
 27 23  1  0  0  0  0
 28 29  1  1  0  0  0
 28 24  1  0  0  0  0
 28 30  1  0  0  0  0
 32 31  1  1  0  0  0
 32 30  1  0  0  0  0
 32 38  1  0  0  0  0
 34 36  1  0  0  0  0
 36 33  1  0  0  0  0
 36 37  1  0  0  0  0
 37 35  2  0  0  0  0
 38 37  1  0  0  0  0
 40 39  1  0  0  0  0
 41 43  1  0  0  0  0
 43 42  1  6  0  0  0
 43 44  1  0  0  0  0
 45 44  1  0  0  0  0
 45 48  1  0  0  0  0
 46 48  1  0  0  0  0
 48 47  2  6  0  0  0
 48 50  1  0  0  0  0
 49 51  2  0  0  0  0
 50 52  1  0  0  0  0
 52 51  1  0  0  0  0
M  END
>  <MODEL>
6

>  <REMARK>
 VINA RESULT:      -7.3      3.259      8.788
  Name = 
  12 active torsions:
  status: ('A' for Active; 'I' for Inactive)
    1  A    between atoms: N_2  and  C_52
    2  A    between atoms: N_2  and  P_53
    3  A    between atoms: C_7  and  N_10
    4  A    between atoms: C_7  and  C_27
    5  A    between atoms: N_10  and  C_22
    6  A    between atoms: C_13  and  P_53
    7  A    between atoms: C_14  and  C_33
    8  A    between atoms: C_17  and  C_39
    9  A    between atoms: C_22  and  N_50
   10  A    between atoms: C_24  and  O_46
   11  A    between atoms: C_30  and  C_39
   12  A    between atoms: C_30  and  C_52
                            x       y       z     vdW  Elec       q    Type
                         _______ _______ _______ _____ _____    ______ ____

>  <TORSDO>
F 12

$$$$
=
 OpenBabel11032420333D

 53 56  0  0  1  0  0  0  0  0999 V2000
  185.2560  178.3430  144.0450 C   0  0  0  0  0  0  0  0  0  0  0  0
  185.3850  178.8100  137.9040 C   0  0  0  0  0  2  0  0  0  0  0  0
  186.1710  178.0430  145.0470 C   0  0  0  0  0  3  0  0  0  0  0  0
  187.5180  177.8180  144.7540 C   0  0  0  0  0  0  0  0  0  0  0  0
  186.7590  178.4800  138.5170 C   0  0  1  0  0  3  0  0  0  0  0  0
  183.0680  179.1800  138.8990 C   0  0  0  0  0  0  0  0  0  0  0  0
  187.4320  178.2230  141.0060 N   0  0  0  0  0  0  0  0  0  0  0  0
  188.4090  177.5280  145.7990 C   0  0  0  0  0  0  0  0  0  0  0  0
  187.0360  178.1770  142.3840 C   0  0  0  0  0  0  0  0  0  0  0  0
  183.8340  178.5880  144.4360 C   0  0  0  0  0  1  0  0  0  0  0  0
  186.4740  178.4670  139.9800 C   0  0  0  0  0  0  0  0  0  0  0  0
  185.6750  178.4150  142.7100 C   0  0  0  0  0  0  0  0  0  0  0  0
  184.4740  178.9190  139.0400 N   0  0  0  0  0  0  0  0  0  0  0  0
  184.6660  178.7830  141.6370 C   0  0  0  0  0  3  0  0  0  0  0  0
  185.2110  178.7050  140.2390 C   0  0  0  0  0  0  0  0  0  0  0  0
  187.9770  177.8830  143.4110 C   0  0  0  0  0  0  0  0  0  0  0  0
  189.3610  177.6500  143.1750 C   0  0  0  0  0  0  0  0  0  0  0  0
  182.5680  179.3040  137.7490 O   0  0  0  0  0  0  0  0  0  0  0  0
  189.7560  177.3120  145.4970 C   0  0  0  0  0  3  0  0  0  0  0  0
  190.1920  177.3780  144.2170 N   0  0  0  0  0  0  0  0  0  0  0  0
  189.9830  177.6950  141.8180 C   0  0  0  0  0  1  0  0  0  0  0  0
  189.0560  175.5660  137.6420 C   0  0  0  0  0  3  0  0  0  0  0  0
  186.3430  176.2290  137.5220 C   0  0  0  0  0  3  0  0  0  0  0  0
  188.1350  174.6440  137.1280 C   0  0  0  0  0  0  0  0  0  0  0  0
  188.6210  176.8120  138.0980 C   0  0  0  0  0  3  0  0  0  0  0  0
  187.2580  177.1460  138.0490 C   0  0  0  0  0  0  0  0  0  0  0  0
  186.7800  174.9840  137.0630 C   0  0  0  0  0  3  0  0  0  0  0  0
  188.5770  173.3020  136.6360 C   0  0  1  0  0  3  0  0  0  0  0  0
  187.4310  172.3090  136.6860 C   0  0  0  0  0  1  0  0  0  0  0  0
  189.0910  173.4020  135.2770 N   0  0  0  0  0  2  0  0  0  0  0  0
  190.8830  171.9130  134.6260 C   0  0  0  0  0  1  0  0  0  0  0  0
  190.5340  173.2080  135.3280 C   0  0  1  0  0  3  0  0  0  0  0  0
  193.5510  175.8480  137.2450 C   0  0  0  0  0  1  0  0  0  0  0  0
  193.0540  173.4480  136.8480 C   0  0  0  0  0  1  0  0  0  0  0  0
  192.3270  176.3350  134.7650 O   0  0  0  0  0  0  0  0  0  0  0  0
  192.8410  174.8380  136.4810 N   0  0  0  0  0  0  0  0  0  0  0  0
  192.1280  175.2050  135.2870 C   0  0  0  0  0  0  0  0  0  0  0  0
  191.2040  174.3130  134.6540 N   0  0  0  0  0  2  0  0  0  0  0  0
  188.7350  177.8460  148.2340 C   0  0  0  0  0  1  0  0  0  0  0  0
  187.9440  177.4590  147.1190 O   0  0  0  0  0  0  0  0  0  0  0  0
  182.1630  179.2830  140.0830 C   0  0  0  0  0  2  0  0  0  0  0  0
  180.4360  179.6830  138.3350 C   0  0  0  0  0  1  0  0  0  0  0  0
  180.7110  179.0490  139.6850 C   0  0  1  0  0  3  0  0  0  0  0  0
  180.3490  177.5670  139.6650 C   0  0  0  0  0  2  0  0  0  0  0  0
  179.9610  177.1380  138.3280 N   0  0  0  0  0  2  0  0  0  0  0  0
  178.9310  174.6200  137.6700 O   0  0  0  0  0  0  0  0  0  0  0  0
  180.7170  174.8940  139.5560 O   0  0  0  0  0  1  0  0  0  0  0  0
  180.3190  175.4260  138.1960 P   0  0  2  0  0  0  0  0  0  0  0  0
  181.1460  172.5420  137.6030 O   0  0  0  0  0  0  0  0  0  0  0  0
  181.6560  175.1600  136.9790 C   0  0  0  0  0  2  0  0  0  0  0  0
  182.1030  173.4120  136.8170 P   0  0  0  0  0  0  0  0  0  0  0  0
  182.7850  174.8020  137.6200 O   0  0  0  0  0  0  0  0  0  0  0  0
  182.3640  173.0800  135.0540 C   0  0  0  0  0 15  0  0  0  0  0  0
  1 10  1  0  0  0  0
  1  3  1  0  0  0  0
  2  5  1  0  0  0  0
  2 13  1  0  0  0  0
  4  3  2  0  0  0  0
  4  8  1  0  0  0  0
  5 26  1  6  0  0  0
  5 11  1  0  0  0  0
  6 13  1  0  0  0  0
  6 41  1  0  0  0  0
  7  9  1  0  0  0  0
  8 40  1  0  0  0  0
  9 12  1  0  0  0  0
  9 16  2  0  0  0  0
 11 15  1  0  0  0  0
 11  7  2  0  0  0  0
 12  1  2  0  0  0  0
 13 15  1  0  0  0  0
 14 12  1  0  0  0  0
 15 14  2  0  0  0  0
 16  4  1  0  0  0  0
 17 16  1  0  0  0  0
 17 20  2  0  0  0  0
 18  6  2  0  0  0  0
 19  8  2  0  0  0  0
 20 19  1  0  0  0  0
 21 17  1  0  0  0  0
 22 25  1  0  0  0  0
 23 26  1  0  0  0  0
 24 22  2  0  0  0  0
 26 25  2  0  0  0  0
 27 24  1  0  0  0  0
 27 23  2  0  0  0  0
 28 29  1  6  0  0  0
 28 24  1  0  0  0  0
 30 32  1  0  0  0  0
 30 28  1  0  0  0  0
 32 31  1  6  0  0  0
 35 37  2  0  0  0  0
 36 34  1  0  0  0  0
 36 33  1  0  0  0  0
 37 36  1  0  0  0  0
 38 37  1  0  0  0  0
 38 32  1  0  0  0  0
 40 39  1  0  0  0  0
 43 42  1  6  0  0  0
 43 41  1  0  0  0  0
 44 43  1  0  0  0  0
 45 44  1  0  0  0  0
 48 46  2  6  0  0  0
 48 45  1  0  0  0  0
 48 47  1  0  0  0  0
 50 52  1  0  0  0  0
 50 48  1  0  0  0  0
 51 49  2  0  0  0  0
 51 52  1  0  0  0  0
M  END
>  <MODEL>
7

>  <REMARK>
 VINA RESULT:      -6.7      1.699      2.235
  Name = 
  12 active torsions:
  status: ('A' for Active; 'I' for Inactive)
    1  A    between atoms: N_2  and  C_52
    2  A    between atoms: N_2  and  P_53
    3  A    between atoms: C_7  and  N_10
    4  A    between atoms: C_7  and  C_27
    5  A    between atoms: N_10  and  C_22
    6  A    between atoms: C_13  and  P_53
    7  A    between atoms: C_14  and  C_33
    8  A    between atoms: C_17  and  C_39
    9  A    between atoms: C_22  and  N_50
   10  A    between atoms: C_24  and  O_46
   11  A    between atoms: C_30  and  C_39
   12  A    between atoms: C_30  and  C_52
                            x       y       z     vdW  Elec       q    Type
                         _______ _______ _______ _____ _____    ______ ____

>  <TORSDO>
F 12

$$$$
=
 OpenBabel11032420333D

 53 56  0  0  1  0  0  0  0  0999 V2000
  189.9190  176.6050  140.6330 C   0  0  0  0  0  0  0  0  0  0  0  0
  184.5230  179.1940  142.0920 C   0  0  0  0  0  2  0  0  0  0  0  0
  190.6500  176.4000  139.4690 C   0  0  0  0  0  3  0  0  0  0  0  0
  190.2090  176.8960  138.2390 C   0  0  0  0  0  0  0  0  0  0  0  0
  184.8610  179.2980  140.5930 C   0  0  1  0  0  3  0  0  0  0  0  0
  185.7200  178.1560  144.0880 C   0  0  0  0  0  0  0  0  0  0  0  0
  186.9750  178.5050  139.3240 N   0  0  0  0  0  0  0  0  0  0  0  0
  190.9850  176.6740  137.0920 C   0  0  0  0  0  0  0  0  0  0  0  0
  188.2330  177.8150  139.3480 C   0  0  0  0  0  0  0  0  0  0  0  0
  190.4610  176.0600  141.9140 C   0  0  0  0  0  1  0  0  0  0  0  0
  186.2020  178.6530  140.5110 C   0  0  0  0  0  0  0  0  0  0  0  0
  188.7090  177.3120  140.5870 C   0  0  0  0  0  0  0  0  0  0  0  0
  185.6560  178.4950  142.6940 N   0  0  0  0  0  0  0  0  0  0  0  0
  187.9480  177.5580  141.8770 C   0  0  0  0  0  3  0  0  0  0  0  0
  186.6120  178.2160  141.6770 C   0  0  0  0  0  0  0  0  0  0  0  0
  188.9880  177.6170  138.1570 C   0  0  0  0  0  0  0  0  0  0  0  0
  188.5930  178.1030  136.8790 C   0  0  0  0  0  0  0  0  0  0  0  0
  184.7570  178.4450  144.8470 O   0  0  0  0  0  0  0  0  0  0  0  0
  190.5400  177.1810  135.8680 C   0  0  0  0  0  3  0  0  0  0  0  0
  189.3780  177.8700  135.7930 N   0  0  0  0  0  0  0  0  0  0  0  0
  187.3410  178.8820  136.6460 C   0  0  0  0  0  1  0  0  0  0  0  0
  182.3620  178.4380  137.8460 C   0  0  0  0  0  3  0  0  0  0  0  0
  183.4300  177.2980  140.1640 C   0  0  0  0  0  3  0  0  0  0  0  0
  181.9490  177.1610  138.2490 C   0  0  0  0  0  0  0  0  0  0  0  0
  183.3070  179.1390  138.5970 C   0  0  0  0  0  3  0  0  0  0  0  0
  183.8540  178.5660  139.7570 C   0  0  0  0  0  0  0  0  0  0  0  0
  182.4820  176.5990  139.4130 C   0  0  0  0  0  3  0  0  0  0  0  0
  180.9400  176.3900  137.4590 C   0  0  1  0  0  3  0  0  0  0  0  0
  180.6500  175.0540  138.1180 C   0  0  0  0  0  1  0  0  0  0  0  0
  179.7080  177.1550  137.3220 N   0  0  0  0  0  2  0  0  0  0  0  0
  178.9310  179.3660  137.9210 C   0  0  0  0  0  1  0  0  0  0  0  0
  179.6640  178.1320  138.4020 C   0  0  1  0  0  3  0  0  0  0  0  0
  180.8990  178.7080  142.6310 C   0  0  0  0  0  1  0  0  0  0  0  0
  180.3860  179.9990  140.5730 C   0  0  0  0  0  1  0  0  0  0  0  0
  178.9690  176.8670  141.7530 O   0  0  0  0  0  0  0  0  0  0  0  0
  180.2670  178.7610  141.3260 N   0  0  0  0  0  0  0  0  0  0  0  0
  179.3890  177.7010  140.9060 C   0  0  0  0  0  0  0  0  0  0  0  0
  178.9580  177.5720  139.5460 N   0  0  0  0  0  2  0  0  0  0  0  0
  193.1870  176.0010  136.1770 C   0  0  0  0  0  1  0  0  0  0  0  0
  192.1840  175.9550  137.1830 O   0  0  0  0  0  0  0  0  0  0  0  0
  186.8930  177.4370  144.6710 C   0  0  0  0  0  2  0  0  0  0  0  0
  187.1360  177.4950  147.1470 C   0  0  0  0  0  1  0  0  0  0  0  0
  187.4760  178.2050  145.8510 C   0  0  1  0  0  3  0  0  0  0  0  0
  188.9840  178.4000  145.7250 C   0  0  0  0  0  2  0  0  0  0  0  0
  189.5760  177.3850  144.8630 N   0  0  0  0  0  2  0  0  0  0  0  0
  192.1210  178.5450  144.7450 O   0  0  0  0  0  1  0  0  0  0  0  0
  191.8190  175.9510  144.7080 O   0  0  0  0  0  0  0  0  0  0  0  0
  191.2580  177.2130  145.3260 P   0  0  2  0  0  0  0  0  0  0  0  0
  192.7530  174.8510  146.5670 O   0  0  0  0  0  0  0  0  0  0  0  0
  191.4010  177.1620  147.1470 C   0  0  0  0  0  2  0  0  0  0  0  0
  192.2170  175.6540  147.7330 P   0  0  0  0  0  0  0  0  0  0  0  0
  190.5710  176.2230  147.6390 O   0  0  0  0  0  0  0  0  0  0  0  0
  193.3370  176.1290  149.0760 C   0  0  0  0  0 15  0  0  0  0  0  0
  1 10  1  0  0  0  0
  2 13  1  0  0  0  0
  3  1  2  0  0  0  0
  4  3  1  0  0  0  0
  5 26  1  6  0  0  0
  5  2  1  0  0  0  0
  6 41  1  0  0  0  0
  6 18  2  0  0  0  0
  7  9  2  0  0  0  0
  7 11  1  0  0  0  0
  8 40  1  0  0  0  0
  8  4  2  0  0  0  0
  9 12  1  0  0  0  0
 11  5  1  0  0  0  0
 11 15  2  0  0  0  0
 12  1  1  0  0  0  0
 12 14  2  0  0  0  0
 13  6  1  0  0  0  0
 15 14  1  0  0  0  0
 15 13  1  0  0  0  0
 16  4  1  0  0  0  0
 16  9  1  0  0  0  0
 17 16  2  0  0  0  0
 19  8  1  0  0  0  0
 20 19  2  0  0  0  0
 20 17  1  0  0  0  0
 21 17  1  0  0  0  0
 22 24  2  0  0  0  0
 22 25  1  0  0  0  0
 24 27  1  0  0  0  0
 25 26  2  0  0  0  0
 26 23  1  0  0  0  0
 27 23  2  0  0  0  0
 28 29  1  1  0  0  0
 28 24  1  0  0  0  0
 30 28  1  0  0  0  0
 30 32  1  0  0  0  0
 32 31  1  6  0  0  0
 32 38  1  0  0  0  0
 34 36  1  0  0  0  0
 36 33  1  0  0  0  0
 37 36  1  0  0  0  0
 37 35  2  0  0  0  0
 38 37  1  0  0  0  0
 39 40  1  0  0  0  0
 41 43  1  0  0  0  0
 43 42  1  1  0  0  0
 44 43  1  0  0  0  0
 45 48  1  0  0  0  0
 45 44  1  0  0  0  0
 46 48  1  0  0  0  0
 48 47  2  6  0  0  0
 48 50  1  0  0  0  0
 49 51  2  0  0  0  0
 50 52  1  0  0  0  0
 52 51  1  0  0  0  0
M  END
>  <MODEL>
8

>  <REMARK>
 VINA RESULT:      -6.6      4.008     10.140
  Name = 
  12 active torsions:
  status: ('A' for Active; 'I' for Inactive)
    1  A    between atoms: N_2  and  C_52
    2  A    between atoms: N_2  and  P_53
    3  A    between atoms: C_7  and  N_10
    4  A    between atoms: C_7  and  C_27
    5  A    between atoms: N_10  and  C_22
    6  A    between atoms: C_13  and  P_53
    7  A    between atoms: C_14  and  C_33
    8  A    between atoms: C_17  and  C_39
    9  A    between atoms: C_22  and  N_50
   10  A    between atoms: C_24  and  O_46
   11  A    between atoms: C_30  and  C_39
   12  A    between atoms: C_30  and  C_52
                            x       y       z     vdW  Elec       q    Type
                         _______ _______ _______ _____ _____    ______ ____

>  <TORSDO>
F 12

$$$$
=
 OpenBabel11032420333D

 53 56  0  0  1  0  0  0  0  0999 V2000
  189.8390  177.4720  140.7570 C   0  0  0  0  0  0  0  0  0  0  0  0
  183.9770  179.3560  140.9440 C   0  0  0  0  0  2  0  0  0  0  0  0
  190.7330  177.0730  139.7700 C   0  0  0  0  0  3  0  0  0  0  0  0
  190.3800  177.1000  138.4190 C   0  0  0  0  0  0  0  0  0  0  0  0
  184.4800  179.0780  139.5150 C   0  0  1  0  0  3  0  0  0  0  0  0
  185.0570  179.1780  143.2460 C   0  0  0  0  0  0  0  0  0  0  0  0
  186.8310  178.3450  138.7120 N   0  0  0  0  0  0  0  0  0  0  0  0
  191.3170  176.6980  137.4560 C   0  0  0  0  0  0  0  0  0  0  0  0
  188.1650  177.9300  139.0410 C   0  0  0  0  0  0  0  0  0  0  0  0
  190.2920  177.4310  142.1800 C   0  0  0  0  0  1  0  0  0  0  0  0
  185.9030  178.6900  139.7350 C   0  0  0  0  0  0  0  0  0  0  0  0
  188.5530  177.9050  140.4060 C   0  0  0  0  0  0  0  0  0  0  0  0
  185.1170  179.0790  141.8130 N   0  0  0  0  0  0  0  0  0  0  0  0
  187.6080  178.3740  141.4970 C   0  0  0  0  0  3  0  0  0  0  0  0
  186.2240  178.6930  141.0060 C   0  0  0  0  0  0  0  0  0  0  0  0
  189.0840  177.5340  138.0280 C   0  0  0  0  0  0  0  0  0  0  0  0
  188.7840  177.5460  136.6370 C   0  0  0  0  0  0  0  0  0  0  0  0
  183.9740  179.4970  143.8050 O   0  0  0  0  0  0  0  0  0  0  0  0
  190.9580  176.7370  136.1060 C   0  0  0  0  0  3  0  0  0  0  0  0
  189.7240  177.1520  135.7360 N   0  0  0  0  0  0  0  0  0  0  0  0
  187.4680  177.9840  136.0830 C   0  0  0  0  0  1  0  0  0  0  0  0
  182.7000  176.9150  136.9290 C   0  0  0  0  0  3  0  0  0  0  0  0
  183.2200  176.9290  139.6760 C   0  0  0  0  0  3  0  0  0  0  0  0
  182.2260  175.8700  137.7340 C   0  0  0  0  0  0  0  0  0  0  0  0
  183.4350  177.9590  137.4950 C   0  0  0  0  0  3  0  0  0  0  0  0
  183.7060  177.9650  138.8730 C   0  0  0  0  0  0  0  0  0  0  0  0
  182.4830  175.8860  139.1080 C   0  0  0  0  0  3  0  0  0  0  0  0
  181.4400  174.7400  137.1490 C   0  0  1  0  0  3  0  0  0  0  0  0
  181.0170  173.7650  138.2320 C   0  0  0  0  0  1  0  0  0  0  0  0
  180.2680  175.2450  136.4480 N   0  0  0  0  0  2  0  0  0  0  0  0
  178.9310  177.2400  136.1580 C   0  0  0  0  0  1  0  0  0  0  0  0
  179.8670  176.4930  137.0830 C   0  0  1  0  0  3  0  0  0  0  0  0
  180.2810  178.9310  140.7750 C   0  0  0  0  0  1  0  0  0  0  0  0
  179.7470  179.1530  138.3600 C   0  0  0  0  0  1  0  0  0  0  0  0
  179.0560  176.4080  140.6390 O   0  0  0  0  0  0  0  0  0  0  0  0
  179.8520  178.3060  139.5370 N   0  0  0  0  0  0  0  0  0  0  0  0
  179.3570  176.9550  139.5450 C   0  0  0  0  0  0  0  0  0  0  0  0
  179.1770  176.2100  138.3350 N   0  0  0  0  0  2  0  0  0  0  0  0
  193.7020  176.2330  136.9680 C   0  0  0  0  0  1  0  0  0  0  0  0
  192.5900  176.2650  137.8530 O   0  0  0  0  0  0  0  0  0  0  0  0
  186.2420  178.8850  144.1060 C   0  0  0  0  0  2  0  0  0  0  0  0
  187.1180  176.5860  143.7270 C   0  0  0  0  0  1  0  0  0  0  0  0
  186.2200  177.4420  144.5970 C   0  0  1  0  0  3  0  0  0  0  0  0
  186.6240  177.3250  146.0640 C   0  0  0  0  0  2  0  0  0  0  0  0
  187.5980  178.3470  146.4240 N   0  0  0  0  0  2  0  0  0  0  0  0
  188.4360  176.1960  148.0090 O   0  0  0  0  0  0  0  0  0  0  0  0
  189.6980  178.4820  148.0630 O   0  0  0  0  0  1  0  0  0  0  0  0
  188.9820  177.5320  147.1290 P   0  0  2  0  0  0  0  0  0  0  0  0
  191.6450  176.2870  147.9720 O   0  0  0  0  0  0  0  0  0  0  0  0
  190.1040  176.9530  145.8080 C   0  0  0  0  0  2  0  0  0  0  0  0
  191.6800  176.3410  146.4610 P   0  0  0  0  0  0  0  0  0  0  0  0
  191.1370  177.8070  145.6870 O   0  0  0  0  0  0  0  0  0  0  0  0
  192.1120  174.8490  145.5260 C   0  0  0  0  0 15  0  0  0  0  0  0
  1 10  1  0  0  0  0
  2 13  1  0  0  0  0
  3  1  2  0  0  0  0
  4  3  1  0  0  0  0
  5 26  1  1  0  0  0
  5 11  1  0  0  0  0
  5  2  1  0  0  0  0
  6 18  2  0  0  0  0
  6 41  1  0  0  0  0
  7  9  2  0  0  0  0
  7 11  1  0  0  0  0
  8 40  1  0  0  0  0
  8  4  2  0  0  0  0
  9 12  1  0  0  0  0
 11 15  2  0  0  0  0
 12  1  1  0  0  0  0
 12 14  2  0  0  0  0
 13  6  1  0  0  0  0
 15 14  1  0  0  0  0
 15 13  1  0  0  0  0
 16  4  1  0  0  0  0
 16  9  1  0  0  0  0
 17 16  2  0  0  0  0
 19  8  1  0  0  0  0
 20 19  2  0  0  0  0
 20 17  1  0  0  0  0
 21 17  1  0  0  0  0
 22 25  2  0  0  0  0
 22 24  1  0  0  0  0
 24 27  2  0  0  0  0
 25 26  1  0  0  0  0
 26 23  2  0  0  0  0
 27 23  1  0  0  0  0
 28 24  1  0  0  0  0
 28 29  1  1  0  0  0
 30 32  1  0  0  0  0
 30 28  1  0  0  0  0
 32 31  1  6  0  0  0
 32 38  1  0  0  0  0
 34 36  1  0  0  0  0
 36 37  1  0  0  0  0
 36 33  1  0  0  0  0
 37 35  2  0  0  0  0
 38 37  1  0  0  0  0
 39 40  1  0  0  0  0
 41 43  1  0  0  0  0
 43 42  1  6  0  0  0
 43 44  1  0  0  0  0
 44 45  1  0  0  0  0
 45 48  1  0  0  0  0
 48 46  2  1  0  0  0
 48 47  1  0  0  0  0
 50 48  1  0  0  0  0
 51 49  2  0  0  0  0
 52 50  1  0  0  0  0
 52 51  1  0  0  0  0
M  END
>  <MODEL>
9

>  <REMARK>
 VINA RESULT:      -6.3      3.845      9.664
  Name = 
  12 active torsions:
  status: ('A' for Active; 'I' for Inactive)
    1  A    between atoms: N_2  and  C_52
    2  A    between atoms: N_2  and  P_53
    3  A    between atoms: C_7  and  N_10
    4  A    between atoms: C_7  and  C_27
    5  A    between atoms: N_10  and  C_22
    6  A    between atoms: C_13  and  P_53
    7  A    between atoms: C_14  and  C_33
    8  A    between atoms: C_17  and  C_39
    9  A    between atoms: C_22  and  N_50
   10  A    between atoms: C_24  and  O_46
   11  A    between atoms: C_30  and  C_39
   12  A    between atoms: C_30  and  C_52
                            x       y       z     vdW  Elec       q    Type
                         _______ _______ _______ _____ _____    ______ ____

>  <TORSDO>
F 12

$$$$
