=
 OpenBabel11042413163D

 61 65  0  0  1  0  0  0  0  0999 V2000
  186.7610  178.5030  139.4070 N   0  0  0  0  0  0  0  0  0  0  0  0
  185.4690  178.6450  139.4240 C   0  0  0  0  0  0  0  0  0  0  0  0
  189.7170  173.9590  135.8590 O   0  0  0  0  0  0  0  0  0  0  0  0
  189.5340  176.7640  136.7320 C   0  0  0  0  0  0  0  0  0  0  0  0
  190.6890  176.0600  136.2590 N   0  0  0  0  0  2  0  0  0  0  0  0
  187.4120  176.6830  137.9990 C   0  0  0  0  0  3  0  0  0  0  0  0
  187.5750  177.9630  138.3500 C   0  0  0  0  0  0  0  0  0  0  0  0
  190.7470  174.6900  135.8470 C   0  0  0  0  0  0  0  0  0  0  0  0
  188.5210  178.8120  137.5430 C   0  0  0  0  0  2  0  0  0  0  0  0
  189.6580  178.0140  137.0730 N   0  0  0  0  0  0  0  0  0  0  0  0
  188.1870  176.0960  136.8520 C   0  0  0  0  0  2  0  0  0  0  0  0
  193.1880  175.0350  135.8440 C   0  0  0  0  0  2  0  0  0  0  0  0
  193.6880  172.7900  136.4830 C   0  0  0  0  0  2  0  0  0  0  0  0
  192.2850  172.8210  136.0740 N   0  0  0  0  0  2  0  0  0  0  0  0
  192.0630  174.1170  135.4390 C   0  0  1  0  0  3  0  0  0  0  0  0
  194.3370  174.1010  136.0900 C   0  0  0  0  0  2  0  0  0  0  0  0
  184.8330  179.2090  140.6500 C   0  0  0  0  0  2  0  0  0  0  0  0
  184.6610  178.1970  141.5940 O   0  0  0  0  0  0  0  0  0  0  0  0
  185.3870  178.6160  142.7180 C   0  0  2  0  0  3  0  0  0  0  0  0
  186.4940  177.3240  144.4390 O   0  0  0  0  0  1  0  0  0  0  0  0
  186.4810  177.5970  143.0690 C   0  0  2  0  0  3  0  0  0  0  0  0
  187.8500  178.0720  142.6030 C   0  0  0  0  0  2  0  0  0  0  0  0
  188.6760  176.9400  142.2110 N   0  0  0  0  0  2  0  0  0  0  0  0
  190.6070  175.6670  142.3770 O   0  0  0  0  0  0  0  0  0  0  0  0
  190.0000  176.7200  142.7040 C   0  0  0  0  0  0  0  0  0  0  0  0
  190.6640  177.7080  143.6070 C   0  0  0  0  0  2  0  0  0  0  0  0
  191.3900  176.5430  147.3380 P   0  0  1  0  0  0  0  0  0  0  0  0
  189.5000  176.9970  145.6240 N   0  0  0  0  0  0  0  0  0  0  0  0
  191.8940  177.6160  148.5470 O   0  0  0  0  0  1  0  0  0  0  0  0
  190.6270  177.2540  145.0280 C   0  0  0  0  0  0  0  0  0  0  0  0
  189.6100  176.5610  147.0160 C   0  0  2  0  0  3  0  0  0  0  0  0
  191.7820  177.1010  145.7840 O   0  0  0  0  0  0  0  0  0  0  0  0
  191.9120  175.1400  147.5700 O   0  0  0  0  0  0  0  0  0  0  0  0
  189.1070  178.8950  147.7780 O   0  0  0  0  0  0  0  0  0  0  0  0
  188.1460  177.0970  148.8190 O   0  0  0  0  0  1  0  0  0  0  0  0
  188.9120  177.5280  147.9180 C   0  0  0  0  0  0  0  0  0  0  0  0
  184.3960  180.3380  144.0630 O   0  0  0  0  0  1  0  0  0  0  0  0
  184.4560  178.9530  143.8890 C   0  0  1  0  0  3  0  0  0  0  0  0
  183.0520  178.3940  143.6950 C   0  0  0  0  0  2  0  0  0  0  0  0
  182.1360  179.4450  143.6190 O   0  0  0  0  0  0  0  0  0  0  0  0
  179.8720  178.8080  144.0480 C   0  0  0  0  0  1  0  0  0  0  0  0
  180.9980  178.8880  143.0290 C   0  0  0  0  0  2  0  0  0  0  0  0
  184.6090  178.3550  138.2320 C   0  0  0  0  0  2  0  0  0  0  0  0
  183.2000  178.8760  138.4390 C   0  0  0  0  0  2  0  0  0  0  0  0
  182.2020  177.8590  137.9160 C   0  0  0  0  0  2  0  0  0  0  0  0
  181.1980  177.4990  138.9960 C   0  0  0  0  0  2  0  0  0  0  0  0
  180.2650  176.4110  138.4880 C   0  0  0  0  0  2  0  0  0  0  0  0
  180.9320  175.0500  138.6030 C   0  0  1  0  0  3  0  0  0  0  0  0
  181.8730  173.5440  137.1880 C   0  0  2  0  0  3  0  0  0  0  0  0
  179.9140  173.9820  138.4500 C   0  0  0  0  0  0  0  0  0  0  0  0
  180.1550  172.9490  137.0490 S   0  0  0  0  0  0  0  0  0  0  0  0
  181.8840  174.9010  137.5750 O   0  0  0  0  0  0  0  0  0  0  0  0
  179.0800  173.7400  139.3050 O   0  0  0  0  0  0  0  0  0  0  0  0
  184.8490  172.8050  135.0060 C   0  0  0  0  0  2  0  0  0  0  0  0
  185.3630  174.2490  134.9730 C   0  0  0  0  0  2  0  0  0  0  0  0
  184.2960  175.2470  135.4450 C   0  0  0  0  0  2  0  0  0  0  0  0
  182.8850  174.7170  135.2000 C   0  0  0  0  0  2  0  0  0  0  0  0
  183.9280  172.6040  136.1250 N   0  0  0  0  0  0  0  0  0  0  0  0
  182.6740  173.3540  135.8920 C   0  0  1  0  0  3  0  0  0  0  0  0
  184.7260  170.4450  135.7620 O   0  0  0  0  0  1  0  0  0  0  0  0
  183.5980  171.1870  136.1150 C   0  0  0  0  0  2  0  0  0  0  0  0
  1  2  2  0  0  0  0
  2 17  1  0  0  0  0
  4 11  1  0  0  0  0
  4 10  2  0  0  0  0
  5  4  1  0  0  0  0
  6  7  2  0  0  0  0
  7  1  1  0  0  0  0
  8  3  2  0  0  0  0
  8  5  1  0  0  0  0
  9  7  1  0  0  0  0
 10  9  1  0  0  0  0
 11  6  1  0  0  0  0
 12 16  1  0  0  0  0
 14 13  1  0  0  0  0
 15 12  1  0  0  0  0
 15  8  1  1  0  0  0
 15 14  1  0  0  0  0
 16 13  1  0  0  0  0
 17 18  1  0  0  0  0
 19 18  1  6  0  0  0
 19 21  1  0  0  0  0
 19 38  1  0  0  0  0
 21 20  1  1  0  0  0
 22 21  1  0  0  0  0
 23 22  1  0  0  0  0
 23 25  1  0  0  0  0
 24 25  2  0  0  0  0
 25 26  1  0  0  0  0
 26 30  1  0  0  0  0
 27 33  2  1  0  0  0
 27 29  1  0  0  0  0
 28 31  1  0  0  0  0
 30 28  2  0  0  0  0
 30 32  1  0  0  0  0
 31 27  1  0  0  0  0
 31 36  1  1  0  0  0
 32 27  1  0  0  0  0
 34 36  2  0  0  0  0
 36 35  1  0  0  0  0
 38 37  1  6  0  0  0
 39 38  1  0  0  0  0
 40 39  1  0  0  0  0
 42 40  1  0  0  0  0
 42 41  1  0  0  0  0
 43 44  1  0  0  0  0
 43  2  1  0  0  0  0
 45 44  1  0  0  0  0
 45 46  1  0  0  0  0
 47 46  1  0  0  0  0
 48 47  1  6  0  0  0
 49 51  1  6  0  0  0
 49 52  1  0  0  0  0
 50 48  1  0  0  0  0
 50 53  2  0  0  0  0
 51 50  1  0  0  0  0
 52 48  1  0  0  0  0
 54 58  1  0  0  0  0
 55 54  1  0  0  0  0
 55 56  1  0  0  0  0
 57 56  1  0  0  0  0
 59 57  1  1  0  0  0
 59 58  1  0  0  0  0
 59 49  1  0  0  0  0
 60 61  1  0  0  0  0
 61 58  1  0  0  0  0
M  END
>  <MODEL>
1

>  <REMARK>
 VINA RESULT:      -6.5      0.000      0.000
  Name = 
  23 active torsions:
  status: ('A' for Active; 'I' for Inactive)
    1  A    between atoms: N_3  and  C_24
    2  A    between atoms: C_4  and  C_54
    3  A    between atoms: N_6  and  C_28
    4  A    between atoms: C_9  and  C_46
    5  A    between atoms: C_11  and  C_47
    6  A    between atoms: C_11  and  C_60
    7  A    between atoms: C_12  and  O_32
    8  A    between atoms: C_12  and  C_39
    9  A    between atoms: C_19  and  C_45
   10  A    between atoms: C_19  and  C_47
   11  A    between atoms: C_20  and  C_38
   12  A    between atoms: C_20  and  C_55
   13  A    between atoms: C_21  and  N_40
   14  A    between atoms: C_23  and  O_32
   15  A    between atoms: C_24  and  C_36
   16  A    between atoms: O_25  and  C_31
   17  A    between atoms: O_25  and  C_42
   18  A    between atoms: C_31  and  C_36
   19  A    between atoms: C_31  and  C_39
   20  A    between atoms: C_34  and  C_58
   21  A    between atoms: C_42  and  C_45
   22  A    between atoms: C_48  and  C_61
   23  A    between atoms: C_54  and  C_60
                            x       y       z     vdW  Elec       q    Type
                         _______ _______ _______ _____ _____    ______ ____

>  <TORSDO>
F 23

$$$$
=
 OpenBabel11042413163D

 61 65  0  0  1  0  0  0  0  0999 V2000
  186.7410  178.4970  139.4260 N   0  0  0  0  0  0  0  0  0  0  0  0
  185.4670  178.4710  139.1680 C   0  0  0  0  0  0  0  0  0  0  0  0
  191.5990  174.4540  138.0050 O   0  0  0  0  0  0  0  0  0  0  0  0
  190.2440  177.0310  137.5700 C   0  0  0  0  0  0  0  0  0  0  0  0
  191.6250  176.7130  137.3620 N   0  0  0  0  0  2  0  0  0  0  0  0
  188.1970  176.6730  138.9120 C   0  0  0  0  0  3  0  0  0  0  0  0
  187.8090  177.9260  138.6510 C   0  0  0  0  0  0  0  0  0  0  0  0
  192.2570  175.4490  137.5900 C   0  0  0  0  0  0  0  0  0  0  0  0
  188.4310  178.6390  137.4790 C   0  0  0  0  0  2  0  0  0  0  0  0
  189.8330  178.2400  137.3170 N   0  0  0  0  0  0  0  0  0  0  0  0
  189.2590  176.0080  138.0800 C   0  0  0  0  0  2  0  0  0  0  0  0
  194.0780  173.9540  136.8620 C   0  0  0  0  0  2  0  0  0  0  0  0
  195.1580  175.6180  135.5350 C   0  0  0  0  0  2  0  0  0  0  0  0
  194.1870  176.3050  136.3850 N   0  0  0  0  0  2  0  0  0  0  0  0
  193.7280  175.3300  137.3690 C   0  0  1  0  0  3  0  0  0  0  0  0
  195.2930  174.1870  136.0120 C   0  0  0  0  0  2  0  0  0  0  0  0
  184.5330  179.1130  140.1370 C   0  0  0  0  0  2  0  0  0  0  0  0
  184.1370  178.1780  141.0930 O   0  0  0  0  0  0  0  0  0  0  0  0
  183.5860  178.9320  142.1380 C   0  0  2  0  0  3  0  0  0  0  0  0
  184.2500  179.9710  144.2210 O   0  0  0  0  0  1  0  0  0  0  0  0
  184.4900  178.8820  143.3790 C   0  0  2  0  0  3  0  0  0  0  0  0
  185.9600  178.8160  142.9910 C   0  0  0  0  0  2  0  0  0  0  0  0
  186.3930  177.4330  142.8640 N   0  0  0  0  0  2  0  0  0  0  0  0
  187.9910  175.7660  143.0750 O   0  0  0  0  0  0  0  0  0  0  0  0
  187.7290  176.9960  143.1270 C   0  0  0  0  0  0  0  0  0  0  0  0
  188.8080  177.9700  143.4730 C   0  0  0  0  0  2  0  0  0  0  0  0
  189.3440  177.3410  147.3620 P   0  0  1  0  0  0  0  0  0  0  0  0
  190.5840  177.7520  145.1240 N   0  0  0  0  0  0  0  0  0  0  0  0
  189.1000  175.8280  148.0830 O   0  0  0  0  0  0  0  0  0  0  0  0
  189.3110  177.7500  144.8610 C   0  0  0  0  0  0  0  0  0  0  0  0
  190.9370  177.5240  146.5260 C   0  0  2  0  0  3  0  0  0  0  0  0
  188.4530  177.5160  145.9280 O   0  0  0  0  0  0  0  0  0  0  0  0
  189.0720  178.4790  148.3240 O   0  0  0  0  0  1  0  0  0  0  0  0
  192.2200  175.8640  147.8980 O   0  0  0  0  0  1  0  0  0  0  0  0
  192.0370  175.6080  145.6300 O   0  0  0  0  0  0  0  0  0  0  0  0
  191.7570  176.2800  146.6570 C   0  0  0  0  0  0  0  0  0  0  0  0
  181.6200  179.2890  143.4670 O   0  0  0  0  0  1  0  0  0  0  0  0
  182.1330  178.5270  142.4140 C   0  0  1  0  0  3  0  0  0  0  0  0
  181.2450  178.6770  141.1860 C   0  0  0  0  0  2  0  0  0  0  0  0
  180.0210  179.2370  141.5580 O   0  0  0  0  0  0  0  0  0  0  0  0
  179.8800  179.2690  139.1710 C   0  0  0  0  0  1  0  0  0  0  0  0
  179.6410  180.0260  140.4690 C   0  0  0  0  0  2  0  0  0  0  0  0
  184.9120  177.9080  137.8940 C   0  0  0  0  0  2  0  0  0  0  0  0
  183.4840  178.3660  137.6750 C   0  0  0  0  0  2  0  0  0  0  0  0
  182.6200  177.1720  137.3120 C   0  0  0  0  0  2  0  0  0  0  0  0
  182.5400  176.2020  138.4770 C   0  0  0  0  0  2  0  0  0  0  0  0
  181.1120  175.7030  138.6320 C   0  0  0  0  0  2  0  0  0  0  0  0
  180.9530  174.3480  137.9600 C   0  0  1  0  0  3  0  0  0  0  0  0
  182.0520  173.1470  136.3770 C   0  0  2  0  0  3  0  0  0  0  0  0
  180.1340  174.4960  136.7310 C   0  0  0  0  0  0  0  0  0  0  0  0
  180.9820  174.0960  135.2450 S   0  0  0  0  0  0  0  0  0  0  0  0
  182.2180  173.8520  137.5880 O   0  0  0  0  0  0  0  0  0  0  0  0
  178.9360  174.7180  136.7610 O   0  0  0  0  0  0  0  0  0  0  0  0
  185.6140  171.9390  136.2470 C   0  0  0  0  0  2  0  0  0  0  0  0
  186.2360  173.2920  136.6100 C   0  0  0  0  0  2  0  0  0  0  0  0
  185.2330  174.4440  136.4500 C   0  0  0  0  0  2  0  0  0  0  0  0
  184.1660  174.1190  135.4090 C   0  0  0  0  0  2  0  0  0  0  0  0
  184.2000  171.8980  136.6220 N   0  0  0  0  0  0  0  0  0  0  0  0
  183.4190  172.8160  135.7640 C   0  0  1  0  0  3  0  0  0  0  0  0
  184.5640  169.9850  135.3410 O   0  0  0  0  0  1  0  0  0  0  0  0
  183.7540  170.5440  136.3320 C   0  0  0  0  0  2  0  0  0  0  0  0
  2  1  2  0  0  0  0
  2 17  1  0  0  0  0
  4 11  1  0  0  0  0
  5  4  1  0  0  0  0
  5  8  1  0  0  0  0
  7  6  2  0  0  0  0
  7  1  1  0  0  0  0
  8  3  2  0  0  0  0
  9  7  1  0  0  0  0
 10  9  1  0  0  0  0
 10  4  2  0  0  0  0
 11  6  1  0  0  0  0
 12 15  1  0  0  0  0
 13 16  1  0  0  0  0
 13 14  1  0  0  0  0
 14 15  1  0  0  0  0
 15  8  1  6  0  0  0
 16 12  1  0  0  0  0
 17 18  1  0  0  0  0
 19 18  1  6  0  0  0
 19 38  1  0  0  0  0
 19 21  1  0  0  0  0
 21 20  1  1  0  0  0
 22 21  1  0  0  0  0
 23 22  1  0  0  0  0
 23 25  1  0  0  0  0
 24 25  2  0  0  0  0
 25 26  1  0  0  0  0
 26 30  1  0  0  0  0
 27 29  2  1  0  0  0
 27 33  1  0  0  0  0
 28 31  1  0  0  0  0
 30 28  2  0  0  0  0
 30 32  1  0  0  0  0
 31 36  1  6  0  0  0
 31 27  1  0  0  0  0
 32 27  1  0  0  0  0
 35 36  2  0  0  0  0
 36 34  1  0  0  0  0
 38 37  1  1  0  0  0
 39 40  1  0  0  0  0
 39 38  1  0  0  0  0
 41 42  1  0  0  0  0
 42 40  1  0  0  0  0
 43  2  1  0  0  0  0
 44 43  1  0  0  0  0
 45 44  1  0  0  0  0
 45 46  1  0  0  0  0
 46 47  1  0  0  0  0
 48 47  1  6  0  0  0
 49 51  1  6  0  0  0
 49 52  1  0  0  0  0
 50 53  2  0  0  0  0
 50 48  1  0  0  0  0
 51 50  1  0  0  0  0
 52 48  1  0  0  0  0
 54 55  1  0  0  0  0
 54 58  1  0  0  0  0
 56 55  1  0  0  0  0
 57 56  1  0  0  0  0
 59 57  1  1  0  0  0
 59 49  1  0  0  0  0
 59 58  1  0  0  0  0
 60 61  1  0  0  0  0
 61 58  1  0  0  0  0
M  END
>  <MODEL>
2

>  <REMARK>
 VINA RESULT:      -6.2      1.600      2.331
  Name = 
  23 active torsions:
  status: ('A' for Active; 'I' for Inactive)
    1  A    between atoms: N_3  and  C_24
    2  A    between atoms: C_4  and  C_54
    3  A    between atoms: N_6  and  C_28
    4  A    between atoms: C_9  and  C_46
    5  A    between atoms: C_11  and  C_47
    6  A    between atoms: C_11  and  C_60
    7  A    between atoms: C_12  and  O_32
    8  A    between atoms: C_12  and  C_39
    9  A    between atoms: C_19  and  C_45
   10  A    between atoms: C_19  and  C_47
   11  A    between atoms: C_20  and  C_38
   12  A    between atoms: C_20  and  C_55
   13  A    between atoms: C_21  and  N_40
   14  A    between atoms: C_23  and  O_32
   15  A    between atoms: C_24  and  C_36
   16  A    between atoms: O_25  and  C_31
   17  A    between atoms: O_25  and  C_42
   18  A    between atoms: C_31  and  C_36
   19  A    between atoms: C_31  and  C_39
   20  A    between atoms: C_34  and  C_58
   21  A    between atoms: C_42  and  C_45
   22  A    between atoms: C_48  and  C_61
   23  A    between atoms: C_54  and  C_60
                            x       y       z     vdW  Elec       q    Type
                         _______ _______ _______ _____ _____    ______ ____

>  <TORSDO>
F 23

$$$$
=
 OpenBabel11042413163D

 61 65  0  0  1  0  0  0  0  0999 V2000
  185.0160  178.9580  138.0560 N   0  0  0  0  0  0  0  0  0  0  0  0
  184.3010  179.1630  139.1210 C   0  0  0  0  0  0  0  0  0  0  0  0
  190.9930  176.5300  137.4590 O   0  0  0  0  0  0  0  0  0  0  0  0
  188.1040  176.2930  136.9450 C   0  0  0  0  0  0  0  0  0  0  0  0
  189.1840  175.7200  136.1980 N   0  0  0  0  0  2  0  0  0  0  0  0
  187.2700  178.1970  138.2860 C   0  0  0  0  0  3  0  0  0  0  0  0
  186.0290  177.9560  137.8530 C   0  0  0  0  0  0  0  0  0  0  0  0
  190.5830  175.8600  136.4710 C   0  0  0  0  0  0  0  0  0  0  0  0
  185.7220  176.5990  137.2770 C   0  0  0  0  0  2  0  0  0  0  0  0
  186.8820  176.0700  136.5540 N   0  0  0  0  0  0  0  0  0  0  0  0
  188.3440  177.1510  138.1620 C   0  0  0  0  0  2  0  0  0  0  0  0
  192.9450  175.7870  135.7700 C   0  0  0  0  0  2  0  0  0  0  0  0
  193.0250  173.4040  135.6530 C   0  0  0  0  0  2  0  0  0  0  0  0
  191.6170  173.7870  135.7350 N   0  0  0  0  0  2  0  0  0  0  0  0
  191.5630  175.2320  135.5370 C   0  0  1  0  0  3  0  0  0  0  0  0
  193.8520  174.6480  135.4020 C   0  0  0  0  0  2  0  0  0  0  0  0
  183.3200  180.2870  139.1120 C   0  0  0  0  0  2  0  0  0  0  0  0
  182.3890  180.0860  138.0930 O   0  0  0  0  0  0  0  0  0  0  0  0
  181.2100  179.7000  138.7440 C   0  0  2  0  0  3  0  0  0  0  0  0
  180.5560  178.3400  136.8510 O   0  0  0  0  0  1  0  0  0  0  0  0
  180.7330  178.3310  138.2370 C   0  0  2  0  0  3  0  0  0  0  0  0
  179.4540  177.8940  138.9390 C   0  0  0  0  0  2  0  0  0  0  0  0
  179.7420  176.8760  139.9370 N   0  0  0  0  0  2  0  0  0  0  0  0
  179.9730  174.6620  140.5870 O   0  0  0  0  0  0  0  0  0  0  0  0
  179.6190  175.4730  139.6910 C   0  0  0  0  0  0  0  0  0  0  0  0
  179.0920  174.9570  138.3920 C   0  0  0  0  0  2  0  0  0  0  0  0
  182.4810  174.4390  136.3800 P   0  0  1  0  0  0  0  0  0  0  0  0
  180.0220  173.6410  136.5670 N   0  0  0  0  0  0  0  0  0  0  0  0
  183.8220  173.6440  137.0420 O   0  0  0  0  0  1  0  0  0  0  0  0
  180.2010  174.5480  137.4820 C   0  0  0  0  0  0  0  0  0  0  0  0
  181.1950  173.3370  135.7460 C   0  0  2  0  0  3  0  0  0  0  0  0
  181.4740  175.0970  137.5770 O   0  0  0  0  0  0  0  0  0  0  0  0
  182.8860  175.4850  135.3620 O   0  0  0  0  0  0  0  0  0  0  0  0
  181.9060  171.3990  137.1680 O   0  0  0  0  0  1  0  0  0  0  0  0
  181.6350  171.1490  134.9080 O   0  0  0  0  0  0  0  0  0  0  0  0
  181.5860  171.9040  135.9150 C   0  0  0  0  0  0  0  0  0  0  0  0
  180.0350  181.4480  139.8930 O   0  0  0  0  0  1  0  0  0  0  0  0
  180.1410  180.7960  138.6610 C   0  0  1  0  0  3  0  0  0  0  0  0
  180.4330  181.8110  137.5630 C   0  0  0  0  0  2  0  0  0  0  0  0
  180.1300  183.0950  138.0180 O   0  0  0  0  0  0  0  0  0  0  0  0
  180.8330  183.5140  135.7720 C   0  0  0  0  0  1  0  0  0  0  0  0
  180.9040  183.9490  137.2280 C   0  0  0  0  0  2  0  0  0  0  0  0
  184.3530  178.2600  140.3160 C   0  0  0  0  0  2  0  0  0  0  0  0
  184.2980  179.0580  141.6040 C   0  0  0  0  0  2  0  0  0  0  0  0
  185.6970  179.1890  142.1790 C   0  0  0  0  0  2  0  0  0  0  0  0
  186.4220  177.8570  142.1160 C   0  0  0  0  0  2  0  0  0  0  0  0
  187.8420  178.0700  141.6140 C   0  0  0  0  0  2  0  0  0  0  0  0
  188.8130  177.2030  142.4000 C   0  0  1  0  0  3  0  0  0  0  0  0
  189.9060  177.3280  144.3860 C   0  0  2  0  0  3  0  0  0  0  0  0
  190.2060  177.5700  142.0470 C   0  0  0  0  0  0  0  0  0  0  0  0
  191.1450  178.2150  143.3850 S   0  0  0  0  0  0  0  0  0  0  0  0
  188.6350  177.4260  143.7800 O   0  0  0  0  0  0  0  0  0  0  0  0
  190.7040  177.2990  140.9680 O   0  0  0  0  0  0  0  0  0  0  0  0
  189.7230  177.1300  148.1400 C   0  0  0  0  0  2  0  0  0  0  0  0
  188.1920  177.1060  148.2070 C   0  0  0  0  0  2  0  0  0  0  0  0
  187.5550  177.5520  146.8830 C   0  0  0  0  0  2  0  0  0  0  0  0
  188.4750  178.4900  146.1050 C   0  0  0  0  0  2  0  0  0  0  0  0
  190.1930  176.7680  146.8030 N   0  0  0  0  0  0  0  0  0  0  0  0
  189.8440  177.8310  145.8350 C   0  0  1  0  0  3  0  0  0  0  0  0
  192.1230  175.6230  146.1750 O   0  0  0  0  0  1  0  0  0  0  0  0
  191.6440  176.7200  146.8930 C   0  0  0  0  0  2  0  0  0  0  0  0
  1  2  2  0  0  0  0
  2 43  1  0  0  0  0
  4 11  1  0  0  0  0
  5  8  1  0  0  0  0
  5  4  1  0  0  0  0
  7  1  1  0  0  0  0
  7  6  2  0  0  0  0
  8  3  2  0  0  0  0
  9  7  1  0  0  0  0
 10  4  2  0  0  0  0
 10  9  1  0  0  0  0
 11  6  1  0  0  0  0
 13 14  1  0  0  0  0
 15 14  1  0  0  0  0
 15 12  1  0  0  0  0
 15  8  1  1  0  0  0
 16 13  1  0  0  0  0
 16 12  1  0  0  0  0
 17  2  1  0  0  0  0
 18 17  1  0  0  0  0
 19 18  1  6  0  0  0
 21 20  1  6  0  0  0
 21 19  1  0  0  0  0
 21 22  1  0  0  0  0
 22 23  1  0  0  0  0
 25 23  1  0  0  0  0
 25 24  2  0  0  0  0
 26 25  1  0  0  0  0
 27 33  2  6  0  0  0
 27 29  1  0  0  0  0
 27 32  1  0  0  0  0
 28 30  2  0  0  0  0
 30 32  1  0  0  0  0
 30 26  1  0  0  0  0
 31 36  1  1  0  0  0
 31 27  1  0  0  0  0
 31 28  1  0  0  0  0
 35 36  2  0  0  0  0
 36 34  1  0  0  0  0
 38 19  1  0  0  0  0
 38 37  1  1  0  0  0
 39 40  1  0  0  0  0
 39 38  1  0  0  0  0
 41 42  1  0  0  0  0
 42 40  1  0  0  0  0
 43 44  1  0  0  0  0
 44 45  1  0  0  0  0
 46 45  1  0  0  0  0
 47 46  1  0  0  0  0
 48 47  1  6  0  0  0
 48 52  1  0  0  0  0
 49 51  1  6  0  0  0
 49 59  1  0  0  0  0
 50 48  1  0  0  0  0
 50 51  1  0  0  0  0
 52 49  1  0  0  0  0
 53 50  2  0  0  0  0
 54 55  1  0  0  0  0
 56 55  1  0  0  0  0
 57 56  1  0  0  0  0
 58 61  1  0  0  0  0
 58 54  1  0  0  0  0
 59 57  1  1  0  0  0
 59 58  1  0  0  0  0
 60 61  1  0  0  0  0
M  END
>  <MODEL>
3

>  <REMARK>
 VINA RESULT:      -6.1      3.632      9.658
  Name = 
  23 active torsions:
  status: ('A' for Active; 'I' for Inactive)
    1  A    between atoms: N_3  and  C_24
    2  A    between atoms: C_4  and  C_54
    3  A    between atoms: N_6  and  C_28
    4  A    between atoms: C_9  and  C_46
    5  A    between atoms: C_11  and  C_47
    6  A    between atoms: C_11  and  C_60
    7  A    between atoms: C_12  and  O_32
    8  A    between atoms: C_12  and  C_39
    9  A    between atoms: C_19  and  C_45
   10  A    between atoms: C_19  and  C_47
   11  A    between atoms: C_20  and  C_38
   12  A    between atoms: C_20  and  C_55
   13  A    between atoms: C_21  and  N_40
   14  A    between atoms: C_23  and  O_32
   15  A    between atoms: C_24  and  C_36
   16  A    between atoms: O_25  and  C_31
   17  A    between atoms: O_25  and  C_42
   18  A    between atoms: C_31  and  C_36
   19  A    between atoms: C_31  and  C_39
   20  A    between atoms: C_34  and  C_58
   21  A    between atoms: C_42  and  C_45
   22  A    between atoms: C_48  and  C_61
   23  A    between atoms: C_54  and  C_60
                            x       y       z     vdW  Elec       q    Type
                         _______ _______ _______ _____ _____    ______ ____

>  <TORSDO>
F 23

$$$$
=
 OpenBabel11042413163D

 61 65  0  0  1  0  0  0  0  0999 V2000
  186.6600  178.4990  139.7110 N   0  0  0  0  0  0  0  0  0  0  0  0
  185.3940  178.7920  139.7130 C   0  0  0  0  0  0  0  0  0  0  0  0
  189.0180  174.3670  135.3140 O   0  0  0  0  0  0  0  0  0  0  0  0
  189.3070  176.8600  136.8520 C   0  0  0  0  0  0  0  0  0  0  0  0
  190.3410  176.0470  136.2860 N   0  0  0  0  0  2  0  0  0  0  0  0
  187.0840  176.9600  137.9320 C   0  0  0  0  0  3  0  0  0  0  0  0
  187.4610  178.0540  138.6030 C   0  0  0  0  0  0  0  0  0  0  0  0
  190.1680  174.8340  135.5460 C   0  0  0  0  0  0  0  0  0  0  0  0
  188.6420  178.8360  138.0920 C   0  0  0  0  0  2  0  0  0  0  0  0
  189.6400  177.9370  137.5040 N   0  0  0  0  0  0  0  0  0  0  0  0
  187.8480  176.5000  136.7210 C   0  0  0  0  0  2  0  0  0  0  0  0
  192.6160  174.6260  135.7650 C   0  0  0  0  0  2  0  0  0  0  0  0
  192.5860  172.2410  135.8620 C   0  0  0  0  0  2  0  0  0  0  0  0
  191.2700  172.6720  135.3950 N   0  0  0  0  0  2  0  0  0  0  0  0
  191.3790  174.0940  135.0850 C   0  0  1  0  0  3  0  0  0  0  0  0
  193.5220  173.4320  135.8390 C   0  0  0  0  0  2  0  0  0  0  0  0
  184.7630  179.2110  140.9980 C   0  0  0  0  0  2  0  0  0  0  0  0
  183.6370  178.4240  141.2430 O   0  0  0  0  0  0  0  0  0  0  0  0
  182.9660  179.0620  142.2960 C   0  0  2  0  0  3  0  0  0  0  0  0
  182.5240  178.5730  144.6250 O   0  0  0  0  0  1  0  0  0  0  0  0
  183.5260  178.6090  143.6510 C   0  0  2  0  0  3  0  0  0  0  0  0
  184.6790  179.4970  144.1000 C   0  0  0  0  0  2  0  0  0  0  0  0
  185.3200  178.9420  145.2810 N   0  0  0  0  0  2  0  0  0  0  0  0
  186.8940  177.5750  146.2990 O   0  0  0  0  0  0  0  0  0  0  0  0
  186.3330  177.9340  145.2300 C   0  0  0  0  0  0  0  0  0  0  0  0
  186.7430  177.3130  143.9340 C   0  0  0  0  0  2  0  0  0  0  0  0
  190.6950  176.9370  144.1410 P   0  0  1  0  0  0  0  0  0  0  0  0
  188.7710  178.0400  142.8000 N   0  0  0  0  0  0  0  0  0  0  0  0
  191.5000  175.5100  143.7070 O   0  0  0  0  0  0  0  0  0  0  0  0
  188.2240  177.3530  143.7590 C   0  0  0  0  0  0  0  0  0  0  0  0
  190.2330  177.9890  142.7450 C   0  0  2  0  0  3  0  0  0  0  0  0
  189.0850  176.6490  144.5930 O   0  0  0  0  0  0  0  0  0  0  0  0
  191.4410  177.7060  145.2120 O   0  0  0  0  0  1  0  0  0  0  0  0
  191.9830  177.5690  141.0010 O   0  0  0  0  0  1  0  0  0  0  0  0
  189.8670  176.7270  140.7560 O   0  0  0  0  0  0  0  0  0  0  0  0
  190.6810  177.3910  141.4500 C   0  0  0  0  0  0  0  0  0  0  0  0
  180.9000  180.0260  141.5490 O   0  0  0  0  0  1  0  0  0  0  0  0
  181.4470  178.9000  142.1680 C   0  0  1  0  0  3  0  0  0  0  0  0
  181.0590  177.6450  141.3960 C   0  0  0  0  0  2  0  0  0  0  0  0
  179.7760  177.2410  141.7710 O   0  0  0  0  0  0  0  0  0  0  0  0
  180.3610  175.7440  140.0010 C   0  0  0  0  0  1  0  0  0  0  0  0
  179.2680  176.5760  140.6520 C   0  0  0  0  0  2  0  0  0  0  0  0
  184.5690  178.8180  138.4610 C   0  0  0  0  0  2  0  0  0  0  0  0
  183.3470  177.9320  138.5970 C   0  0  0  0  0  2  0  0  0  0  0  0
  182.1790  178.5630  137.8600 C   0  0  0  0  0  2  0  0  0  0  0  0
  181.3220  177.4920  137.2110 C   0  0  0  0  0  2  0  0  0  0  0  0
  182.2010  176.5500  136.4040 C   0  0  0  0  0  2  0  0  0  0  0  0
  181.6910  175.1220  136.5250 C   0  0  1  0  0  3  0  0  0  0  0  0
  182.5670  173.0340  136.3630 C   0  0  2  0  0  3  0  0  0  0  0  0
  181.2640  174.6310  135.1920 C   0  0  0  0  0  0  0  0  0  0  0  0
  182.1930  173.2650  134.5940 S   0  0  0  0  0  0  0  0  0  0  0  0
  182.7260  174.2880  136.9910 O   0  0  0  0  0  0  0  0  0  0  0  0
  180.2590  175.0340  134.6330 O   0  0  0  0  0  0  0  0  0  0  0  0
  185.7930  171.2710  135.5580 C   0  0  0  0  0  2  0  0  0  0  0  0
  185.1290  169.9860  135.0490 C   0  0  0  0  0  2  0  0  0  0  0  0
  183.6540  169.9000  135.4670 C   0  0  0  0  0  2  0  0  0  0  0  0
  183.3880  170.6830  136.7500 C   0  0  0  0  0  2  0  0  0  0  0  0
  184.8420  172.3820  135.5650 N   0  0  0  0  0  0  0  0  0  0  0  0
  183.8070  172.1600  136.5990 C   0  0  1  0  0  3  0  0  0  0  0  0
  185.5800  174.5000  134.9310 O   0  0  0  0  0  1  0  0  0  0  0  0
  185.6070  173.5550  135.9580 C   0  0  0  0  0  2  0  0  0  0  0  0
  1  2  2  0  0  0  0
  2 17  1  0  0  0  0
  3  8  2  0  0  0  0
  4 10  2  0  0  0  0
  5  4  1  0  0  0  0
  6  7  2  0  0  0  0
  7  1  1  0  0  0  0
  8  5  1  0  0  0  0
  9  7  1  0  0  0  0
 10  9  1  0  0  0  0
 11  4  1  0  0  0  0
 11  6  1  0  0  0  0
 12 16  1  0  0  0  0
 14 13  1  0  0  0  0
 15 14  1  0  0  0  0
 15  8  1  1  0  0  0
 15 12  1  0  0  0  0
 16 13  1  0  0  0  0
 17 18  1  0  0  0  0
 19 18  1  6  0  0  0
 19 21  1  0  0  0  0
 21 22  1  0  0  0  0
 21 20  1  1  0  0  0
 22 23  1  0  0  0  0
 25 23  1  0  0  0  0
 25 24  2  0  0  0  0
 26 25  1  0  0  0  0
 27 29  2  6  0  0  0
 27 32  1  0  0  0  0
 27 33  1  0  0  0  0
 28 30  2  0  0  0  0
 30 26  1  0  0  0  0
 30 32  1  0  0  0  0
 31 36  1  6  0  0  0
 31 28  1  0  0  0  0
 31 27  1  0  0  0  0
 34 36  1  0  0  0  0
 35 36  2  0  0  0  0
 38 37  1  6  0  0  0
 38 19  1  0  0  0  0
 39 40  1  0  0  0  0
 39 38  1  0  0  0  0
 41 42  1  0  0  0  0
 42 40  1  0  0  0  0
 43 44  1  0  0  0  0
 43  2  1  0  0  0  0
 45 44  1  0  0  0  0
 46 45  1  0  0  0  0
 47 46  1  0  0  0  0
 48 47  1  6  0  0  0
 48 52  1  0  0  0  0
 49 51  1  6  0  0  0
 49 59  1  0  0  0  0
 49 52  1  0  0  0  0
 50 48  1  0  0  0  0
 51 50  1  0  0  0  0
 53 50  2  0  0  0  0
 54 58  1  0  0  0  0
 55 56  1  0  0  0  0
 55 54  1  0  0  0  0
 56 57  1  0  0  0  0
 58 61  1  0  0  0  0
 58 59  1  0  0  0  0
 59 57  1  6  0  0  0
 60 61  1  0  0  0  0
M  END
>  <MODEL>
4

>  <REMARK>
 VINA RESULT:      -5.9      1.883      3.349
  Name = 
  23 active torsions:
  status: ('A' for Active; 'I' for Inactive)
    1  A    between atoms: N_3  and  C_24
    2  A    between atoms: C_4  and  C_54
    3  A    between atoms: N_6  and  C_28
    4  A    between atoms: C_9  and  C_46
    5  A    between atoms: C_11  and  C_47
    6  A    between atoms: C_11  and  C_60
    7  A    between atoms: C_12  and  O_32
    8  A    between atoms: C_12  and  C_39
    9  A    between atoms: C_19  and  C_45
   10  A    between atoms: C_19  and  C_47
   11  A    between atoms: C_20  and  C_38
   12  A    between atoms: C_20  and  C_55
   13  A    between atoms: C_21  and  N_40
   14  A    between atoms: C_23  and  O_32
   15  A    between atoms: C_24  and  C_36
   16  A    between atoms: O_25  and  C_31
   17  A    between atoms: O_25  and  C_42
   18  A    between atoms: C_31  and  C_36
   19  A    between atoms: C_31  and  C_39
   20  A    between atoms: C_34  and  C_58
   21  A    between atoms: C_42  and  C_45
   22  A    between atoms: C_48  and  C_61
   23  A    between atoms: C_54  and  C_60
                            x       y       z     vdW  Elec       q    Type
                         _______ _______ _______ _____ _____    ______ ____

>  <TORSDO>
F 23

$$$$
=
 OpenBabel11042413163D

 61 65  0  0  1  0  0  0  0  0999 V2000
  184.1530  177.7880  137.8470 N   0  0  0  0  0  0  0  0  0  0  0  0
  183.8830  178.3200  139.0010 C   0  0  0  0  0  0  0  0  0  0  0  0
  189.3570  174.2220  136.3730 O   0  0  0  0  0  0  0  0  0  0  0  0
  188.1410  176.8710  136.7840 C   0  0  0  0  0  0  0  0  0  0  0  0
  189.5180  176.5020  136.9180 N   0  0  0  0  0  2  0  0  0  0  0  0
  185.7690  176.2200  137.0450 C   0  0  0  0  0  3  0  0  0  0  0  0
  185.4480  177.4930  137.2930 C   0  0  0  0  0  0  0  0  0  0  0  0
  190.0790  175.2000  136.7160 C   0  0  0  0  0  0  0  0  0  0  0  0
  186.4130  178.5700  136.8730 C   0  0  0  0  0  2  0  0  0  0  0  0
  187.7970  178.1060  137.0110 N   0  0  0  0  0  0  0  0  0  0  0  0
  187.0810  175.8690  136.3980 C   0  0  0  0  0  2  0  0  0  0  0  0
  192.3540  175.8730  136.0440 C   0  0  0  0  0  2  0  0  0  0  0  0
  193.1560  176.0580  138.2840 C   0  0  0  0  0  2  0  0  0  0  0  0
  191.8850  175.3400  138.3380 N   0  0  0  0  0  2  0  0  0  0  0  0
  191.5370  174.9990  136.9620 C   0  0  1  0  0  3  0  0  0  0  0  0
  193.5950  176.1610  136.8380 C   0  0  0  0  0  2  0  0  0  0  0  0
  182.4540  178.5590  139.3560 C   0  0  0  0  0  2  0  0  0  0  0  0
  181.8690  177.3630  139.7720 O   0  0  0  0  0  0  0  0  0  0  0  0
  180.6860  177.2540  139.0300 C   0  0  2  0  0  3  0  0  0  0  0  0
  179.3200  179.2420  138.8190 O   0  0  0  0  0  1  0  0  0  0  0  0
  180.4040  178.5550  138.2640 C   0  0  2  0  0  3  0  0  0  0  0  0
  180.1680  178.2870  136.7840 C   0  0  0  0  0  2  0  0  0  0  0  0
  181.4340  178.1390  136.0840 N   0  0  0  0  0  2  0  0  0  0  0  0
  182.8270  177.0350  134.5930 O   0  0  0  0  0  0  0  0  0  0  0  0
  181.7390  177.0360  135.2260 C   0  0  0  0  0  0  0  0  0  0  0  0
  180.7850  175.8980  135.0600 C   0  0  0  0  0  2  0  0  0  0  0  0
  181.2820  172.3660  136.8160 P   0  0  1  0  0  0  0  0  0  0  0  0
  182.2490  174.7650  136.6410 N   0  0  0  0  0  0  0  0  0  0  0  0
  181.8690  171.0100  135.9880 O   0  0  0  0  0  0  0  0  0  0  0  0
  181.2170  174.7090  135.8510 C   0  0  0  0  0  0  0  0  0  0  0  0
  182.5610  173.5260  137.3550 C   0  0  2  0  0  3  0  0  0  0  0  0
  180.5580  173.4890  135.7700 O   0  0  0  0  0  0  0  0  0  0  0  0
  180.3500  171.9820  137.9460 O   0  0  0  0  0  1  0  0  0  0  0  0
  184.9490  173.0040  137.9080 O   0  0  0  0  0  1  0  0  0  0  0  0
  184.1410  172.6640  135.7930 O   0  0  0  0  0  0  0  0  0  0  0  0
  183.9220  173.0390  136.9750 C   0  0  0  0  0  0  0  0  0  0  0  0
  179.2950  175.4220  139.7080 O   0  0  0  0  0  1  0  0  0  0  0  0
  179.5180  176.7870  139.9060 C   0  0  1  0  0  3  0  0  0  0  0  0
  179.7540  177.0630  141.3860 C   0  0  0  0  0  2  0  0  0  0  0  0
  178.9830  178.1550  141.7880 O   0  0  0  0  0  0  0  0  0  0  0  0
  181.0060  178.8890  142.8280 C   0  0  0  0  0  1  0  0  0  0  0  0
  179.5330  178.5540  143.0080 C   0  0  0  0  0  2  0  0  0  0  0  0
  184.9390  178.6100  140.0240 C   0  0  0  0  0  2  0  0  0  0  0  0
  184.3260  179.1580  141.2990 C   0  0  0  0  0  2  0  0  0  0  0  0
  185.3500  179.1040  142.4170 C   0  0  0  0  0  2  0  0  0  0  0  0
  185.1130  177.8890  143.2950 C   0  0  0  0  0  2  0  0  0  0  0  0
  185.0920  178.3080  144.7560 C   0  0  0  0  0  2  0  0  0  0  0  0
  186.4880  178.7050  145.2100 C   0  0  1  0  0  3  0  0  0  0  0  0
  188.5570  177.7700  145.2050 C   0  0  2  0  0  3  0  0  0  0  0  0
  186.7050  178.2510  146.6060 C   0  0  0  0  0  0  0  0  0  0  0  0
  187.9890  177.0660  146.7880 S   0  0  0  0  0  0  0  0  0  0  0  0
  187.4480  178.0800  144.3900 O   0  0  0  0  0  0  0  0  0  0  0  0
  186.1540  178.7710  147.5610 O   0  0  0  0  0  0  0  0  0  0  0  0
  191.5360  176.7890  143.1250 C   0  0  0  0  0  2  0  0  0  0  0  0
  190.8230  176.9410  141.7760 C   0  0  0  0  0  2  0  0  0  0  0  0
  189.2970  177.0010  141.9390 C   0  0  0  0  0  2  0  0  0  0  0  0
  188.8390  176.2720  143.1990 C   0  0  0  0  0  2  0  0  0  0  0  0
  190.8180  177.5080  144.1780 N   0  0  0  0  0  0  0  0  0  0  0  0
  189.5250  176.8440  144.4570 C   0  0  1  0  0  3  0  0  0  0  0  0
  191.8150  176.0330  145.6810 O   0  0  0  0  0  1  0  0  0  0  0  0
  191.6390  177.3820  145.3720 C   0  0  0  0  0  2  0  0  0  0  0  0
  1  2  2  0  0  0  0
  2 17  1  0  0  0  0
  2 43  1  0  0  0  0
  3  8  2  0  0  0  0
  4  5  1  0  0  0  0
  4 10  2  0  0  0  0
  6  7  2  0  0  0  0
  7  1  1  0  0  0  0
  8  5  1  0  0  0  0
  9 10  1  0  0  0  0
  9  7  1  0  0  0  0
 11  4  1  0  0  0  0
 11  6  1  0  0  0  0
 12 16  1  0  0  0  0
 12 15  1  0  0  0  0
 13 14  1  0  0  0  0
 15  8  1  1  0  0  0
 15 14  1  0  0  0  0
 16 13  1  0  0  0  0
 17 18  1  0  0  0  0
 19 18  1  1  0  0  0
 19 38  1  0  0  0  0
 21 20  1  1  0  0  0
 21 19  1  0  0  0  0
 22 21  1  0  0  0  0
 23 22  1  0  0  0  0
 24 25  2  0  0  0  0
 25 23  1  0  0  0  0
 26 25  1  0  0  0  0
 26 30  1  0  0  0  0
 27 29  2  6  0  0  0
 27 31  1  0  0  0  0
 27 33  1  0  0  0  0
 28 31  1  0  0  0  0
 30 28  2  0  0  0  0
 31 36  1  6  0  0  0
 32 30  1  0  0  0  0
 32 27  1  0  0  0  0
 35 36  2  0  0  0  0
 36 34  1  0  0  0  0
 38 37  1  1  0  0  0
 38 39  1  0  0  0  0
 39 40  1  0  0  0  0
 40 42  1  0  0  0  0
 41 42  1  0  0  0  0
 43 44  1  0  0  0  0
 44 45  1  0  0  0  0
 45 46  1  0  0  0  0
 46 47  1  0  0  0  0
 48 47  1  6  0  0  0
 48 50  1  0  0  0  0
 49 52  1  6  0  0  0
 49 51  1  0  0  0  0
 50 51  1  0  0  0  0
 50 53  2  0  0  0  0
 52 48  1  0  0  0  0
 54 58  1  0  0  0  0
 55 56  1  0  0  0  0
 55 54  1  0  0  0  0
 56 57  1  0  0  0  0
 58 59  1  0  0  0  0
 58 61  1  0  0  0  0
 59 57  1  6  0  0  0
 59 49  1  0  0  0  0
 61 60  1  0  0  0  0
M  END
>  <MODEL>
5

>  <REMARK>
 VINA RESULT:      -5.8      3.370      9.006
  Name = 
  23 active torsions:
  status: ('A' for Active; 'I' for Inactive)
    1  A    between atoms: N_3  and  C_24
    2  A    between atoms: C_4  and  C_54
    3  A    between atoms: N_6  and  C_28
    4  A    between atoms: C_9  and  C_46
    5  A    between atoms: C_11  and  C_47
    6  A    between atoms: C_11  and  C_60
    7  A    between atoms: C_12  and  O_32
    8  A    between atoms: C_12  and  C_39
    9  A    between atoms: C_19  and  C_45
   10  A    between atoms: C_19  and  C_47
   11  A    between atoms: C_20  and  C_38
   12  A    between atoms: C_20  and  C_55
   13  A    between atoms: C_21  and  N_40
   14  A    between atoms: C_23  and  O_32
   15  A    between atoms: C_24  and  C_36
   16  A    between atoms: O_25  and  C_31
   17  A    between atoms: O_25  and  C_42
   18  A    between atoms: C_31  and  C_36
   19  A    between atoms: C_31  and  C_39
   20  A    between atoms: C_34  and  C_58
   21  A    between atoms: C_42  and  C_45
   22  A    between atoms: C_48  and  C_61
   23  A    between atoms: C_54  and  C_60
                            x       y       z     vdW  Elec       q    Type
                         _______ _______ _______ _____ _____    ______ ____

>  <TORSDO>
F 23

$$$$
=
 OpenBabel11042413163D

 61 65  0  0  1  0  0  0  0  0999 V2000
  184.6730  178.1580  137.9340 N   0  0  0  0  0  0  0  0  0  0  0  0
  184.5260  178.6620  139.1230 C   0  0  0  0  0  0  0  0  0  0  0  0
  189.3960  173.8430  136.9150 O   0  0  0  0  0  0  0  0  0  0  0  0
  188.4300  176.6190  136.7560 C   0  0  0  0  0  0  0  0  0  0  0  0
  189.7840  176.1590  136.8450 N   0  0  0  0  0  2  0  0  0  0  0  0
  186.0650  176.2890  137.4030 C   0  0  0  0  0  3  0  0  0  0  0  0
  185.8680  177.6100  137.3500 C   0  0  0  0  0  0  0  0  0  0  0  0
  190.2220  174.7980  136.9270 C   0  0  0  0  0  0  0  0  0  0  0  0
  186.8510  178.4500  136.5770 C   0  0  0  0  0  2  0  0  0  0  0  0
  188.2040  177.9000  136.6940 N   0  0  0  0  0  0  0  0  0  0  0  0
  187.2630  175.6630  136.7430 C   0  0  0  0  0  2  0  0  0  0  0  0
  192.4450  175.0780  135.8980 C   0  0  0  0  0  2  0  0  0  0  0  0
  193.5130  175.6960  137.9420 C   0  0  0  0  0  2  0  0  0  0  0  0
  192.2090  175.1340  138.2870 N   0  0  0  0  0  2  0  0  0  0  0  0
  191.6810  174.5210  137.0720 C   0  0  1  0  0  3  0  0  0  0  0  0
  193.7870  175.4200  136.4780 C   0  0  0  0  0  2  0  0  0  0  0  0
  183.1880  179.2000  139.5050 C   0  0  0  0  0  2  0  0  0  0  0  0
  182.2420  178.1750  139.4600 O   0  0  0  0  0  0  0  0  0  0  0  0
  181.0260  178.8100  139.1730 C   0  0  2  0  0  3  0  0  0  0  0  0
  180.3740  180.8430  138.0330 O   0  0  0  0  0  1  0  0  0  0  0  0
  181.1540  179.6900  137.9210 C   0  0  2  0  0  3  0  0  0  0  0  0
  180.7920  178.9160  136.6610 C   0  0  0  0  0  2  0  0  0  0  0  0
  181.9910  178.4150  136.0080 N   0  0  0  0  0  2  0  0  0  0  0  0
  183.0770  176.9320  134.5930 O   0  0  0  0  0  0  0  0  0  0  0  0
  182.0130  177.2420  135.1890 C   0  0  0  0  0  0  0  0  0  0  0  0
  180.7950  176.3930  135.0210 C   0  0  0  0  0  2  0  0  0  0  0  0
  180.4310  172.7760  136.6320 P   0  0  1  0  0  0  0  0  0  0  0  0
  181.9010  174.9100  136.6040 N   0  0  0  0  0  0  0  0  0  0  0  0
  180.7490  171.3560  135.7660 O   0  0  0  0  0  0  0  0  0  0  0  0
  180.9210  175.1100  135.7730 C   0  0  0  0  0  0  0  0  0  0  0  0
  181.9030  173.6090  137.2730 C   0  0  2  0  0  3  0  0  0  0  0  0
  180.0170  174.0680  135.6110 O   0  0  0  0  0  0  0  0  0  0  0  0
  179.3840  172.5640  137.7060 O   0  0  0  0  0  1  0  0  0  0  0  0
  184.2150  173.4860  136.3110 O   0  0  0  0  0  0  0  0  0  0  0  0
  183.2120  171.6190  137.1770 O   0  0  0  0  0  1  0  0  0  0  0  0
  183.1430  172.8500  136.9230 C   0  0  0  0  0  0  0  0  0  0  0  0
  179.1290  179.8490  140.2120 O   0  0  0  0  0  1  0  0  0  0  0  0
  180.4820  179.5530  140.3990 C   0  0  1  0  0  3  0  0  0  0  0  0
  180.6650  178.7620  141.6880 C   0  0  0  0  0  2  0  0  0  0  0  0
  179.4180  178.5100  142.2640 O   0  0  0  0  0  0  0  0  0  0  0  0
  180.7110  178.5660  144.2750 C   0  0  0  0  0  1  0  0  0  0  0  0
  179.4880  179.0860  143.5350 C   0  0  0  0  0  2  0  0  0  0  0  0
  185.6140  178.6350  140.1520 C   0  0  0  0  0  2  0  0  0  0  0  0
  185.0830  178.1680  141.4930 C   0  0  0  0  0  2  0  0  0  0  0  0
  186.2130  178.1510  142.5070 C   0  0  0  0  0  2  0  0  0  0  0  0
  187.5070  178.6160  141.8660 C   0  0  0  0  0  2  0  0  0  0  0  0
  188.1800  177.4490  141.1610 C   0  0  0  0  0  2  0  0  0  0  0  0
  189.1840  176.7830  142.0880 C   0  0  1  0  0  3  0  0  0  0  0  0
  190.0610  177.1890  144.1430 C   0  0  2  0  0  3  0  0  0  0  0  0
  190.5400  177.3250  141.8250 C   0  0  0  0  0  0  0  0  0  0  0  0
  191.2520  178.1810  143.1840 S   0  0  0  0  0  0  0  0  0  0  0  0
  188.8510  177.0640  143.4280 O   0  0  0  0  0  0  0  0  0  0  0  0
  191.1690  177.0620  140.8150 O   0  0  0  0  0  0  0  0  0  0  0  0
  189.3800  177.1870  147.8440 C   0  0  0  0  0  2  0  0  0  0  0  0
  187.8550  177.1270  147.7080 C   0  0  0  0  0  2  0  0  0  0  0  0
  187.3930  177.4840  146.2880 C   0  0  0  0  0  2  0  0  0  0  0  0
  188.3900  178.4030  145.5880 C   0  0  0  0  0  2  0  0  0  0  0  0
  190.0320  176.7660  146.6040 N   0  0  0  0  0  0  0  0  0  0  0  0
  189.7960  177.7670  145.5400 C   0  0  1  0  0  3  0  0  0  0  0  0
  192.0740  175.7250  146.1860 O   0  0  0  0  0  1  0  0  0  0  0  0
  191.4590  176.7610  146.8890 C   0  0  0  0  0  2  0  0  0  0  0  0
  1  2  2  0  0  0  0
  2 17  1  0  0  0  0
  2 43  1  0  0  0  0
  3  8  2  0  0  0  0
  4  5  1  0  0  0  0
  5  8  1  0  0  0  0
  7  6  2  0  0  0  0
  7  1  1  0  0  0  0
  9 10  1  0  0  0  0
  9  7  1  0  0  0  0
 10  4  2  0  0  0  0
 11  4  1  0  0  0  0
 11  6  1  0  0  0  0
 12 16  1  0  0  0  0
 12 15  1  0  0  0  0
 13 14  1  0  0  0  0
 15  8  1  6  0  0  0
 15 14  1  0  0  0  0
 16 13  1  0  0  0  0
 18 17  1  0  0  0  0
 19 18  1  1  0  0  0
 19 38  1  0  0  0  0
 21 20  1  1  0  0  0
 21 19  1  0  0  0  0
 22 21  1  0  0  0  0
 23 22  1  0  0  0  0
 24 25  2  0  0  0  0
 25 23  1  0  0  0  0
 26 25  1  0  0  0  0
 26 30  1  0  0  0  0
 27 29  2  6  0  0  0
 27 31  1  0  0  0  0
 27 33  1  0  0  0  0
 28 31  1  0  0  0  0
 30 28  2  0  0  0  0
 31 36  1  6  0  0  0
 32 30  1  0  0  0  0
 32 27  1  0  0  0  0
 34 36  2  0  0  0  0
 36 35  1  0  0  0  0
 38 37  1  6  0  0  0
 38 39  1  0  0  0  0
 39 40  1  0  0  0  0
 40 42  1  0  0  0  0
 42 41  1  0  0  0  0
 43 44  1  0  0  0  0
 44 45  1  0  0  0  0
 46 45  1  0  0  0  0
 47 46  1  0  0  0  0
 48 47  1  6  0  0  0
 48 52  1  0  0  0  0
 49 51  1  6  0  0  0
 49 59  1  0  0  0  0
 50 48  1  0  0  0  0
 50 51  1  0  0  0  0
 52 49  1  0  0  0  0
 53 50  2  0  0  0  0
 55 54  1  0  0  0  0
 56 55  1  0  0  0  0
 57 56  1  0  0  0  0
 58 61  1  0  0  0  0
 58 54  1  0  0  0  0
 59 57  1  6  0  0  0
 59 58  1  0  0  0  0
 60 61  1  0  0  0  0
M  END
>  <MODEL>
6

>  <REMARK>
 VINA RESULT:      -5.6      3.485      9.414
  Name = 
  23 active torsions:
  status: ('A' for Active; 'I' for Inactive)
    1  A    between atoms: N_3  and  C_24
    2  A    between atoms: C_4  and  C_54
    3  A    between atoms: N_6  and  C_28
    4  A    between atoms: C_9  and  C_46
    5  A    between atoms: C_11  and  C_47
    6  A    between atoms: C_11  and  C_60
    7  A    between atoms: C_12  and  O_32
    8  A    between atoms: C_12  and  C_39
    9  A    between atoms: C_19  and  C_45
   10  A    between atoms: C_19  and  C_47
   11  A    between atoms: C_20  and  C_38
   12  A    between atoms: C_20  and  C_55
   13  A    between atoms: C_21  and  N_40
   14  A    between atoms: C_23  and  O_32
   15  A    between atoms: C_24  and  C_36
   16  A    between atoms: O_25  and  C_31
   17  A    between atoms: O_25  and  C_42
   18  A    between atoms: C_31  and  C_36
   19  A    between atoms: C_31  and  C_39
   20  A    between atoms: C_34  and  C_58
   21  A    between atoms: C_42  and  C_45
   22  A    between atoms: C_48  and  C_61
   23  A    between atoms: C_54  and  C_60
                            x       y       z     vdW  Elec       q    Type
                         _______ _______ _______ _____ _____    ______ ____

>  <TORSDO>
F 23

$$$$
=
 OpenBabel11042413163D

 61 65  0  0  1  0  0  0  0  0999 V2000
  186.9930  178.5860  140.0340 N   0  0  0  0  0  0  0  0  0  0  0  0
  185.7530  178.6530  139.6520 C   0  0  0  0  0  0  0  0  0  0  0  0
  190.3790  176.9230  134.7670 O   0  0  0  0  0  0  0  0  0  0  0  0
  190.0150  176.7910  137.6850 C   0  0  0  0  0  0  0  0  0  0  0  0
  190.6750  175.8470  136.8340 N   0  0  0  0  0  2  0  0  0  0  0  0
  188.1770  178.4230  137.9640 C   0  0  0  0  0  3  0  0  0  0  0  0
  188.1290  178.1430  139.2700 C   0  0  0  0  0  0  0  0  0  0  0  0
  190.8310  175.9370  135.4130 C   0  0  0  0  0  0  0  0  0  0  0  0
  189.3220  177.4780  139.9050 C   0  0  0  0  0  2  0  0  0  0  0  0
  189.9580  176.5510  138.9630 N   0  0  0  0  0  0  0  0  0  0  0  0
  189.3780  178.0450  137.1400 C   0  0  0  0  0  2  0  0  0  0  0  0
  193.0010  174.9810  134.7390 C   0  0  0  0  0  2  0  0  0  0  0  0
  192.3990  172.7440  135.3150 C   0  0  0  0  0  2  0  0  0  0  0  0
  191.1680  173.5320  135.2970 N   0  0  0  0  0  2  0  0  0  0  0  0
  191.5030  174.8170  134.6910 C   0  0  1  0  0  3  0  0  0  0  0  0
  193.5130  173.5700  134.7060 C   0  0  0  0  0  2  0  0  0  0  0  0
  184.7320  179.1230  140.6330 C   0  0  0  0  0  2  0  0  0  0  0  0
  183.7200  178.1690  140.7450 O   0  0  0  0  0  0  0  0  0  0  0  0
  182.7000  178.8010  141.4690 C   0  0  2  0  0  3  0  0  0  0  0  0
  181.8470  179.1650  143.7050 O   0  0  0  0  0  1  0  0  0  0  0  0
  182.8880  178.5830  142.9770 C   0  0  2  0  0  3  0  0  0  0  0  0
  184.2350  179.1120  143.4500 C   0  0  0  0  0  2  0  0  0  0  0  0
  184.2880  179.1470  144.9030 N   0  0  0  0  0  2  0  0  0  0  0  0
  185.2540  178.5540  146.9260 O   0  0  0  0  0  0  0  0  0  0  0  0
  185.2240  178.3940  145.6780 C   0  0  0  0  0  0  0  0  0  0  0  0
  186.1710  177.4360  145.0310 C   0  0  0  0  0  2  0  0  0  0  0  0
  189.5620  177.4940  147.1060 P   0  0  1  0  0  0  0  0  0  0  0  0
  188.4720  178.2160  144.8680 N   0  0  0  0  0  0  0  0  0  0  0  0
  190.5180  176.1140  147.3290 O   0  0  0  0  0  0  0  0  0  0  0  0
  187.5560  177.6040  145.5600 C   0  0  0  0  0  0  0  0  0  0  0  0
  189.7850  178.3090  145.5070 C   0  0  2  0  0  3  0  0  0  0  0  0
  187.9390  177.1040  146.7980 O   0  0  0  0  0  0  0  0  0  0  0  0
  189.6870  178.4650  148.2620 O   0  0  0  0  0  1  0  0  0  0  0  0
  190.5400  176.3560  144.1280 O   0  0  0  0  0  0  0  0  0  0  0  0
  191.9380  178.1320  144.4970 O   0  0  0  0  0  1  0  0  0  0  0  0
  190.8120  177.6000  144.6820 C   0  0  0  0  0  0  0  0  0  0  0  0
  180.7370  177.4680  141.8270 O   0  0  0  0  0  1  0  0  0  0  0  0
  181.3140  178.3930  140.9530 C   0  0  1  0  0  3  0  0  0  0  0  0
  180.3850  179.5870  140.7760 C   0  0  0  0  0  2  0  0  0  0  0  0
  180.2340  179.8660  139.4170 O   0  0  0  0  0  0  0  0  0  0  0  0
  179.7200  181.6720  137.9370 C   0  0  0  0  0  1  0  0  0  0  0  0
  180.1100  181.2560  139.3470 C   0  0  0  0  0  2  0  0  0  0  0  0
  185.3250  178.3710  138.2430 C   0  0  0  0  0  2  0  0  0  0  0  0
  185.2060  176.8790  137.9990 C   0  0  0  0  0  2  0  0  0  0  0  0
  185.5690  176.5710  136.5580 C   0  0  0  0  0  2  0  0  0  0  0  0
  186.4850  175.3630  136.4890 C   0  0  0  0  0  2  0  0  0  0  0  0
  185.8190  174.1750  137.1640 C   0  0  0  0  0  2  0  0  0  0  0  0
  184.7890  173.5520  136.2350 C   0  0  1  0  0  3  0  0  0  0  0  0
  182.6700  172.7550  136.4120 C   0  0  2  0  0  3  0  0  0  0  0  0
  184.9360  172.0760  136.2470 C   0  0  0  0  0  0  0  0  0  0  0  0
  183.5350  171.2150  136.8660 S   0  0  0  0  0  0  0  0  0  0  0  0
  183.4920  173.8680  136.6860 O   0  0  0  0  0  0  0  0  0  0  0  0
  185.8780  171.5040  135.7260 O   0  0  0  0  0  0  0  0  0  0  0  0
  178.9850  173.4240  136.7800 C   0  0  0  0  0  2  0  0  0  0  0  0
  179.1370  174.9330  137.0010 C   0  0  0  0  0  2  0  0  0  0  0  0
  180.5820  175.3190  137.3460 C   0  0  0  0  0  2  0  0  0  0  0  0
  181.3270  174.1640  138.0120 C   0  0  0  0  0  2  0  0  0  0  0  0
  180.1880  172.8640  136.1630 N   0  0  0  0  0  0  0  0  0  0  0  0
  181.3170  172.9050  137.1190 C   0  0  1  0  0  3  0  0  0  0  0  0
  180.2370  171.1410  134.5950 O   0  0  0  0  0  1  0  0  0  0  0  0
  179.8850  171.4640  135.9060 C   0  0  0  0  0  2  0  0  0  0  0  0
  2  1  2  0  0  0  0
  2 17  1  0  0  0  0
  3  8  2  0  0  0  0
  4 10  2  0  0  0  0
  5  4  1  0  0  0  0
  6  7  2  0  0  0  0
  7  9  1  0  0  0  0
  7  1  1  0  0  0  0
  8  5  1  0  0  0  0
 10  9  1  0  0  0  0
 11  4  1  0  0  0  0
 11  6  1  0  0  0  0
 14 13  1  0  0  0  0
 15 12  1  0  0  0  0
 15 14  1  0  0  0  0
 15  8  1  1  0  0  0
 16 12  1  0  0  0  0
 16 13  1  0  0  0  0
 17 18  1  0  0  0  0
 19 18  1  6  0  0  0
 19 21  1  0  0  0  0
 21 22  1  0  0  0  0
 21 20  1  1  0  0  0
 22 23  1  0  0  0  0
 23 25  1  0  0  0  0
 25 24  2  0  0  0  0
 26 30  1  0  0  0  0
 26 25  1  0  0  0  0
 27 29  2  1  0  0  0
 27 33  1  0  0  0  0
 28 31  1  0  0  0  0
 28 30  2  0  0  0  0
 30 32  1  0  0  0  0
 31 36  1  6  0  0  0
 31 27  1  0  0  0  0
 32 27  1  0  0  0  0
 34 36  2  0  0  0  0
 35 36  1  0  0  0  0
 38 19  1  0  0  0  0
 38 37  1  1  0  0  0
 39 38  1  0  0  0  0
 40 39  1  0  0  0  0
 41 42  1  0  0  0  0
 42 40  1  0  0  0  0
 43  2  1  0  0  0  0
 44 43  1  0  0  0  0
 45 44  1  0  0  0  0
 46 45  1  0  0  0  0
 46 47  1  0  0  0  0
 48 50  1  0  0  0  0
 48 52  1  0  0  0  0
 48 47  1  1  0  0  0
 49 52  1  1  0  0  0
 49 51  1  0  0  0  0
 49 59  1  0  0  0  0
 50 51  1  0  0  0  0
 53 50  2  0  0  0  0
 54 55  1  0  0  0  0
 55 56  1  0  0  0  0
 56 57  1  0  0  0  0
 58 54  1  0  0  0  0
 58 59  1  0  0  0  0
 59 57  1  6  0  0  0
 60 61  1  0  0  0  0
 61 58  1  0  0  0  0
M  END
>  <MODEL>
7

>  <REMARK>
 VINA RESULT:      -5.2      2.229      3.933
  Name = 
  23 active torsions:
  status: ('A' for Active; 'I' for Inactive)
    1  A    between atoms: N_3  and  C_24
    2  A    between atoms: C_4  and  C_54
    3  A    between atoms: N_6  and  C_28
    4  A    between atoms: C_9  and  C_46
    5  A    between atoms: C_11  and  C_47
    6  A    between atoms: C_11  and  C_60
    7  A    between atoms: C_12  and  O_32
    8  A    between atoms: C_12  and  C_39
    9  A    between atoms: C_19  and  C_45
   10  A    between atoms: C_19  and  C_47
   11  A    between atoms: C_20  and  C_38
   12  A    between atoms: C_20  and  C_55
   13  A    between atoms: C_21  and  N_40
   14  A    between atoms: C_23  and  O_32
   15  A    between atoms: C_24  and  C_36
   16  A    between atoms: O_25  and  C_31
   17  A    between atoms: O_25  and  C_42
   18  A    between atoms: C_31  and  C_36
   19  A    between atoms: C_31  and  C_39
   20  A    between atoms: C_34  and  C_58
   21  A    between atoms: C_42  and  C_45
   22  A    between atoms: C_48  and  C_61
   23  A    between atoms: C_54  and  C_60
                            x       y       z     vdW  Elec       q    Type
                         _______ _______ _______ _____ _____    ______ ____

>  <TORSDO>
F 23

$$$$
=
 OpenBabel11042413163D

 61 65  0  0  1  0  0  0  0  0999 V2000
  185.4380  178.3640  140.2000 N   0  0  0  0  0  0  0  0  0  0  0  0
  184.2680  177.8200  140.0430 C   0  0  0  0  0  0  0  0  0  0  0  0
  188.6810  177.1300  134.7290 O   0  0  0  0  0  0  0  0  0  0  0  0
  188.7070  177.5750  137.6380 C   0  0  0  0  0  0  0  0  0  0  0  0
  189.6520  176.8440  136.8490 N   0  0  0  0  0  2  0  0  0  0  0  0
  186.3500  178.2370  137.9940 C   0  0  0  0  0  3  0  0  0  0  0  0
  186.5670  178.2960  139.3120 C   0  0  0  0  0  0  0  0  0  0  0  0
  189.6080  176.6400  135.4320 C   0  0  0  0  0  0  0  0  0  0  0  0
  187.9880  178.4090  139.7990 C   0  0  0  0  0  2  0  0  0  0  0  0
  188.8950  177.6590  138.9240 N   0  0  0  0  0  0  0  0  0  0  0  0
  187.5000  178.2400  137.0240 C   0  0  0  0  0  2  0  0  0  0  0  0
  192.0260  176.3930  135.0150 C   0  0  0  0  0  2  0  0  0  0  0  0
  192.0600  174.0610  135.5220 C   0  0  0  0  0  2  0  0  0  0  0  0
  190.6600  174.4490  135.3610 N   0  0  0  0  0  2  0  0  0  0  0  0
  190.6600  175.7940  134.7950 C   0  0  1  0  0  3  0  0  0  0  0  0
  192.9360  175.2000  135.0440 C   0  0  0  0  0  2  0  0  0  0  0  0
  183.2500  178.0040  141.1180 C   0  0  0  0  0  2  0  0  0  0  0  0
  183.1720  179.3530  141.4610 O   0  0  0  0  0  0  0  0  0  0  0  0
  182.5530  179.3780  142.7180 C   0  0  2  0  0  3  0  0  0  0  0  0
  182.7990  178.6620  145.0170 O   0  0  0  0  0  1  0  0  0  0  0  0
  183.4170  178.6580  143.7640 C   0  0  2  0  0  3  0  0  0  0  0  0
  184.8080  179.2700  143.8490 C   0  0  0  0  0  2  0  0  0  0  0  0
  185.2290  179.3910  145.2360 N   0  0  0  0  0  2  0  0  0  0  0  0
  186.4890  178.6960  147.0550 O   0  0  0  0  0  0  0  0  0  0  0  0
  186.1100  178.4650  145.8770 C   0  0  0  0  0  0  0  0  0  0  0  0
  186.5960  177.2420  145.1700 C   0  0  0  0  0  2  0  0  0  0  0  0
  190.4290  178.0310  144.4690 P   0  0  1  0  0  0  0  0  0  0  0  0
  188.2330  177.2060  143.3680 N   0  0  0  0  0  0  0  0  0  0  0  0
  191.6820  177.0360  145.0240 O   0  0  0  0  0  1  0  0  0  0  0  0
  187.9680  177.4440  144.6180 C   0  0  0  0  0  0  0  0  0  0  0  0
  189.6190  177.4460  142.9620 C   0  0  2  0  0  3  0  0  0  0  0  0
  189.0250  177.8760  145.4100 O   0  0  0  0  0  0  0  0  0  0  0  0
  190.8610  179.4790  144.3580 O   0  0  0  0  0  0  0  0  0  0  0  0
  190.6780  176.0590  141.1630 O   0  0  0  0  0  0  0  0  0  0  0  0
  190.3660  175.2020  143.2630 O   0  0  0  0  0  1  0  0  0  0  0  0
  190.2430  176.1770  142.4760 C   0  0  0  0  0  0  0  0  0  0  0  0
  180.4040  179.2510  143.7780 O   0  0  0  0  0  1  0  0  0  0  0  0
  181.1130  178.8560  142.6410 C   0  0  1  0  0  3  0  0  0  0  0  0
  180.3880  179.3320  141.3880 C   0  0  0  0  0  2  0  0  0  0  0  0
  180.4200  180.7260  141.3290 O   0  0  0  0  0  0  0  0  0  0  0  0
  179.2090  179.8090  139.4830 C   0  0  0  0  0  1  0  0  0  0  0  0
  179.5780  181.0600  140.2660 C   0  0  0  0  0  2  0  0  0  0  0  0
  183.8720  177.1010  138.7890 C   0  0  0  0  0  2  0  0  0  0  0  0
  182.3680  176.9260  138.7130 C   0  0  0  0  0  2  0  0  0  0  0  0
  181.8680  177.4200  137.3680 C   0  0  0  0  0  2  0  0  0  0  0  0
  181.8580  176.2870  136.3580 C   0  0  0  0  0  2  0  0  0  0  0  0
  183.1250  176.3360  135.5190 C   0  0  0  0  0  2  0  0  0  0  0  0
  183.7010  174.9390  135.3540 C   0  0  1  0  0  3  0  0  0  0  0  0
  183.3030  172.8740  136.2100 C   0  0  2  0  0  3  0  0  0  0  0  0
  184.7790  174.7240  136.3490 C   0  0  0  0  0  0  0  0  0  0  0  0
  184.4480  173.4450  137.5080 S   0  0  0  0  0  0  0  0  0  0  0  0
  182.6930  173.9810  135.5830 O   0  0  0  0  0  0  0  0  0  0  0  0
  185.8650  175.2730  136.2730 O   0  0  0  0  0  0  0  0  0  0  0  0
  180.3880  170.4950  136.1030 C   0  0  0  0  0  2  0  0  0  0  0  0
  179.3150  171.5800  136.2480 C   0  0  0  0  0  2  0  0  0  0  0  0
  179.9070  172.9100  136.7360 C   0  0  0  0  0  2  0  0  0  0  0  0
  181.1780  172.6910  137.5530 C   0  0  0  0  0  2  0  0  0  0  0  0
  181.6590  171.0740  135.6660 N   0  0  0  0  0  0  0  0  0  0  0  0
  182.2340  171.9100  136.7430 C   0  0  1  0  0  3  0  0  0  0  0  0
  183.3870  169.8010  136.5740 O   0  0  0  0  0  1  0  0  0  0  0  0
  182.5570  169.9480  135.4610 C   0  0  0  0  0  2  0  0  0  0  0  0
  2  1  2  0  0  0  0
  2 17  1  0  0  0  0
  3  8  2  0  0  0  0
  4 10  2  0  0  0  0
  5  4  1  0  0  0  0
  6  7  2  0  0  0  0
  7  9  1  0  0  0  0
  7  1  1  0  0  0  0
  8  5  1  0  0  0  0
 10  9  1  0  0  0  0
 11  4  1  0  0  0  0
 11  6  1  0  0  0  0
 12 16  1  0  0  0  0
 14 13  1  0  0  0  0
 15 12  1  0  0  0  0
 15 14  1  0  0  0  0
 15  8  1  1  0  0  0
 16 13  1  0  0  0  0
 17 18  1  0  0  0  0
 19 18  1  6  0  0  0
 19 21  1  0  0  0  0
 21 22  1  0  0  0  0
 21 20  1  1  0  0  0
 22 23  1  0  0  0  0
 23 25  1  0  0  0  0
 25 24  2  0  0  0  0
 26 25  1  0  0  0  0
 27 33  2  6  0  0  0
 27 29  1  0  0  0  0
 27 32  1  0  0  0  0
 28 30  2  0  0  0  0
 30 26  1  0  0  0  0
 30 32  1  0  0  0  0
 31 36  1  1  0  0  0
 31 28  1  0  0  0  0
 31 27  1  0  0  0  0
 34 36  2  0  0  0  0
 36 35  1  0  0  0  0
 38 19  1  0  0  0  0
 38 37  1  1  0  0  0
 39 38  1  0  0  0  0
 40 39  1  0  0  0  0
 41 42  1  0  0  0  0
 42 40  1  0  0  0  0
 43  2  1  0  0  0  0
 44 43  1  0  0  0  0
 45 44  1  0  0  0  0
 46 45  1  0  0  0  0
 47 46  1  0  0  0  0
 48 47  1  1  0  0  0
 48 52  1  0  0  0  0
 48 50  1  0  0  0  0
 49 52  1  1  0  0  0
 49 59  1  0  0  0  0
 49 51  1  0  0  0  0
 50 51  1  0  0  0  0
 53 50  2  0  0  0  0
 54 55  1  0  0  0  0
 55 56  1  0  0  0  0
 56 57  1  0  0  0  0
 58 54  1  0  0  0  0
 58 59  1  0  0  0  0
 59 57  1  6  0  0  0
 61 58  1  0  0  0  0
 61 60  1  0  0  0  0
M  END
>  <MODEL>
8

>  <REMARK>
 VINA RESULT:      -5.1      2.129      3.739
  Name = 
  23 active torsions:
  status: ('A' for Active; 'I' for Inactive)
    1  A    between atoms: N_3  and  C_24
    2  A    between atoms: C_4  and  C_54
    3  A    between atoms: N_6  and  C_28
    4  A    between atoms: C_9  and  C_46
    5  A    between atoms: C_11  and  C_47
    6  A    between atoms: C_11  and  C_60
    7  A    between atoms: C_12  and  O_32
    8  A    between atoms: C_12  and  C_39
    9  A    between atoms: C_19  and  C_45
   10  A    between atoms: C_19  and  C_47
   11  A    between atoms: C_20  and  C_38
   12  A    between atoms: C_20  and  C_55
   13  A    between atoms: C_21  and  N_40
   14  A    between atoms: C_23  and  O_32
   15  A    between atoms: C_24  and  C_36
   16  A    between atoms: O_25  and  C_31
   17  A    between atoms: O_25  and  C_42
   18  A    between atoms: C_31  and  C_36
   19  A    between atoms: C_31  and  C_39
   20  A    between atoms: C_34  and  C_58
   21  A    between atoms: C_42  and  C_45
   22  A    between atoms: C_48  and  C_61
   23  A    between atoms: C_54  and  C_60
                            x       y       z     vdW  Elec       q    Type
                         _______ _______ _______ _____ _____    ______ ____

>  <TORSDO>
F 23

$$$$
=
 OpenBabel11042413163D

 61 65  0  0  1  0  0  0  0  0999 V2000
  191.2370  176.4810  137.9360 N   0  0  0  0  0  0  0  0  0  0  0  0
  190.1990  177.0880  137.4440 C   0  0  0  0  0  0  0  0  0  0  0  0
  194.3520  171.3200  135.5620 O   0  0  0  0  0  0  0  0  0  0  0  0
  194.3990  174.1480  136.3750 C   0  0  0  0  0  0  0  0  0  0  0  0
  195.4930  173.2260  136.3250 N   0  0  0  0  0  2  0  0  0  0  0  0
  191.9910  174.5120  136.8090 C   0  0  0  0  0  3  0  0  0  0  0  0
  192.2550  175.7550  137.2240 C   0  0  0  0  0  0  0  0  0  0  0  0
  195.4370  171.8510  135.9300 C   0  0  0  0  0  0  0  0  0  0  0  0
  193.5640  176.3810  136.8210 C   0  0  0  0  0  2  0  0  0  0  0  0
  194.6240  175.3700  136.7660 N   0  0  0  0  0  0  0  0  0  0  0  0
  192.9960  173.7420  135.9970 C   0  0  0  0  0  2  0  0  0  0  0  0
  197.8240  171.8490  136.5480 C   0  0  0  0  0  2  0  0  0  0  0  0
  197.7210  169.7350  137.6530 C   0  0  0  0  0  2  0  0  0  0  0  0
  196.4940  169.8750  136.8720 N   0  0  0  0  0  2  0  0  0  0  0  0
  196.6810  171.0310  136.0000 C   0  0  1  0  0  3  0  0  0  0  0  0
  198.6810  170.8360  137.2500 C   0  0  0  0  0  2  0  0  0  0  0  0
  189.2560  177.7580  138.3860 C   0  0  0  0  0  2  0  0  0  0  0  0
  188.5980  176.7960  139.1510 O   0  0  0  0  0  0  0  0  0  0  0  0
  188.3170  177.4260  140.3710 C   0  0  2  0  0  3  0  0  0  0  0  0
  187.9240  179.7630  140.8640 O   0  0  0  0  0  1  0  0  0  0  0  0
  187.4340  178.6630  140.1540 C   0  0  2  0  0  3  0  0  0  0  0  0
  185.9860  178.3830  140.5290 C   0  0  0  0  0  2  0  0  0  0  0  0
  185.4920  179.3970  141.4470 N   0  0  0  0  0  2  0  0  0  0  0  0
  184.8330  180.0920  143.5600 O   0  0  0  0  0  0  0  0  0  0  0  0
  185.1710  179.1340  142.8160 C   0  0  0  0  0  0  0  0  0  0  0  0
  185.2440  177.7510  143.3760 C   0  0  0  0  0  2  0  0  0  0  0  0
  188.4390  177.5880  145.7370 P   0  0  1  0  0  0  0  0  0  0  0  0
  185.8480  177.5410  145.7250 N   0  0  0  0  0  0  0  0  0  0  0  0
  189.3920  178.9460  146.0760 O   0  0  0  0  0  1  0  0  0  0  0  0
  186.2330  177.6700  144.4910 C   0  0  0  0  0  0  0  0  0  0  0  0
  186.9230  177.4750  146.7160 C   0  0  2  0  0  3  0  0  0  0  0  0
  187.6030  177.7460  144.2680 O   0  0  0  0  0  0  0  0  0  0  0  0
  189.2420  176.3050  145.7810 O   0  0  0  0  0  0  0  0  0  0  0  0
  187.6310  178.6830  148.7950 O   0  0  0  0  0  1  0  0  0  0  0  0
  185.9700  179.5280  147.4640 O   0  0  0  0  0  0  0  0  0  0  0  0
  186.8150  178.6180  147.6730 C   0  0  0  0  0  0  0  0  0  0  0  0
  189.3010  178.4690  142.2950 O   0  0  0  0  0  1  0  0  0  0  0  0
  189.6010  177.7120  141.1590 C   0  0  1  0  0  3  0  0  0  0  0  0
  190.3310  176.4380  141.5660 C   0  0  0  0  0  2  0  0  0  0  0  0
  190.4640  176.3970  142.9550 O   0  0  0  0  0  0  0  0  0  0  0  0
  191.9290  177.9220  144.0710 C   0  0  0  0  0  1  0  0  0  0  0  0
  191.8100  176.6840  143.1950 C   0  0  0  0  0  2  0  0  0  0  0  0
  189.9660  177.2230  135.9700 C   0  0  0  0  0  2  0  0  0  0  0  0
  189.0020  176.1630  135.4730 C   0  0  0  0  0  2  0  0  0  0  0  0
  187.5880  176.7160  135.4910 C   0  0  0  0  0  2  0  0  0  0  0  0
  186.6770  175.8130  136.3010 C   0  0  0  0  0  2  0  0  0  0  0  0
  185.7030  176.6560  137.1090 C   0  0  0  0  0  2  0  0  0  0  0  0
  184.2720  176.2440  136.8050 C   0  0  1  0  0  3  0  0  0  0  0  0
  182.1910  176.9260  137.4060 C   0  0  2  0  0  3  0  0  0  0  0  0
  183.8180  175.2470  137.8050 C   0  0  0  0  0  0  0  0  0  0  0  0
  182.4720  175.7830  138.7990 S   0  0  0  0  0  0  0  0  0  0  0  0
  183.4270  177.3690  136.8890 O   0  0  0  0  0  0  0  0  0  0  0  0
  184.2330  174.1020  137.8290 O   0  0  0  0  0  0  0  0  0  0  0  0
  180.9040  180.4620  137.3510 C   0  0  0  0  0  2  0  0  0  0  0  0
  181.8800  180.9840  138.4110 C   0  0  0  0  0  2  0  0  0  0  0  0
  182.5440  179.8400  139.1920 C   0  0  0  0  0  2  0  0  0  0  0  0
  181.6620  178.5950  139.2190 C   0  0  0  0  0  2  0  0  0  0  0  0
  181.3810  179.2030  136.7780 N   0  0  0  0  0  0  0  0  0  0  0  0
  181.3150  178.1250  137.7900 C   0  0  1  0  0  3  0  0  0  0  0  0
  179.4940  179.8860  135.5940 O   0  0  0  0  0  1  0  0  0  0  0  0
  180.4400  178.8680  135.7210 C   0  0  0  0  0  2  0  0  0  0  0  0
  2  1  2  0  0  0  0
  2 17  1  0  0  0  0
  3  8  2  0  0  0  0
  4 10  2  0  0  0  0
  5  4  1  0  0  0  0
  6  7  2  0  0  0  0
  7  1  1  0  0  0  0
  8  5  1  0  0  0  0
  9  7  1  0  0  0  0
 10  9  1  0  0  0  0
 11  4  1  0  0  0  0
 11  6  1  0  0  0  0
 12 16  1  0  0  0  0
 14 13  1  0  0  0  0
 15  8  1  1  0  0  0
 15 12  1  0  0  0  0
 15 14  1  0  0  0  0
 16 13  1  0  0  0  0
 17 18  1  0  0  0  0
 19 18  1  6  0  0  0
 19 38  1  0  0  0  0
 21 19  1  0  0  0  0
 21 22  1  0  0  0  0
 21 20  1  1  0  0  0
 22 23  1  0  0  0  0
 23 25  1  0  0  0  0
 25 26  1  0  0  0  0
 25 24  2  0  0  0  0
 26 30  1  0  0  0  0
 27 33  2  1  0  0  0
 27 29  1  0  0  0  0
 27 31  1  0  0  0  0
 28 31  1  0  0  0  0
 30 28  2  0  0  0  0
 31 36  1  1  0  0  0
 32 30  1  0  0  0  0
 32 27  1  0  0  0  0
 35 36  2  0  0  0  0
 36 34  1  0  0  0  0
 38 39  1  0  0  0  0
 38 37  1  1  0  0  0
 39 40  1  0  0  0  0
 40 42  1  0  0  0  0
 42 41  1  0  0  0  0
 43  2  1  0  0  0  0
 44 45  1  0  0  0  0
 44 43  1  0  0  0  0
 45 46  1  0  0  0  0
 46 47  1  0  0  0  0
 48 52  1  0  0  0  0
 48 47  1  1  0  0  0
 48 50  1  0  0  0  0
 49 52  1  1  0  0  0
 49 59  1  0  0  0  0
 49 51  1  0  0  0  0
 50 53  2  0  0  0  0
 50 51  1  0  0  0  0
 54 55  1  0  0  0  0
 55 56  1  0  0  0  0
 56 57  1  0  0  0  0
 58 54  1  0  0  0  0
 58 59  1  0  0  0  0
 59 57  1  1  0  0  0
 60 61  1  0  0  0  0
 61 58  1  0  0  0  0
M  END
>  <MODEL>
9

>  <REMARK>
 VINA RESULT:      -4.8      2.774      5.837
  Name = 
  23 active torsions:
  status: ('A' for Active; 'I' for Inactive)
    1  A    between atoms: N_3  and  C_24
    2  A    between atoms: C_4  and  C_54
    3  A    between atoms: N_6  and  C_28
    4  A    between atoms: C_9  and  C_46
    5  A    between atoms: C_11  and  C_47
    6  A    between atoms: C_11  and  C_60
    7  A    between atoms: C_12  and  O_32
    8  A    between atoms: C_12  and  C_39
    9  A    between atoms: C_19  and  C_45
   10  A    between atoms: C_19  and  C_47
   11  A    between atoms: C_20  and  C_38
   12  A    between atoms: C_20  and  C_55
   13  A    between atoms: C_21  and  N_40
   14  A    between atoms: C_23  and  O_32
   15  A    between atoms: C_24  and  C_36
   16  A    between atoms: O_25  and  C_31
   17  A    between atoms: O_25  and  C_42
   18  A    between atoms: C_31  and  C_36
   19  A    between atoms: C_31  and  C_39
   20  A    between atoms: C_34  and  C_58
   21  A    between atoms: C_42  and  C_45
   22  A    between atoms: C_48  and  C_61
   23  A    between atoms: C_54  and  C_60
                            x       y       z     vdW  Elec       q    Type
                         _______ _______ _______ _____ _____    ______ ____

>  <TORSDO>
F 23

$$$$
