=
 OpenBabel11042412073D

 70 78  0  0  1  0  0  0  0  0999 V2000
  188.3640  177.1940  136.8660 C   0  0  0  0  0  0  0  0  0  0  0  0
  189.4860  176.7350  136.1480 N   0  0  0  0  0  0  0  0  0  0  0  0
  191.8750  176.3870  136.0640 C   0  0  0  0  0  3  0  0  0  0  0  0
  190.8740  177.0480  138.1990 C   0  0  0  0  0  0  0  0  0  0  0  0
  192.1920  176.8980  138.9150 C   0  0  0  0  0  3  0  0  0  0  0  0
  187.1680  177.3660  136.0080 C   0  0  1  0  0  3  0  0  0  0  0  0
  193.2170  176.4540  136.6800 C   0  0  0  0  0  0  0  0  0  0  0  0
  188.4680  177.5790  138.1390 C   0  0  0  0  0  3  0  0  0  0  0  0
  187.7210  177.1130  134.5940 C   0  0  0  0  0  3  0  0  0  0  0  0
  193.3570  176.7510  137.9750 C   0  0  0  0  0  3  0  0  0  0  0  0
  189.7670  177.4730  138.8490 C   0  0  0  0  0  0  0  0  0  0  0  0
  190.7760  176.6700  136.7660 C   0  0  1  0  0  3  0  0  0  0  0  0
  189.1710  176.6100  134.7380 C   0  0  0  0  0  3  0  0  0  0  0  0
  195.3430  175.2680  135.9450 C   0  0  0  0  0  0  0  0  0  0  0  0
  194.3980  176.3420  135.8780 N   0  0  0  0  0  2  0  0  0  0  0  0
  196.1810  175.1350  135.0140 O   0  0  0  0  0  0  0  0  0  0  0  0
  195.3810  174.4060  137.0930 N   0  0  0  0  0  2  0  0  0  0  0  0
  196.2820  173.2740  137.3030 C   0  0  1  0  0  3  0  0  0  0  0  0
  197.7060  175.0540  138.1210 O   0  0  0  0  0  1  0  0  0  0  0  0
  197.5770  173.6670  138.0140 C   0  0  0  0  0  2  0  0  0  0  0  0
  195.0810  172.0990  138.9840 O   0  0  0  0  0  0  0  0  0  0  0  0
  195.5920  172.0620  137.8740 C   0  0  0  0  0  0  0  0  0  0  0  0
  195.5300  170.7930  137.0850 C   0  0  0  0  0  2  0  0  0  0  0  0
  194.5800  170.9270  135.9050 C   0  0  0  0  0  3  0  0  0  0  0  0
  195.2010  171.6720  134.9080 O   0  0  0  0  0  1  0  0  0  0  0  0
  193.4120  171.5810  136.3070 O   0  0  0  0  0  1  0  0  0  0  0  0
  189.8300  177.9150  140.2770 C   0  0  0  0  0  2  0  0  0  0  0  0
  189.6960  176.7370  141.2230 C   0  0  0  0  0  2  0  0  0  0  0  0
  190.7610  176.7490  142.1660 O   0  0  0  0  0  0  0  0  0  0  0  0
  191.7200  176.2570  144.5420 S   0  0  0  0  0  0  0  0  0  0  0  0
  190.5340  176.7850  143.5420 C   0  0  0  0  0  0  0  0  0  0  0  0
  189.2890  177.2760  144.0530 N   0  0  0  0  0  2  0  0  0  0  0  0
  188.5280  176.6400  145.1190 C   0  0  0  0  0  2  0  0  0  0  0  0
  187.1850  177.8870  146.8120 C   0  0  0  0  0  3  0  0  0  0  0  0
  186.1010  178.6820  147.1790 C   0  0  0  0  0  3  0  0  0  0  0  0
  185.3100  178.6660  144.8760 C   0  0  0  0  0  0  0  0  0  0  0  0
  187.3410  177.4730  145.4870 C   0  0  0  0  0  0  0  0  0  0  0  0
  183.8250  180.4610  144.0170 C   0  0  0  0  0  1  0  0  0  0  0  0
  186.5410  177.4080  143.2030 O   0  0  0  0  0  0  0  0  0  0  0  0
  185.8970  179.3890  141.9760 C   0  0  0  0  0  2  0  0  0  0  0  0
  186.3950  177.8520  144.5180 C   0  0  0  0  0  0  0  0  0  0  0  0
  184.2250  178.9990  143.8800 C   0  0  2  0  0  0  0  0  0  0  0  0
  185.1650  179.0630  146.2170 C   0  0  0  0  0  3  0  0  0  0  0  0
  185.7930  177.8740  142.0790 C   0  0  2  0  0  3  0  0  0  0  0  0
  183.1060  178.2210  144.1830 O   0  0  0  0  0  1  0  0  0  0  0  0
  184.5780  178.7510  142.3980 C   0  0  2  0  0  3  0  0  0  0  0  0
  186.1300  176.3900  136.3520 N   0  0  0  0  0  0  0  0  0  0  0  0
  184.0490  176.7530  135.1050 C   0  0  0  0  0  3  0  0  0  0  0  0
  182.0780  177.6250  136.1900 C   0  0  0  0  0  3  0  0  0  0  0  0
  184.0970  177.2410  137.4830 C   0  0  0  0  0  0  0  0  0  0  0  0
  182.7450  177.6550  137.4250 C   0  0  0  0  0  0  0  0  0  0  0  0
  184.7920  177.2750  138.6910 O   0  0  0  0  0  1  0  0  0  0  0  0
  182.7240  177.1740  135.0400 C   0  0  0  0  0  3  0  0  0  0  0  0
  184.7480  176.7860  136.3190 C   0  0  0  0  0  0  0  0  0  0  0  0
  181.1810  179.8760  140.0850 C   0  0  0  0  0  3  0  0  0  0  0  0
  181.9930  178.1020  138.6280 C   0  0  0  0  0  0  0  0  0  0  0  0
  181.4580  177.1580  139.5180 C   0  0  0  0  0  3  0  0  0  0  0  0
  180.7880  177.5650  140.6740 C   0  0  0  0  0  3  0  0  0  0  0  0
  181.8460  179.4670  138.9260 C   0  0  0  0  0  3  0  0  0  0  0  0
  180.6500  178.9280  140.9610 C   0  0  0  0  0  0  0  0  0  0  0  0
  179.3790  180.5690  142.6290 C   0  0  0  0  0  2  0  0  0  0  0  0
  179.9910  179.3470  142.1560 N   0  0  0  0  0  0  0  0  0  0  0  0
  178.9960  179.9900  143.8840 C   0  0  0  0  0  2  0  0  0  0  0  0
  179.6140  178.7080  143.4340 C   0  0  0  0  0  0  0  0  0  0  0  0
  179.7570  177.5620  143.9330 O   0  0  0  0  0  0  0  0  0  0  0  0
  186.4790  175.0490  136.5970 N   0  0  0  0  0  2  0  0  0  0  0  0
  186.2920  174.2990  135.3620 C   0  0  0  0  0  2  0  0  0  0  0  0
  188.4080  172.7160  134.9730 C   0  0  0  0  0  0  0  0  0  0  0  0
  187.4550  173.4330  135.1480 C   0  0  0  0  0  0  0  0  0  0  0  0
  189.5640  171.8410  134.7710 C   0  0  0  0  0  1  0  0  0  0  0  0
  1  8  2  0  0  0  0
  2 12  1  0  0  0  0
  2  1  1  0  0  0  0
  3  7  2  0  0  0  0
  4 11  2  0  0  0  0
  4  5  1  0  0  0  0
  6 47  1  1  0  0  0
  6  1  1  0  0  0  0
  7 10  1  0  0  0  0
  8 11  1  0  0  0  0
  9 13  2  0  0  0  0
  9  6  1  0  0  0  0
 10  5  2  0  0  0  0
 11 27  1  0  0  0  0
 12  3  1  6  0  0  0
 12  4  1  0  0  0  0
 13  2  1  0  0  0  0
 14 17  1  0  0  0  0
 15 14  1  0  0  0  0
 15  7  1  0  0  0  0
 16 14  2  0  0  0  0
 17 18  1  0  0  0  0
 18 22  1  0  0  0  0
 18 20  1  1  0  0  0
 20 19  1  0  0  0  0
 22 21  2  0  0  0  0
 23 22  1  0  0  0  0
 24 26  1  0  0  0  0
 24 23  1  0  0  0  0
 25 24  1  0  0  0  0
 27 28  1  0  0  0  0
 28 29  1  0  0  0  0
 29 31  1  0  0  0  0
 31 32  1  0  0  0  0
 31 30  2  0  0  0  0
 32 33  1  0  0  0  0
 33 37  1  0  0  0  0
 34 35  1  0  0  0  0
 36 43  1  0  0  0  0
 37 34  2  0  0  0  0
 39 41  1  0  0  0  0
 41 36  2  0  0  0  0
 41 37  1  0  0  0  0
 42 38  1  1  0  0  0
 42 45  1  0  0  0  0
 42 36  1  0  0  0  0
 43 35  2  0  0  0  0
 44 40  1  6  0  0  0
 44 46  1  0  0  0  0
 44 39  1  0  0  0  0
 46 40  1  1  0  0  0
 46 42  1  0  0  0  0
 47 66  1  0  0  0  0
 48 54  1  0  0  0  0
 49 51  2  0  0  0  0
 50 52  1  0  0  0  0
 51 50  1  0  0  0  0
 51 56  1  0  0  0  0
 53 48  2  0  0  0  0
 53 49  1  0  0  0  0
 54 47  1  0  0  0  0
 54 50  2  0  0  0  0
 55 60  1  0  0  0  0
 56 59  1  0  0  0  0
 56 57  2  0  0  0  0
 57 58  1  0  0  0  0
 58 60  2  0  0  0  0
 59 55  2  0  0  0  0
 60 62  1  0  0  0  0
 61 63  1  0  0  0  0
 62 61  1  0  0  0  0
 62 64  1  0  0  0  0
 64 63  1  0  0  0  0
 64 65  2  0  0  0  0
 67 66  1  0  0  0  0
 68 69  3  0  0  0  0
 69 67  1  0  0  0  0
 70 68  1  0  0  0  0
M  END
>  <MODEL>
1

>  <REMARK>
 VINA RESULT:      -7.5      0.000      0.000
  Name = 
  20 active torsions:
  status: ('A' for Active; 'I' for Inactive)
    1  A    between atoms: O_7  and  C_47
    2  A    between atoms: O_7  and  C_62
    3  A    between atoms: N_8  and  C_39
    4  A    between atoms: N_8  and  N_53
    5  A    between atoms: N_12  and  C_69
    6  A    between atoms: C_13  and  C_15
    7  A    between atoms: C_13  and  C_27
    8  A    between atoms: C_18  and  C_44
    9  A    between atoms: C_19  and  C_67
   10  A    between atoms: C_20  and  CA_60
   11  A    between atoms: C_25  and  C_47
   12  A    between atoms: C_25  and  C_52
   13  A    between atoms: C_27  and  CA_60
   14  A    between atoms: C_29  and  N_53
   15  A    between atoms: C_30  and  C_39
   16  A    between atoms: N_32  and  C_40
   17  A    between atoms: N_38  and  C_62
   18  A    between atoms: N_38  and  C_67
   19  A    between atoms: N_50  and  CA_60
   20  A    between atoms: N_53  and  C_58
                            x       y       z     vdW  Elec       q    Type
                         _______ _______ _______ _____ _____    ______ ____

>  <TORSDO>
F 20

$$$$
=
 OpenBabel11042412073D

 70 78  0  0  1  0  0  0  0  0999 V2000
  189.6030  177.2650  138.6320 C   0  0  0  0  0  0  0  0  0  0  0  0
  190.3730  176.7310  139.6850 N   0  0  0  0  0  0  0  0  0  0  0  0
  190.7300  176.5010  142.0630 C   0  0  0  0  0  3  0  0  0  0  0  0
  188.6400  177.5240  141.2990 C   0  0  0  0  0  0  0  0  0  0  0  0
  188.1060  177.5930  142.7060 C   0  0  0  0  0  3  0  0  0  0  0  0
  190.2970  177.1970  137.3250 C   0  0  1  0  0  3  0  0  0  0  0  0
  190.3370  176.7620  143.4650 C   0  0  0  0  0  0  0  0  0  0  0  0
  188.4560  177.9040  138.8700 C   0  0  0  0  0  3  0  0  0  0  0  0
  191.7000  176.6940  137.7080 C   0  0  0  0  0  3  0  0  0  0  0  0
  189.1570  177.3220  143.7470 C   0  0  0  0  0  3  0  0  0  0  0  0
  187.9320  178.0120  140.2550 C   0  0  0  0  0  0  0  0  0  0  0  0
  189.9440  176.8610  141.0460 C   0  0  1  0  0  3  0  0  0  0  0  0
  191.6720  176.3080  139.2010 C   0  0  0  0  0  3  0  0  0  0  0  0
  190.9580  176.6870  145.9290 C   0  0  0  0  0  0  0  0  0  0  0  0
  191.2630  176.5540  144.5360 N   0  0  0  0  0  2  0  0  0  0  0  0
  191.7620  176.2160  146.7760 O   0  0  0  0  0  0  0  0  0  0  0  0
  189.7930  177.4140  146.3490 N   0  0  0  0  0  2  0  0  0  0  0  0
  189.3530  177.6320  147.7270 C   0  0  1  0  0  3  0  0  0  0  0  0
  191.3460  177.8080  149.0910 O   0  0  0  0  0  1  0  0  0  0  0  0
  190.2990  178.5340  148.5190 C   0  0  0  0  0  2  0  0  0  0  0  0
  187.4810  178.6480  148.7820 O   0  0  0  0  0  0  0  0  0  0  0  0
  187.8950  177.9980  147.8340 C   0  0  0  0  0  0  0  0  0  0  0  0
  186.9330  177.5590  146.7760 C   0  0  0  0  0  2  0  0  0  0  0  0
  185.9150  178.6500  146.4760 C   0  0  0  0  0  3  0  0  0  0  0  0
  184.6710  178.2490  146.9520 O   0  0  0  0  0  1  0  0  0  0  0  0
  185.8340  178.8580  145.0960 O   0  0  0  0  0  1  0  0  0  0  0  0
  186.6400  178.7350  140.4670 C   0  0  0  0  0  2  0  0  0  0  0  0
  185.8240  178.7900  139.1900 C   0  0  0  0  0  2  0  0  0  0  0  0
  184.6370  179.5420  139.4050 O   0  0  0  0  0  0  0  0  0  0  0  0
  182.3680  180.3860  138.4320 S   0  0  0  0  0  0  0  0  0  0  0  0
  183.4190  179.1910  138.8230 C   0  0  0  0  0  0  0  0  0  0  0  0
  183.1100  177.8140  138.5760 N   0  0  0  0  0  2  0  0  0  0  0  0
  182.6330  176.8830  139.5890 C   0  0  0  0  0  2  0  0  0  0  0  0
  180.1410  176.9840  139.6070 C   0  0  0  0  0  3  0  0  0  0  0  0
  178.9310  177.4030  140.1550 C   0  0  0  0  0  3  0  0  0  0  0  0
  180.1380  178.6030  141.8970 C   0  0  0  0  0  0  0  0  0  0  0  0
  181.3510  177.3680  140.1870 C   0  0  0  0  0  0  0  0  0  0  0  0
  179.0600  179.1390  144.0700 C   0  0  0  0  0  1  0  0  0  0  0  0
  182.5660  178.5960  141.8830 O   0  0  0  0  0  0  0  0  0  0  0  0
  182.0710  178.4220  144.2440 C   0  0  0  0  0  2  0  0  0  0  0  0
  181.3520  178.1900  141.3280 C   0  0  0  0  0  0  0  0  0  0  0  0
  180.1110  179.5710  143.0560 C   0  0  2  0  0  0  0  0  0  0  0  0
  178.9310  178.2150  141.2910 C   0  0  0  0  0  3  0  0  0  0  0  0
  182.7290  179.2450  143.1450 C   0  0  2  0  0  3  0  0  0  0  0  0
  179.7390  180.8240  142.5650 O   0  0  0  0  0  1  0  0  0  0  0  0
  181.4440  179.7440  143.8140 C   0  0  2  0  0  3  0  0  0  0  0  0
  189.6260  176.2550  136.4240 N   0  0  0  0  0  0  0  0  0  0  0  0
  188.1440  177.7470  135.1590 C   0  0  0  0  0  3  0  0  0  0  0  0
  185.7850  177.2870  134.9570 C   0  0  0  0  0  3  0  0  0  0  0  0
  187.2120  175.7520  136.1830 C   0  0  0  0  0  0  0  0  0  0  0  0
  185.9300  176.1010  135.6940 C   0  0  0  0  0  0  0  0  0  0  0  0
  187.3870  174.5900  136.9320 O   0  0  0  0  0  1  0  0  0  0  0  0
  186.8830  178.1010  134.6890 C   0  0  0  0  0  3  0  0  0  0  0  0
  188.3220  176.5770  135.9100 C   0  0  0  0  0  0  0  0  0  0  0  0
  182.6580  174.2570  135.1100 C   0  0  0  0  0  3  0  0  0  0  0  0
  184.7320  175.2470  135.9120 C   0  0  0  0  0  0  0  0  0  0  0  0
  184.4800  174.6940  137.1770 C   0  0  0  0  0  3  0  0  0  0  0  0
  183.3350  173.9260  137.4060 C   0  0  0  0  0  3  0  0  0  0  0  0
  183.8060  175.0200  134.8800 C   0  0  0  0  0  3  0  0  0  0  0  0
  182.4190  173.7080  136.3710 C   0  0  0  0  0  0  0  0  0  0  0  0
  179.9030  173.2290  137.0980 C   0  0  0  0  0  2  0  0  0  0  0  0
  181.2350  172.9480  136.6090 N   0  0  0  0  0  0  0  0  0  0  0  0
  179.4700  171.8710  136.9470 C   0  0  0  0  0  2  0  0  0  0  0  0
  180.8310  171.5370  136.4340 C   0  0  0  0  0  0  0  0  0  0  0  0
  181.4000  170.4930  136.0250 O   0  0  0  0  0  0  0  0  0  0  0  0
  190.3030  175.1070  135.9740 N   0  0  0  0  0  2  0  0  0  0  0  0
  190.7360  175.3430  134.6040 C   0  0  0  0  0  2  0  0  0  0  0  0
  193.3620  175.8270  134.5950 C   0  0  0  0  0  0  0  0  0  0  0  0
  192.1780  175.6070  134.5970 C   0  0  0  0  0  0  0  0  0  0  0  0
  194.7990  176.1060  134.5940 C   0  0  0  0  0  1  0  0  0  0  0  0
  1  8  2  0  0  0  0
  1  2  1  0  0  0  0
  2 12  1  0  0  0  0
  3  7  2  0  0  0  0
  4  5  1  0  0  0  0
  5 10  2  0  0  0  0
  6 47  1  6  0  0  0
  6  9  1  0  0  0  0
  6  1  1  0  0  0  0
  7 10  1  0  0  0  0
  7 15  1  0  0  0  0
  8 11  1  0  0  0  0
  9 13  2  0  0  0  0
 11 27  1  0  0  0  0
 11  4  2  0  0  0  0
 12  4  1  0  0  0  0
 12  3  1  1  0  0  0
 13  2  1  0  0  0  0
 14 17  1  0  0  0  0
 14 16  2  0  0  0  0
 15 14  1  0  0  0  0
 17 18  1  0  0  0  0
 18 22  1  0  0  0  0
 18 20  1  6  0  0  0
 20 19  1  0  0  0  0
 22 21  2  0  0  0  0
 23 22  1  0  0  0  0
 24 23  1  0  0  0  0
 24 25  1  0  0  0  0
 26 24  1  0  0  0  0
 28 29  1  0  0  0  0
 28 27  1  0  0  0  0
 30 31  2  0  0  0  0
 31 29  1  0  0  0  0
 32 31  1  0  0  0  0
 32 33  1  0  0  0  0
 33 37  1  0  0  0  0
 34 35  2  0  0  0  0
 34 37  1  0  0  0  0
 35 43  1  0  0  0  0
 36 42  1  0  0  0  0
 37 41  2  0  0  0  0
 39 44  1  0  0  0  0
 41 39  1  0  0  0  0
 41 36  1  0  0  0  0
 42 46  1  0  0  0  0
 42 38  1  1  0  0  0
 43 36  2  0  0  0  0
 44 46  1  0  0  0  0
 44 40  1  1  0  0  0
 45 42  1  0  0  0  0
 46 40  1  1  0  0  0
 48 54  1  0  0  0  0
 49 51  2  0  0  0  0
 50 52  1  0  0  0  0
 51 56  1  0  0  0  0
 51 50  1  0  0  0  0
 53 49  1  0  0  0  0
 53 48  2  0  0  0  0
 54 50  2  0  0  0  0
 54 47  1  0  0  0  0
 55 60  1  0  0  0  0
 56 57  2  0  0  0  0
 57 58  1  0  0  0  0
 59 55  2  0  0  0  0
 59 56  1  0  0  0  0
 60 62  1  0  0  0  0
 60 58  2  0  0  0  0
 62 61  1  0  0  0  0
 63 61  1  0  0  0  0
 64 62  1  0  0  0  0
 64 63  1  0  0  0  0
 65 64  2  0  0  0  0
 66 47  1  0  0  0  0
 67 66  1  0  0  0  0
 68 69  3  0  0  0  0
 69 67  1  0  0  0  0
 70 68  1  0  0  0  0
M  END
>  <MODEL>
2

>  <REMARK>
 VINA RESULT:      -7.1      3.673      8.114
  Name = 
  20 active torsions:
  status: ('A' for Active; 'I' for Inactive)
    1  A    between atoms: O_7  and  C_47
    2  A    between atoms: O_7  and  C_62
    3  A    between atoms: N_8  and  C_39
    4  A    between atoms: N_8  and  N_53
    5  A    between atoms: N_12  and  C_69
    6  A    between atoms: C_13  and  C_15
    7  A    between atoms: C_13  and  C_27
    8  A    between atoms: C_18  and  C_44
    9  A    between atoms: C_19  and  C_67
   10  A    between atoms: C_20  and  CA_60
   11  A    between atoms: C_25  and  C_47
   12  A    between atoms: C_25  and  C_52
   13  A    between atoms: C_27  and  CA_60
   14  A    between atoms: C_29  and  N_53
   15  A    between atoms: C_30  and  C_39
   16  A    between atoms: N_32  and  C_40
   17  A    between atoms: N_38  and  C_62
   18  A    between atoms: N_38  and  C_67
   19  A    between atoms: N_50  and  CA_60
   20  A    between atoms: N_53  and  C_58
                            x       y       z     vdW  Elec       q    Type
                         _______ _______ _______ _____ _____    ______ ____

>  <TORSDO>
F 20

$$$$
=
 OpenBabel11042412073D

 70 78  0  0  1  0  0  0  0  0999 V2000
  185.9100  176.4930  137.4600 C   0  0  0  0  0  0  0  0  0  0  0  0
  184.7450  175.6990  137.4810 N   0  0  0  0  0  0  0  0  0  0  0  0
  183.6880  173.5820  136.9940 C   0  0  0  0  0  3  0  0  0  0  0  0
  186.1250  173.7310  136.8050 C   0  0  0  0  0  0  0  0  0  0  0  0
  186.2390  172.2540  136.5300 C   0  0  0  0  0  2  0  0  0  0  0  0
  185.6240  177.9320  137.6670 C   0  0  1  0  0  3  0  0  0  0  0  0
  183.7410  172.1890  136.5040 C   0  0  0  0  0  0  0  0  0  0  0  0
  187.0920  175.9770  137.1180 C   0  0  0  0  0  3  0  0  0  0  0  0
  184.0860  177.9810  137.6560 C   0  0  0  0  0  3  0  0  0  0  0  0
  184.9140  171.6080  136.2330 C   0  0  0  0  0  3  0  0  0  0  0  0
  187.2160  174.5310  136.8090 C   0  0  0  0  0  0  0  0  0  0  0  0
  184.7980  174.3110  137.1310 C   0  0  0  0  0  0  0  0  0  0  0  0
  183.5670  176.5290  137.6430 C   0  0  0  0  0  3  0  0  0  0  0  0
  181.2460  172.0740  136.0300 C   0  0  0  0  0  0  0  0  0  0  0  0
  182.5420  171.4810  136.1740 N   0  0  0  0  0  2  0  0  0  0  0  0
  180.3310  171.4110  135.4730 O   0  0  0  0  0  0  0  0  0  0  0  0
  180.9780  173.3730  136.5810 N   0  0  0  0  0  2  0  0  0  0  0  0
  179.7140  174.1040  136.5120 C   0  0  1  0  0  3  0  0  0  0  0  0
  179.7760  173.7670  138.9090 O   0  0  0  0  0  1  0  0  0  0  0  0
  178.9450  174.0890  137.8340 C   0  0  0  0  0  2  0  0  0  0  0  0
  179.6430  175.6180  134.6800 O   0  0  0  0  0  0  0  0  0  0  0  0
  179.8470  175.4630  135.8760 C   0  0  0  0  0  0  0  0  0  0  0  0
  180.2390  176.6440  136.7060 C   0  0  0  0  0  2  0  0  0  0  0  0
  180.3260  177.9050  135.8580 C   0  0  0  0  0  3  0  0  0  0  0  0
  181.5350  177.9040  135.1720 O   0  0  0  0  0  1  0  0  0  0  0  0
  180.2640  179.0350  136.6790 O   0  0  0  0  0  1  0  0  0  0  0  0
  188.5640  174.0010  136.4340 C   0  0  0  0  0  2  0  0  0  0  0  0
  189.6350  175.0630  136.5940 C   0  0  0  0  0  2  0  0  0  0  0  0
  190.4300  175.1300  135.4170 O   0  0  0  0  0  0  0  0  0  0  0  0
  192.7960  175.9480  134.6830 S   0  0  0  0  0  0  0  0  0  0  0  0
  191.8030  174.8820  135.4320 C   0  0  0  0  0  0  0  0  0  0  0  0
  192.3160  173.7190  136.0930 N   0  0  0  0  0  2  0  0  0  0  0  0
  193.3660  173.7400  137.1010 C   0  0  0  0  0  2  0  0  0  0  0  0
  194.2220  171.4410  136.6470 C   0  0  0  0  0  3  0  0  0  0  0  0
  195.2310  170.5550  136.2770 C   0  0  0  0  0  3  0  0  0  0  0  0
  196.7800  172.4190  136.0440 C   0  0  0  0  0  0  0  0  0  0  0  0
  194.4770  172.8110  136.7230 C   0  0  0  0  0  0  0  0  0  0  0  0
  198.7910  172.2430  134.5960 C   0  0  0  0  0  1  0  0  0  0  0  0
  196.0170  174.6700  136.5420 O   0  0  0  0  0  0  0  0  0  0  0  0
  197.4280  175.0280  134.6110 C   0  0  0  0  0  2  0  0  0  0  0  0
  195.7630  173.3030  136.4330 C   0  0  0  0  0  0  0  0  0  0  0  0
  198.1940  172.9060  135.8300 C   0  0  2  0  0  0  0  0  0  0  0  0
  196.5060  171.0420  135.9840 C   0  0  0  0  0  3  0  0  0  0  0  0
  197.1950  175.3360  136.0830 C   0  0  2  0  0  3  0  0  0  0  0  0
  198.9560  172.5180  136.9330 O   0  0  0  0  0  1  0  0  0  0  0  0
  198.3570  174.4310  135.6620 C   0  0  2  0  0  3  0  0  0  0  0  0
  186.1580  178.3940  138.9510 N   0  0  0  0  0  0  0  0  0  0  0  0
  188.4900  178.4440  138.1870 C   0  0  0  0  0  3  0  0  0  0  0  0
  190.3060  177.9140  139.6830 C   0  0  0  0  0  3  0  0  0  0  0  0
  188.0220  177.8930  140.5060 C   0  0  0  0  0  0  0  0  0  0  0  0
  189.4080  177.7320  140.7460 C   0  0  0  0  0  0  0  0  0  0  0  0
  187.1020  177.7030  141.5350 O   0  0  0  0  0  1  0  0  0  0  0  0
  189.8510  178.2710  138.4150 C   0  0  0  0  0  3  0  0  0  0  0  0
  187.5640  178.2540  139.2220 C   0  0  0  0  0  0  0  0  0  0  0  0
  190.8180  175.7720  143.6820 C   0  0  0  0  0  3  0  0  0  0  0  0
  189.9520  177.3960  142.0890 C   0  0  0  0  0  0  0  0  0  0  0  0
  190.0240  178.3800  143.0880 C   0  0  0  0  0  3  0  0  0  0  0  0
  190.4930  178.0670  144.3660 C   0  0  0  0  0  3  0  0  0  0  0  0
  190.3550  176.0870  142.4020 C   0  0  0  0  0  3  0  0  0  0  0  0
  190.8900  176.7590  144.6660 C   0  0  0  0  0  0  0  0  0  0  0  0
  192.4000  175.6180  146.5390 C   0  0  0  0  0  2  0  0  0  0  0  0
  191.3420  176.4300  145.9790 N   0  0  0  0  0  0  0  0  0  0  0  0
  192.0500  175.9440  147.8900 C   0  0  0  0  0  2  0  0  0  0  0  0
  190.9460  176.7950  147.3560 C   0  0  0  0  0  0  0  0  0  0  0  0
  190.0510  177.5190  147.8620 O   0  0  0  0  0  0  0  0  0  0  0  0
  185.3240  179.0730  139.8580 N   0  0  0  0  0  2  0  0  0  0  0  0
  184.3600  178.1200  140.3890 C   0  0  0  0  0  2  0  0  0  0  0  0
  183.7870  178.7840  142.9120 C   0  0  0  0  0  0  0  0  0  0  0  0
  184.0430  178.4830  141.7740 C   0  0  0  0  0  0  0  0  0  0  0  0
  183.4860  179.1460  144.2980 C   0  0  0  0  0  1  0  0  0  0  0  0
  1  2  1  0  0  0  0
  1  6  1  0  0  0  0
  2 13  1  0  0  0  0
  3 12  2  0  0  0  0
  4 11  2  0  0  0  0
  4 12  1  0  0  0  0
  5  4  1  0  0  0  0
  6 47  1  1  0  0  0
  7  3  1  0  0  0  0
  8  1  2  0  0  0  0
  9  6  1  0  0  0  0
 10  7  2  0  0  0  0
 10  5  1  0  0  0  0
 11  8  1  0  0  0  0
 12  2  1  0  0  0  0
 13  9  2  0  0  0  0
 14 15  1  0  0  0  0
 14 17  1  0  0  0  0
 15  7  1  0  0  0  0
 16 14  2  0  0  0  0
 18 17  1  0  0  0  0
 18 20  1  1  0  0  0
 20 19  1  0  0  0  0
 21 22  2  0  0  0  0
 22 18  1  0  0  0  0
 22 23  1  0  0  0  0
 24 26  1  0  0  0  0
 24 23  1  0  0  0  0
 25 24  1  0  0  0  0
 27 28  1  0  0  0  0
 27 11  1  0  0  0  0
 29 31  1  0  0  0  0
 29 28  1  0  0  0  0
 30 31  2  0  0  0  0
 31 32  1  0  0  0  0
 32 33  1  0  0  0  0
 34 37  1  0  0  0  0
 35 34  2  0  0  0  0
 36 41  1  0  0  0  0
 37 33  1  0  0  0  0
 41 39  1  0  0  0  0
 41 37  2  0  0  0  0
 42 38  1  6  0  0  0
 42 36  1  0  0  0  0
 42 45  1  0  0  0  0
 43 36  2  0  0  0  0
 43 35  1  0  0  0  0
 44 40  1  6  0  0  0
 44 39  1  0  0  0  0
 46 40  1  6  0  0  0
 46 42  1  0  0  0  0
 46 44  1  0  0  0  0
 47 54  1  0  0  0  0
 47 66  1  0  0  0  0
 48 53  2  0  0  0  0
 48 54  1  0  0  0  0
 49 51  2  0  0  0  0
 50 51  1  0  0  0  0
 50 52  1  0  0  0  0
 51 56  1  0  0  0  0
 53 49  1  0  0  0  0
 54 50  2  0  0  0  0
 55 60  1  0  0  0  0
 56 59  1  0  0  0  0
 56 57  2  0  0  0  0
 57 58  1  0  0  0  0
 58 60  2  0  0  0  0
 59 55  2  0  0  0  0
 60 62  1  0  0  0  0
 61 63  1  0  0  0  0
 62 61  1  0  0  0  0
 62 64  1  0  0  0  0
 64 65  2  0  0  0  0
 64 63  1  0  0  0  0
 66 67  1  0  0  0  0
 67 69  1  0  0  0  0
 68 70  1  0  0  0  0
 69 68  3  0  0  0  0
M  END
>  <MODEL>
3

>  <REMARK>
 VINA RESULT:      -5.7      3.297     11.727
  Name = 
  20 active torsions:
  status: ('A' for Active; 'I' for Inactive)
    1  A    between atoms: O_7  and  C_47
    2  A    between atoms: O_7  and  C_62
    3  A    between atoms: N_8  and  C_39
    4  A    between atoms: N_8  and  N_53
    5  A    between atoms: N_12  and  C_69
    6  A    between atoms: C_13  and  C_15
    7  A    between atoms: C_13  and  C_27
    8  A    between atoms: C_18  and  C_44
    9  A    between atoms: C_19  and  C_67
   10  A    between atoms: C_20  and  CA_60
   11  A    between atoms: C_25  and  C_47
   12  A    between atoms: C_25  and  C_52
   13  A    between atoms: C_27  and  CA_60
   14  A    between atoms: C_29  and  N_53
   15  A    between atoms: C_30  and  C_39
   16  A    between atoms: N_32  and  C_40
   17  A    between atoms: N_38  and  C_62
   18  A    between atoms: N_38  and  C_67
   19  A    between atoms: N_50  and  CA_60
   20  A    between atoms: N_53  and  C_58
                            x       y       z     vdW  Elec       q    Type
                         _______ _______ _______ _____ _____    ______ ____

>  <TORSDO>
F 20

$$$$
=
 OpenBabel11042412073D

 70 78  0  0  1  0  0  0  0  0999 V2000
  189.9830  177.1820  138.7210 C   0  0  0  0  0  0  0  0  0  0  0  0
  190.7330  176.6770  139.8020 N   0  0  0  0  0  0  0  0  0  0  0  0
  190.9880  176.4220  142.1910 C   0  0  0  0  0  3  0  0  0  0  0  0
  188.8760  177.3250  141.3400 C   0  0  0  0  0  0  0  0  0  0  0  0
  188.2710  177.3310  142.7200 C   0  0  0  0  0  3  0  0  0  0  0  0
  190.7430  177.1840  137.4490 C   0  0  1  0  0  3  0  0  0  0  0  0
  190.5110  176.6290  143.5750 C   0  0  0  0  0  0  0  0  0  0  0  0
  188.7860  177.7410  138.9120 C   0  0  0  0  0  3  0  0  0  0  0  0
  192.1550  176.7640  137.8940 C   0  0  0  0  0  3  0  0  0  0  0  0
  189.2850  177.1060  143.8070 C   0  0  0  0  0  3  0  0  0  0  0  0
  188.1910  177.7880  140.2700 C   0  0  0  0  0  0  0  0  0  0  0  0
  190.2320  176.7520  141.1420 C   0  0  1  0  0  3  0  0  0  0  0  0
  192.0800  176.3470  139.3760 C   0  0  0  0  0  3  0  0  0  0  0  0
  191.0110  176.5210  146.0650 C   0  0  0  0  0  0  0  0  0  0  0  0
  191.3950  176.4580  144.6880 N   0  0  0  0  0  2  0  0  0  0  0  0
  191.8050  176.0870  146.9410 O   0  0  0  0  0  0  0  0  0  0  0  0
  189.7720  177.1410  146.4440 N   0  0  0  0  0  2  0  0  0  0  0  0
  189.2460  177.2780  147.8020 C   0  0  1  0  0  3  0  0  0  0  0  0
  189.9480  179.3760  148.7870 O   0  0  0  0  0  1  0  0  0  0  0  0
  190.2080  178.0040  148.7430 C   0  0  0  0  0  2  0  0  0  0  0  0
  187.3080  178.1100  148.8990 O   0  0  0  0  0  0  0  0  0  0  0  0
  187.8260  177.7820  147.8420 C   0  0  0  0  0  0  0  0  0  0  0  0
  187.0300  177.8780  146.5790 C   0  0  0  0  0  2  0  0  0  0  0  0
  185.8380  178.8080  146.7540 C   0  0  0  0  0  3  0  0  0  0  0  0
  184.7470  178.0650  147.1910 O   0  0  0  0  0  1  0  0  0  0  0  0
  185.5230  179.4110  145.5330 O   0  0  0  0  0  1  0  0  0  0  0  0
  186.8450  178.4230  140.4310 C   0  0  0  0  0  2  0  0  0  0  0  0
  186.1910  178.6710  139.0850 C   0  0  0  0  0  2  0  0  0  0  0  0
  184.8030  178.3680  139.1580 O   0  0  0  0  0  0  0  0  0  0  0  0
  183.5490  178.9710  141.3660 S   0  0  0  0  0  0  0  0  0  0  0  0
  183.8900  179.2180  139.7820 C   0  0  0  0  0  0  0  0  0  0  0  0
  183.2730  180.2790  139.0410 N   0  0  0  0  0  2  0  0  0  0  0  0
  182.1280  180.1090  138.1580 C   0  0  0  0  0  2  0  0  0  0  0  0
  180.1730  179.6180  139.6290 C   0  0  0  0  0  3  0  0  0  0  0  0
  179.2340  178.7470  140.1770 C   0  0  0  0  0  3  0  0  0  0  0  0
  180.2370  176.8980  138.9510 C   0  0  0  0  0  0  0  0  0  0  0  0
  181.1470  179.1450  138.7480 C   0  0  0  0  0  0  0  0  0  0  0  0
  178.9330  174.8490  138.4250 C   0  0  0  0  0  1  0  0  0  0  0  0
  182.1850  177.3080  137.5600 O   0  0  0  0  0  0  0  0  0  0  0  0
  180.9330  175.7280  136.2260 C   0  0  0  0  0  2  0  0  0  0  0  0
  181.1880  177.7790  138.4160 C   0  0  0  0  0  0  0  0  0  0  0  0
  180.3230  175.4110  138.6950 C   0  0  2  0  0  0  0  0  0  0  0  0
  179.2710  177.3920  139.8440 C   0  0  0  0  0  3  0  0  0  0  0  0
  182.2300  176.0080  136.9710 C   0  0  2  0  0  3  0  0  0  0  0  0
  180.8120  174.8010  139.8520 O   0  0  0  0  0  1  0  0  0  0  0  0
  181.2310  174.9850  137.5230 C   0  0  2  0  0  3  0  0  0  0  0  0
  190.1790  176.2210  136.5000 N   0  0  0  0  0  0  0  0  0  0  0  0
  188.5520  177.6660  135.3670 C   0  0  0  0  0  3  0  0  0  0  0  0
  186.2800  176.9420  135.0000 C   0  0  0  0  0  3  0  0  0  0  0  0
  187.8600  175.4520  136.0860 C   0  0  0  0  0  0  0  0  0  0  0  0
  186.5590  175.6970  135.5860 C   0  0  0  0  0  0  0  0  0  0  0  0
  188.1650  174.2330  136.6880 O   0  0  0  0  0  1  0  0  0  0  0  0
  187.2700  177.9170  134.8880 C   0  0  0  0  0  3  0  0  0  0  0  0
  188.8600  176.4400  135.9710 C   0  0  0  0  0  0  0  0  0  0  0  0
  184.4220  172.7560  136.6950 C   0  0  0  0  0  3  0  0  0  0  0  0
  185.4770  174.6780  135.6380 C   0  0  0  0  0  0  0  0  0  0  0  0
  184.5270  174.6030  134.6070 C   0  0  0  0  0  3  0  0  0  0  0  0
  183.5320  173.6220  134.6220 C   0  0  0  0  0  3  0  0  0  0  0  0
  185.4130  173.7410  136.6830 C   0  0  0  0  0  3  0  0  0  0  0  0
  183.4800  172.6940  135.6680 C   0  0  0  0  0  0  0  0  0  0  0  0
  182.4550  170.2500  135.9330 C   0  0  0  0  0  2  0  0  0  0  0  0
  182.4830  171.6720  135.6710 N   0  0  0  0  0  0  0  0  0  0  0  0
  181.0420  170.1520  135.7110 C   0  0  0  0  0  2  0  0  0  0  0  0
  181.0240  171.6180  135.4350 C   0  0  0  0  0  0  0  0  0  0  0  0
  180.1400  172.4590  135.1290 O   0  0  0  0  0  0  0  0  0  0  0  0
  190.9680  175.1590  136.0220 N   0  0  0  0  0  2  0  0  0  0  0  0
  191.7520  175.6470  134.8950 C   0  0  0  0  0  2  0  0  0  0  0  0
  194.2590  174.7550  135.1280 C   0  0  0  0  0  0  0  0  0  0  0  0
  193.1270  175.1550  135.0210 C   0  0  0  0  0  0  0  0  0  0  0  0
  195.6370  174.2790  135.2550 C   0  0  0  0  0  1  0  0  0  0  0  0
  1  8  2  0  0  0  0
  1  2  1  0  0  0  0
  2 12  1  0  0  0  0
  3  7  2  0  0  0  0
  4  5  1  0  0  0  0
  5 10  2  0  0  0  0
  6 47  1  6  0  0  0
  6  9  1  0  0  0  0
  6  1  1  0  0  0  0
  7 10  1  0  0  0  0
  7 15  1  0  0  0  0
  8 11  1  0  0  0  0
  9 13  2  0  0  0  0
 11 27  1  0  0  0  0
 11  4  2  0  0  0  0
 12  4  1  0  0  0  0
 12  3  1  1  0  0  0
 13  2  1  0  0  0  0
 14 17  1  0  0  0  0
 14 16  2  0  0  0  0
 15 14  1  0  0  0  0
 17 18  1  0  0  0  0
 18 22  1  0  0  0  0
 18 20  1  1  0  0  0
 20 19  1  0  0  0  0
 22 21  2  0  0  0  0
 23 24  1  0  0  0  0
 23 22  1  0  0  0  0
 24 25  1  0  0  0  0
 26 24  1  0  0  0  0
 28 29  1  0  0  0  0
 28 27  1  0  0  0  0
 29 31  1  0  0  0  0
 31 30  2  0  0  0  0
 32 31  1  0  0  0  0
 33 37  1  0  0  0  0
 33 32  1  0  0  0  0
 34 35  1  0  0  0  0
 36 43  1  0  0  0  0
 37 34  2  0  0  0  0
 39 41  1  0  0  0  0
 41 37  1  0  0  0  0
 41 36  2  0  0  0  0
 42 38  1  6  0  0  0
 42 36  1  0  0  0  0
 42 45  1  0  0  0  0
 43 35  2  0  0  0  0
 44 40  1  6  0  0  0
 44 46  1  0  0  0  0
 44 39  1  0  0  0  0
 46 40  1  6  0  0  0
 46 42  1  0  0  0  0
 48 54  1  0  0  0  0
 49 51  2  0  0  0  0
 50 52  1  0  0  0  0
 51 56  1  0  0  0  0
 51 50  1  0  0  0  0
 53 49  1  0  0  0  0
 53 48  2  0  0  0  0
 54 50  2  0  0  0  0
 54 47  1  0  0  0  0
 56 59  2  0  0  0  0
 57 58  2  0  0  0  0
 57 56  1  0  0  0  0
 58 60  1  0  0  0  0
 59 55  1  0  0  0  0
 60 62  1  0  0  0  0
 60 55  2  0  0  0  0
 62 61  1  0  0  0  0
 63 61  1  0  0  0  0
 64 62  1  0  0  0  0
 64 63  1  0  0  0  0
 65 64  2  0  0  0  0
 66 47  1  0  0  0  0
 67 69  1  0  0  0  0
 67 66  1  0  0  0  0
 68 70  1  0  0  0  0
 69 68  3  0  0  0  0
M  END
>  <MODEL>
4

>  <REMARK>
 VINA RESULT:      -5.5      3.374      8.724
  Name = 
  20 active torsions:
  status: ('A' for Active; 'I' for Inactive)
    1  A    between atoms: O_7  and  C_47
    2  A    between atoms: O_7  and  C_62
    3  A    between atoms: N_8  and  C_39
    4  A    between atoms: N_8  and  N_53
    5  A    between atoms: N_12  and  C_69
    6  A    between atoms: C_13  and  C_15
    7  A    between atoms: C_13  and  C_27
    8  A    between atoms: C_18  and  C_44
    9  A    between atoms: C_19  and  C_67
   10  A    between atoms: C_20  and  CA_60
   11  A    between atoms: C_25  and  C_47
   12  A    between atoms: C_25  and  C_52
   13  A    between atoms: C_27  and  CA_60
   14  A    between atoms: C_29  and  N_53
   15  A    between atoms: C_30  and  C_39
   16  A    between atoms: N_32  and  C_40
   17  A    between atoms: N_38  and  C_62
   18  A    between atoms: N_38  and  C_67
   19  A    between atoms: N_50  and  CA_60
   20  A    between atoms: N_53  and  C_58
                            x       y       z     vdW  Elec       q    Type
                         _______ _______ _______ _____ _____    ______ ____

>  <TORSDO>
F 20

$$$$
=
 OpenBabel11042412073D

 70 78  0  0  1  0  0  0  0  0999 V2000
  189.4860  176.8720  141.6390 C   0  0  0  0  0  0  0  0  0  0  0  0
  190.8270  176.5990  141.3030 N   0  0  0  0  0  0  0  0  0  0  0  0
  192.5140  176.3670  139.5900 C   0  0  0  0  0  3  0  0  0  0  0  0
  190.3350  177.2880  138.9540 C   0  0  0  0  0  0  0  0  0  0  0  0
  190.8140  177.5730  137.5540 C   0  0  0  0  0  2  0  0  0  0  0  0
  189.1480  176.4630  143.0230 C   0  0  1  0  0  3  0  0  0  0  0  0
  192.9410  176.4190  138.1750 C   0  0  0  0  0  0  0  0  0  0  0  0
  188.6150  177.2940  140.7200 C   0  0  0  0  0  3  0  0  0  0  0  0
  190.4200  175.7280  143.4820 C   0  0  0  0  0  3  0  0  0  0  0  0
  192.1290  176.9160  137.2380 C   0  0  0  0  0  3  0  0  0  0  0  0
  189.0610  177.5450  139.3270 C   0  0  0  0  0  0  0  0  0  0  0  0
  191.2950  176.7660  139.9600 C   0  0  0  0  0  0  0  0  0  0  0  0
  191.5000  175.9310  142.4010 C   0  0  0  0  0  3  0  0  0  0  0  0
  194.2820  174.7440  136.8110 C   0  0  0  0  0  0  0  0  0  0  0  0
  194.1680  175.8120  137.7580 N   0  0  0  0  0  2  0  0  0  0  0  0
  195.4110  174.4820  136.3190 O   0  0  0  0  0  0  0  0  0  0  0  0
  193.1380  173.9370  136.4900 N   0  0  0  0  0  2  0  0  0  0  0  0
  193.0980  172.8190  135.5470 C   0  0  1  0  0  3  0  0  0  0  0  0
  193.9350  170.9430  136.8290 O   0  0  0  0  0  1  0  0  0  0  0  0
  194.2240  171.8100  135.7720 C   0  0  0  0  0  2  0  0  0  0  0  0
  191.5190  171.3180  134.5950 O   0  0  0  0  0  0  0  0  0  0  0  0
  191.7270  172.2110  135.4030 C   0  0  0  0  0  0  0  0  0  0  0  0
  190.5960  172.7050  136.2500 C   0  0  0  0  0  2  0  0  0  0  0  0
  190.3000  174.1700  135.9680 C   0  0  0  0  0  3  0  0  0  0  0  0
  189.1370  174.5330  136.6390 O   0  0  0  0  0  1  0  0  0  0  0  0
  190.1180  174.3630  134.5950 O   0  0  0  0  0  1  0  0  0  0  0  0
  188.0470  178.0210  138.3350 C   0  0  0  0  0  2  0  0  0  0  0  0
  186.6350  177.7660  138.8280 C   0  0  0  0  0  2  0  0  0  0  0  0
  185.7840  177.4740  137.7270 O   0  0  0  0  0  0  0  0  0  0  0  0
  186.9080  176.9750  135.4250 S   0  0  0  0  0  0  0  0  0  0  0  0
  186.1060  176.5060  136.7750 C   0  0  0  0  0  0  0  0  0  0  0  0
  185.7380  175.1370  136.9890 N   0  0  0  0  0  2  0  0  0  0  0  0
  185.3050  174.2270  135.9380 C   0  0  0  0  0  2  0  0  0  0  0  0
  184.3150  172.0280  136.5750 C   0  0  0  0  0  3  0  0  0  0  0  0
  183.2580  171.2390  137.0260 C   0  0  0  0  0  3  0  0  0  0  0  0
  181.8360  173.2130  137.1420 C   0  0  0  0  0  0  0  0  0  0  0  0
  184.1460  173.4030  136.4010 C   0  0  0  0  0  0  0  0  0  0  0  0
  179.8470  173.2760  138.6280 C   0  0  0  0  0  1  0  0  0  0  0  0
  182.7300  175.3660  136.4640 O   0  0  0  0  0  0  0  0  0  0  0  0
  181.3830  175.9570  138.3830 C   0  0  0  0  0  2  0  0  0  0  0  0
  182.9000  173.9970  136.6720 C   0  0  0  0  0  0  0  0  0  0  0  0
  180.4600  173.8050  137.3390 C   0  0  2  0  0  0  0  0  0  0  0  0
  182.0230  171.8290  137.3010 C   0  0  0  0  0  3  0  0  0  0  0  0
  181.6070  176.1390  136.8890 C   0  0  2  0  0  3  0  0  0  0  0  0
  179.6530  173.3860  136.2800 O   0  0  0  0  0  1  0  0  0  0  0  0
  180.3980  175.3460  137.3940 C   0  0  2  0  0  3  0  0  0  0  0  0
  188.8790  177.6320  143.8650 N   0  0  0  0  0  0  0  0  0  0  0  0
  187.3500  177.6510  145.7830 C   0  0  0  0  0  3  0  0  0  0  0  0
  184.9980  178.1030  145.5020 C   0  0  0  0  0  3  0  0  0  0  0  0
  186.4720  178.1430  143.5730 C   0  0  0  0  0  0  0  0  0  0  0  0
  185.1770  178.2970  144.1230 C   0  0  0  0  0  0  0  0  0  0  0  0
  186.6810  178.3110  142.2060 O   0  0  0  0  0  1  0  0  0  0  0  0
  186.0760  177.7860  146.3250 C   0  0  0  0  0  3  0  0  0  0  0  0
  187.5620  177.8220  144.4090 C   0  0  0  0  0  0  0  0  0  0  0  0
  181.6420  179.2570  143.1060 C   0  0  0  0  0  3  0  0  0  0  0  0
  183.9990  178.6780  143.2990 C   0  0  0  0  0  0  0  0  0  0  0  0
  184.1010  178.7230  141.9000 C   0  0  0  0  0  3  0  0  0  0  0  0
  182.9900  179.0370  141.1120 C   0  0  0  0  0  3  0  0  0  0  0  0
  182.7550  178.9490  143.8930 C   0  0  0  0  0  3  0  0  0  0  0  0
  181.7560  179.3030  141.7150 C   0  0  0  0  0  0  0  0  0  0  0  0
  180.0190  179.0460  139.7140 C   0  0  0  0  0  2  0  0  0  0  0  0
  180.6130  179.5960  140.9130 N   0  0  0  0  0  0  0  0  0  0  0  0
  178.9310  179.9800  139.7240 C   0  0  0  0  0  2  0  0  0  0  0  0
  179.5090  180.5770  140.9640 C   0  0  0  0  0  0  0  0  0  0  0  0
  179.1920  181.5210  141.7330 O   0  0  0  0  0  0  0  0  0  0  0  0
  189.9300  178.4920  144.2310 N   0  0  0  0  0  2  0  0  0  0  0  0
  189.9200  178.6290  145.6810 C   0  0  0  0  0  2  0  0  0  0  0  0
  191.4050  176.6840  146.7510 C   0  0  0  0  0  0  0  0  0  0  0  0
  190.7330  177.5600  146.2680 C   0  0  0  0  0  0  0  0  0  0  0  0
  192.2300  175.6220  147.3300 C   0  0  0  0  0  1  0  0  0  0  0  0
  1  6  1  0  0  0  0
  2  1  1  0  0  0  0
  2 13  1  0  0  0  0
  3 12  2  0  0  0  0
  4 11  2  0  0  0  0
  4 12  1  0  0  0  0
  5  4  1  0  0  0  0
  6  9  1  0  0  0  0
  6 47  1  1  0  0  0
  7  3  1  0  0  0  0
  8  1  2  0  0  0  0
 10  5  1  0  0  0  0
 10  7  2  0  0  0  0
 11  8  1  0  0  0  0
 12  2  1  0  0  0  0
 13  9  2  0  0  0  0
 14 15  1  0  0  0  0
 15  7  1  0  0  0  0
 16 14  2  0  0  0  0
 17 14  1  0  0  0  0
 18 20  1  1  0  0  0
 18 17  1  0  0  0  0
 20 19  1  0  0  0  0
 21 22  2  0  0  0  0
 22 18  1  0  0  0  0
 22 23  1  0  0  0  0
 24 23  1  0  0  0  0
 24 25  1  0  0  0  0
 26 24  1  0  0  0  0
 27 28  1  0  0  0  0
 27 11  1  0  0  0  0
 29 28  1  0  0  0  0
 30 31  2  0  0  0  0
 31 32  1  0  0  0  0
 31 29  1  0  0  0  0
 33 37  1  0  0  0  0
 33 32  1  0  0  0  0
 34 35  1  0  0  0  0
 35 43  2  0  0  0  0
 36 43  1  0  0  0  0
 36 42  1  0  0  0  0
 37 34  2  0  0  0  0
 37 41  1  0  0  0  0
 39 41  1  0  0  0  0
 39 44  1  0  0  0  0
 41 36  2  0  0  0  0
 42 46  1  0  0  0  0
 42 38  1  1  0  0  0
 44 46  1  0  0  0  0
 44 40  1  1  0  0  0
 45 42  1  0  0  0  0
 46 40  1  1  0  0  0
 47 66  1  0  0  0  0
 47 54  1  0  0  0  0
 48 53  1  0  0  0  0
 49 53  2  0  0  0  0
 50 51  2  0  0  0  0
 50 54  1  0  0  0  0
 51 49  1  0  0  0  0
 52 50  1  0  0  0  0
 54 48  2  0  0  0  0
 55 59  1  0  0  0  0
 56 59  2  0  0  0  0
 56 51  1  0  0  0  0
 57 56  1  0  0  0  0
 58 60  1  0  0  0  0
 58 57  2  0  0  0  0
 60 55  2  0  0  0  0
 61 63  1  0  0  0  0
 61 62  1  0  0  0  0
 62 64  1  0  0  0  0
 62 60  1  0  0  0  0
 63 64  1  0  0  0  0
 64 65  2  0  0  0  0
 66 67  1  0  0  0  0
 67 69  1  0  0  0  0
 68 70  1  0  0  0  0
 69 68  3  0  0  0  0
M  END
>  <MODEL>
5

>  <REMARK>
 VINA RESULT:      -5.5      2.785      7.256
  Name = 
  20 active torsions:
  status: ('A' for Active; 'I' for Inactive)
    1  A    between atoms: O_7  and  C_47
    2  A    between atoms: O_7  and  C_62
    3  A    between atoms: N_8  and  C_39
    4  A    between atoms: N_8  and  N_53
    5  A    between atoms: N_12  and  C_69
    6  A    between atoms: C_13  and  C_15
    7  A    between atoms: C_13  and  C_27
    8  A    between atoms: C_18  and  C_44
    9  A    between atoms: C_19  and  C_67
   10  A    between atoms: C_20  and  CA_60
   11  A    between atoms: C_25  and  C_47
   12  A    between atoms: C_25  and  C_52
   13  A    between atoms: C_27  and  CA_60
   14  A    between atoms: C_29  and  N_53
   15  A    between atoms: C_30  and  C_39
   16  A    between atoms: N_32  and  C_40
   17  A    between atoms: N_38  and  C_62
   18  A    between atoms: N_38  and  C_67
   19  A    between atoms: N_50  and  CA_60
   20  A    between atoms: N_53  and  C_58
                            x       y       z     vdW  Elec       q    Type
                         _______ _______ _______ _____ _____    ______ ____

>  <TORSDO>
F 20

$$$$
=
 OpenBabel11042412073D

 70 78  0  0  1  0  0  0  0  0999 V2000
  189.6260  176.8850  142.0440 C   0  0  0  0  0  0  0  0  0  0  0  0
  191.0150  176.6410  142.0440 N   0  0  0  0  0  0  0  0  0  0  0  0
  193.0570  176.3700  140.7820 C   0  0  0  0  0  3  0  0  0  0  0  0
  191.0650  177.1740  139.6050 C   0  0  0  0  0  0  0  0  0  0  0  0
  191.8490  177.3930  138.3360 C   0  0  0  0  0  2  0  0  0  0  0  0
  188.9870  176.5460  143.3370 C   0  0  1  0  0  3  0  0  0  0  0  0
  193.7980  176.3540  139.5030 C   0  0  0  0  0  0  0  0  0  0  0  0
  188.9840  177.2220  140.9240 C   0  0  0  0  0  3  0  0  0  0  0  0
  190.1330  175.8860  144.1230 C   0  0  0  0  0  3  0  0  0  0  0  0
  193.2150  176.7660  138.3740 C   0  0  0  0  0  3  0  0  0  0  0  0
  189.7340  177.4070  139.6580 C   0  0  0  0  0  0  0  0  0  0  0  0
  191.7770  176.7460  140.8360 C   0  0  0  0  0  0  0  0  0  0  0  0
  191.4300  176.0630  143.3070 C   0  0  0  0  0  3  0  0  0  0  0  0
  195.4560  174.6580  138.5860 C   0  0  0  0  0  0  0  0  0  0  0  0
  195.1010  175.7680  139.4190 N   0  0  0  0  0  2  0  0  0  0  0  0
  196.6740  174.4100  138.3870 O   0  0  0  0  0  0  0  0  0  0  0  0
  194.4370  173.7990  138.0510 N   0  0  0  0  0  2  0  0  0  0  0  0
  194.6420  172.6360  137.1890 C   0  0  1  0  0  3  0  0  0  0  0  0
  196.4650  171.2300  137.9400 O   0  0  0  0  0  1  0  0  0  0  0  0
  195.0780  171.3910  137.9620 C   0  0  0  0  0  2  0  0  0  0  0  0
  193.3220  171.3080  135.7240 O   0  0  0  0  0  0  0  0  0  0  0  0
  193.5140  172.4110  136.2150 C   0  0  0  0  0  0  0  0  0  0  0  0
  192.6170  173.5450  135.8330 C   0  0  0  0  0  2  0  0  0  0  0  0
  191.2170  173.3480  136.3960 C   0  0  0  0  0  3  0  0  0  0  0  0
  190.2870  173.7690  135.4510 O   0  0  0  0  0  1  0  0  0  0  0  0
  191.0630  174.1050  137.5610 O   0  0  0  0  0  1  0  0  0  0  0  0
  188.9670  177.7880  138.4310 C   0  0  0  0  0  2  0  0  0  0  0  0
  187.4760  177.8240  138.7040 C   0  0  0  0  0  2  0  0  0  0  0  0
  186.7880  178.3370  137.5710 O   0  0  0  0  0  0  0  0  0  0  0  0
  187.9960  176.9520  135.7180 S   0  0  0  0  0  0  0  0  0  0  0  0
  186.6520  177.6060  136.3910 C   0  0  0  0  0  0  0  0  0  0  0  0
  185.3600  177.4380  135.7930 N   0  0  0  0  0  2  0  0  0  0  0  0
  184.9960  176.3360  134.9150 C   0  0  0  0  0  2  0  0  0  0  0  0
  182.5580  176.7710  134.6120 C   0  0  0  0  0  3  0  0  0  0  0  0
  181.2180  176.4250  134.7710 C   0  0  0  0  0  3  0  0  0  0  0  0
  181.8810  174.4050  135.9590 C   0  0  0  0  0  0  0  0  0  0  0  0
  183.5650  175.9490  135.1220 C   0  0  0  0  0  0  0  0  0  0  0  0
  180.3740  172.4340  136.0810 C   0  0  0  0  0  1  0  0  0  0  0  0
  184.2390  173.9700  136.3420 O   0  0  0  0  0  0  0  0  0  0  0  0
  183.3900  171.7620  135.8430 C   0  0  0  0  0  2  0  0  0  0  0  0
  183.2270  174.7690  135.8080 C   0  0  0  0  0  0  0  0  0  0  0  0
  181.4880  173.2010  136.7820 C   0  0  2  0  0  0  0  0  0  0  0  0
  180.8820  175.2510  135.4470 C   0  0  0  0  0  3  0  0  0  0  0  0
  184.0680  172.6540  136.8720 C   0  0  2  0  0  3  0  0  0  0  0  0
  180.9890  173.6560  138.0030 O   0  0  0  0  0  1  0  0  0  0  0  0
  182.6210  172.1980  137.0840 C   0  0  2  0  0  3  0  0  0  0  0  0
  188.5060  177.7520  144.0170 N   0  0  0  0  0  0  0  0  0  0  0  0
  186.4700  177.9150  145.3760 C   0  0  0  0  0  3  0  0  0  0  0  0
  184.3250  178.3560  144.3660 C   0  0  0  0  0  3  0  0  0  0  0  0
  186.3130  178.2520  142.9760 C   0  0  0  0  0  0  0  0  0  0  0  0
  184.9170  178.4510  143.0970 C   0  0  0  0  0  0  0  0  0  0  0  0
  186.9300  178.3220  141.7290 O   0  0  0  0  0  1  0  0  0  0  0  0
  185.0950  178.0940  145.4970 C   0  0  0  0  0  3  0  0  0  0  0  0
  187.0910  177.9870  144.1220 C   0  0  0  0  0  0  0  0  0  0  0  0
  181.8500  179.0010  140.9180 C   0  0  0  0  0  3  0  0  0  0  0  0
  184.0530  178.7770  141.9310 C   0  0  0  0  0  0  0  0  0  0  0  0
  184.6300  179.0790  140.6870 C   0  0  0  0  0  3  0  0  0  0  0  0
  183.8280  179.3450  139.5730 C   0  0  0  0  0  3  0  0  0  0  0  0
  182.6520  178.7410  142.0330 C   0  0  0  0  0  3  0  0  0  0  0  0
  182.4350  179.3040  139.6880 C   0  0  0  0  0  0  0  0  0  0  0  0
  180.8870  178.7310  137.5980 C   0  0  0  0  0  2  0  0  0  0  0  0
  181.6140  179.5470  138.5460 N   0  0  0  0  0  0  0  0  0  0  0  0
  180.3830  179.8650  136.8800 C   0  0  0  0  0  2  0  0  0  0  0  0
  181.1160  180.7450  137.8370 C   0  0  0  0  0  0  0  0  0  0  0  0
  181.2550  181.9870  137.9820 O   0  0  0  0  0  0  0  0  0  0  0  0
  189.4170  178.6080  144.6610 N   0  0  0  0  0  2  0  0  0  0  0  0
  190.1230  177.8390  145.6770 C   0  0  0  0  0  2  0  0  0  0  0  0
  188.7170  177.8890  147.9470 C   0  0  0  0  0  0  0  0  0  0  0  0
  189.3500  177.8690  146.9220 C   0  0  0  0  0  0  0  0  0  0  0  0
  187.9460  177.9030  149.1920 C   0  0  0  0  0  1  0  0  0  0  0  0
  1  6  1  0  0  0  0
  2  1  1  0  0  0  0
  2 13  1  0  0  0  0
  3 12  2  0  0  0  0
  4 11  2  0  0  0  0
  4 12  1  0  0  0  0
  5 10  1  0  0  0  0
  5  4  1  0  0  0  0
  6 47  1  1  0  0  0
  6  9  1  0  0  0  0
  7  3  1  0  0  0  0
  8  1  2  0  0  0  0
 10  7  2  0  0  0  0
 11  8  1  0  0  0  0
 12  2  1  0  0  0  0
 13  9  2  0  0  0  0
 14 15  1  0  0  0  0
 15  7  1  0  0  0  0
 16 14  2  0  0  0  0
 17 14  1  0  0  0  0
 18 20  1  1  0  0  0
 18 17  1  0  0  0  0
 19 20  1  0  0  0  0
 21 22  2  0  0  0  0
 22 18  1  0  0  0  0
 23 22  1  0  0  0  0
 23 24  1  0  0  0  0
 24 26  1  0  0  0  0
 25 24  1  0  0  0  0
 27 28  1  0  0  0  0
 27 11  1  0  0  0  0
 29 28  1  0  0  0  0
 30 31  2  0  0  0  0
 31 29  1  0  0  0  0
 32 31  1  0  0  0  0
 33 37  1  0  0  0  0
 33 32  1  0  0  0  0
 34 35  2  0  0  0  0
 34 37  1  0  0  0  0
 35 43  1  0  0  0  0
 36 42  1  0  0  0  0
 37 41  2  0  0  0  0
 39 44  1  0  0  0  0
 41 36  1  0  0  0  0
 41 39  1  0  0  0  0
 42 38  1  6  0  0  0
 42 46  1  0  0  0  0
 42 45  1  0  0  0  0
 43 36  2  0  0  0  0
 44 40  1  6  0  0  0
 44 46  1  0  0  0  0
 46 40  1  6  0  0  0
 47 54  1  0  0  0  0
 47 66  1  0  0  0  0
 48 53  1  0  0  0  0
 49 53  2  0  0  0  0
 50 51  2  0  0  0  0
 50 54  1  0  0  0  0
 51 49  1  0  0  0  0
 52 50  1  0  0  0  0
 54 48  2  0  0  0  0
 55 59  1  0  0  0  0
 56 59  2  0  0  0  0
 56 51  1  0  0  0  0
 57 56  1  0  0  0  0
 58 60  1  0  0  0  0
 58 57  2  0  0  0  0
 60 55  2  0  0  0  0
 61 62  1  0  0  0  0
 62 60  1  0  0  0  0
 63 61  1  0  0  0  0
 63 64  1  0  0  0  0
 64 65  2  0  0  0  0
 64 62  1  0  0  0  0
 66 67  1  0  0  0  0
 67 69  1  0  0  0  0
 68 70  1  0  0  0  0
 69 68  3  0  0  0  0
M  END
>  <MODEL>
6

>  <REMARK>
 VINA RESULT:      -4.8      2.608      7.530
  Name = 
  20 active torsions:
  status: ('A' for Active; 'I' for Inactive)
    1  A    between atoms: O_7  and  C_47
    2  A    between atoms: O_7  and  C_62
    3  A    between atoms: N_8  and  C_39
    4  A    between atoms: N_8  and  N_53
    5  A    between atoms: N_12  and  C_69
    6  A    between atoms: C_13  and  C_15
    7  A    between atoms: C_13  and  C_27
    8  A    between atoms: C_18  and  C_44
    9  A    between atoms: C_19  and  C_67
   10  A    between atoms: C_20  and  CA_60
   11  A    between atoms: C_25  and  C_47
   12  A    between atoms: C_25  and  C_52
   13  A    between atoms: C_27  and  CA_60
   14  A    between atoms: C_29  and  N_53
   15  A    between atoms: C_30  and  C_39
   16  A    between atoms: N_32  and  C_40
   17  A    between atoms: N_38  and  C_62
   18  A    between atoms: N_38  and  C_67
   19  A    between atoms: N_50  and  CA_60
   20  A    between atoms: N_53  and  C_58
                            x       y       z     vdW  Elec       q    Type
                         _______ _______ _______ _____ _____    ______ ____

>  <TORSDO>
F 20

$$$$
