=
 OpenBabel11032419213D

 25 26  0  0  1  0  0  0  0  0999 V2000
  187.9490  177.5120  144.6040 C   0  0  0  0  0  3  0  0  0  0  0  0
  187.5400  177.8300  147.3560 C   0  0  0  0  0  3  0  0  0  0  0  0
  188.9920  177.2570  145.4990 C   0  0  0  0  0  0  0  0  0  0  0  0
  185.8260  178.0460  142.7010 C   0  0  0  0  0  1  0  0  0  0  0  0
  184.2150  178.7840  146.0710 C   0  0  0  0  0  3  0  0  0  0  0  0
  184.3900  178.6340  144.6930 C   0  0  0  0  0  0  0  0  0  0  0  0
  186.4980  178.0950  146.4650 C   0  0  0  0  0  0  0  0  0  0  0  0
  185.6330  178.2070  144.1790 C   0  0  0  0  0  0  0  0  0  0  0  0
  185.2620  178.5160  146.9530 C   0  0  0  0  0  3  0  0  0  0  0  0
  186.6940  177.9350  145.0710 C   0  0  0  0  0  0  0  0  0  0  0  0
  188.7830  177.4110  146.8760 C   0  0  0  0  0  3  0  0  0  0  0  0
  182.3820  179.1590  143.1300 N   0  0  0  0  0  0  0  0  0  0  0  0
  183.2770  178.9250  143.8250 C   0  0  0  0  0  0  0  0  0  0  0  0
  190.3170  176.8110  144.9680 C   0  0  2  0  0  3  0  0  0  0  0  0
  191.3710  177.1900  145.8960 N   0  0  0  0  0  2  0  0  0  0  0  0
  192.0850  175.9790  146.2630 C   0  0  0  0  0  2  0  0  0  0  0  0
  192.1970  175.8860  147.7720 C   0  0  0  0  0  1  0  0  0  0  0  0
  190.5710  177.3860  143.6880 O   0  0  0  0  0  0  0  0  0  0  0  0
  190.3730  175.4420  142.4920 O   0  0  0  0  0  0  0  0  0  0  0  0
  190.3600  176.7010  142.4870 C   0  0  0  0  0  0  0  0  0  0  0  0
  188.7950  177.2620  140.7880 O   0  0  0  0  0  1  0  0  0  0  0  0
  190.1160  177.4370  141.2020 C   0  0  2  0  0  3  0  0  0  0  0  0
  192.2430  177.4110  140.1240 O   0  0  0  0  0  0  0  0  0  0  0  0
  191.0590  176.9860  140.1330 C   0  0  0  0  0  0  0  0  0  0  0  0
  190.6290  176.0730  139.1270 N   0  0  0  0  0  1  0  0  0  0  0  0
  1 10  2  0  0  0  0
  1  3  1  0  0  0  0
  3 11  2  0  0  0  0
  4  8  1  0  0  0  0
  5  9  2  0  0  0  0
  6  5  1  0  0  0  0
  7  9  1  0  0  0  0
  7  2  2  0  0  0  0
  8  6  2  0  0  0  0
  8 10  1  0  0  0  0
 10  7  1  0  0  0  0
 11  2  1  0  0  0  0
 12 13  3  0  0  0  0
 13  6  1  0  0  0  0
 14 18  1  6  0  0  0
 14  3  1  0  0  0  0
 14 15  1  0  0  0  0
 15 16  1  0  0  0  0
 16 17  1  0  0  0  0
 20 19  2  0  0  0  0
 20 18  1  0  0  0  0
 22 21  1  6  0  0  0
 22 20  1  0  0  0  0
 23 24  2  0  0  0  0
 24 22  1  0  0  0  0
 25 24  1  0  0  0  0
M  END
>  <MODEL>
1

>  <REMARK>
 VINA RESULT:      -8.9      0.000      0.000
  Name = 
  8 active torsions:
  status: ('A' for Active; 'I' for Inactive)
    1  A    between atoms: C_3  and  C_5
    2  A    between atoms: N_4  and  C_5
    3  A    between atoms: N_4  and  C_15
    4  A    between atoms: C_5  and  O_10
    5  A    between atoms: O_10  and  C_19
    6  A    between atoms: C_11  and  C_12
    7  A    between atoms: C_11  and  C_19
    8  A    between atoms: C_16  and  C_22
                            x       y       z     vdW  Elec       q    Type
                         _______ _______ _______ _____ _____    ______ ____

>  <TORSDO>
F 8

$$$$
=
 OpenBabel11032419213D

 25 26  0  0  1  0  0  0  0  0999 V2000
  188.5790  177.2780  145.4550 C   0  0  0  0  0  3  0  0  0  0  0  0
  187.6140  178.0020  147.9820 C   0  0  0  0  0  3  0  0  0  0  0  0
  189.4000  177.1500  146.5800 C   0  0  0  0  0  0  0  0  0  0  0  0
  186.9260  177.5430  143.0860 C   0  0  0  0  0  1  0  0  0  0  0  0
  184.6730  178.7840  145.8940 C   0  0  0  0  0  3  0  0  0  0  0  0
  185.1290  178.4300  144.6210 C   0  0  0  0  0  0  0  0  0  0  0  0
  186.7930  178.1410  146.8600 C   0  0  0  0  0  0  0  0  0  0  0  0
  186.4340  177.9210  144.4510 C   0  0  0  0  0  0  0  0  0  0  0  0
  185.5000  178.6400  147.0080 C   0  0  0  0  0  3  0  0  0  0  0  0
  187.2720  177.7760  145.5780 C   0  0  0  0  0  0  0  0  0  0  0  0
  188.9120  177.5060  147.8440 C   0  0  0  0  0  3  0  0  0  0  0  0
  183.5160  178.7330  142.6050 N   0  0  0  0  0  0  0  0  0  0  0  0
  184.2350  178.5990  143.5030 C   0  0  0  0  0  0  0  0  0  0  0  0
  190.7880  176.6200  146.4130 C   0  0  2  0  0  3  0  0  0  0  0  0
  191.5680  176.9000  147.6090 N   0  0  0  0  0  2  0  0  0  0  0  0
  192.4440  175.7630  147.8340 C   0  0  0  0  0  2  0  0  0  0  0  0
  193.2580  175.9830  149.0940 C   0  0  0  0  0  1  0  0  0  0  0  0
  191.4220  177.2020  145.2760 O   0  0  0  0  0  0  0  0  0  0  0  0
  192.1140  175.3100  144.1860 O   0  0  0  0  0  0  0  0  0  0  0  0
  191.6870  176.4920  144.1010 C   0  0  0  0  0  0  0  0  0  0  0  0
  191.0730  178.4400  142.8850 O   0  0  0  0  0  1  0  0  0  0  0  0
  191.4680  177.1080  142.7500 C   0  0  2  0  0  3  0  0  0  0  0  0
  189.6350  175.5960  142.5600 O   0  0  0  0  0  0  0  0  0  0  0  0
  190.4530  176.3420  141.9640 C   0  0  0  0  0  0  0  0  0  0  0  0
  190.4010  176.4570  140.5450 N   0  0  0  0  0  1  0  0  0  0  0  0
  1 10  2  0  0  0  0
  1  3  1  0  0  0  0
  3 11  2  0  0  0  0
  4  8  1  0  0  0  0
  5  9  2  0  0  0  0
  6  5  1  0  0  0  0
  7  9  1  0  0  0  0
  7  2  2  0  0  0  0
  8  6  2  0  0  0  0
  8 10  1  0  0  0  0
 10  7  1  0  0  0  0
 11  2  1  0  0  0  0
 12 13  3  0  0  0  0
 13  6  1  0  0  0  0
 14 18  1  6  0  0  0
 14  3  1  0  0  0  0
 14 15  1  0  0  0  0
 15 16  1  0  0  0  0
 16 17  1  0  0  0  0
 20 19  2  0  0  0  0
 20 18  1  0  0  0  0
 22 21  1  1  0  0  0
 22 20  1  0  0  0  0
 24 23  2  0  0  0  0
 24 22  1  0  0  0  0
 25 24  1  0  0  0  0
M  END
>  <MODEL>
2

>  <REMARK>
 VINA RESULT:      -8.9      1.333      1.711
  Name = 
  8 active torsions:
  status: ('A' for Active; 'I' for Inactive)
    1  A    between atoms: C_3  and  C_5
    2  A    between atoms: N_4  and  C_5
    3  A    between atoms: N_4  and  C_15
    4  A    between atoms: C_5  and  O_10
    5  A    between atoms: O_10  and  C_19
    6  A    between atoms: C_11  and  C_12
    7  A    between atoms: C_11  and  C_19
    8  A    between atoms: C_16  and  C_22
                            x       y       z     vdW  Elec       q    Type
                         _______ _______ _______ _____ _____    ______ ____

>  <TORSDO>
F 8

$$$$
=
 OpenBabel11032419213D

 25 26  0  0  1  0  0  0  0  0999 V2000
  186.4140  178.2000  144.7480 C   0  0  0  0  0  3  0  0  0  0  0  0
  185.6130  178.5680  147.4050 C   0  0  0  0  0  3  0  0  0  0  0  0
  185.1080  178.6100  145.0330 C   0  0  0  0  0  0  0  0  0  0  0  0
  189.1050  177.3310  144.0990 C   0  0  0  0  0  1  0  0  0  0  0  0
  189.1090  177.4960  147.9030 C   0  0  0  0  0  3  0  0  0  0  0  0
  189.5360  177.3040  146.5860 C   0  0  0  0  0  0  0  0  0  0  0  0
  186.9160  178.1480  147.1260 C   0  0  0  0  0  0  0  0  0  0  0  0
  188.6500  177.5370  145.5130 C   0  0  0  0  0  0  0  0  0  0  0  0
  187.8070  177.9160  148.1720 C   0  0  0  0  0  3  0  0  0  0  0  0
  187.3310  177.9610  145.7850 C   0  0  0  0  0  0  0  0  0  0  0  0
  184.7130  178.8000  146.3640 C   0  0  0  0  0  3  0  0  0  0  0  0
  191.9810  176.5200  146.1850 N   0  0  0  0  0  0  0  0  0  0  0  0
  190.8920  176.8690  146.3630 C   0  0  0  0  0  0  0  0  0  0  0  0
  184.1570  178.8520  143.9060 C   0  0  2  0  0  3  0  0  0  0  0  0
  182.8330  178.3710  144.2690 N   0  0  0  0  0  2  0  0  0  0  0  0
  181.8660  179.1230  143.4850 C   0  0  0  0  0  2  0  0  0  0  0  0
  180.4610  178.6860  143.8470 C   0  0  0  0  0  1  0  0  0  0  0  0
  184.5990  178.1990  142.7180 O   0  0  0  0  0  0  0  0  0  0  0  0
  185.8890  179.5510  141.3930 O   0  0  0  0  0  0  0  0  0  0  0  0
  184.8340  178.8740  141.5160 C   0  0  0  0  0  0  0  0  0  0  0  0
  183.4990  177.4760  140.1330 O   0  0  0  0  0  1  0  0  0  0  0  0
  183.8600  178.8010  140.3760 C   0  0  2  0  0  3  0  0  0  0  0  0
  184.1380  180.6090  138.8460 O   0  0  0  0  0  0  0  0  0  0  0  0
  184.4280  179.4210  139.1400 C   0  0  0  0  0  0  0  0  0  0  0  0
  185.3020  178.6770  138.2940 N   0  0  0  0  0  1  0  0  0  0  0  0
  1  3  2  0  0  0  0
  1 10  1  0  0  0  0
  3 11  1  0  0  0  0
  4  8  1  0  0  0  0
  5  9  1  0  0  0  0
  6  5  2  0  0  0  0
  7  2  1  0  0  0  0
  7  9  2  0  0  0  0
  8 10  2  0  0  0  0
  8  6  1  0  0  0  0
 10  7  1  0  0  0  0
 11  2  2  0  0  0  0
 12 13  3  0  0  0  0
 13  6  1  0  0  0  0
 14 18  1  6  0  0  0
 14 15  1  0  0  0  0
 14  3  1  0  0  0  0
 16 17  1  0  0  0  0
 16 15  1  0  0  0  0
 19 20  2  0  0  0  0
 20 18  1  0  0  0  0
 22 21  1  6  0  0  0
 22 20  1  0  0  0  0
 23 24  2  0  0  0  0
 24 22  1  0  0  0  0
 25 24  1  0  0  0  0
M  END
>  <MODEL>
3

>  <REMARK>
 VINA RESULT:      -8.6      2.980      6.526
  Name = 
  8 active torsions:
  status: ('A' for Active; 'I' for Inactive)
    1  A    between atoms: C_3  and  C_5
    2  A    between atoms: N_4  and  C_5
    3  A    between atoms: N_4  and  C_15
    4  A    between atoms: C_5  and  O_10
    5  A    between atoms: O_10  and  C_19
    6  A    between atoms: C_11  and  C_12
    7  A    between atoms: C_11  and  C_19
    8  A    between atoms: C_16  and  C_22
                            x       y       z     vdW  Elec       q    Type
                         _______ _______ _______ _____ _____    ______ ____

>  <TORSDO>
F 8

$$$$
=
 OpenBabel11032419213D

 25 26  0  0  1  0  0  0  0  0999 V2000
  188.2620  177.7900  143.6000 C   0  0  0  0  0  3  0  0  0  0  0  0
  186.1140  178.0050  145.3830 C   0  0  0  0  0  3  0  0  0  0  0  0
  186.9870  178.1090  143.1230 C   0  0  0  0  0  0  0  0  0  0  0  0
  190.9240  177.1110  144.5330 C   0  0  0  0  0  1  0  0  0  0  0  0
  188.8350  177.1280  147.7170 C   0  0  0  0  0  3  0  0  0  0  0  0
  189.9250  177.0140  146.8500 C   0  0  0  0  0  0  0  0  0  0  0  0
  187.3840  177.6760  145.8640 C   0  0  0  0  0  0  0  0  0  0  0  0
  189.7560  177.2340  145.4660 C   0  0  0  0  0  0  0  0  0  0  0  0
  187.5710  177.4570  147.2280 C   0  0  0  0  0  3  0  0  0  0  0  0
  188.4770  177.5670  144.9700 C   0  0  0  0  0  0  0  0  0  0  0  0
  185.9160  178.2220  144.0180 C   0  0  0  0  0  3  0  0  0  0  0  0
  192.2410  176.3940  147.8540 N   0  0  0  0  0  0  0  0  0  0  0  0
  191.2100  176.6710  147.4070 C   0  0  0  0  0  0  0  0  0  0  0  0
  186.7920  178.3370  141.6580 C   0  0  2  0  0  3  0  0  0  0  0  0
  188.0440  178.7700  141.0570 N   0  0  0  0  0  2  0  0  0  0  0  0
  188.3270  177.8740  139.9480 C   0  0  0  0  0  2  0  0  0  0  0  0
  189.7750  177.4280  140.0040 C   0  0  0  0  0  1  0  0  0  0  0  0
  185.7820  179.3170  141.4260 O   0  0  0  0  0  0  0  0  0  0  0  0
  184.6170  179.8300  139.5220 O   0  0  0  0  0  0  0  0  0  0  0  0
  184.7070  179.1150  140.5550 C   0  0  0  0  0  0  0  0  0  0  0  0
  183.2890  177.4440  139.6340 O   0  0  0  0  0  1  0  0  0  0  0  0
  183.6690  178.0650  140.8250 C   0  0  2  0  0  3  0  0  0  0  0  0
  181.4250  178.8690  140.8570 O   0  0  0  0  0  0  0  0  0  0  0  0
  182.4760  178.6480  141.5110 C   0  0  0  0  0  0  0  0  0  0  0  0
  182.5170  178.9480  142.9030 N   0  0  0  0  0  1  0  0  0  0  0  0
  1 10  1  0  0  0  0
  2  7  1  0  0  0  0
  3  1  2  0  0  0  0
  3 11  1  0  0  0  0
  4  8  1  0  0  0  0
  6 13  1  0  0  0  0
  6  5  2  0  0  0  0
  7  9  2  0  0  0  0
  8  6  1  0  0  0  0
  9  5  1  0  0  0  0
 10  8  2  0  0  0  0
 10  7  1  0  0  0  0
 11  2  2  0  0  0  0
 13 12  3  0  0  0  0
 14 15  1  1  0  0  0
 14  3  1  0  0  0  0
 16 17  1  0  0  0  0
 16 15  1  0  0  0  0
 18 14  1  0  0  0  0
 19 20  2  0  0  0  0
 20 22  1  0  0  0  0
 20 18  1  0  0  0  0
 22 21  1  6  0  0  0
 22 24  1  0  0  0  0
 23 24  2  0  0  0  0
 24 25  1  0  0  0  0
M  END
>  <MODEL>
4

>  <REMARK>
 VINA RESULT:      -8.5      2.764      6.486
  Name = 
  8 active torsions:
  status: ('A' for Active; 'I' for Inactive)
    1  A    between atoms: C_3  and  C_5
    2  A    between atoms: N_4  and  C_5
    3  A    between atoms: N_4  and  C_15
    4  A    between atoms: C_5  and  O_10
    5  A    between atoms: O_10  and  C_19
    6  A    between atoms: C_11  and  C_12
    7  A    between atoms: C_11  and  C_19
    8  A    between atoms: C_16  and  C_22
                            x       y       z     vdW  Elec       q    Type
                         _______ _______ _______ _____ _____    ______ ____

>  <TORSDO>
F 8

$$$$
=
 OpenBabel11032419213D

 25 26  0  0  1  0  0  0  0  0999 V2000
  186.9280  178.0350  144.5370 C   0  0  0  0  0  3  0  0  0  0  0  0
  185.6390  178.6510  146.9450 C   0  0  0  0  0  3  0  0  0  0  0  0
  185.6090  178.5000  144.5250 C   0  0  0  0  0  0  0  0  0  0  0  0
  189.6560  177.0470  144.5060 C   0  0  0  0  0  1  0  0  0  0  0  0
  188.9240  177.5420  148.2100 C   0  0  0  0  0  3  0  0  0  0  0  0
  189.5920  177.2270  147.0230 C   0  0  0  0  0  0  0  0  0  0  0  0
  186.9530  178.1780  146.9630 C   0  0  0  0  0  0  0  0  0  0  0  0
  188.9420  177.3860  145.7810 C   0  0  0  0  0  0  0  0  0  0  0  0
  187.6120  178.0150  148.1810 C   0  0  0  0  0  3  0  0  0  0  0  0
  187.6140  177.8650  145.7510 C   0  0  0  0  0  0  0  0  0  0  0  0
  184.9700  178.8140  145.7310 C   0  0  0  0  0  3  0  0  0  0  0  0
  192.0340  176.3510  147.1780 N   0  0  0  0  0  0  0  0  0  0  0  0
  190.9460  176.7410  147.1080 C   0  0  0  0  0  0  0  0  0  0  0  0
  184.9070  178.6670  143.2150 C   0  0  2  0  0  3  0  0  0  0  0  0
  183.5330  178.2030  143.3320 N   0  0  0  0  0  2  0  0  0  0  0  0
  182.6960  179.1290  142.5880 C   0  0  0  0  0  2  0  0  0  0  0  0
  182.2360  178.4820  141.2970 C   0  0  0  0  0  1  0  0  0  0  0  0
  185.5740  177.9420  142.1840 O   0  0  0  0  0  0  0  0  0  0  0  0
  185.7320  179.4700  140.4850 O   0  0  0  0  0  0  0  0  0  0  0  0
  186.2890  178.5600  141.1540 C   0  0  0  0  0  0  0  0  0  0  0  0
  188.5980  178.9500  141.5650 O   0  0  0  0  0  1  0  0  0  0  0  0
  187.7020  178.1650  140.8380 C   0  0  2  0  0  3  0  0  0  0  0  0
  188.8100  179.1300  138.9600 O   0  0  0  0  0  0  0  0  0  0  0  0
  187.9810  178.2800  139.3740 C   0  0  0  0  0  0  0  0  0  0  0  0
  187.3200  177.4270  138.4420 N   0  0  0  0  0  1  0  0  0  0  0  0
  1 10  1  0  0  0  0
  2  7  1  0  0  0  0
  3  1  2  0  0  0  0
  3 11  1  0  0  0  0
  4  8  1  0  0  0  0
  6 13  1  0  0  0  0
  6  5  2  0  0  0  0
  7  9  2  0  0  0  0
  8  6  1  0  0  0  0
  9  5  1  0  0  0  0
 10  8  2  0  0  0  0
 10  7  1  0  0  0  0
 11  2  2  0  0  0  0
 13 12  3  0  0  0  0
 14 18  1  6  0  0  0
 14 15  1  0  0  0  0
 14  3  1  0  0  0  0
 16 15  1  0  0  0  0
 17 16  1  0  0  0  0
 19 20  2  0  0  0  0
 20 18  1  0  0  0  0
 22 20  1  0  0  0  0
 22 21  1  1  0  0  0
 23 24  2  0  0  0  0
 24 22  1  0  0  0  0
 25 24  1  0  0  0  0
M  END
>  <MODEL>
5

>  <REMARK>
 VINA RESULT:      -8.4      2.034      5.799
  Name = 
  8 active torsions:
  status: ('A' for Active; 'I' for Inactive)
    1  A    between atoms: C_3  and  C_5
    2  A    between atoms: N_4  and  C_5
    3  A    between atoms: N_4  and  C_15
    4  A    between atoms: C_5  and  O_10
    5  A    between atoms: O_10  and  C_19
    6  A    between atoms: C_11  and  C_12
    7  A    between atoms: C_11  and  C_19
    8  A    between atoms: C_16  and  C_22
                            x       y       z     vdW  Elec       q    Type
                         _______ _______ _______ _____ _____    ______ ____

>  <TORSDO>
F 8

$$$$
=
 OpenBabel11032419213D

 25 26  0  0  1  0  0  0  0  0999 V2000
  187.1360  177.5890  143.1260 C   0  0  0  0  0  3  0  0  0  0  0  0
  187.4020  177.7510  145.9090 C   0  0  0  0  0  3  0  0  0  0  0  0
  188.3570  177.2720  143.7310 C   0  0  0  0  0  0  0  0  0  0  0  0
  184.6350  178.2550  141.8170 C   0  0  0  0  0  1  0  0  0  0  0  0
  183.8910  178.8130  145.5100 C   0  0  0  0  0  3  0  0  0  0  0  0
  183.7300  178.7410  144.1230 C   0  0  0  0  0  0  0  0  0  0  0  0
  186.1840  178.0780  145.3090 C   0  0  0  0  0  0  0  0  0  0  0  0
  184.8040  178.3310  143.3050 C   0  0  0  0  0  0  0  0  0  0  0  0
  185.1110  178.4830  146.1000 C   0  0  0  0  0  3  0  0  0  0  0  0
  186.0400  177.9980  143.9020 C   0  0  0  0  0  0  0  0  0  0  0  0
  188.4840  177.3470  145.1240 C   0  0  0  0  0  3  0  0  0  0  0  0
  181.4200  179.3770  143.1160 N   0  0  0  0  0  0  0  0  0  0  0  0
  182.4490  179.0940  143.5640 C   0  0  0  0  0  0  0  0  0  0  0  0
  189.5060  176.8440  142.8760 C   0  0  2  0  0  3  0  0  0  0  0  0
  190.7170  176.7740  143.6780 N   0  0  0  0  0  2  0  0  0  0  0  0
  191.6220  177.8010  143.1920 C   0  0  0  0  0  2  0  0  0  0  0  0
  191.6460  178.9650  144.1620 C   0  0  0  0  0  1  0  0  0  0  0  0
  189.6980  177.7500  141.7910 O   0  0  0  0  0  0  0  0  0  0  0  0
  190.2940  176.2690  140.1480 O   0  0  0  0  0  0  0  0  0  0  0  0
  189.7170  177.3470  140.4520 C   0  0  0  0  0  0  0  0  0  0  0  0
  187.7860  178.5610  139.7830 O   0  0  0  0  0  1  0  0  0  0  0  0
  189.0630  178.1680  139.3800 C   0  0  2  0  0  3  0  0  0  0  0  0
  189.8900  177.5730  137.2240 O   0  0  0  0  0  0  0  0  0  0  0  0
  188.9910  177.4160  138.0900 C   0  0  0  0  0  0  0  0  0  0  0  0
  187.9160  176.5150  137.8360 N   0  0  0  0  0  1  0  0  0  0  0  0
  1  3  2  0  0  0  0
  1 10  1  0  0  0  0
  3 11  1  0  0  0  0
  4  8  1  0  0  0  0
  5  9  1  0  0  0  0
  6  5  2  0  0  0  0
  7  2  1  0  0  0  0
  7  9  2  0  0  0  0
  8 10  2  0  0  0  0
  8  6  1  0  0  0  0
 10  7  1  0  0  0  0
 11  2  2  0  0  0  0
 12 13  3  0  0  0  0
 13  6  1  0  0  0  0
 14 18  1  6  0  0  0
 14 15  1  0  0  0  0
 14  3  1  0  0  0  0
 16 15  1  0  0  0  0
 16 17  1  0  0  0  0
 19 20  2  0  0  0  0
 20 18  1  0  0  0  0
 22 21  1  1  0  0  0
 22 20  1  0  0  0  0
 23 24  2  0  0  0  0
 24 22  1  0  0  0  0
 25 24  1  0  0  0  0
M  END
>  <MODEL>
6

>  <REMARK>
 VINA RESULT:      -8.4      1.880      2.234
  Name = 
  8 active torsions:
  status: ('A' for Active; 'I' for Inactive)
    1  A    between atoms: C_3  and  C_5
    2  A    between atoms: N_4  and  C_5
    3  A    between atoms: N_4  and  C_15
    4  A    between atoms: C_5  and  O_10
    5  A    between atoms: O_10  and  C_19
    6  A    between atoms: C_11  and  C_12
    7  A    between atoms: C_11  and  C_19
    8  A    between atoms: C_16  and  C_22
                            x       y       z     vdW  Elec       q    Type
                         _______ _______ _______ _____ _____    ______ ____

>  <TORSDO>
F 8

$$$$
=
 OpenBabel11032419213D

 25 26  0  0  1  0  0  0  0  0999 V2000
  186.6940  178.0210  144.4250 C   0  0  0  0  0  3  0  0  0  0  0  0
  185.5090  178.6000  146.8950 C   0  0  0  0  0  3  0  0  0  0  0  0
  185.3710  178.4690  144.4770 C   0  0  0  0  0  0  0  0  0  0  0  0
  189.4300  177.0690  144.2600 C   0  0  0  0  0  1  0  0  0  0  0  0
  188.8610  177.5210  147.9990 C   0  0  0  0  0  3  0  0  0  0  0  0
  189.4780  177.2250  146.7800 C   0  0  0  0  0  0  0  0  0  0  0  0
  186.8280  178.1430  146.8490 C   0  0  0  0  0  0  0  0  0  0  0  0
  188.7710  177.3870  145.5700 C   0  0  0  0  0  0  0  0  0  0  0  0
  187.5440  177.9780  148.0340 C   0  0  0  0  0  3  0  0  0  0  0  0
  187.4370  177.8490  145.6050 C   0  0  0  0  0  0  0  0  0  0  0  0
  184.7830  178.7650  145.7130 C   0  0  0  0  0  3  0  0  0  0  0  0
  191.9350  176.3800  146.8150 N   0  0  0  0  0  0  0  0  0  0  0  0
  190.8410  176.7550  146.7990 C   0  0  0  0  0  0  0  0  0  0  0  0
  184.6080  178.6390  143.2020 C   0  0  2  0  0  3  0  0  0  0  0  0
  185.3260  179.5400  142.3150 N   0  0  0  0  0  2  0  0  0  0  0  0
  185.6540  178.7970  141.1100 C   0  0  0  0  0  2  0  0  0  0  0  0
  187.1560  178.6280  141.0040 C   0  0  0  0  0  1  0  0  0  0  0  0
  183.3010  179.1510  143.4560 O   0  0  0  0  0  0  0  0  0  0  0  0
  182.3700  178.2650  141.5600 O   0  0  0  0  0  0  0  0  0  0  0  0
  182.1900  178.8390  142.6670 C   0  0  0  0  0  0  0  0  0  0  0  0
  180.5150  178.5340  144.3260 O   0  0  0  0  0  1  0  0  0  0  0  0
  180.7960  179.1680  143.1150 C   0  0  2  0  0  3  0  0  0  0  0  0
  179.3520  177.6020  142.0430 O   0  0  0  0  0  0  0  0  0  0  0  0
  179.7890  178.7810  142.0800 C   0  0  0  0  0  0  0  0  0  0  0  0
  179.3150  179.7400  141.1380 N   0  0  0  0  0  1  0  0  0  0  0  0
  1  3  2  0  0  0  0
  1 10  1  0  0  0  0
  3 11  1  0  0  0  0
  4  8  1  0  0  0  0
  5  9  1  0  0  0  0
  6 13  1  0  0  0  0
  6  5  2  0  0  0  0
  7  2  1  0  0  0  0
  7  9  2  0  0  0  0
  8 10  2  0  0  0  0
  8  6  1  0  0  0  0
 10  7  1  0  0  0  0
 11  2  2  0  0  0  0
 13 12  3  0  0  0  0
 14 15  1  6  0  0  0
 14 18  1  0  0  0  0
 14  3  1  0  0  0  0
 16 15  1  0  0  0  0
 17 16  1  0  0  0  0
 19 20  2  0  0  0  0
 20 22  1  0  0  0  0
 20 18  1  0  0  0  0
 22 21  1  1  0  0  0
 23 24  2  0  0  0  0
 24 22  1  0  0  0  0
 25 24  1  0  0  0  0
M  END
>  <MODEL>
7

>  <REMARK>
 VINA RESULT:      -8.3      3.830      7.470
  Name = 
  8 active torsions:
  status: ('A' for Active; 'I' for Inactive)
    1  A    between atoms: C_3  and  C_5
    2  A    between atoms: N_4  and  C_5
    3  A    between atoms: N_4  and  C_15
    4  A    between atoms: C_5  and  O_10
    5  A    between atoms: O_10  and  C_19
    6  A    between atoms: C_11  and  C_12
    7  A    between atoms: C_11  and  C_19
    8  A    between atoms: C_16  and  C_22
                            x       y       z     vdW  Elec       q    Type
                         _______ _______ _______ _____ _____    ______ ____

>  <TORSDO>
F 8

$$$$
=
 OpenBabel11032419213D

 25 26  0  0  1  0  0  0  0  0999 V2000
  186.7630  177.8790  144.2730 C   0  0  0  0  0  3  0  0  0  0  0  0
  185.3220  178.6200  146.5560 C   0  0  0  0  0  3  0  0  0  0  0  0
  187.3880  177.8800  145.5230 C   0  0  0  0  0  0  0  0  0  0  0  0
  185.5210  177.8780  141.6510 C   0  0  0  0  0  1  0  0  0  0  0  0
  182.7240  179.0230  143.9670 C   0  0  0  0  0  3  0  0  0  0  0  0
  183.4190  178.6580  142.8100 C   0  0  0  0  0  0  0  0  0  0  0  0
  184.6960  178.6300  145.3080 C   0  0  0  0  0  0  0  0  0  0  0  0
  184.7730  178.2690  142.8900 C   0  0  0  0  0  0  0  0  0  0  0  0
  183.3580  179.0090  145.2090 C   0  0  0  0  0  3  0  0  0  0  0  0
  185.4150  178.2550  144.1470 C   0  0  0  0  0  0  0  0  0  0  0  0
  186.6630  178.2450  146.6650 C   0  0  0  0  0  3  0  0  0  0  0  0
  182.1540  178.7160  140.5410 N   0  0  0  0  0  0  0  0  0  0  0  0
  182.7170  178.6900  141.5520 C   0  0  0  0  0  0  0  0  0  0  0  0
  188.8250  177.4780  145.6210 C   0  0  2  0  0  3  0  0  0  0  0  0
  189.3280  177.7740  146.9530 N   0  0  0  0  0  2  0  0  0  0  0  0
  189.9630  176.5670  147.4570 C   0  0  0  0  0  2  0  0  0  0  0  0
  191.4690  176.6900  147.3340 C   0  0  0  0  0  1  0  0  0  0  0  0
  189.6110  178.1590  144.6460 O   0  0  0  0  0  0  0  0  0  0  0  0
  191.6330  177.7540  143.6480 O   0  0  0  0  0  0  0  0  0  0  0  0
  190.4020  177.4960  143.7020 C   0  0  0  0  0  0  0  0  0  0  0  0
  190.5600  175.3060  142.7890 O   0  0  0  0  0  1  0  0  0  0  0  0
  189.8130  176.4850  142.7620 C   0  0  2  0  0  3  0  0  0  0  0  0
  189.0570  178.0510  141.1300 O   0  0  0  0  0  0  0  0  0  0  0  0
  189.7380  177.0200  141.3680 C   0  0  0  0  0  0  0  0  0  0  0  0
  190.4390  176.3770  140.3080 N   0  0  0  0  0  1  0  0  0  0  0  0
  1  3  1  0  0  0  0
  2 11  1  0  0  0  0
  3 14  1  0  0  0  0
  3 11  2  0  0  0  0
  4  8  1  0  0  0  0
  5  9  2  0  0  0  0
  6  8  2  0  0  0  0
  6  5  1  0  0  0  0
  7  2  2  0  0  0  0
  8 10  1  0  0  0  0
  9  7  1  0  0  0  0
 10  1  2  0  0  0  0
 10  7  1  0  0  0  0
 12 13  3  0  0  0  0
 13  6  1  0  0  0  0
 14 18  1  6  0  0  0
 14 15  1  0  0  0  0
 15 16  1  0  0  0  0
 17 16  1  0  0  0  0
 19 20  2  0  0  0  0
 20 18  1  0  0  0  0
 22 21  1  6  0  0  0
 22 20  1  0  0  0  0
 23 24  2  0  0  0  0
 24 22  1  0  0  0  0
 25 24  1  0  0  0  0
M  END
>  <MODEL>
8

>  <REMARK>
 VINA RESULT:      -8.2      1.350      2.169
  Name = 
  8 active torsions:
  status: ('A' for Active; 'I' for Inactive)
    1  A    between atoms: C_3  and  C_5
    2  A    between atoms: N_4  and  C_5
    3  A    between atoms: N_4  and  C_15
    4  A    between atoms: C_5  and  O_10
    5  A    between atoms: O_10  and  C_19
    6  A    between atoms: C_11  and  C_12
    7  A    between atoms: C_11  and  C_19
    8  A    between atoms: C_16  and  C_22
                            x       y       z     vdW  Elec       q    Type
                         _______ _______ _______ _____ _____    ______ ____

>  <TORSDO>
F 8

$$$$
=
 OpenBabel11032419213D

 25 26  0  0  1  0  0  0  0  0999 V2000
  186.7030  177.8520  143.9870 C   0  0  0  0  0  3  0  0  0  0  0  0
  185.1440  178.6750  146.1620 C   0  0  0  0  0  3  0  0  0  0  0  0
  185.3980  178.3090  143.7780 C   0  0  0  0  0  0  0  0  0  0  0  0
  189.4090  176.8770  144.3650 C   0  0  0  0  0  1  0  0  0  0  0  0
  188.2500  177.6960  147.8990 C   0  0  0  0  0  3  0  0  0  0  0  0
  189.0510  177.2790  146.8310 C   0  0  0  0  0  0  0  0  0  0  0  0
  186.4440  178.2100  146.3770 C   0  0  0  0  0  0  0  0  0  0  0  0
  188.5530  177.3250  145.5120 C   0  0  0  0  0  0  0  0  0  0  0  0
  186.9540  178.1590  147.6740 C   0  0  0  0  0  3  0  0  0  0  0  0
  187.2410  177.7930  145.2830 C   0  0  0  0  0  0  0  0  0  0  0  0
  184.6230  178.7260  144.8680 C   0  0  0  0  0  3  0  0  0  0  0  0
  191.4510  176.4290  147.3500 N   0  0  0  0  0  0  0  0  0  0  0  0
  190.3820  176.8080  147.1190 C   0  0  0  0  0  0  0  0  0  0  0  0
  184.8560  178.3550  142.3860 C   0  0  2  0  0  3  0  0  0  0  0  0
  185.5920  179.3370  141.6040 N   0  0  0  0  0  2  0  0  0  0  0  0
  186.2040  178.6350  140.4880 C   0  0  0  0  0  2  0  0  0  0  0  0
  187.7090  178.6010  140.6660 C   0  0  0  0  0  1  0  0  0  0  0  0
  183.4690  178.6850  142.3910 O   0  0  0  0  0  0  0  0  0  0  0  0
  182.9390  177.3380  140.6160 O   0  0  0  0  0  0  0  0  0  0  0  0
  182.5730  178.2410  141.4140 C   0  0  0  0  0  0  0  0  0  0  0  0
  181.1770  179.8710  140.3910 O   0  0  0  0  0  1  0  0  0  0  0  0
  181.1900  178.8150  141.3030 C   0  0  2  0  0  3  0  0  0  0  0  0
  180.4880  180.4980  142.8390 O   0  0  0  0  0  0  0  0  0  0  0  0
  180.6860  179.2730  142.6340 C   0  0  0  0  0  0  0  0  0  0  0  0
  180.4220  178.3310  143.6710 N   0  0  0  0  0  1  0  0  0  0  0  0
  1 10  1  0  0  0  0
  2  7  1  0  0  0  0
  3  1  2  0  0  0  0
  3 11  1  0  0  0  0
  4  8  1  0  0  0  0
  6 13  1  0  0  0  0
  6  5  2  0  0  0  0
  7  9  2  0  0  0  0
  8  6  1  0  0  0  0
  9  5  1  0  0  0  0
 10  8  2  0  0  0  0
 10  7  1  0  0  0  0
 11  2  2  0  0  0  0
 13 12  3  0  0  0  0
 14 15  1  6  0  0  0
 14 18  1  0  0  0  0
 14  3  1  0  0  0  0
 16 17  1  0  0  0  0
 16 15  1  0  0  0  0
 19 20  2  0  0  0  0
 20 18  1  0  0  0  0
 22 21  1  6  0  0  0
 22 20  1  0  0  0  0
 22 24  1  0  0  0  0
 24 23  2  0  0  0  0
 24 25  1  0  0  0  0
M  END
>  <MODEL>
9

>  <REMARK>
 VINA RESULT:      -8.2      3.593      7.165
  Name = 
  8 active torsions:
  status: ('A' for Active; 'I' for Inactive)
    1  A    between atoms: C_3  and  C_5
    2  A    between atoms: N_4  and  C_5
    3  A    between atoms: N_4  and  C_15
    4  A    between atoms: C_5  and  O_10
    5  A    between atoms: O_10  and  C_19
    6  A    between atoms: C_11  and  C_12
    7  A    between atoms: C_11  and  C_19
    8  A    between atoms: C_16  and  C_22
                            x       y       z     vdW  Elec       q    Type
                         _______ _______ _______ _____ _____    ______ ____

>  <TORSDO>
F 8

$$$$
