=
 OpenBabel11042410253D

 29 32  0  0  1  0  0  0  0  0999 V2000
  187.6250  178.6340  140.6390 N   0  0  0  0  0  0  0  0  0  0  0  0
  188.4350  178.2830  139.6860 C   0  0  0  0  0  0  0  0  0  0  0  0
  187.9570  177.9940  138.2880 C   0  0  2  0  0  3  0  0  0  0  0  0
  189.3650  176.6530  136.1420 C   0  0  0  0  0  3  0  0  0  0  0  0
  189.4830  177.9420  136.2390 N   0  0  0  0  0  0  0  0  0  0  0  0
  187.8500  176.5090  138.0510 C   0  0  0  0  0  3  0  0  0  0  0  0
  188.5060  175.8940  137.0640 C   0  0  0  0  0  3  0  0  0  0  0  0
  188.7960  178.6940  137.2470 C   0  0  0  0  0  0  0  0  0  0  0  0
  188.8880  179.9490  137.2550 O   0  0  0  0  0  0  0  0  0  0  0  0
  186.2660  178.7340  140.4420 O   0  0  0  0  0  0  0  0  0  0  0  0
  184.2250  178.2690  141.5940 C   0  0  0  0  0  2  0  0  0  0  0  0
  185.4260  179.1830  141.4890 C   0  0  1  0  0  3  0  0  0  0  0  0
  185.3770  178.1200  142.5660 C   0  0  1  0  0  3  0  0  0  0  0  0
  185.0100  178.7750  143.8840 C   0  0  0  0  0  2  0  0  0  0  0  0
  187.9600  178.1620  146.8090 O   0  0  0  0  0  0  0  0  0  0  0  0
  186.6620  178.3420  147.3220 C   0  0  0  0  0  2  0  0  0  0  0  0
  187.8740  177.1500  145.8350 C   0  0  0  0  0  2  0  0  0  0  0  0
  185.7080  178.0750  145.0370 C   0  0  0  0  0  3  0  0  0  0  0  0
  185.7690  178.9890  146.2630 C   0  0  0  0  0  2  0  0  0  0  0  0
  187.1150  177.6670  144.6130 C   0  0  0  0  0  2  0  0  0  0  0  0
  189.8990  178.2320  139.9640 C   0  0  0  0  0  2  0  0  0  0  0  0
  190.2200  177.0750  140.8570 C   0  0  0  0  0  0  0  0  0  0  0  0
  190.2070  175.9130  140.3690 O   0  0  0  0  0  0  0  0  0  0  0  0
  190.8120  178.7500  144.1940 C   0  0  0  0  0  3  0  0  0  0  0  0
  191.2520  177.6750  144.9720 C   0  0  0  0  0  3  0  0  0  0  0  0
  191.0210  176.2050  143.0630 C   0  0  0  0  0  3  0  0  0  0  0  0
  190.4770  178.5530  142.8520 C   0  0  0  0  0  3  0  0  0  0  0  0
  191.3570  176.4030  144.4050 C   0  0  0  0  0  3  0  0  0  0  0  0
  190.5780  177.2780  142.2750 C   0  0  0  0  0  0  0  0  0  0  0  0
  2 21  1  0  0  0  0
  2  1  2  0  0  0  0
  3  2  1  1  0  0  0
  4  5  2  0  0  0  0
  4  7  1  0  0  0  0
  5  8  1  0  0  0  0
  6  3  1  0  0  0  0
  7  6  2  0  0  0  0
  8  9  2  0  0  0  0
  8  3  1  0  0  0  0
 10  1  1  0  0  0  0
 11 13  1  0  0  0  0
 12 10  1  6  0  0  0
 12 11  1  0  0  0  0
 12 13  1  0  0  0  0
 13 14  1  1  0  0  0
 14 18  1  0  0  0  0
 15 16  1  0  0  0  0
 17 15  1  0  0  0  0
 18 19  1  0  0  0  0
 19 16  1  0  0  0  0
 20 18  1  0  0  0  0
 20 17  1  0  0  0  0
 21 22  1  0  0  0  0
 22 29  1  0  0  0  0
 23 22  2  0  0  0  0
 24 25  1  0  0  0  0
 26 28  1  0  0  0  0
 27 24  2  0  0  0  0
 28 25  2  0  0  0  0
 29 27  1  0  0  0  0
 29 26  2  0  0  0  0
M  END
>  <MODEL>
1

>  <REMARK>
 VINA RESULT:      -8.0      0.000      0.000
  Name = 
  8 active torsions:
  status: ('A' for Active; 'I' for Inactive)
    1  A    between atoms: N_2  and  O_19
    2  A    between atoms: C_5  and  C_9
    3  A    between atoms: C_9  and  C_25
    4  A    between atoms: C_14  and  O_19
    5  A    between atoms: C_16  and  C_22
    6  A    between atoms: C_16  and  C_25
    7  A    between atoms: C_20  and  C_24
    8  A    between atoms: C_21  and  C_24
                            x       y       z     vdW  Elec       q    Type
                         _______ _______ _______ _____ _____    ______ ____

>  <TORSDO>
F 8

$$$$
=
 OpenBabel11042410253D

 29 32  0  0  1  0  0  0  0  0999 V2000
  190.1270  176.6810  141.2120 N   0  0  0  0  0  0  0  0  0  0  0  0
  190.1760  176.4540  142.4910 C   0  0  0  0  0  0  0  0  0  0  0  0
  191.4350  176.6350  143.2940 C   0  0  2  0  0  3  0  0  0  0  0  0
  191.7630  176.5930  146.1710 C   0  0  0  0  0  3  0  0  0  0  0  0
  191.5150  177.7320  145.6000 N   0  0  0  0  0  0  0  0  0  0  0  0
  191.7760  175.3780  144.0530 C   0  0  0  0  0  3  0  0  0  0  0  0
  191.9200  175.3620  145.3800 C   0  0  0  0  0  3  0  0  0  0  0  0
  191.3720  177.8550  144.1800 C   0  0  0  0  0  0  0  0  0  0  0  0
  191.2020  178.9930  143.6690 O   0  0  0  0  0  0  0  0  0  0  0  0
  191.2370  177.0730  140.4980 O   0  0  0  0  0  0  0  0  0  0  0  0
  190.6180  175.9770  138.4670 C   0  0  0  0  0  2  0  0  0  0  0  0
  191.1570  177.2430  139.0960 C   0  0  1  0  0  3  0  0  0  0  0  0
  189.7040  177.1670  138.6760 C   0  0  1  0  0  3  0  0  0  0  0  0
  189.5350  177.9060  137.3610 C   0  0  0  0  0  2  0  0  0  0  0  0
  185.4370  177.0150  137.1450 O   0  0  0  0  0  0  0  0  0  0  0  0
  185.7560  178.0790  138.0090 C   0  0  0  0  0  2  0  0  0  0  0  0
  186.0460  177.3000  135.9090 C   0  0  0  0  0  2  0  0  0  0  0  0
  188.0650  178.1600  137.0810 C   0  0  0  0  0  3  0  0  0  0  0  0
  187.2420  178.0340  138.3650 C   0  0  0  0  0  2  0  0  0  0  0  0
  187.5640  177.1690  136.0340 C   0  0  0  0  0  2  0  0  0  0  0  0
  188.9240  176.0680  143.2040 C   0  0  0  0  0  2  0  0  0  0  0  0
  187.9730  177.2220  143.2490 C   0  0  0  0  0  0  0  0  0  0  0  0
  187.7130  177.8340  142.1780 O   0  0  0  0  0  0  0  0  0  0  0  0
  185.3950  178.5350  145.6840 C   0  0  0  0  0  3  0  0  0  0  0  0
  186.0670  178.3970  146.9020 C   0  0  0  0  0  3  0  0  0  0  0  0
  187.9860  177.4920  145.7380 C   0  0  0  0  0  3  0  0  0  0  0  0
  186.0190  178.1520  144.4930 C   0  0  0  0  0  3  0  0  0  0  0  0
  187.3620  177.8760  146.9280 C   0  0  0  0  0  3  0  0  0  0  0  0
  187.3200  177.6270  144.5100 C   0  0  0  0  0  0  0  0  0  0  0  0
  1  2  2  0  0  0  0
  2 21  1  0  0  0  0
  3  2  1  1  0  0  0
  3  6  1  0  0  0  0
  3  8  1  0  0  0  0
  5  4  2  0  0  0  0
  6  7  2  0  0  0  0
  7  4  1  0  0  0  0
  8  5  1  0  0  0  0
  9  8  2  0  0  0  0
 10  1  1  0  0  0  0
 11 13  1  0  0  0  0
 11 12  1  0  0  0  0
 12 10  1  1  0  0  0
 13 14  1  6  0  0  0
 13 12  1  0  0  0  0
 15 16  1  0  0  0  0
 16 19  1  0  0  0  0
 17 20  1  0  0  0  0
 17 15  1  0  0  0  0
 18 14  1  0  0  0  0
 18 19  1  0  0  0  0
 20 18  1  0  0  0  0
 21 22  1  0  0  0  0
 22 29  1  0  0  0  0
 23 22  2  0  0  0  0
 24 25  1  0  0  0  0
 25 28  2  0  0  0  0
 26 28  1  0  0  0  0
 27 29  1  0  0  0  0
 27 24  2  0  0  0  0
 29 26  2  0  0  0  0
M  END
>  <MODEL>
2

>  <REMARK>
 VINA RESULT:      -7.9      2.239      6.962
  Name = 
  8 active torsions:
  status: ('A' for Active; 'I' for Inactive)
    1  A    between atoms: N_2  and  O_19
    2  A    between atoms: C_5  and  C_9
    3  A    between atoms: C_9  and  C_25
    4  A    between atoms: C_14  and  O_19
    5  A    between atoms: C_16  and  C_22
    6  A    between atoms: C_16  and  C_25
    7  A    between atoms: C_20  and  C_24
    8  A    between atoms: C_21  and  C_24
                            x       y       z     vdW  Elec       q    Type
                         _______ _______ _______ _____ _____    ______ ____

>  <TORSDO>
F 8

$$$$
=
 OpenBabel11042410253D

 29 32  0  0  1  0  0  0  0  0999 V2000
  186.6320  177.0980  145.1040 N   0  0  0  0  0  0  0  0  0  0  0  0
  187.8730  177.1450  144.7220 C   0  0  0  0  0  0  0  0  0  0  0  0
  188.9460  177.8020  145.5490 C   0  0  2  0  0  3  0  0  0  0  0  0
  191.6990  176.9810  145.9140 C   0  0  0  0  0  3  0  0  0  0  0  0
  190.8100  176.5280  146.7450 N   0  0  0  0  0  0  0  0  0  0  0  0
  190.0660  178.3070  144.6750 C   0  0  0  0  0  3  0  0  0  0  0  0
  191.3330  177.9210  144.8430 C   0  0  0  0  0  3  0  0  0  0  0  0
  189.4300  176.9080  146.6630 C   0  0  0  0  0  0  0  0  0  0  0  0
  188.6200  176.4970  147.5350 O   0  0  0  0  0  0  0  0  0  0  0  0
  186.2070  177.6750  146.2790 O   0  0  0  0  0  0  0  0  0  0  0  0
  185.3560  179.7660  145.4980 C   0  0  0  0  0  2  0  0  0  0  0  0
  185.0660  178.5110  146.2900 C   0  0  1  0  0  3  0  0  0  0  0  0
  184.5470  178.6480  144.8740 C   0  0  1  0  0  3  0  0  0  0  0  0
  183.0740  179.0070  144.9250 C   0  0  0  0  0  2  0  0  0  0  0  0
  181.5700  177.9970  141.1360 O   0  0  0  0  0  0  0  0  0  0  0  0
  180.6960  178.7720  141.9210 C   0  0  0  0  0  2  0  0  0  0  0  0
  182.8060  178.6700  141.1210 C   0  0  0  0  0  2  0  0  0  0  0  0
  182.5390  179.2520  143.5250 C   0  0  0  0  0  3  0  0  0  0  0  0
  181.1160  178.7060  143.3890 C   0  0  0  0  0  2  0  0  0  0  0  0
  183.4580  178.5920  142.5020 C   0  0  0  0  0  2  0  0  0  0  0  0
  188.2660  176.4650  143.4550 C   0  0  0  0  0  2  0  0  0  0  0  0
  187.9890  177.3490  142.2810 C   0  0  0  0  0  0  0  0  0  0  0  0
  186.9760  178.0980  142.3120 O   0  0  0  0  0  0  0  0  0  0  0  0
  189.2970  177.9130  138.7780 C   0  0  0  0  0  3  0  0  0  0  0  0
  190.6080  177.4420  138.8900 C   0  0  0  0  0  3  0  0  0  0  0  0
  190.2120  176.9060  141.2180 C   0  0  0  0  0  3  0  0  0  0  0  0
  188.4440  177.8810  139.8850 C   0  0  0  0  0  3  0  0  0  0  0  0
  191.0650  176.9380  140.1110 C   0  0  0  0  0  3  0  0  0  0  0  0
  188.8940  177.3780  141.1140 C   0  0  0  0  0  0  0  0  0  0  0  0
  1 10  1  0  0  0  0
  2  1  2  0  0  0  0
  3  2  1  6  0  0  0
  3  8  1  0  0  0  0
  4  5  2  0  0  0  0
  6  7  2  0  0  0  0
  6  3  1  0  0  0  0
  7  4  1  0  0  0  0
  8  5  1  0  0  0  0
  8  9  2  0  0  0  0
 11 12  1  0  0  0  0
 12 10  1  6  0  0  0
 13 14  1  1  0  0  0
 13 11  1  0  0  0  0
 13 12  1  0  0  0  0
 15 16  1  0  0  0  0
 16 19  1  0  0  0  0
 17 15  1  0  0  0  0
 17 20  1  0  0  0  0
 18 14  1  0  0  0  0
 19 18  1  0  0  0  0
 20 18  1  0  0  0  0
 21  2  1  0  0  0  0
 22 23  2  0  0  0  0
 22 21  1  0  0  0  0
 24 25  2  0  0  0  0
 24 27  1  0  0  0  0
 25 28  1  0  0  0  0
 27 29  2  0  0  0  0
 28 26  2  0  0  0  0
 29 26  1  0  0  0  0
 29 22  1  0  0  0  0
M  END
>  <MODEL>
3

>  <REMARK>
 VINA RESULT:      -7.7      2.827      6.292
  Name = 
  8 active torsions:
  status: ('A' for Active; 'I' for Inactive)
    1  A    between atoms: N_2  and  O_19
    2  A    between atoms: C_5  and  C_9
    3  A    between atoms: C_9  and  C_25
    4  A    between atoms: C_14  and  O_19
    5  A    between atoms: C_16  and  C_22
    6  A    between atoms: C_16  and  C_25
    7  A    between atoms: C_20  and  C_24
    8  A    between atoms: C_21  and  C_24
                            x       y       z     vdW  Elec       q    Type
                         _______ _______ _______ _____ _____    ______ ____

>  <TORSDO>
F 8

$$$$
=
 OpenBabel11042410253D

 29 32  0  0  1  0  0  0  0  0999 V2000
  188.3890  177.9610  141.4700 N   0  0  0  0  0  0  0  0  0  0  0  0
  188.8870  177.2730  142.4540 C   0  0  0  0  0  0  0  0  0  0  0  0
  190.3670  177.1960  142.7150 C   0  0  2  0  0  3  0  0  0  0  0  0
  191.7320  176.4270  145.1510 C   0  0  0  0  0  3  0  0  0  0  0  0
  191.4460  177.6820  144.9800 N   0  0  0  0  0  0  0  0  0  0  0  0
  190.7930  175.7770  142.9930 C   0  0  0  0  0  3  0  0  0  0  0  0
  191.4160  175.4260  144.1200 C   0  0  0  0  0  3  0  0  0  0  0  0
  190.8030  178.1600  143.7920 C   0  0  0  0  0  0  0  0  0  0  0  0
  190.6100  179.3950  143.6440 O   0  0  0  0  0  0  0  0  0  0  0  0
  189.1870  178.6430  140.5790 O   0  0  0  0  0  0  0  0  0  0  0  0
  188.9850  177.0610  138.8000 C   0  0  0  0  0  2  0  0  0  0  0  0
  188.9620  178.5230  139.1870 C   0  0  1  0  0  3  0  0  0  0  0  0
  187.6620  177.7800  138.9640 C   0  0  1  0  0  3  0  0  0  0  0  0
  187.1180  178.1460  137.5960 C   0  0  0  0  0  2  0  0  0  0  0  0
  183.3300  176.7750  138.7810 O   0  0  0  0  0  0  0  0  0  0  0  0
  183.5300  178.1560  138.9590 C   0  0  0  0  0  2  0  0  0  0  0  0
  183.6730  176.4830  137.4480 C   0  0  0  0  0  2  0  0  0  0  0  0
  185.6020  178.0480  137.5840 C   0  0  0  0  0  3  0  0  0  0  0  0
  185.0250  178.4740  138.9350 C   0  0  0  0  0  2  0  0  0  0  0  0
  185.1840  176.6170  137.2580 C   0  0  0  0  0  2  0  0  0  0  0  0
  187.9600  176.5910  143.4010 C   0  0  0  0  0  2  0  0  0  0  0  0
  187.3400  177.5860  144.3310 C   0  0  0  0  0  0  0  0  0  0  0  0
  188.0330  178.0370  145.2830 O   0  0  0  0  0  0  0  0  0  0  0  0
  183.8930  178.9680  145.0430 C   0  0  0  0  0  3  0  0  0  0  0  0
  183.3260  178.9730  143.7660 C   0  0  0  0  0  3  0  0  0  0  0  0
  185.3790  178.0700  142.8540 C   0  0  0  0  0  3  0  0  0  0  0  0
  185.2030  178.5140  145.2250 C   0  0  0  0  0  3  0  0  0  0  0  0
  184.0690  178.5240  142.6710 C   0  0  0  0  0  3  0  0  0  0  0  0
  185.9560  178.0620  144.1330 C   0  0  0  0  0  0  0  0  0  0  0  0
  1  2  2  0  0  0  0
  2 21  1  0  0  0  0
  3  2  1  1  0  0  0
  3  6  1  0  0  0  0
  3  8  1  0  0  0  0
  5  4  2  0  0  0  0
  6  7  2  0  0  0  0
  7  4  1  0  0  0  0
  8  5  1  0  0  0  0
  9  8  2  0  0  0  0
 10  1  1  0  0  0  0
 11 13  1  0  0  0  0
 11 12  1  0  0  0  0
 12 10  1  1  0  0  0
 13 14  1  6  0  0  0
 13 12  1  0  0  0  0
 15 16  1  0  0  0  0
 17 15  1  0  0  0  0
 18 14  1  0  0  0  0
 18 19  1  0  0  0  0
 19 16  1  0  0  0  0
 20 17  1  0  0  0  0
 20 18  1  0  0  0  0
 21 22  1  0  0  0  0
 22 23  2  0  0  0  0
 24 27  1  0  0  0  0
 25 24  2  0  0  0  0
 26 29  1  0  0  0  0
 28 26  2  0  0  0  0
 28 25  1  0  0  0  0
 29 22  1  0  0  0  0
 29 27  2  0  0  0  0
M  END
>  <MODEL>
4

>  <REMARK>
 VINA RESULT:      -7.6      2.265      6.631
  Name = 
  8 active torsions:
  status: ('A' for Active; 'I' for Inactive)
    1  A    between atoms: N_2  and  O_19
    2  A    between atoms: C_5  and  C_9
    3  A    between atoms: C_9  and  C_25
    4  A    between atoms: C_14  and  O_19
    5  A    between atoms: C_16  and  C_22
    6  A    between atoms: C_16  and  C_25
    7  A    between atoms: C_20  and  C_24
    8  A    between atoms: C_21  and  C_24
                            x       y       z     vdW  Elec       q    Type
                         _______ _______ _______ _____ _____    ______ ____

>  <TORSDO>
F 8

$$$$
=
 OpenBabel11042410253D

 29 32  0  0  1  0  0  0  0  0999 V2000
  189.4000  178.2970  142.1560 N   0  0  0  0  0  0  0  0  0  0  0  0
  188.8130  178.3240  140.9980 C   0  0  0  0  0  0  0  0  0  0  0  0
  189.5710  178.1750  139.7060 C   0  0  2  0  0  3  0  0  0  0  0  0
  188.6900  176.9690  137.2250 C   0  0  0  0  0  3  0  0  0  0  0  0
  189.2820  176.2110  138.0980 N   0  0  0  0  0  0  0  0  0  0  0  0
  188.9200  178.9710  138.6040 C   0  0  0  0  0  3  0  0  0  0  0  0
  188.5090  178.4100  137.4640 C   0  0  0  0  0  3  0  0  0  0  0  0
  189.7830  176.7270  139.3370 C   0  0  0  0  0  0  0  0  0  0  0  0
  190.4110  175.9660  140.1180 O   0  0  0  0  0  0  0  0  0  0  0  0
  190.7650  178.1610  142.2800 O   0  0  0  0  0  0  0  0  0  0  0  0
  191.7190  178.8970  144.3430 C   0  0  0  0  0  2  0  0  0  0  0  0
  191.3280  177.7060  143.4960 C   0  0  1  0  0  3  0  0  0  0  0  0
  190.4380  178.1440  144.6400 C   0  0  1  0  0  3  0  0  0  0  0  0
  190.6640  177.2160  145.8190 C   0  0  0  0  0  2  0  0  0  0  0  0
  187.3110  178.5620  147.9590 O   0  0  0  0  0  0  0  0  0  0  0  0
  187.0060  177.7540  146.8490 C   0  0  0  0  0  2  0  0  0  0  0  0
  188.2580  177.8580  148.7260 C   0  0  0  0  0  2  0  0  0  0  0  0
  189.3990  177.0960  146.6510 C   0  0  0  0  0  3  0  0  0  0  0  0
  188.2050  177.6930  145.9030 C   0  0  0  0  0  2  0  0  0  0  0  0
  189.5950  177.8090  147.9860 C   0  0  0  0  0  2  0  0  0  0  0  0
  187.3270  178.4370  140.9430 C   0  0  0  0  0  2  0  0  0  0  0  0
  186.7130  177.8310  142.1660 C   0  0  0  0  0  0  0  0  0  0  0  0
  187.3730  176.9730  142.8120 O   0  0  0  0  0  0  0  0  0  0  0  0
  183.0240  178.6590  142.1820 C   0  0  0  0  0  3  0  0  0  0  0  0
  182.8250  179.0210  143.5170 C   0  0  0  0  0  3  0  0  0  0  0  0
  185.1660  178.6080  143.9740 C   0  0  0  0  0  3  0  0  0  0  0  0
  184.2930  178.2720  141.7430 C   0  0  0  0  0  3  0  0  0  0  0  0
  183.8970  178.9950  144.4130 C   0  0  0  0  0  3  0  0  0  0  0  0
  185.3750  178.2430  142.6350 C   0  0  0  0  0  0  0  0  0  0  0  0
  1 10  1  0  0  0  0
  2  1  2  0  0  0  0
  3  2  1  1  0  0  0
  4  7  1  0  0  0  0
  4  5  2  0  0  0  0
  5  8  1  0  0  0  0
  6  3  1  0  0  0  0
  7  6  2  0  0  0  0
  8  3  1  0  0  0  0
  8  9  2  0  0  0  0
 11 13  1  0  0  0  0
 12 10  1  6  0  0  0
 12 11  1  0  0  0  0
 12 13  1  0  0  0  0
 13 14  1  1  0  0  0
 14 18  1  0  0  0  0
 15 17  1  0  0  0  0
 16 15  1  0  0  0  0
 18 20  1  0  0  0  0
 19 18  1  0  0  0  0
 19 16  1  0  0  0  0
 20 17  1  0  0  0  0
 21  2  1  0  0  0  0
 21 22  1  0  0  0  0
 22 29  1  0  0  0  0
 22 23  2  0  0  0  0
 24 25  1  0  0  0  0
 25 28  2  0  0  0  0
 26 28  1  0  0  0  0
 27 24  2  0  0  0  0
 27 29  1  0  0  0  0
 29 26  2  0  0  0  0
M  END
>  <MODEL>
5

>  <REMARK>
 VINA RESULT:      -7.6      1.688      4.803
  Name = 
  8 active torsions:
  status: ('A' for Active; 'I' for Inactive)
    1  A    between atoms: N_2  and  O_19
    2  A    between atoms: C_5  and  C_9
    3  A    between atoms: C_9  and  C_25
    4  A    between atoms: C_14  and  O_19
    5  A    between atoms: C_16  and  C_22
    6  A    between atoms: C_16  and  C_25
    7  A    between atoms: C_20  and  C_24
    8  A    between atoms: C_21  and  C_24
                            x       y       z     vdW  Elec       q    Type
                         _______ _______ _______ _____ _____    ______ ____

>  <TORSDO>
F 8

$$$$
=
 OpenBabel11042410253D

 29 32  0  0  1  0  0  0  0  0999 V2000
  187.9580  177.8130  141.8080 N   0  0  0  0  0  0  0  0  0  0  0  0
  188.5980  177.1950  142.7550 C   0  0  0  0  0  0  0  0  0  0  0  0
  190.1000  177.0990  142.7830 C   0  0  2  0  0  3  0  0  0  0  0  0
  191.8170  176.3230  144.9820 C   0  0  0  0  0  3  0  0  0  0  0  0
  191.5240  177.5810  144.8490 N   0  0  0  0  0  0  0  0  0  0  0  0
  190.5450  175.6760  143.0010 C   0  0  0  0  0  3  0  0  0  0  0  0
  191.3320  175.3220  144.0200 C   0  0  0  0  0  3  0  0  0  0  0  0
  190.7110  178.0620  143.7720 C   0  0  0  0  0  0  0  0  0  0  0  0
  190.5130  179.2990  143.6470 O   0  0  0  0  0  0  0  0  0  0  0  0
  188.6110  178.3960  140.7450 O   0  0  0  0  0  0  0  0  0  0  0  0
  189.2050  178.7300  138.4550 C   0  0  0  0  0  2  0  0  0  0  0  0
  188.5340  177.8170  139.4570 C   0  0  1  0  0  3  0  0  0  0  0  0
  189.9360  177.5090  138.9750 C   0  0  1  0  0  3  0  0  0  0  0  0
  189.8660  176.4030  137.9380 C   0  0  0  0  0  2  0  0  0  0  0  0
  193.4330  174.6450  136.5900 O   0  0  0  0  0  0  0  0  0  0  0  0
  193.5780  175.4480  137.7360 C   0  0  0  0  0  2  0  0  0  0  0  0
  192.3910  173.7370  136.8590 C   0  0  0  0  0  2  0  0  0  0  0  0
  191.1040  175.5280  138.0110 C   0  0  0  0  0  3  0  0  0  0  0  0
  192.3710  176.3760  137.8790 C   0  0  0  0  0  2  0  0  0  0  0  0
  191.0540  174.4780  136.9050 C   0  0  0  0  0  2  0  0  0  0  0  0
  187.8250  176.6200  143.8930 C   0  0  0  0  0  2  0  0  0  0  0  0
  187.2970  177.7120  144.7690 C   0  0  0  0  0  0  0  0  0  0  0  0
  188.0800  178.2600  145.5910 O   0  0  0  0  0  0  0  0  0  0  0  0
  183.9330  178.6330  143.3090 C   0  0  0  0  0  3  0  0  0  0  0  0
  183.2340  179.0350  144.4500 C   0  0  0  0  0  3  0  0  0  0  0  0
  185.1880  178.5760  145.8040 C   0  0  0  0  0  3  0  0  0  0  0  0
  185.2590  178.2020  143.4150 C   0  0  0  0  0  3  0  0  0  0  0  0
  183.8620  179.0070  145.6980 C   0  0  0  0  0  3  0  0  0  0  0  0
  185.8970  178.1700  144.6630 C   0  0  0  0  0  0  0  0  0  0  0  0
  1  2  2  0  0  0  0
  2 21  1  0  0  0  0
  3  2  1  1  0  0  0
  3  6  1  0  0  0  0
  3  8  1  0  0  0  0
  5  4  2  0  0  0  0
  6  7  2  0  0  0  0
  7  4  1  0  0  0  0
  8  5  1  0  0  0  0
  9  8  2  0  0  0  0
 10  1  1  0  0  0  0
 11 13  1  0  0  0  0
 11 12  1  0  0  0  0
 12 10  1  1  0  0  0
 13 14  1  6  0  0  0
 13 12  1  0  0  0  0
 14 18  1  0  0  0  0
 15 17  1  0  0  0  0
 15 16  1  0  0  0  0
 16 19  1  0  0  0  0
 17 20  1  0  0  0  0
 19 18  1  0  0  0  0
 20 18  1  0  0  0  0
 21 22  1  0  0  0  0
 22 23  2  0  0  0  0
 24 27  2  0  0  0  0
 24 25  1  0  0  0  0
 25 28  2  0  0  0  0
 27 29  1  0  0  0  0
 28 26  1  0  0  0  0
 29 22  1  0  0  0  0
 29 26  2  0  0  0  0
M  END
>  <MODEL>
6

>  <REMARK>
 VINA RESULT:      -7.5      2.507      7.428
  Name = 
  8 active torsions:
  status: ('A' for Active; 'I' for Inactive)
    1  A    between atoms: N_2  and  O_19
    2  A    between atoms: C_5  and  C_9
    3  A    between atoms: C_9  and  C_25
    4  A    between atoms: C_14  and  O_19
    5  A    between atoms: C_16  and  C_22
    6  A    between atoms: C_16  and  C_25
    7  A    between atoms: C_20  and  C_24
    8  A    between atoms: C_21  and  C_24
                            x       y       z     vdW  Elec       q    Type
                         _______ _______ _______ _____ _____    ______ ____

>  <TORSDO>
F 8

$$$$
=
 OpenBabel11042410253D

 29 32  0  0  1  0  0  0  0  0999 V2000
  188.2610  177.4030  141.3030 N   0  0  0  0  0  0  0  0  0  0  0  0
  188.8310  176.9320  142.3710 C   0  0  0  0  0  0  0  0  0  0  0  0
  190.3120  177.0480  142.6120 C   0  0  2  0  0  3  0  0  0  0  0  0
  191.7730  176.6760  145.0850 C   0  0  0  0  0  3  0  0  0  0  0  0
  191.3440  177.8680  144.8010 N   0  0  0  0  0  0  0  0  0  0  0  0
  190.8990  175.7190  143.0160 C   0  0  0  0  0  3  0  0  0  0  0  0
  191.5650  175.5500  144.1600 C   0  0  0  0  0  3  0  0  0  0  0  0
  190.6430  178.1540  143.5840 C   0  0  0  0  0  0  0  0  0  0  0  0
  190.3100  179.3390  143.3230 O   0  0  0  0  0  0  0  0  0  0  0  0
  188.9800  178.0150  140.3010 O   0  0  0  0  0  0  0  0  0  0  0  0
  189.2200  178.8000  138.0580 C   0  0  0  0  0  2  0  0  0  0  0  0
  188.7490  177.6720  138.9480 C   0  0  1  0  0  3  0  0  0  0  0  0
  190.0800  177.5670  138.2360 C   0  0  1  0  0  3  0  0  0  0  0  0
  189.9200  176.6640  137.0270 C   0  0  0  0  0  2  0  0  0  0  0  0
  193.2590  174.2300  137.7710 O   0  0  0  0  0  0  0  0  0  0  0  0
  192.4270  173.7730  136.7320 C   0  0  0  0  0  2  0  0  0  0  0  0
  193.5600  175.5750  137.4890 C   0  0  0  0  0  2  0  0  0  0  0  0
  191.2250  175.9540  136.7170 C   0  0  0  0  0  3  0  0  0  0  0  0
  191.0540  174.4380  136.8340 C   0  0  0  0  0  2  0  0  0  0  0  0
  192.3110  176.4380  137.6740 C   0  0  0  0  0  2  0  0  0  0  0  0
  187.9820  176.3160  143.4310 C   0  0  0  0  0  2  0  0  0  0  0  0
  187.0710  177.3400  144.0310 C   0  0  0  0  0  0  0  0  0  0  0  0
  186.1890  177.8660  143.3010 O   0  0  0  0  0  0  0  0  0  0  0  0
  188.3850  177.6660  147.5620 C   0  0  0  0  0  3  0  0  0  0  0  0
  187.3770  178.4220  148.1660 C   0  0  0  0  0  3  0  0  0  0  0  0
  186.1640  178.4730  146.0710 C   0  0  0  0  0  3  0  0  0  0  0  0
  188.2830  177.3130  146.2130 C   0  0  0  0  0  3  0  0  0  0  0  0
  186.2660  178.8260  147.4200 C   0  0  0  0  0  3  0  0  0  0  0  0
  187.1720  177.7140  145.4560 C   0  0  0  0  0  0  0  0  0  0  0  0
  1  2  2  0  0  0  0
  2 21  1  0  0  0  0
  3  2  1  1  0  0  0
  3  6  1  0  0  0  0
  3  8  1  0  0  0  0
  5  4  2  0  0  0  0
  6  7  2  0  0  0  0
  7  4  1  0  0  0  0
  8  5  1  0  0  0  0
  9  8  2  0  0  0  0
 10  1  1  0  0  0  0
 11 13  1  0  0  0  0
 11 12  1  0  0  0  0
 12 10  1  1  0  0  0
 13 14  1  6  0  0  0
 13 12  1  0  0  0  0
 16 19  1  0  0  0  0
 16 15  1  0  0  0  0
 17 20  1  0  0  0  0
 17 15  1  0  0  0  0
 18 19  1  0  0  0  0
 18 14  1  0  0  0  0
 18 20  1  0  0  0  0
 21 22  1  0  0  0  0
 22 29  1  0  0  0  0
 23 22  2  0  0  0  0
 24 25  1  0  0  0  0
 26 28  1  0  0  0  0
 27 24  2  0  0  0  0
 28 25  2  0  0  0  0
 29 26  2  0  0  0  0
 29 27  1  0  0  0  0
M  END
>  <MODEL>
7

>  <REMARK>
 VINA RESULT:      -7.4      2.439      7.201
  Name = 
  8 active torsions:
  status: ('A' for Active; 'I' for Inactive)
    1  A    between atoms: N_2  and  O_19
    2  A    between atoms: C_5  and  C_9
    3  A    between atoms: C_9  and  C_25
    4  A    between atoms: C_14  and  O_19
    5  A    between atoms: C_16  and  C_22
    6  A    between atoms: C_16  and  C_25
    7  A    between atoms: C_20  and  C_24
    8  A    between atoms: C_21  and  C_24
                            x       y       z     vdW  Elec       q    Type
                         _______ _______ _______ _____ _____    ______ ____

>  <TORSDO>
F 8

$$$$
=
 OpenBabel11042410253D

 29 32  0  0  1  0  0  0  0  0999 V2000
  187.8450  178.0680  141.6880 N   0  0  0  0  0  0  0  0  0  0  0  0
  186.8180  178.1040  142.4820 C   0  0  0  0  0  0  0  0  0  0  0  0
  185.7190  179.1210  142.3320 C   0  0  2  0  0  3  0  0  0  0  0  0
  182.9190  178.8680  143.0280 C   0  0  0  0  0  3  0  0  0  0  0  0
  183.2840  178.5320  141.8290 N   0  0  0  0  0  0  0  0  0  0  0  0
  185.1770  179.5320  143.6780 C   0  0  0  0  0  3  0  0  0  0  0  0
  183.8870  179.4070  143.9970 C   0  0  0  0  0  3  0  0  0  0  0  0
  184.6410  178.6560  141.3840 C   0  0  0  0  0  0  0  0  0  0  0  0
  184.9300  178.3820  140.1900 O   0  0  0  0  0  0  0  0  0  0  0  0
  188.0150  178.9820  140.6720 O   0  0  0  0  0  0  0  0  0  0  0  0
  189.6080  177.4110  139.8340 C   0  0  0  0  0  2  0  0  0  0  0  0
  188.7910  178.6490  139.5370 C   0  0  1  0  0  3  0  0  0  0  0  0
  188.3390  177.3030  139.0140 C   0  0  1  0  0  3  0  0  0  0  0  0
  188.6990  177.2020  137.5430 C   0  0  0  0  0  2  0  0  0  0  0  0
  184.8390  175.6820  136.8980 O   0  0  0  0  0  0  0  0  0  0  0  0
  185.0650  176.9500  136.3340 C   0  0  0  0  0  2  0  0  0  0  0  0
  185.8840  174.8480  136.4560 C   0  0  0  0  0  2  0  0  0  0  0  0
  187.5100  176.7090  136.7370 C   0  0  0  0  0  3  0  0  0  0  0  0
  186.2890  177.5980  136.9820 C   0  0  0  0  0  2  0  0  0  0  0  0
  187.1970  175.2650  137.1180 C   0  0  0  0  0  2  0  0  0  0  0  0
  186.6830  177.0580  143.5360 C   0  0  0  0  0  2  0  0  0  0  0  0
  187.9660  176.9080  144.2890 C   0  0  0  0  0  0  0  0  0  0  0  0
  188.9640  176.4190  143.6930 O   0  0  0  0  0  0  0  0  0  0  0  0
  187.0900  178.3270  147.6830 C   0  0  0  0  0  3  0  0  0  0  0  0
  188.3010  178.1850  148.3650 C   0  0  0  0  0  3  0  0  0  0  0  0
  189.2990  177.2100  146.3870 C   0  0  0  0  0  3  0  0  0  0  0  0
  186.9830  177.9100  146.3530 C   0  0  0  0  0  3  0  0  0  0  0  0
  189.4060  177.6260  147.7170 C   0  0  0  0  0  3  0  0  0  0  0  0
  188.0860  177.3480  145.6940 C   0  0  0  0  0  0  0  0  0  0  0  0
  1  2  2  0  0  0  0
  2 21  1  0  0  0  0
  3  2  1  1  0  0  0
  3  6  1  0  0  0  0
  4  7  1  0  0  0  0
  5  4  2  0  0  0  0
  6  7  2  0  0  0  0
  8  5  1  0  0  0  0
  8  3  1  0  0  0  0
  9  8  2  0  0  0  0
 10  1  1  0  0  0  0
 12 11  1  0  0  0  0
 12 10  1  1  0  0  0
 13 14  1  6  0  0  0
 13 12  1  0  0  0  0
 13 11  1  0  0  0  0
 16 15  1  0  0  0  0
 16 19  1  0  0  0  0
 17 15  1  0  0  0  0
 17 20  1  0  0  0  0
 18 19  1  0  0  0  0
 18 20  1  0  0  0  0
 18 14  1  0  0  0  0
 21 22  1  0  0  0  0
 22 29  1  0  0  0  0
 23 22  2  0  0  0  0
 24 25  1  0  0  0  0
 26 28  1  0  0  0  0
 27 24  2  0  0  0  0
 28 25  2  0  0  0  0
 29 27  1  0  0  0  0
 29 26  2  0  0  0  0
M  END
>  <MODEL>
8

>  <REMARK>
 VINA RESULT:      -7.3      2.292      6.578
  Name = 
  8 active torsions:
  status: ('A' for Active; 'I' for Inactive)
    1  A    between atoms: N_2  and  O_19
    2  A    between atoms: C_5  and  C_9
    3  A    between atoms: C_9  and  C_25
    4  A    between atoms: C_14  and  O_19
    5  A    between atoms: C_16  and  C_22
    6  A    between atoms: C_16  and  C_25
    7  A    between atoms: C_20  and  C_24
    8  A    between atoms: C_21  and  C_24
                            x       y       z     vdW  Elec       q    Type
                         _______ _______ _______ _____ _____    ______ ____

>  <TORSDO>
F 8

$$$$
=
 OpenBabel11042410253D

 29 32  0  0  1  0  0  0  0  0999 V2000
  187.0660  178.2620  141.4970 N   0  0  0  0  0  0  0  0  0  0  0  0
  188.3540  178.2700  141.6700 C   0  0  0  0  0  0  0  0  0  0  0  0
  188.9970  177.8300  142.9580 C   0  0  2  0  0  3  0  0  0  0  0  0
  191.6040  176.6330  143.3560 C   0  0  0  0  0  3  0  0  0  0  0  0
  190.5930  175.8440  143.1530 N   0  0  0  0  0  0  0  0  0  0  0  0
  190.2290  178.6480  143.2520 C   0  0  0  0  0  3  0  0  0  0  0  0
  191.4300  178.0920  143.4290 C   0  0  0  0  0  3  0  0  0  0  0  0
  189.2610  176.3440  142.9810 C   0  0  0  0  0  0  0  0  0  0  0  0
  188.3050  175.5350  142.8570 O   0  0  0  0  0  0  0  0  0  0  0  0
  186.1980  177.8800  142.4950 O   0  0  0  0  0  0  0  0  0  0  0  0
  184.4850  178.6910  143.9500 C   0  0  0  0  0  2  0  0  0  0  0  0
  185.9550  178.7380  143.5930 C   0  0  1  0  0  3  0  0  0  0  0  0
  185.4890  177.9060  144.7690 C   0  0  1  0  0  3  0  0  0  0  0  0
  185.7880  178.6600  146.0520 C   0  0  0  0  0  2  0  0  0  0  0  0
  189.4370  177.8710  147.9730 O   0  0  0  0  0  0  0  0  0  0  0  0
  188.3370  177.9910  148.8420 C   0  0  0  0  0  2  0  0  0  0  0  0
  189.0750  176.9350  146.9860 C   0  0  0  0  0  2  0  0  0  0  0  0
  186.7770  177.8850  146.9040 C   0  0  0  0  0  3  0  0  0  0  0  0
  187.1870  178.7030  148.1310 C   0  0  0  0  0  2  0  0  0  0  0  0
  188.0050  177.5320  146.0710 C   0  0  0  0  0  2  0  0  0  0  0  0
  189.2340  178.6600  140.5310 C   0  0  0  0  0  2  0  0  0  0  0  0
  189.2800  177.5680  139.5090 C   0  0  0  0  0  0  0  0  0  0  0  0
  189.8520  176.4850  139.8070 O   0  0  0  0  0  0  0  0  0  0  0  0
  186.6500  178.0500  136.8350 C   0  0  0  0  0  3  0  0  0  0  0  0
  187.4280  178.0430  135.6740 C   0  0  0  0  0  3  0  0  0  0  0  0
  189.4190  177.7230  137.0150 C   0  0  0  0  0  3  0  0  0  0  0  0
  187.2560  177.8950  138.0850 C   0  0  0  0  0  3  0  0  0  0  0  0
  188.8130  177.8790  135.7640 C   0  0  0  0  0  3  0  0  0  0  0  0
  188.6450  177.7300  138.1850 C   0  0  0  0  0  0  0  0  0  0  0  0
  1  2  2  0  0  0  0
  1 10  1  0  0  0  0
  3  2  1  6  0  0  0
  3  8  1  0  0  0  0
  3  6  1  0  0  0  0
  4  7  1  0  0  0  0
  5  4  2  0  0  0  0
  6  7  2  0  0  0  0
  8  5  1  0  0  0  0
  9  8  2  0  0  0  0
 11 13  1  0  0  0  0
 12 10  1  6  0  0  0
 12 11  1  0  0  0  0
 12 13  1  0  0  0  0
 13 14  1  1  0  0  0
 14 18  1  0  0  0  0
 15 16  1  0  0  0  0
 17 15  1  0  0  0  0
 18 19  1  0  0  0  0
 19 16  1  0  0  0  0
 20 18  1  0  0  0  0
 20 17  1  0  0  0  0
 21  2  1  0  0  0  0
 22 23  2  0  0  0  0
 22 21  1  0  0  0  0
 24 27  1  0  0  0  0
 25 28  1  0  0  0  0
 25 24  2  0  0  0  0
 26 29  1  0  0  0  0
 27 29  2  0  0  0  0
 28 26  2  0  0  0  0
 29 22  1  0  0  0  0
M  END
>  <MODEL>
9

>  <REMARK>
 VINA RESULT:      -7.2      1.892      5.007
  Name = 
  8 active torsions:
  status: ('A' for Active; 'I' for Inactive)
    1  A    between atoms: N_2  and  O_19
    2  A    between atoms: C_5  and  C_9
    3  A    between atoms: C_9  and  C_25
    4  A    between atoms: C_14  and  O_19
    5  A    between atoms: C_16  and  C_22
    6  A    between atoms: C_16  and  C_25
    7  A    between atoms: C_20  and  C_24
    8  A    between atoms: C_21  and  C_24
                            x       y       z     vdW  Elec       q    Type
                         _______ _______ _______ _____ _____    ______ ____

>  <TORSDO>
F 8

$$$$
