=
 OpenBabel11042412063D

 70 80  0  0  1  0  0  0  0  0999 V2000
  187.5130  176.7330  136.9930 C   0  0  1  0  0  3  0  0  0  0  0  0
  187.7470  174.4200  136.7110 C   0  0  2  0  0  3  0  0  0  0  0  0
  188.4780  178.6880  138.4020 C   0  0  0  0  0  2  0  0  0  0  0  0
  186.6020  174.8720  135.8010 C   0  0  0  0  0  2  0  0  0  0  0  0
  188.0280  178.1890  137.0130 C   0  0  0  0  0  0  0  0  0  0  0  0
  189.8010  176.6780  139.0870 C   0  0  0  0  0  0  0  0  0  0  0  0
  189.0850  178.2970  136.0900 O   0  0  0  0  0  1  0  0  0  0  0  0
  186.2370  176.2530  136.3720 C   0  0  2  0  0  3  0  0  0  0  0  0
  188.6830  177.6000  139.4570 C   0  0  0  0  0  2  0  0  0  0  0  0
  190.9720  176.7300  139.7450 C   0  0  0  0  0  3  0  0  0  0  0  0
  188.3040  175.6900  137.2690 C   0  0  1  0  0  3  0  0  0  0  0  0
  189.6960  175.7770  137.8660 C   0  0  0  0  0  2  0  0  0  0  0  0
  187.0320  179.0760  136.6090 O   0  0  0  0  0  1  0  0  0  0  0  0
  192.7330  173.9500  134.9810 C   0  0  0  0  0  0  0  0  0  0  0  0
  194.0200  174.1800  134.7080 N   0  0  0  0  0  0  0  0  0  0  0  0
  189.8070  170.5540  134.5940 N   0  0  0  0  0  2  0  0  0  0  0  0
  190.6690  172.8170  135.1570 C   0  0  0  0  0  0  0  0  0  0  0  0
  190.0730  173.9300  135.7310 C   0  0  0  0  0  0  0  0  0  0  0  0
  189.6750  171.8800  135.1040 C   0  0  0  0  0  0  0  0  0  0  0  0
  192.1680  175.0740  135.5530 C   0  0  0  0  0  0  0  0  0  0  0  0
  190.8130  175.1090  135.9490 C   0  0  0  0  0  3  0  0  0  0  0  0
  192.0060  172.7760  134.7670 C   0  0  0  0  0  3  0  0  0  0  0  0
  188.5360  172.3860  135.6270 N   0  0  0  0  0  0  0  0  0  0  0  0
  193.0800  176.0620  135.6180 N   0  0  0  0  0  2  0  0  0  0  0  0
  194.2000  175.4740  135.1170 C   0  0  0  0  0  0  0  0  0  0  0  0
  188.6840  169.6300  134.6780 C   0  0  0  0  0  1  0  0  0  0  0  0
  188.7740  173.6290  136.0170 N   0  0  0  0  0  0  0  0  0  0  0  0
  196.4930  175.7680  135.8000 N   0  0  0  0  0  1  0  0  0  0  0  0
  195.4780  176.2310  134.8840 C   0  0  2  0  0  3  0  0  0  0  0  0
  195.3080  177.7450  135.0310 C   0  0  0  0  0  2  0  0  0  0  0  0
  196.5360  178.3740  135.2880 O   0  0  0  0  0  1  0  0  0  0  0  0
  191.3530  177.8010  140.7600 C   0  0  0  0  0  2  0  0  0  0  0  0
  191.6250  178.1850  144.5300 C   0  0  0  0  0  2  0  0  0  0  0  0
  190.5840  175.2370  143.5610 C   0  0  1  0  0  3  0  0  0  0  0  0
  189.2320  175.9510  143.3490 C   0  0  2  0  0  3  0  0  0  0  0  0
  190.3490  176.1260  142.3120 C   0  0  1  0  0  3  0  0  0  0  0  0
  191.7270  175.7230  144.3540 N   0  0  0  0  0  2  0  0  0  0  0  0
  190.8570  177.5920  142.1810 C   0  0  1  0  0  3  0  0  0  0  0  0
  192.0280  178.0110  143.0710 C   0  0  0  0  0  2  0  0  0  0  0  0
  191.4770  176.8350  145.2640 C   0  0  0  0  0  2  0  0  0  0  0  0
  188.8710  177.0470  144.3640 C   0  0  0  0  0  2  0  0  0  0  0  0
  187.9700  178.0480  143.7950 N   0  0  0  0  0  2  0  0  0  0  0  0
  186.7260  178.8760  145.9460 O   0  0  0  0  0  0  0  0  0  0  0  0
  186.4800  178.1240  144.6680 S   0  0  0  0  0  0  0  0  0  0  0  0
  186.0130  176.7400  145.0090 O   0  0  0  0  0  0  0  0  0  0  0  0
  185.1380  178.9430  143.7790 C   0  0  2  0  0  3  0  0  0  0  0  0
  183.7990  178.5050  144.3870 C   0  0  0  0  0  2  0  0  0  0  0  0
  184.1130  178.5130  141.5560 C   0  0  0  0  0  3  0  0  0  0  0  0
  185.2090  178.6340  142.3000 C   0  0  0  0  0  3  0  0  0  0  0  0
  182.6630  179.0690  143.5340 C   0  0  0  0  0  2  0  0  0  0  0  0
  182.8180  178.6160  142.1380 N   0  0  0  0  0  2  0  0  0  0  0  0
  185.7710  177.1060  135.3560 O   0  0  0  0  0  0  0  0  0  0  0  0
  184.3870  176.9460  135.3830 C   0  0  0  0  0  2  0  0  0  0  0  0
  183.8630  177.0210  136.6840 O   0  0  0  0  0  0  0  0  0  0  0  0
  181.9190  179.2070  137.0400 O   0  0  0  0  0  0  0  0  0  0  0  0
  180.1800  177.8390  139.8180 C   0  0  0  0  0  0  0  0  0  0  0  0
  182.5950  176.4180  136.6890 C   0  0  2  0  0  3  0  0  0  0  0  0
  181.2820  176.1160  138.5720 C   0  0  0  0  0  0  0  0  0  0  0  0
  181.7070  174.7470  138.2620 C   0  0  0  0  0  2  0  0  0  0  0  0
  181.4670  178.3640  137.8500 C   0  0  0  0  0  0  0  0  0  0  0  0
  180.6850  178.7910  138.9150 C   0  0  0  0  0  3  0  0  0  0  0  0
  181.7560  177.0350  137.7150 N   0  0  0  0  0  0  0  0  0  0  0  0
  179.3760  178.2740  140.9650 C   0  0  0  0  0  1  0  0  0  0  0  0
  182.7810  174.9640  137.1820 C   0  0  1  0  0  3  0  0  0  0  0  0
  180.4800  176.4850  139.6490 C   0  0  0  0  0  3  0  0  0  0  0  0
  182.3770  171.7110  136.8900 C   0  0  0  0  0  2  0  0  0  0  0  0
  183.8270  172.0740  137.0080 C   0  0  0  0  0  2  0  0  0  0  0  0
  181.6800  172.9910  136.4700 C   0  0  0  0  0  2  0  0  0  0  0  0
  183.9500  173.2260  136.0430 C   0  0  0  0  0  2  0  0  0  0  0  0
  182.6870  173.9770  136.0820 N   0  0  0  0  0  0  0  0  0  0  0  0
  1  5  1  6  0  0  0
  1 11  1  0  0  0  0
  2  4  1  6  0  0  0
  2 11  1  0  0  0  0
  3  9  1  0  0  0  0
  4  8  1  0  0  0  0
  5  3  1  0  0  0  0
  6  9  1  0  0  0  0
  6 10  2  0  0  0  0
  7  5  1  0  0  0  0
  8 52  1  6  0  0  0
  8  1  1  0  0  0  0
 10 32  1  0  0  0  0
 11 12  1  6  0  0  0
 12  6  1  0  0  0  0
 13  5  1  0  0  0  0
 14 20  1  0  0  0  0
 15 14  1  0  0  0  0
 15 25  2  0  0  0  0
 16 26  1  0  0  0  0
 16 19  1  0  0  0  0
 17 18  2  0  0  0  0
 18 21  1  0  0  0  0
 18 27  1  0  0  0  0
 19 17  1  0  0  0  0
 19 23  2  0  0  0  0
 20 24  1  0  0  0  0
 20 21  2  0  0  0  0
 22 14  2  0  0  0  0
 22 17  1  0  0  0  0
 23 27  1  0  0  0  0
 25 24  1  0  0  0  0
 27  2  1  0  0  0  0
 29 30  1  0  0  0  0
 29 25  1  0  0  0  0
 29 28  1  1  0  0  0
 30 31  1  0  0  0  0
 32 38  1  0  0  0  0
 33 40  1  0  0  0  0
 34 37  1  1  0  0  0
 35 34  1  0  0  0  0
 35 41  1  1  0  0  0
 36 35  1  0  0  0  0
 36 34  1  0  0  0  0
 37 40  1  0  0  0  0
 38 36  1  0  0  0  0
 38 39  1  0  0  0  0
 39 33  1  0  0  0  0
 42 41  1  0  0  0  0
 42 44  1  0  0  0  0
 44 45  2  0  0  0  0
 44 43  2  0  0  0  0
 46 47  1  0  0  0  0
 46 44  1  0  0  0  0
 48 51  1  0  0  0  0
 48 49  2  0  0  0  0
 49 46  1  0  0  0  0
 50 47  1  0  0  0  0
 51 50  1  0  0  0  0
 52 53  1  0  0  0  0
 53 54  1  0  0  0  0
 54 57  1  0  0  0  0
 55 60  2  0  0  0  0
 56 63  1  0  0  0  0
 57 64  1  0  0  0  0
 57 62  1  0  0  0  0
 58 65  2  0  0  0  0
 59 58  1  0  0  0  0
 60 61  1  0  0  0  0
 61 56  2  0  0  0  0
 62 60  1  0  0  0  0
 62 58  1  0  0  0  0
 64 59  1  0  0  0  0
 65 56  1  0  0  0  0
 66 67  1  0  0  0  0
 68 66  1  0  0  0  0
 69 70  1  0  0  0  0
 69 67  1  0  0  0  0
 70 68  1  0  0  0  0
 70 64  1  0  0  0  0
M  END
>  <MODEL>
1

>  <REMARK>
 VINA RESULT:      -8.4      0.000      0.000
  Name = 
  14 active torsions:
  status: ('A' for Active; 'I' for Inactive)
    1  A    between atoms: C_1  and  CA_43
    2  A    between atoms: O_4  and  C_25
    3  A    between atoms: O_4  and  C_65
    4  A    between atoms: C_5  and  S_42
    5  A    between atoms: C_17  and  N_68
    6  A    between atoms: C_26  and  C_69
    7  A    between atoms: C_30  and  C_36
    8  A    between atoms: C_30  and  C_51
    9  A    between atoms: N_32  and  S_42
   10  A    between atoms: N_32  and  C_69
   11  A    between atoms: C_40  and  O_44
   12  A    between atoms: CA_43  and  C_60
   13  A    between atoms: O_44  and  C_65
   14  A    between atoms: N_61  and  C_62
                            x       y       z     vdW  Elec       q    Type
                         _______ _______ _______ _____ _____    ______ ____

>  <TORSDO>
F 14

$$$$
=
 OpenBabel11042412063D

 70 80  0  0  1  0  0  0  0  0999 V2000
  186.2940  178.0370  138.8730 C   0  0  1  0  0  3  0  0  0  0  0  0
  188.3080  177.3260  137.9130 C   0  0  2  0  0  3  0  0  0  0  0  0
  183.8330  178.5450  138.2240 C   0  0  0  0  0  2  0  0  0  0  0  0
  188.5970  177.6440  139.3810 C   0  0  0  0  0  2  0  0  0  0  0  0
  184.8000  177.8910  139.2330 C   0  0  0  0  0  0  0  0  0  0  0  0
  184.9020  177.7100  136.1210 C   0  0  0  0  0  0  0  0  0  0  0  0
  184.5090  176.5200  139.3680 O   0  0  0  0  0  1  0  0  0  0  0  0
  187.3860  178.4990  139.7910 C   0  0  2  0  0  3  0  0  0  0  0  0
  184.4470  178.9200  136.8740 C   0  0  0  0  0  2  0  0  0  0  0  0
  184.2210  177.2840  135.0430 C   0  0  0  0  0  3  0  0  0  0  0  0
  186.8270  177.4740  137.7820 C   0  0  1  0  0  3  0  0  0  0  0  0
  186.0410  176.8500  136.6440 C   0  0  0  0  0  2  0  0  0  0  0  0
  184.5190  178.4970  140.4560 O   0  0  0  0  0  1  0  0  0  0  0  0
  192.2830  174.0910  136.5660 C   0  0  0  0  0  0  0  0  0  0  0  0
  193.4920  173.5950  136.2920 N   0  0  0  0  0  0  0  0  0  0  0  0
  188.0760  172.5540  136.9920 N   0  0  0  0  0  2  0  0  0  0  0  0
  189.9560  174.1800  136.9600 C   0  0  0  0  0  0  0  0  0  0  0  0
  190.0180  175.5460  137.1910 C   0  0  0  0  0  0  0  0  0  0  0  0
  188.6380  173.8590  137.1220 C   0  0  0  0  0  0  0  0  0  0  0  0
  192.3760  175.4520  136.7930 C   0  0  0  0  0  0  0  0  0  0  0  0
  191.2450  176.2330  137.1130 C   0  0  0  0  0  3  0  0  0  0  0  0
  191.0700  173.4030  136.6480 C   0  0  0  0  0  3  0  0  0  0  0  0
  187.9310  174.9650  137.4450 N   0  0  0  0  0  0  0  0  0  0  0  0
  193.6490  175.8580  136.6270 N   0  0  0  0  0  2  0  0  0  0  0  0
  194.3020  174.6980  136.3450 C   0  0  0  0  0  0  0  0  0  0  0  0
  186.6630  172.3420  137.2770 C   0  0  0  0  0  1  0  0  0  0  0  0
  188.7650  175.9920  137.4970 N   0  0  0  0  0  0  0  0  0  0  0  0
  196.5160  174.0180  137.0150 N   0  0  0  0  0  1  0  0  0  0  0  0
  195.7570  174.6580  135.9670 C   0  0  2  0  0  3  0  0  0  0  0  0
  196.3380  176.0460  135.6900 C   0  0  0  0  0  2  0  0  0  0  0  0
  197.6540  176.1540  136.1640 O   0  0  0  0  0  1  0  0  0  0  0  0
  182.8710  177.8320  134.5940 C   0  0  0  0  0  2  0  0  0  0  0  0
  181.1250  175.9700  137.4070 C   0  0  0  0  0  2  0  0  0  0  0  0
  179.1780  176.6940  134.8770 C   0  0  1  0  0  3  0  0  0  0  0  0
  179.1640  178.1110  135.4890 C   0  0  2  0  0  3  0  0  0  0  0  0
  180.3860  177.6480  134.6830 C   0  0  1  0  0  3  0  0  0  0  0  0
  179.5880  175.4460  135.5450 N   0  0  0  0  0  2  0  0  0  0  0  0
  181.6950  177.5740  135.5200 C   0  0  1  0  0  3  0  0  0  0  0  0
  182.0170  176.2450  136.2030 C   0  0  0  0  0  2  0  0  0  0  0  0
  179.7190  175.4830  136.9970 C   0  0  0  0  0  2  0  0  0  0  0  0
  179.1720  178.1940  137.0230 C   0  0  0  0  0  2  0  0  0  0  0  0
  178.9310  179.5540  137.5020 N   0  0  0  0  0  2  0  0  0  0  0  0
  179.6780  181.3210  139.2840 O   0  0  0  0  0  0  0  0  0  0  0  0
  180.1420  180.0490  138.6320 S   0  0  0  0  0  0  0  0  0  0  0  0
  181.4320  180.3180  137.9170 O   0  0  0  0  0  0  0  0  0  0  0  0
  180.4850  178.8410  139.9300 C   0  0  2  0  0  3  0  0  0  0  0  0
  179.3090  177.8590  140.0180 C   0  0  0  0  0  2  0  0  0  0  0  0
  180.3690  178.9880  142.4080 C   0  0  0  0  0  3  0  0  0  0  0  0
  180.7370  179.5320  141.2520 C   0  0  0  0  0  3  0  0  0  0  0  0
  179.5240  176.9400  141.2200 C   0  0  0  0  0  2  0  0  0  0  0  0
  179.6690  177.7490  142.4450 N   0  0  0  0  0  2  0  0  0  0  0  0
  187.0740  178.3080  141.1480 O   0  0  0  0  0  0  0  0  0  0  0  0
  188.2890  177.9520  141.7310 C   0  0  0  0  0  2  0  0  0  0  0  0
  188.1210  177.2040  142.9080 O   0  0  0  0  0  0  0  0  0  0  0  0
  191.0560  177.3380  143.1430 O   0  0  0  0  0  0  0  0  0  0  0  0
  191.2940  176.4060  146.5610 C   0  0  0  0  0  0  0  0  0  0  0  0
  188.3870  178.0360  144.0060 C   0  0  2  0  0  3  0  0  0  0  0  0
  189.1270  177.3020  146.0730 C   0  0  0  0  0  0  0  0  0  0  0  0
  187.7480  177.7070  146.3600 C   0  0  0  0  0  2  0  0  0  0  0  0
  190.7380  177.1600  144.3410 C   0  0  0  0  0  0  0  0  0  0  0  0
  191.6580  176.6000  145.2170 C   0  0  0  0  0  3  0  0  0  0  0  0
  189.4890  177.4850  144.7920 N   0  0  0  0  0  0  0  0  0  0  0  0
  192.2430  175.7890  147.4930 C   0  0  0  0  0  1  0  0  0  0  0  0
  187.1680  177.9470  144.9540 C   0  0  1  0  0  3  0  0  0  0  0  0
  190.0150  176.7590  146.9980 C   0  0  0  0  0  3  0  0  0  0  0  0
  184.0430  178.7220  145.6330 C   0  0  0  0  0  2  0  0  0  0  0  0
  184.1920  178.2380  144.2220 C   0  0  0  0  0  2  0  0  0  0  0  0
  185.4390  179.1260  146.0650 C   0  0  0  0  0  2  0  0  0  0  0  0
  185.4030  179.0010  143.7470 C   0  0  0  0  0  2  0  0  0  0  0  0
  186.3120  179.1530  144.8920 N   0  0  0  0  0  0  0  0  0  0  0  0
  1  5  1  1  0  0  0
  1  8  1  0  0  0  0
  2 27  1  1  0  0  0
  2  4  1  0  0  0  0
  3  5  1  0  0  0  0
  4  8  1  0  0  0  0
  5  7  1  0  0  0  0
  5 13  1  0  0  0  0
  6 12  1  0  0  0  0
  6  9  1  0  0  0  0
  8 52  1  1  0  0  0
  9  3  1  0  0  0  0
 10  6  2  0  0  0  0
 11 12  1  1  0  0  0
 11  2  1  0  0  0  0
 11  1  1  0  0  0  0
 14 22  2  0  0  0  0
 14 20  1  0  0  0  0
 15 25  2  0  0  0  0
 15 14  1  0  0  0  0
 16 19  1  0  0  0  0
 16 26  1  0  0  0  0
 17 19  1  0  0  0  0
 17 18  2  0  0  0  0
 18 27  1  0  0  0  0
 19 23  2  0  0  0  0
 20 21  2  0  0  0  0
 21 18  1  0  0  0  0
 22 17  1  0  0  0  0
 23 27  1  0  0  0  0
 24 20  1  0  0  0  0
 25 24  1  0  0  0  0
 29 25  1  0  0  0  0
 29 28  1  1  0  0  0
 30 29  1  0  0  0  0
 30 31  1  0  0  0  0
 32 10  1  0  0  0  0
 32 38  1  0  0  0  0
 34 35  1  0  0  0  0
 34 37  1  1  0  0  0
 35 41  1  1  0  0  0
 36 34  1  0  0  0  0
 36 35  1  0  0  0  0
 36 38  1  0  0  0  0
 37 40  1  0  0  0  0
 38 39  1  0  0  0  0
 39 33  1  0  0  0  0
 40 33  1  0  0  0  0
 41 42  1  0  0  0  0
 42 44  1  0  0  0  0
 44 43  2  0  0  0  0
 44 46  1  0  0  0  0
 45 44  2  0  0  0  0
 46 47  1  0  0  0  0
 46 49  1  0  0  0  0
 47 50  1  0  0  0  0
 48 51  1  0  0  0  0
 49 48  2  0  0  0  0
 50 51  1  0  0  0  0
 52 53  1  0  0  0  0
 53 54  1  0  0  0  0
 54 57  1  0  0  0  0
 55 60  2  0  0  0  0
 56 65  1  0  0  0  0
 56 63  1  0  0  0  0
 57 62  1  0  0  0  0
 57 64  1  0  0  0  0
 58 59  1  0  0  0  0
 58 65  2  0  0  0  0
 60 62  1  0  0  0  0
 60 61  1  0  0  0  0
 61 56  2  0  0  0  0
 62 58  1  0  0  0  0
 64 59  1  0  0  0  0
 66 68  1  0  0  0  0
 67 66  1  0  0  0  0
 69 67  1  0  0  0  0
 69 70  1  0  0  0  0
 70 64  1  0  0  0  0
 70 68  1  0  0  0  0
M  END
>  <MODEL>
2

>  <REMARK>
 VINA RESULT:      -7.7      2.536      8.286
  Name = 
  14 active torsions:
  status: ('A' for Active; 'I' for Inactive)
    1  A    between atoms: C_1  and  CA_43
    2  A    between atoms: O_4  and  C_25
    3  A    between atoms: O_4  and  C_65
    4  A    between atoms: C_5  and  S_42
    5  A    between atoms: C_17  and  N_68
    6  A    between atoms: C_26  and  C_69
    7  A    between atoms: C_30  and  C_36
    8  A    between atoms: C_30  and  C_51
    9  A    between atoms: N_32  and  S_42
   10  A    between atoms: N_32  and  C_69
   11  A    between atoms: C_40  and  O_44
   12  A    between atoms: CA_43  and  C_60
   13  A    between atoms: O_44  and  C_65
   14  A    between atoms: N_61  and  C_62
                            x       y       z     vdW  Elec       q    Type
                         _______ _______ _______ _____ _____    ______ ____

>  <TORSDO>
F 14

$$$$
=
 OpenBabel11042412063D

 70 80  0  0  1  0  0  0  0  0999 V2000
  187.4860  175.7740  136.9550 C   0  0  1  0  0  3  0  0  0  0  0  0
  188.4850  177.5810  138.0580 C   0  0  2  0  0  3  0  0  0  0  0  0
  188.1220  173.6350  135.6300 C   0  0  0  0  0  2  0  0  0  0  0  0
  186.9730  177.8090  138.1000 C   0  0  0  0  0  2  0  0  0  0  0  0
  187.2210  174.2730  136.7070 C   0  0  0  0  0  0  0  0  0  0  0  0
  190.3030  174.6140  136.3700 C   0  0  0  0  0  0  0  0  0  0  0  0
  187.3640  173.5910  137.9290 O   0  0  0  0  0  1  0  0  0  0  0  0
  186.4540  176.8600  137.0060 C   0  0  2  0  0  3  0  0  0  0  0  0
  189.3480  174.4550  135.2280 C   0  0  0  0  0  2  0  0  0  0  0  0
  191.4690  173.9450  136.3800 C   0  0  0  0  0  3  0  0  0  0  0  0
  188.6430  176.2240  137.4540 C   0  0  1  0  0  3  0  0  0  0  0  0
  189.9110  175.4040  137.6080 C   0  0  0  0  0  2  0  0  0  0  0  0
  185.9150  174.0630  136.2650 O   0  0  0  0  0  1  0  0  0  0  0  0
  188.0510  177.8560  143.3320 C   0  0  0  0  0  0  0  0  0  0  0  0
  187.5660  177.9050  144.5750 N   0  0  0  0  0  0  0  0  0  0  0  0
  192.0750  177.5460  141.3420 N   0  0  0  0  0  2  0  0  0  0  0  0
  189.6040  177.7180  141.5580 C   0  0  0  0  0  0  0  0  0  0  0  0
  188.5830  177.7600  140.6220 C   0  0  0  0  0  0  0  0  0  0  0  0
  190.7500  177.6250  140.8200 C   0  0  0  0  0  0  0  0  0  0  0  0
  187.0120  177.8980  142.4220 C   0  0  0  0  0  0  0  0  0  0  0  0
  187.2380  177.8540  141.0290 C   0  0  0  0  0  3  0  0  0  0  0  0
  189.3870  177.7570  142.9350 C   0  0  0  0  0  3  0  0  0  0  0  0
  190.4480  177.6010  139.5020 N   0  0  0  0  0  0  0  0  0  0  0  0
  185.8390  178.0170  143.0720 N   0  0  0  0  0  2  0  0  0  0  0  0
  186.2140  177.9940  144.3800 C   0  0  0  0  0  0  0  0  0  0  0  0
  193.2020  177.3640  140.4380 C   0  0  0  0  0  1  0  0  0  0  0  0
  189.1320  177.6740  139.3760 N   0  0  0  0  0  0  0  0  0  0  0  0
  184.2550  179.1910  145.1160 N   0  0  0  0  0  1  0  0  0  0  0  0
  185.2410  178.2120  145.5060 C   0  0  2  0  0  3  0  0  0  0  0  0
  185.9220  178.6590  146.8020 C   0  0  0  0  0  2  0  0  0  0  0  0
  185.0010  178.7510  147.8570 O   0  0  0  0  0  1  0  0  0  0  0  0
  191.8570  172.8580  135.3840 C   0  0  0  0  0  2  0  0  0  0  0  0
  194.5610  170.3050  134.6080 C   0  0  0  0  0  2  0  0  0  0  0  0
  194.4770  171.2500  137.7410 C   0  0  1  0  0  3  0  0  0  0  0  0
  195.1930  172.5150  137.2210 C   0  0  2  0  0  3  0  0  0  0  0  0
  193.6800  172.3620  137.0120 C   0  0  1  0  0  3  0  0  0  0  0  0
  194.3470  169.9580  137.0450 N   0  0  0  0  0  2  0  0  0  0  0  0
  193.2600  172.2910  135.5150 C   0  0  1  0  0  3  0  0  0  0  0  0
  193.1860  170.9060  134.8720 C   0  0  0  0  0  2  0  0  0  0  0  0
  195.2100  169.7380  135.8890 C   0  0  0  0  0  2  0  0  0  0  0  0
  196.2070  172.3100  136.0850 C   0  0  0  0  0  2  0  0  0  0  0  0
  196.5420  173.5640  135.4140 N   0  0  0  0  0  2  0  0  0  0  0  0
  197.4410  175.9490  136.0190 O   0  0  0  0  0  0  0  0  0  0  0  0
  197.6610  174.4980  136.3440 S   0  0  0  0  0  0  0  0  0  0  0  0
  199.0680  174.1310  135.9750 O   0  0  0  0  0  0  0  0  0  0  0  0
  197.4990  174.2870  138.1310 C   0  0  2  0  0  3  0  0  0  0  0  0
  196.2500  175.0390  138.6080 C   0  0  0  0  0  2  0  0  0  0  0  0
  198.6930  175.3370  140.0410 C   0  0  0  0  0  3  0  0  0  0  0  0
  198.7470  174.7660  138.8410 C   0  0  0  0  0  3  0  0  0  0  0  0
  196.2030  174.9980  140.1360 C   0  0  0  0  0  2  0  0  0  0  0  0
  197.4460  175.5720  140.6860 N   0  0  0  0  0  2  0  0  0  0  0  0
  185.1730  176.3790  137.3270 O   0  0  0  0  0  0  0  0  0  0  0  0
  184.3340  177.4710  137.1120 C   0  0  0  0  0  2  0  0  0  0  0  0
  183.0110  177.0870  136.8380 O   0  0  0  0  0  0  0  0  0  0  0  0
  180.6700  178.0050  135.3020 O   0  0  0  0  0  0  0  0  0  0  0  0
  180.7360  181.4020  136.3340 C   0  0  0  0  0  0  0  0  0  0  0  0
  182.1630  177.7180  137.7610 C   0  0  2  0  0  3  0  0  0  0  0  0
  181.8590  180.0070  137.9250 C   0  0  0  0  0  0  0  0  0  0  0  0
  182.6200  179.7040  139.1410 C   0  0  0  0  0  2  0  0  0  0  0  0
  180.9030  179.0220  135.9950 C   0  0  0  0  0  0  0  0  0  0  0  0
  180.4730  180.2650  135.5500 C   0  0  0  0  0  3  0  0  0  0  0  0
  181.5980  178.9290  137.1680 N   0  0  0  0  0  0  0  0  0  0  0  0
  180.3150  182.7260  135.8660 C   0  0  0  0  0  1  0  0  0  0  0  0
  183.0500  178.2440  138.9140 C   0  0  1  0  0  3  0  0  0  0  0  0
  181.4380  181.2760  137.5360 C   0  0  0  0  0  3  0  0  0  0  0  0
  180.6330  177.0900  140.8250 C   0  0  0  0  0  2  0  0  0  0  0  0
  181.0810  178.4490  141.2720 C   0  0  0  0  0  2  0  0  0  0  0  0
  181.7670  176.5570  139.9720 C   0  0  0  0  0  2  0  0  0  0  0  0
  182.5820  178.3150  141.2510 C   0  0  0  0  0  2  0  0  0  0  0  0
  182.9350  177.4210  140.1390 N   0  0  0  0  0  0  0  0  0  0  0  0
  1  5  1  1  0  0  0
  1  8  1  0  0  0  0
  1 11  1  0  0  0  0
  2  4  1  1  0  0  0
  2 27  1  0  0  0  0
  3  5  1  0  0  0  0
  5  7  1  0  0  0  0
  6 10  2  0  0  0  0
  6 12  1  0  0  0  0
  8 52  1  1  0  0  0
  8  4  1  0  0  0  0
  9  3  1  0  0  0  0
  9  6  1  0  0  0  0
 11 12  1  1  0  0  0
 11  2  1  0  0  0  0
 13  5  1  0  0  0  0
 14 15  1  0  0  0  0
 17 22  2  0  0  0  0
 18 21  2  0  0  0  0
 18 17  1  0  0  0  0
 19 16  1  0  0  0  0
 19 17  1  0  0  0  0
 20 24  1  0  0  0  0
 20 14  2  0  0  0  0
 21 20  1  0  0  0  0
 22 14  1  0  0  0  0
 23 19  2  0  0  0  0
 24 25  1  0  0  0  0
 25 15  2  0  0  0  0
 25 29  1  0  0  0  0
 26 16  1  0  0  0  0
 27 23  1  0  0  0  0
 27 18  1  0  0  0  0
 29 28  1  6  0  0  0
 29 30  1  0  0  0  0
 30 31  1  0  0  0  0
 32 38  1  0  0  0  0
 32 10  1  0  0  0  0
 33 39  1  0  0  0  0
 33 40  1  0  0  0  0
 34 37  1  6  0  0  0
 35 41  1  6  0  0  0
 35 34  1  0  0  0  0
 36 35  1  0  0  0  0
 36 34  1  0  0  0  0
 38 36  1  0  0  0  0
 39 38  1  0  0  0  0
 40 37  1  0  0  0  0
 42 41  1  0  0  0  0
 42 44  1  0  0  0  0
 43 44  2  0  0  0  0
 44 46  1  0  0  0  0
 45 44  2  0  0  0  0
 46 47  1  0  0  0  0
 46 49  1  0  0  0  0
 47 50  1  0  0  0  0
 48 51  1  0  0  0  0
 49 48  2  0  0  0  0
 50 51  1  0  0  0  0
 53 52  1  0  0  0  0
 54 53  1  0  0  0  0
 54 57  1  0  0  0  0
 55 60  2  0  0  0  0
 56 65  1  0  0  0  0
 57 64  1  0  0  0  0
 58 59  1  0  0  0  0
 60 62  1  0  0  0  0
 61 60  1  0  0  0  0
 61 56  2  0  0  0  0
 62 57  1  0  0  0  0
 62 58  1  0  0  0  0
 63 56  1  0  0  0  0
 64 59  1  0  0  0  0
 64 70  1  0  0  0  0
 65 58  2  0  0  0  0
 66 67  1  0  0  0  0
 68 70  1  0  0  0  0
 68 66  1  0  0  0  0
 69 67  1  0  0  0  0
 70 69  1  0  0  0  0
M  END
>  <MODEL>
3

>  <REMARK>
 VINA RESULT:      -7.7      3.340      9.226
  Name = 
  14 active torsions:
  status: ('A' for Active; 'I' for Inactive)
    1  A    between atoms: C_1  and  CA_43
    2  A    between atoms: O_4  and  C_25
    3  A    between atoms: O_4  and  C_65
    4  A    between atoms: C_5  and  S_42
    5  A    between atoms: C_17  and  N_68
    6  A    between atoms: C_26  and  C_69
    7  A    between atoms: C_30  and  C_36
    8  A    between atoms: C_30  and  C_51
    9  A    between atoms: N_32  and  S_42
   10  A    between atoms: N_32  and  C_69
   11  A    between atoms: C_40  and  O_44
   12  A    between atoms: CA_43  and  C_60
   13  A    between atoms: O_44  and  C_65
   14  A    between atoms: N_61  and  C_62
                            x       y       z     vdW  Elec       q    Type
                         _______ _______ _______ _____ _____    ______ ____

>  <TORSDO>
F 14

$$$$
=
 OpenBabel11042412063D

 70 80  0  0  1  0  0  0  0  0999 V2000
  186.8680  178.5750  140.2170 C   0  0  1  0  0  3  0  0  0  0  0  0
  188.5260  177.9750  138.6750 C   0  0  2  0  0  3  0  0  0  0  0  0
  184.3190  179.0490  140.3360 C   0  0  0  0  0  2  0  0  0  0  0  0
  189.2240  178.2190  140.0140 C   0  0  0  0  0  2  0  0  0  0  0  0
  185.5430  178.3670  140.9820 C   0  0  0  0  0  0  0  0  0  0  0  0
  184.7430  178.3630  137.9670 C   0  0  0  0  0  0  0  0  0  0  0  0
  185.3190  176.9840  141.1110 O   0  0  0  0  0  1  0  0  0  0  0  0
  188.1740  179.0150  140.8070 C   0  0  2  0  0  3  0  0  0  0  0  0
  184.5120  179.5170  138.8930 C   0  0  0  0  0  2  0  0  0  0  0  0
  183.7840  177.9800  137.1070 C   0  0  0  0  0  3  0  0  0  0  0  0
  187.0680  178.0890  138.9860 C   0  0  1  0  0  3  0  0  0  0  0  0
  185.9940  177.5080  138.0860 C   0  0  0  0  0  2  0  0  0  0  0  0
  185.6220  178.8960  142.2690 O   0  0  0  0  0  1  0  0  0  0  0  0
  192.1810  174.3970  137.2930 C   0  0  0  0  0  0  0  0  0  0  0  0
  193.3370  173.7560  137.1040 N   0  0  0  0  0  0  0  0  0  0  0  0
  187.7910  173.5630  136.7590 N   0  0  0  0  0  2  0  0  0  0  0  0
  189.8580  174.8160  137.3460 C   0  0  0  0  0  0  0  0  0  0  0  0
  190.0680  176.0850  137.8620 C   0  0  0  0  0  0  0  0  0  0  0  0
  188.5000  174.7050  137.2390 C   0  0  0  0  0  0  0  0  0  0  0  0
  192.4220  175.6560  137.8090 C   0  0  0  0  0  0  0  0  0  0  0  0
  191.3740  176.5520  138.1120 C   0  0  0  0  0  3  0  0  0  0  0  0
  190.8890  173.9260  137.0480 C   0  0  0  0  0  3  0  0  0  0  0  0
  187.9090  175.8400  137.6760 N   0  0  0  0  0  0  0  0  0  0  0  0
  193.7490  175.8580  137.9220 N   0  0  0  0  0  2  0  0  0  0  0  0
  194.2720  174.6720  137.5060 C   0  0  0  0  0  0  0  0  0  0  0  0
  186.3350  173.5520  136.7800 C   0  0  0  0  0  1  0  0  0  0  0  0
  188.8570  176.6790  138.0640 N   0  0  0  0  0  0  0  0  0  0  0  0
  196.2910  175.4060  136.4130 N   0  0  0  0  0  1  0  0  0  0  0  0
  195.7510  174.4500  137.3490 C   0  0  2  0  0  3  0  0  0  0  0  0
  196.0930  173.0320  136.8870 C   0  0  0  0  0  2  0  0  0  0  0  0
  196.5170  173.0180  135.5500 O   0  0  0  0  0  1  0  0  0  0  0  0
  182.3560  178.5140  137.1000 C   0  0  0  0  0  2  0  0  0  0  0  0
  178.9310  177.6550  138.5020 C   0  0  0  0  0  2  0  0  0  0  0  0
  181.3210  175.6560  139.5030 C   0  0  1  0  0  3  0  0  0  0  0  0
  181.1690  175.0210  138.1050 C   0  0  2  0  0  3  0  0  0  0  0  0
  181.9320  176.3440  138.2540 C   0  0  1  0  0  3  0  0  0  0  0  0
  180.3590  176.5420  140.1820 N   0  0  0  0  0  2  0  0  0  0  0  0
  181.2670  177.5360  137.5070 C   0  0  1  0  0  3  0  0  0  0  0  0
  180.2550  178.3770  138.2870 C   0  0  0  0  0  2  0  0  0  0  0  0
  179.0110  176.6040  139.6290 C   0  0  0  0  0  2  0  0  0  0  0  0
  179.7430  174.9500  137.5370 C   0  0  0  0  0  2  0  0  0  0  0  0
  179.3990  173.6050  137.0810 N   0  0  0  0  0  2  0  0  0  0  0  0
  180.0380  174.6610  134.7710 O   0  0  0  0  0  0  0  0  0  0  0  0
  179.9400  173.3300  135.4620 S   0  0  0  0  0  0  0  0  0  0  0  0
  178.9480  172.4790  134.7270 O   0  0  0  0  0  0  0  0  0  0  0  0
  181.5460  172.5120  135.3440 C   0  0  2  0  0  3  0  0  0  0  0  0
  181.3740  171.1860  134.5940 C   0  0  0  0  0  2  0  0  0  0  0  0
  182.8880  171.2400  137.0060 C   0  0  0  0  0  3  0  0  0  0  0  0
  182.1430  172.3040  136.7190 C   0  0  0  0  0  3  0  0  0  0  0  0
  182.6970  170.4200  134.6360 C   0  0  0  0  0  2  0  0  0  0  0  0
  183.1100  170.2190  136.0380 N   0  0  0  0  0  2  0  0  0  0  0  0
  188.2700  178.7400  142.1820 O   0  0  0  0  0  0  0  0  0  0  0  0
  188.8760  177.4860  142.2380 C   0  0  0  0  0  2  0  0  0  0  0  0
  188.5650  176.7910  143.4190 O   0  0  0  0  0  0  0  0  0  0  0  0
  191.4870  177.0450  143.7100 O   0  0  0  0  0  0  0  0  0  0  0  0
  191.6910  176.1750  147.1470 C   0  0  0  0  0  0  0  0  0  0  0  0
  188.7750  177.6500  144.5090 C   0  0  2  0  0  3  0  0  0  0  0  0
  189.5010  176.9770  146.6010 C   0  0  0  0  0  0  0  0  0  0  0  0
  188.1010  177.3310  146.8540 C   0  0  0  0  0  2  0  0  0  0  0  0
  191.1510  176.8730  144.9050 C   0  0  0  0  0  0  0  0  0  0  0  0
  192.0740  176.3630  145.8070 C   0  0  0  0  0  3  0  0  0  0  0  0
  189.8810  177.1550  145.3250 N   0  0  0  0  0  0  0  0  0  0  0  0
  192.6440  175.6100  148.1080 C   0  0  0  0  0  1  0  0  0  0  0  0
  187.5420  177.5260  145.4330 C   0  0  1  0  0  3  0  0  0  0  0  0
  190.3900  176.4840  147.5530 C   0  0  0  0  0  3  0  0  0  0  0  0
  185.1720  178.9030  147.2540 C   0  0  0  0  0  2  0  0  0  0  0  0
  184.6150  177.8640  146.3280 C   0  0  0  0  0  2  0  0  0  0  0  0
  186.5250  179.2690  146.6750 C   0  0  0  0  0  2  0  0  0  0  0  0
  185.2910  178.2000  145.0240 C   0  0  0  0  0  2  0  0  0  0  0  0
  186.6400  178.6960  145.3350 N   0  0  0  0  0  0  0  0  0  0  0  0
  1  8  1  0  0  0  0
  1  5  1  1  0  0  0
  2 27  1  1  0  0  0
  2 11  1  0  0  0  0
  2  4  1  0  0  0  0
  3  5  1  0  0  0  0
  4  8  1  0  0  0  0
  5  7  1  0  0  0  0
  5 13  1  0  0  0  0
  6 12  1  0  0  0  0
  6  9  1  0  0  0  0
  8 52  1  1  0  0  0
  9  3  1  0  0  0  0
 10  6  2  0  0  0  0
 11 12  1  1  0  0  0
 11  1  1  0  0  0  0
 14 20  1  0  0  0  0
 15 14  1  0  0  0  0
 15 25  2  0  0  0  0
 16 26  1  0  0  0  0
 16 19  1  0  0  0  0
 17 18  2  0  0  0  0
 18 27  1  0  0  0  0
 18 21  1  0  0  0  0
 19 17  1  0  0  0  0
 19 23  2  0  0  0  0
 20 24  1  0  0  0  0
 20 21  2  0  0  0  0
 22 14  2  0  0  0  0
 22 17  1  0  0  0  0
 23 27  1  0  0  0  0
 25 24  1  0  0  0  0
 29 28  1  6  0  0  0
 29 25  1  0  0  0  0
 30 29  1  0  0  0  0
 31 30  1  0  0  0  0
 32 10  1  0  0  0  0
 32 38  1  0  0  0  0
 33 40  1  0  0  0  0
 34 37  1  6  0  0  0
 35 41  1  6  0  0  0
 35 36  1  0  0  0  0
 35 34  1  0  0  0  0
 36 34  1  0  0  0  0
 38 36  1  0  0  0  0
 38 39  1  0  0  0  0
 39 33  1  0  0  0  0
 40 37  1  0  0  0  0
 42 41  1  0  0  0  0
 43 44  2  0  0  0  0
 44 42  1  0  0  0  0
 45 44  2  0  0  0  0
 46 44  1  0  0  0  0
 46 49  1  0  0  0  0
 47 50  1  0  0  0  0
 47 46  1  0  0  0  0
 49 48  2  0  0  0  0
 50 51  1  0  0  0  0
 51 48  1  0  0  0  0
 52 53  1  0  0  0  0
 53 54  1  0  0  0  0
 54 57  1  0  0  0  0
 55 60  2  0  0  0  0
 56 65  1  0  0  0  0
 56 63  1  0  0  0  0
 57 62  1  0  0  0  0
 57 64  1  0  0  0  0
 58 59  1  0  0  0  0
 58 65  2  0  0  0  0
 60 62  1  0  0  0  0
 60 61  1  0  0  0  0
 61 56  2  0  0  0  0
 62 58  1  0  0  0  0
 64 59  1  0  0  0  0
 67 66  1  0  0  0  0
 68 66  1  0  0  0  0
 69 70  1  0  0  0  0
 69 67  1  0  0  0  0
 70 64  1  0  0  0  0
 70 68  1  0  0  0  0
M  END
>  <MODEL>
4

>  <REMARK>
 VINA RESULT:      -7.5      2.994      9.059
  Name = 
  14 active torsions:
  status: ('A' for Active; 'I' for Inactive)
    1  A    between atoms: C_1  and  CA_43
    2  A    between atoms: O_4  and  C_25
    3  A    between atoms: O_4  and  C_65
    4  A    between atoms: C_5  and  S_42
    5  A    between atoms: C_17  and  N_68
    6  A    between atoms: C_26  and  C_69
    7  A    between atoms: C_30  and  C_36
    8  A    between atoms: C_30  and  C_51
    9  A    between atoms: N_32  and  S_42
   10  A    between atoms: N_32  and  C_69
   11  A    between atoms: C_40  and  O_44
   12  A    between atoms: CA_43  and  C_60
   13  A    between atoms: O_44  and  C_65
   14  A    between atoms: N_61  and  C_62
                            x       y       z     vdW  Elec       q    Type
                         _______ _______ _______ _____ _____    ______ ____

>  <TORSDO>
F 14

$$$$
=
 OpenBabel11042412063D

 70 80  0  0  1  0  0  0  0  0999 V2000
  189.0400  177.5900  138.5440 C   0  0  1  0  0  3  0  0  0  0  0  0
  188.7870  176.6710  140.6830 C   0  0  2  0  0  3  0  0  0  0  0  0
  187.6170  178.4790  136.5640 C   0  0  0  0  0  2  0  0  0  0  0  0
  190.2840  176.6670  140.3650 C   0  0  0  0  0  2  0  0  0  0  0  0
  188.8480  178.6840  137.4710 C   0  0  0  0  0  0  0  0  0  0  0  0
  185.9590  177.8960  138.3450 C   0  0  0  0  0  0  0  0  0  0  0  0
  188.7740  179.9310  138.1190 O   0  0  0  0  0  1  0  0  0  0  0  0
  190.3090  176.8490  138.8380 C   0  0  2  0  0  3  0  0  0  0  0  0
  186.5940  177.4580  137.0630 C   0  0  0  0  0  2  0  0  0  0  0  0
  184.6840  178.3210  138.3620 C   0  0  0  0  0  3  0  0  0  0  0  0
  188.1630  177.3980  139.5360 C   0  0  1  0  0  3  0  0  0  0  0  0
  186.7800  178.0190  139.6190 C   0  0  0  0  0  2  0  0  0  0  0  0
  189.9390  178.7310  136.6050 O   0  0  0  0  0  1  0  0  0  0  0  0
  185.1530  178.6710  143.9800 C   0  0  0  0  0  0  0  0  0  0  0  0
  184.0020  179.0760  144.5210 N   0  0  0  0  0  0  0  0  0  0  0  0
  189.4530  178.2510  145.2360 N   0  0  0  0  0  2  0  0  0  0  0  0
  187.4460  178.1480  143.7720 C   0  0  0  0  0  0  0  0  0  0  0  0
  187.2620  177.7270  142.4640 C   0  0  0  0  0  0  0  0  0  0  0  0
  188.7790  177.9660  144.0110 C   0  0  0  0  0  0  0  0  0  0  0  0
  184.9380  178.2560  142.6790 C   0  0  0  0  0  0  0  0  0  0  0  0
  185.9860  177.7700  141.8680 C   0  0  0  0  0  3  0  0  0  0  0  0
  186.4140  178.6260  144.5780 C   0  0  0  0  0  3  0  0  0  0  0  0
  189.3780  177.4510  142.9140 N   0  0  0  0  0  0  0  0  0  0  0  0
  183.6430  178.4290  142.3510 N   0  0  0  0  0  2  0  0  0  0  0  0
  183.1010  178.9070  143.5040 C   0  0  0  0  0  0  0  0  0  0  0  0
  190.8650  177.9270  145.3790 C   0  0  0  0  0  1  0  0  0  0  0  0
  188.4600  177.2960  141.9730 N   0  0  0  0  0  0  0  0  0  0  0  0
  180.9850  178.6040  144.6170 N   0  0  0  0  0  1  0  0  0  0  0  0
  181.6700  179.3620  143.5990 C   0  0  2  0  0  3  0  0  0  0  0  0
  180.9170  179.2360  142.2730 C   0  0  0  0  0  2  0  0  0  0  0  0
  180.0570  180.3260  142.0690 O   0  0  0  0  0  1  0  0  0  0  0  0
  183.8360  178.5790  137.1220 C   0  0  0  0  0  2  0  0  0  0  0  0
  180.4430  177.7310  135.6390 C   0  0  0  0  0  2  0  0  0  0  0  0
  180.3120  179.7980  138.1740 C   0  0  1  0  0  3  0  0  0  0  0  0
  180.5210  178.5280  139.0260 C   0  0  2  0  0  3  0  0  0  0  0  0
  181.7200  179.1600  138.3060 C   0  0  1  0  0  3  0  0  0  0  0  0
  179.8850  179.8590  136.7650 N   0  0  0  0  0  2  0  0  0  0  0  0
  182.3600  178.2370  137.2290 C   0  0  1  0  0  3  0  0  0  0  0  0
  181.8260  178.3500  135.8010 C   0  0  0  0  0  2  0  0  0  0  0  0
  179.3240  178.6410  136.1900 C   0  0  0  0  0  2  0  0  0  0  0  0
  179.8390  177.2470  138.5220 C   0  0  0  0  0  2  0  0  0  0  0  0
  180.2480  176.0690  139.2850 N   0  0  0  0  0  2  0  0  0  0  0  0
  179.1220  174.8640  137.2500 O   0  0  0  0  0  0  0  0  0  0  0  0
  180.1400  174.6310  138.3310 S   0  0  0  0  0  0  0  0  0  0  0  0
  179.6820  173.4840  139.1820 O   0  0  0  0  0  0  0  0  0  0  0  0
  181.6920  174.1390  137.5500 C   0  0  2  0  0  3  0  0  0  0  0  0
  182.8470  174.8920  138.2230 C   0  0  0  0  0  2  0  0  0  0  0  0
  182.7300  174.7630  135.3800 C   0  0  0  0  0  3  0  0  0  0  0  0
  181.6470  174.3980  136.0600 C   0  0  0  0  0  3  0  0  0  0  0  0
  184.1380  174.6010  137.4570 C   0  0  0  0  0  2  0  0  0  0  0  0
  183.9720  174.9810  136.0410 N   0  0  0  0  0  2  0  0  0  0  0  0
  191.4570  177.5560  138.4370 O   0  0  0  0  0  0  0  0  0  0  0  0
  192.2970  176.5750  137.9150 C   0  0  0  0  0  2  0  0  0  0  0  0
  192.5270  176.7420  136.5390 O   0  0  0  0  0  0  0  0  0  0  0  0
  190.3040  176.8360  134.6080 O   0  0  0  0  0  0  0  0  0  0  0  0
  188.5930  173.9310  135.7220 C   0  0  0  0  0  0  0  0  0  0  0  0
  192.4910  175.4800  135.9260 C   0  0  2  0  0  3  0  0  0  0  0  0
  190.9030  173.8490  136.3470 C   0  0  0  0  0  0  0  0  0  0  0  0
  192.1050  173.2850  136.9700 C   0  0  0  0  0  2  0  0  0  0  0  0
  190.0960  175.7220  135.1420 C   0  0  0  0  0  0  0  0  0  0  0  0
  188.8180  175.1820  135.1220 C   0  0  0  0  0  3  0  0  0  0  0  0
  191.1050  175.0440  135.7680 N   0  0  0  0  0  0  0  0  0  0  0  0
  187.2430  173.3590  135.7360 C   0  0  0  0  0  1  0  0  0  0  0  0
  193.0920  174.4660  136.9260 C   0  0  1  0  0  3  0  0  0  0  0  0
  189.6450  173.2530  136.3440 C   0  0  0  0  0  3  0  0  0  0  0  0
  195.3160  172.2830  137.9830 C   0  0  0  0  0  2  0  0  0  0  0  0
  195.4570  173.5950  138.6950 C   0  0  0  0  0  2  0  0  0  0  0  0
  194.5330  172.5950  136.7230 C   0  0  0  0  0  2  0  0  0  0  0  0
  195.3870  174.5850  137.5610 C   0  0  0  0  0  2  0  0  0  0  0  0
  194.4620  174.0460  136.5540 N   0  0  0  0  0  0  0  0  0  0  0  0
  1  5  1  1  0  0  0
  1  8  1  0  0  0  0
  1 11  1  0  0  0  0
  2  4  1  6  0  0  0
  2 27  1  0  0  0  0
  3  9  1  0  0  0  0
  3  5  1  0  0  0  0
  5  7  1  0  0  0  0
  6 10  2  0  0  0  0
  6 12  1  0  0  0  0
  8 52  1  1  0  0  0
  8  4  1  0  0  0  0
  9  6  1  0  0  0  0
 11 12  1  1  0  0  0
 11  2  1  0  0  0  0
 13  5  1  0  0  0  0
 14 15  1  0  0  0  0
 14 22  1  0  0  0  0
 16 26  1  0  0  0  0
 17 19  1  0  0  0  0
 17 22  2  0  0  0  0
 18 17  1  0  0  0  0
 19 16  1  0  0  0  0
 20 14  2  0  0  0  0
 21 18  2  0  0  0  0
 21 20  1  0  0  0  0
 23 19  2  0  0  0  0
 24 20  1  0  0  0  0
 24 25  1  0  0  0  0
 25 29  1  0  0  0  0
 25 15  2  0  0  0  0
 27 18  1  0  0  0  0
 27 23  1  0  0  0  0
 29 28  1  1  0  0  0
 30 29  1  0  0  0  0
 31 30  1  0  0  0  0
 32 38  1  0  0  0  0
 32 10  1  0  0  0  0
 33 39  1  0  0  0  0
 33 40  1  0  0  0  0
 34 37  1  6  0  0  0
 34 36  1  0  0  0  0
 34 35  1  0  0  0  0
 35 41  1  6  0  0  0
 36 35  1  0  0  0  0
 38 36  1  0  0  0  0
 39 38  1  0  0  0  0
 40 37  1  0  0  0  0
 41 42  1  0  0  0  0
 43 44  2  0  0  0  0
 44 45  2  0  0  0  0
 44 42  1  0  0  0  0
 46 47  1  0  0  0  0
 46 44  1  0  0  0  0
 48 51  1  0  0  0  0
 48 49  2  0  0  0  0
 49 46  1  0  0  0  0
 50 47  1  0  0  0  0
 51 50  1  0  0  0  0
 53 52  1  0  0  0  0
 54 53  1  0  0  0  0
 55 60  2  0  0  0  0
 56 63  1  0  0  0  0
 56 65  1  0  0  0  0
 57 54  1  0  0  0  0
 57 64  1  0  0  0  0
 58 59  1  0  0  0  0
 60 62  1  0  0  0  0
 61 60  1  0  0  0  0
 61 56  2  0  0  0  0
 62 57  1  0  0  0  0
 62 58  1  0  0  0  0
 64 59  1  0  0  0  0
 65 58  2  0  0  0  0
 66 67  1  0  0  0  0
 68 66  1  0  0  0  0
 69 67  1  0  0  0  0
 70 68  1  0  0  0  0
 70 64  1  0  0  0  0
 70 69  1  0  0  0  0
M  END
>  <MODEL>
5

>  <REMARK>
 VINA RESULT:      -7.3      2.835     10.351
  Name = 
  14 active torsions:
  status: ('A' for Active; 'I' for Inactive)
    1  A    between atoms: C_1  and  CA_43
    2  A    between atoms: O_4  and  C_25
    3  A    between atoms: O_4  and  C_65
    4  A    between atoms: C_5  and  S_42
    5  A    between atoms: C_17  and  N_68
    6  A    between atoms: C_26  and  C_69
    7  A    between atoms: C_30  and  C_36
    8  A    between atoms: C_30  and  C_51
    9  A    between atoms: N_32  and  S_42
   10  A    between atoms: N_32  and  C_69
   11  A    between atoms: C_40  and  O_44
   12  A    between atoms: CA_43  and  C_60
   13  A    between atoms: O_44  and  C_65
   14  A    between atoms: N_61  and  C_62
                            x       y       z     vdW  Elec       q    Type
                         _______ _______ _______ _____ _____    ______ ____

>  <TORSDO>
F 14

$$$$
=
 OpenBabel11042412063D

 70 80  0  0  1  0  0  0  0  0999 V2000
  187.9470  175.6360  136.1920 C   0  0  1  0  0  3  0  0  0  0  0  0
  188.7520  177.4650  137.4140 C   0  0  2  0  0  3  0  0  0  0  0  0
  188.7890  173.4650  135.0460 C   0  0  0  0  0  2  0  0  0  0  0  0
  187.2570  177.6990  137.1850 C   0  0  0  0  0  2  0  0  0  0  0  0
  187.7180  174.1310  135.9350 C   0  0  0  0  0  0  0  0  0  0  0  0
  190.8140  174.4530  136.1350 C   0  0  0  0  0  0  0  0  0  0  0  0
  187.6400  173.4760  137.1780 O   0  0  0  0  0  1  0  0  0  0  0  0
  186.9310  176.7270  136.0380 C   0  0  2  0  0  3  0  0  0  0  0  0
  190.0730  174.2710  134.8470 C   0  0  0  0  0  2  0  0  0  0  0  0
  191.9550  173.7800  136.3640 C   0  0  0  0  0  3  0  0  0  0  0  0
  189.0030  176.0930  136.8760 C   0  0  1  0  0  3  0  0  0  0  0  0
  190.2180  175.2730  137.2680 C   0  0  0  0  0  2  0  0  0  0  0  0
  186.5080  173.9150  135.2760 O   0  0  0  0  0  1  0  0  0  0  0  0
  187.4060  177.9980  142.5110 C   0  0  0  0  0  0  0  0  0  0  0  0
  186.7120  178.1270  143.6440 N   0  0  0  0  0  0  0  0  0  0  0  0
  191.6950  177.4030  141.2880 N   0  0  0  0  0  2  0  0  0  0  0  0
  189.2380  177.7050  141.0510 C   0  0  0  0  0  0  0  0  0  0  0  0
  188.4030  177.7540  139.9450 C   0  0  0  0  0  0  0  0  0  0  0  0
  190.4900  177.5230  140.5330 C   0  0  0  0  0  0  0  0  0  0  0  0
  186.5480  178.0490  141.4280 C   0  0  0  0  0  0  0  0  0  0  0  0
  187.0140  177.9320  140.1010 C   0  0  0  0  0  3  0  0  0  0  0  0
  188.7830  177.8170  142.3630 C   0  0  0  0  0  3  0  0  0  0  0  0
  190.4250  177.4540  139.1850 N   0  0  0  0  0  0  0  0  0  0  0  0
  185.2870  178.2540  141.8530 N   0  0  0  0  0  2  0  0  0  0  0  0
  185.4220  178.2730  143.2060 C   0  0  0  0  0  0  0  0  0  0  0  0
  192.9520  177.1270  140.6070 C   0  0  0  0  0  1  0  0  0  0  0  0
  189.1590  177.5850  138.8220 N   0  0  0  0  0  0  0  0  0  0  0  0
  183.1810  179.1440  143.3770 N   0  0  0  0  0  1  0  0  0  0  0  0
  184.2790  178.5880  144.1310 C   0  0  2  0  0  3  0  0  0  0  0  0
  184.6700  179.5530  145.2530 C   0  0  0  0  0  2  0  0  0  0  0  0
  185.0330  178.8620  146.4180 O   0  0  0  0  0  1  0  0  0  0  0  0
  192.5030  172.6690  135.4750 C   0  0  0  0  0  2  0  0  0  0  0  0
  195.2160  170.0220  135.7330 C   0  0  0  0  0  2  0  0  0  0  0  0
  195.2590  172.2170  138.1610 C   0  0  1  0  0  3  0  0  0  0  0  0
  195.9260  173.1360  137.1150 C   0  0  2  0  0  3  0  0  0  0  0  0
  194.4090  172.9130  137.0660 C   0  0  1  0  0  3  0  0  0  0  0  0
  195.1210  170.7520  138.0920 N   0  0  0  0  0  2  0  0  0  0  0  0
  193.9220  172.2090  135.7660 C   0  0  1  0  0  3  0  0  0  0  0  0
  193.8440  170.6820  135.7820 C   0  0  0  0  0  2  0  0  0  0  0  0
  195.9330  170.0560  137.1000 C   0  0  0  0  0  2  0  0  0  0  0  0
  196.8910  172.4610  136.1270 C   0  0  0  0  0  2  0  0  0  0  0  0
  197.4320  173.4070  135.1530 N   0  0  0  0  0  2  0  0  0  0  0  0
  198.9630  175.5310  135.0950 O   0  0  0  0  0  0  0  0  0  0  0  0
  197.8580  174.9060  135.9010 S   0  0  0  0  0  0  0  0  0  0  0  0
  198.3580  174.6620  137.2930 O   0  0  0  0  0  0  0  0  0  0  0  0
  196.5010  176.0930  136.0140 C   0  0  2  0  0  3  0  0  0  0  0  0
  195.3070  175.5580  135.2130 C   0  0  0  0  0  2  0  0  0  0  0  0
  196.1030  178.2730  134.8890 C   0  0  0  0  0  3  0  0  0  0  0  0
  196.9390  177.4560  135.5230 C   0  0  0  0  0  3  0  0  0  0  0  0
  194.2190  176.6320  135.1730 C   0  0  0  0  0  2  0  0  0  0  0  0
  194.7690  177.8740  134.5950 N   0  0  0  0  0  2  0  0  0  0  0  0
  185.6100  176.2580  136.1400 O   0  0  0  0  0  0  0  0  0  0  0  0
  184.8540  177.4090  136.3580 C   0  0  0  0  0  2  0  0  0  0  0  0
  183.4730  177.1710  136.2630 O   0  0  0  0  0  0  0  0  0  0  0  0
  183.7320  174.2430  136.0520 O   0  0  0  0  0  0  0  0  0  0  0  0
  180.4020  173.4130  136.9650 C   0  0  0  0  0  0  0  0  0  0  0  0
  183.0250  176.6510  137.4870 C   0  0  2  0  0  3  0  0  0  0  0  0
  181.0000  175.5750  137.8040 C   0  0  0  0  0  0  0  0  0  0  0  0
  180.7910  176.8480  138.5010 C   0  0  0  0  0  2  0  0  0  0  0  0
  182.5900  174.3360  136.5590 C   0  0  0  0  0  0  0  0  0  0  0  0
  181.6810  173.3010  136.3910 C   0  0  0  0  0  3  0  0  0  0  0  0
  182.2190  175.4540  137.2530 N   0  0  0  0  0  0  0  0  0  0  0  0
  179.4190  172.3420  136.7730 C   0  0  0  0  0  1  0  0  0  0  0  0
  182.0220  177.6690  138.0770 C   0  0  1  0  0  3  0  0  0  0  0  0
  180.0530  174.5610  137.6800 C   0  0  0  0  0  3  0  0  0  0  0  0
  181.0260  180.0460  140.1230 C   0  0  0  0  0  2  0  0  0  0  0  0
  181.6140  180.6170  138.8680 C   0  0  0  0  0  2  0  0  0  0  0  0
  181.5410  178.6210  140.1930 C   0  0  0  0  0  2  0  0  0  0  0  0
  182.8740  179.8050  138.7060 C   0  0  0  0  0  2  0  0  0  0  0  0
  182.5970  178.4480  139.1970 N   0  0  0  0  0  0  0  0  0  0  0  0
  1  5  1  1  0  0  0
  1 11  1  0  0  0  0
  2  4  1  1  0  0  0
  2 27  1  0  0  0  0
  3  5  1  0  0  0  0
  5  7  1  0  0  0  0
  6 10  2  0  0  0  0
  6 12  1  0  0  0  0
  8 52  1  1  0  0  0
  8  1  1  0  0  0  0
  8  4  1  0  0  0  0
  9  3  1  0  0  0  0
  9  6  1  0  0  0  0
 11 12  1  1  0  0  0
 11  2  1  0  0  0  0
 13  5  1  0  0  0  0
 14 15  1  0  0  0  0
 17 22  2  0  0  0  0
 18 21  2  0  0  0  0
 18 17  1  0  0  0  0
 19 17  1  0  0  0  0
 19 16  1  0  0  0  0
 20 24  1  0  0  0  0
 20 14  2  0  0  0  0
 21 20  1  0  0  0  0
 22 14  1  0  0  0  0
 23 19  2  0  0  0  0
 24 25  1  0  0  0  0
 25 15  2  0  0  0  0
 25 29  1  0  0  0  0
 26 16  1  0  0  0  0
 27 23  1  0  0  0  0
 27 18  1  0  0  0  0
 29 28  1  6  0  0  0
 29 30  1  0  0  0  0
 30 31  1  0  0  0  0
 32 38  1  0  0  0  0
 32 10  1  0  0  0  0
 33 39  1  0  0  0  0
 33 40  1  0  0  0  0
 34 37  1  6  0  0  0
 35 41  1  6  0  0  0
 35 34  1  0  0  0  0
 36 35  1  0  0  0  0
 36 34  1  0  0  0  0
 38 39  1  0  0  0  0
 38 36  1  0  0  0  0
 40 37  1  0  0  0  0
 42 44  1  0  0  0  0
 42 41  1  0  0  0  0
 43 44  2  0  0  0  0
 44 46  1  0  0  0  0
 44 45  2  0  0  0  0
 47 46  1  0  0  0  0
 48 49  2  0  0  0  0
 49 46  1  0  0  0  0
 50 47  1  0  0  0  0
 51 48  1  0  0  0  0
 51 50  1  0  0  0  0
 52 53  1  0  0  0  0
 54 53  1  0  0  0  0
 54 57  1  0  0  0  0
 55 60  2  0  0  0  0
 56 65  1  0  0  0  0
 57 64  1  0  0  0  0
 58 59  1  0  0  0  0
 60 62  1  0  0  0  0
 61 60  1  0  0  0  0
 61 56  2  0  0  0  0
 62 57  1  0  0  0  0
 62 58  1  0  0  0  0
 63 56  1  0  0  0  0
 64 59  1  0  0  0  0
 64 70  1  0  0  0  0
 65 58  2  0  0  0  0
 66 68  1  0  0  0  0
 67 66  1  0  0  0  0
 69 67  1  0  0  0  0
 69 70  1  0  0  0  0
 70 68  1  0  0  0  0
M  END
>  <MODEL>
6

>  <REMARK>
 VINA RESULT:      -7.2      2.945      9.139
  Name = 
  14 active torsions:
  status: ('A' for Active; 'I' for Inactive)
    1  A    between atoms: C_1  and  CA_43
    2  A    between atoms: O_4  and  C_25
    3  A    between atoms: O_4  and  C_65
    4  A    between atoms: C_5  and  S_42
    5  A    between atoms: C_17  and  N_68
    6  A    between atoms: C_26  and  C_69
    7  A    between atoms: C_30  and  C_36
    8  A    between atoms: C_30  and  C_51
    9  A    between atoms: N_32  and  S_42
   10  A    between atoms: N_32  and  C_69
   11  A    between atoms: C_40  and  O_44
   12  A    between atoms: CA_43  and  C_60
   13  A    between atoms: O_44  and  C_65
   14  A    between atoms: N_61  and  C_62
                            x       y       z     vdW  Elec       q    Type
                         _______ _______ _______ _____ _____    ______ ____

>  <TORSDO>
F 14

$$$$
=
 OpenBabel11042412063D

 70 80  0  0  1  0  0  0  0  0999 V2000
  188.7680  177.6720  140.1270 C   0  0  1  0  0  3  0  0  0  0  0  0
  188.4280  176.4910  142.1210 C   0  0  2  0  0  3  0  0  0  0  0  0
  187.4420  179.0010  138.3340 C   0  0  0  0  0  2  0  0  0  0  0  0
  189.9090  176.3550  141.7630 C   0  0  0  0  0  2  0  0  0  0  0  0
  188.6990  178.9240  139.2260 C   0  0  0  0  0  0  0  0  0  0  0  0
  185.7460  178.3690  140.0610 C   0  0  0  0  0  0  0  0  0  0  0  0
  188.7850  180.0640  140.0460 O   0  0  0  0  0  1  0  0  0  0  0  0
  189.9400  176.7500  140.2770 C   0  0  2  0  0  3  0  0  0  0  0  0
  186.3080  178.0470  138.7120 C   0  0  0  0  0  2  0  0  0  0  0  0
  184.5320  178.9370  140.1740 C   0  0  0  0  0  3  0  0  0  0  0  0
  187.8850  177.4450  141.1070 C   0  0  1  0  0  3  0  0  0  0  0  0
  186.5890  178.2080  141.3160 C   0  0  0  0  0  2  0  0  0  0  0  0
  189.7780  178.9640  138.3440 O   0  0  0  0  0  1  0  0  0  0  0  0
  190.2130  177.1730  147.0630 C   0  0  0  0  0  0  0  0  0  0  0  0
  190.9800  177.1850  148.1560 N   0  0  0  0  0  0  0  0  0  0  0  0
  186.1800  178.7260  145.8120 N   0  0  0  0  0  2  0  0  0  0  0  0
  188.3770  177.5770  145.6330 C   0  0  0  0  0  0  0  0  0  0  0  0
  189.0050  176.9130  144.5910 C   0  0  0  0  0  0  0  0  0  0  0  0
  187.1810  177.9870  145.1150 C   0  0  0  0  0  0  0  0  0  0  0  0
  190.8640  176.5060  146.0420 C   0  0  0  0  0  0  0  0  0  0  0  0
  190.2840  176.3480  144.7650 C   0  0  0  0  0  3  0  0  0  0  0  0
  188.9470  177.7400  146.8950 C   0  0  0  0  0  3  0  0  0  0  0  0
  187.0850  177.6050  143.8220 N   0  0  0  0  0  0  0  0  0  0  0  0
  192.0500  176.0430  146.4810 N   0  0  0  0  0  2  0  0  0  0  0  0
  192.0960  176.4960  147.7630 C   0  0  0  0  0  0  0  0  0  0  0  0
  184.9850  179.1720  145.1080 C   0  0  0  0  0  1  0  0  0  0  0  0
  188.1930  176.9590  143.4950 N   0  0  0  0  0  0  0  0  0  0  0  0
  192.9500  174.8250  149.2760 N   0  0  0  0  0  1  0  0  0  0  0  0
  193.2030  176.1300  148.7130 C   0  0  2  0  0  3  0  0  0  0  0  0
  193.3800  177.1480  149.8410 C   0  0  0  0  0  2  0  0  0  0  0  0
  194.6890  177.1280  150.3470 O   0  0  0  0  0  1  0  0  0  0  0  0
  183.7090  179.4700  139.0070 C   0  0  0  0  0  2  0  0  0  0  0  0
  180.2240  179.4940  137.4940 C   0  0  0  0  0  2  0  0  0  0  0  0
  180.2570  179.5070  140.7670 C   0  0  1  0  0  3  0  0  0  0  0  0
  180.5670  178.0020  140.6190 C   0  0  2  0  0  3  0  0  0  0  0  0
  181.6860  179.0290  140.3980 C   0  0  1  0  0  3  0  0  0  0  0  0
  179.7120  180.4040  139.7330 N   0  0  0  0  0  2  0  0  0  0  0  0
  182.2560  179.0300  138.9490 C   0  0  1  0  0  3  0  0  0  0  0  0
  181.6000  179.9730  137.9390 C   0  0  0  0  0  2  0  0  0  0  0  0
  179.1340  179.7760  138.5490 C   0  0  0  0  0  2  0  0  0  0  0  0
  179.8770  177.2720  139.4570 C   0  0  0  0  0  2  0  0  0  0  0  0
  180.2290  175.8540  139.4110 N   0  0  0  0  0  2  0  0  0  0  0  0
  179.2500  176.2030  137.0070 O   0  0  0  0  0  0  0  0  0  0  0  0
  180.0230  175.2040  137.8220 S   0  0  0  0  0  0  0  0  0  0  0  0
  179.2400  173.9270  137.8860 O   0  0  0  0  0  0  0  0  0  0  0  0
  181.5690  174.8470  136.9590 C   0  0  2  0  0  3  0  0  0  0  0  0
  181.9430  173.3780  137.1970 C   0  0  0  0  0  2  0  0  0  0  0  0
  183.9350  175.3920  137.4950 C   0  0  0  0  0  3  0  0  0  0  0  0
  182.6660  175.7840  137.4150 C   0  0  0  0  0  3  0  0  0  0  0  0
  183.3290  173.1190  136.6060 C   0  0  0  0  0  2  0  0  0  0  0  0
  184.3050  174.0490  137.2040 N   0  0  0  0  0  2  0  0  0  0  0  0
  191.1610  177.3650  139.9490 O   0  0  0  0  0  0  0  0  0  0  0  0
  191.4670  176.8630  138.6850 C   0  0  0  0  0  2  0  0  0  0  0  0
  190.9330  175.5820  138.4720 O   0  0  0  0  0  0  0  0  0  0  0  0
  188.4400  176.1240  136.9970 O   0  0  0  0  0  0  0  0  0  0  0  0
  188.0560  172.9120  135.5320 C   0  0  0  0  0  0  0  0  0  0  0  0
  191.1800  175.2120  137.1410 C   0  0  2  0  0  3  0  0  0  0  0  0
  190.3430  173.3110  136.1200 C   0  0  0  0  0  0  0  0  0  0  0  0
  191.7680  172.9920  136.2580 C   0  0  0  0  0  2  0  0  0  0  0  0
  188.7290  174.9890  136.5510 C   0  0  0  0  0  0  0  0  0  0  0  0
  187.7240  174.1830  136.0330 C   0  0  0  0  0  3  0  0  0  0  0  0
  190.0130  174.5240  136.5920 N   0  0  0  0  0  0  0  0  0  0  0  0
  187.0040  172.0350  135.0080 C   0  0  0  0  0  1  0  0  0  0  0  0
  192.2800  174.1260  137.1630 C   0  0  1  0  0  3  0  0  0  0  0  0
  189.3800  172.4660  135.5740 C   0  0  0  0  0  3  0  0  0  0  0  0
  195.3580  172.9880  136.9230 C   0  0  0  0  0  2  0  0  0  0  0  0
  195.0980  173.5770  138.2770 C   0  0  0  0  0  2  0  0  0  0  0  0
  194.2800  173.5620  136.0240 C   0  0  0  0  0  2  0  0  0  0  0  0
  194.4080  174.8730  137.9360 C   0  0  0  0  0  2  0  0  0  0  0  0
  193.5980  174.6450  136.7320 N   0  0  0  0  0  0  0  0  0  0  0  0
  1  5  1  1  0  0  0
  1  8  1  0  0  0  0
  1 11  1  0  0  0  0
  2  4  1  6  0  0  0
  2 27  1  0  0  0  0
  3  9  1  0  0  0  0
  3  5  1  0  0  0  0
  5  7  1  0  0  0  0
  6 10  2  0  0  0  0
  6 12  1  0  0  0  0
  8 52  1  1  0  0  0
  8  4  1  0  0  0  0
  9  6  1  0  0  0  0
 11 12  1  1  0  0  0
 11  2  1  0  0  0  0
 13  5  1  0  0  0  0
 14 15  1  0  0  0  0
 17 22  2  0  0  0  0
 18 21  2  0  0  0  0
 18 17  1  0  0  0  0
 19 17  1  0  0  0  0
 19 16  1  0  0  0  0
 20 24  1  0  0  0  0
 20 14  2  0  0  0  0
 21 20  1  0  0  0  0
 22 14  1  0  0  0  0
 23 19  2  0  0  0  0
 24 25  1  0  0  0  0
 25 15  2  0  0  0  0
 25 29  1  0  0  0  0
 26 16  1  0  0  0  0
 27 23  1  0  0  0  0
 27 18  1  0  0  0  0
 29 28  1  1  0  0  0
 29 30  1  0  0  0  0
 30 31  1  0  0  0  0
 32 10  1  0  0  0  0
 33 39  1  0  0  0  0
 33 40  1  0  0  0  0
 34 37  1  6  0  0  0
 35 41  1  6  0  0  0
 35 34  1  0  0  0  0
 36 35  1  0  0  0  0
 36 34  1  0  0  0  0
 38 32  1  0  0  0  0
 38 36  1  0  0  0  0
 39 38  1  0  0  0  0
 40 37  1  0  0  0  0
 42 41  1  0  0  0  0
 43 44  2  0  0  0  0
 44 45  2  0  0  0  0
 44 42  1  0  0  0  0
 46 47  1  0  0  0  0
 46 49  1  0  0  0  0
 46 44  1  0  0  0  0
 49 48  2  0  0  0  0
 50 47  1  0  0  0  0
 50 51  1  0  0  0  0
 51 48  1  0  0  0  0
 53 52  1  0  0  0  0
 54 53  1  0  0  0  0
 56 65  1  0  0  0  0
 56 61  2  0  0  0  0
 57 64  1  0  0  0  0
 57 54  1  0  0  0  0
 58 59  1  0  0  0  0
 58 62  1  0  0  0  0
 59 64  1  0  0  0  0
 60 62  1  0  0  0  0
 60 55  2  0  0  0  0
 61 60  1  0  0  0  0
 62 57  1  0  0  0  0
 63 56  1  0  0  0  0
 65 58  2  0  0  0  0
 66 67  1  0  0  0  0
 68 70  1  0  0  0  0
 68 66  1  0  0  0  0
 69 67  1  0  0  0  0
 70 64  1  0  0  0  0
 70 69  1  0  0  0  0
M  END
>  <MODEL>
7

>  <REMARK>
 VINA RESULT:      -7.0      2.868     10.009
  Name = 
  14 active torsions:
  status: ('A' for Active; 'I' for Inactive)
    1  A    between atoms: C_1  and  CA_43
    2  A    between atoms: O_4  and  C_25
    3  A    between atoms: O_4  and  C_65
    4  A    between atoms: C_5  and  S_42
    5  A    between atoms: C_17  and  N_68
    6  A    between atoms: C_26  and  C_69
    7  A    between atoms: C_30  and  C_36
    8  A    between atoms: C_30  and  C_51
    9  A    between atoms: N_32  and  S_42
   10  A    between atoms: N_32  and  C_69
   11  A    between atoms: C_40  and  O_44
   12  A    between atoms: CA_43  and  C_60
   13  A    between atoms: O_44  and  C_65
   14  A    between atoms: N_61  and  C_62
                            x       y       z     vdW  Elec       q    Type
                         _______ _______ _______ _____ _____    ______ ____

>  <TORSDO>
F 14

$$$$
=
 OpenBabel11042412063D

 70 80  0  0  1  0  0  0  0  0999 V2000
  189.2610  177.3760  138.6650 C   0  0  1  0  0  3  0  0  0  0  0  0
  189.0430  176.4900  140.8220 C   0  0  2  0  0  3  0  0  0  0  0  0
  187.8070  178.2730  136.7110 C   0  0  0  0  0  2  0  0  0  0  0  0
  190.5300  176.4480  140.4660 C   0  0  0  0  0  2  0  0  0  0  0  0
  189.0650  178.4600  137.5840 C   0  0  0  0  0  0  0  0  0  0  0  0
  186.1840  177.7500  138.5420 C   0  0  0  0  0  0  0  0  0  0  0  0
  189.0370  179.7170  138.2170 O   0  0  0  0  0  1  0  0  0  0  0  0
  190.5200  176.6100  138.9370 C   0  0  2  0  0  3  0  0  0  0  0  0
  186.7750  177.2810  137.2500 C   0  0  0  0  0  2  0  0  0  0  0  0
  184.9190  178.2040  138.5860 C   0  0  0  0  0  3  0  0  0  0  0  0
  188.4060  177.2160  139.6830 C   0  0  1  0  0  3  0  0  0  0  0  0
  187.0400  177.8690  139.7920 C   0  0  0  0  0  2  0  0  0  0  0  0
  190.1350  178.4710  136.6890 O   0  0  0  0  0  1  0  0  0  0  0  0
  185.5310  178.5440  144.2170 C   0  0  0  0  0  0  0  0  0  0  0  0
  184.4000  178.9580  144.7940 N   0  0  0  0  0  0  0  0  0  0  0  0
  189.8770  178.1560  145.3170 N   0  0  0  0  0  2  0  0  0  0  0  0
  187.8160  178.0220  143.9320 C   0  0  0  0  0  0  0  0  0  0  0  0
  187.5840  177.5760  142.6400 C   0  0  0  0  0  0  0  0  0  0  0  0
  189.1580  177.8460  144.1240 C   0  0  0  0  0  0  0  0  0  0  0  0
  185.2680  178.1050  142.9330 C   0  0  0  0  0  0  0  0  0  0  0  0
  186.2860  177.6060  142.0920 C   0  0  0  0  0  3  0  0  0  0  0  0
  186.8150  178.5130  144.7670 C   0  0  0  0  0  3  0  0  0  0  0  0
  189.7160  177.3120  143.0150 N   0  0  0  0  0  0  0  0  0  0  0  0
  183.9620  178.2700  142.6520 N   0  0  0  0  0  2  0  0  0  0  0  0
  183.4620  178.7680  143.8150 C   0  0  0  0  0  0  0  0  0  0  0  0
  191.2950  177.8370  145.4120 C   0  0  0  0  0  1  0  0  0  0  0  0
  188.7630  177.1380  142.1120 N   0  0  0  0  0  0  0  0  0  0  0  0
  181.2860  178.2490  144.7130 N   0  0  0  0  0  1  0  0  0  0  0  0
  182.0350  179.2220  143.9550 C   0  0  2  0  0  3  0  0  0  0  0  0
  181.3510  179.4590  142.6080 C   0  0  0  0  0  2  0  0  0  0  0  0
  179.9540  179.4720  142.7390 O   0  0  0  0  0  1  0  0  0  0  0  0
  184.0460  178.4650  137.3640 C   0  0  0  0  0  2  0  0  0  0  0  0
  180.4170  178.1770  136.2760 C   0  0  0  0  0  2  0  0  0  0  0  0
  180.9300  177.4260  139.4200 C   0  0  1  0  0  3  0  0  0  0  0  0
  181.4520  176.0860  138.8580 C   0  0  2  0  0  3  0  0  0  0  0  0
  182.3470  177.3310  138.7950 C   0  0  1  0  0  3  0  0  0  0  0  0
  180.1020  178.4190  138.7140 N   0  0  0  0  0  2  0  0  0  0  0  0
  182.6890  177.7820  137.3450 C   0  0  1  0  0  3  0  0  0  0  0  0
  181.7500  178.7920  136.6850 C   0  0  0  0  0  2  0  0  0  0  0  0
  179.4640  177.9890  137.4750 C   0  0  0  0  0  2  0  0  0  0  0  0
  180.7220  175.5320  137.6240 C   0  0  0  0  0  2  0  0  0  0  0  0
  180.6030  174.0750  137.6640 N   0  0  0  0  0  2  0  0  0  0  0  0
  181.7750  174.2860  135.3320 O   0  0  0  0  0  0  0  0  0  0  0  0
  181.6140  173.3270  136.4780 S   0  0  0  0  0  0  0  0  0  0  0  0
  180.9680  172.0730  135.9690 O   0  0  0  0  0  0  0  0  0  0  0  0
  183.2590  172.8830  137.0780 C   0  0  2  0  0  3  0  0  0  0  0  0
  184.1910  174.0900  136.9120 C   0  0  0  0  0  2  0  0  0  0  0  0
  185.0780  171.5150  136.0780 C   0  0  0  0  0  3  0  0  0  0  0  0
  183.7840  171.6660  136.3480 C   0  0  0  0  0  3  0  0  0  0  0  0
  185.6160  173.6650  137.2660 C   0  0  0  0  0  2  0  0  0  0  0  0
  186.0200  172.5270  136.4190 N   0  0  0  0  0  2  0  0  0  0  0  0
  191.6730  177.2860  138.4980 O   0  0  0  0  0  0  0  0  0  0  0  0
  192.2060  176.4500  137.5180 C   0  0  0  0  0  2  0  0  0  0  0  0
  192.3160  175.1180  137.9500 O   0  0  0  0  0  0  0  0  0  0  0  0
  194.8560  173.8950  138.8080 O   0  0  0  0  0  0  0  0  0  0  0  0
  196.8290  174.9260  136.0410 C   0  0  0  0  0  0  0  0  0  0  0  0
  192.7550  174.3350  136.8710 C   0  0  2  0  0  3  0  0  0  0  0  0
  194.5060  174.8880  135.4620 C   0  0  0  0  0  0  0  0  0  0  0  0
  193.3370  175.0640  134.5940 C   0  0  0  0  0  2  0  0  0  0  0  0
  195.1620  174.2720  137.6520 C   0  0  0  0  0  0  0  0  0  0  0  0
  196.4940  174.5050  137.3400 C   0  0  0  0  0  3  0  0  0  0  0  0
  194.1990  174.4840  136.7050 N   0  0  0  0  0  0  0  0  0  0  0  0
  198.2280  175.2050  135.7010 C   0  0  0  0  0  1  0  0  0  0  0  0
  192.1640  174.9550  135.5840 C   0  0  1  0  0  3  0  0  0  0  0  0
  195.8270  175.1220  135.0880 C   0  0  0  0  0  3  0  0  0  0  0  0
  188.9150  174.7500  136.0620 C   0  0  0  0  0  2  0  0  0  0  0  0
  189.6610  173.8360  136.9860 C   0  0  0  0  0  2  0  0  0  0  0  0
  189.8860  175.0650  134.9410 C   0  0  0  0  0  2  0  0  0  0  0  0
  190.6480  173.1760  136.0560 C   0  0  0  0  0  2  0  0  0  0  0  0
  191.0350  174.1660  135.0410 N   0  0  0  0  0  0  0  0  0  0  0  0
  1  5  1  1  0  0  0
  1  8  1  0  0  0  0
  1 11  1  0  0  0  0
  2  4  1  6  0  0  0
  2 27  1  0  0  0  0
  3  9  1  0  0  0  0
  3  5  1  0  0  0  0
  5  7  1  0  0  0  0
  6 10  2  0  0  0  0
  6 12  1  0  0  0  0
  8 52  1  1  0  0  0
  8  4  1  0  0  0  0
  9  6  1  0  0  0  0
 11 12  1  1  0  0  0
 11  2  1  0  0  0  0
 13  5  1  0  0  0  0
 14 22  1  0  0  0  0
 14 15  1  0  0  0  0
 16 26  1  0  0  0  0
 17 19  1  0  0  0  0
 17 22  2  0  0  0  0
 18 17  1  0  0  0  0
 19 16  1  0  0  0  0
 20 14  2  0  0  0  0
 21 18  2  0  0  0  0
 21 20  1  0  0  0  0
 23 19  2  0  0  0  0
 24 20  1  0  0  0  0
 24 25  1  0  0  0  0
 25 29  1  0  0  0  0
 25 15  2  0  0  0  0
 27 18  1  0  0  0  0
 27 23  1  0  0  0  0
 29 28  1  6  0  0  0
 30 31  1  0  0  0  0
 30 29  1  0  0  0  0
 32 10  1  0  0  0  0
 33 39  1  0  0  0  0
 33 40  1  0  0  0  0
 34 37  1  6  0  0  0
 35 41  1  6  0  0  0
 35 34  1  0  0  0  0
 36 35  1  0  0  0  0
 36 34  1  0  0  0  0
 38 32  1  0  0  0  0
 38 36  1  0  0  0  0
 39 38  1  0  0  0  0
 40 37  1  0  0  0  0
 41 42  1  0  0  0  0
 43 44  2  0  0  0  0
 44 46  1  0  0  0  0
 44 42  1  0  0  0  0
 45 44  2  0  0  0  0
 47 46  1  0  0  0  0
 47 50  1  0  0  0  0
 48 49  2  0  0  0  0
 48 51  1  0  0  0  0
 49 46  1  0  0  0  0
 51 50  1  0  0  0  0
 53 54  1  0  0  0  0
 53 52  1  0  0  0  0
 56 61  2  0  0  0  0
 57 54  1  0  0  0  0
 58 62  1  0  0  0  0
 59 58  1  0  0  0  0
 59 64  1  0  0  0  0
 60 55  2  0  0  0  0
 61 60  1  0  0  0  0
 62 57  1  0  0  0  0
 62 60  1  0  0  0  0
 63 56  1  0  0  0  0
 64 57  1  0  0  0  0
 65 58  2  0  0  0  0
 65 56  1  0  0  0  0
 66 67  1  0  0  0  0
 68 70  1  0  0  0  0
 68 66  1  0  0  0  0
 69 67  1  0  0  0  0
 70 64  1  0  0  0  0
 70 69  1  0  0  0  0
M  END
>  <MODEL>
8

>  <REMARK>
 VINA RESULT:      -6.9      2.743     10.863
  Name = 
  14 active torsions:
  status: ('A' for Active; 'I' for Inactive)
    1  A    between atoms: C_1  and  CA_43
    2  A    between atoms: O_4  and  C_25
    3  A    between atoms: O_4  and  C_65
    4  A    between atoms: C_5  and  S_42
    5  A    between atoms: C_17  and  N_68
    6  A    between atoms: C_26  and  C_69
    7  A    between atoms: C_30  and  C_36
    8  A    between atoms: C_30  and  C_51
    9  A    between atoms: N_32  and  S_42
   10  A    between atoms: N_32  and  C_69
   11  A    between atoms: C_40  and  O_44
   12  A    between atoms: CA_43  and  C_60
   13  A    between atoms: O_44  and  C_65
   14  A    between atoms: N_61  and  C_62
                            x       y       z     vdW  Elec       q    Type
                         _______ _______ _______ _____ _____    ______ ____

>  <TORSDO>
F 14

$$$$
=
 OpenBabel11042412063D

 70 80  0  0  1  0  0  0  0  0999 V2000
  185.4690  178.0550  138.0520 C   0  0  1  0  0  3  0  0  0  0  0  0
  185.1320  179.2060  140.0640 C   0  0  2  0  0  3  0  0  0  0  0  0
  187.3880  177.1360  136.5670 C   0  0  0  0  0  2  0  0  0  0  0  0
  183.7570  179.0120  139.4210 C   0  0  0  0  0  2  0  0  0  0  0  0
  186.0000  176.8880  137.1930 C   0  0  0  0  0  0  0  0  0  0  0  0
  188.5240  178.0750  138.5890 C   0  0  0  0  0  0  0  0  0  0  0  0
  186.0250  175.7280  137.9890 O   0  0  0  0  0  1  0  0  0  0  0  0
  184.1070  178.6760  137.9610 C   0  0  2  0  0  3  0  0  0  0  0  0
  188.1740  178.3100  137.1530 C   0  0  0  0  0  2  0  0  0  0  0  0
  189.7910  177.7980  138.9440 C   0  0  0  0  0  3  0  0  0  0  0  0
  186.0680  178.4420  139.1850 C   0  0  1  0  0  3  0  0  0  0  0  0
  187.4400  177.9900  139.6510 C   0  0  0  0  0  2  0  0  0  0  0  0
  185.1520  176.6340  136.1160 O   0  0  0  0  0  1  0  0  0  0  0  0
  188.0350  177.5980  144.1950 C   0  0  0  0  0  0  0  0  0  0  0  0
  189.0540  177.2470  144.9830 N   0  0  0  0  0  0  0  0  0  0  0  0
  183.6020  178.2610  144.5860 N   0  0  0  0  0  2  0  0  0  0  0  0
  185.8400  178.1300  143.5090 C   0  0  0  0  0  0  0  0  0  0  0  0
  186.2700  178.3690  142.2130 C   0  0  0  0  0  0  0  0  0  0  0  0
  184.4940  178.3680  143.4770 C   0  0  0  0  0  0  0  0  0  0  0  0
  188.4950  177.8300  142.9120 C   0  0  0  0  0  0  0  0  0  0  0  0
  187.6290  178.2230  141.8690 C   0  0  0  0  0  3  0  0  0  0  0  0
  186.6910  177.7450  144.5430 C   0  0  0  0  0  3  0  0  0  0  0  0
  184.1220  178.7420  142.2330 N   0  0  0  0  0  0  0  0  0  0  0  0
  189.8190  177.5910  142.8500 N   0  0  0  0  0  2  0  0  0  0  0  0
  190.1270  177.2620  144.1330 C   0  0  0  0  0  0  0  0  0  0  0  0
  182.2020  178.6270  144.4270 C   0  0  0  0  0  1  0  0  0  0  0  0
  185.1980  178.7530  141.4620 N   0  0  0  0  0  0  0  0  0  0  0  0
  191.7560  175.4900  143.9880 N   0  0  0  0  0  1  0  0  0  0  0  0
  191.4980  176.7970  144.5440 C   0  0  2  0  0  3  0  0  0  0  0  0
  191.6810  176.7530  146.0620 C   0  0  0  0  0  2  0  0  0  0  0  0
  192.1080  175.4870  146.4890 O   0  0  0  0  0  1  0  0  0  0  0  0
  190.9250  177.5130  137.9660 C   0  0  0  0  0  2  0  0  0  0  0  0
  192.0860  173.9160  137.5860 C   0  0  0  0  0  2  0  0  0  0  0  0
  191.6960  175.4990  134.7470 C   0  0  1  0  0  3  0  0  0  0  0  0
  190.1930  175.2370  134.9820 C   0  0  2  0  0  3  0  0  0  0  0  0
  190.8920  176.3650  135.7520 C   0  0  1  0  0  3  0  0  0  0  0  0
  192.8260  174.8240  135.4100 N   0  0  0  0  0  2  0  0  0  0  0  0
  190.9120  176.1510  137.2930 C   0  0  1  0  0  3  0  0  0  0  0  0
  192.1120  175.4100  137.8840 C   0  0  0  0  0  2  0  0  0  0  0  0
  192.5280  173.5970  136.1420 C   0  0  0  0  0  2  0  0  0  0  0  0
  189.8260  173.8960  135.6360 C   0  0  0  0  0  2  0  0  0  0  0  0
  188.4070  173.8230  135.9820 N   0  0  0  0  0  2  0  0  0  0  0  0
  187.7000  171.6860  137.3200 O   0  0  0  0  0  0  0  0  0  0  0  0
  187.8240  172.1970  135.9120 S   0  0  0  0  0  0  0  0  0  0  0  0
  188.8010  171.3330  135.1720 O   0  0  0  0  0  0  0  0  0  0  0  0
  186.2200  172.0170  135.1020 C   0  0  2  0  0  3  0  0  0  0  0  0
  185.2480  173.0460  135.6920 C   0  0  0  0  0  2  0  0  0  0  0  0
  184.4010  170.3460  135.3740 C   0  0  0  0  0  3  0  0  0  0  0  0
  185.7000  170.6040  135.2530 C   0  0  0  0  0  3  0  0  0  0  0  0
  183.8520  172.7870  135.1250 C   0  0  0  0  0  2  0  0  0  0  0  0
  183.4450  171.4000  135.4210 N   0  0  0  0  0  2  0  0  0  0  0  0
  183.1510  177.8100  137.4040 O   0  0  0  0  0  0  0  0  0  0  0  0
  182.4010  178.6260  136.5590 C   0  0  0  0  0  2  0  0  0  0  0  0
  181.5710  179.5110  137.2650 O   0  0  0  0  0  0  0  0  0  0  0  0
  180.2170  181.1240  139.3270 O   0  0  0  0  0  0  0  0  0  0  0  0
  179.6040  178.5030  141.6430 C   0  0  0  0  0  0  0  0  0  0  0  0
  180.3520  178.8660  137.5260 C   0  0  2  0  0  3  0  0  0  0  0  0
  179.8900  177.6330  139.4300 C   0  0  0  0  0  0  0  0  0  0  0  0
  179.9840  176.5950  138.3990 C   0  0  0  0  0  2  0  0  0  0  0  0
  180.0350  179.9710  139.7820 C   0  0  0  0  0  0  0  0  0  0  0  0
  179.8100  179.8000  141.1400 C   0  0  0  0  0  3  0  0  0  0  0  0
  180.0820  178.8780  138.9630 N   0  0  0  0  0  0  0  0  0  0  0  0
  179.3940  178.3010  143.0800 C   0  0  0  0  0  1  0  0  0  0  0  0
  180.5450  177.3690  137.1930 C   0  0  1  0  0  3  0  0  0  0  0  0
  179.6440  177.4040  140.7820 C   0  0  0  0  0  3  0  0  0  0  0  0
  179.5500  174.5900  135.7380 C   0  0  0  0  0  2  0  0  0  0  0  0
  180.9790  174.9000  135.4050 C   0  0  0  0  0  2  0  0  0  0  0  0
  178.9600  175.9010  136.2200 C   0  0  0  0  0  2  0  0  0  0  0  0
  180.9170  176.3660  135.0610 C   0  0  0  0  0  2  0  0  0  0  0  0
  179.8950  176.9830  135.9200 N   0  0  0  0  0  0  0  0  0  0  0  0
  1  5  1  1  0  0  0
  1 11  1  0  0  0  0
  2  4  1  6  0  0  0
  2 27  1  0  0  0  0
  3  9  1  0  0  0  0
  3  5  1  0  0  0  0
  5  7  1  0  0  0  0
  6 10  2  0  0  0  0
  6 12  1  0  0  0  0
  8 52  1  1  0  0  0
  8  1  1  0  0  0  0
  8  4  1  0  0  0  0
  9  6  1  0  0  0  0
 11 12  1  1  0  0  0
 11  2  1  0  0  0  0
 13  5  1  0  0  0  0
 14 22  1  0  0  0  0
 14 15  1  0  0  0  0
 17 22  2  0  0  0  0
 18 17  1  0  0  0  0
 19 17  1  0  0  0  0
 19 16  1  0  0  0  0
 20 14  2  0  0  0  0
 21 18  2  0  0  0  0
 21 20  1  0  0  0  0
 23 19  2  0  0  0  0
 24 20  1  0  0  0  0
 24 25  1  0  0  0  0
 25 29  1  0  0  0  0
 25 15  2  0  0  0  0
 26 16  1  0  0  0  0
 27 18  1  0  0  0  0
 27 23  1  0  0  0  0
 29 28  1  1  0  0  0
 29 30  1  0  0  0  0
 30 31  1  0  0  0  0
 32 10  1  0  0  0  0
 33 39  1  0  0  0  0
 34 35  1  0  0  0  0
 34 37  1  1  0  0  0
 34 36  1  0  0  0  0
 35 41  1  1  0  0  0
 35 36  1  0  0  0  0
 36 38  1  0  0  0  0
 37 40  1  0  0  0  0
 38 39  1  0  0  0  0
 38 32  1  0  0  0  0
 40 33  1  0  0  0  0
 41 42  1  0  0  0  0
 44 42  1  0  0  0  0
 44 43  2  0  0  0  0
 45 44  2  0  0  0  0
 46 49  1  0  0  0  0
 46 47  1  0  0  0  0
 46 44  1  0  0  0  0
 48 51  1  0  0  0  0
 49 48  2  0  0  0  0
 50 51  1  0  0  0  0
 50 47  1  0  0  0  0
 53 54  1  0  0  0  0
 53 52  1  0  0  0  0
 54 57  1  0  0  0  0
 55 60  2  0  0  0  0
 56 63  1  0  0  0  0
 57 62  1  0  0  0  0
 58 65  2  0  0  0  0
 59 58  1  0  0  0  0
 60 61  1  0  0  0  0
 61 56  2  0  0  0  0
 62 58  1  0  0  0  0
 62 60  1  0  0  0  0
 64 57  1  0  0  0  0
 64 59  1  0  0  0  0
 65 56  1  0  0  0  0
 66 68  1  0  0  0  0
 67 66  1  0  0  0  0
 69 67  1  0  0  0  0
 69 70  1  0  0  0  0
 70 68  1  0  0  0  0
 70 64  1  0  0  0  0
M  END
>  <MODEL>
9

>  <REMARK>
 VINA RESULT:      -6.8      2.838      7.753
  Name = 
  14 active torsions:
  status: ('A' for Active; 'I' for Inactive)
    1  A    between atoms: C_1  and  CA_43
    2  A    between atoms: O_4  and  C_25
    3  A    between atoms: O_4  and  C_65
    4  A    between atoms: C_5  and  S_42
    5  A    between atoms: C_17  and  N_68
    6  A    between atoms: C_26  and  C_69
    7  A    between atoms: C_30  and  C_36
    8  A    between atoms: C_30  and  C_51
    9  A    between atoms: N_32  and  S_42
   10  A    between atoms: N_32  and  C_69
   11  A    between atoms: C_40  and  O_44
   12  A    between atoms: CA_43  and  C_60
   13  A    between atoms: O_44  and  C_65
   14  A    between atoms: N_61  and  C_62
                            x       y       z     vdW  Elec       q    Type
                         _______ _______ _______ _____ _____    ______ ____

>  <TORSDO>
F 14

$$$$
