=
 OpenBabel11042411333D

 36 38  0  0  1  0  0  0  0  0999 V2000
  187.2130  177.8560  142.5600 C   0  0  0  0  0  0  0  0  0  0  0  0
  188.2920  177.9110  140.3840 C   0  0  0  0  0  0  0  0  0  0  0  0
  189.3730  176.8680  142.3060 C   0  0  0  0  0  0  0  0  0  0  0  0
  188.2900  177.1960  143.0620 N   0  0  0  0  0  0  0  0  0  0  0  0
  190.4710  176.9030  140.1770 F   0  0  0  0  0  0  0  0  0  0  0  0
  187.2060  178.2210  141.2110 C   0  0  0  0  0  3  0  0  0  0  0  0
  189.3940  177.2210  140.9410 C   0  0  0  0  0  0  0  0  0  0  0  0
  183.8800  178.7710  145.0900 C   0  0  0  0  0  3  0  0  0  0  0  0
  184.7890  178.3270  142.8960 C   0  0  0  0  0  3  0  0  0  0  0  0
  186.2430  178.3180  144.8280 C   0  0  0  0  0  3  0  0  0  0  0  0
  185.1520  178.6170  145.6470 C   0  0  0  0  0  3  0  0  0  0  0  0
  183.6870  178.6270  143.7080 C   0  0  0  0  0  0  0  0  0  0  0  0
  186.0710  178.1690  143.4430 C   0  0  0  0  0  0  0  0  0  0  0  0
  181.1970  178.8420  143.9040 C   0  0  0  0  0  3  0  0  0  0  0  0
  182.2210  178.9020  141.7480 N   0  0  0  0  0  0  0  0  0  0  0  0
  181.0110  179.0570  141.1470 C   0  0  0  0  0  3  0  0  0  0  0  0
  179.9460  179.0010  143.3050 C   0  0  0  0  0  3  0  0  0  0  0  0
  179.8480  179.1090  141.9180 C   0  0  0  0  0  3  0  0  0  0  0  0
  182.3470  178.7920  143.1020 C   0  0  0  0  0  0  0  0  0  0  0  0
  188.2190  178.3280  138.9600 C   0  0  0  0  0  0  0  0  0  0  0  0
  187.3700  177.7570  138.1030 C   0  0  0  0  0  3  0  0  0  0  0  0
  189.0610  179.3440  138.5120 O   0  0  0  0  0  1  0  0  0  0  0  0
  188.6930  177.6630  135.5280 C   0  0  0  0  0  1  0  0  0  0  0  0
  187.2570  178.2260  136.4130 S   0  0  0  0  0  0  0  0  0  0  0  0
  186.0160  177.6390  135.8040 O   0  0  0  0  0  0  0  0  0  0  0  0
  187.1880  179.7240  136.3280 O   0  0  0  0  0  0  0  0  0  0  0  0
  190.4020  174.9210  143.2310 O   0  0  0  0  0  0  0  0  0  0  0  0
  190.4920  176.1460  142.9530 C   0  0  0  0  0  0  0  0  0  0  0  0
  191.7460  176.8760  143.3100 C   0  0  0  0  0  2  0  0  0  0  0  0
  190.8510  178.9070  144.2170 O   0  0  0  0  0  1  0  0  0  0  0  0
  191.5290  177.7320  144.5480 C   0  0  1  0  0  3  0  0  0  0  0  0
  190.7870  176.9700  145.6460 C   0  0  0  0  0  2  0  0  0  0  0  0
  189.5670  177.7180  146.1800 C   0  0  0  0  0  2  0  0  0  0  0  0
  188.9460  177.0000  147.3700 C   0  0  0  0  0  2  0  0  0  0  0  0
  187.5360  178.6950  148.2910 O   0  0  0  0  0  1  0  0  0  0  0  0
  188.6980  177.9570  148.5240 C   0  0  0  0  0  2  0  0  0  0  0  0
  1  4  1  0  0  0  0
  1 13  1  0  0  0  0
  2  7  2  0  0  0  0
  2  6  1  0  0  0  0
  3 28  1  0  0  0  0
  3  4  2  0  0  0  0
  5  7  1  0  0  0  0
  6  1  2  0  0  0  0
  7  3  1  0  0  0  0
  8 11  1  0  0  0  0
  9 13  2  0  0  0  0
  9 12  1  0  0  0  0
 10 11  2  0  0  0  0
 12  8  2  0  0  0  0
 13 10  1  0  0  0  0
 15 19  1  0  0  0  0
 16 15  2  0  0  0  0
 16 18  1  0  0  0  0
 17 14  1  0  0  0  0
 18 17  2  0  0  0  0
 19 12  1  0  0  0  0
 19 14  2  0  0  0  0
 20  2  1  0  0  0  0
 21 20  2  0  0  0  0
 22 20  1  0  0  0  0
 23 24  1  0  0  0  0
 24 21  1  0  0  0  0
 25 24  2  0  0  0  0
 26 24  2  0  0  0  0
 28 27  2  0  0  0  0
 28 29  1  0  0  0  0
 29 31  1  0  0  0  0
 31 30  1  6  0  0  0
 31 32  1  0  0  0  0
 32 33  1  0  0  0  0
 33 34  1  0  0  0  0
 34 36  1  0  0  0  0
 35 36  1  0  0  0  0
M  END
>  <MODEL>
1

>  <REMARK>
 VINA RESULT:      -9.1      0.000      0.000
  Name = 
  11 active torsions:
  status: ('A' for Active; 'I' for Inactive)
    1  A    between atoms: C_2  and  C_12
    2  A    between atoms: C_5  and  C_7
    3  A    between atoms: C_5  and  C_11
    4  A    between atoms: C_7  and  C_14
    5  A    between atoms: C_10  and  C_36
    6  A    between atoms: C_11  and  C_22
    7  A    between atoms: C_13  and  C_19
    8  A    between atoms: C_13  and  C_22
    9  A    between atoms: C_17  and  C_19
   10  A    between atoms: S_20  and  C_28
   11  A    between atoms: C_30  and  C_34
                            x       y       z     vdW  Elec       q    Type
                         _______ _______ _______ _____ _____    ______ ____

>  <TORSDO>
F 11

$$$$
=
 OpenBabel11042411333D

 36 38  0  0  1  0  0  0  0  0999 V2000
  186.9050  177.8540  143.4110 C   0  0  0  0  0  0  0  0  0  0  0  0
  184.5720  178.4780  143.6670 C   0  0  0  0  0  0  0  0  0  0  0  0
  186.0880  178.4410  145.5770 C   0  0  0  0  0  0  0  0  0  0  0  0
  187.0880  178.0440  144.7440 N   0  0  0  0  0  0  0  0  0  0  0  0
  183.7930  179.0600  145.8710 F   0  0  0  0  0  0  0  0  0  0  0  0
  185.6390  178.0690  142.8590 C   0  0  0  0  0  3  0  0  0  0  0  0
  184.8010  178.6680  145.0490 C   0  0  0  0  0  0  0  0  0  0  0  0
  190.1870  176.6350  140.9410 C   0  0  0  0  0  3  0  0  0  0  0  0
  188.0480  177.7290  141.1990 C   0  0  0  0  0  3  0  0  0  0  0  0
  189.1280  176.7270  143.1160 C   0  0  0  0  0  3  0  0  0  0  0  0
  190.1950  176.3320  142.3050 C   0  0  0  0  0  3  0  0  0  0  0  0
  189.1120  177.3370  140.3760 C   0  0  0  0  0  0  0  0  0  0  0  0
  188.0440  177.4310  142.5700 C   0  0  0  0  0  0  0  0  0  0  0  0
  189.1070  176.6440  137.9660 C   0  0  0  0  0  3  0  0  0  0  0  0
  189.0380  178.9640  138.5280 N   0  0  0  0  0  0  0  0  0  0  0  0
  189.0100  179.3090  137.2130 C   0  0  0  0  0  3  0  0  0  0  0  0
  189.0800  176.9790  136.6120 C   0  0  0  0  0  3  0  0  0  0  0  0
  189.0320  178.3190  136.2280 C   0  0  0  0  0  3  0  0  0  0  0  0
  189.0860  177.6620  138.9330 C   0  0  0  0  0  0  0  0  0  0  0  0
  183.2520  178.6900  143.0160 C   0  0  0  0  0  0  0  0  0  0  0  0
  182.1340  178.8400  143.7280 C   0  0  0  0  0  3  0  0  0  0  0  0
  183.1870  178.7330  141.6250 O   0  0  0  0  0  1  0  0  0  0  0  0
  179.2810  178.9360  144.2190 C   0  0  0  0  0  1  0  0  0  0  0  0
  180.5590  179.0920  142.9920 S   0  0  0  0  0  0  0  0  0  0  0  0
  180.5030  180.4560  142.3630 O   0  0  0  0  0  0  0  0  0  0  0  0
  180.3450  178.0510  141.9300 O   0  0  0  0  0  0  0  0  0  0  0  0
  186.0100  179.6430  147.6390 O   0  0  0  0  0  0  0  0  0  0  0  0
  186.3970  178.6210  147.0140 C   0  0  0  0  0  0  0  0  0  0  0  0
  187.2000  177.5920  147.7410 C   0  0  0  0  0  2  0  0  0  0  0  0
  189.1270  178.3210  148.9670 O   0  0  0  0  0  1  0  0  0  0  0  0
  188.6790  177.9450  147.6990 C   0  0  1  0  0  3  0  0  0  0  0  0
  189.5240  176.7980  147.1460 C   0  0  0  0  0  2  0  0  0  0  0  0
  190.6020  177.2610  146.1670 C   0  0  0  0  0  2  0  0  0  0  0  0
  191.8250  176.3540  146.2110 C   0  0  0  0  0  2  0  0  0  0  0  0
  193.0100  176.1960  148.2800 O   0  0  0  0  0  1  0  0  0  0  0  0
  191.9460  175.6560  147.5560 C   0  0  0  0  0  2  0  0  0  0  0  0
  1  4  1  0  0  0  0
  2  7  2  0  0  0  0
  3 28  1  0  0  0  0
  4  3  2  0  0  0  0
  6  1  2  0  0  0  0
  6  2  1  0  0  0  0
  7  3  1  0  0  0  0
  7  5  1  0  0  0  0
  8 11  1  0  0  0  0
  9 13  2  0  0  0  0
 11 10  2  0  0  0  0
 12  8  2  0  0  0  0
 12  9  1  0  0  0  0
 13 10  1  0  0  0  0
 13  1  1  0  0  0  0
 14 19  1  0  0  0  0
 15 19  2  0  0  0  0
 16 15  1  0  0  0  0
 17 14  2  0  0  0  0
 18 17  1  0  0  0  0
 18 16  2  0  0  0  0
 19 12  1  0  0  0  0
 20  2  1  0  0  0  0
 20 21  2  0  0  0  0
 22 20  1  0  0  0  0
 24 21  1  0  0  0  0
 24 23  1  0  0  0  0
 25 24  2  0  0  0  0
 26 24  2  0  0  0  0
 28 27  2  0  0  0  0
 28 29  1  0  0  0  0
 31 29  1  0  0  0  0
 31 30  1  1  0  0  0
 32 31  1  0  0  0  0
 33 34  1  0  0  0  0
 33 32  1  0  0  0  0
 34 36  1  0  0  0  0
 36 35  1  0  0  0  0
M  END
>  <MODEL>
2

>  <REMARK>
 VINA RESULT:      -9.0      3.607      6.931
  Name = 
  11 active torsions:
  status: ('A' for Active; 'I' for Inactive)
    1  A    between atoms: C_2  and  C_12
    2  A    between atoms: C_5  and  C_7
    3  A    between atoms: C_5  and  C_11
    4  A    between atoms: C_7  and  C_14
    5  A    between atoms: C_10  and  C_36
    6  A    between atoms: C_11  and  C_22
    7  A    between atoms: C_13  and  C_19
    8  A    between atoms: C_13  and  C_22
    9  A    between atoms: C_17  and  C_19
   10  A    between atoms: S_20  and  C_28
   11  A    between atoms: C_30  and  C_34
                            x       y       z     vdW  Elec       q    Type
                         _______ _______ _______ _____ _____    ______ ____

>  <TORSDO>
F 11

$$$$
=
 OpenBabel11042411333D

 36 38  0  0  1  0  0  0  0  0999 V2000
  184.8440  178.6550  141.9000 C   0  0  0  0  0  0  0  0  0  0  0  0
  183.8140  178.9160  139.7160 C   0  0  0  0  0  0  0  0  0  0  0  0
  186.1930  178.4250  139.9430 C   0  0  0  0  0  0  0  0  0  0  0  0
  186.0390  178.4270  141.2940 N   0  0  0  0  0  0  0  0  0  0  0  0
  185.2150  178.6770  137.7700 F   0  0  0  0  0  0  0  0  0  0  0  0
  183.7170  178.9040  141.1120 C   0  0  0  0  0  3  0  0  0  0  0  0
  185.0740  178.6700  139.1210 C   0  0  0  0  0  0  0  0  0  0  0  0
  184.6210  178.5690  146.1780 C   0  0  0  0  0  3  0  0  0  0  0  0
  185.8960  178.3420  144.1370 C   0  0  0  0  0  3  0  0  0  0  0  0
  183.5440  178.8880  144.0340 C   0  0  0  0  0  3  0  0  0  0  0  0
  183.4780  178.8590  145.4290 C   0  0  0  0  0  3  0  0  0  0  0  0
  185.8420  178.3080  145.5380 C   0  0  0  0  0  0  0  0  0  0  0  0
  184.7560  178.6310  143.3750 C   0  0  0  0  0  0  0  0  0  0  0  0
  188.1960  177.4580  145.6890 C   0  0  0  0  0  3  0  0  0  0  0  0
  187.0910  178.2310  147.6590 N   0  0  0  0  0  0  0  0  0  0  0  0
  188.1890  177.9620  148.4140 C   0  0  0  0  0  3  0  0  0  0  0  0
  189.3330  177.1750  146.4480 C   0  0  0  0  0  3  0  0  0  0  0  0
  189.3330  177.4260  147.8190 C   0  0  0  0  0  3  0  0  0  0  0  0
  187.0610  177.9950  146.3160 C   0  0  0  0  0  0  0  0  0  0  0  0
  182.5770  179.1860  138.9380 C   0  0  0  0  0  0  0  0  0  0  0  0
  182.2530  180.4170  138.5400 C   0  0  0  0  0  3  0  0  0  0  0  0
  181.7380  178.1210  138.6170 O   0  0  0  0  0  1  0  0  0  0  0  0
  180.8570  179.9430  136.0470 C   0  0  0  0  0  1  0  0  0  0  0  0
  180.7990  180.7720  137.6180 S   0  0  0  0  0  0  0  0  0  0  0  0
  179.5870  180.3300  138.3880 O   0  0  0  0  0  0  0  0  0  0  0  0
  180.7210  182.2540  137.3850 O   0  0  0  0  0  0  0  0  0  0  0  0
  187.6870  177.7550  138.2040 O   0  0  0  0  0  0  0  0  0  0  0  0
  187.5400  178.1620  139.3860 C   0  0  0  0  0  0  0  0  0  0  0  0
  188.7520  178.3560  140.2390 C   0  0  0  0  0  2  0  0  0  0  0  0
  190.5010  176.7180  140.1530 O   0  0  0  0  0  1  0  0  0  0  0  0
  189.2690  177.0160  140.7400 C   0  0  1  0  0  3  0  0  0  0  0  0
  189.3730  176.9790  142.2640 C   0  0  0  0  0  2  0  0  0  0  0  0
  190.2350  175.8290  142.7820 C   0  0  0  0  0  2  0  0  0  0  0  0
  191.4210  176.3380  143.5900 C   0  0  0  0  0  2  0  0  0  0  0  0
  191.8370  178.5390  144.4190 O   0  0  0  0  0  1  0  0  0  0  0  0
  191.7400  177.7840  143.2500 C   0  0  0  0  0  2  0  0  0  0  0  0
  1 13  1  0  0  0  0
  2  6  1  0  0  0  0
  3  4  2  0  0  0  0
  4  1  1  0  0  0  0
  5  7  1  0  0  0  0
  6  1  2  0  0  0  0
  7  2  2  0  0  0  0
  7  3  1  0  0  0  0
  9 12  2  0  0  0  0
 10 11  1  0  0  0  0
 11  8  2  0  0  0  0
 12  8  1  0  0  0  0
 12 19  1  0  0  0  0
 13 10  2  0  0  0  0
 13  9  1  0  0  0  0
 14 19  2  0  0  0  0
 14 17  1  0  0  0  0
 15 16  2  0  0  0  0
 17 18  2  0  0  0  0
 18 16  1  0  0  0  0
 19 15  1  0  0  0  0
 20  2  1  0  0  0  0
 21 20  2  0  0  0  0
 22 20  1  0  0  0  0
 23 24  1  0  0  0  0
 24 25  2  0  0  0  0
 24 21  1  0  0  0  0
 26 24  2  0  0  0  0
 27 28  2  0  0  0  0
 28  3  1  0  0  0  0
 28 29  1  0  0  0  0
 29 31  1  0  0  0  0
 31 30  1  6  0  0  0
 31 32  1  0  0  0  0
 32 33  1  0  0  0  0
 33 34  1  0  0  0  0
 36 34  1  0  0  0  0
 36 35  1  0  0  0  0
M  END
>  <MODEL>
3

>  <REMARK>
 VINA RESULT:      -8.9      3.115      5.838
  Name = 
  11 active torsions:
  status: ('A' for Active; 'I' for Inactive)
    1  A    between atoms: C_2  and  C_12
    2  A    between atoms: C_5  and  C_7
    3  A    between atoms: C_5  and  C_11
    4  A    between atoms: C_7  and  C_14
    5  A    between atoms: C_10  and  C_36
    6  A    between atoms: C_11  and  C_22
    7  A    between atoms: C_13  and  C_19
    8  A    between atoms: C_13  and  C_22
    9  A    between atoms: C_17  and  C_19
   10  A    between atoms: S_20  and  C_28
   11  A    between atoms: C_30  and  C_34
                            x       y       z     vdW  Elec       q    Type
                         _______ _______ _______ _____ _____    ______ ____

>  <TORSDO>
F 11

$$$$
=
 OpenBabel11042411333D

 36 38  0  0  1  0  0  0  0  0999 V2000
  189.6110  177.1640  140.8430 C   0  0  0  0  0  0  0  0  0  0  0  0
  191.0590  176.7980  138.9280 C   0  0  0  0  0  0  0  0  0  0  0  0
  188.7400  177.4990  138.6440 C   0  0  0  0  0  0  0  0  0  0  0  0
  188.5990  177.4930  139.9970 N   0  0  0  0  0  0  0  0  0  0  0  0
  190.1370  177.1470  136.7300 F   0  0  0  0  0  0  0  0  0  0  0  0
  190.8540  176.8110  140.3120 C   0  0  0  0  0  3  0  0  0  0  0  0
  189.9840  177.1500  138.0800 C   0  0  0  0  0  0  0  0  0  0  0  0
  188.9130  177.2580  145.0690 C   0  0  0  0  0  3  0  0  0  0  0  0
  188.1240  177.5560  142.8050 C   0  0  0  0  0  3  0  0  0  0  0  0
  190.4040  176.8580  143.2050 C   0  0  0  0  0  3  0  0  0  0  0  0
  190.1700  176.8910  144.5820 C   0  0  0  0  0  3  0  0  0  0  0  0
  187.8770  177.5940  144.1840 C   0  0  0  0  0  0  0  0  0  0  0  0
  189.3810  177.1900  142.3020 C   0  0  0  0  0  0  0  0  0  0  0  0
  186.2860  178.0690  146.0620 C   0  0  0  0  0  3  0  0  0  0  0  0
  185.5440  178.2820  143.8020 N   0  0  0  0  0  0  0  0  0  0  0  0
  184.3030  178.6520  144.2160 C   0  0  0  0  0  3  0  0  0  0  0  0
  185.0180  178.4460  146.5050 C   0  0  0  0  0  3  0  0  0  0  0  0
  184.0160  178.7400  145.5800 C   0  0  0  0  0  3  0  0  0  0  0  0
  186.5430  177.9880  144.6840 C   0  0  0  0  0  0  0  0  0  0  0  0
  192.4060  176.4140  138.4310 C   0  0  0  0  0  0  0  0  0  0  0  0
  192.6190  175.2580  137.8000 C   0  0  0  0  0  3  0  0  0  0  0  0
  193.4720  177.2880  138.6310 O   0  0  0  0  0  1  0  0  0  0  0  0
  194.1390  173.0890  136.6270 C   0  0  0  0  0  1  0  0  0  0  0  0
  194.1970  174.7720  137.1990 S   0  0  0  0  0  0  0  0  0  0  0  0
  194.6170  175.6810  136.0790 O   0  0  0  0  0  0  0  0  0  0  0  0
  195.1950  174.8740  138.3170 O   0  0  0  0  0  0  0  0  0  0  0  0
  187.3230  179.0840  137.5550 O   0  0  0  0  0  0  0  0  0  0  0  0
  187.5740  177.8770  137.8150 C   0  0  0  0  0  0  0  0  0  0  0  0
  186.6560  176.8210  137.2900 C   0  0  0  0  0  2  0  0  0  0  0  0
  184.9140  176.9620  135.6480 O   0  0  0  0  0  1  0  0  0  0  0  0
  185.3150  177.4260  136.9020 C   0  0  1  0  0  3  0  0  0  0  0  0
  184.2400  177.1480  137.9520 C   0  0  0  0  0  2  0  0  0  0  0  0
  183.3080  178.3350  138.1890 C   0  0  0  0  0  2  0  0  0  0  0  0
  183.9990  179.4410  138.9750 C   0  0  0  0  0  2  0  0  0  0  0  0
  185.7060  179.4310  140.6470 O   0  0  0  0  0  1  0  0  0  0  0  0
  184.4270  178.9560  140.3500 C   0  0  0  0  0  2  0  0  0  0  0  0
  1 13  1  0  0  0  0
  2  6  2  0  0  0  0
  3  4  1  0  0  0  0
  4  1  2  0  0  0  0
  5  7  1  0  0  0  0
  6  1  1  0  0  0  0
  7  3  2  0  0  0  0
  7  2  1  0  0  0  0
  9 12  1  0  0  0  0
 10 11  2  0  0  0  0
 11  8  1  0  0  0  0
 12 19  1  0  0  0  0
 12  8  2  0  0  0  0
 13  9  2  0  0  0  0
 13 10  1  0  0  0  0
 14 17  1  0  0  0  0
 15 16  2  0  0  0  0
 15 19  1  0  0  0  0
 16 18  1  0  0  0  0
 18 17  2  0  0  0  0
 19 14  2  0  0  0  0
 20 22  1  0  0  0  0
 20  2  1  0  0  0  0
 21 20  2  0  0  0  0
 23 24  1  0  0  0  0
 24 21  1  0  0  0  0
 24 26  2  0  0  0  0
 25 24  2  0  0  0  0
 27 28  2  0  0  0  0
 28  3  1  0  0  0  0
 29 28  1  0  0  0  0
 31 30  1  6  0  0  0
 31 29  1  0  0  0  0
 31 32  1  0  0  0  0
 32 33  1  0  0  0  0
 33 34  1  0  0  0  0
 34 36  1  0  0  0  0
 36 35  1  0  0  0  0
M  END
>  <MODEL>
4

>  <REMARK>
 VINA RESULT:      -8.6      3.355      6.547
  Name = 
  11 active torsions:
  status: ('A' for Active; 'I' for Inactive)
    1  A    between atoms: C_2  and  C_12
    2  A    between atoms: C_5  and  C_7
    3  A    between atoms: C_5  and  C_11
    4  A    between atoms: C_7  and  C_14
    5  A    between atoms: C_10  and  C_36
    6  A    between atoms: C_11  and  C_22
    7  A    between atoms: C_13  and  C_19
    8  A    between atoms: C_13  and  C_22
    9  A    between atoms: C_17  and  C_19
   10  A    between atoms: S_20  and  C_28
   11  A    between atoms: C_30  and  C_34
                            x       y       z     vdW  Elec       q    Type
                         _______ _______ _______ _____ _____    ______ ____

>  <TORSDO>
F 11

$$$$
=
 OpenBabel11042411333D

 36 38  0  0  1  0  0  0  0  0999 V2000
  186.6950  178.1510  142.9410 C   0  0  0  0  0  0  0  0  0  0  0  0
  184.3180  178.5530  143.2350 C   0  0  0  0  0  0  0  0  0  0  0  0
  185.8370  178.4980  145.1430 C   0  0  0  0  0  0  0  0  0  0  0  0
  186.8650  178.2530  144.2860 N   0  0  0  0  0  0  0  0  0  0  0  0
  183.4980  178.8950  145.4750 F   0  0  0  0  0  0  0  0  0  0  0  0
  185.4140  178.3010  142.4030 C   0  0  0  0  0  3  0  0  0  0  0  0
  184.5340  178.6550  144.6290 C   0  0  0  0  0  0  0  0  0  0  0  0
  190.0610  177.4000  140.3990 C   0  0  0  0  0  3  0  0  0  0  0  0
  187.7310  177.9750  140.6810 C   0  0  0  0  0  3  0  0  0  0  0  0
  189.1130  177.5580  142.6200 C   0  0  0  0  0  3  0  0  0  0  0  0
  190.2060  177.3140  141.7850 C   0  0  0  0  0  3  0  0  0  0  0  0
  188.8200  177.7320  139.8330 C   0  0  0  0  0  0  0  0  0  0  0  0
  187.8640  177.8930  142.0750 C   0  0  0  0  0  0  0  0  0  0  0  0
  189.5400  177.1750  137.4970 C   0  0  0  0  0  3  0  0  0  0  0  0
  187.6110  178.5370  137.8450 N   0  0  0  0  0  0  0  0  0  0  0  0
  187.4120  178.6460  136.5040 C   0  0  0  0  0  3  0  0  0  0  0  0
  189.3520  177.2750  136.1180 C   0  0  0  0  0  3  0  0  0  0  0  0
  188.2830  178.0150  135.6140 C   0  0  0  0  0  3  0  0  0  0  0  0
  188.6480  177.8220  138.3670 C   0  0  0  0  0  0  0  0  0  0  0  0
  182.9840  178.7020  142.5970 C   0  0  0  0  0  0  0  0  0  0  0  0
  182.7830  178.4050  141.3120 C   0  0  0  0  0  3  0  0  0  0  0  0
  181.9180  179.1630  143.3660 O   0  0  0  0  0  1  0  0  0  0  0  0
  181.3640  178.1790  138.7970 C   0  0  0  0  0  1  0  0  0  0  0  0
  181.2200  178.5680  140.5260 S   0  0  0  0  0  0  0  0  0  0  0  0
  180.2240  177.6500  141.1770 O   0  0  0  0  0  0  0  0  0  0  0  0
  180.7490  179.9870  140.6690 O   0  0  0  0  0  0  0  0  0  0  0  0
  185.7080  179.5550  147.2810 O   0  0  0  0  0  0  0  0  0  0  0  0
  186.1330  178.5910  146.5900 C   0  0  0  0  0  0  0  0  0  0  0  0
  186.9690  177.5450  147.2520 C   0  0  0  0  0  2  0  0  0  0  0  0
  188.9660  178.0290  148.4880 O   0  0  0  0  0  1  0  0  0  0  0  0
  188.4410  177.9270  147.1980 C   0  0  1  0  0  3  0  0  0  0  0  0
  189.2550  176.9430  146.3580 C   0  0  0  0  0  2  0  0  0  0  0  0
  190.6310  177.4790  145.9670 C   0  0  0  0  0  2  0  0  0  0  0  0
  191.6800  176.3750  145.9570 C   0  0  0  0  0  2  0  0  0  0  0  0
  192.2430  176.9780  148.2000 O   0  0  0  0  0  1  0  0  0  0  0  0
  191.9830  175.8900  147.3650 C   0  0  0  0  0  2  0  0  0  0  0  0
  1  4  1  0  0  0  0
  2  7  2  0  0  0  0
  3 28  1  0  0  0  0
  4  3  2  0  0  0  0
  6  1  2  0  0  0  0
  6  2  1  0  0  0  0
  7  3  1  0  0  0  0
  7  5  1  0  0  0  0
  8 11  1  0  0  0  0
  9 13  2  0  0  0  0
 11 10  2  0  0  0  0
 12  8  2  0  0  0  0
 12  9  1  0  0  0  0
 13 10  1  0  0  0  0
 13  1  1  0  0  0  0
 14 19  1  0  0  0  0
 15 19  2  0  0  0  0
 16 15  1  0  0  0  0
 17 14  2  0  0  0  0
 18 17  1  0  0  0  0
 18 16  2  0  0  0  0
 19 12  1  0  0  0  0
 20  2  1  0  0  0  0
 20 22  1  0  0  0  0
 21 20  2  0  0  0  0
 23 24  1  0  0  0  0
 24 26  2  0  0  0  0
 24 25  2  0  0  0  0
 24 21  1  0  0  0  0
 28 29  1  0  0  0  0
 28 27  2  0  0  0  0
 31 29  1  0  0  0  0
 31 30  1  1  0  0  0
 32 31  1  0  0  0  0
 33 32  1  0  0  0  0
 34 33  1  0  0  0  0
 34 36  1  0  0  0  0
 36 35  1  0  0  0  0
M  END
>  <MODEL>
5

>  <REMARK>
 VINA RESULT:      -8.6      3.603      6.486
  Name = 
  11 active torsions:
  status: ('A' for Active; 'I' for Inactive)
    1  A    between atoms: C_2  and  C_12
    2  A    between atoms: C_5  and  C_7
    3  A    between atoms: C_5  and  C_11
    4  A    between atoms: C_7  and  C_14
    5  A    between atoms: C_10  and  C_36
    6  A    between atoms: C_11  and  C_22
    7  A    between atoms: C_13  and  C_19
    8  A    between atoms: C_13  and  C_22
    9  A    between atoms: C_17  and  C_19
   10  A    between atoms: S_20  and  C_28
   11  A    between atoms: C_30  and  C_34
                            x       y       z     vdW  Elec       q    Type
                         _______ _______ _______ _____ _____    ______ ____

>  <TORSDO>
F 11

$$$$
=
 OpenBabel11042411333D

 36 38  0  0  1  0  0  0  0  0999 V2000
  185.3160  178.6260  141.7020 C   0  0  0  0  0  0  0  0  0  0  0  0
  186.7850  178.4260  139.7780 C   0  0  0  0  0  0  0  0  0  0  0  0
  184.3920  178.8140  139.5080 C   0  0  0  0  0  0  0  0  0  0  0  0
  184.2640  178.8090  140.8620 N   0  0  0  0  0  0  0  0  0  0  0  0
  185.8070  178.6210  137.5840 F   0  0  0  0  0  0  0  0  0  0  0  0
  186.5910  178.4310  141.1640 C   0  0  0  0  0  3  0  0  0  0  0  0
  185.6660  178.6230  138.9360 C   0  0  0  0  0  0  0  0  0  0  0  0
  184.7140  178.6560  145.9440 C   0  0  0  0  0  3  0  0  0  0  0  0
  186.1580  178.3460  144.0310 C   0  0  0  0  0  3  0  0  0  0  0  0
  183.8390  178.9450  143.7060 C   0  0  0  0  0  3  0  0  0  0  0  0
  183.6490  178.9530  145.0900 C   0  0  0  0  0  3  0  0  0  0  0  0
  185.9800  178.3500  145.4210 C   0  0  0  0  0  0  0  0  0  0  0  0
  185.0970  178.6420  143.1630 C   0  0  0  0  0  0  0  0  0  0  0  0
  188.3100  177.5020  145.7940 C   0  0  0  0  0  3  0  0  0  0  0  0
  187.0130  178.2480  147.6540 N   0  0  0  0  0  0  0  0  0  0  0  0
  188.0320  177.9710  148.5110 C   0  0  0  0  0  3  0  0  0  0  0  0
  189.3660  177.2100  146.6570 C   0  0  0  0  0  3  0  0  0  0  0  0
  189.2310  177.4440  148.0260 C   0  0  0  0  0  3  0  0  0  0  0  0
  187.1170  178.0290  146.3120 C   0  0  0  0  0  0  0  0  0  0  0  0
  188.1660  178.2140  139.2720 C   0  0  0  0  0  0  0  0  0  0  0  0
  188.7450  177.0110  139.2930 C   0  0  0  0  0  3  0  0  0  0  0  0
  188.8720  179.3020  138.7640 O   0  0  0  0  0  1  0  0  0  0  0  0
  191.5630  177.3760  139.8560 C   0  0  0  0  0  1  0  0  0  0  0  0
  190.3750  176.7250  138.7040 S   0  0  0  0  0  0  0  0  0  0  0  0
  190.5970  175.2500  138.5160 O   0  0  0  0  0  0  0  0  0  0  0  0
  190.5440  177.4200  137.3830 O   0  0  0  0  0  0  0  0  0  0  0  0
  182.7810  178.1470  137.8760 O   0  0  0  0  0  0  0  0  0  0  0  0
  183.1790  179.0250  138.6850 C   0  0  0  0  0  0  0  0  0  0  0  0
  182.4190  180.3070  138.7890 C   0  0  0  0  0  2  0  0  0  0  0  0
  180.0470  180.2500  139.1360 O   0  0  0  0  0  1  0  0  0  0  0  0
  181.0410  180.1610  138.1600 C   0  0  1  0  0  3  0  0  0  0  0  0
  180.8070  181.1890  137.0530 C   0  0  0  0  0  2  0  0  0  0  0  0
  180.9810  182.6320  137.5250 C   0  0  0  0  0  2  0  0  0  0  0  0
  180.0650  183.5830  136.7660 C   0  0  0  0  0  2  0  0  0  0  0  0
  181.9290  185.0030  137.2310 O   0  0  0  0  0  1  0  0  0  0  0  0
  180.7610  184.9020  136.4740 C   0  0  0  0  0  2  0  0  0  0  0  0
  1 13  1  0  0  0  0
  2  6  2  0  0  0  0
  3  4  1  0  0  0  0
  4  1  2  0  0  0  0
  5  7  1  0  0  0  0
  6  1  1  0  0  0  0
  7  3  2  0  0  0  0
  7  2  1  0  0  0  0
  9 12  2  0  0  0  0
 10 11  1  0  0  0  0
 11  8  2  0  0  0  0
 12  8  1  0  0  0  0
 12 19  1  0  0  0  0
 13 10  2  0  0  0  0
 13  9  1  0  0  0  0
 14 19  2  0  0  0  0
 14 17  1  0  0  0  0
 15 16  2  0  0  0  0
 17 18  2  0  0  0  0
 18 16  1  0  0  0  0
 19 15  1  0  0  0  0
 20 21  2  0  0  0  0
 20  2  1  0  0  0  0
 22 20  1  0  0  0  0
 24 21  1  0  0  0  0
 24 23  1  0  0  0  0
 25 24  2  0  0  0  0
 26 24  2  0  0  0  0
 27 28  2  0  0  0  0
 28 29  1  0  0  0  0
 28  3  1  0  0  0  0
 31 29  1  0  0  0  0
 31 30  1  1  0  0  0
 32 33  1  0  0  0  0
 32 31  1  0  0  0  0
 34 33  1  0  0  0  0
 36 34  1  0  0  0  0
 36 35  1  0  0  0  0
M  END
>  <MODEL>
6

>  <REMARK>
 VINA RESULT:      -8.6      3.491      8.120
  Name = 
  11 active torsions:
  status: ('A' for Active; 'I' for Inactive)
    1  A    between atoms: C_2  and  C_12
    2  A    between atoms: C_5  and  C_7
    3  A    between atoms: C_5  and  C_11
    4  A    between atoms: C_7  and  C_14
    5  A    between atoms: C_10  and  C_36
    6  A    between atoms: C_11  and  C_22
    7  A    between atoms: C_13  and  C_19
    8  A    between atoms: C_13  and  C_22
    9  A    between atoms: C_17  and  C_19
   10  A    between atoms: S_20  and  C_28
   11  A    between atoms: C_30  and  C_34
                            x       y       z     vdW  Elec       q    Type
                         _______ _______ _______ _____ _____    ______ ____

>  <TORSDO>
F 11

$$$$
=
 OpenBabel11042411333D

 36 38  0  0  1  0  0  0  0  0999 V2000
  189.5140  177.2720  140.8780 C   0  0  0  0  0  0  0  0  0  0  0  0
  190.4680  176.5620  138.7600 C   0  0  0  0  0  0  0  0  0  0  0  0
  188.3080  177.6910  138.8600 C   0  0  0  0  0  0  0  0  0  0  0  0
  188.4350  177.7620  140.2120 N   0  0  0  0  0  0  0  0  0  0  0  0
  189.2140  177.0050  136.7510 F   0  0  0  0  0  0  0  0  0  0  0  0
  190.5430  176.6640  140.1540 C   0  0  0  0  0  3  0  0  0  0  0  0
  189.3310  177.0860  138.1020 C   0  0  0  0  0  0  0  0  0  0  0  0
  189.6790  177.6410  145.1430 C   0  0  0  0  0  3  0  0  0  0  0  0
  188.4130  177.6340  143.0840 C   0  0  0  0  0  3  0  0  0  0  0  0
  190.8040  177.2820  143.0310 C   0  0  0  0  0  3  0  0  0  0  0  0
  190.8510  177.4040  144.4220 C   0  0  0  0  0  3  0  0  0  0  0  0
  188.4470  177.7580  144.4800 C   0  0  0  0  0  0  0  0  0  0  0  0
  189.5830  177.3950  142.3490 C   0  0  0  0  0  0  0  0  0  0  0  0
  185.9880  178.2380  144.5540 C   0  0  0  0  0  3  0  0  0  0  0  0
  187.2130  178.0330  146.5930 N   0  0  0  0  0  0  0  0  0  0  0  0
  186.0890  178.2630  147.3230 C   0  0  0  0  0  3  0  0  0  0  0  0
  184.8240  178.4760  145.2870 C   0  0  0  0  0  3  0  0  0  0  0  0
  184.8710  178.4890  146.6810 C   0  0  0  0  0  3  0  0  0  0  0  0
  187.1980  178.0150  145.2290 C   0  0  0  0  0  0  0  0  0  0  0  0
  191.5970  175.9040  138.0520 C   0  0  0  0  0  0  0  0  0  0  0  0
  192.5880  176.6100  137.5030 C   0  0  0  0  0  3  0  0  0  0  0  0
  191.6180  174.5140  137.9620 O   0  0  0  0  0  1  0  0  0  0  0  0
  193.3370  174.7700  135.3960 C   0  0  0  0  0  1  0  0  0  0  0  0
  193.9380  175.8660  136.6600 S   0  0  0  0  0  0  0  0  0  0  0  0
  194.8050  176.9300  136.0470 O   0  0  0  0  0  0  0  0  0  0  0  0
  194.7510  175.0760  137.6450 O   0  0  0  0  0  0  0  0  0  0  0  0
  187.1680  179.0040  137.2220 O   0  0  0  0  0  0  0  0  0  0  0  0
  187.0920  178.2590  138.2350 C   0  0  0  0  0  0  0  0  0  0  0  0
  185.7470  177.9720  138.8190 C   0  0  0  0  0  2  0  0  0  0  0  0
  184.5460  179.9940  139.2860 O   0  0  0  0  0  1  0  0  0  0  0  0
  185.3800  179.0270  139.8520 C   0  0  1  0  0  3  0  0  0  0  0  0
  184.7300  178.4100  141.0900 C   0  0  0  0  0  2  0  0  0  0  0  0
  183.2160  178.2520  140.9610 C   0  0  0  0  0  2  0  0  0  0  0  0
  182.5020  178.6210  142.2550 C   0  0  0  0  0  2  0  0  0  0  0  0
  180.1870  178.1910  142.6620 O   0  0  0  0  0  1  0  0  0  0  0  0
  181.0660  179.0430  141.9910 C   0  0  0  0  0  2  0  0  0  0  0  0
  1 13  1  0  0  0  0
  2  6  1  0  0  0  0
  3  4  2  0  0  0  0
  4  1  1  0  0  0  0
  5  7  1  0  0  0  0
  6  1  2  0  0  0  0
  7  2  2  0  0  0  0
  7  3  1  0  0  0  0
  9 12  2  0  0  0  0
 10 11  1  0  0  0  0
 11  8  2  0  0  0  0
 12  8  1  0  0  0  0
 12 19  1  0  0  0  0
 13 10  2  0  0  0  0
 13  9  1  0  0  0  0
 14 19  2  0  0  0  0
 14 17  1  0  0  0  0
 15 16  2  0  0  0  0
 17 18  2  0  0  0  0
 18 16  1  0  0  0  0
 19 15  1  0  0  0  0
 20  2  1  0  0  0  0
 21 20  2  0  0  0  0
 22 20  1  0  0  0  0
 23 24  1  0  0  0  0
 24 21  1  0  0  0  0
 24 26  2  0  0  0  0
 25 24  2  0  0  0  0
 27 28  2  0  0  0  0
 28 29  1  0  0  0  0
 28  3  1  0  0  0  0
 29 31  1  0  0  0  0
 31 30  1  6  0  0  0
 31 32  1  0  0  0  0
 33 32  1  0  0  0  0
 33 34  1  0  0  0  0
 36 34  1  0  0  0  0
 36 35  1  0  0  0  0
M  END
>  <MODEL>
7

>  <REMARK>
 VINA RESULT:      -8.3      3.424      6.352
  Name = 
  11 active torsions:
  status: ('A' for Active; 'I' for Inactive)
    1  A    between atoms: C_2  and  C_12
    2  A    between atoms: C_5  and  C_7
    3  A    between atoms: C_5  and  C_11
    4  A    between atoms: C_7  and  C_14
    5  A    between atoms: C_10  and  C_36
    6  A    between atoms: C_11  and  C_22
    7  A    between atoms: C_13  and  C_19
    8  A    between atoms: C_13  and  C_22
    9  A    between atoms: C_17  and  C_19
   10  A    between atoms: S_20  and  C_28
   11  A    between atoms: C_30  and  C_34
                            x       y       z     vdW  Elec       q    Type
                         _______ _______ _______ _____ _____    ______ ____

>  <TORSDO>
F 11

$$$$
=
 OpenBabel11042411333D

 36 38  0  0  1  0  0  0  0  0999 V2000
  186.2580  178.2850  142.2000 C   0  0  0  0  0  0  0  0  0  0  0  0
  184.7160  178.7380  140.3790 C   0  0  0  0  0  0  0  0  0  0  0  0
  187.0860  178.3400  139.9610 C   0  0  0  0  0  0  0  0  0  0  0  0
  187.2700  178.1830  141.3000 N   0  0  0  0  0  0  0  0  0  0  0  0
  185.5980  178.7850  138.1370 F   0  0  0  0  0  0  0  0  0  0  0  0
  184.9670  178.5660  141.7450 C   0  0  0  0  0  3  0  0  0  0  0  0
  185.7940  178.6220  139.4710 C   0  0  0  0  0  0  0  0  0  0  0  0
  187.0980  177.7090  146.3620 C   0  0  0  0  0  3  0  0  0  0  0  0
  187.8100  177.6780  144.0530 C   0  0  0  0  0  3  0  0  0  0  0  0
  185.5440  178.3120  144.6070 C   0  0  0  0  0  3  0  0  0  0  0  0
  185.8240  178.1220  145.9620 C   0  0  0  0  0  3  0  0  0  0  0  0
  188.1030  177.4830  145.4100 C   0  0  0  0  0  0  0  0  0  0  0  0
  186.5360  178.0920  143.6390 C   0  0  0  0  0  0  0  0  0  0  0  0
  190.4530  176.8040  144.8590 C   0  0  0  0  0  3  0  0  0  0  0  0
  189.7440  176.8620  147.1380 N   0  0  0  0  0  0  0  0  0  0  0  0
  190.9730  176.4600  147.5590 C   0  0  0  0  0  3  0  0  0  0  0  0
  191.7200  176.3900  145.2720 C   0  0  0  0  0  3  0  0  0  0  0  0
  191.9860  176.2150  146.6290 C   0  0  0  0  0  3  0  0  0  0  0  0
  189.4550  177.0410  145.8170 C   0  0  0  0  0  0  0  0  0  0  0  0
  183.3200  179.0350  139.9630 C   0  0  0  0  0  0  0  0  0  0  0  0
  182.2790  178.3820  140.4840 C   0  0  0  0  0  3  0  0  0  0  0  0
  183.0980  180.0210  139.0040 O   0  0  0  0  0  1  0  0  0  0  0  0
  179.5130  177.6310  140.9020 C   0  0  0  0  0  1  0  0  0  0  0  0
  180.6170  178.7070  140.0160 S   0  0  0  0  0  0  0  0  0  0  0  0
  180.2770  180.1420  140.3060 O   0  0  0  0  0  0  0  0  0  0  0  0
  180.4670  178.4530  138.5430 O   0  0  0  0  0  0  0  0  0  0  0  0
  188.8500  179.2190  138.6120 O   0  0  0  0  0  0  0  0  0  0  0  0
  188.2580  178.2050  139.0670 C   0  0  0  0  0  0  0  0  0  0  0  0
  188.7440  176.8490  138.6710 C   0  0  0  0  0  2  0  0  0  0  0  0
  190.3890  176.3370  140.3390 O   0  0  0  0  0  1  0  0  0  0  0  0
  190.2220  176.6960  139.0000 C   0  0  1  0  0  3  0  0  0  0  0  0
  190.9100  175.6880  138.0790 C   0  0  0  0  0  2  0  0  0  0  0  0
  192.4110  175.9310  137.9350 C   0  0  0  0  0  2  0  0  0  0  0  0
  193.0910  174.8020  137.1730 C   0  0  0  0  0  2  0  0  0  0  0  0
  194.6180  176.4810  136.4260 O   0  0  0  0  0  1  0  0  0  0  0  0
  194.5320  175.1510  136.8390 C   0  0  0  0  0  2  0  0  0  0  0  0
  1 13  1  0  0  0  0
  2  6  2  0  0  0  0
  3  4  1  0  0  0  0
  4  1  2  0  0  0  0
  5  7  1  0  0  0  0
  6  1  1  0  0  0  0
  7  3  2  0  0  0  0
  7  2  1  0  0  0  0
  9 12  1  0  0  0  0
 10 11  2  0  0  0  0
 11  8  1  0  0  0  0
 12 19  1  0  0  0  0
 12  8  2  0  0  0  0
 13  9  2  0  0  0  0
 13 10  1  0  0  0  0
 14 17  2  0  0  0  0
 14 19  1  0  0  0  0
 15 16  1  0  0  0  0
 17 18  1  0  0  0  0
 18 16  2  0  0  0  0
 19 15  2  0  0  0  0
 20  2  1  0  0  0  0
 20 21  2  0  0  0  0
 22 20  1  0  0  0  0
 24 25  2  0  0  0  0
 24 21  1  0  0  0  0
 24 23  1  0  0  0  0
 26 24  2  0  0  0  0
 27 28  2  0  0  0  0
 28  3  1  0  0  0  0
 29 31  1  0  0  0  0
 29 28  1  0  0  0  0
 31 30  1  1  0  0  0
 32 31  1  0  0  0  0
 33 32  1  0  0  0  0
 34 33  1  0  0  0  0
 35 36  1  0  0  0  0
 36 34  1  0  0  0  0
M  END
>  <MODEL>
8

>  <REMARK>
 VINA RESULT:      -8.3      3.535      7.487
  Name = 
  11 active torsions:
  status: ('A' for Active; 'I' for Inactive)
    1  A    between atoms: C_2  and  C_12
    2  A    between atoms: C_5  and  C_7
    3  A    between atoms: C_5  and  C_11
    4  A    between atoms: C_7  and  C_14
    5  A    between atoms: C_10  and  C_36
    6  A    between atoms: C_11  and  C_22
    7  A    between atoms: C_13  and  C_19
    8  A    between atoms: C_13  and  C_22
    9  A    between atoms: C_17  and  C_19
   10  A    between atoms: S_20  and  C_28
   11  A    between atoms: C_30  and  C_34
                            x       y       z     vdW  Elec       q    Type
                         _______ _______ _______ _____ _____    ______ ____

>  <TORSDO>
F 11

$$$$
=
 OpenBabel11042411333D

 36 38  0  0  1  0  0  0  0  0999 V2000
  185.1180  178.5100  143.2170 C   0  0  0  0  0  0  0  0  0  0  0  0
  185.2880  178.6200  140.7960 C   0  0  0  0  0  0  0  0  0  0  0  0
  183.1270  178.7440  141.9200 C   0  0  0  0  0  0  0  0  0  0  0  0
  183.7690  178.6280  143.1130 N   0  0  0  0  0  0  0  0  0  0  0  0
  183.2520  178.8540  139.5300 F   0  0  0  0  0  0  0  0  0  0  0  0
  185.8930  178.5040  142.0530 C   0  0  0  0  0  3  0  0  0  0  0  0
  183.8810  178.7430  140.7290 C   0  0  0  0  0  0  0  0  0  0  0  0
  186.9560  178.1650  147.0710 C   0  0  0  0  0  3  0  0  0  0  0  0
  187.0600  177.9340  144.6680 C   0  0  0  0  0  3  0  0  0  0  0  0
  185.0370  178.7430  145.7150 C   0  0  0  0  0  3  0  0  0  0  0  0
  185.6420  178.6280  146.9690 C   0  0  0  0  0  3  0  0  0  0  0  0
  187.6780  177.8140  145.9210 C   0  0  0  0  0  0  0  0  0  0  0  0
  185.7420  178.3980  144.5510 C   0  0  0  0  0  0  0  0  0  0  0  0
  189.8760  177.2230  144.8700 C   0  0  0  0  0  3  0  0  0  0  0  0
  189.5810  176.9480  147.2230 N   0  0  0  0  0  0  0  0  0  0  0  0
  190.8530  176.4880  147.3560 C   0  0  0  0  0  3  0  0  0  0  0  0
  191.1850  176.7530  144.9870 C   0  0  0  0  0  3  0  0  0  0  0  0
  191.6810  176.3820  146.2370 C   0  0  0  0  0  3  0  0  0  0  0  0
  189.0680  177.3170  146.0130 C   0  0  0  0  0  0  0  0  0  0  0  0
  186.1710  178.6070  139.6000 C   0  0  0  0  0  0  0  0  0  0  0  0
  187.4470  178.2260  139.6730 C   0  0  0  0  0  3  0  0  0  0  0  0
  185.6460  179.0030  138.3720 O   0  0  0  0  0  1  0  0  0  0  0  0
  190.0990  177.5260  138.7400 C   0  0  0  0  0  1  0  0  0  0  0  0
  188.5180  178.1980  138.2800 S   0  0  0  0  0  0  0  0  0  0  0  0
  187.9070  177.3690  137.1850 O   0  0  0  0  0  0  0  0  0  0  0  0
  188.7100  179.6030  137.7860 O   0  0  0  0  0  0  0  0  0  0  0  0
  181.0760  179.7860  142.5650 O   0  0  0  0  0  0  0  0  0  0  0  0
  181.6520  178.8690  141.9210 C   0  0  0  0  0  0  0  0  0  0  0  0
  180.8170  177.8830  141.1690 C   0  0  0  0  0  2  0  0  0  0  0  0
  180.5080  179.7020  139.6370 O   0  0  0  0  0  1  0  0  0  0  0  0
  179.8720  178.6030  140.2180 C   0  0  1  0  0  3  0  0  0  0  0  0
  179.3210  177.6650  139.1440 C   0  0  0  0  0  2  0  0  0  0  0  0
  180.1290  176.3780  138.9960 C   0  0  0  0  0  2  0  0  0  0  0  0
  180.9050  176.3510  137.6860 C   0  0  0  0  0  2  0  0  0  0  0  0
  182.5900  175.6280  139.2180 O   0  0  0  0  0  1  0  0  0  0  0  0
  182.3880  176.1210  137.9280 C   0  0  0  0  0  2  0  0  0  0  0  0
  1 13  1  0  0  0  0
  2  6  1  0  0  0  0
  3 28  1  0  0  0  0
  3  4  2  0  0  0  0
  4  1  1  0  0  0  0
  5  7  1  0  0  0  0
  6  1  2  0  0  0  0
  7  2  2  0  0  0  0
  7  3  1  0  0  0  0
  9 12  1  0  0  0  0
 10 11  2  0  0  0  0
 11  8  1  0  0  0  0
 12 19  1  0  0  0  0
 12  8  2  0  0  0  0
 13  9  2  0  0  0  0
 13 10  1  0  0  0  0
 14 17  2  0  0  0  0
 14 19  1  0  0  0  0
 15 16  1  0  0  0  0
 17 18  1  0  0  0  0
 18 16  2  0  0  0  0
 19 15  2  0  0  0  0
 20 21  2  0  0  0  0
 20  2  1  0  0  0  0
 22 20  1  0  0  0  0
 24 23  1  0  0  0  0
 24 21  1  0  0  0  0
 25 24  2  0  0  0  0
 26 24  2  0  0  0  0
 28 27  2  0  0  0  0
 29 28  1  0  0  0  0
 31 30  1  6  0  0  0
 31 29  1  0  0  0  0
 32 31  1  0  0  0  0
 33 32  1  0  0  0  0
 34 36  1  0  0  0  0
 34 33  1  0  0  0  0
 36 35  1  0  0  0  0
M  END
>  <MODEL>
9

>  <REMARK>
 VINA RESULT:      -8.2      3.154      7.970
  Name = 
  11 active torsions:
  status: ('A' for Active; 'I' for Inactive)
    1  A    between atoms: C_2  and  C_12
    2  A    between atoms: C_5  and  C_7
    3  A    between atoms: C_5  and  C_11
    4  A    between atoms: C_7  and  C_14
    5  A    between atoms: C_10  and  C_36
    6  A    between atoms: C_11  and  C_22
    7  A    between atoms: C_13  and  C_19
    8  A    between atoms: C_13  and  C_22
    9  A    between atoms: C_17  and  C_19
   10  A    between atoms: S_20  and  C_28
   11  A    between atoms: C_30  and  C_34
                            x       y       z     vdW  Elec       q    Type
                         _______ _______ _______ _____ _____    ______ ____

>  <TORSDO>
F 11

$$$$
