=
 OpenBabel11042411383D

 45 49  0  0  1  0  0  0  0  0999 V2000
  188.0750  177.4740  145.5870 C   0  0  0  0  0  0  0  0  0  0  0  0
  185.2830  178.3910  143.3570 C   0  0  0  0  0  0  0  0  0  0  0  0
  188.9680  177.1300  146.6750 C   0  0  0  0  0  0  0  0  0  0  0  0
  186.7860  177.8130  145.2310 C   0  0  0  0  0  3  0  0  0  0  0  0
  186.1470  178.4350  141.1210 N   0  0  0  0  0  0  0  0  0  0  0  0
  190.0210  177.0130  145.7260 N   0  0  0  0  0  2  0  0  0  0  0  0
  188.8620  176.9960  147.9220 O   0  0  0  0  0  0  0  0  0  0  0  0
  185.1070  178.5590  141.9830 C   0  0  0  0  0  3  0  0  0  0  0  0
  187.4050  178.1330  141.5350 C   0  0  0  0  0  0  0  0  0  0  0  0
  187.6610  177.9170  142.8990 C   0  0  0  0  0  0  0  0  0  0  0  0
  188.9690  177.5630  143.3350 C   0  0  0  0  0  3  0  0  0  0  0  0
  189.0970  177.3590  144.6920 C   0  0  0  0  0  0  0  0  0  0  0  0
  186.5670  178.0510  143.8450 C   0  0  0  0  0  0  0  0  0  0  0  0
  188.4900  178.0100  140.5080 C   0  0  0  0  0  2  0  0  0  0  0  0
  188.6470  179.6990  137.2610 O   0  0  0  0  0  0  0  0  0  0  0  0
  188.1110  178.7050  139.2870 N   0  0  0  0  0  2  0  0  0  0  0  0
  190.0920  178.0030  137.9000 N   0  0  0  0  0  2  0  0  0  0  0  0
  188.9400  178.8280  138.1230 C   0  0  0  0  0  0  0  0  0  0  0  0
  190.3870  176.7730  138.6270 C   0  0  1  0  0  3  0  0  0  0  0  0
  190.3370  175.8590  136.2550 C   0  0  0  0  0  2  0  0  0  0  0  0
  188.6800  175.2470  137.4820 C   0  0  0  0  0  2  0  0  0  0  0  0
  188.8700  175.5550  136.0070 C   0  0  0  0  0  2  0  0  0  0  0  0
  190.1500  175.5460  137.7270 C   0  0  0  0  0  3  0  0  0  0  0  0
  191.7480  176.8480  139.2710 C   0  0  0  0  0  0  0  0  0  0  0  0
  192.7310  176.5010  138.6350 O   0  0  0  0  0  0  0  0  0  0  0  0
  191.9190  177.3610  140.6660 C   0  0  0  0  0  1  0  0  0  0  0  0
  184.1280  178.5520  144.1930 N   0  0  0  0  0  2  0  0  0  0  0  0
  183.0420  179.4930  143.9640 C   0  0  0  0  0  2  0  0  0  0  0  0
  181.7730  178.7460  143.5950 C   0  0  0  0  0  2  0  0  0  0  0  0
  180.3290  180.3550  142.5530 O   0  0  0  0  0  1  0  0  0  0  0  0
  181.1740  179.2730  142.2970 C   0  0  2  0  0  3  0  0  0  0  0  0
  180.4250  178.1660  141.5620 C   0  0  0  0  0  2  0  0  0  0  0  0
  182.6430  176.3280  139.0640 C   0  0  0  0  0  2  0  0  0  0  0  0
  182.8310  177.4380  138.1320 N   0  0  0  0  0  0  0  0  0  0  0  0
  182.2550  176.8730  140.4380 C   0  0  0  0  0  2  0  0  0  0  0  0
  180.0160  179.4160  139.0580 O   0  0  0  0  0  0  0  0  0  0  0  0
  181.5200  178.0190  137.8400 C   0  0  0  0  0  2  0  0  0  0  0  0
  180.8480  178.4720  139.1020 C   0  0  0  0  0  0  0  0  0  0  0  0
  181.1090  177.7750  140.3340 N   0  0  0  0  0  0  0  0  0  0  0  0
  183.2970  176.8840  136.9310 N   0  0  0  0  0  2  0  0  0  0  0  0
  185.6940  177.3950  136.8500 C   0  0  0  0  0  1  0  0  0  0  0  0
  184.6320  176.3570  137.1810 C   0  0  2  0  0  3  0  0  0  0  0  0
  184.8990  174.8100  136.2420 S   0  0  0  0  0  0  0  0  0  0  0  0
  185.8810  173.0180  137.9280 O   0  0  0  0  0  1  0  0  0  0  0  0
  184.6830  173.6730  137.6510 C   0  0  0  0  0  2  0  0  0  0  0  0
  1  3  1  0  0  0  0
  2 13  1  0  0  0  0
  2 27  1  0  0  0  0
  3  7  2  0  0  0  0
  4  1  1  0  0  0  0
  5  9  2  0  0  0  0
  5  8  1  0  0  0  0
  6  3  1  0  0  0  0
  8  2  2  0  0  0  0
  9 10  1  0  0  0  0
 10 11  2  0  0  0  0
 10 13  1  0  0  0  0
 11 12  1  0  0  0  0
 12  1  2  0  0  0  0
 12  6  1  0  0  0  0
 13  4  2  0  0  0  0
 14  9  1  0  0  0  0
 15 18  2  0  0  0  0
 16 14  1  0  0  0  0
 17 18  1  0  0  0  0
 18 16  1  0  0  0  0
 19 17  1  6  0  0  0
 19 24  1  0  0  0  0
 20 23  1  0  0  0  0
 21 23  1  0  0  0  0
 22 20  1  0  0  0  0
 22 21  1  0  0  0  0
 23 19  1  0  0  0  0
 24 26  1  0  0  0  0
 25 24  2  0  0  0  0
 28 27  1  0  0  0  0
 29 28  1  0  0  0  0
 31 30  1  1  0  0  0
 31 29  1  0  0  0  0
 32 31  1  0  0  0  0
 33 35  1  0  0  0  0
 34 33  1  0  0  0  0
 36 38  2  0  0  0  0
 37 34  1  0  0  0  0
 37 38  1  0  0  0  0
 38 39  1  0  0  0  0
 39 35  1  0  0  0  0
 39 32  1  0  0  0  0
 40 42  1  0  0  0  0
 40 34  1  0  0  0  0
 42 41  1  6  0  0  0
 43 42  1  0  0  0  0
 43 45  1  0  0  0  0
 45 44  1  0  0  0  0
M  END
>  <MODEL>
1

>  <REMARK>
 VINA RESULT:      -7.5      0.000      0.000
  Name = 
  15 active torsions:
  status: ('A' for Active; 'I' for Inactive)
    1  A    between atoms: C_1  and  C_15
    2  A    between atoms: C_1  and  N_30
    3  A    between atoms: C_2  and  N_27
    4  A    between atoms: C_2  and  C_28
    5  A    between atoms: S_5  and  C_36
    6  A    between atoms: S_5  and  C_44
    7  A    between atoms: C_8  and  C_24
    8  A    between atoms: C_9  and  N_30
    9  A    between atoms: N_10  and  N_23
   10  A    between atoms: N_10  and  C_36
   11  A    between atoms: C_15  and  C_32
   12  A    between atoms: C_24  and  N_31
   13  A    between atoms: C_24  and  C_41
   14  A    between atoms: C_32  and  C_40
   15  A    between atoms: C_40  and  N_42
                            x       y       z     vdW  Elec       q    Type
                         _______ _______ _______ _____ _____    ______ ____

>  <TORSDO>
F 15

$$$$
=
 OpenBabel11042411383D

 45 49  0  0  1  0  0  0  0  0999 V2000
  181.2560  178.5990  143.3430 C   0  0  0  0  0  0  0  0  0  0  0  0
  184.9260  178.9660  143.2970 C   0  0  0  0  0  0  0  0  0  0  0  0
  179.8490  178.4370  143.6540 C   0  0  0  0  0  0  0  0  0  0  0  0
  182.5350  178.6840  143.8520 C   0  0  0  0  0  3  0  0  0  0  0  0
  185.5800  179.2570  141.0090 N   0  0  0  0  0  0  0  0  0  0  0  0
  179.5700  178.5190  142.2610 N   0  0  0  0  0  2  0  0  0  0  0  0
  179.1670  178.2850  144.7000 O   0  0  0  0  0  0  0  0  0  0  0  0
  185.9020  179.1860  142.3250 C   0  0  0  0  0  3  0  0  0  0  0  0
  184.3040  179.1300  140.5630 C   0  0  0  0  0  0  0  0  0  0  0  0
  183.2570  178.9380  141.4800 C   0  0  0  0  0  0  0  0  0  0  0  0
  181.9130  178.8420  141.0220 C   0  0  0  0  0  3  0  0  0  0  0  0
  180.9690  178.6730  142.0130 C   0  0  0  0  0  0  0  0  0  0  0  0
  183.5740  178.8510  142.8940 C   0  0  0  0  0  0  0  0  0  0  0  0
  184.0430  179.2280  139.0900 C   0  0  0  0  0  2  0  0  0  0  0  0
  187.0900  178.1310  137.3780 O   0  0  0  0  0  0  0  0  0  0  0  0
  185.2990  179.2340  138.3550 N   0  0  0  0  0  2  0  0  0  0  0  0
  185.1260  176.9010  137.4230 N   0  0  0  0  0  2  0  0  0  0  0  0
  185.8750  178.0910  137.7080 C   0  0  0  0  0  0  0  0  0  0  0  0
  183.6710  176.8060  137.4590 C   0  0  1  0  0  3  0  0  0  0  0  0
  181.8490  177.7930  135.9830 C   0  0  0  0  0  2  0  0  0  0  0  0
  182.2650  175.7140  135.6200 C   0  0  0  0  0  2  0  0  0  0  0  0
  181.0250  176.5890  135.5610 C   0  0  0  0  0  2  0  0  0  0  0  0
  183.0890  176.9200  136.0370 C   0  0  0  0  0  3  0  0  0  0  0  0
  183.2350  175.5930  138.2400 C   0  0  0  0  0  0  0  0  0  0  0  0
  183.8490  174.5460  138.1110 O   0  0  0  0  0  0  0  0  0  0  0  0
  182.0770  175.6540  139.1860 C   0  0  0  0  0  1  0  0  0  0  0  0
  185.3610  178.8970  144.6630 N   0  0  0  0  0  2  0  0  0  0  0  0
  186.4510  178.0710  145.1630 C   0  0  0  0  0  2  0  0  0  0  0  0
  186.9010  177.0960  144.0900 C   0  0  0  0  0  2  0  0  0  0  0  0
  188.9300  176.7720  145.3320 O   0  0  0  0  0  1  0  0  0  0  0  0
  188.4190  176.9780  144.0480 C   0  0  2  0  0  3  0  0  0  0  0  0
  189.0380  178.2210  143.4160 C   0  0  0  0  0  2  0  0  0  0  0  0
  189.6450  177.6920  139.6900 C   0  0  0  0  0  2  0  0  0  0  0  0
  190.7660  176.7620  139.8160 N   0  0  0  0  0  0  0  0  0  0  0  0
  188.8230  177.6810  140.9780 C   0  0  0  0  0  2  0  0  0  0  0  0
  191.7740  177.5610  143.1380 O   0  0  0  0  0  0  0  0  0  0  0  0
  191.7270  177.3270  140.7630 C   0  0  0  0  0  2  0  0  0  0  0  0
  191.0760  177.5820  142.0900 C   0  0  0  0  0  0  0  0  0  0  0  0
  189.6770  177.9170  142.1410 N   0  0  0  0  0  0  0  0  0  0  0  0
  191.4070  176.7300  138.5700 N   0  0  0  0  0  2  0  0  0  0  0  0
  192.2930  174.6510  137.6180 C   0  0  0  0  0  1  0  0  0  0  0  0
  191.0510  175.4720  137.9250 C   0  0  2  0  0  3  0  0  0  0  0  0
  190.0660  175.7810  136.4150 S   0  0  0  0  0  0  0  0  0  0  0  0
  187.6680  174.7680  135.9270 O   0  0  0  0  0  1  0  0  0  0  0  0
  188.5380  174.9740  136.9950 C   0  0  0  0  0  2  0  0  0  0  0  0
  1  3  1  0  0  0  0
  1  4  1  0  0  0  0
  2 27  1  0  0  0  0
  3  7  2  0  0  0  0
  5  8  1  0  0  0  0
  6  3  1  0  0  0  0
  8  2  2  0  0  0  0
  9  5  2  0  0  0  0
  9 10  1  0  0  0  0
 10 13  1  0  0  0  0
 11 10  2  0  0  0  0
 11 12  1  0  0  0  0
 12  6  1  0  0  0  0
 12  1  2  0  0  0  0
 13  2  1  0  0  0  0
 13  4  2  0  0  0  0
 14  9  1  0  0  0  0
 15 18  2  0  0  0  0
 16 14  1  0  0  0  0
 17 18  1  0  0  0  0
 18 16  1  0  0  0  0
 19 17  1  6  0  0  0
 19 24  1  0  0  0  0
 20 23  1  0  0  0  0
 21 23  1  0  0  0  0
 22 21  1  0  0  0  0
 22 20  1  0  0  0  0
 23 19  1  0  0  0  0
 24 26  1  0  0  0  0
 25 24  2  0  0  0  0
 27 28  1  0  0  0  0
 29 28  1  0  0  0  0
 31 29  1  0  0  0  0
 31 30  1  1  0  0  0
 32 31  1  0  0  0  0
 33 34  1  0  0  0  0
 33 35  1  0  0  0  0
 34 37  1  0  0  0  0
 35 39  1  0  0  0  0
 37 38  1  0  0  0  0
 38 39  1  0  0  0  0
 38 36  2  0  0  0  0
 39 32  1  0  0  0  0
 40 34  1  0  0  0  0
 42 41  1  6  0  0  0
 42 40  1  0  0  0  0
 43 45  1  0  0  0  0
 43 42  1  0  0  0  0
 44 45  1  0  0  0  0
M  END
>  <MODEL>
2

>  <REMARK>
 VINA RESULT:      -7.1      2.193      7.172
  Name = 
  15 active torsions:
  status: ('A' for Active; 'I' for Inactive)
    1  A    between atoms: C_1  and  C_15
    2  A    between atoms: C_1  and  N_30
    3  A    between atoms: C_2  and  N_27
    4  A    between atoms: C_2  and  C_28
    5  A    between atoms: S_5  and  C_36
    6  A    between atoms: S_5  and  C_44
    7  A    between atoms: C_8  and  C_24
    8  A    between atoms: C_9  and  N_30
    9  A    between atoms: N_10  and  N_23
   10  A    between atoms: N_10  and  C_36
   11  A    between atoms: C_15  and  C_32
   12  A    between atoms: C_24  and  N_31
   13  A    between atoms: C_24  and  C_41
   14  A    between atoms: C_32  and  C_40
   15  A    between atoms: C_40  and  N_42
                            x       y       z     vdW  Elec       q    Type
                         _______ _______ _______ _____ _____    ______ ____

>  <TORSDO>
F 15

$$$$
=
 OpenBabel11042411383D

 45 49  0  0  1  0  0  0  0  0999 V2000
  185.1490  178.6840  144.3690 C   0  0  0  0  0  0  0  0  0  0  0  0
  186.5280  178.4920  140.9530 C   0  0  0  0  0  0  0  0  0  0  0  0
  184.8880  178.7190  145.7940 C   0  0  0  0  0  0  0  0  0  0  0  0
  186.1080  178.5420  143.3870 C   0  0  0  0  0  3  0  0  0  0  0  0
  184.7040  178.8210  139.4330 N   0  0  0  0  0  0  0  0  0  0  0  0
  183.5120  178.9280  145.4990 N   0  0  0  0  0  2  0  0  0  0  0  0
  185.5760  178.6080  146.8420 O   0  0  0  0  0  0  0  0  0  0  0  0
  186.0260  178.6210  139.6570 C   0  0  0  0  0  3  0  0  0  0  0  0
  183.7990  178.9170  140.4410 C   0  0  0  0  0  0  0  0  0  0  0  0
  184.2270  178.8300  141.7770 C   0  0  0  0  0  0  0  0  0  0  0  0
  183.2900  178.9680  142.8390 C   0  0  0  0  0  3  0  0  0  0  0  0
  183.8270  178.8830  144.1060 C   0  0  0  0  0  0  0  0  0  0  0  0
  185.6370  178.6090  142.0460 C   0  0  0  0  0  0  0  0  0  0  0  0
  182.3580  179.1450  140.0970 C   0  0  0  0  0  2  0  0  0  0  0  0
  179.7850  176.5440  139.9160 O   0  0  0  0  0  0  0  0  0  0  0  0
  181.6850  177.8730  139.8780 N   0  0  0  0  0  2  0  0  0  0  0  0
  179.3620  178.7980  139.5780 N   0  0  0  0  0  2  0  0  0  0  0  0
  180.2630  177.7030  139.7940 C   0  0  0  0  0  0  0  0  0  0  0  0
  179.7590  180.1250  139.1210 C   0  0  1  0  0  3  0  0  0  0  0  0
  179.2540  179.0520  136.8710 C   0  0  0  0  0  2  0  0  0  0  0  0
  180.4310  180.8490  136.7600 C   0  0  0  0  0  2  0  0  0  0  0  0
  180.3630  179.5570  135.9650 C   0  0  0  0  0  2  0  0  0  0  0  0
  179.3180  180.3450  137.6620 C   0  0  0  0  0  3  0  0  0  0  0  0
  179.3120  181.1820  140.0980 C   0  0  0  0  0  0  0  0  0  0  0  0
  178.9540  182.2710  139.6790 O   0  0  0  0  0  0  0  0  0  0  0  0
  179.2780  180.9140  141.5700 C   0  0  0  0  0  1  0  0  0  0  0  0
  187.9390  178.2740  141.0930 N   0  0  0  0  0  2  0  0  0  0  0  0
  188.8980  178.2050  139.9990 C   0  0  0  0  0  2  0  0  0  0  0  0
  189.8170  177.0110  140.1860 C   0  0  0  0  0  2  0  0  0  0  0  0
  191.9610  176.9140  139.1120 O   0  0  0  0  0  1  0  0  0  0  0  0
  191.2800  177.4340  140.2150 C   0  0  2  0  0  3  0  0  0  0  0  0
  191.9430  176.9920  141.5160 C   0  0  0  0  0  2  0  0  0  0  0  0
  190.0800  178.7800  144.3210 C   0  0  0  0  0  2  0  0  0  0  0  0
  189.9510  177.6310  145.2170 N   0  0  0  0  0  0  0  0  0  0  0  0
  191.2390  178.5450  143.3530 C   0  0  0  0  0  2  0  0  0  0  0  0
  190.4030  175.0210  142.8360 O   0  0  0  0  0  0  0  0  0  0  0  0
  189.4410  176.5000  144.4430 C   0  0  0  0  0  2  0  0  0  0  0  0
  190.3490  176.1940  143.2900 C   0  0  0  0  0  0  0  0  0  0  0  0
  191.0940  177.2590  142.6720 N   0  0  0  0  0  0  0  0  0  0  0  0
  188.9550  177.9560  146.1490 N   0  0  0  0  0  2  0  0  0  0  0  0
  188.2430  177.5700  148.4640 C   0  0  0  0  0  1  0  0  0  0  0  0
  189.2450  177.2210  147.3740 C   0  0  2  0  0  3  0  0  0  0  0  0
  190.9610  177.5380  147.9210 S   0  0  0  0  0  0  0  0  0  0  0  0
  192.8570  175.6970  148.1100 O   0  0  0  0  0  1  0  0  0  0  0  0
  191.6210  175.8920  147.4980 C   0  0  0  0  0  2  0  0  0  0  0  0
  1  3  1  0  0  0  0
  2 27  1  0  0  0  0
  2 13  1  0  0  0  0
  3  7  2  0  0  0  0
  4  1  2  0  0  0  0
  5  8  1  0  0  0  0
  5  9  2  0  0  0  0
  6  3  1  0  0  0  0
  8  2  2  0  0  0  0
  9 10  1  0  0  0  0
 10 13  2  0  0  0  0
 10 11  1  0  0  0  0
 11 12  2  0  0  0  0
 12  1  1  0  0  0  0
 12  6  1  0  0  0  0
 13  4  1  0  0  0  0
 14  9  1  0  0  0  0
 16 14  1  0  0  0  0
 17 18  1  0  0  0  0
 18 16  1  0  0  0  0
 18 15  2  0  0  0  0
 19 17  1  1  0  0  0
 19 24  1  0  0  0  0
 20 23  1  0  0  0  0
 21 23  1  0  0  0  0
 22 21  1  0  0  0  0
 22 20  1  0  0  0  0
 23 19  1  0  0  0  0
 24 26  1  0  0  0  0
 25 24  2  0  0  0  0
 28 29  1  0  0  0  0
 28 27  1  0  0  0  0
 29 31  1  0  0  0  0
 31 30  1  6  0  0  0
 31 32  1  0  0  0  0
 32 39  1  0  0  0  0
 33 34  1  0  0  0  0
 34 40  1  0  0  0  0
 35 33  1  0  0  0  0
 36 38  2  0  0  0  0
 37 34  1  0  0  0  0
 38 37  1  0  0  0  0
 39 38  1  0  0  0  0
 39 35  1  0  0  0  0
 40 42  1  0  0  0  0
 42 43  1  0  0  0  0
 42 41  1  1  0  0  0
 45 43  1  0  0  0  0
 45 44  1  0  0  0  0
M  END
>  <MODEL>
3

>  <REMARK>
 VINA RESULT:      -7.1      3.339      9.346
  Name = 
  15 active torsions:
  status: ('A' for Active; 'I' for Inactive)
    1  A    between atoms: C_1  and  C_15
    2  A    between atoms: C_1  and  N_30
    3  A    between atoms: C_2  and  N_27
    4  A    between atoms: C_2  and  C_28
    5  A    between atoms: S_5  and  C_36
    6  A    between atoms: S_5  and  C_44
    7  A    between atoms: C_8  and  C_24
    8  A    between atoms: C_9  and  N_30
    9  A    between atoms: N_10  and  N_23
   10  A    between atoms: N_10  and  C_36
   11  A    between atoms: C_15  and  C_32
   12  A    between atoms: C_24  and  N_31
   13  A    between atoms: C_24  and  C_41
   14  A    between atoms: C_32  and  C_40
   15  A    between atoms: C_40  and  N_42
                            x       y       z     vdW  Elec       q    Type
                         _______ _______ _______ _____ _____    ______ ____

>  <TORSDO>
F 15

$$$$
=
 OpenBabel11042411383D

 45 49  0  0  1  0  0  0  0  0999 V2000
  187.4520  177.5740  146.1260 C   0  0  0  0  0  0  0  0  0  0  0  0
  184.8680  178.4310  143.6360 C   0  0  0  0  0  0  0  0  0  0  0  0
  188.2460  177.2620  147.2970 C   0  0  0  0  0  0  0  0  0  0  0  0
  186.2010  177.9070  145.6500 C   0  0  0  0  0  3  0  0  0  0  0  0
  185.9200  178.3960  141.4820 N   0  0  0  0  0  0  0  0  0  0  0  0
  189.3750  177.1080  146.4460 N   0  0  0  0  0  2  0  0  0  0  0  0
  188.0330  177.1690  148.5350 O   0  0  0  0  0  0  0  0  0  0  0  0
  184.8120  178.5540  142.2470 C   0  0  0  0  0  3  0  0  0  0  0  0
  187.1360  178.1020  142.0120 C   0  0  0  0  0  0  0  0  0  0  0  0
  187.2720  177.9300  143.4000 C   0  0  0  0  0  0  0  0  0  0  0  0
  188.5360  177.5850  143.9570 C   0  0  0  0  0  3  0  0  0  0  0  0
  188.5460  177.4240  145.3260 C   0  0  0  0  0  0  0  0  0  0  0  0
  186.1030  178.1010  144.2430 C   0  0  0  0  0  0  0  0  0  0  0  0
  188.3040  177.9400  141.0870 C   0  0  0  0  0  2  0  0  0  0  0  0
  188.6950  179.5690  137.8280 O   0  0  0  0  0  0  0  0  0  0  0  0
  188.0130  178.5470  139.7960 N   0  0  0  0  0  2  0  0  0  0  0  0
  190.2560  178.1160  138.7370 N   0  0  0  0  0  2  0  0  0  0  0  0
  188.9780  178.7680  138.7590 C   0  0  0  0  0  0  0  0  0  0  0  0
  190.6140  176.9590  139.5480 C   0  0  1  0  0  3  0  0  0  0  0  0
  191.7010  176.0350  137.4430 C   0  0  0  0  0  2  0  0  0  0  0  0
  189.6670  175.4060  137.7470 C   0  0  0  0  0  2  0  0  0  0  0  0
  190.5290  175.7110  136.5340 C   0  0  0  0  0  2  0  0  0  0  0  0
  190.8430  175.7250  138.6550 C   0  0  0  0  0  3  0  0  0  0  0  0
  191.7440  177.2940  140.4880 C   0  0  0  0  0  0  0  0  0  0  0  0
  191.5090  177.4510  141.6750 O   0  0  0  0  0  0  0  0  0  0  0  0
  193.1520  177.4160  139.9960 C   0  0  0  0  0  1  0  0  0  0  0  0
  183.6470  178.6240  144.3640 N   0  0  0  0  0  2  0  0  0  0  0  0
  182.5120  179.4200  143.9190 C   0  0  0  0  0  2  0  0  0  0  0  0
  181.4720  178.5260  143.2680 C   0  0  0  0  0  2  0  0  0  0  0  0
  179.7640  177.3810  144.5070 O   0  0  0  0  0  1  0  0  0  0  0  0
  180.1300  178.6230  143.9840 C   0  0  2  0  0  3  0  0  0  0  0  0
  179.0540  179.1480  143.0400 C   0  0  0  0  0  2  0  0  0  0  0  0
  179.6290  177.4480  139.6760 C   0  0  0  0  0  2  0  0  0  0  0  0
  180.6240  178.3880  139.1620 N   0  0  0  0  0  0  0  0  0  0  0  0
  179.5880  177.5300  141.2020 C   0  0  0  0  0  2  0  0  0  0  0  0
  179.8750  181.1770  141.2480 O   0  0  0  0  0  0  0  0  0  0  0  0
  180.1140  179.7460  139.3530 C   0  0  0  0  0  2  0  0  0  0  0  0
  179.8170  180.0010  140.8000 C   0  0  0  0  0  0  0  0  0  0  0  0
  179.3990  178.9110  141.6420 N   0  0  0  0  0  0  0  0  0  0  0  0
  180.6970  178.1820  137.7770 N   0  0  0  0  0  2  0  0  0  0  0  0
  182.1420  176.5160  136.7040 C   0  0  0  0  0  1  0  0  0  0  0  0
  182.0770  177.8350  137.4580 C   0  0  2  0  0  3  0  0  0  0  0  0
  183.0940  177.7840  138.9780 S   0  0  0  0  0  0  0  0  0  0  0  0
  184.4010  180.0860  139.0790 O   0  0  0  0  0  1  0  0  0  0  0  0
  184.4190  178.8820  138.3770 C   0  0  0  0  0  2  0  0  0  0  0  0
  1  3  1  0  0  0  0
  2 13  1  0  0  0  0
  2 27  1  0  0  0  0
  3  7  2  0  0  0  0
  4  1  1  0  0  0  0
  5  9  2  0  0  0  0
  5  8  1  0  0  0  0
  6  3  1  0  0  0  0
  8  2  2  0  0  0  0
  9 10  1  0  0  0  0
 10 11  2  0  0  0  0
 10 13  1  0  0  0  0
 11 12  1  0  0  0  0
 12  1  2  0  0  0  0
 12  6  1  0  0  0  0
 13  4  2  0  0  0  0
 14  9  1  0  0  0  0
 15 18  2  0  0  0  0
 16 14  1  0  0  0  0
 17 18  1  0  0  0  0
 18 16  1  0  0  0  0
 19 17  1  6  0  0  0
 19 24  1  0  0  0  0
 20 23  1  0  0  0  0
 21 23  1  0  0  0  0
 22 20  1  0  0  0  0
 22 21  1  0  0  0  0
 23 19  1  0  0  0  0
 24 25  2  0  0  0  0
 26 24  1  0  0  0  0
 28 27  1  0  0  0  0
 29 28  1  0  0  0  0
 29 31  1  0  0  0  0
 31 30  1  6  0  0  0
 32 31  1  0  0  0  0
 33 35  1  0  0  0  0
 34 37  1  0  0  0  0
 34 33  1  0  0  0  0
 35 39  1  0  0  0  0
 37 38  1  0  0  0  0
 38 36  2  0  0  0  0
 38 39  1  0  0  0  0
 39 32  1  0  0  0  0
 40 34  1  0  0  0  0
 42 41  1  1  0  0  0
 42 40  1  0  0  0  0
 42 43  1  0  0  0  0
 45 43  1  0  0  0  0
 45 44  1  0  0  0  0
M  END
>  <MODEL>
4

>  <REMARK>
 VINA RESULT:      -7.1      1.955      2.322
  Name = 
  15 active torsions:
  status: ('A' for Active; 'I' for Inactive)
    1  A    between atoms: C_1  and  C_15
    2  A    between atoms: C_1  and  N_30
    3  A    between atoms: C_2  and  N_27
    4  A    between atoms: C_2  and  C_28
    5  A    between atoms: S_5  and  C_36
    6  A    between atoms: S_5  and  C_44
    7  A    between atoms: C_8  and  C_24
    8  A    between atoms: C_9  and  N_30
    9  A    between atoms: N_10  and  N_23
   10  A    between atoms: N_10  and  C_36
   11  A    between atoms: C_15  and  C_32
   12  A    between atoms: C_24  and  N_31
   13  A    between atoms: C_24  and  C_41
   14  A    between atoms: C_32  and  C_40
   15  A    between atoms: C_40  and  N_42
                            x       y       z     vdW  Elec       q    Type
                         _______ _______ _______ _____ _____    ______ ____

>  <TORSDO>
F 15

$$$$
=
 OpenBabel11042411383D

 45 49  0  0  1  0  0  0  0  0999 V2000
  188.1470  177.4650  145.4960 C   0  0  0  0  0  0  0  0  0  0  0  0
  185.3120  178.4160  143.3360 C   0  0  0  0  0  0  0  0  0  0  0  0
  189.0610  177.1050  146.5610 C   0  0  0  0  0  0  0  0  0  0  0  0
  186.8510  177.8090  145.1710 C   0  0  0  0  0  3  0  0  0  0  0  0
  186.1320  178.4990  141.0850 N   0  0  0  0  0  0  0  0  0  0  0  0
  190.0950  177.0050  145.5900 N   0  0  0  0  0  2  0  0  0  0  0  0
  188.9790  176.9500  147.8080 O   0  0  0  0  0  0  0  0  0  0  0  0
  185.1090  178.6070  141.9690 C   0  0  0  0  0  3  0  0  0  0  0  0
  187.3980  178.1920  141.4690 C   0  0  0  0  0  0  0  0  0  0  0  0
  187.6800  177.9530  142.8250 C   0  0  0  0  0  0  0  0  0  0  0  0
  188.9970  177.5940  143.2290 C   0  0  0  0  0  3  0  0  0  0  0  0
  189.1510  177.3670  144.5800 C   0  0  0  0  0  0  0  0  0  0  0  0
  186.6050  178.0700  143.7940 C   0  0  0  0  0  0  0  0  0  0  0  0
  188.4640  178.0880  140.4200 C   0  0  0  0  0  2  0  0  0  0  0  0
  188.5120  179.6320  137.0980 O   0  0  0  0  0  0  0  0  0  0  0  0
  188.0750  178.8330  139.2310 N   0  0  0  0  0  2  0  0  0  0  0  0
  189.5950  177.6480  137.6110 N   0  0  0  0  0  2  0  0  0  0  0  0
  188.7200  178.7320  137.9540 C   0  0  0  0  0  0  0  0  0  0  0  0
  189.7000  176.3960  138.3530 C   0  0  1  0  0  3  0  0  0  0  0  0
  190.4190  174.2720  137.1530 C   0  0  0  0  0  2  0  0  0  0  0  0
  189.1450  175.5630  135.9970 C   0  0  0  0  0  2  0  0  0  0  0  0
  190.2920  174.6200  135.6800 C   0  0  0  0  0  2  0  0  0  0  0  0
  189.2700  175.2100  137.4690 C   0  0  0  0  0  3  0  0  0  0  0  0
  191.0600  176.2660  138.9900 C   0  0  0  0  0  0  0  0  0  0  0  0
  191.1420  175.9280  140.1610 O   0  0  0  0  0  0  0  0  0  0  0  0
  192.3100  176.5230  138.2100 C   0  0  0  0  0  1  0  0  0  0  0  0
  184.1720  178.5610  144.1970 N   0  0  0  0  0  2  0  0  0  0  0  0
  183.0800  179.5040  144.0040 C   0  0  0  0  0  2  0  0  0  0  0  0
  181.7830  178.7560  143.7560 C   0  0  0  0  0  2  0  0  0  0  0  0
  180.3550  180.5110  142.9540 O   0  0  0  0  0  1  0  0  0  0  0  0
  181.0200  179.3430  142.5750 C   0  0  2  0  0  3  0  0  0  0  0  0
  180.0370  178.3230  142.0090 C   0  0  0  0  0  2  0  0  0  0  0  0
  182.4680  176.9900  139.3910 C   0  0  0  0  0  2  0  0  0  0  0  0
  181.4920  176.2450  138.5960 N   0  0  0  0  0  0  0  0  0  0  0  0
  181.7510  178.0730  140.1960 C   0  0  0  0  0  2  0  0  0  0  0  0
  178.9310  175.9040  141.0480 O   0  0  0  0  0  0  0  0  0  0  0  0
  180.6880  175.4280  139.5060 C   0  0  0  0  0  2  0  0  0  0  0  0
  180.0150  176.2860  140.5340 C   0  0  0  0  0  0  0  0  0  0  0  0
  180.6510  177.5010  140.9710 N   0  0  0  0  0  0  0  0  0  0  0  0
  182.2200  175.3510  137.7970 N   0  0  0  0  0  2  0  0  0  0  0  0
  181.7040  175.9900  135.4860 C   0  0  0  0  0  1  0  0  0  0  0  0
  182.6960  176.0910  136.6350 C   0  0  2  0  0  3  0  0  0  0  0  0
  184.3550  175.5050  136.1360 S   0  0  0  0  0  0  0  0  0  0  0  0
  186.0750  177.4760  135.7190 O   0  0  0  0  0  1  0  0  0  0  0  0
  185.2770  176.9580  136.7370 C   0  0  0  0  0  2  0  0  0  0  0  0
  1  3  1  0  0  0  0
  2 13  1  0  0  0  0
  2 27  1  0  0  0  0
  3  7  2  0  0  0  0
  4  1  1  0  0  0  0
  5  9  2  0  0  0  0
  5  8  1  0  0  0  0
  6  3  1  0  0  0  0
  8  2  2  0  0  0  0
  9 10  1  0  0  0  0
 10 11  2  0  0  0  0
 10 13  1  0  0  0  0
 11 12  1  0  0  0  0
 12  1  2  0  0  0  0
 12  6  1  0  0  0  0
 13  4  2  0  0  0  0
 14  9  1  0  0  0  0
 15 18  2  0  0  0  0
 16 14  1  0  0  0  0
 17 18  1  0  0  0  0
 18 16  1  0  0  0  0
 19 17  1  6  0  0  0
 19 24  1  0  0  0  0
 20 23  1  0  0  0  0
 21 23  1  0  0  0  0
 22 21  1  0  0  0  0
 22 20  1  0  0  0  0
 23 19  1  0  0  0  0
 24 25  2  0  0  0  0
 26 24  1  0  0  0  0
 28 27  1  0  0  0  0
 29 28  1  0  0  0  0
 31 30  1  1  0  0  0
 31 29  1  0  0  0  0
 32 31  1  0  0  0  0
 33 35  1  0  0  0  0
 34 33  1  0  0  0  0
 34 37  1  0  0  0  0
 35 39  1  0  0  0  0
 37 38  1  0  0  0  0
 38 39  1  0  0  0  0
 38 36  2  0  0  0  0
 39 32  1  0  0  0  0
 40 34  1  0  0  0  0
 42 41  1  6  0  0  0
 42 40  1  0  0  0  0
 43 42  1  0  0  0  0
 43 45  1  0  0  0  0
 44 45  1  0  0  0  0
M  END
>  <MODEL>
5

>  <REMARK>
 VINA RESULT:      -7.0      1.389      1.714
  Name = 
  15 active torsions:
  status: ('A' for Active; 'I' for Inactive)
    1  A    between atoms: C_1  and  C_15
    2  A    between atoms: C_1  and  N_30
    3  A    between atoms: C_2  and  N_27
    4  A    between atoms: C_2  and  C_28
    5  A    between atoms: S_5  and  C_36
    6  A    between atoms: S_5  and  C_44
    7  A    between atoms: C_8  and  C_24
    8  A    between atoms: C_9  and  N_30
    9  A    between atoms: N_10  and  N_23
   10  A    between atoms: N_10  and  C_36
   11  A    between atoms: C_15  and  C_32
   12  A    between atoms: C_24  and  N_31
   13  A    between atoms: C_24  and  C_41
   14  A    between atoms: C_32  and  C_40
   15  A    between atoms: C_40  and  N_42
                            x       y       z     vdW  Elec       q    Type
                         _______ _______ _______ _____ _____    ______ ____

>  <TORSDO>
F 15

$$$$
=
 OpenBabel11042411383D

 45 49  0  0  1  0  0  0  0  0999 V2000
  185.4680  178.5660  145.1090 C   0  0  0  0  0  0  0  0  0  0  0  0
  185.7890  178.6670  141.4360 C   0  0  0  0  0  0  0  0  0  0  0  0
  185.6370  178.5080  146.5480 C   0  0  0  0  0  0  0  0  0  0  0  0
  186.1030  178.5620  143.8840 C   0  0  0  0  0  3  0  0  0  0  0  0
  183.5790  178.8990  140.5380 N   0  0  0  0  0  0  0  0  0  0  0  0
  184.2240  178.6030  146.6800 N   0  0  0  0  0  2  0  0  0  0  0  0
  186.6100  178.4120  147.3400 O   0  0  0  0  0  0  0  0  0  0  0  0
  184.9200  178.8110  140.3540 C   0  0  0  0  0  3  0  0  0  0  0  0
  183.0070  178.8620  141.7690 C   0  0  0  0  0  0  0  0  0  0  0  0
  183.8150  178.7510  142.9130 C   0  0  0  0  0  0  0  0  0  0  0  0
  183.2250  178.7500  144.2080 C   0  0  0  0  0  3  0  0  0  0  0  0
  184.1160  178.6540  145.2560 C   0  0  0  0  0  0  0  0  0  0  0  0
  185.2540  178.6480  142.7460 C   0  0  0  0  0  0  0  0  0  0  0  0
  181.5160  178.9710  141.8740 C   0  0  0  0  0  2  0  0  0  0  0  0
  179.1310  176.7740  140.1700 O   0  0  0  0  0  0  0  0  0  0  0  0
  180.8820  177.7950  141.2970 N   0  0  0  0  0  2  0  0  0  0  0  0
  179.4380  179.0070  139.6280 N   0  0  0  0  0  2  0  0  0  0  0  0
  179.7970  177.8260  140.3590 C   0  0  0  0  0  0  0  0  0  0  0  0
  180.2750  180.1940  139.5020 C   0  0  1  0  0  3  0  0  0  0  0  0
  179.9050  179.7830  137.0190 C   0  0  0  0  0  2  0  0  0  0  0  0
  181.8320  179.1670  137.7490 C   0  0  0  0  0  2  0  0  0  0  0  0
  180.8750  178.6640  136.6820 C   0  0  0  0  0  2  0  0  0  0  0  0
  180.8630  180.2890  138.0810 C   0  0  0  0  0  3  0  0  0  0  0  0
  179.5380  181.4200  139.9780 C   0  0  0  0  0  0  0  0  0  0  0  0
  179.3120  181.5560  141.1700 O   0  0  0  0  0  0  0  0  0  0  0  0
  179.0990  182.4820  139.0200 C   0  0  0  0  0  1  0  0  0  0  0  0
  187.1910  178.5740  141.1450 N   0  0  0  0  0  2  0  0  0  0  0  0
  187.8230  178.9550  139.8900 C   0  0  0  0  0  2  0  0  0  0  0  0
  188.1970  177.7150  139.0980 C   0  0  0  0  0  2  0  0  0  0  0  0
  189.7340  177.8750  137.2610 O   0  0  0  0  0  1  0  0  0  0  0  0
  189.6530  177.7600  138.6500 C   0  0  2  0  0  3  0  0  0  0  0  0
  190.4020  176.5210  139.1320 C   0  0  0  0  0  2  0  0  0  0  0  0
  190.1740  175.9770  142.8990 C   0  0  0  0  0  2  0  0  0  0  0  0
  190.8740  177.1950  143.3040 N   0  0  0  0  0  0  0  0  0  0  0  0
  189.6210  176.1510  141.4850 C   0  0  0  0  0  2  0  0  0  0  0  0
  192.6170  177.8620  140.2700 O   0  0  0  0  0  0  0  0  0  0  0  0
  192.1130  177.2900  142.5310 C   0  0  0  0  0  2  0  0  0  0  0  0
  191.8210  177.2910  141.0600 C   0  0  0  0  0  0  0  0  0  0  0  0
  190.6730  176.5770  140.5650 N   0  0  0  0  0  0  0  0  0  0  0  0
  191.2530  177.0170  144.6420 N   0  0  0  0  0  2  0  0  0  0  0  0
  189.2080  178.2380  145.2250 C   0  0  0  0  0  1  0  0  0  0  0  0
  190.0350  176.9800  145.4410 C   0  0  2  0  0  3  0  0  0  0  0  0
  190.4340  176.7420  147.2100 S   0  0  0  0  0  0  0  0  0  0  0  0
  192.5320  175.4000  148.1130 O   0  0  0  0  0  1  0  0  0  0  0  0
  192.0960  176.0390  146.9550 C   0  0  0  0  0  2  0  0  0  0  0  0
  1 12  1  0  0  0  0
  1  3  1  0  0  0  0
  2 13  1  0  0  0  0
  3  6  1  0  0  0  0
  3  7  2  0  0  0  0
  4  1  2  0  0  0  0
  5  9  2  0  0  0  0
  8  5  1  0  0  0  0
  8  2  2  0  0  0  0
  9 14  1  0  0  0  0
  9 10  1  0  0  0  0
 10 11  1  0  0  0  0
 11 12  2  0  0  0  0
 12  6  1  0  0  0  0
 13 10  2  0  0  0  0
 13  4  1  0  0  0  0
 15 18  2  0  0  0  0
 16 14  1  0  0  0  0
 17 18  1  0  0  0  0
 18 16  1  0  0  0  0
 19 17  1  6  0  0  0
 19 24  1  0  0  0  0
 20 23  1  0  0  0  0
 21 23  1  0  0  0  0
 22 20  1  0  0  0  0
 22 21  1  0  0  0  0
 23 19  1  0  0  0  0
 24 25  2  0  0  0  0
 26 24  1  0  0  0  0
 27  2  1  0  0  0  0
 28 27  1  0  0  0  0
 29 28  1  0  0  0  0
 31 30  1  6  0  0  0
 31 29  1  0  0  0  0
 31 32  1  0  0  0  0
 32 39  1  0  0  0  0
 33 34  1  0  0  0  0
 34 40  1  0  0  0  0
 35 33  1  0  0  0  0
 36 38  2  0  0  0  0
 37 34  1  0  0  0  0
 38 37  1  0  0  0  0
 39 38  1  0  0  0  0
 39 35  1  0  0  0  0
 40 42  1  0  0  0  0
 42 41  1  1  0  0  0
 42 43  1  0  0  0  0
 45 43  1  0  0  0  0
 45 44  1  0  0  0  0
M  END
>  <MODEL>
6

>  <REMARK>
 VINA RESULT:      -6.7      3.043      8.945
  Name = 
  15 active torsions:
  status: ('A' for Active; 'I' for Inactive)
    1  A    between atoms: C_1  and  C_15
    2  A    between atoms: C_1  and  N_30
    3  A    between atoms: C_2  and  N_27
    4  A    between atoms: C_2  and  C_28
    5  A    between atoms: S_5  and  C_36
    6  A    between atoms: S_5  and  C_44
    7  A    between atoms: C_8  and  C_24
    8  A    between atoms: C_9  and  N_30
    9  A    between atoms: N_10  and  N_23
   10  A    between atoms: N_10  and  C_36
   11  A    between atoms: C_15  and  C_32
   12  A    between atoms: C_24  and  N_31
   13  A    between atoms: C_24  and  C_41
   14  A    between atoms: C_32  and  C_40
   15  A    between atoms: C_40  and  N_42
                            x       y       z     vdW  Elec       q    Type
                         _______ _______ _______ _____ _____    ______ ____

>  <TORSDO>
F 15

$$$$
=
 OpenBabel11042411383D

 45 49  0  0  1  0  0  0  0  0999 V2000
  186.1450  178.6770  141.1160 C   0  0  0  0  0  0  0  0  0  0  0  0
  185.0160  178.6660  144.6280 C   0  0  0  0  0  0  0  0  0  0  0  0
  186.8560  178.6370  139.8540 C   0  0  0  0  0  0  0  0  0  0  0  0
  186.2520  178.5990  142.4900 C   0  0  0  0  0  3  0  0  0  0  0  0
  182.6360  178.9480  144.6080 N   0  0  0  0  0  0  0  0  0  0  0  0
  185.6140  178.8380  139.1900 N   0  0  0  0  0  2  0  0  0  0  0  0
  188.0540  178.4910  139.4960 O   0  0  0  0  0  0  0  0  0  0  0  0
  183.7920  178.7560  145.2910 C   0  0  0  0  0  3  0  0  0  0  0  0
  182.5970  179.0530  143.2550 C   0  0  0  0  0  0  0  0  0  0  0  0
  183.7830  178.9410  142.5090 C   0  0  0  0  0  0  0  0  0  0  0  0
  183.7450  179.0120  141.0880 C   0  0  0  0  0  3  0  0  0  0  0  0
  184.9650  178.8720  140.4630 C   0  0  0  0  0  0  0  0  0  0  0  0
  185.0360  178.7430  143.2150 C   0  0  0  0  0  0  0  0  0  0  0  0
  181.2710  179.2580  142.5860 C   0  0  0  0  0  2  0  0  0  0  0  0
  179.0090  176.7110  141.2370 O   0  0  0  0  0  0  0  0  0  0  0  0
  180.6990  177.9770  142.1980 N   0  0  0  0  0  2  0  0  0  0  0  0
  179.2210  178.8440  140.3530 N   0  0  0  0  0  2  0  0  0  0  0  0
  179.6250  177.8100  141.2620 C   0  0  0  0  0  0  0  0  0  0  0  0
  180.0040  180.0340  140.0450 C   0  0  1  0  0  3  0  0  0  0  0  0
  180.5570  178.6070  138.0130 C   0  0  0  0  0  2  0  0  0  0  0  0
  181.9570  180.1940  138.3980 C   0  0  0  0  0  2  0  0  0  0  0  0
  182.0540  178.7880  137.8320 C   0  0  0  0  0  2  0  0  0  0  0  0
  180.4590  180.0140  138.5730 C   0  0  0  0  0  3  0  0  0  0  0  0
  179.2740  181.2800  140.4780 C   0  0  0  0  0  0  0  0  0  0  0  0
  178.9310  181.3980  141.6430 O   0  0  0  0  0  0  0  0  0  0  0  0
  178.9820  182.3840  139.5110 C   0  0  0  0  0  1  0  0  0  0  0  0
  186.1880  178.4720  145.4340 N   0  0  0  0  0  2  0  0  0  0  0  0
  187.0600  177.3070  145.3930 C   0  0  0  0  0  2  0  0  0  0  0  0
  188.4980  177.7400  145.1720 C   0  0  0  0  0  2  0  0  0  0  0  0
  189.8420  178.1250  147.1230 O   0  0  0  0  0  1  0  0  0  0  0  0
  189.4260  177.1430  146.2220 C   0  0  2  0  0  3  0  0  0  0  0  0
  190.6290  176.4760  145.5600 C   0  0  0  0  0  2  0  0  0  0  0  0
  190.1710  176.3780  141.7760 C   0  0  0  0  0  2  0  0  0  0  0  0
  191.3850  177.1120  141.4240 N   0  0  0  0  0  0  0  0  0  0  0  0
  190.3230  175.7760  143.1730 C   0  0  0  0  0  2  0  0  0  0  0  0
  191.9580  178.7520  144.5340 O   0  0  0  0  0  0  0  0  0  0  0  0
  191.4440  178.3220  142.2430 C   0  0  0  0  0  2  0  0  0  0  0  0
  191.4170  177.9770  143.7020 C   0  0  0  0  0  0  0  0  0  0  0  0
  190.7120  176.8010  144.1400 N   0  0  0  0  0  0  0  0  0  0  0  0
  191.2310  177.5370  140.0970 N   0  0  0  0  0  2  0  0  0  0  0  0
  193.1530  176.5940  138.9000 C   0  0  0  0  0  1  0  0  0  0  0  0
  191.6760  176.4490  139.2340 C   0  0  2  0  0  3  0  0  0  0  0  0
  190.6550  176.3730  137.7190 S   0  0  0  0  0  0  0  0  0  0  0  0
  190.2470  173.7680  137.4600 O   0  0  0  0  0  1  0  0  0  0  0  0
  191.2170  174.7270  137.1730 C   0  0  0  0  0  2  0  0  0  0  0  0
  1  4  1  0  0  0  0
  2  8  2  0  0  0  0
  2 27  1  0  0  0  0
  3  1  1  0  0  0  0
  4 13  2  0  0  0  0
  5  8  1  0  0  0  0
  6  3  1  0  0  0  0
  6 12  1  0  0  0  0
  7  3  2  0  0  0  0
  9  5  2  0  0  0  0
 10 13  1  0  0  0  0
 10  9  1  0  0  0  0
 11 10  2  0  0  0  0
 12 11  1  0  0  0  0
 12  1  2  0  0  0  0
 13  2  1  0  0  0  0
 14  9  1  0  0  0  0
 15 18  2  0  0  0  0
 16 14  1  0  0  0  0
 17 18  1  0  0  0  0
 18 16  1  0  0  0  0
 19 17  1  6  0  0  0
 19 24  1  0  0  0  0
 20 23  1  0  0  0  0
 21 23  1  0  0  0  0
 22 20  1  0  0  0  0
 22 21  1  0  0  0  0
 23 19  1  0  0  0  0
 24 25  2  0  0  0  0
 26 24  1  0  0  0  0
 28 27  1  0  0  0  0
 29 28  1  0  0  0  0
 29 31  1  0  0  0  0
 31 30  1  1  0  0  0
 32 31  1  0  0  0  0
 33 35  1  0  0  0  0
 34 33  1  0  0  0  0
 34 37  1  0  0  0  0
 35 39  1  0  0  0  0
 37 38  1  0  0  0  0
 38 39  1  0  0  0  0
 38 36  2  0  0  0  0
 39 32  1  0  0  0  0
 40 34  1  0  0  0  0
 42 41  1  6  0  0  0
 42 40  1  0  0  0  0
 43 42  1  0  0  0  0
 45 44  1  0  0  0  0
 45 43  1  0  0  0  0
M  END
>  <MODEL>
7

>  <REMARK>
 VINA RESULT:      -6.7      2.480      8.640
  Name = 
  15 active torsions:
  status: ('A' for Active; 'I' for Inactive)
    1  A    between atoms: C_1  and  C_15
    2  A    between atoms: C_1  and  N_30
    3  A    between atoms: C_2  and  N_27
    4  A    between atoms: C_2  and  C_28
    5  A    between atoms: S_5  and  C_36
    6  A    between atoms: S_5  and  C_44
    7  A    between atoms: C_8  and  C_24
    8  A    between atoms: C_9  and  N_30
    9  A    between atoms: N_10  and  N_23
   10  A    between atoms: N_10  and  C_36
   11  A    between atoms: C_15  and  C_32
   12  A    between atoms: C_24  and  N_31
   13  A    between atoms: C_24  and  C_41
   14  A    between atoms: C_32  and  C_40
   15  A    between atoms: C_40  and  N_42
                            x       y       z     vdW  Elec       q    Type
                         _______ _______ _______ _____ _____    ______ ____

>  <TORSDO>
F 15

$$$$
=
 OpenBabel11042411383D

 45 49  0  0  1  0  0  0  0  0999 V2000
  185.1640  178.7530  142.7780 C   0  0  0  0  0  0  0  0  0  0  0  0
  186.2550  178.5080  139.2620 C   0  0  0  0  0  0  0  0  0  0  0  0
  185.0240  178.8820  144.2150 C   0  0  0  0  0  0  0  0  0  0  0  0
  186.0430  178.7240  141.7140 C   0  0  0  0  0  3  0  0  0  0  0  0
  184.2810  178.2570  137.9240 N   0  0  0  0  0  0  0  0  0  0  0  0
  183.6170  178.7460  144.0520 N   0  0  0  0  0  2  0  0  0  0  0  0
  185.8060  179.0400  145.1880 O   0  0  0  0  0  0  0  0  0  0  0  0
  185.6280  178.3820  138.0220 C   0  0  0  0  0  3  0  0  0  0  0  0
  183.4680  178.2570  139.0120 C   0  0  0  0  0  0  0  0  0  0  0  0
  184.0170  178.4110  140.2970 C   0  0  0  0  0  0  0  0  0  0  0  0
  183.1670  178.4500  141.4380 C   0  0  0  0  0  3  0  0  0  0  0  0
  183.8150  178.6230  142.6420 C   0  0  0  0  0  0  0  0  0  0  0  0
  185.4570  178.5390  140.4310 C   0  0  0  0  0  0  0  0  0  0  0  0
  181.9900  178.1190  138.8060 C   0  0  0  0  0  2  0  0  0  0  0  0
  179.5810  180.7500  137.9710 O   0  0  0  0  0  0  0  0  0  0  0  0
  181.4090  179.4050  138.4450 N   0  0  0  0  0  2  0  0  0  0  0  0
  179.1230  178.9990  139.4190 N   0  0  0  0  0  2  0  0  0  0  0  0
  180.0250  179.7490  138.5930 C   0  0  0  0  0  0  0  0  0  0  0  0
  179.5310  178.0220  140.4220 C   0  0  1  0  0  3  0  0  0  0  0  0
  179.1080  179.9330  142.0450 C   0  0  0  0  0  2  0  0  0  0  0  0
  180.0310  178.2010  142.9260 C   0  0  0  0  0  2  0  0  0  0  0  0
  180.1130  179.7000  143.1600 C   0  0  0  0  0  2  0  0  0  0  0  0
  179.0220  178.4360  141.8150 C   0  0  0  0  0  3  0  0  0  0  0  0
  179.1620  176.6260  139.9890 C   0  0  0  0  0  0  0  0  0  0  0  0
  178.9610  176.4000  138.8060 O   0  0  0  0  0  0  0  0  0  0  0  0
  179.0600  175.5080  140.9780 C   0  0  0  0  0  1  0  0  0  0  0  0
  187.6850  178.6250  139.2680 N   0  0  0  0  0  2  0  0  0  0  0  0
  188.6250  177.5160  139.3390 C   0  0  0  0  0  2  0  0  0  0  0  0
  189.5710  177.7080  140.5110 C   0  0  0  0  0  2  0  0  0  0  0  0
  190.9400  176.0840  139.3940 O   0  0  0  0  0  1  0  0  0  0  0  0
  190.9810  177.2450  140.1690 C   0  0  2  0  0  3  0  0  0  0  0  0
  191.7940  177.0160  141.4400 C   0  0  0  0  0  2  0  0  0  0  0  0
  190.1950  178.9010  144.3420 C   0  0  0  0  0  2  0  0  0  0  0  0
  190.0350  177.7580  145.2390 N   0  0  0  0  0  0  0  0  0  0  0  0
  191.2870  178.5980  143.3160 C   0  0  0  0  0  2  0  0  0  0  0  0
  190.1960  175.1410  142.8270 O   0  0  0  0  0  0  0  0  0  0  0  0
  189.4140  176.6680  144.4860 C   0  0  0  0  0  2  0  0  0  0  0  0
  190.2420  176.3120  143.2880 C   0  0  0  0  0  0  0  0  0  0  0  0
  191.0240  177.3300  142.6380 N   0  0  0  0  0  0  0  0  0  0  0  0
  189.1100  178.1400  146.2210 N   0  0  0  0  0  2  0  0  0  0  0  0
  188.6030  177.8740  148.6050 C   0  0  0  0  0  1  0  0  0  0  0  0
  189.3800  177.3430  147.4110 C   0  0  2  0  0  3  0  0  0  0  0  0
  191.1750  177.2890  147.7540 S   0  0  0  0  0  0  0  0  0  0  0  0
  192.4290  175.2630  146.5980 O   0  0  0  0  0  1  0  0  0  0  0  0
  191.3840  175.4980  147.4890 C   0  0  0  0  0  2  0  0  0  0  0  0
  1  3  1  0  0  0  0
  2 27  1  0  0  0  0
  2 13  1  0  0  0  0
  3  7  2  0  0  0  0
  4  1  2  0  0  0  0
  5  8  1  0  0  0  0
  5  9  2  0  0  0  0
  6  3  1  0  0  0  0
  8  2  2  0  0  0  0
  9 10  1  0  0  0  0
 10 13  2  0  0  0  0
 10 11  1  0  0  0  0
 11 12  2  0  0  0  0
 12  1  1  0  0  0  0
 12  6  1  0  0  0  0
 13  4  1  0  0  0  0
 14  9  1  0  0  0  0
 15 18  2  0  0  0  0
 16 18  1  0  0  0  0
 16 14  1  0  0  0  0
 18 17  1  0  0  0  0
 19 17  1  6  0  0  0
 19 23  1  0  0  0  0
 20 22  1  0  0  0  0
 21 22  1  0  0  0  0
 23 20  1  0  0  0  0
 23 21  1  0  0  0  0
 24 19  1  0  0  0  0
 24 26  1  0  0  0  0
 25 24  2  0  0  0  0
 27 28  1  0  0  0  0
 28 29  1  0  0  0  0
 31 30  1  1  0  0  0
 31 29  1  0  0  0  0
 31 32  1  0  0  0  0
 32 39  1  0  0  0  0
 33 34  1  0  0  0  0
 34 40  1  0  0  0  0
 35 33  1  0  0  0  0
 36 38  2  0  0  0  0
 37 34  1  0  0  0  0
 38 37  1  0  0  0  0
 39 38  1  0  0  0  0
 39 35  1  0  0  0  0
 40 42  1  0  0  0  0
 42 43  1  0  0  0  0
 42 41  1  1  0  0  0
 44 45  1  0  0  0  0
 45 43  1  0  0  0  0
M  END
>  <MODEL>
8

>  <REMARK>
 VINA RESULT:      -6.7      3.151      9.464
  Name = 
  15 active torsions:
  status: ('A' for Active; 'I' for Inactive)
    1  A    between atoms: C_1  and  C_15
    2  A    between atoms: C_1  and  N_30
    3  A    between atoms: C_2  and  N_27
    4  A    between atoms: C_2  and  C_28
    5  A    between atoms: S_5  and  C_36
    6  A    between atoms: S_5  and  C_44
    7  A    between atoms: C_8  and  C_24
    8  A    between atoms: C_9  and  N_30
    9  A    between atoms: N_10  and  N_23
   10  A    between atoms: N_10  and  C_36
   11  A    between atoms: C_15  and  C_32
   12  A    between atoms: C_24  and  N_31
   13  A    between atoms: C_24  and  C_41
   14  A    between atoms: C_32  and  C_40
   15  A    between atoms: C_40  and  N_42
                            x       y       z     vdW  Elec       q    Type
                         _______ _______ _______ _____ _____    ______ ____

>  <TORSDO>
F 15

$$$$
=
 OpenBabel11042411383D

 45 49  0  0  1  0  0  0  0  0999 V2000
  188.7830  177.3160  145.2410 C   0  0  0  0  0  0  0  0  0  0  0  0
  185.9190  178.3100  143.1400 C   0  0  0  0  0  0  0  0  0  0  0  0
  189.7100  176.9260  146.2850 C   0  0  0  0  0  0  0  0  0  0  0  0
  187.4800  177.6510  144.9380 C   0  0  0  0  0  3  0  0  0  0  0  0
  186.7230  178.5010  140.8890 N   0  0  0  0  0  0  0  0  0  0  0  0
  190.7390  176.8840  145.3040 N   0  0  0  0  0  2  0  0  0  0  0  0
  189.6390  176.7170  147.5240 O   0  0  0  0  0  0  0  0  0  0  0  0
  185.7040  178.5550  141.7830 C   0  0  0  0  0  3  0  0  0  0  0  0
  187.9970  178.1990  141.2530 C   0  0  0  0  0  0  0  0  0  0  0  0
  188.2920  177.9080  142.5960 C   0  0  0  0  0  0  0  0  0  0  0  0
  189.6160  177.5540  142.9770 C   0  0  0  0  0  3  0  0  0  0  0  0
  189.7830  177.2730  144.3160 C   0  0  0  0  0  0  0  0  0  0  0  0
  187.2210  177.9660  143.5750 C   0  0  0  0  0  0  0  0  0  0  0  0
  189.0570  178.1560  140.1940 C   0  0  0  0  0  2  0  0  0  0  0  0
  188.9960  179.8200  136.9310 O   0  0  0  0  0  0  0  0  0  0  0  0
  188.7170  179.0600  139.1040 N   0  0  0  0  0  2  0  0  0  0  0  0
  189.4740  177.5710  137.2200 N   0  0  0  0  0  2  0  0  0  0  0  0
  189.0590  178.8470  137.7280 C   0  0  0  0  0  0  0  0  0  0  0  0
  189.3100  176.3030  137.9220 C   0  0  1  0  0  3  0  0  0  0  0  0
  188.1780  175.3540  135.8510 C   0  0  0  0  0  2  0  0  0  0  0  0
  186.8540  176.3740  137.2050 C   0  0  0  0  0  2  0  0  0  0  0  0
  186.9240  176.1960  135.6980 C   0  0  0  0  0  2  0  0  0  0  0  0
  188.1060  175.5270  137.3570 C   0  0  0  0  0  3  0  0  0  0  0  0
  190.6100  175.5410  137.9570 C   0  0  0  0  0  0  0  0  0  0  0  0
  190.5890  174.3200  137.9460 O   0  0  0  0  0  0  0  0  0  0  0  0
  191.9260  176.2530  137.9820 C   0  0  0  0  0  1  0  0  0  0  0  0
  184.7830  178.3990  144.0120 N   0  0  0  0  0  2  0  0  0  0  0  0
  183.6130  179.2380  143.7950 C   0  0  0  0  0  2  0  0  0  0  0  0
  182.5000  178.4250  143.1590 C   0  0  0  0  0  2  0  0  0  0  0  0
  180.1740  178.6710  143.7000 O   0  0  0  0  0  1  0  0  0  0  0  0
  181.2310  179.2520  142.9950 C   0  0  2  0  0  3  0  0  0  0  0  0
  180.8750  179.4040  141.5190 C   0  0  0  0  0  2  0  0  0  0  0  0
  182.4580  176.6170  139.4560 C   0  0  0  0  0  2  0  0  0  0  0  0
  181.2190  176.0660  138.9080 N   0  0  0  0  0  0  0  0  0  0  0  0
  182.2270  178.0640  139.8900 C   0  0  0  0  0  2  0  0  0  0  0  0
  178.9320  177.3600  141.3130 O   0  0  0  0  0  0  0  0  0  0  0  0
  180.2740  175.8790  140.0090 C   0  0  0  0  0  2  0  0  0  0  0  0
  180.0280  177.1750  140.7230 C   0  0  0  0  0  0  0  0  0  0  0  0
  181.0750  178.1600  140.7850 N   0  0  0  0  0  0  0  0  0  0  0  0
  181.5240  174.7860  138.4240 N   0  0  0  0  0  2  0  0  0  0  0  0
  181.1270  174.5690  136.0140 C   0  0  0  0  0  1  0  0  0  0  0  0
  182.1190  174.9480  137.1030 C   0  0  2  0  0  3  0  0  0  0  0  0
  183.6600  173.9730  136.9690 S   0  0  0  0  0  0  0  0  0  0  0  0
  182.4880  171.6000  137.0900 O   0  0  0  0  0  1  0  0  0  0  0  0
  182.9200  172.5270  136.1430 C   0  0  0  0  0  2  0  0  0  0  0  0
  1  3  1  0  0  0  0
  2 13  1  0  0  0  0
  2 27  1  0  0  0  0
  3  7  2  0  0  0  0
  4  1  1  0  0  0  0
  5  9  2  0  0  0  0
  5  8  1  0  0  0  0
  6  3  1  0  0  0  0
  8  2  2  0  0  0  0
  9 10  1  0  0  0  0
 10 11  2  0  0  0  0
 10 13  1  0  0  0  0
 11 12  1  0  0  0  0
 12  1  2  0  0  0  0
 12  6  1  0  0  0  0
 13  4  2  0  0  0  0
 14  9  1  0  0  0  0
 15 18  2  0  0  0  0
 16 14  1  0  0  0  0
 17 18  1  0  0  0  0
 18 16  1  0  0  0  0
 19 17  1  6  0  0  0
 19 24  1  0  0  0  0
 20 23  1  0  0  0  0
 21 23  1  0  0  0  0
 22 20  1  0  0  0  0
 22 21  1  0  0  0  0
 23 19  1  0  0  0  0
 24 26  1  0  0  0  0
 25 24  2  0  0  0  0
 28 27  1  0  0  0  0
 29 28  1  0  0  0  0
 31 29  1  0  0  0  0
 31 30  1  1  0  0  0
 32 31  1  0  0  0  0
 33 35  1  0  0  0  0
 34 33  1  0  0  0  0
 34 37  1  0  0  0  0
 35 39  1  0  0  0  0
 37 38  1  0  0  0  0
 38 39  1  0  0  0  0
 38 36  2  0  0  0  0
 39 32  1  0  0  0  0
 40 34  1  0  0  0  0
 42 41  1  6  0  0  0
 42 40  1  0  0  0  0
 43 42  1  0  0  0  0
 45 43  1  0  0  0  0
 45 44  1  0  0  0  0
M  END
>  <MODEL>
9

>  <REMARK>
 VINA RESULT:      -6.6      1.604      1.922
  Name = 
  15 active torsions:
  status: ('A' for Active; 'I' for Inactive)
    1  A    between atoms: C_1  and  C_15
    2  A    between atoms: C_1  and  N_30
    3  A    between atoms: C_2  and  N_27
    4  A    between atoms: C_2  and  C_28
    5  A    between atoms: S_5  and  C_36
    6  A    between atoms: S_5  and  C_44
    7  A    between atoms: C_8  and  C_24
    8  A    between atoms: C_9  and  N_30
    9  A    between atoms: N_10  and  N_23
   10  A    between atoms: N_10  and  C_36
   11  A    between atoms: C_15  and  C_32
   12  A    between atoms: C_24  and  N_31
   13  A    between atoms: C_24  and  C_41
   14  A    between atoms: C_32  and  C_40
   15  A    between atoms: C_40  and  N_42
                            x       y       z     vdW  Elec       q    Type
                         _______ _______ _______ _____ _____    ______ ____

>  <TORSDO>
F 15

$$$$
