=
 OpenBabel11042412133D

 37 41  0  0  1  0  0  0  0  0999 V2000
  185.8050  178.4760  140.6750 C   0  0  0  0  0  0  0  0  0  0  0  0
  188.3380  177.2700  144.5960 C   0  0  2  0  0  3  0  0  0  0  0  0
  187.9550  177.9590  141.5750 C   0  0  1  0  0  0  0  0  0  0  0  0
  188.9780  176.8350  141.4110 C   0  0  2  0  0  3  0  0  0  0  0  0
  189.8530  176.5510  142.6490 C   0  0  1  0  0  3  0  0  0  0  0  0
  184.3810  178.3740  142.6150 C   0  0  0  0  0  2  0  0  0  0  0  0
  189.8500  177.1490  140.1940 C   0  0  0  0  0  2  0  0  0  0  0  0
  186.8660  177.6220  142.6110 C   0  0  2  0  0  3  0  0  0  0  0  0
  181.9770  179.0320  142.4130 C   0  0  0  0  0  1  0  0  0  0  0  0
  188.5870  179.1610  141.8720 F   0  0  0  0  0  0  0  0  0  0  0  0
  183.3230  178.8370  141.8150 C   0  0  0  0  0  0  0  0  0  0  0  0
  187.1740  178.1580  140.3170 C   0  0  0  0  0  0  0  0  0  0  0  0
  185.6310  178.2240  142.0170 C   0  0  0  0  0  0  0  0  0  0  0  0
  184.8780  179.1440  138.6620 O   0  0  0  0  0  0  0  0  0  0  0  0
  189.6730  177.4720  143.8680 C   0  0  0  0  0  2  0  0  0  0  0  0
  183.5190  179.0910  140.4860 N   0  0  0  0  0  0  0  0  0  0  0  0
  187.2170  178.1260  144.0030 C   0  0  0  0  0  2  0  0  0  0  0  0
  184.7340  178.9130  139.8920 C   0  0  0  0  0  0  0  0  0  0  0  0
  187.6400  177.8740  139.0990 C   0  0  0  0  0  3  0  0  0  0  0  0
  189.0090  177.2670  138.9020 C   0  0  1  0  0  3  0  0  0  0  0  0
  189.7350  175.2120  143.0230 O   0  0  0  0  0  1  0  0  0  0  0  0
  187.3750  177.9660  146.7920 C   0  0  0  0  0  3  0  0  0  0  0  0
  189.8490  177.6840  148.0660 C   0  0  0  0  0  3  0  0  0  0  0  0
  188.4920  177.5530  146.0570 C   0  0  0  0  0  0  0  0  0  0  0  0
  187.4940  178.2360  148.1580 C   0  0  0  0  0  3  0  0  0  0  0  0
  189.7330  177.4120  146.6990 C   0  0  0  0  0  3  0  0  0  0  0  0
  188.7300  178.0950  148.7950 C   0  0  0  0  0  3  0  0  0  0  0  0
  189.7680  178.0370  137.8310 C   0  0  0  0  0  2  0  0  0  0  0  0
  190.8170  177.1890  137.1920 C   0  0  0  0  0  3  0  0  0  0  0  0
  191.8890  176.8030  137.8760 C   0  0  0  0  0  3  0  0  0  0  0  0
  192.9350  175.9710  137.2720 C   0  0  0  0  0  0  0  0  0  0  0  0
  192.8840  175.6600  136.0510 O   0  0  0  0  0  0  0  0  0  0  0  0
  194.0160  175.5200  138.0880 N   0  0  0  0  0  2  0  0  0  0  0  0
  196.3310  174.0110  138.8130 C   0  0  0  0  0  1  0  0  0  0  0  0
  196.1240  175.3320  136.4940 O   0  0  0  0  0  0  0  0  0  0  0  0
  195.2990  174.5360  137.4660 S   0  0  0  0  0  0  0  0  0  0  0  0
  194.7270  173.3270  136.7820 O   0  0  0  0  0  0  0  0  0  0  0  0
  1 13  2  0  0  0  0
  2 24  1  1  0  0  0
  3 10  1  1  0  0  0
  3  8  1  0  0  0  0
  4  7  1  6  0  0  0
  4  3  1  0  0  0  0
  4  5  1  0  0  0  0
  5 21  1  1  0  0  0
  5 15  1  0  0  0  0
  8 17  1  1  0  0  0
 11  9  1  0  0  0  0
 11  6  1  0  0  0  0
 12  1  1  0  0  0  0
 12  3  1  0  0  0  0
 13  8  1  0  0  0  0
 13  6  1  0  0  0  0
 14 18  2  0  0  0  0
 15  2  1  0  0  0  0
 16 11  2  0  0  0  0
 17  2  1  0  0  0  0
 18 16  1  0  0  0  0
 18  1  1  0  0  0  0
 19 12  2  0  0  0  0
 20 28  1  6  0  0  0
 20 19  1  0  0  0  0
 20  7  1  0  0  0  0
 22 25  1  0  0  0  0
 23 27  1  0  0  0  0
 24 26  1  0  0  0  0
 24 22  2  0  0  0  0
 25 27  2  0  0  0  0
 26 23  2  0  0  0  0
 29 28  1  0  0  0  0
 29 30  2  0  0  0  0
 31 30  1  0  0  0  0
 31 33  1  0  0  0  0
 32 31  2  0  0  0  0
 35 36  2  0  0  0  0
 36 33  1  0  0  0  0
 36 34  1  0  0  0  0
 37 36  2  0  0  0  0
M  END
>  <MODEL>
1

>  <REMARK>
 VINA RESULT:     -10.1      0.000      0.000
  Name = 
  5 active torsions:
  status: ('A' for Active; 'I' for Inactive)
    1  A    between atoms: C_3  and  C_20
    2  A    between atoms: C_6  and  C_22
    3  A    between atoms: C_8  and  C_26
    4  A    between atoms: C_26  and  C_34
    5  A    between atoms: S_30  and  N_32
                            x       y       z     vdW  Elec       q    Type
                         _______ _______ _______ _____ _____    ______ ____

>  <TORSDO>
F 5

$$$$
=
 OpenBabel11042412133D

 37 41  0  0  1  0  0  0  0  0999 V2000
  185.9630  178.4960  141.4600 C   0  0  0  0  0  0  0  0  0  0  0  0
  188.5630  177.7840  145.4580 C   0  0  2  0  0  3  0  0  0  0  0  0
  185.9270  178.0990  143.8140 C   0  0  1  0  0  0  0  0  0  0  0  0
  185.5000  178.8800  145.0570 C   0  0  2  0  0  3  0  0  0  0  0  0
  186.2750  178.5440  146.3480 C   0  0  1  0  0  3  0  0  0  0  0  0
  188.3170  178.4640  140.9530 C   0  0  0  0  0  2  0  0  0  0  0  0
  183.9970  178.6770  145.2630 C   0  0  0  0  0  2  0  0  0  0  0  0
  187.3620  178.4360  143.3680 C   0  0  2  0  0  3  0  0  0  0  0  0
  189.0660  178.6110  138.5730 C   0  0  0  0  0  1  0  0  0  0  0  0
  185.7610  176.7340  144.0080 F   0  0  0  0  0  0  0  0  0  0  0  0
  187.9870  178.5660  139.5930 C   0  0  0  0  0  0  0  0  0  0  0  0
  185.1050  178.4910  142.6300 C   0  0  0  0  0  0  0  0  0  0  0  0
  187.2720  178.4050  141.8740 C   0  0  0  0  0  0  0  0  0  0  0  0
  184.4620  178.7090  139.7110 O   0  0  0  0  0  0  0  0  0  0  0  0
  187.3170  177.4150  146.2730 C   0  0  0  0  0  2  0  0  0  0  0  0
  186.6790  178.6450  139.2010 N   0  0  0  0  0  0  0  0  0  0  0  0
  188.3910  177.4880  143.9670 C   0  0  0  0  0  2  0  0  0  0  0  0
  185.6560  178.6210  140.1030 C   0  0  0  0  0  0  0  0  0  0  0  0
  183.8560  178.9540  142.7110 C   0  0  0  0  0  3  0  0  0  0  0  0
  183.1820  179.1690  144.0460 C   0  0  1  0  0  3  0  0  0  0  0  0
  186.8430  179.7020  146.8810 O   0  0  0  0  0  1  0  0  0  0  0  0
  190.7860  176.7020  145.1100 C   0  0  0  0  0  3  0  0  0  0  0  0
  191.0250  176.1180  147.8350 C   0  0  0  0  0  3  0  0  0  0  0  0
  189.7670  177.0760  145.9930 C   0  0  0  0  0  0  0  0  0  0  0  0
  191.9210  176.0400  145.5870 C   0  0  0  0  0  3  0  0  0  0  0  0
  189.8900  176.7810  147.3610 C   0  0  0  0  0  3  0  0  0  0  0  0
  192.0400  175.7470  146.9490 C   0  0  0  0  0  3  0  0  0  0  0  0
  181.7950  178.5410  144.0330 C   0  0  0  0  0  2  0  0  0  0  0  0
  180.8960  179.2270  143.0600 C   0  0  0  0  0  3  0  0  0  0  0  0
  181.0450  179.0470  141.7520 C   0  0  0  0  0  3  0  0  0  0  0  0
  180.1770  179.7110  140.7740 C   0  0  0  0  0  0  0  0  0  0  0  0
  178.9310  179.5200  140.7880 O   0  0  0  0  0  0  0  0  0  0  0  0
  180.7640  180.5800  139.8060 N   0  0  0  0  0  2  0  0  0  0  0  0
  180.9160  182.2360  137.4830 C   0  0  0  0  0  1  0  0  0  0  0  0
  178.9410  182.4280  139.2800 O   0  0  0  0  0  0  0  0  0  0  0  0
  179.8220  181.4100  138.6130 S   0  0  0  0  0  0  0  0  0  0  0  0
  178.9810  180.4250  137.8530 O   0  0  0  0  0  0  0  0  0  0  0  0
  1 13  2  0  0  0  0
  1 12  1  0  0  0  0
  2 24  1  1  0  0  0
  2 15  1  0  0  0  0
  3 10  1  1  0  0  0
  3  4  1  0  0  0  0
  4  7  1  1  0  0  0
  4  5  1  0  0  0  0
  5 21  1  6  0  0  0
  6 13  1  0  0  0  0
  8  3  1  0  0  0  0
  8 17  1  1  0  0  0
  9 11  1  0  0  0  0
 11  6  1  0  0  0  0
 12 19  2  0  0  0  0
 12  3  1  0  0  0  0
 13  8  1  0  0  0  0
 14 18  2  0  0  0  0
 15  5  1  0  0  0  0
 16 11  2  0  0  0  0
 16 18  1  0  0  0  0
 17  2  1  0  0  0  0
 18  1  1  0  0  0  0
 19 20  1  0  0  0  0
 20 28  1  6  0  0  0
 20  7  1  0  0  0  0
 22 25  2  0  0  0  0
 22 24  1  0  0  0  0
 24 26  2  0  0  0  0
 25 27  1  0  0  0  0
 26 23  1  0  0  0  0
 27 23  2  0  0  0  0
 29 28  1  0  0  0  0
 30 29  2  0  0  0  0
 31 32  2  0  0  0  0
 31 30  1  0  0  0  0
 33 31  1  0  0  0  0
 34 36  1  0  0  0  0
 36 35  2  0  0  0  0
 36 33  1  0  0  0  0
 37 36  2  0  0  0  0
M  END
>  <MODEL>
2

>  <REMARK>
 VINA RESULT:      -9.9      5.127      8.641
  Name = 
  5 active torsions:
  status: ('A' for Active; 'I' for Inactive)
    1  A    between atoms: C_3  and  C_20
    2  A    between atoms: C_6  and  C_22
    3  A    between atoms: C_8  and  C_26
    4  A    between atoms: C_26  and  C_34
    5  A    between atoms: S_30  and  N_32
                            x       y       z     vdW  Elec       q    Type
                         _______ _______ _______ _____ _____    ______ ____

>  <TORSDO>
F 5

$$$$
=
 OpenBabel11042412133D

 37 41  0  0  1  0  0  0  0  0999 V2000
  185.4960  178.5980  141.0400 C   0  0  0  0  0  0  0  0  0  0  0  0
  188.4810  177.3470  144.6150 C   0  0  2  0  0  3  0  0  0  0  0  0
  187.7520  178.1580  141.6890 C   0  0  1  0  0  0  0  0  0  0  0  0
  188.8060  177.1000  141.3620 C   0  0  2  0  0  3  0  0  0  0  0  0
  189.8190  176.8060  142.4880 C   0  0  1  0  0  3  0  0  0  0  0  0
  184.2880  178.3250  143.1060 C   0  0  0  0  0  2  0  0  0  0  0  0
  189.5310  177.5190  140.0810 C   0  0  0  0  0  2  0  0  0  0  0  0
  186.7950  177.7120  142.8100 C   0  0  2  0  0  3  0  0  0  0  0  0
  181.8470  178.8590  143.1840 C   0  0  0  0  0  1  0  0  0  0  0  0
  188.3500  179.3760  141.9840 F   0  0  0  0  0  0  0  0  0  0  0  0
  183.1320  178.7670  142.4430 C   0  0  0  0  0  0  0  0  0  0  0  0
  186.8350  178.3730  140.5290 C   0  0  0  0  0  0  0  0  0  0  0  0
  185.4760  178.2730  142.3780 C   0  0  0  0  0  0  0  0  0  0  0  0
  184.3330  179.3080  139.1700 O   0  0  0  0  0  0  0  0  0  0  0  0
  189.7210  177.6570  143.7660 C   0  0  0  0  0  2  0  0  0  0  0  0
  183.1760  179.0940  141.1160 N   0  0  0  0  0  0  0  0  0  0  0  0
  187.2630  178.1670  144.1840 C   0  0  0  0  0  2  0  0  0  0  0  0
  184.3300  179.0120  140.3940 C   0  0  0  0  0  0  0  0  0  0  0  0
  187.1850  178.1730  139.2560 C   0  0  0  0  0  3  0  0  0  0  0  0
  188.5550  177.6530  138.8900 C   0  0  1  0  0  3  0  0  0  0  0  0
  189.8070  175.4460  142.8000 O   0  0  0  0  0  1  0  0  0  0  0  0
  190.0510  177.2870  146.5540 C   0  0  0  0  0  3  0  0  0  0  0  0
  188.0800  178.2470  148.2920 C   0  0  0  0  0  3  0  0  0  0  0  0
  188.7710  177.5680  146.0640 C   0  0  0  0  0  0  0  0  0  0  0  0
  190.3460  177.4860  147.9060 C   0  0  0  0  0  3  0  0  0  0  0  0
  187.7830  178.0490  146.9400 C   0  0  0  0  0  3  0  0  0  0  0  0
  189.3610  177.9650  148.7740 C   0  0  0  0  0  3  0  0  0  0  0  0
  189.1590  178.5140  137.7890 C   0  0  0  0  0  2  0  0  0  0  0  0
  189.8460  177.6780  136.7610 C   0  0  0  0  0  3  0  0  0  0  0  0
  190.5640  176.6170  137.1140 C   0  0  0  0  0  3  0  0  0  0  0  0
  191.2500  175.7810  136.1240 C   0  0  0  0  0  0  0  0  0  0  0  0
  191.1170  176.0060  134.8900 O   0  0  0  0  0  0  0  0  0  0  0  0
  192.0730  174.7070  136.5780 N   0  0  0  0  0  2  0  0  0  0  0  0
  193.8360  172.4640  136.4240 C   0  0  0  0  0  1  0  0  0  0  0  0
  193.8830  174.4750  134.6570 O   0  0  0  0  0  0  0  0  0  0  0  0
  192.9240  173.6670  135.4870 S   0  0  0  0  0  0  0  0  0  0  0  0
  191.9480  172.9570  134.5940 O   0  0  0  0  0  0  0  0  0  0  0  0
  1 13  2  0  0  0  0
  2 24  1  1  0  0  0
  3 10  1  1  0  0  0
  3  8  1  0  0  0  0
  4  7  1  6  0  0  0
  4  3  1  0  0  0  0
  4  5  1  0  0  0  0
  5 21  1  1  0  0  0
  5 15  1  0  0  0  0
  8 17  1  1  0  0  0
 11  6  1  0  0  0  0
 11  9  1  0  0  0  0
 12  1  1  0  0  0  0
 12  3  1  0  0  0  0
 13  8  1  0  0  0  0
 13  6  1  0  0  0  0
 14 18  2  0  0  0  0
 15  2  1  0  0  0  0
 16 11  2  0  0  0  0
 17  2  1  0  0  0  0
 18  1  1  0  0  0  0
 18 16  1  0  0  0  0
 19 12  2  0  0  0  0
 20 28  1  6  0  0  0
 20 19  1  0  0  0  0
 20  7  1  0  0  0  0
 22 25  1  0  0  0  0
 23 27  1  0  0  0  0
 24 22  2  0  0  0  0
 24 26  1  0  0  0  0
 25 27  2  0  0  0  0
 26 23  2  0  0  0  0
 29 30  2  0  0  0  0
 29 28  1  0  0  0  0
 31 33  1  0  0  0  0
 31 30  1  0  0  0  0
 32 31  2  0  0  0  0
 35 36  2  0  0  0  0
 36 34  1  0  0  0  0
 36 33  1  0  0  0  0
 37 36  2  0  0  0  0
M  END
>  <MODEL>
3

>  <REMARK>
 VINA RESULT:      -9.8      1.330      1.611
  Name = 
  5 active torsions:
  status: ('A' for Active; 'I' for Inactive)
    1  A    between atoms: C_3  and  C_20
    2  A    between atoms: C_6  and  C_22
    3  A    between atoms: C_8  and  C_26
    4  A    between atoms: C_26  and  C_34
    5  A    between atoms: S_30  and  N_32
                            x       y       z     vdW  Elec       q    Type
                         _______ _______ _______ _____ _____    ______ ____

>  <TORSDO>
F 5

$$$$
=
 OpenBabel11042412133D

 37 41  0  0  1  0  0  0  0  0999 V2000
  185.6340  178.5130  140.5760 C   0  0  0  0  0  0  0  0  0  0  0  0
  187.6360  178.1860  144.9500 C   0  0  2  0  0  3  0  0  0  0  0  0
  185.2640  178.2560  142.9200 C   0  0  1  0  0  0  0  0  0  0  0  0
  184.6200  179.0840  144.0320 C   0  0  2  0  0  3  0  0  0  0  0  0
  185.2080  178.8690  145.4420 C   0  0  1  0  0  3  0  0  0  0  0  0
  188.0360  178.5830  140.4230 C   0  0  0  0  0  2  0  0  0  0  0  0
  183.1140  178.8100  144.0290 C   0  0  0  0  0  2  0  0  0  0  0  0
  186.7330  178.6450  142.6680 C   0  0  2  0  0  3  0  0  0  0  0  0
  189.1260  178.6290  138.1730 C   0  0  0  0  0  1  0  0  0  0  0  0
  185.1340  176.8970  143.1790 F   0  0  0  0  0  0  0  0  0  0  0  0
  187.9090  178.5850  139.0240 C   0  0  0  0  0  0  0  0  0  0  0  0
  184.6110  178.5300  141.6050 C   0  0  0  0  0  0  0  0  0  0  0  0
  186.8690  178.5200  141.1820 C   0  0  0  0  0  0  0  0  0  0  0  0
  184.4040  178.5380  138.6150 O   0  0  0  0  0  0  0  0  0  0  0  0
  186.3000  177.7970  145.5960 C   0  0  0  0  0  2  0  0  0  0  0  0
  186.6720  178.5670  138.4410 N   0  0  0  0  0  0  0  0  0  0  0  0
  187.7020  177.7930  143.4730 C   0  0  0  0  0  2  0  0  0  0  0  0
  185.5280  178.5400  139.1830 C   0  0  0  0  0  0  0  0  0  0  0  0
  183.3440  178.9260  141.4710 C   0  0  0  0  0  3  0  0  0  0  0  0
  182.4680  179.1820  142.6750 C   0  0  1  0  0  3  0  0  0  0  0  0
  185.6350  180.0870  145.9730 O   0  0  0  0  0  1  0  0  0  0  0  0
  189.9630  177.2860  145.0200 C   0  0  0  0  0  3  0  0  0  0  0  0
  189.7600  176.7320  147.7550 C   0  0  0  0  0  3  0  0  0  0  0  0
  188.7770  177.5800  145.7020 C   0  0  0  0  0  0  0  0  0  0  0  0
  191.0440  176.7200  145.7020 C   0  0  0  0  0  3  0  0  0  0  0  0
  188.6780  177.3000  147.0750 C   0  0  0  0  0  3  0  0  0  0  0  0
  190.9420  176.4420  147.0680 C   0  0  0  0  0  3  0  0  0  0  0  0
  181.1300  178.4780  142.5010 C   0  0  0  0  0  2  0  0  0  0  0  0
  181.0140  177.8550  141.1500 C   0  0  0  0  0  3  0  0  0  0  0  0
  180.1530  176.8680  140.9270 C   0  0  0  0  0  3  0  0  0  0  0  0
  180.0220  176.2370  139.6100 C   0  0  0  0  0  0  0  0  0  0  0  0
  178.9310  176.2890  138.9800 O   0  0  0  0  0  0  0  0  0  0  0  0
  181.1490  175.5650  139.0500 N   0  0  0  0  0  2  0  0  0  0  0  0
  182.6630  174.0300  137.1750 C   0  0  0  0  0  1  0  0  0  0  0  0
  180.8090  175.8130  136.4340 O   0  0  0  0  0  0  0  0  0  0  0  0
  181.0920  174.7930  137.5010 S   0  0  0  0  0  0  0  0  0  0  0  0
  180.0220  173.7380  137.4970 O   0  0  0  0  0  0  0  0  0  0  0  0
  1 13  2  0  0  0  0
  1 12  1  0  0  0  0
  2 15  1  0  0  0  0
  2 24  1  1  0  0  0
  3 10  1  1  0  0  0
  3  4  1  0  0  0  0
  4  7  1  1  0  0  0
  4  5  1  0  0  0  0
  5 15  1  0  0  0  0
  5 21  1  6  0  0  0
  6 13  1  0  0  0  0
  8  3  1  0  0  0  0
  8 17  1  1  0  0  0
  9 11  1  0  0  0  0
 11  6  1  0  0  0  0
 12  3  1  0  0  0  0
 13  8  1  0  0  0  0
 14 18  2  0  0  0  0
 16 11  2  0  0  0  0
 16 18  1  0  0  0  0
 17  2  1  0  0  0  0
 18  1  1  0  0  0  0
 19 12  2  0  0  0  0
 19 20  1  0  0  0  0
 20 28  1  6  0  0  0
 20  7  1  0  0  0  0
 22 24  2  0  0  0  0
 22 25  1  0  0  0  0
 24 26  1  0  0  0  0
 25 27  2  0  0  0  0
 26 23  2  0  0  0  0
 27 23  1  0  0  0  0
 29 28  1  0  0  0  0
 30 29  2  0  0  0  0
 31 30  1  0  0  0  0
 32 31  2  0  0  0  0
 33 31  1  0  0  0  0
 34 36  1  0  0  0  0
 35 36  2  0  0  0  0
 36 33  1  0  0  0  0
 37 36  2  0  0  0  0
M  END
>  <MODEL>
4

>  <REMARK>
 VINA RESULT:      -9.2      4.877      7.778
  Name = 
  5 active torsions:
  status: ('A' for Active; 'I' for Inactive)
    1  A    between atoms: C_3  and  C_20
    2  A    between atoms: C_6  and  C_22
    3  A    between atoms: C_8  and  C_26
    4  A    between atoms: C_26  and  C_34
    5  A    between atoms: S_30  and  N_32
                            x       y       z     vdW  Elec       q    Type
                         _______ _______ _______ _____ _____    ______ ____

>  <TORSDO>
F 5

$$$$
=
 OpenBabel11042412133D

 37 41  0  0  1  0  0  0  0  0999 V2000
  188.7560  177.4260  145.4400 C   0  0  0  0  0  0  0  0  0  0  0  0
  184.7170  178.7140  143.1440 C   0  0  2  0  0  3  0  0  0  0  0  0
  187.6310  177.6100  143.3430 C   0  0  1  0  0  0  0  0  0  0  0  0
  187.8010  178.4390  142.0690 C   0  0  2  0  0  3  0  0  0  0  0  0
  186.5010  178.7350  141.2940 C   0  0  1  0  0  3  0  0  0  0  0  0
  187.0840  178.1720  147.0050 C   0  0  0  0  0  2  0  0  0  0  0  0
  188.8180  177.7350  141.1670 C   0  0  0  0  0  2  0  0  0  0  0  0
  186.8270  178.3510  144.4270 C   0  0  2  0  0  3  0  0  0  0  0  0
  187.5430  178.0290  149.4590 C   0  0  0  0  0  1  0  0  0  0  0  0
  187.0740  176.3700  143.0540 F   0  0  0  0  0  0  0  0  0  0  0  0
  187.9560  177.8180  148.0470 C   0  0  0  0  0  0  0  0  0  0  0  0
  188.9490  177.3710  144.0030 C   0  0  0  0  0  0  0  0  0  0  0  0
  187.5040  177.9390  145.6970 C   0  0  0  0  0  0  0  0  0  0  0  0
  190.7670  176.6370  146.2700 O   0  0  0  0  0  0  0  0  0  0  0  0
  185.2030  178.1020  141.8240 C   0  0  0  0  0  2  0  0  0  0  0  0
  189.1920  177.3000  147.7710 N   0  0  0  0  0  0  0  0  0  0  0  0
  185.3410  178.0340  144.3630 C   0  0  0  0  0  2  0  0  0  0  0  0
  189.6180  177.1030  146.4910 C   0  0  0  0  0  0  0  0  0  0  0  0
  190.1120  177.3300  143.3510 C   0  0  0  0  0  3  0  0  0  0  0  0
  190.1890  177.5800  141.8630 C   0  0  1  0  0  3  0  0  0  0  0  0
  186.3450  180.1120  141.1290 O   0  0  0  0  0  1  0  0  0  0  0  0
  182.4780  178.6210  142.0430 C   0  0  0  0  0  3  0  0  0  0  0  0
  181.1670  178.6100  144.5140 C   0  0  0  0  0  3  0  0  0  0  0  0
  183.2250  178.6630  143.2260 C   0  0  0  0  0  0  0  0  0  0  0  0
  181.0820  178.5720  142.0950 C   0  0  0  0  0  3  0  0  0  0  0  0
  182.5630  178.6580  144.4650 C   0  0  0  0  0  3  0  0  0  0  0  0
  180.4270  178.5670  143.3290 C   0  0  0  0  0  3  0  0  0  0  0  0
  191.0150  176.4880  141.1960 C   0  0  0  0  0  2  0  0  0  0  0  0
  190.6640  176.3480  139.7520 C   0  0  0  0  0  3  0  0  0  0  0  0
  191.5850  176.5170  138.8090 C   0  0  0  0  0  3  0  0  0  0  0  0
  191.2670  176.3870  137.3830 C   0  0  0  0  0  0  0  0  0  0  0  0
  192.1860  176.3390  136.5220 O   0  0  0  0  0  0  0  0  0  0  0  0
  189.8990  176.3130  136.9840 N   0  0  0  0  0  2  0  0  0  0  0  0
  187.6830  175.8080  135.2530 C   0  0  0  0  0  1  0  0  0  0  0  0
  190.1790  175.0260  134.6860 O   0  0  0  0  0  0  0  0  0  0  0  0
  189.4230  176.1560  135.3270 S   0  0  0  0  0  0  0  0  0  0  0  0
  189.7010  177.4380  134.5940 O   0  0  0  0  0  0  0  0  0  0  0  0
  1 13  2  0  0  0  0
  1 18  1  0  0  0  0
  2 24  1  1  0  0  0
  2 17  1  0  0  0  0
  3 10  1  6  0  0  0
  3 12  1  0  0  0  0
  3  8  1  0  0  0  0
  4  7  1  6  0  0  0
  4  3  1  0  0  0  0
  5 21  1  1  0  0  0
  5 15  1  0  0  0  0
  5  4  1  0  0  0  0
  6 11  1  0  0  0  0
  7 20  1  0  0  0  0
  8 17  1  1  0  0  0
  8 13  1  0  0  0  0
 11  9  1  0  0  0  0
 12  1  1  0  0  0  0
 13  6  1  0  0  0  0
 14 18  2  0  0  0  0
 15  2  1  0  0  0  0
 16 11  2  0  0  0  0
 18 16  1  0  0  0  0
 19 12  2  0  0  0  0
 20 28  1  6  0  0  0
 20 19  1  0  0  0  0
 22 25  2  0  0  0  0
 22 24  1  0  0  0  0
 24 26  2  0  0  0  0
 25 27  1  0  0  0  0
 26 23  1  0  0  0  0
 27 23  2  0  0  0  0
 29 28  1  0  0  0  0
 30 29  2  0  0  0  0
 31 30  1  0  0  0  0
 32 31  2  0  0  0  0
 33 31  1  0  0  0  0
 34 36  1  0  0  0  0
 35 36  2  0  0  0  0
 36 33  1  0  0  0  0
 37 36  2  0  0  0  0
M  END
>  <MODEL>
5

>  <REMARK>
 VINA RESULT:      -9.1      2.665      5.995
  Name = 
  5 active torsions:
  status: ('A' for Active; 'I' for Inactive)
    1  A    between atoms: C_3  and  C_20
    2  A    between atoms: C_6  and  C_22
    3  A    between atoms: C_8  and  C_26
    4  A    between atoms: C_26  and  C_34
    5  A    between atoms: S_30  and  N_32
                            x       y       z     vdW  Elec       q    Type
                         _______ _______ _______ _____ _____    ______ ____

>  <TORSDO>
F 5

$$$$
=
 OpenBabel11042412133D

 37 41  0  0  1  0  0  0  0  0999 V2000
  186.9050  178.2830  143.0580 C   0  0  0  0  0  0  0  0  0  0  0  0
  190.6640  176.4660  145.4710 C   0  0  2  0  0  3  0  0  0  0  0  0
  189.1930  177.6050  142.9640 C   0  0  1  0  0  0  0  0  0  0  0  0
  189.9890  176.5030  142.2640 C   0  0  2  0  0  3  0  0  0  0  0  0
  191.2520  176.0240  143.0080 C   0  0  1  0  0  3  0  0  0  0  0  0
  186.3390  177.9120  145.3700 C   0  0  0  0  0  2  0  0  0  0  0  0
  190.3430  176.9830  140.8540 C   0  0  0  0  0  2  0  0  0  0  0  0
  188.5680  177.1330  144.2900 C   0  0  2  0  0  3  0  0  0  0  0  0
  184.0990  178.6280  146.2180 C   0  0  0  0  0  1  0  0  0  0  0  0
  189.9750  178.7390  143.1440 F   0  0  0  0  0  0  0  0  0  0  0  0
  185.0910  178.5050  145.1190 C   0  0  0  0  0  0  0  0  0  0  0  0
  188.0030  178.0010  142.1520 C   0  0  0  0  0  0  0  0  0  0  0  0
  187.2460  177.8350  144.3150 C   0  0  0  0  0  0  0  0  0  0  0  0
  185.3230  179.2570  141.6790 O   0  0  0  0  0  0  0  0  0  0  0  0
  191.6240  176.7550  144.3100 C   0  0  0  0  0  2  0  0  0  0  0  0
  184.7760  178.9520  143.8660 N   0  0  0  0  0  0  0  0  0  0  0  0
  189.4660  177.4170  145.4850 C   0  0  0  0  0  2  0  0  0  0  0  0
  185.6500  178.8480  142.8240 C   0  0  0  0  0  0  0  0  0  0  0  0
  187.9400  177.8960  140.8230 C   0  0  0  0  0  3  0  0  0  0  0  0
  189.0790  177.3060  140.0260 C   0  0  1  0  0  3  0  0  0  0  0  0
  191.1910  174.6460  143.2180 O   0  0  0  0  0  1  0  0  0  0  0  0
  192.4020  175.5940  147.0370 C   0  0  0  0  0  3  0  0  0  0  0  0
  191.7670  177.5270  148.9570 C   0  0  0  0  0  3  0  0  0  0  0  0
  191.3900  176.5240  146.7770 C   0  0  0  0  0  0  0  0  0  0  0  0
  193.0950  175.6290  148.2500 C   0  0  0  0  0  3  0  0  0  0  0  0
  191.0740  177.4940  147.7430 C   0  0  0  0  0  3  0  0  0  0  0  0
  192.7780  176.5950  149.2100 C   0  0  0  0  0  3  0  0  0  0  0  0
  189.4180  178.2160  138.8540 C   0  0  0  0  0  2  0  0  0  0  0  0
  190.0860  177.4610  137.7540 C   0  0  0  0  0  3  0  0  0  0  0  0
  189.9910  176.1370  137.6820 C   0  0  0  0  0  3  0  0  0  0  0  0
  190.6400  175.3710  136.6130 C   0  0  0  0  0  0  0  0  0  0  0  0
  190.4950  175.7030  135.4060 O   0  0  0  0  0  0  0  0  0  0  0  0
  191.4400  174.2420  136.9610 N   0  0  0  0  0  2  0  0  0  0  0  0
  191.0370  172.3610  134.8480 C   0  0  0  0  0  1  0  0  0  0  0  0
  193.1820  172.3130  136.4470 O   0  0  0  0  0  0  0  0  0  0  0  0
  192.2480  173.2760  135.7710 S   0  0  0  0  0  0  0  0  0  0  0  0
  193.0160  174.1620  134.8330 O   0  0  0  0  0  0  0  0  0  0  0  0
  1 13  2  0  0  0  0
  2 17  1  0  0  0  0
  2 24  1  1  0  0  0
  3 10  1  1  0  0  0
  3  8  1  0  0  0  0
  4  7  1  6  0  0  0
  4  3  1  0  0  0  0
  4  5  1  0  0  0  0
  5 21  1  1  0  0  0
  5 15  1  0  0  0  0
  8 13  1  0  0  0  0
  8 17  1  1  0  0  0
 11  6  1  0  0  0  0
 11  9  1  0  0  0  0
 12  3  1  0  0  0  0
 12  1  1  0  0  0  0
 13  6  1  0  0  0  0
 14 18  2  0  0  0  0
 15  2  1  0  0  0  0
 16 11  2  0  0  0  0
 18  1  1  0  0  0  0
 18 16  1  0  0  0  0
 19 12  2  0  0  0  0
 20 28  1  6  0  0  0
 20 19  1  0  0  0  0
 20  7  1  0  0  0  0
 22 25  1  0  0  0  0
 23 27  1  0  0  0  0
 24 22  2  0  0  0  0
 24 26  1  0  0  0  0
 25 27  2  0  0  0  0
 26 23  2  0  0  0  0
 29 28  1  0  0  0  0
 30 29  2  0  0  0  0
 31 33  1  0  0  0  0
 31 30  1  0  0  0  0
 32 31  2  0  0  0  0
 34 36  1  0  0  0  0
 36 35  2  0  0  0  0
 36 33  1  0  0  0  0
 37 36  2  0  0  0  0
M  END
>  <MODEL>
6

>  <REMARK>
 VINA RESULT:      -8.5      2.291      3.113
  Name = 
  5 active torsions:
  status: ('A' for Active; 'I' for Inactive)
    1  A    between atoms: C_3  and  C_20
    2  A    between atoms: C_6  and  C_22
    3  A    between atoms: C_8  and  C_26
    4  A    between atoms: C_26  and  C_34
    5  A    between atoms: S_30  and  N_32
                            x       y       z     vdW  Elec       q    Type
                         _______ _______ _______ _____ _____    ______ ____

>  <TORSDO>
F 5

$$$$
=
 OpenBabel11042412133D

 37 41  0  0  1  0  0  0  0  0999 V2000
  186.9020  178.3370  140.2400 C   0  0  0  0  0  0  0  0  0  0  0  0
  182.4460  178.8620  138.4750 C   0  0  2  0  0  3  0  0  0  0  0  0
  184.6030  178.7520  140.7310 C   0  0  1  0  0  0  0  0  0  0  0  0
  183.4830  178.0170  141.4680 C   0  0  2  0  0  3  0  0  0  0  0  0
  182.0560  178.2970  140.9520 C   0  0  1  0  0  3  0  0  0  0  0  0
  186.9100  178.1720  137.8370 C   0  0  0  0  0  2  0  0  0  0  0  0
  183.5900  178.3440  142.9590 C   0  0  0  0  0  2  0  0  0  0  0  0
  184.7450  178.2950  139.2660 C   0  0  2  0  0  3  0  0  0  0  0  0
  189.0850  177.9480  136.6260 C   0  0  0  0  0  1  0  0  0  0  0  0
  184.4330  180.1280  140.8210 F   0  0  0  0  0  0  0  0  0  0  0  0
  188.3110  178.0880  137.8860 C   0  0  0  0  0  0  0  0  0  0  0  0
  185.9350  178.4200  141.3180 C   0  0  0  0  0  0  0  0  0  0  0  0
  186.2250  178.3230  139.0420 C   0  0  0  0  0  0  0  0  0  0  0  0
  188.9260  178.2360  141.3580 O   0  0  0  0  0  0  0  0  0  0  0  0
  181.9030  179.3370  139.8290 C   0  0  0  0  0  2  0  0  0  0  0  0
  188.9650  178.1140  139.0870 N   0  0  0  0  0  0  0  0  0  0  0  0
  183.9370  179.1600  138.3100 C   0  0  0  0  0  2  0  0  0  0  0  0
  188.2940  178.2280  140.2680 C   0  0  0  0  0  0  0  0  0  0  0  0
  186.1190  178.0620  142.5910 C   0  0  0  0  0  3  0  0  0  0  0  0
  184.9550  177.9130  143.5420 C   0  0  1  0  0  3  0  0  0  0  0  0
  181.4290  177.1010  140.6030 O   0  0  0  0  0  1  0  0  0  0  0  0
  181.1770  180.7750  137.4960 C   0  0  0  0  0  3  0  0  0  0  0  0
  180.6840  179.3550  135.1370 C   0  0  0  0  0  3  0  0  0  0  0  0
  181.6660  179.4720  137.3550 C   0  0  0  0  0  0  0  0  0  0  0  0
  180.4450  181.3670  136.4620 C   0  0  0  0  0  3  0  0  0  0  0  0
  181.4170  178.7610  136.1690 C   0  0  0  0  0  3  0  0  0  0  0  0
  180.1990  180.6570  135.2830 C   0  0  0  0  0  3  0  0  0  0  0  0
  185.2480  178.6520  144.8400 C   0  0  0  0  0  2  0  0  0  0  0  0
  186.7030  178.6170  145.1700 C   0  0  0  0  0  3  0  0  0  0  0  0
  187.2720  177.5040  145.6210 C   0  0  0  0  0  3  0  0  0  0  0  0
  188.6980  177.4420  145.9540 C   0  0  0  0  0  0  0  0  0  0  0  0
  189.1200  177.8830  147.0580 O   0  0  0  0  0  0  0  0  0  0  0  0
  189.6040  176.8720  145.0100 N   0  0  0  0  0  2  0  0  0  0  0  0
  191.5600  176.2520  146.9990 C   0  0  0  0  0  1  0  0  0  0  0  0
  191.9560  178.0900  145.0940 O   0  0  0  0  0  0  0  0  0  0  0  0
  191.3050  176.7530  145.3140 S   0  0  0  0  0  0  0  0  0  0  0  0
  191.9150  175.7300  144.3980 O   0  0  0  0  0  0  0  0  0  0  0  0
  1 18  1  0  0  0  0
  1 12  1  0  0  0  0
  2 24  1  6  0  0  0
  2 15  1  0  0  0  0
  3 10  1  1  0  0  0
  3 12  1  0  0  0  0
  3  4  1  0  0  0  0
  4  7  1  1  0  0  0
  5 21  1  6  0  0  0
  5  4  1  0  0  0  0
  6 11  1  0  0  0  0
  6 13  1  0  0  0  0
  7 20  1  0  0  0  0
  8 17  1  6  0  0  0
  8  3  1  0  0  0  0
  9 11  1  0  0  0  0
 11 16  2  0  0  0  0
 12 19  2  0  0  0  0
 13  8  1  0  0  0  0
 13  1  2  0  0  0  0
 15  5  1  0  0  0  0
 16 18  1  0  0  0  0
 17  2  1  0  0  0  0
 18 14  2  0  0  0  0
 19 20  1  0  0  0  0
 20 28  1  1  0  0  0
 23 27  2  0  0  0  0
 23 26  1  0  0  0  0
 24 22  1  0  0  0  0
 25 22  2  0  0  0  0
 26 24  2  0  0  0  0
 27 25  1  0  0  0  0
 28 29  1  0  0  0  0
 29 30  2  0  0  0  0
 30 31  1  0  0  0  0
 31 32  2  0  0  0  0
 33 36  1  0  0  0  0
 33 31  1  0  0  0  0
 35 36  2  0  0  0  0
 36 34  1  0  0  0  0
 37 36  2  0  0  0  0
M  END
>  <MODEL>
7

>  <REMARK>
 VINA RESULT:      -8.3      3.925      8.705
  Name = 
  5 active torsions:
  status: ('A' for Active; 'I' for Inactive)
    1  A    between atoms: C_3  and  C_20
    2  A    between atoms: C_6  and  C_22
    3  A    between atoms: C_8  and  C_26
    4  A    between atoms: C_26  and  C_34
    5  A    between atoms: S_30  and  N_32
                            x       y       z     vdW  Elec       q    Type
                         _______ _______ _______ _____ _____    ______ ____

>  <TORSDO>
F 5

$$$$
=
 OpenBabel11042412133D

 37 41  0  0  1  0  0  0  0  0999 V2000
  188.8700  177.4580  145.3640 C   0  0  0  0  0  0  0  0  0  0  0  0
  184.7560  178.7750  143.2210 C   0  0  2  0  0  3  0  0  0  0  0  0
  187.6510  177.6080  143.3160 C   0  0  1  0  0  0  0  0  0  0  0  0
  187.7790  178.3950  142.0120 C   0  0  2  0  0  3  0  0  0  0  0  0
  186.4510  178.7000  141.2900 C   0  0  1  0  0  3  0  0  0  0  0  0
  187.2920  178.2890  146.9820 C   0  0  0  0  0  2  0  0  0  0  0  0
  188.7360  177.6420  141.0850 C   0  0  0  0  0  2  0  0  0  0  0  0
  186.9170  178.4000  144.4150 C   0  0  2  0  0  3  0  0  0  0  0  0
  187.8640  178.2060  149.4140 C   0  0  0  0  0  1  0  0  0  0  0  0
  187.0530  176.3740  143.0910 F   0  0  0  0  0  0  0  0  0  0  0  0
  188.2050  177.9450  147.9920 C   0  0  0  0  0  0  0  0  0  0  0  0
  188.9940  177.3570  143.9210 C   0  0  0  0  0  0  0  0  0  0  0  0
  187.6450  178.0080  145.6630 C   0  0  0  0  0  0  0  0  0  0  0  0
  190.9010  176.6460  146.1210 O   0  0  0  0  0  0  0  0  0  0  0  0
  185.1650  178.1140  141.8980 C   0  0  0  0  0  2  0  0  0  0  0  0
  189.4140  177.3900  147.6740 N   0  0  0  0  0  0  0  0  0  0  0  0
  185.4220  178.1150  144.4300 C   0  0  0  0  0  2  0  0  0  0  0  0
  189.7740  177.1460  146.3810 C   0  0  0  0  0  0  0  0  0  0  0  0
  190.1240  177.2700  143.2170 C   0  0  0  0  0  3  0  0  0  0  0  0
  190.1350  177.4740  141.7200 C   0  0  1  0  0  3  0  0  0  0  0  0
  186.3180  180.0750  141.0910 O   0  0  0  0  0  1  0  0  0  0  0  0
  182.4650  178.8140  142.2300 C   0  0  0  0  0  3  0  0  0  0  0  0
  181.2750  178.6890  144.7590 C   0  0  0  0  0  3  0  0  0  0  0  0
  183.2690  178.7620  143.3740 C   0  0  0  0  0  0  0  0  0  0  0  0
  181.0730  178.8020  142.3480 C   0  0  0  0  0  3  0  0  0  0  0  0
  182.6680  178.6990  144.6420 C   0  0  0  0  0  3  0  0  0  0  0  0
  180.4780  178.7400  143.6120 C   0  0  0  0  0  3  0  0  0  0  0  0
  190.9030  176.3450  141.0480 C   0  0  0  0  0  2  0  0  0  0  0  0
  191.4230  176.7610  139.7120 C   0  0  0  0  0  3  0  0  0  0  0  0
  191.6980  175.8570  138.7770 C   0  0  0  0  0  3  0  0  0  0  0  0
  192.2110  176.2380  137.4580 C   0  0  0  0  0  0  0  0  0  0  0  0
  191.4420  176.7320  136.5880 O   0  0  0  0  0  0  0  0  0  0  0  0
  193.5950  176.0450  137.1720 N   0  0  0  0  0  2  0  0  0  0  0  0
  194.9600  175.0020  134.8890 C   0  0  0  0  0  1  0  0  0  0  0  0
  195.4020  177.4610  135.8500 O   0  0  0  0  0  0  0  0  0  0  0  0
  194.2940  176.4660  135.6450 S   0  0  0  0  0  0  0  0  0  0  0  0
  193.2410  177.0490  134.7460 O   0  0  0  0  0  0  0  0  0  0  0  0
  1 13  2  0  0  0  0
  1 18  1  0  0  0  0
  2 24  1  1  0  0  0
  2 17  1  0  0  0  0
  3 10  1  6  0  0  0
  3 12  1  0  0  0  0
  3  8  1  0  0  0  0
  4  7  1  6  0  0  0
  4  3  1  0  0  0  0
  5 21  1  1  0  0  0
  5 15  1  0  0  0  0
  5  4  1  0  0  0  0
  6 11  1  0  0  0  0
  7 20  1  0  0  0  0
  8 17  1  1  0  0  0
  8 13  1  0  0  0  0
 11  9  1  0  0  0  0
 12  1  1  0  0  0  0
 13  6  1  0  0  0  0
 14 18  2  0  0  0  0
 15  2  1  0  0  0  0
 16 11  2  0  0  0  0
 18 16  1  0  0  0  0
 19 12  2  0  0  0  0
 20 28  1  6  0  0  0
 20 19  1  0  0  0  0
 22 25  2  0  0  0  0
 22 24  1  0  0  0  0
 24 26  2  0  0  0  0
 25 27  1  0  0  0  0
 26 23  1  0  0  0  0
 27 23  2  0  0  0  0
 29 28  1  0  0  0  0
 30 29  2  0  0  0  0
 31 30  1  0  0  0  0
 32 31  2  0  0  0  0
 33 31  1  0  0  0  0
 34 36  1  0  0  0  0
 36 35  2  0  0  0  0
 36 33  1  0  0  0  0
 37 36  2  0  0  0  0
M  END
>  <MODEL>
8

>  <REMARK>
 VINA RESULT:      -8.3      2.450      5.535
  Name = 
  5 active torsions:
  status: ('A' for Active; 'I' for Inactive)
    1  A    between atoms: C_3  and  C_20
    2  A    between atoms: C_6  and  C_22
    3  A    between atoms: C_8  and  C_26
    4  A    between atoms: C_26  and  C_34
    5  A    between atoms: S_30  and  N_32
                            x       y       z     vdW  Elec       q    Type
                         _______ _______ _______ _____ _____    ______ ____

>  <TORSDO>
F 5

$$$$
=
 OpenBabel11042412133D

 37 41  0  0  1  0  0  0  0  0999 V2000
  189.3220  177.0560  141.1650 C   0  0  0  0  0  0  0  0  0  0  0  0
  185.6900  178.7820  138.5050 C   0  0  2  0  0  3  0  0  0  0  0  0
  188.4060  177.3160  138.9760 C   0  0  1  0  0  0  0  0  0  0  0  0
  188.7880  178.0720  137.7030 C   0  0  2  0  0  3  0  0  0  0  0  0
  187.6060  178.5100  136.8140 C   0  0  1  0  0  3  0  0  0  0  0  0
  187.6420  178.0660  142.5650 C   0  0  0  0  0  2  0  0  0  0  0  0
  189.7720  177.2120  136.9070 C   0  0  0  0  0  2  0  0  0  0  0  0
  187.6220  178.1910  139.9710 C   0  0  2  0  0  3  0  0  0  0  0  0
  187.8770  177.9460  145.0510 C   0  0  0  0  0  1  0  0  0  0  0  0
  187.7150  176.1500  138.6680 F   0  0  0  0  0  0  0  0  0  0  0  0
  188.3720  177.6360  143.6850 C   0  0  0  0  0  0  0  0  0  0  0  0
  189.6220  176.9290  139.7510 C   0  0  0  0  0  0  0  0  0  0  0  0
  188.1330  177.7360  141.3030 C   0  0  0  0  0  0  0  0  0  0  0  0
  191.1370  176.0400  142.1800 O   0  0  0  0  0  0  0  0  0  0  0  0
  186.1960  178.0690  137.2450 C   0  0  0  0  0  2  0  0  0  0  0  0
  189.5460  176.9530  143.5260 N   0  0  0  0  0  0  0  0  0  0  0  0
  186.1170  178.0670  139.7880 C   0  0  0  0  0  2  0  0  0  0  0  0
  190.0460  176.6590  142.2920 C   0  0  0  0  0  0  0  0  0  0  0  0
  190.8190  176.7150  139.2010 C   0  0  0  0  0  3  0  0  0  0  0  0
  191.0500  176.9030  137.7200 C   0  0  1  0  0  3  0  0  0  0  0  0
  187.6470  179.8890  136.6060 O   0  0  0  0  0  1  0  0  0  0  0  0
  183.4400  177.9530  137.8090 C   0  0  0  0  0  3  0  0  0  0  0  0
  182.1680  180.1400  139.0030 C   0  0  0  0  0  3  0  0  0  0  0  0
  184.2030  178.9290  138.4610 C   0  0  0  0  0  0  0  0  0  0  0  0
  182.0480  178.0680  137.7560 C   0  0  0  0  0  3  0  0  0  0  0  0
  183.5610  180.0260  139.0590 C   0  0  0  0  0  3  0  0  0  0  0  0
  181.4130  179.1610  138.3520 C   0  0  0  0  0  3  0  0  0  0  0  0
  191.7750  175.6920  137.1500 C   0  0  0  0  0  2  0  0  0  0  0  0
  193.2190  175.6970  137.5260 C   0  0  0  0  0  3  0  0  0  0  0  0
  193.8860  174.5580  137.6790 C   0  0  0  0  0  3  0  0  0  0  0  0
  195.3050  174.5350  138.0490 C   0  0  0  0  0  0  0  0  0  0  0  0
  195.6550  174.2800  139.2340 O   0  0  0  0  0  0  0  0  0  0  0  0
  196.2850  174.8030  137.0480 N   0  0  0  0  0  2  0  0  0  0  0  0
  198.5200  173.1190  137.6250 C   0  0  0  0  0  1  0  0  0  0  0  0
  198.2550  175.5820  138.6390 O   0  0  0  0  0  0  0  0  0  0  0  0
  197.9830  174.7960  137.3870 S   0  0  0  0  0  0  0  0  0  0  0  0
  198.7350  175.3950  136.2340 O   0  0  0  0  0  0  0  0  0  0  0  0
  1 13  2  0  0  0  0
  1 18  1  0  0  0  0
  2 24  1  6  0  0  0
  2 17  1  0  0  0  0
  3 10  1  6  0  0  0
  3 12  1  0  0  0  0
  3  8  1  0  0  0  0
  4  7  1  6  0  0  0
  4  3  1  0  0  0  0
  5 21  1  1  0  0  0
  5 15  1  0  0  0  0
  5  4  1  0  0  0  0
  6 11  1  0  0  0  0
  7 20  1  0  0  0  0
  8 17  1  1  0  0  0
  8 13  1  0  0  0  0
 11  9  1  0  0  0  0
 12  1  1  0  0  0  0
 13  6  1  0  0  0  0
 14 18  2  0  0  0  0
 15  2  1  0  0  0  0
 16 11  2  0  0  0  0
 18 16  1  0  0  0  0
 19 12  2  0  0  0  0
 20 28  1  6  0  0  0
 20 19  1  0  0  0  0
 22 24  1  0  0  0  0
 23 26  1  0  0  0  0
 24 26  2  0  0  0  0
 25 22  2  0  0  0  0
 25 27  1  0  0  0  0
 27 23  2  0  0  0  0
 28 29  1  0  0  0  0
 29 30  2  0  0  0  0
 30 31  1  0  0  0  0
 31 32  2  0  0  0  0
 33 36  1  0  0  0  0
 33 31  1  0  0  0  0
 36 34  1  0  0  0  0
 36 35  2  0  0  0  0
 37 36  2  0  0  0  0
M  END
>  <MODEL>
9

>  <REMARK>
 VINA RESULT:      -7.9      2.523      6.166
  Name = 
  5 active torsions:
  status: ('A' for Active; 'I' for Inactive)
    1  A    between atoms: C_3  and  C_20
    2  A    between atoms: C_6  and  C_22
    3  A    between atoms: C_8  and  C_26
    4  A    between atoms: C_26  and  C_34
    5  A    between atoms: S_30  and  N_32
                            x       y       z     vdW  Elec       q    Type
                         _______ _______ _______ _____ _____    ______ ____

>  <TORSDO>
F 5

$$$$
