=
 OpenBabel11042412343D

 41 49  0  0  1  0  0  0  0  0999 V2000
  188.1820  178.2270  140.3680 C   0  0  0  0  0  0  0  0  0  0  0  0
  188.3820  178.3080  141.6850 C   0  0  0  0  0  3  0  0  0  0  0  0
  185.2930  178.6010  141.4330 C   0  0  0  0  0  0  0  0  0  0  0  0
  187.1810  177.8800  138.2020 C   0  0  1  0  0  3  0  0  0  0  0  0
  189.3190  178.5590  136.8110 C   0  0  0  0  0  2  0  0  0  0  0  0
  185.8400  178.9170  140.0890 C   0  0  1  0  0  3  0  0  0  0  0  0
  183.9750  178.6050  141.4580 C   0  0  0  0  0  2  0  0  0  0  0  0
  186.8840  177.8760  139.7060 C   0  0  2  0  0  3  0  0  0  0  0  0
  183.4080  178.9240  140.1250 C   0  0  0  0  0  2  0  0  0  0  0  0
  189.2950  178.4950  139.4260 C   0  0  0  0  0  2  0  0  0  0  0  0
  186.0650  178.2710  142.6400 C   0  0  0  0  0  3  0  0  0  0  0  0
  188.6320  179.6180  137.4350 O   0  0  0  0  0  0  0  0  0  0  0  0
  184.6040  178.8670  139.1890 C   0  0  0  0  0  2  0  0  0  0  0  0
  187.3980  178.1330  142.7820 C   0  0  2  0  0  3  0  0  0  0  0  0
  188.6080  178.3760  138.0940 C   0  0  2  0  0  0  0  0  0  0  0  0
  189.0560  177.0180  146.6940 C   0  0  2  0  0  3  0  0  0  0  0  0
  188.3330  178.0280  148.6620 C   0  0  0  0  0  2  0  0  0  0  0  0
  187.9430  177.8370  144.1360 C   0  0  0  0  0  0  0  0  0  0  0  0
  187.6890  177.4650  146.4930 N   0  0  0  0  0  0  0  0  0  0  0  0
  187.1430  177.7610  145.2060 C   0  0  0  0  0  3  0  0  0  0  0  0
  189.4020  177.6600  144.3260 C   0  0  0  0  0  3  0  0  0  0  0  0
  187.1750  178.0820  147.6840 C   0  0  0  0  0  2  0  0  0  0  0  0
  189.5340  177.6760  147.9060 N   0  0  0  0  0  2  0  0  0  0  0  0
  189.9430  177.3250  145.5020 C   0  0  0  0  0  0  0  0  0  0  0  0
  191.3540  177.0990  145.5510 N   0  0  0  0  0  2  0  0  0  0  0  0
  191.9610  175.9660  146.2310 C   0  0  0  0  0  1  0  0  0  0  0  0
  187.0920  176.4570  137.6700 C   0  0  0  0  0  2  0  0  0  0  0  0
  186.7770  176.4590  136.1800 C   0  0  0  0  0  2  0  0  0  0  0  0
  185.4890  177.2150  135.8880 C   0  0  0  0  0  2  0  0  0  0  0  0
  181.5470  175.5240  139.4970 C   0  0  0  0  0  2  0  0  0  0  0  0
  182.8220  175.7690  138.9500 O   0  0  0  0  0  0  0  0  0  0  0  0
  181.0070  177.3890  137.8680 C   0  0  0  0  0  2  0  0  0  0  0  0
  181.6980  176.4550  136.8730 C   0  0  1  0  0  3  0  0  0  0  0  0
  184.3080  176.2660  135.8720 C   0  0  1  0  0  3  0  0  0  0  0  0
  180.5760  176.6510  139.1400 C   0  0  0  0  0  2  0  0  0  0  0  0
  183.1790  176.8610  136.7390 C   0  0  2  0  0  0  0  0  0  0  0  0
  183.1660  176.9040  135.2020 C   0  0  0  0  0  2  0  0  0  0  0  0
  182.7250  175.6090  137.5480 C   0  0  1  0  0  0  0  0  0  0  0  0
  182.7860  174.1970  137.0190 C   0  0  0  0  0  0  0  0  0  0  0  0
  183.6970  173.4190  137.4070 O   0  0  0  0  0  1  0  0  0  0  0  0
  181.8160  173.7330  136.1380 O   0  0  0  0  0  0  0  0  0  0  0  0
  1  2  2  0  0  0  0
  2 14  1  0  0  0  0
  3  7  1  0  0  0  0
  3 11  2  0  0  0  0
  4 27  1  1  0  0  0
  4  8  1  0  0  0  0
  5 12  1  0  0  0  0
  6 13  1  6  0  0  0
  6  3  1  0  0  0  0
  8  6  1  0  0  0  0
  8  1  1  1  0  0  0
  9  7  1  0  0  0  0
 10  1  1  0  0  0  0
 11 14  1  0  0  0  0
 12 15  1  0  0  0  0
 13  9  1  0  0  0  0
 14 18  1  1  0  0  0
 15  5  1  6  0  0  0
 15  4  1  0  0  0  0
 15 10  1  0  0  0  0
 16 24  1  6  0  0  0
 16 23  1  0  0  0  0
 18 21  1  0  0  0  0
 18 20  2  0  0  0  0
 19 16  1  0  0  0  0
 19 22  1  0  0  0  0
 20 19  1  0  0  0  0
 21 24  2  0  0  0  0
 22 17  1  0  0  0  0
 23 17  1  0  0  0  0
 24 25  1  0  0  0  0
 25 26  1  0  0  0  0
 28 27  1  0  0  0  0
 29 28  1  0  0  0  0
 31 30  1  0  0  0  0
 32 35  1  0  0  0  0
 33 38  1  0  0  0  0
 33 32  1  1  0  0  0
 34 29  1  1  0  0  0
 34 36  1  0  0  0  0
 35 30  1  0  0  0  0
 36 37  1  6  0  0  0
 36 33  1  0  0  0  0
 36 38  1  0  0  0  0
 37 34  1  0  0  0  0
 38 39  1  6  0  0  0
 38 31  1  0  0  0  0
 39 40  1  0  0  0  0
 41 39  2  0  0  0  0
M  END
>  <MODEL>
1

>  <REMARK>
 VINA RESULT:      -8.8      0.000      0.000
  Name = 
  7 active torsions:
  status: ('A' for Active; 'I' for Inactive)
    1  A    between atoms: C_7  and  C_30
    2  A    between atoms: C_8  and  C_32
    3  A    between atoms: C_12  and  C_17
    4  A    between atoms: C_12  and  C_32
    5  A    between atoms: N_15  and  C_41
    6  A    between atoms: C_17  and  C_25
    7  A    between atoms: C_24  and  C_35
                            x       y       z     vdW  Elec       q    Type
                         _______ _______ _______ _____ _____    ______ ____

>  <TORSDO>
F 7

$$$$
=
 OpenBabel11042412343D

 41 49  0  0  1  0  0  0  0  0999 V2000
  185.2620  178.4330  141.6720 C   0  0  0  0  0  0  0  0  0  0  0  0
  186.0510  178.4660  142.7470 C   0  0  0  0  0  3  0  0  0  0  0  0
  183.1970  178.6810  143.9740 C   0  0  0  0  0  0  0  0  0  0  0  0
  183.3700  178.1450  140.2040 C   0  0  1  0  0  3  0  0  0  0  0  0
  184.6100  178.9410  138.0150 C   0  0  0  0  0  2  0  0  0  0  0  0
  183.0540  179.0660  142.5470 C   0  0  1  0  0  3  0  0  0  0  0  0
  182.0420  178.6460  144.6080 C   0  0  0  0  0  2  0  0  0  0  0  0
  183.8070  178.0720  141.6720 C   0  0  2  0  0  3  0  0  0  0  0  0
  180.9180  179.0020  143.7080 C   0  0  0  0  0  2  0  0  0  0  0  0
  185.8070  178.7700  140.3350 C   0  0  0  0  0  2  0  0  0  0  0  0
  184.4450  178.3250  144.6670 C   0  0  0  0  0  3  0  0  0  0  0  0
  184.2860  179.9530  138.9380 O   0  0  0  0  0  0  0  0  0  0  0  0
  181.5420  179.0170  142.3220 C   0  0  0  0  0  2  0  0  0  0  0  0
  185.6910  178.2200  144.1660 C   0  0  2  0  0  3  0  0  0  0  0  0
  184.5800  178.6860  139.4710 C   0  0  2  0  0  0  0  0  0  0  0  0
  188.9590  176.9850  146.8300 C   0  0  2  0  0  3  0  0  0  0  0  0
  189.4040  178.1060  148.8200 C   0  0  0  0  0  2  0  0  0  0  0  0
  186.8050  177.8850  145.0960 C   0  0  0  0  0  0  0  0  0  0  0  0
  187.7200  177.5850  147.2930 N   0  0  0  0  0  0  0  0  0  0  0  0
  186.6380  177.9210  146.4230 C   0  0  0  0  0  3  0  0  0  0  0  0
  188.1430  177.5420  144.5580 C   0  0  0  0  0  3  0  0  0  0  0  0
  187.9250  178.2770  148.5360 C   0  0  0  0  0  2  0  0  0  0  0  0
  190.0340  177.6030  147.6000 N   0  0  0  0  0  2  0  0  0  0  0  0
  189.1620  177.1660  145.3380 C   0  0  0  0  0  0  0  0  0  0  0  0
  190.3840  176.7780  144.7040 N   0  0  0  0  0  2  0  0  0  0  0  0
  191.3120  177.7230  144.1060 C   0  0  0  0  0  1  0  0  0  0  0  0
  183.0530  176.7430  139.7060 C   0  0  0  0  0  2  0  0  0  0  0  0
  181.5570  176.4710  139.7810 C   0  0  0  0  0  2  0  0  0  0  0  0
  181.1450  175.3680  138.8160 C   0  0  0  0  0  2  0  0  0  0  0  0
  185.2670  172.1840  136.7430 C   0  0  0  0  0  2  0  0  0  0  0  0
  184.5520  173.0040  137.6380 O   0  0  0  0  0  0  0  0  0  0  0  0
  182.8970  171.8240  135.9170 C   0  0  0  0  0  2  0  0  0  0  0  0
  182.8970  173.3520  135.8520 C   0  0  1  0  0  3  0  0  0  0  0  0
  182.0380  175.3730  137.5910 C   0  0  1  0  0  3  0  0  0  0  0  0
  184.3200  171.2550  135.9810 C   0  0  0  0  0  2  0  0  0  0  0  0
  182.2850  173.9150  137.1490 C   0  0  2  0  0  0  0  0  0  0  0  0
  181.2970  174.8530  136.4340 C   0  0  0  0  0  2  0  0  0  0  0  0
  183.8170  173.9370  136.8700 C   0  0  1  0  0  0  0  0  0  0  0  0
  184.5660  175.1520  136.3770 C   0  0  0  0  0  0  0  0  0  0  0  0
  185.3600  175.7560  137.1470 O   0  0  0  0  0  1  0  0  0  0  0  0
  184.4190  175.5850  135.0650 O   0  0  0  0  0  0  0  0  0  0  0  0
  1  2  2  0  0  0  0
  2 14  1  0  0  0  0
  3  7  1  0  0  0  0
  3 11  2  0  0  0  0
  4 27  1  6  0  0  0
  4  8  1  0  0  0  0
  5 12  1  0  0  0  0
  6 13  1  6  0  0  0
  6  3  1  0  0  0  0
  8  1  1  6  0  0  0
  8  6  1  0  0  0  0
  9  7  1  0  0  0  0
 10  1  1  0  0  0  0
 12 15  1  0  0  0  0
 13  9  1  0  0  0  0
 14 11  1  0  0  0  0
 14 18  1  1  0  0  0
 15  5  1  6  0  0  0
 15  4  1  0  0  0  0
 15 10  1  0  0  0  0
 16 24  1  6  0  0  0
 16 19  1  0  0  0  0
 16 23  1  0  0  0  0
 18 20  2  0  0  0  0
 19 22  1  0  0  0  0
 20 19  1  0  0  0  0
 21 18  1  0  0  0  0
 21 24  2  0  0  0  0
 22 17  1  0  0  0  0
 23 17  1  0  0  0  0
 25 24  1  0  0  0  0
 26 25  1  0  0  0  0
 27 28  1  0  0  0  0
 29 28  1  0  0  0  0
 30 31  1  0  0  0  0
 32 35  1  0  0  0  0
 33 32  1  1  0  0  0
 33 38  1  0  0  0  0
 33 36  1  0  0  0  0
 34 29  1  1  0  0  0
 35 30  1  0  0  0  0
 36 37  1  6  0  0  0
 36 34  1  0  0  0  0
 37 34  1  0  0  0  0
 38 39  1  6  0  0  0
 38 36  1  0  0  0  0
 38 31  1  0  0  0  0
 39 40  1  0  0  0  0
 41 39  2  0  0  0  0
M  END
>  <MODEL>
2

>  <REMARK>
 VINA RESULT:      -8.7      2.070      3.593
  Name = 
  7 active torsions:
  status: ('A' for Active; 'I' for Inactive)
    1  A    between atoms: C_7  and  C_30
    2  A    between atoms: C_8  and  C_32
    3  A    between atoms: C_12  and  C_17
    4  A    between atoms: C_12  and  C_32
    5  A    between atoms: N_15  and  C_41
    6  A    between atoms: C_17  and  C_25
    7  A    between atoms: C_24  and  C_35
                            x       y       z     vdW  Elec       q    Type
                         _______ _______ _______ _____ _____    ______ ____

>  <TORSDO>
F 7

$$$$
=
 OpenBabel11042412343D

 41 49  0  0  1  0  0  0  0  0999 V2000
  184.0160  178.8810  140.4760 C   0  0  0  0  0  0  0  0  0  0  0  0
  185.1540  178.8960  141.1720 C   0  0  0  0  0  3  0  0  0  0  0  0
  182.9840  178.6730  143.3940 C   0  0  0  0  0  0  0  0  0  0  0  0
  181.7290  178.5310  139.7970 C   0  0  1  0  0  3  0  0  0  0  0  0
  181.9780  179.6690  137.4290 C   0  0  0  0  0  2  0  0  0  0  0  0
  182.2780  179.1780  142.1880 C   0  0  1  0  0  3  0  0  0  0  0  0
  182.1660  178.4490  144.4020 C   0  0  0  0  0  2  0  0  0  0  0  0
  182.7000  178.3630  140.9720 C   0  0  2  0  0  3  0  0  0  0  0  0
  180.7630  178.7650  144.0440 C   0  0  0  0  0  2  0  0  0  0  0  0
  183.9820  179.4060  139.0890 C   0  0  0  0  0  2  0  0  0  0  0  0
  184.4220  178.3900  143.5150 C   0  0  0  0  0  3  0  0  0  0  0  0
  181.9680  180.5440  138.5320 O   0  0  0  0  0  0  0  0  0  0  0  0
  180.8030  178.9840  142.5410 C   0  0  0  0  0  2  0  0  0  0  0  0
  185.3840  178.4730  142.5760 C   0  0  2  0  0  3  0  0  0  0  0  0
  182.5260  179.2710  138.7430 C   0  0  2  0  0  0  0  0  0  0  0  0
  189.5350  177.8210  143.8590 C   0  0  2  0  0  3  0  0  0  0  0  0
  191.0140  176.5330  142.6070 C   0  0  0  0  0  2  0  0  0  0  0  0
  186.7900  178.1750  142.9690 C   0  0  0  0  0  0  0  0  0  0  0  0
  189.1180  177.8830  142.4690 N   0  0  0  0  0  0  0  0  0  0  0  0
  187.7760  178.1630  142.0650 C   0  0  0  0  0  3  0  0  0  0  0  0
  187.1120  177.8440  144.3770 C   0  0  0  0  0  3  0  0  0  0  0  0
  190.0080  177.1210  141.6370 C   0  0  0  0  0  2  0  0  0  0  0  0
  190.4880  176.7200  143.9580 N   0  0  0  0  0  2  0  0  0  0  0  0
  188.3630  177.6350  144.8030 C   0  0  0  0  0  0  0  0  0  0  0  0
  188.5660  177.4050  146.2000 N   0  0  0  0  0  2  0  0  0  0  0  0
  187.5230  177.5700  147.1990 C   0  0  0  0  0  1  0  0  0  0  0  0
  181.3360  177.1580  139.2720 C   0  0  0  0  0  2  0  0  0  0  0  0
  182.3760  176.1160  139.6600 C   0  0  0  0  0  2  0  0  0  0  0  0
  182.8670  175.3450  138.4430 C   0  0  0  0  0  2  0  0  0  0  0  0
  188.0200  174.6240  136.3560 C   0  0  0  0  0  2  0  0  0  0  0  0
  186.9700  174.6920  137.2920 O   0  0  0  0  0  0  0  0  0  0  0  0
  186.0170  174.2770  134.8410 C   0  0  0  0  0  2  0  0  0  0  0  0
  185.5450  175.5770  135.4940 C   0  0  1  0  0  3  0  0  0  0  0  0
  183.8690  176.1690  137.6590 C   0  0  1  0  0  3  0  0  0  0  0  0
  187.5240  174.0610  135.0220 C   0  0  0  0  0  2  0  0  0  0  0  0
  184.6180  175.2420  136.6790 C   0  0  2  0  0  0  0  0  0  0  0  0
  183.4910  176.1920  136.2400 C   0  0  0  0  0  2  0  0  0  0  0  0
  186.0890  175.7170  136.8760 C   0  0  1  0  0  0  0  0  0  0  0  0
  186.4760  177.1330  137.2300 C   0  0  0  0  0  0  0  0  0  0  0  0
  186.8820  177.4010  138.3920 O   0  0  0  0  0  1  0  0  0  0  0  0
  186.4310  178.1360  136.2700 O   0  0  0  0  0  0  0  0  0  0  0  0
  1  2  2  0  0  0  0
  2 14  1  0  0  0  0
  3 11  2  0  0  0  0
  3  7  1  0  0  0  0
  4 27  1  6  0  0  0
  4  8  1  0  0  0  0
  5 12  1  0  0  0  0
  6 13  1  1  0  0  0
  6  3  1  0  0  0  0
  8  1  1  6  0  0  0
  8  6  1  0  0  0  0
  9  7  1  0  0  0  0
 10  1  1  0  0  0  0
 12 15  1  0  0  0  0
 13  9  1  0  0  0  0
 14 18  1  1  0  0  0
 14 11  1  0  0  0  0
 15  5  1  6  0  0  0
 15 10  1  0  0  0  0
 15  4  1  0  0  0  0
 16 23  1  6  0  0  0
 16 24  1  0  0  0  0
 17 23  1  0  0  0  0
 18 21  1  0  0  0  0
 19 16  1  0  0  0  0
 20 19  1  0  0  0  0
 20 18  2  0  0  0  0
 21 24  2  0  0  0  0
 22 19  1  0  0  0  0
 22 17  1  0  0  0  0
 24 25  1  0  0  0  0
 25 26  1  0  0  0  0
 27 28  1  0  0  0  0
 29 28  1  0  0  0  0
 30 31  1  0  0  0  0
 32 35  1  0  0  0  0
 33 32  1  6  0  0  0
 33 36  1  0  0  0  0
 33 38  1  0  0  0  0
 34 29  1  1  0  0  0
 35 30  1  0  0  0  0
 36 37  1  6  0  0  0
 36 38  1  0  0  0  0
 36 34  1  0  0  0  0
 37 34  1  0  0  0  0
 38 39  1  1  0  0  0
 38 31  1  0  0  0  0
 39 40  1  0  0  0  0
 41 39  2  0  0  0  0
M  END
>  <MODEL>
3

>  <REMARK>
 VINA RESULT:      -8.6      2.131      4.780
  Name = 
  7 active torsions:
  status: ('A' for Active; 'I' for Inactive)
    1  A    between atoms: C_7  and  C_30
    2  A    between atoms: C_8  and  C_32
    3  A    between atoms: C_12  and  C_17
    4  A    between atoms: C_12  and  C_32
    5  A    between atoms: N_15  and  C_41
    6  A    between atoms: C_17  and  C_25
    7  A    between atoms: C_24  and  C_35
                            x       y       z     vdW  Elec       q    Type
                         _______ _______ _______ _____ _____    ______ ____

>  <TORSDO>
F 7

$$$$
=
 OpenBabel11042412343D

 41 49  0  0  1  0  0  0  0  0999 V2000
  185.7480  178.3450  141.5220 C   0  0  0  0  0  0  0  0  0  0  0  0
  186.7830  178.3550  142.3630 C   0  0  0  0  0  3  0  0  0  0  0  0
  184.3380  178.6340  144.2710 C   0  0  0  0  0  0  0  0  0  0  0  0
  183.5400  178.1090  140.5800 C   0  0  1  0  0  3  0  0  0  0  0  0
  184.2060  178.8830  138.1470 C   0  0  0  0  0  2  0  0  0  0  0  0
  183.8480  179.0280  142.9250 C   0  0  1  0  0  3  0  0  0  0  0  0
  183.3800  178.6250  145.1750 C   0  0  0  0  0  2  0  0  0  0  0  0
  184.3320  178.0200  141.8910 C   0  0  2  0  0  3  0  0  0  0  0  0
  182.0750  179.0110  144.5880 C   0  0  0  0  0  2  0  0  0  0  0  0
  185.9450  178.6750  140.0900 C   0  0  0  0  0  2  0  0  0  0  0  0
  185.7110  178.2450  144.6260 C   0  0  0  0  0  3  0  0  0  0  0  0
  184.1500  179.8990  139.1200 O   0  0  0  0  0  0  0  0  0  0  0  0
  182.3280  179.0160  143.0900 C   0  0  0  0  0  2  0  0  0  0  0  0
  186.7870  178.1120  143.8280 C   0  0  2  0  0  3  0  0  0  0  0  0
  184.5380  178.6230  139.5640 C   0  0  2  0  0  0  0  0  0  0  0  0
  190.6620  177.2850  145.7260 C   0  0  2  0  0  3  0  0  0  0  0  0
  192.0540  175.5800  144.9720 C   0  0  0  0  0  2  0  0  0  0  0  0
  188.0920  177.7470  144.4470 C   0  0  0  0  0  0  0  0  0  0  0  0
  190.3920  177.0780  144.3150 N   0  0  0  0  0  0  0  0  0  0  0  0
  189.1490  177.4140  143.6960 C   0  0  0  0  0  3  0  0  0  0  0  0
  188.2290  177.7100  145.9220 C   0  0  0  0  0  3  0  0  0  0  0  0
  191.2400  176.0470  143.7810 C   0  0  0  0  0  2  0  0  0  0  0  0
  191.4350  176.1310  146.1760 N   0  0  0  0  0  2  0  0  0  0  0  0
  189.3900  177.4580  146.5350 C   0  0  0  0  0  0  0  0  0  0  0  0
  189.4240  177.5290  147.9630 N   0  0  0  0  0  2  0  0  0  0  0  0
  188.2730  177.8850  148.7750 C   0  0  0  0  0  1  0  0  0  0  0  0
  183.0730  176.7170  140.1820 C   0  0  0  0  0  2  0  0  0  0  0  0
  181.6860  176.7730  139.5560 C   0  0  0  0  0  2  0  0  0  0  0  0
  181.4090  175.5380  138.7110 C   0  0  0  0  0  2  0  0  0  0  0  0
  183.4300  170.9540  136.1940 C   0  0  0  0  0  2  0  0  0  0  0  0
  182.9530  171.8020  137.2130 O   0  0  0  0  0  0  0  0  0  0  0  0
  182.0930  172.6210  134.8300 C   0  0  0  0  0  2  0  0  0  0  0  0
  182.9680  173.6330  135.5710 C   0  0  1  0  0  3  0  0  0  0  0  0
  182.6270  175.1740  137.8860 C   0  0  1  0  0  3  0  0  0  0  0  0
  182.6840  171.2070  134.8830 C   0  0  0  0  0  2  0  0  0  0  0  0
  182.2120  174.1470  136.8120 C   0  0  2  0  0  0  0  0  0  0  0  0
  182.4440  175.6350  136.5020 C   0  0  0  0  0  2  0  0  0  0  0  0
  183.3770  173.1170  136.9100 C   0  0  1  0  0  0  0  0  0  0  0  0
  184.7920  173.4800  137.2910 C   0  0  0  0  0  0  0  0  0  0  0  0
  185.3010  173.0100  138.3420 O   0  0  0  0  0  1  0  0  0  0  0  0
  185.5550  174.2960  136.4640 O   0  0  0  0  0  0  0  0  0  0  0  0
  1  2  2  0  0  0  0
  2 14  1  0  0  0  0
  3 11  2  0  0  0  0
  3  7  1  0  0  0  0
  4 27  1  6  0  0  0
  4  8  1  0  0  0  0
  5 12  1  0  0  0  0
  6 13  1  1  0  0  0
  6  3  1  0  0  0  0
  8  1  1  6  0  0  0
  8  6  1  0  0  0  0
  9  7  1  0  0  0  0
 10  1  1  0  0  0  0
 12 15  1  0  0  0  0
 13  9  1  0  0  0  0
 14 18  1  1  0  0  0
 14 11  1  0  0  0  0
 15  5  1  6  0  0  0
 15 10  1  0  0  0  0
 15  4  1  0  0  0  0
 16 23  1  1  0  0  0
 16 24  1  0  0  0  0
 17 23  1  0  0  0  0
 18 21  1  0  0  0  0
 19 16  1  0  0  0  0
 20 19  1  0  0  0  0
 20 18  2  0  0  0  0
 21 24  2  0  0  0  0
 22 19  1  0  0  0  0
 22 17  1  0  0  0  0
 24 25  1  0  0  0  0
 25 26  1  0  0  0  0
 28 27  1  0  0  0  0
 29 28  1  0  0  0  0
 30 31  1  0  0  0  0
 32 35  1  0  0  0  0
 33 32  1  6  0  0  0
 33 36  1  0  0  0  0
 33 38  1  0  0  0  0
 34 29  1  1  0  0  0
 35 30  1  0  0  0  0
 36 37  1  6  0  0  0
 36 38  1  0  0  0  0
 36 34  1  0  0  0  0
 37 34  1  0  0  0  0
 38 31  1  0  0  0  0
 38 39  1  1  0  0  0
 39 40  1  0  0  0  0
 41 39  2  0  0  0  0
M  END
>  <MODEL>
4

>  <REMARK>
 VINA RESULT:      -8.5      2.083      3.927
  Name = 
  7 active torsions:
  status: ('A' for Active; 'I' for Inactive)
    1  A    between atoms: C_7  and  C_30
    2  A    between atoms: C_8  and  C_32
    3  A    between atoms: C_12  and  C_17
    4  A    between atoms: C_12  and  C_32
    5  A    between atoms: N_15  and  C_41
    6  A    between atoms: C_17  and  C_25
    7  A    between atoms: C_24  and  C_35
                            x       y       z     vdW  Elec       q    Type
                         _______ _______ _______ _____ _____    ______ ____

>  <TORSDO>
F 7

$$$$
=
 OpenBabel11042412343D

 41 49  0  0  1  0  0  0  0  0999 V2000
  184.4570  178.6620  140.4980 C   0  0  0  0  0  0  0  0  0  0  0  0
  185.6550  178.6210  141.0810 C   0  0  0  0  0  3  0  0  0  0  0  0
  183.7060  178.6850  143.5070 C   0  0  0  0  0  0  0  0  0  0  0  0
  182.0930  178.4610  140.0600 C   0  0  1  0  0  3  0  0  0  0  0  0
  182.1910  179.4550  137.6180 C   0  0  0  0  0  2  0  0  0  0  0  0
  182.9240  179.1830  142.3470 C   0  0  1  0  0  3  0  0  0  0  0  0
  182.9770  178.5780  144.6000 C   0  0  0  0  0  2  0  0  0  0  0  0
  183.1610  178.2770  141.1460 C   0  0  2  0  0  3  0  0  0  0  0  0
  181.5730  178.9860  144.3590 C   0  0  0  0  0  2  0  0  0  0  0  0
  184.3250  179.1170  139.0920 C   0  0  0  0  0  2  0  0  0  0  0  0
  185.1240  178.2950  143.5090 C   0  0  0  0  0  3  0  0  0  0  0  0
  182.3560  180.3830  138.6640 O   0  0  0  0  0  0  0  0  0  0  0  0
  181.4800  179.1260  142.8480 C   0  0  0  0  0  2  0  0  0  0  0  0
  185.9910  178.2530  142.4790 C   0  0  2  0  0  3  0  0  0  0  0  0
  182.8350  179.0810  138.8950 C   0  0  2  0  0  0  0  0  0  0  0  0
  190.1120  176.8840  143.1510 C   0  0  2  0  0  3  0  0  0  0  0  0
  191.3070  177.4930  145.0530 C   0  0  0  0  0  2  0  0  0  0  0  0
  187.4030  177.8630  142.7540 C   0  0  0  0  0  0  0  0  0  0  0  0
  189.1590  177.1380  144.2180 N   0  0  0  0  0  0  0  0  0  0  0  0
  187.8020  177.5180  143.9830 C   0  0  0  0  0  3  0  0  0  0  0  0
  188.4050  177.8900  141.6620 C   0  0  0  0  0  3  0  0  0  0  0  0
  189.8390  177.4990  145.4310 C   0  0  0  0  0  2  0  0  0  0  0  0
  191.3890  177.4370  143.5940 N   0  0  0  0  0  2  0  0  0  0  0  0
  189.6690  177.4850  141.8300 C   0  0  0  0  0  0  0  0  0  0  0  0
  190.5280  177.4750  140.6870 N   0  0  0  0  0  2  0  0  0  0  0  0
  190.0410  177.5150  139.3190 C   0  0  0  0  0  1  0  0  0  0  0  0
  181.5490  177.0990  139.6560 C   0  0  0  0  0  2  0  0  0  0  0  0
  182.6800  176.0910  139.5090 C   0  0  0  0  0  2  0  0  0  0  0  0
  182.6700  175.4450  138.1300 C   0  0  0  0  0  2  0  0  0  0  0  0
  187.7710  173.9600  136.3430 C   0  0  0  0  0  2  0  0  0  0  0  0
  186.7170  174.2680  137.2240 O   0  0  0  0  0  0  0  0  0  0  0  0
  185.7700  173.5410  134.8450 C   0  0  0  0  0  2  0  0  0  0  0  0
  185.4040  174.9650  135.2650 C   0  0  1  0  0  3  0  0  0  0  0  0
  183.7530  176.0420  137.2550 C   0  0  1  0  0  3  0  0  0  0  0  0
  187.2490  173.2310  135.1040 C   0  0  0  0  0  2  0  0  0  0  0  0
  184.4330  174.9080  136.4600 C   0  0  2  0  0  0  0  0  0  0  0  0
  183.4010  175.8650  135.8390 C   0  0  0  0  0  2  0  0  0  0  0  0
  185.9360  175.2830  136.6220 C   0  0  1  0  0  0  0  0  0  0  0  0
  186.4420  176.6990  136.7550 C   0  0  0  0  0  0  0  0  0  0  0  0
  186.8950  177.1040  137.8580 O   0  0  0  0  0  1  0  0  0  0  0  0
  186.4520  177.5480  135.6550 O   0  0  0  0  0  0  0  0  0  0  0  0
  1  2  2  0  0  0  0
  2 14  1  0  0  0  0
  3 11  2  0  0  0  0
  3  7  1  0  0  0  0
  4 27  1  6  0  0  0
  4  8  1  0  0  0  0
  5 12  1  0  0  0  0
  6 13  1  1  0  0  0
  6  3  1  0  0  0  0
  8  1  1  6  0  0  0
  8  6  1  0  0  0  0
  9  7  1  0  0  0  0
 10  1  1  0  0  0  0
 12 15  1  0  0  0  0
 13  9  1  0  0  0  0
 14 18  1  1  0  0  0
 14 11  1  0  0  0  0
 15  5  1  6  0  0  0
 15 10  1  0  0  0  0
 15  4  1  0  0  0  0
 16 24  1  6  0  0  0
 16 23  1  0  0  0  0
 16 19  1  0  0  0  0
 17 22  1  0  0  0  0
 18 20  2  0  0  0  0
 19 22  1  0  0  0  0
 20 19  1  0  0  0  0
 21 24  2  0  0  0  0
 21 18  1  0  0  0  0
 23 17  1  0  0  0  0
 25 24  1  0  0  0  0
 26 25  1  0  0  0  0
 28 27  1  0  0  0  0
 29 28  1  0  0  0  0
 30 31  1  0  0  0  0
 32 35  1  0  0  0  0
 33 32  1  1  0  0  0
 33 36  1  0  0  0  0
 33 38  1  0  0  0  0
 34 29  1  1  0  0  0
 35 30  1  0  0  0  0
 36 37  1  6  0  0  0
 36 38  1  0  0  0  0
 36 34  1  0  0  0  0
 37 34  1  0  0  0  0
 38 39  1  1  0  0  0
 38 31  1  0  0  0  0
 39 40  1  0  0  0  0
 41 39  2  0  0  0  0
M  END
>  <MODEL>
5

>  <REMARK>
 VINA RESULT:      -8.2      2.178      4.611
  Name = 
  7 active torsions:
  status: ('A' for Active; 'I' for Inactive)
    1  A    between atoms: C_7  and  C_30
    2  A    between atoms: C_8  and  C_32
    3  A    between atoms: C_12  and  C_17
    4  A    between atoms: C_12  and  C_32
    5  A    between atoms: N_15  and  C_41
    6  A    between atoms: C_17  and  C_25
    7  A    between atoms: C_24  and  C_35
                            x       y       z     vdW  Elec       q    Type
                         _______ _______ _______ _____ _____    ______ ____

>  <TORSDO>
F 7

$$$$
=
 OpenBabel11042412343D

 41 49  0  0  1  0  0  0  0  0999 V2000
  191.5240  176.6990  139.4170 C   0  0  0  0  0  0  0  0  0  0  0  0
  191.1830  177.1420  140.6280 C   0  0  0  0  0  3  0  0  0  0  0  0
  188.7410  177.9570  138.8780 C   0  0  0  0  0  0  0  0  0  0  0  0
  191.4440  175.9050  137.1410 C   0  0  1  0  0  3  0  0  0  0  0  0
  194.0560  175.6770  136.8480 C   0  0  0  0  0  2  0  0  0  0  0  0
  189.8580  177.7240  137.9290 C   0  0  1  0  0  3  0  0  0  0  0  0
  187.6060  178.2320  138.2660 C   0  0  0  0  0  2  0  0  0  0  0  0
  190.5730  176.4280  138.2910 C   0  0  2  0  0  3  0  0  0  0  0  0
  187.7690  178.2290  136.7920 C   0  0  0  0  0  2  0  0  0  0  0  0
  192.9460  176.4320  139.0930 C   0  0  0  0  0  2  0  0  0  0  0  0
  188.8010  177.8690  140.3450 C   0  0  0  0  0  3  0  0  0  0  0  0
  193.5540  176.9920  136.8610 O   0  0  0  0  0  0  0  0  0  0  0  0
  189.1550  177.6460  136.5730 C   0  0  0  0  0  2  0  0  0  0  0  0
  189.8370  177.5180  141.1300 C   0  0  2  0  0  3  0  0  0  0  0  0
  192.8660  176.0470  137.6420 C   0  0  2  0  0  0  0  0  0  0  0  0
  189.2190  177.8700  145.4650 C   0  0  2  0  0  3  0  0  0  0  0  0
  190.4630  176.6210  146.9830 C   0  0  0  0  0  2  0  0  0  0  0  0
  189.6540  177.5530  142.6080 C   0  0  0  0  0  0  0  0  0  0  0  0
  190.5000  177.5670  144.8530 N   0  0  0  0  0  0  0  0  0  0  0  0
  190.7030  177.5220  143.4390 C   0  0  0  0  0  3  0  0  0  0  0  0
  188.2900  177.5840  143.1860 C   0  0  0  0  0  3  0  0  0  0  0  0
  191.3280  176.8120  145.7530 C   0  0  0  0  0  2  0  0  0  0  0  0
  189.0950  176.9940  146.6260 N   0  0  0  0  0  2  0  0  0  0  0  0
  188.0630  177.6870  144.5000 C   0  0  0  0  0  0  0  0  0  0  0  0
  186.7060  177.7920  144.9400 N   0  0  0  0  0  2  0  0  0  0  0  0
  185.6140  178.2090  144.0760 C   0  0  0  0  0  1  0  0  0  0  0  0
  191.1280  174.4360  136.9020 C   0  0  0  0  0  2  0  0  0  0  0  0
  189.8630  174.2870  136.0690 C   0  0  0  0  0  2  0  0  0  0  0  0
  188.7540  173.6110  136.8630 C   0  0  0  0  0  2  0  0  0  0  0  0
  183.3070  174.4620  137.8790 C   0  0  0  0  0  2  0  0  0  0  0  0
  184.5980  173.9070  137.9710 O   0  0  0  0  0  0  0  0  0  0  0  0
  184.7030  176.3710  136.9660 C   0  0  0  0  0  2  0  0  0  0  0  0
  185.2270  175.2810  136.0300 C   0  0  1  0  0  3  0  0  0  0  0  0
  187.4640  173.5950  136.0680 C   0  0  1  0  0  3  0  0  0  0  0  0
  183.3790  175.9690  137.6270 C   0  0  0  0  0  2  0  0  0  0  0  0
  186.5300  174.6970  136.6090 C   0  0  2  0  0  0  0  0  0  0  0  0
  187.3340  174.8450  135.3060 C   0  0  0  0  0  2  0  0  0  0  0  0
  185.1710  173.9380  136.6780 C   0  0  1  0  0  0  0  0  0  0  0  0
  184.7780  172.8280  135.7330 C   0  0  0  0  0  0  0  0  0  0  0  0
  184.2600  173.1060  134.6190 O   0  0  0  0  0  0  0  0  0  0  0  0
  185.0250  171.5020  136.0650 O   0  0  0  0  0  1  0  0  0  0  0  0
  1  2  2  0  0  0  0
  2 14  1  0  0  0  0
  3 11  2  0  0  0  0
  4 27  1  1  0  0  0
  4 15  1  0  0  0  0
  4  8  1  0  0  0  0
  5 12  1  0  0  0  0
  6 13  1  6  0  0  0
  6  8  1  0  0  0  0
  6  3  1  0  0  0  0
  7  3  1  0  0  0  0
  8  1  1  1  0  0  0
  9  7  1  0  0  0  0
 10  1  1  0  0  0  0
 11 14  1  0  0  0  0
 12 15  1  0  0  0  0
 13  9  1  0  0  0  0
 14 18  1  1  0  0  0
 15  5  1  6  0  0  0
 15 10  1  0  0  0  0
 16 24  1  6  0  0  0
 16 23  1  0  0  0  0
 18 21  1  0  0  0  0
 18 20  2  0  0  0  0
 19 16  1  0  0  0  0
 19 22  1  0  0  0  0
 20 19  1  0  0  0  0
 21 24  2  0  0  0  0
 22 17  1  0  0  0  0
 23 17  1  0  0  0  0
 24 25  1  0  0  0  0
 26 25  1  0  0  0  0
 28 29  1  0  0  0  0
 28 27  1  0  0  0  0
 30 31  1  0  0  0  0
 32 35  1  0  0  0  0
 33 36  1  0  0  0  0
 33 38  1  0  0  0  0
 33 32  1  1  0  0  0
 34 36  1  0  0  0  0
 34 29  1  1  0  0  0
 35 30  1  0  0  0  0
 36 37  1  6  0  0  0
 36 38  1  0  0  0  0
 37 34  1  0  0  0  0
 38 39  1  6  0  0  0
 38 31  1  0  0  0  0
 39 41  1  0  0  0  0
 40 39  2  0  0  0  0
M  END
>  <MODEL>
6

>  <REMARK>
 VINA RESULT:      -8.1      2.522      4.053
  Name = 
  7 active torsions:
  status: ('A' for Active; 'I' for Inactive)
    1  A    between atoms: C_7  and  C_30
    2  A    between atoms: C_8  and  C_32
    3  A    between atoms: C_12  and  C_17
    4  A    between atoms: C_12  and  C_32
    5  A    between atoms: N_15  and  C_41
    6  A    between atoms: C_17  and  C_25
    7  A    between atoms: C_24  and  C_35
                            x       y       z     vdW  Elec       q    Type
                         _______ _______ _______ _____ _____    ______ ____

>  <TORSDO>
F 7

$$$$
=
 OpenBabel11042412343D

 41 49  0  0  1  0  0  0  0  0999 V2000
  191.2520  176.7340  139.4280 C   0  0  0  0  0  0  0  0  0  0  0  0
  190.7650  177.1210  140.6080 C   0  0  0  0  0  3  0  0  0  0  0  0
  188.5800  178.0810  138.6080 C   0  0  0  0  0  0  0  0  0  0  0  0
  191.4500  176.0600  137.1210 C   0  0  1  0  0  3  0  0  0  0  0  0
  194.0750  175.7870  137.1500 C   0  0  0  0  0  2  0  0  0  0  0  0
  189.8070  177.8720  137.7970 C   0  0  1  0  0  3  0  0  0  0  0  0
  187.5380  178.4140  137.8730 C   0  0  0  0  0  2  0  0  0  0  0  0
  190.4480  176.5430  138.1770 C   0  0  2  0  0  3  0  0  0  0  0  0
  187.8890  178.4830  136.4340 C   0  0  0  0  0  2  0  0  0  0  0  0
  192.6990  176.4510  139.2730 C   0  0  0  0  0  2  0  0  0  0  0  0
  188.4510  177.9170  140.0640 C   0  0  0  0  0  3  0  0  0  0  0  0
  193.5960  177.1110  137.1700 O   0  0  0  0  0  0  0  0  0  0  0  0
  189.2820  177.8800  136.3610 C   0  0  0  0  0  2  0  0  0  0  0  0
  189.3730  177.5020  140.9540 C   0  0  2  0  0  3  0  0  0  0  0  0
  192.7980  176.1430  137.8050 C   0  0  2  0  0  0  0  0  0  0  0  0
  188.3950  177.1600  145.2240 C   0  0  2  0  0  3  0  0  0  0  0  0
  186.5220  178.1960  146.1360 C   0  0  0  0  0  2  0  0  0  0  0  0
  189.0020  177.4650  142.3960 C   0  0  0  0  0  0  0  0  0  0  0  0
  187.4010  177.2930  144.1740 N   0  0  0  0  0  0  0  0  0  0  0  0
  187.7280  177.3360  142.7840 C   0  0  0  0  0  3  0  0  0  0  0  0
  190.0490  177.6130  143.4350 C   0  0  0  0  0  3  0  0  0  0  0  0
  186.2060  177.9090  144.6810 C   0  0  0  0  0  2  0  0  0  0  0  0
  187.9630  178.0230  146.3180 N   0  0  0  0  0  2  0  0  0  0  0  0
  189.7890  177.5190  144.7440 C   0  0  0  0  0  0  0  0  0  0  0  0
  190.8890  177.5960  145.6540 N   0  0  0  0  0  2  0  0  0  0  0  0
  191.6800  176.4440  146.0540 C   0  0  0  0  0  1  0  0  0  0  0  0
  191.1440  174.6130  136.7640 C   0  0  0  0  0  2  0  0  0  0  0  0
  189.8500  174.5180  135.9680 C   0  0  0  0  0  2  0  0  0  0  0  0
  188.7230  173.9380  136.8110 C   0  0  0  0  0  2  0  0  0  0  0  0
  183.2610  174.7050  137.8110 C   0  0  0  0  0  2  0  0  0  0  0  0
  184.5610  174.1750  137.9110 O   0  0  0  0  0  0  0  0  0  0  0  0
  184.6240  176.6270  136.8750 C   0  0  0  0  0  2  0  0  0  0  0  0
  185.1680  175.5340  135.9530 C   0  0  1  0  0  3  0  0  0  0  0  0
  187.4350  173.8890  136.0150 C   0  0  1  0  0  3  0  0  0  0  0  0
  183.3060  176.2100  137.5390 C   0  0  0  0  0  2  0  0  0  0  0  0
  186.4810  174.9820  136.5410 C   0  0  2  0  0  0  0  0  0  0  0  0
  187.2830  175.1260  135.2370 C   0  0  0  0  0  2  0  0  0  0  0  0
  185.1360  174.2000  136.6190 C   0  0  1  0  0  0  0  0  0  0  0  0
  184.7630  173.0710  135.6870 C   0  0  0  0  0  0  0  0  0  0  0  0
  184.1910  173.3210  134.5940 O   0  0  0  0  0  0  0  0  0  0  0  0
  185.0890  171.7590  136.0080 O   0  0  0  0  0  1  0  0  0  0  0  0
  1  2  2  0  0  0  0
  2 14  1  0  0  0  0
  3 11  2  0  0  0  0
  4 27  1  1  0  0  0
  4 15  1  0  0  0  0
  4  8  1  0  0  0  0
  5 12  1  0  0  0  0
  6 13  1  6  0  0  0
  6  8  1  0  0  0  0
  6  3  1  0  0  0  0
  7  3  1  0  0  0  0
  8  1  1  1  0  0  0
  9  7  1  0  0  0  0
 10  1  1  0  0  0  0
 11 14  1  0  0  0  0
 12 15  1  0  0  0  0
 13  9  1  0  0  0  0
 14 18  1  1  0  0  0
 15  5  1  6  0  0  0
 15 10  1  0  0  0  0
 16 24  1  6  0  0  0
 16 23  1  0  0  0  0
 17 23  1  0  0  0  0
 18 20  2  0  0  0  0
 18 21  1  0  0  0  0
 19 22  1  0  0  0  0
 19 16  1  0  0  0  0
 20 19  1  0  0  0  0
 21 24  2  0  0  0  0
 22 17  1  0  0  0  0
 24 25  1  0  0  0  0
 25 26  1  0  0  0  0
 28 27  1  0  0  0  0
 28 29  1  0  0  0  0
 30 31  1  0  0  0  0
 32 35  1  0  0  0  0
 33 36  1  0  0  0  0
 33 38  1  0  0  0  0
 33 32  1  1  0  0  0
 34 36  1  0  0  0  0
 34 29  1  1  0  0  0
 35 30  1  0  0  0  0
 36 37  1  6  0  0  0
 36 38  1  0  0  0  0
 37 34  1  0  0  0  0
 38 39  1  6  0  0  0
 38 31  1  0  0  0  0
 39 41  1  0  0  0  0
 40 39  2  0  0  0  0
M  END
>  <MODEL>
7

>  <REMARK>
 VINA RESULT:      -8.1      2.402      3.676
  Name = 
  7 active torsions:
  status: ('A' for Active; 'I' for Inactive)
    1  A    between atoms: C_7  and  C_30
    2  A    between atoms: C_8  and  C_32
    3  A    between atoms: C_12  and  C_17
    4  A    between atoms: C_12  and  C_32
    5  A    between atoms: N_15  and  C_41
    6  A    between atoms: C_17  and  C_25
    7  A    between atoms: C_24  and  C_35
                            x       y       z     vdW  Elec       q    Type
                         _______ _______ _______ _____ _____    ______ ____

>  <TORSDO>
F 7

$$$$
=
 OpenBabel11042412343D

 41 49  0  0  1  0  0  0  0  0999 V2000
  191.2010  176.3580  138.6320 C   0  0  0  0  0  0  0  0  0  0  0  0
  191.0250  176.8750  139.8490 C   0  0  0  0  0  3  0  0  0  0  0  0
  188.4910  177.8360  138.3160 C   0  0  0  0  0  0  0  0  0  0  0  0
  190.8180  175.4890  136.4150 C   0  0  1  0  0  3  0  0  0  0  0  0
  193.3570  175.0200  135.8720 C   0  0  0  0  0  2  0  0  0  0  0  0
  189.4810  177.4690  137.2720 C   0  0  1  0  0  3  0  0  0  0  0  0
  187.3270  178.1870  137.8090 C   0  0  0  0  0  2  0  0  0  0  0  0
  190.1180  176.1300  137.6200 C   0  0  2  0  0  3  0  0  0  0  0  0
  187.3350  178.1140  136.3280 C   0  0  0  0  0  2  0  0  0  0  0  0
  192.5540  175.9550  138.1800 C   0  0  0  0  0  2  0  0  0  0  0  0
  188.6960  177.7990  139.7720 C   0  0  0  0  0  3  0  0  0  0  0  0
  192.9710  176.3740  135.8740 O   0  0  0  0  0  0  0  0  0  0  0  0
  188.6370  177.4030  135.9980 C   0  0  0  0  0  2  0  0  0  0  0  0
  189.7760  177.3870  140.4650 C   0  0  2  0  0  3  0  0  0  0  0  0
  192.2910  175.5230  136.7640 C   0  0  2  0  0  0  0  0  0  0  0  0
  189.6410  177.9560  144.8190 C   0  0  2  0  0  3  0  0  0  0  0  0
  190.9350  176.6680  146.2610 C   0  0  0  0  0  2  0  0  0  0  0  0
  189.7510  177.4950  141.9500 C   0  0  0  0  0  0  0  0  0  0  0  0
  190.8240  177.5250  144.0960 N   0  0  0  0  0  0  0  0  0  0  0  0
  190.8740  177.4080  142.6730 C   0  0  0  0  0  3  0  0  0  0  0  0
  188.4610  177.6610  142.6610 C   0  0  0  0  0  3  0  0  0  0  0  0
  191.6790  176.7400  144.9420 C   0  0  0  0  0  2  0  0  0  0  0  0
  189.5710  177.1390  146.0270 N   0  0  0  0  0  2  0  0  0  0  0  0
  188.3800  177.8330  143.9850 C   0  0  0  0  0  0  0  0  0  0  0  0
  187.0890  178.0670  144.5530 N   0  0  0  0  0  2  0  0  0  0  0  0
  185.8460  177.8880  143.8210 C   0  0  0  0  0  1  0  0  0  0  0  0
  190.3570  174.0460  136.2770 C   0  0  0  0  0  2  0  0  0  0  0  0
  189.0070  173.8460  136.9530 C   0  0  0  0  0  2  0  0  0  0  0  0
  187.8810  173.7750  135.9310 C   0  0  0  0  0  2  0  0  0  0  0  0
  182.5060  172.7680  134.7000 C   0  0  0  0  0  2  0  0  0  0  0  0
  183.8120  173.2830  134.5940 O   0  0  0  0  0  0  0  0  0  0  0  0
  183.7890  171.0800  136.0900 C   0  0  0  0  0  2  0  0  0  0  0  0
  184.2680  172.3370  136.8180 C   0  0  1  0  0  3  0  0  0  0  0  0
  186.5380  173.9640  136.6050 C   0  0  1  0  0  3  0  0  0  0  0  0
  182.5260  171.3450  135.2620 C   0  0  0  0  0  2  0  0  0  0  0  0
  185.6220  172.7800  136.2320 C   0  0  2  0  0  0  0  0  0  0  0  0
  186.3250  172.9000  137.5950 C   0  0  0  0  0  2  0  0  0  0  0  0
  184.2890  173.5160  135.9060 C   0  0  1  0  0  0  0  0  0  0  0  0
  183.8520  174.8000  136.5700 C   0  0  0  0  0  0  0  0  0  0  0  0
  183.9140  175.8880  135.9370 O   0  0  0  0  0  0  0  0  0  0  0  0
  183.3390  174.7850  137.8610 O   0  0  0  0  0  1  0  0  0  0  0  0
  1  2  2  0  0  0  0
  2 14  1  0  0  0  0
  3 11  2  0  0  0  0
  4 27  1  1  0  0  0
  4 15  1  0  0  0  0
  4  8  1  0  0  0  0
  5 12  1  0  0  0  0
  6 13  1  6  0  0  0
  6  8  1  0  0  0  0
  6  3  1  0  0  0  0
  7  3  1  0  0  0  0
  8  1  1  1  0  0  0
  9  7  1  0  0  0  0
 10  1  1  0  0  0  0
 11 14  1  0  0  0  0
 12 15  1  0  0  0  0
 13  9  1  0  0  0  0
 14 18  1  6  0  0  0
 15  5  1  6  0  0  0
 15 10  1  0  0  0  0
 16 24  1  6  0  0  0
 16 23  1  0  0  0  0
 18 21  1  0  0  0  0
 18 20  2  0  0  0  0
 19 16  1  0  0  0  0
 19 22  1  0  0  0  0
 20 19  1  0  0  0  0
 21 24  2  0  0  0  0
 22 17  1  0  0  0  0
 23 17  1  0  0  0  0
 24 25  1  0  0  0  0
 26 25  1  0  0  0  0
 27 28  1  0  0  0  0
 29 28  1  0  0  0  0
 30 35  1  0  0  0  0
 31 30  1  0  0  0  0
 31 38  1  0  0  0  0
 33 32  1  6  0  0  0
 34 29  1  6  0  0  0
 34 37  1  0  0  0  0
 35 32  1  0  0  0  0
 36 34  1  0  0  0  0
 36 33  1  0  0  0  0
 36 37  1  1  0  0  0
 38 36  1  0  0  0  0
 38 39  1  1  0  0  0
 38 33  1  0  0  0  0
 39 41  1  0  0  0  0
 40 39  2  0  0  0  0
M  END
>  <MODEL>
8

>  <REMARK>
 VINA RESULT:      -7.7      2.684      4.465
  Name = 
  7 active torsions:
  status: ('A' for Active; 'I' for Inactive)
    1  A    between atoms: C_7  and  C_30
    2  A    between atoms: C_8  and  C_32
    3  A    between atoms: C_12  and  C_17
    4  A    between atoms: C_12  and  C_32
    5  A    between atoms: N_15  and  C_41
    6  A    between atoms: C_17  and  C_25
    7  A    between atoms: C_24  and  C_35
                            x       y       z     vdW  Elec       q    Type
                         _______ _______ _______ _____ _____    ______ ____

>  <TORSDO>
F 7

$$$$
=
 OpenBabel11042412343D

 41 49  0  0  1  0  0  0  0  0999 V2000
  183.8660  178.8750  140.2060 C   0  0  0  0  0  0  0  0  0  0  0  0
  185.1980  178.8300  140.2430 C   0  0  0  0  0  3  0  0  0  0  0  0
  184.4180  178.7540  143.2560 C   0  0  0  0  0  0  0  0  0  0  0  0
  181.5310  178.6530  140.7690 C   0  0  1  0  0  3  0  0  0  0  0  0
  180.6180  179.7530  138.5510 C   0  0  0  0  0  2  0  0  0  0  0  0
  183.2300  179.2880  142.5440 C   0  0  1  0  0  3  0  0  0  0  0  0
  184.2040  178.5860  144.5450 C   0  0  0  0  0  2  0  0  0  0  0  0
  182.9510  178.4390  141.3100 C   0  0  2  0  0  3  0  0  0  0  0  0
  182.8240  178.9800  144.9210 C   0  0  0  0  0  2  0  0  0  0  0  0
  183.1690  179.3880  139.0020 C   0  0  0  0  0  2  0  0  0  0  0  0
  185.7110  178.3890  142.6560 C   0  0  0  0  0  3  0  0  0  0  0  0
  181.2000  180.6370  139.4790 O   0  0  0  0  0  0  0  0  0  0  0  0
  182.1200  179.1840  143.5900 C   0  0  0  0  0  2  0  0  0  0  0  0
  186.0790  178.4070  141.3610 C   0  0  2  0  0  3  0  0  0  0  0  0
  181.7300  179.3360  139.4320 C   0  0  2  0  0  0  0  0  0  0  0  0
  190.2860  177.4800  140.5000 C   0  0  2  0  0  3  0  0  0  0  0  0
  190.9540  176.6300  138.4400 C   0  0  0  0  0  2  0  0  0  0  0  0
  187.4770  178.0310  141.0130 C   0  0  0  0  0  0  0  0  0  0  0  0
  189.3370  177.9330  139.5000 N   0  0  0  0  0  0  0  0  0  0  0  0
  187.9890  178.2950  139.8050 C   0  0  0  0  0  3  0  0  0  0  0  0
  188.3190  177.3130  141.9990 C   0  0  0  0  0  3  0  0  0  0  0  0
  189.7070  177.4570  138.1950 C   0  0  0  0  0  2  0  0  0  0  0  0
  191.0650  176.4120  139.8810 N   0  0  0  0  0  2  0  0  0  0  0  0
  189.6020  177.0110  141.7710 C   0  0  0  0  0  0  0  0  0  0  0  0
  190.3430  176.3910  142.8250 N   0  0  0  0  0  2  0  0  0  0  0  0
  191.6640  176.8310  143.2420 C   0  0  0  0  0  1  0  0  0  0  0  0
  180.8660  177.3000  140.5600 C   0  0  0  0  0  2  0  0  0  0  0  0
  181.1460  176.7740  139.1590 C   0  0  0  0  0  2  0  0  0  0  0  0
  182.1960  175.6720  139.1810 C   0  0  0  0  0  2  0  0  0  0  0  0
  186.2980  172.6170  136.8880 C   0  0  0  0  0  2  0  0  0  0  0  0
  185.5960  173.3910  137.8310 O   0  0  0  0  0  0  0  0  0  0  0  0
  183.9150  172.2710  136.0970 C   0  0  0  0  0  2  0  0  0  0  0  0
  183.9000  173.8000  136.0970 C   0  0  1  0  0  3  0  0  0  0  0  0
  183.0620  175.7370  137.9400 C   0  0  1  0  0  3  0  0  0  0  0  0
  185.3430  171.7130  136.1060 C   0  0  0  0  0  2  0  0  0  0  0  0
  183.3110  174.3020  137.4300 C   0  0  2  0  0  0  0  0  0  0  0  0
  182.3010  175.2610  136.7770 C   0  0  0  0  0  2  0  0  0  0  0  0
  184.8370  174.3500  137.1200 C   0  0  1  0  0  0  0  0  0  0  0  0
  185.5650  175.5920  136.6650 C   0  0  0  0  0  0  0  0  0  0  0  0
  185.5100  175.9450  135.4570 O   0  0  0  0  0  0  0  0  0  0  0  0
  186.2600  176.3740  137.5790 O   0  0  0  0  0  1  0  0  0  0  0  0
  1  2  2  0  0  0  0
  2 14  1  0  0  0  0
  3  7  1  0  0  0  0
  4 27  1  6  0  0  0
  4  8  1  0  0  0  0
  5 12  1  0  0  0  0
  6  3  1  0  0  0  0
  6 13  1  1  0  0  0
  7  9  1  0  0  0  0
  8  1  1  6  0  0  0
  8  6  1  0  0  0  0
 10 15  1  0  0  0  0
 10  1  1  0  0  0  0
 11  3  2  0  0  0  0
 13  9  1  0  0  0  0
 14 18  1  1  0  0  0
 14 11  1  0  0  0  0
 15  5  1  6  0  0  0
 15 12  1  0  0  0  0
 15  4  1  0  0  0  0
 16 23  1  6  0  0  0
 16 24  1  0  0  0  0
 17 23  1  0  0  0  0
 18 21  1  0  0  0  0
 19 20  1  0  0  0  0
 19 16  1  0  0  0  0
 20 18  2  0  0  0  0
 22 17  1  0  0  0  0
 22 19  1  0  0  0  0
 24 21  2  0  0  0  0
 24 25  1  0  0  0  0
 25 26  1  0  0  0  0
 28 29  1  0  0  0  0
 28 27  1  0  0  0  0
 30 31  1  0  0  0  0
 32 35  1  0  0  0  0
 33 32  1  1  0  0  0
 33 38  1  0  0  0  0
 33 36  1  0  0  0  0
 34 29  1  1  0  0  0
 35 30  1  0  0  0  0
 36 37  1  6  0  0  0
 36 34  1  0  0  0  0
 37 34  1  0  0  0  0
 38 39  1  6  0  0  0
 38 36  1  0  0  0  0
 38 31  1  0  0  0  0
 39 41  1  0  0  0  0
 40 39  2  0  0  0  0
M  END
>  <MODEL>
9

>  <REMARK>
 VINA RESULT:      -7.6      2.552      5.403
  Name = 
  7 active torsions:
  status: ('A' for Active; 'I' for Inactive)
    1  A    between atoms: C_7  and  C_30
    2  A    between atoms: C_8  and  C_32
    3  A    between atoms: C_12  and  C_17
    4  A    between atoms: C_12  and  C_32
    5  A    between atoms: N_15  and  C_41
    6  A    between atoms: C_17  and  C_25
    7  A    between atoms: C_24  and  C_35
                            x       y       z     vdW  Elec       q    Type
                         _______ _______ _______ _____ _____    ______ ____

>  <TORSDO>
F 7

$$$$
