=
 OpenBabel11032421233D

 64 71  0  0  1  0  0  0  0  0999 V2000
  191.0070  175.7470  138.3610 C   0  0  2  0  0  3  0  0  0  0  0  0
  190.5660  174.4560  135.8270 C   0  0  0  0  0  3  0  0  0  0  0  0
  192.7960  175.2220  135.0550 C   0  0  0  0  0  3  0  0  0  0  0  0
  193.3280  176.3660  137.5310 C   0  0  0  0  0  0  0  0  0  0  0  0
  194.0050  175.8750  135.3050 C   0  0  0  0  0  3  0  0  0  0  0  0
  191.8450  175.1360  136.0700 C   0  0  0  0  0  0  0  0  0  0  0  0
  194.2420  176.4230  136.5260 N   0  0  0  0  0  0  0  0  0  0  0  0
  189.7200  174.2620  136.8380 C   0  0  0  0  0  0  0  0  0  0  0  0
  193.5850  176.9040  138.6390 O   0  0  0  0  0  0  0  0  0  0  0  0
  192.1020  175.7160  137.3230 C   0  0  2  0  0  3  0  0  0  0  0  0
  190.0500  174.7060  138.1300 O   0  0  0  0  0  0  0  0  0  0  0  0
  186.2800  173.5560  135.5720 C   0  0  1  0  0  3  0  0  0  0  0  0
  185.4610  171.4800  134.7010 O   0  0  0  0  0  1  0  0  0  0  0  0
  188.6660  172.2020  136.0030 C   0  0  0  0  0  3  0  0  0  0  0  0
  187.7940  171.6290  135.1560 C   0  0  0  0  0  3  0  0  0  0  0  0
  186.5570  172.3510  134.6770 C   0  0  2  0  0  3  0  0  0  0  0  0
  185.0830  175.8860  136.9110 C   0  0  0  0  0  2  0  0  0  0  0  0
  186.3610  175.5960  137.4130 O   0  0  0  0  0  0  0  0  0  0  0  0
  187.5090  174.3630  135.7150 N   0  0  2  0  0  0  0  0  0  0  0  0
  185.1930  174.3080  135.1080 O   0  0  0  0  0  0  0  0  0  0  0  0
  184.4910  174.6260  136.2760 C   0  0  2  0  0  3  0  0  0  0  0  0
  188.4120  173.5790  136.5810 C   0  0  2  0  0  3  0  0  0  0  0  0
  187.2290  175.6860  136.3120 C   0  0  0  0  0  2  0  0  0  0  0  0
  182.9760  174.6400  136.0140 C   0  0  2  0  0  3  0  0  0  0  0  0
  182.5810  174.2000  134.5960 C   0  0  0  0  0  1  0  0  0  0  0  0
  182.0970  176.6110  135.2190 O   0  0  0  0  0  1  0  0  0  0  0  0
  182.4520  175.9680  136.3620 N   0  0  0  0  0  0  0  0  0  0  0  0
  179.8080  176.1950  136.5480 O   0  0  0  0  0  0  0  0  0  0  0  0
  180.8870  174.4530  137.9060 O   0  0  0  0  0  0  0  0  0  0  0  0
  181.0290  175.8510  137.3600 S   0  0  0  0  0  0  0  0  0  0  0  0
  181.1670  178.4440  138.1840 C   0  0  0  0  0  2  0  0  0  0  0  0
  182.2730  179.2100  138.7570 N   0  0  0  0  0  2  0  0  0  0  0  0
  182.7310  176.7500  139.6090 S   0  0  0  0  0  0  0  0  0  0  0  0
  184.1050  178.9800  140.3370 C   0  0  0  0  0  1  0  0  0  0  0  0
  182.7110  178.5170  139.9580 C   0  0  1  0  0  3  0  0  0  0  0  0
  181.1890  177.0120  138.7030 C   0  0  2  0  0  3  0  0  0  0  0  0
  190.3420  177.0410  138.2990 N   0  0  0  0  0  2  0  0  0  0  0  0
  187.3820  178.9530  141.7330 F   0  0  0  0  0  0  0  0  0  0  0  0
  188.3910  178.0870  141.3530 C   0  0  2  0  0  0  0  0  0  0  0  0
  188.6850  177.8860  139.8700 C   0  0  2  0  0  3  0  0  0  0  0  0
  191.7910  178.0840  141.9180 C   0  0  0  0  0  1  0  0  0  0  0  0
  190.1520  177.5230  139.6580 C   0  0  1  0  0  3  0  0  0  0  0  0
  190.5420  176.5100  140.5590 O   0  0  0  0  0  0  0  0  0  0  0  0
  188.2540  176.8550  142.0210 O   0  0  0  0  0  0  0  0  0  0  0  0
  188.3940  179.0630  139.1770 O   0  0  0  0  0  1  0  0  0  0  0  0
  190.6730  177.0430  141.8670 C   0  0  2  0  0  0  0  0  0  0  0  0
  189.3540  177.6570  142.4000 C   0  0  1  0  0  3  0  0  0  0  0  0
  191.0710  175.8770  142.7770 C   0  0  0  0  0  2  0  0  0  0  0  0
  191.6380  176.3200  144.1200 C   0  0  0  0  0  2  0  0  0  0  0  0
  190.6110  176.0760  145.2070 C   0  0  0  0  0  2  0  0  0  0  0  0
  190.7800  177.0800  146.3370 C   0  0  2  0  0  3  0  0  0  0  0  0
  192.1250  177.3010  148.4370 O   0  0  0  0  0  1  0  0  0  0  0  0
  191.9670  175.2860  147.3570 O   0  0  0  0  0  0  0  0  0  0  0  0
  191.6510  176.5030  147.4010 C   0  0  0  0  0  0  0  0  0  0  0  0
  189.4070  178.5110  148.1590 O   0  0  0  0  0  0  0  0  0  0  0  0
  189.1940  177.5510  147.0200 S   0  0  0  0  0  0  0  0  0  0  0  0
  188.4950  176.3210  147.5280 O   0  0  0  0  0  0  0  0  0  0  0  0
  188.2460  178.3160  145.7820 N   0  0  0  0  0  2  0  0  0  0  0  0
  186.3360  178.4420  147.6400 O   0  0  0  0  0  1  0  0  0  0  0  0
  186.5340  178.1640  146.1650 P   0  0  2  0  0  0  0  0  0  0  0  0
  185.9960  176.5910  145.8390 O   0  0  0  0  0  0  0  0  0  0  0  0
  184.0810  178.9100  145.1800 C   0  0  0  0  0  2  0  0  0  0  0  0
  185.5360  179.3400  145.1940 C   0  0  0  0  0  3  0  0  0  0  0  0
  184.9590  178.6350  143.9820 C   0  0  0  0  0  2  0  0  0  0  0  0
  1 37  1  6  0  0  0
  2  6  1  0  0  0  0
  2  8  2  0  0  0  0
  3  5  1  0  0  0  0
  3  6  2  0  0  0  0
  4  9  2  0  0  0  0
  5  7  2  0  0  0  0
  7  4  1  0  0  0  0
  8 11  1  0  0  0  0
 10  6  1  6  0  0  0
 10  4  1  0  0  0  0
 10  1  1  0  0  0  0
 11  1  1  0  0  0  0
 12 20  1  6  0  0  0
 12 19  1  0  0  0  0
 14 22  1  0  0  0  0
 15 14  2  0  0  0  0
 16 13  1  1  0  0  0
 16 15  1  0  0  0  0
 16 12  1  0  0  0  0
 17 18  1  0  0  0  0
 19 23  1  1  0  0  0
 19 22  1  0  0  0  0
 20 21  1  0  0  0  0
 21 24  1  6  0  0  0
 21 17  1  0  0  0  0
 22  8  1  6  0  0  0
 23 18  1  0  0  0  0
 24 25  1  6  0  0  0
 24 27  1  0  0  0  0
 26 27  1  0  0  0  0
 27 30  1  0  0  0  0
 28 30  2  0  0  0  0
 30 29  2  0  0  0  0
 31 36  1  0  0  0  0
 31 32  1  0  0  0  0
 32 35  1  0  0  0  0
 33 35  1  0  0  0  0
 35 34  1  6  0  0  0
 36 30  1  6  0  0  0
 36 33  1  0  0  0  0
 39 38  1  1  0  0  0
 39 44  1  0  0  0  0
 39 47  1  0  0  0  0
 40 45  1  6  0  0  0
 40 39  1  0  0  0  0
 42 37  1  6  0  0  0
 42 40  1  0  0  0  0
 42 43  1  0  0  0  0
 43 46  1  0  0  0  0
 46 41  1  1  0  0  0
 46 47  1  0  0  0  0
 46 48  1  0  0  0  0
 47 44  1  1  0  0  0
 48 49  1  0  0  0  0
 49 50  1  0  0  0  0
 51 50  1  6  0  0  0
 51 56  1  0  0  0  0
 51 54  1  0  0  0  0
 53 54  2  0  0  0  0
 54 52  1  0  0  0  0
 56 57  2  0  0  0  0
 56 55  2  0  0  0  0
 58 60  1  0  0  0  0
 58 56  1  0  0  0  0
 60 61  2  6  0  0  0
 60 59  1  0  0  0  0
 62 63  1  0  0  0  0
 63 60  1  0  0  0  0
 64 62  1  0  0  0  0
 64 63  1  0  0  0  0
M  END
>  <MODEL>
1

>  <REMARK>
 VINA RESULT:      -8.1      0.000      0.000
  Name = 
  16 active torsions:
  status: ('A' for Active; 'I' for Inactive)
    1  A    between atoms: C_1  and  N_43
    2  A    between atoms: C_6  and  C_50
    3  A    between atoms: C_6  and  C_56
    4  A    between atoms: C_7  and  N_41
    5  A    between atoms: C_7  and  C_51
    6  A    between atoms: P_15  and  C_22
    7  A    between atoms: P_15  and  N_64
    8  A    between atoms: C_32  and  C_52
    9  A    between atoms: C_38  and  N_43
   10  A    between atoms: N_41  and  S_57
   11  A    between atoms: S_46  and  C_62
   12  A    between atoms: S_46  and  N_64
   13  A    between atoms: C_49  and  C_62
   14  A    between atoms: C_56  and  C_63
   15  A    between atoms: S_57  and  C_59
   16  A    between atoms: C_62  and  C_63
                            x       y       z     vdW  Elec       q    Type
                         _______ _______ _______ _____ _____    ______ ____

>  <TORSDO>
F 16

$$$$
=
 OpenBabel11032421233D

 64 71  0  0  1  0  0  0  0  0999 V2000
  191.0020  175.9450  138.4820 C   0  0  2  0  0  3  0  0  0  0  0  0
  190.3850  174.7730  135.9280 C   0  0  0  0  0  3  0  0  0  0  0  0
  192.6970  175.2410  135.1590 C   0  0  0  0  0  3  0  0  0  0  0  0
  193.3850  176.2560  137.6530 C   0  0  0  0  0  0  0  0  0  0  0  0
  193.9840  175.7190  135.4160 C   0  0  0  0  0  3  0  0  0  0  0  0
  191.7450  175.2670  136.1770 C   0  0  0  0  0  0  0  0  0  0  0  0
  194.2960  176.2070  136.6460 N   0  0  0  0  0  0  0  0  0  0  0  0
  189.5220  174.6780  136.9380 C   0  0  0  0  0  0  0  0  0  0  0  0
  193.7150  176.7340  138.7690 O   0  0  0  0  0  0  0  0  0  0  0  0
  192.0810  175.7840  137.4390 C   0  0  2  0  0  3  0  0  0  0  0  0
  189.9120  175.0490  138.2360 O   0  0  0  0  0  0  0  0  0  0  0  0
  186.0190  174.4650  135.6660 C   0  0  1  0  0  3  0  0  0  0  0  0
  184.9220  172.5320  134.7760 O   0  0  0  0  0  1  0  0  0  0  0  0
  188.1950  172.7910  136.0830 C   0  0  0  0  0  3  0  0  0  0  0  0
  187.2520  172.3520  135.2310 C   0  0  0  0  0  3  0  0  0  0  0  0
  186.1270  173.2430  134.7600 C   0  0  2  0  0  3  0  0  0  0  0  0
  185.1530  176.9250  137.0280 C   0  0  0  0  0  2  0  0  0  0  0  0
  186.3780  176.4570  137.5270 O   0  0  0  0  0  0  0  0  0  0  0  0
  187.3480  175.0930  135.8160 N   0  0  2  0  0  0  0  0  0  0  0  0
  185.0460  175.3650  135.2100 O   0  0  0  0  0  0  0  0  0  0  0  0
  184.3940  175.7650  136.3810 C   0  0  2  0  0  3  0  0  0  0  0  0
  188.1320  174.1850  136.6750 C   0  0  2  0  0  3  0  0  0  0  0  0
  187.2520  176.4370  136.4270 C   0  0  0  0  0  2  0  0  0  0  0  0
  182.8960  175.9920  136.1200 C   0  0  2  0  0  3  0  0  0  0  0  0
  182.5680  177.3570  135.4940 C   0  0  0  0  0  1  0  0  0  0  0  0
  181.6910  176.9350  137.8360 O   0  0  0  0  0  1  0  0  0  0  0  0
  182.1590  175.7490  137.3670 N   0  0  0  0  0  0  0  0  0  0  0  0
  180.3580  174.0900  138.4090 O   0  0  0  0  0  0  0  0  0  0  0  0
  179.6360  175.4980  136.5270 O   0  0  0  0  0  0  0  0  0  0  0  0
  180.7850  174.7110  137.1050 S   0  0  0  0  0  0  0  0  0  0  0  0
  180.2770  173.3210  134.8170 C   0  0  0  0  0  2  0  0  0  0  0  0
  179.8760  171.9300  134.6090 N   0  0  0  0  0  2  0  0  0  0  0  0
  181.3450  171.8190  136.8050 S   0  0  0  0  0  0  0  0  0  0  0  0
  180.3270  169.6940  135.4480 C   0  0  0  0  0  1  0  0  0  0  0  0
  180.8880  171.0860  135.2240 C   0  0  1  0  0  3  0  0  0  0  0  0
  181.2660  173.4210  135.9710 C   0  0  2  0  0  3  0  0  0  0  0  0
  190.5200  177.3180  138.4460 N   0  0  0  0  0  2  0  0  0  0  0  0
  187.1330  178.6840  141.7450 F   0  0  0  0  0  0  0  0  0  0  0  0
  188.2730  177.9790  141.4030 C   0  0  2  0  0  0  0  0  0  0  0  0
  188.6750  177.8720  139.9360 C   0  0  2  0  0  3  0  0  0  0  0  0
  191.6030  178.4250  142.1730 C   0  0  0  0  0  1  0  0  0  0  0  0
  190.1890  177.7220  139.8040 C   0  0  1  0  0  3  0  0  0  0  0  0
  190.6640  176.7420  140.6990 O   0  0  0  0  0  0  0  0  0  0  0  0
  188.2730  176.7180  142.0290 O   0  0  0  0  0  0  0  0  0  0  0  0
  188.2630  179.0210  139.2580 O   0  0  0  0  0  1  0  0  0  0  0  0
  190.6460  177.2420  142.0270 C   0  0  2  0  0  0  0  0  0  0  0  0
  189.2260  177.6500  142.4950 C   0  0  1  0  0  3  0  0  0  0  0  0
  191.1510  176.1110  142.9280 C   0  0  0  0  0  2  0  0  0  0  0  0
  191.7220  176.5990  144.2540 C   0  0  0  0  0  2  0  0  0  0  0  0
  190.8200  176.1510  145.3860 C   0  0  0  0  0  2  0  0  0  0  0  0
  190.8850  177.1370  146.5420 C   0  0  2  0  0  3  0  0  0  0  0  0
  191.8580  175.1730  147.7500 O   0  0  0  0  0  0  0  0  0  0  0  0
  192.1330  177.2970  148.5630 O   0  0  0  0  0  1  0  0  0  0  0  0
  191.6600  176.5470  147.6700 C   0  0  0  0  0  0  0  0  0  0  0  0
  189.3470  178.6390  148.1650 O   0  0  0  0  0  0  0  0  0  0  0  0
  189.2420  177.5920  147.0900 S   0  0  0  0  0  0  0  0  0  0  0  0
  188.5550  176.3750  147.6430 O   0  0  0  0  0  0  0  0  0  0  0  0
  188.3490  178.2280  145.7430 N   0  0  0  0  0  2  0  0  0  0  0  0
  186.3360  178.3350  147.4890 O   0  0  0  0  0  1  0  0  0  0  0  0
  186.6220  178.0400  146.0320 P   0  0  2  0  0  0  0  0  0  0  0  0
  186.1410  176.4500  145.7010 O   0  0  0  0  0  0  0  0  0  0  0  0
  184.1680  178.9790  145.2310 C   0  0  0  0  0  2  0  0  0  0  0  0
  185.6530  179.1780  144.9890 C   0  0  0  0  0  3  0  0  0  0  0  0
  184.8180  178.3770  144.0070 C   0  0  0  0  0  2  0  0  0  0  0  0
  1 37  1  6  0  0  0
  2  6  1  0  0  0  0
  2  8  2  0  0  0  0
  3  5  1  0  0  0  0
  3  6  2  0  0  0  0
  4  9  2  0  0  0  0
  5  7  2  0  0  0  0
  7  4  1  0  0  0  0
  8 11  1  0  0  0  0
 10  6  1  6  0  0  0
 10  4  1  0  0  0  0
 10  1  1  0  0  0  0
 11  1  1  0  0  0  0
 12 20  1  6  0  0  0
 12 19  1  0  0  0  0
 14 22  1  0  0  0  0
 15 14  2  0  0  0  0
 16 13  1  1  0  0  0
 16 15  1  0  0  0  0
 16 12  1  0  0  0  0
 17 18  1  0  0  0  0
 19 23  1  1  0  0  0
 19 22  1  0  0  0  0
 20 21  1  0  0  0  0
 21 24  1  6  0  0  0
 21 17  1  0  0  0  0
 22  8  1  6  0  0  0
 23 18  1  0  0  0  0
 24 25  1  1  0  0  0
 24 27  1  0  0  0  0
 27 26  1  0  0  0  0
 29 30  2  0  0  0  0
 30 27  1  0  0  0  0
 30 28  2  0  0  0  0
 31 36  1  0  0  0  0
 32 31  1  0  0  0  0
 32 35  1  0  0  0  0
 35 34  1  1  0  0  0
 35 33  1  0  0  0  0
 36 33  1  0  0  0  0
 36 30  1  1  0  0  0
 39 38  1  1  0  0  0
 39 44  1  0  0  0  0
 39 47  1  0  0  0  0
 40 45  1  6  0  0  0
 40 39  1  0  0  0  0
 42 37  1  6  0  0  0
 42 40  1  0  0  0  0
 42 43  1  0  0  0  0
 43 46  1  0  0  0  0
 46 41  1  1  0  0  0
 46 47  1  0  0  0  0
 46 48  1  0  0  0  0
 47 44  1  6  0  0  0
 48 49  1  0  0  0  0
 49 50  1  0  0  0  0
 51 50  1  6  0  0  0
 51 56  1  0  0  0  0
 51 54  1  0  0  0  0
 54 52  2  0  0  0  0
 54 53  1  0  0  0  0
 56 57  2  0  0  0  0
 56 55  2  0  0  0  0
 58 60  1  0  0  0  0
 58 56  1  0  0  0  0
 60 61  2  6  0  0  0
 60 59  1  0  0  0  0
 63 62  1  0  0  0  0
 63 60  1  0  0  0  0
 64 63  1  0  0  0  0
 64 62  1  0  0  0  0
M  END
>  <MODEL>
2

>  <REMARK>
 VINA RESULT:      -7.7      1.390      2.601
  Name = 
  16 active torsions:
  status: ('A' for Active; 'I' for Inactive)
    1  A    between atoms: C_1  and  N_43
    2  A    between atoms: C_6  and  C_50
    3  A    between atoms: C_6  and  C_56
    4  A    between atoms: C_7  and  N_41
    5  A    between atoms: C_7  and  C_51
    6  A    between atoms: P_15  and  C_22
    7  A    between atoms: P_15  and  N_64
    8  A    between atoms: C_32  and  C_52
    9  A    between atoms: C_38  and  N_43
   10  A    between atoms: N_41  and  S_57
   11  A    between atoms: S_46  and  C_62
   12  A    between atoms: S_46  and  N_64
   13  A    between atoms: C_49  and  C_62
   14  A    between atoms: C_56  and  C_63
   15  A    between atoms: S_57  and  C_59
   16  A    between atoms: C_62  and  C_63
                            x       y       z     vdW  Elec       q    Type
                         _______ _______ _______ _____ _____    ______ ____

>  <TORSDO>
F 16

$$$$
=
 OpenBabel11032421233D

 64 71  0  0  1  0  0  0  0  0999 V2000
  188.3990  174.0030  136.8900 C   0  0  2  0  0  3  0  0  0  0  0  0
  186.6310  171.9540  135.9120 C   0  0  0  0  0  3  0  0  0  0  0  0
  188.5570  170.8090  134.8460 C   0  0  0  0  0  3  0  0  0  0  0  0
  190.3250  172.6860  135.8830 C   0  0  0  0  0  0  0  0  0  0  0  0
  189.9280  170.7270  134.5940 C   0  0  0  0  0  3  0  0  0  0  0  0
  188.0700  171.8470  135.6380 C   0  0  0  0  0  0  0  0  0  0  0  0
  190.7720  171.6560  135.1170 N   0  0  0  0  0  0  0  0  0  0  0  0
  186.1900  172.8680  136.7750 C   0  0  0  0  0  0  0  0  0  0  0  0
  191.1410  173.5320  136.3290 O   0  0  0  0  0  0  0  0  0  0  0  0
  188.9550  172.8040  136.1620 C   0  0  2  0  0  3  0  0  0  0  0  0
  187.0970  173.7250  137.4210 O   0  0  0  0  0  0  0  0  0  0  0  0
  182.6180  173.9260  136.5410 C   0  0  1  0  0  3  0  0  0  0  0  0
  180.6850  172.5160  136.6530 O   0  0  0  0  0  1  0  0  0  0  0  0
  184.0860  171.6070  136.9600 C   0  0  0  0  0  3  0  0  0  0  0  0
  182.8120  171.4480  136.5630 C   0  0  0  0  0  3  0  0  0  0  0  0
  181.9690  172.6150  136.1050 C   0  0  2  0  0  3  0  0  0  0  0  0
  183.1950  176.7450  137.1540 C   0  0  0  0  0  2  0  0  0  0  0  0
  184.2780  175.9100  137.4690 O   0  0  0  0  0  0  0  0  0  0  0  0
  184.0400  173.9340  136.1420 N   0  0  2  0  0  0  0  0  0  0  0  0
  181.9160  175.0380  136.0560 O   0  0  0  0  0  0  0  0  0  0  0  0
  181.9070  175.9190  137.1430 C   0  0  2  0  0  3  0  0  0  0  0  0
  184.7200  172.9800  137.0410 C   0  0  2  0  0  3  0  0  0  0  0  0
  184.6350  175.2820  136.2640 C   0  0  0  0  0  2  0  0  0  0  0  0
  180.5890  176.7090  137.1920 C   0  0  2  0  0  3  0  0  0  0  0  0
  179.7010  176.5240  135.9520 C   0  0  0  0  0  1  0  0  0  0  0  0
  180.2150  178.8940  136.5800 O   0  0  0  0  0  1  0  0  0  0  0  0
  180.8970  178.1200  137.4640 N   0  0  0  0  0  0  0  0  0  0  0  0
  179.2260  179.5350  138.9750 O   0  0  0  0  0  0  0  0  0  0  0  0
  179.9880  177.3710  139.8610 O   0  0  0  0  0  0  0  0  0  0  0  0
  180.3930  178.5860  139.0650 S   0  0  0  0  0  0  0  0  0  0  0  0
  182.6040  180.1630  138.8490 C   0  0  0  0  0  2  0  0  0  0  0  0
  184.0210  179.8580  139.0390 N   0  0  0  0  0  2  0  0  0  0  0  0
  182.8150  178.2210  140.7280 S   0  0  0  0  0  0  0  0  0  0  0  0
  185.4970  178.5960  140.5000 C   0  0  0  0  0  1  0  0  0  0  0  0
  184.1820  179.3440  140.3890 C   0  0  1  0  0  3  0  0  0  0  0  0
  181.7580  179.4080  139.8650 C   0  0  2  0  0  3  0  0  0  0  0  0
  188.3140  175.1170  135.9570 N   0  0  0  0  0  2  0  0  0  0  0  0
  188.4030  179.9600  136.8270 F   0  0  0  0  0  0  0  0  0  0  0  0
  188.6010  178.6540  137.2370 C   0  0  2  0  0  0  0  0  0  0  0  0
  188.1080  177.5110  136.3570 C   0  0  2  0  0  3  0  0  0  0  0  0
  191.4510  176.8130  137.8470 C   0  0  0  0  0  1  0  0  0  0  0  0
  188.9710  176.2680  136.5570 C   0  0  1  0  0  3  0  0  0  0  0  0
  189.1600  176.0180  137.9320 O   0  0  0  0  0  0  0  0  0  0  0  0
  188.1820  178.4930  138.5720 O   0  0  0  0  0  0  0  0  0  0  0  0
  188.1610  177.9010  135.0180 O   0  0  0  0  0  1  0  0  0  0  0  0
  190.0670  176.9600  138.4810 C   0  0  2  0  0  0  0  0  0  0  0  0
  189.5730  178.4230  138.3370 C   0  0  1  0  0  3  0  0  0  0  0  0
  190.1920  176.6320  139.9720 C   0  0  0  0  0  2  0  0  0  0  0  0
  191.2420  177.4690  140.6920 C   0  0  0  0  0  2  0  0  0  0  0  0
  191.3520  177.0080  142.1320 C   0  0  0  0  0  2  0  0  0  0  0  0
  190.7250  178.0290  143.0680 C   0  0  2  0  0  3  0  0  0  0  0  0
  191.9060  177.2850  145.1460 O   0  0  0  0  0  1  0  0  0  0  0  0
  192.1550  179.4240  144.3630 O   0  0  0  0  0  0  0  0  0  0  0  0
  191.6350  178.2870  144.2210 C   0  0  0  0  0  0  0  0  0  0  0  0
  189.2830  176.1290  144.3200 O   0  0  0  0  0  0  0  0  0  0  0  0
  189.1280  177.4680  143.6520 S   0  0  0  0  0  0  0  0  0  0  0  0
  188.1970  177.3360  142.4780 O   0  0  0  0  0  0  0  0  0  0  0  0
  188.5010  178.6190  144.7920 N   0  0  0  0  0  2  0  0  0  0  0  0
  186.5750  176.7820  144.9510 O   0  0  0  0  0  0  0  0  0  0  0  0
  187.2450  177.8660  145.7690 P   0  0  2  0  0  0  0  0  0  0  0  0
  186.0740  179.0100  146.2040 O   0  0  0  0  0  1  0  0  0  0  0  0
  188.3100  178.2170  148.2760 C   0  0  0  0  0  2  0  0  0  0  0  0
  187.9420  177.1300  147.2830 C   0  0  0  0  0  3  0  0  0  0  0  0
  189.3860  177.5650  147.4390 C   0  0  0  0  0  2  0  0  0  0  0  0
  1 37  1  6  0  0  0
  1 11  1  0  0  0  0
  2  8  2  0  0  0  0
  3  6  2  0  0  0  0
  4 10  1  0  0  0  0
  4  9  2  0  0  0  0
  5  3  1  0  0  0  0
  5  7  2  0  0  0  0
  6  2  1  0  0  0  0
  7  4  1  0  0  0  0
  8 11  1  0  0  0  0
 10  6  1  6  0  0  0
 10  1  1  0  0  0  0
 12 20  1  6  0  0  0
 14 22  1  0  0  0  0
 15 14  2  0  0  0  0
 16 12  1  0  0  0  0
 16 15  1  0  0  0  0
 16 13  1  1  0  0  0
 17 18  1  0  0  0  0
 19 23  1  1  0  0  0
 19 12  1  0  0  0  0
 19 22  1  0  0  0  0
 20 21  1  0  0  0  0
 21 17  1  0  0  0  0
 21 24  1  6  0  0  0
 22  8  1  6  0  0  0
 23 18  1  0  0  0  0
 24 25  1  6  0  0  0
 24 27  1  0  0  0  0
 26 27  1  0  0  0  0
 27 30  1  0  0  0  0
 28 30  2  0  0  0  0
 30 29  2  0  0  0  0
 31 32  1  0  0  0  0
 31 36  1  0  0  0  0
 32 35  1  0  0  0  0
 35 34  1  6  0  0  0
 35 33  1  0  0  0  0
 36 30  1  6  0  0  0
 36 33  1  0  0  0  0
 39 38  1  6  0  0  0
 39 47  1  0  0  0  0
 39 44  1  0  0  0  0
 40 45  1  6  0  0  0
 40 42  1  0  0  0  0
 40 39  1  0  0  0  0
 42 37  1  1  0  0  0
 42 43  1  0  0  0  0
 43 46  1  0  0  0  0
 46 41  1  6  0  0  0
 46 48  1  0  0  0  0
 47 46  1  0  0  0  0
 47 44  1  1  0  0  0
 48 49  1  0  0  0  0
 49 50  1  0  0  0  0
 51 50  1  6  0  0  0
 51 56  1  0  0  0  0
 51 54  1  0  0  0  0
 54 53  2  0  0  0  0
 54 52  1  0  0  0  0
 56 55  2  0  0  0  0
 56 58  1  0  0  0  0
 57 56  2  0  0  0  0
 58 60  1  0  0  0  0
 60 59  2  6  0  0  0
 60 61  1  0  0  0  0
 60 63  1  0  0  0  0
 63 64  1  0  0  0  0
 63 62  1  0  0  0  0
 64 62  1  0  0  0  0
M  END
>  <MODEL>
3

>  <REMARK>
 VINA RESULT:      -7.3      2.487      3.910
  Name = 
  16 active torsions:
  status: ('A' for Active; 'I' for Inactive)
    1  A    between atoms: C_1  and  N_43
    2  A    between atoms: C_6  and  C_50
    3  A    between atoms: C_6  and  C_56
    4  A    between atoms: C_7  and  N_41
    5  A    between atoms: C_7  and  C_51
    6  A    between atoms: P_15  and  C_22
    7  A    between atoms: P_15  and  N_64
    8  A    between atoms: C_32  and  C_52
    9  A    between atoms: C_38  and  N_43
   10  A    between atoms: N_41  and  S_57
   11  A    between atoms: S_46  and  C_62
   12  A    between atoms: S_46  and  N_64
   13  A    between atoms: C_49  and  C_62
   14  A    between atoms: C_56  and  C_63
   15  A    between atoms: S_57  and  C_59
   16  A    between atoms: C_62  and  C_63
                            x       y       z     vdW  Elec       q    Type
                         _______ _______ _______ _____ _____    ______ ____

>  <TORSDO>
F 16

$$$$
=
 OpenBabel11032421233D

 64 71  0  0  1  0  0  0  0  0999 V2000
  186.4670  177.5330  143.3080 C   0  0  2  0  0  3  0  0  0  0  0  0
  189.1750  178.1200  142.5310 C   0  0  0  0  0  3  0  0  0  0  0  0
  189.8230  178.2700  144.9210 C   0  0  0  0  0  3  0  0  0  0  0  0
  187.2560  177.5700  145.7240 C   0  0  0  0  0  0  0  0  0  0  0  0
  189.4910  178.1640  146.2740 C   0  0  0  0  0  3  0  0  0  0  0  0
  188.8490  178.0110  143.9590 C   0  0  0  0  0  0  0  0  0  0  0  0
  188.2290  177.8160  146.6400 N   0  0  0  0  0  0  0  0  0  0  0  0
  188.2790  177.7440  141.6190 C   0  0  0  0  0  0  0  0  0  0  0  0
  186.0970  177.2690  146.1110 O   0  0  0  0  0  0  0  0  0  0  0  0
  187.5470  177.6620  144.3550 C   0  0  2  0  0  3  0  0  0  0  0  0
  187.0290  177.2450  142.0220 O   0  0  0  0  0  0  0  0  0  0  0  0
  189.4780  176.9390  138.1780 C   0  0  1  0  0  3  0  0  0  0  0  0
  188.3930  177.4710  136.1100 O   0  0  0  0  0  1  0  0  0  0  0  0
  187.3730  178.2780  139.3960 C   0  0  0  0  0  3  0  0  0  0  0  0
  187.1890  177.9030  138.1180 C   0  0  0  0  0  3  0  0  0  0  0  0
  188.1630  176.9950  137.4060 C   0  0  2  0  0  3  0  0  0  0  0  0
  192.2560  176.4750  139.0280 C   0  0  0  0  0  2  0  0  0  0  0  0
  191.5120  177.1380  140.0160 O   0  0  0  0  0  0  0  0  0  0  0  0
  189.2090  176.6430  139.6000 N   0  0  2  0  0  0  0  0  0  0  0  0
  190.3800  176.0350  137.6000 O   0  0  0  0  0  0  0  0  0  0  0  0
  191.6050  176.7070  137.6630 C   0  0  2  0  0  3  0  0  0  0  0  0
  188.6130  177.8690  140.1650 C   0  0  2  0  0  3  0  0  0  0  0  0
  190.4440  176.2800  140.3260 C   0  0  0  0  0  2  0  0  0  0  0  0
  192.4670  176.3850  136.4320 C   0  0  2  0  0  3  0  0  0  0  0  0
  191.6570  176.0400  135.1720 C   0  0  0  0  0  1  0  0  0  0  0  0
  192.8900  174.1250  136.4840 O   0  0  0  0  0  1  0  0  0  0  0  0
  193.4280  175.3340  136.7930 N   0  0  0  0  0  0  0  0  0  0  0  0
  194.8040  174.7370  134.5950 O   0  0  0  0  0  0  0  0  0  0  0  0
  195.2000  176.9430  135.6080 O   0  0  0  0  0  0  0  0  0  0  0  0
  194.9120  175.4910  135.8950 S   0  0  0  0  0  0  0  0  0  0  0  0
  197.5770  175.0000  136.1830 C   0  0  0  0  0  2  0  0  0  0  0  0
  198.3300  173.7470  136.1510 N   0  0  0  0  0  2  0  0  0  0  0  0
  195.9830  173.0220  137.1290 S   0  0  0  0  0  0  0  0  0  0  0  0
  198.1830  171.4410  136.9040 C   0  0  0  0  0  1  0  0  0  0  0  0
  197.7780  172.8770  137.1770 C   0  0  1  0  0  3  0  0  0  0  0  0
  196.2330  174.7930  136.8700 C   0  0  2  0  0  3  0  0  0  0  0  0
  185.7270  178.7850  143.2450 N   0  0  0  0  0  2  0  0  0  0  0  0
  180.8680  178.8870  144.0200 F   0  0  0  0  0  0  0  0  0  0  0  0
  181.9630  179.0290  143.1870 C   0  0  2  0  0  0  0  0  0  0  0  0
  183.3650  179.0270  143.7870 C   0  0  2  0  0  3  0  0  0  0  0  0
  183.1830  177.1080  140.5980 C   0  0  0  0  0  1  0  0  0  0  0  0
  184.3800  178.4960  142.7780 C   0  0  1  0  0  3  0  0  0  0  0  0
  184.1920  179.1110  141.5230 O   0  0  0  0  0  0  0  0  0  0  0  0
  181.7770  180.1230  142.3190 O   0  0  0  0  0  0  0  0  0  0  0  0
  183.3790  178.2210  144.9270 O   0  0  0  0  0  1  0  0  0  0  0  0
  183.0270  178.5990  140.8960 C   0  0  2  0  0  0  0  0  0  0  0  0
  181.7420  178.8400  141.7290 C   0  0  1  0  0  3  0  0  0  0  0  0
  182.8870  179.3360  139.5610 C   0  0  0  0  0  2  0  0  0  0  0  0
  181.6780  178.8930  138.7450 C   0  0  0  0  0  2  0  0  0  0  0  0
  182.0860  178.7130  137.2970 C   0  0  0  0  0  2  0  0  0  0  0  0
  182.4170  177.2560  137.0120 C   0  0  2  0  0  3  0  0  0  0  0  0
  182.9980  177.7420  134.6260 O   0  0  0  0  0  0  0  0  0  0  0  0
  184.4310  176.5500  135.9590 O   0  0  0  0  0  1  0  0  0  0  0  0
  183.3380  177.1640  135.8440 C   0  0  0  0  0  0  0  0  0  0  0  0
  179.9620  177.1440  135.9100 O   0  0  0  0  0  0  0  0  0  0  0  0
  180.9280  176.3100  136.7050 S   0  0  0  0  0  0  0  0  0  0  0  0
  180.3030  175.9390  138.0210 O   0  0  0  0  0  0  0  0  0  0  0  0
  181.3380  174.8800  135.8080 N   0  0  0  0  0  2  0  0  0  0  0  0
  180.9680  172.8510  137.4980 O   0  0  0  0  0  0  0  0  0  0  0  0
  182.0670  173.6910  136.8820 P   0  0  2  0  0  0  0  0  0  0  0  0
  182.9120  174.4660  138.1290 O   0  0  0  0  0  1  0  0  0  0  0  0
  183.5550  171.3840  136.8140 C   0  0  0  0  0  2  0  0  0  0  0  0
  183.2170  172.6040  135.9780 C   0  0  0  0  0  3  0  0  0  0  0  0
  184.5350  172.5300  136.7240 C   0  0  0  0  0  2  0  0  0  0  0  0
  1 37  1  6  0  0  0
  1 10  1  0  0  0  0
  2  6  1  0  0  0  0
  3  5  1  0  0  0  0
  4  9  2  0  0  0  0
  4  7  1  0  0  0  0
  5  7  2  0  0  0  0
  6  3  2  0  0  0  0
  8 11  1  0  0  0  0
  8  2  2  0  0  0  0
 10  6  1  1  0  0  0
 10  4  1  0  0  0  0
 11  1  1  0  0  0  0
 12 20  1  6  0  0  0
 12 19  1  0  0  0  0
 14 22  1  0  0  0  0
 15 14  2  0  0  0  0
 16 13  1  6  0  0  0
 16 15  1  0  0  0  0
 16 12  1  0  0  0  0
 17 18  1  0  0  0  0
 18 23  1  0  0  0  0
 19 22  1  0  0  0  0
 19 23  1  1  0  0  0
 20 21  1  0  0  0  0
 21 24  1  6  0  0  0
 21 17  1  0  0  0  0
 22  8  1  1  0  0  0
 24 25  1  6  0  0  0
 24 27  1  0  0  0  0
 26 27  1  0  0  0  0
 28 30  2  0  0  0  0
 29 30  2  0  0  0  0
 30 27  1  0  0  0  0
 31 36  1  0  0  0  0
 32 31  1  0  0  0  0
 32 35  1  0  0  0  0
 33 35  1  0  0  0  0
 35 34  1  6  0  0  0
 36 30  1  6  0  0  0
 36 33  1  0  0  0  0
 39 40  1  0  0  0  0
 39 38  1  1  0  0  0
 40 45  1  1  0  0  0
 42 37  1  1  0  0  0
 42 40  1  0  0  0  0
 43 42  1  0  0  0  0
 44 39  1  0  0  0  0
 46 41  1  6  0  0  0
 46 43  1  0  0  0  0
 46 47  1  0  0  0  0
 47 44  1  6  0  0  0
 47 39  1  0  0  0  0
 48 46  1  0  0  0  0
 49 48  1  0  0  0  0
 50 49  1  0  0  0  0
 51 50  1  6  0  0  0
 52 54  2  0  0  0  0
 54 53  1  0  0  0  0
 54 51  1  0  0  0  0
 55 56  2  0  0  0  0
 56 51  1  0  0  0  0
 56 57  2  0  0  0  0
 58 56  1  0  0  0  0
 58 60  1  0  0  0  0
 60 59  2  1  0  0  0
 60 61  1  0  0  0  0
 63 64  1  0  0  0  0
 63 62  1  0  0  0  0
 63 60  1  0  0  0  0
 64 62  1  0  0  0  0
M  END
>  <MODEL>
4

>  <REMARK>
 VINA RESULT:      -6.8      3.739     10.649
  Name = 
  16 active torsions:
  status: ('A' for Active; 'I' for Inactive)
    1  A    between atoms: C_1  and  N_43
    2  A    between atoms: C_6  and  C_50
    3  A    between atoms: C_6  and  C_56
    4  A    between atoms: C_7  and  N_41
    5  A    between atoms: C_7  and  C_51
    6  A    between atoms: P_15  and  C_22
    7  A    between atoms: P_15  and  N_64
    8  A    between atoms: C_32  and  C_52
    9  A    between atoms: C_38  and  N_43
   10  A    between atoms: N_41  and  S_57
   11  A    between atoms: S_46  and  C_62
   12  A    between atoms: S_46  and  N_64
   13  A    between atoms: C_49  and  C_62
   14  A    between atoms: C_56  and  C_63
   15  A    between atoms: S_57  and  C_59
   16  A    between atoms: C_62  and  C_63
                            x       y       z     vdW  Elec       q    Type
                         _______ _______ _______ _____ _____    ______ ____

>  <TORSDO>
F 16

$$$$
=
 OpenBabel11032421233D

 64 71  0  0  1  0  0  0  0  0999 V2000
  187.8730  178.4700  144.1910 C   0  0  2  0  0  3  0  0  0  0  0  0
  185.3130  178.2130  145.4800 C   0  0  0  0  0  3  0  0  0  0  0  0
  186.4360  177.4030  147.5380 C   0  0  0  0  0  3  0  0  0  0  0  0
  188.9400  177.7640  146.3880 C   0  0  0  0  0  0  0  0  0  0  0  0
  187.6060  177.1050  148.2420 C   0  0  0  0  0  3  0  0  0  0  0  0
  186.5300  177.8970  146.2390 C   0  0  0  0  0  0  0  0  0  0  0  0
  188.8180  177.2960  147.6570 N   0  0  0  0  0  0  0  0  0  0  0  0
  185.4120  178.8080  144.2920 C   0  0  0  0  0  0  0  0  0  0  0  0
  190.0830  177.9060  145.8820 O   0  0  0  0  0  0  0  0  0  0  0  0
  187.7910  178.0780  145.6460 C   0  0  2  0  0  3  0  0  0  0  0  0
  186.6750  179.1320  143.7680 O   0  0  0  0  0  0  0  0  0  0  0  0
  182.7250  178.6720  141.7050 C   0  0  1  0  0  3  0  0  0  0  0  0
  180.3640  178.8500  142.0660 O   0  0  0  0  0  1  0  0  0  0  0  0
  182.9700  179.0620  144.4430 C   0  0  0  0  0  3  0  0  0  0  0  0
  181.7550  178.7040  143.9930 C   0  0  0  0  0  3  0  0  0  0  0  0
  181.5320  178.2640  142.5660 C   0  0  2  0  0  3  0  0  0  0  0  0
  184.5530  179.2500  139.4740 C   0  0  0  0  0  2  0  0  0  0  0  0
  185.1390  179.5380  140.7160 O   0  0  0  0  0  0  0  0  0  0  0  0
  183.9790  178.2310  142.3500 N   0  0  2  0  0  0  0  0  0  0  0  0
  182.6000  178.2010  140.3910 O   0  0  0  0  0  0  0  0  0  0  0  0
  183.0300  179.2820  139.6130 C   0  0  2  0  0  3  0  0  0  0  0  0
  184.1680  179.1160  143.5170 C   0  0  2  0  0  3  0  0  0  0  0  0
  185.1310  178.3270  141.4290 C   0  0  0  0  0  2  0  0  0  0  0  0
  182.2270  179.3650  138.3050 C   0  0  2  0  0  3  0  0  0  0  0  0
  181.4470  180.6780  138.1310 C   0  0  0  0  0  1  0  0  0  0  0  0
  180.1200  178.5710  137.8370 O   0  0  0  0  0  1  0  0  0  0  0  0
  181.3670  178.1770  138.2050 N   0  0  0  0  0  0  0  0  0  0  0  0
  182.2260  177.8190  135.7120 O   0  0  0  0  0  0  0  0  0  0  0  0
  183.2100  176.3950  137.4580 O   0  0  0  0  0  0  0  0  0  0  0  0
  181.9470  177.0720  136.9900 S   0  0  0  0  0  0  0  0  0  0  0  0
  180.5830  174.8800  137.8620 C   0  0  0  0  0  2  0  0  0  0  0  0
  180.5760  173.5010  137.3780 N   0  0  0  0  0  2  0  0  0  0  0  0
  181.0250  174.9110  135.1880 S   0  0  0  0  0  0  0  0  0  0  0  0
  180.5880  172.2310  135.3050 C   0  0  0  0  0  1  0  0  0  0  0  0
  180.1830  173.5290  135.9780 C   0  0  1  0  0  3  0  0  0  0  0  0
  180.6810  175.8520  136.6930 C   0  0  2  0  0  3  0  0  0  0  0  0
  188.0700  177.2670  143.3950 N   0  0  0  0  0  2  0  0  0  0  0  0
  192.5570  177.4020  141.3790 F   0  0  0  0  0  0  0  0  0  0  0  0
  191.1940  177.1870  141.2830 C   0  0  2  0  0  0  0  0  0  0  0  0
  190.3520  177.1450  142.5530 C   0  0  2  0  0  3  0  0  0  0  0  0
  188.6560  178.9760  139.7860 C   0  0  0  0  0  1  0  0  0  0  0  0
  188.9240  177.6010  142.2650 C   0  0  1  0  0  3  0  0  0  0  0  0
  188.4260  176.9580  141.1130 O   0  0  0  0  0  0  0  0  0  0  0  0
  190.9330  176.0780  140.4560 O   0  0  0  0  0  0  0  0  0  0  0  0
  190.9210  177.9830  143.5140 O   0  0  0  0  0  1  0  0  0  0  0  0
  189.0290  177.5020  139.9500 C   0  0  2  0  0  0  0  0  0  0  0  0
  190.5700  177.3430  139.9430 C   0  0  1  0  0  3  0  0  0  0  0  0
  188.4530  176.7330  138.7570 C   0  0  0  0  0  2  0  0  0  0  0  0
  189.3190  176.8160  137.5060 C   0  0  0  0  0  2  0  0  0  0  0  0
  190.2170  175.5960  137.4330 C   0  0  0  0  0  2  0  0  0  0  0  0
  190.2740  175.0610  136.0100 C   0  0  2  0  0  3  0  0  0  0  0  0
  188.8870  173.1050  136.7300 O   0  0  0  0  0  1  0  0  0  0  0  0
  188.4790  174.1560  134.7360 O   0  0  0  0  0  0  0  0  0  0  0  0
  189.1650  174.0900  135.7880 C   0  0  0  0  0  0  0  0  0  0  0  0
  192.6840  175.1920  134.8140 O   0  0  0  0  0  0  0  0  0  0  0  0
  191.8540  174.2850  135.6810 S   0  0  0  0  0  0  0  0  0  0  0  0
  191.6200  172.9840  134.9630 O   0  0  0  0  0  0  0  0  0  0  0  0
  192.6750  174.0040  137.1850 N   0  0  0  0  0  2  0  0  0  0  0  0
  194.3850  176.0510  137.1500 O   0  0  0  0  0  1  0  0  0  0  0  0
  194.3480  174.5400  137.0580 P   0  0  2  0  0  0  0  0  0  0  0  0
  195.0020  174.0780  135.5660 O   0  0  0  0  0  0  0  0  0  0  0  0
  196.8320  174.1610  138.1670 C   0  0  0  0  0  2  0  0  0  0  0  0
  195.3680  173.8330  138.3930 C   0  0  0  0  0  3  0  0  0  0  0  0
  196.3050  172.7900  137.8160 C   0  0  0  0  0  2  0  0  0  0  0  0
  1 37  1  6  0  0  0
  1 10  1  0  0  0  0
  2  6  1  0  0  0  0
  3  5  1  0  0  0  0
  4  7  1  0  0  0  0
  6  3  2  0  0  0  0
  7  5  2  0  0  0  0
  8  2  2  0  0  0  0
  9  4  2  0  0  0  0
 10  6  1  6  0  0  0
 10  4  1  0  0  0  0
 11  1  1  0  0  0  0
 11  8  1  0  0  0  0
 12 20  1  6  0  0  0
 12 19  1  0  0  0  0
 12 16  1  0  0  0  0
 15 14  2  0  0  0  0
 16 13  1  6  0  0  0
 16 15  1  0  0  0  0
 17 21  1  0  0  0  0
 17 18  1  0  0  0  0
 18 23  1  0  0  0  0
 19 23  1  6  0  0  0
 19 22  1  0  0  0  0
 21 24  1  6  0  0  0
 21 20  1  0  0  0  0
 22  8  1  1  0  0  0
 22 14  1  0  0  0  0
 24 25  1  1  0  0  0
 26 27  1  0  0  0  0
 27 24  1  0  0  0  0
 28 30  2  0  0  0  0
 30 29  2  0  0  0  0
 30 27  1  0  0  0  0
 32 31  1  0  0  0  0
 33 35  1  0  0  0  0
 33 36  1  0  0  0  0
 35 34  1  6  0  0  0
 35 32  1  0  0  0  0
 36 30  1  1  0  0  0
 36 31  1  0  0  0  0
 39 38  1  1  0  0  0
 39 40  1  0  0  0  0
 40 45  1  1  0  0  0
 42 40  1  0  0  0  0
 42 37  1  1  0  0  0
 43 42  1  0  0  0  0
 44 39  1  0  0  0  0
 46 41  1  6  0  0  0
 46 43  1  0  0  0  0
 47 46  1  0  0  0  0
 47 44  1  6  0  0  0
 47 39  1  0  0  0  0
 48 46  1  0  0  0  0
 49 48  1  0  0  0  0
 50 49  1  0  0  0  0
 51 50  1  1  0  0  0
 53 54  2  0  0  0  0
 54 51  1  0  0  0  0
 54 52  1  0  0  0  0
 55 56  2  0  0  0  0
 56 51  1  0  0  0  0
 56 58  1  0  0  0  0
 57 56  2  0  0  0  0
 60 61  2  6  0  0  0
 60 59  1  0  0  0  0
 60 58  1  0  0  0  0
 60 63  1  0  0  0  0
 62 63  1  0  0  0  0
 64 62  1  0  0  0  0
 64 63  1  0  0  0  0
M  END
>  <MODEL>
5

>  <REMARK>
 VINA RESULT:      -6.1      3.368      9.099
  Name = 
  16 active torsions:
  status: ('A' for Active; 'I' for Inactive)
    1  A    between atoms: C_1  and  N_43
    2  A    between atoms: C_6  and  C_50
    3  A    between atoms: C_6  and  C_56
    4  A    between atoms: C_7  and  N_41
    5  A    between atoms: C_7  and  C_51
    6  A    between atoms: P_15  and  C_22
    7  A    between atoms: P_15  and  N_64
    8  A    between atoms: C_32  and  C_52
    9  A    between atoms: C_38  and  N_43
   10  A    between atoms: N_41  and  S_57
   11  A    between atoms: S_46  and  C_62
   12  A    between atoms: S_46  and  N_64
   13  A    between atoms: C_49  and  C_62
   14  A    between atoms: C_56  and  C_63
   15  A    between atoms: S_57  and  C_59
   16  A    between atoms: C_62  and  C_63
                            x       y       z     vdW  Elec       q    Type
                         _______ _______ _______ _____ _____    ______ ____

>  <TORSDO>
F 16

$$$$
=
 OpenBabel11032421233D

 64 71  0  0  1  0  0  0  0  0999 V2000
  191.1530  175.9290  138.7070 C   0  0  2  0  0  3  0  0  0  0  0  0
  189.9110  175.7250  136.1200 C   0  0  0  0  0  3  0  0  0  0  0  0
  192.1270  176.0030  135.0400 C   0  0  0  0  0  3  0  0  0  0  0  0
  193.3920  176.0680  137.5130 C   0  0  0  0  0  0  0  0  0  0  0  0
  193.5130  176.1510  135.1400 C   0  0  0  0  0  3  0  0  0  0  0  0
  191.3700  175.8780  136.2020 C   0  0  0  0  0  0  0  0  0  0  0  0
  194.1070  176.1750  136.3620 N   0  0  0  0  0  0  0  0  0  0  0  0
  189.2100  175.4730  137.2240 C   0  0  0  0  0  0  0  0  0  0  0  0
  193.9850  176.1140  138.6220 O   0  0  0  0  0  0  0  0  0  0  0  0
  191.9990  175.9140  137.4580 C   0  0  2  0  0  3  0  0  0  0  0  0
  189.8640  175.3530  138.4630 O   0  0  0  0  0  0  0  0  0  0  0  0
  185.6050  176.2490  136.6480 C   0  0  1  0  0  3  0  0  0  0  0  0
  183.9810  174.8500  135.5810 O   0  0  0  0  0  1  0  0  0  0  0  0
  187.3800  174.1520  136.2470 C   0  0  0  0  0  3  0  0  0  0  0  0
  186.2500  174.1300  135.5200 C   0  0  0  0  0  3  0  0  0  0  0  0
  185.3010  175.3050  135.4880 C   0  0  2  0  0  3  0  0  0  0  0  0
  185.5270  178.3880  138.6670 C   0  0  0  0  0  2  0  0  0  0  0  0
  186.6720  177.5870  138.7990 O   0  0  0  0  0  0  0  0  0  0  0  0
  187.0490  176.5600  136.6710 N   0  0  2  0  0  0  0  0  0  0  0  0
  184.8070  177.4000  136.6030 O   0  0  0  0  0  0  0  0  0  0  0  0
  184.4380  177.5960  137.9380 C   0  0  2  0  0  3  0  0  0  0  0  0
  187.7220  175.3300  137.1350 C   0  0  2  0  0  3  0  0  0  0  0  0
  187.3510  177.6920  137.5730 C   0  0  0  0  0  2  0  0  0  0  0  0
  183.0100  178.1550  138.0320 C   0  0  2  0  0  3  0  0  0  0  0  0
  182.5920  179.0130  136.8270 C   0  0  0  0  0  1  0  0  0  0  0  0
  183.0640  180.1930  139.0970 O   0  0  0  0  0  1  0  0  0  0  0  0
  182.8660  178.8660  139.3100 N   0  0  0  0  0  0  0  0  0  0  0  0
  181.2670  179.0520  141.4290 O   0  0  0  0  0  0  0  0  0  0  0  0
  180.2860  179.5510  139.2300 O   0  0  0  0  0  0  0  0  0  0  0  0
  181.2660  178.6760  139.9700 S   0  0  0  0  0  0  0  0  0  0  0  0
  182.0130  176.0570  139.8780 C   0  0  0  0  0  2  0  0  0  0  0  0
  181.9980  175.0940  138.7780 N   0  0  0  0  0  2  0  0  0  0  0  0
  179.9480  176.6730  138.2330 S   0  0  0  0  0  0  0  0  0  0  0  0
  180.6200  174.4010  136.8990 C   0  0  0  0  0  1  0  0  0  0  0  0
  180.6310  175.0060  138.2900 C   0  0  1  0  0  3  0  0  0  0  0  0
  180.7920  176.9640  139.8050 C   0  0  2  0  0  3  0  0  0  0  0  0
  190.9930  177.3080  139.1470 N   0  0  0  0  0  2  0  0  0  0  0  0
  192.1970  178.1270  143.8470 F   0  0  0  0  0  0  0  0  0  0  0  0
  191.2900  178.1770  142.8060 C   0  0  2  0  0  0  0  0  0  0  0  0
  191.7610  177.8770  141.3860 C   0  0  2  0  0  3  0  0  0  0  0  0
  188.4310  176.3770  142.1220 C   0  0  0  0  0  1  0  0  0  0  0  0
  190.6200  177.2990  140.5530 C   0  0  1  0  0  3  0  0  0  0  0  0
  189.4520  178.0710  140.7180 O   0  0  0  0  0  0  0  0  0  0  0  0
  190.5510  179.3750  142.8590 O   0  0  0  0  0  0  0  0  0  0  0  0
  192.8120  176.9590  141.4330 O   0  0  0  0  0  1  0  0  0  0  0  0
  188.8830  177.8310  141.9950 C   0  0  2  0  0  0  0  0  0  0  0  0
  189.8460  178.1880  143.1570 C   0  0  1  0  0  3  0  0  0  0  0  0
  187.6430  178.7240  142.0980 C   0  0  0  0  0  2  0  0  0  0  0  0
  186.3730  177.9610  142.4550 C   0  0  0  0  0  2  0  0  0  0  0  0
  185.3330  178.9320  142.9780 C   0  0  0  0  0  2  0  0  0  0  0  0
  184.6130  178.3440  144.1820 C   0  0  2  0  0  3  0  0  0  0  0  0
  183.0540  180.2940  144.0010 O   0  0  0  0  0  0  0  0  0  0  0  0
  182.2940  178.2530  144.7110 O   0  0  0  0  0  1  0  0  0  0  0  0
  183.2580  178.9540  144.3110 C   0  0  0  0  0  0  0  0  0  0  0  0
  184.8390  177.9580  146.8380 O   0  0  0  0  0  0  0  0  0  0  0  0
  185.5550  178.6030  145.6820 S   0  0  0  0  0  0  0  0  0  0  0  0
  185.6800  180.0800  145.9330 O   0  0  0  0  0  0  0  0  0  0  0  0
  187.1270  177.8870  145.4980 N   0  0  0  0  0  2  0  0  0  0  0  0
  187.5540  176.4540  147.7060 O   0  0  0  0  0  0  0  0  0  0  0  0
  187.9180  177.7770  147.0670 P   0  0  2  0  0  0  0  0  0  0  0  0
  187.3890  179.0260  148.0810 O   0  0  0  0  0  1  0  0  0  0  0  0
  190.2570  176.6930  146.1180 C   0  0  0  0  0  2  0  0  0  0  0  0
  189.7300  177.8830  146.8990 C   0  0  0  0  0  3  0  0  0  0  0  0
  190.3750  176.7180  147.6240 C   0  0  0  0  0  2  0  0  0  0  0  0
  1 37  1  6  0  0  0
  2  6  1  0  0  0  0
  2  8  2  0  0  0  0
  3  5  1  0  0  0  0
  3  6  2  0  0  0  0
  4  9  2  0  0  0  0
  5  7  2  0  0  0  0
  7  4  1  0  0  0  0
  8 11  1  0  0  0  0
 10  6  1  6  0  0  0
 10  4  1  0  0  0  0
 10  1  1  0  0  0  0
 11  1  1  0  0  0  0
 12 20  1  6  0  0  0
 12 19  1  0  0  0  0
 14 22  1  0  0  0  0
 15 14  2  0  0  0  0
 16 15  1  0  0  0  0
 16 13  1  1  0  0  0
 16 12  1  0  0  0  0
 17 18  1  0  0  0  0
 19 22  1  0  0  0  0
 19 23  1  1  0  0  0
 20 21  1  0  0  0  0
 21 24  1  6  0  0  0
 21 17  1  0  0  0  0
 22  8  1  6  0  0  0
 23 18  1  0  0  0  0
 24 25  1  6  0  0  0
 24 27  1  0  0  0  0
 26 27  1  0  0  0  0
 27 30  1  0  0  0  0
 29 30  2  0  0  0  0
 30 28  2  0  0  0  0
 32 31  1  0  0  0  0
 33 35  1  0  0  0  0
 33 36  1  0  0  0  0
 35 34  1  6  0  0  0
 35 32  1  0  0  0  0
 36 31  1  0  0  0  0
 36 30  1  6  0  0  0
 39 44  1  0  0  0  0
 39 47  1  0  0  0  0
 39 38  1  1  0  0  0
 40 45  1  1  0  0  0
 40 39  1  0  0  0  0
 42 37  1  6  0  0  0
 42 43  1  0  0  0  0
 42 40  1  0  0  0  0
 43 46  1  0  0  0  0
 46 48  1  0  0  0  0
 46 41  1  1  0  0  0
 46 47  1  0  0  0  0
 47 44  1  6  0  0  0
 48 49  1  0  0  0  0
 49 50  1  0  0  0  0
 51 50  1  6  0  0  0
 51 54  1  0  0  0  0
 51 56  1  0  0  0  0
 52 54  2  0  0  0  0
 54 53  1  0  0  0  0
 56 57  2  0  0  0  0
 56 55  2  0  0  0  0
 58 56  1  0  0  0  0
 58 60  1  0  0  0  0
 60 59  2  1  0  0  0
 60 61  1  0  0  0  0
 62 63  1  0  0  0  0
 62 64  1  0  0  0  0
 63 60  1  0  0  0  0
 63 64  1  0  0  0  0
M  END
>  <MODEL>
6

>  <REMARK>
 VINA RESULT:      -6.0      2.220      4.224
  Name = 
  16 active torsions:
  status: ('A' for Active; 'I' for Inactive)
    1  A    between atoms: C_1  and  N_43
    2  A    between atoms: C_6  and  C_50
    3  A    between atoms: C_6  and  C_56
    4  A    between atoms: C_7  and  N_41
    5  A    between atoms: C_7  and  C_51
    6  A    between atoms: P_15  and  C_22
    7  A    between atoms: P_15  and  N_64
    8  A    between atoms: C_32  and  C_52
    9  A    between atoms: C_38  and  N_43
   10  A    between atoms: N_41  and  S_57
   11  A    between atoms: S_46  and  C_62
   12  A    between atoms: S_46  and  N_64
   13  A    between atoms: C_49  and  C_62
   14  A    between atoms: C_56  and  C_63
   15  A    between atoms: S_57  and  C_59
   16  A    between atoms: C_62  and  C_63
                            x       y       z     vdW  Elec       q    Type
                         _______ _______ _______ _____ _____    ______ ____

>  <TORSDO>
F 16

$$$$
=
 OpenBabel11032421233D

 64 71  0  0  1  0  0  0  0  0999 V2000
  189.7330  173.7220  136.5950 C   0  0  2  0  0  3  0  0  0  0  0  0
  188.4030  171.5130  135.3180 C   0  0  0  0  0  3  0  0  0  0  0  0
  190.6010  170.6110  134.6020 C   0  0  0  0  0  3  0  0  0  0  0  0
  191.9400  172.6480  135.9370 C   0  0  0  0  0  0  0  0  0  0  0  0
  191.9950  170.6870  134.5940 C   0  0  0  0  0  3  0  0  0  0  0  0
  189.8710  171.5710  135.2990 C   0  0  0  0  0  0  0  0  0  0  0  0
  192.6260  171.6910  135.2590 N   0  0  0  0  0  0  0  0  0  0  0  0
  187.7190  172.3530  136.0930 C   0  0  0  0  0  0  0  0  0  0  0  0
  192.5660  173.5680  136.5210 O   0  0  0  0  0  0  0  0  0  0  0  0
  190.5380  172.6080  135.9730 C   0  0  2  0  0  3  0  0  0  0  0  0
  188.3990  173.2900  136.8900 O   0  0  0  0  0  0  0  0  0  0  0  0
  184.1390  173.2440  135.5300 C   0  0  1  0  0  3  0  0  0  0  0  0
  182.3790  171.7770  134.8310 O   0  0  0  0  0  1  0  0  0  0  0  0
  185.7640  170.9940  135.4750 C   0  0  0  0  0  3  0  0  0  0  0  0
  184.5960  170.9080  134.8160 C   0  0  0  0  0  3  0  0  0  0  0  0
  183.7160  172.1160  134.5940 C   0  0  2  0  0  3  0  0  0  0  0  0
  184.2960  175.7340  137.0890 C   0  0  0  0  0  2  0  0  0  0  0  0
  185.3990  174.8990  137.3270 O   0  0  0  0  0  0  0  0  0  0  0  0
  185.5970  173.4550  135.4300 N   0  0  2  0  0  0  0  0  0  0  0  0
  183.4070  174.4160  135.2930 O   0  0  0  0  0  0  0  0  0  0  0  0
  183.1250  174.8920  136.5780 C   0  0  2  0  0  3  0  0  0  0  0  0
  186.2220  172.2970  136.0980 C   0  0  2  0  0  3  0  0  0  0  0  0
  186.0130  174.7180  136.0760 C   0  0  0  0  0  2  0  0  0  0  0  0
  181.7380  175.5540  136.6220 C   0  0  2  0  0  3  0  0  0  0  0  0
  181.1090  175.7820  135.2380 C   0  0  0  0  0  1  0  0  0  0  0  0
  181.1600  177.7760  136.7620 O   0  0  0  0  0  1  0  0  0  0  0  0
  181.8310  176.7890  137.4120 N   0  0  0  0  0  0  0  0  0  0  0  0
  179.6960  176.0650  138.8240 O   0  0  0  0  0  0  0  0  0  0  0  0
  181.9020  175.6490  139.8260 O   0  0  0  0  0  0  0  0  0  0  0  0
  181.0950  176.6000  138.9790 S   0  0  0  0  0  0  0  0  0  0  0  0
  181.9740  178.2570  140.9560 C   0  0  0  0  0  2  0  0  0  0  0  0
  181.2860  178.8030  142.1250 N   0  0  0  0  0  2  0  0  0  0  0  0
  179.3540  178.5740  140.3350 S   0  0  0  0  0  0  0  0  0  0  0  0
  179.1390  179.7320  142.7850 C   0  0  0  0  0  1  0  0  0  0  0  0
  180.1250  179.5370  141.6480 C   0  0  1  0  0  3  0  0  0  0  0  0
  181.0280  178.2010  139.7640 C   0  0  2  0  0  3  0  0  0  0  0  0
  189.6860  174.8410  135.6640 N   0  0  0  0  0  2  0  0  0  0  0  0
  188.4570  179.4500  136.8710 F   0  0  0  0  0  0  0  0  0  0  0  0
  188.9560  178.2050  137.2060 C   0  0  2  0  0  0  0  0  0  0  0  0
  188.8400  177.0580  136.2080 C   0  0  2  0  0  3  0  0  0  0  0  0
  192.1340  177.0950  137.9470 C   0  0  0  0  0  1  0  0  0  0  0  0
  189.9790  176.0610  136.4010 C   0  0  1  0  0  3  0  0  0  0  0  0
  190.1270  175.7440  137.7660 O   0  0  0  0  0  0  0  0  0  0  0  0
  188.4990  177.8240  138.4820 O   0  0  0  0  0  0  0  0  0  0  0  0
  188.8850  177.5690  134.9090 O   0  0  0  0  0  1  0  0  0  0  0  0
  190.7180  176.8310  138.4600 C   0  0  2  0  0  0  0  0  0  0  0  0
  189.8740  178.1280  138.3720 C   0  0  1  0  0  3  0  0  0  0  0  0
  190.8170  176.4120  139.9300 C   0  0  0  0  0  2  0  0  0  0  0  0
  191.6450  177.3680  140.7800 C   0  0  0  0  0  2  0  0  0  0  0  0
  191.3480  177.1240  142.2460 C   0  0  0  0  0  2  0  0  0  0  0  0
  190.5330  178.2720  142.8230 C   0  0  2  0  0  3  0  0  0  0  0  0
  191.1670  180.0110  144.5090 O   0  0  0  0  0  0  0  0  0  0  0  0
  191.4920  177.7850  144.9470 O   0  0  0  0  0  1  0  0  0  0  0  0
  191.0860  178.6700  144.1490 C   0  0  0  0  0  0  0  0  0  0  0  0
  188.6720  176.3250  142.8590 O   0  0  0  0  0  0  0  0  0  0  0  0
  188.8090  177.8180  142.9810 S   0  0  0  0  0  0  0  0  0  0  0  0
  188.0250  178.4820  141.8820 O   0  0  0  0  0  0  0  0  0  0  0  0
  188.2240  178.3320  144.5330 N   0  0  0  0  0  2  0  0  0  0  0  0
  186.5660  176.4150  145.3620 O   0  0  0  0  0  1  0  0  0  0  0  0
  186.5600  177.7990  144.7490 P   0  0  2  0  0  0  0  0  0  0  0  0
  185.7690  177.7200  143.2530 O   0  0  0  0  0  0  0  0  0  0  0  0
  186.4760  179.2800  147.0610 C   0  0  0  0  0  2  0  0  0  0  0  0
  185.6420  178.9340  145.8410 C   0  0  0  0  0  3  0  0  0  0  0  0
  185.3740  178.2520  147.1690 C   0  0  0  0  0  2  0  0  0  0  0  0
  1 37  1  6  0  0  0
  1 11  1  0  0  0  0
  2  8  2  0  0  0  0
  3  6  2  0  0  0  0
  4 10  1  0  0  0  0
  4  9  2  0  0  0  0
  5  3  1  0  0  0  0
  5  7  2  0  0  0  0
  6  2  1  0  0  0  0
  7  4  1  0  0  0  0
  8 11  1  0  0  0  0
 10  6  1  6  0  0  0
 10  1  1  0  0  0  0
 12 20  1  6  0  0  0
 14 22  1  0  0  0  0
 15 14  2  0  0  0  0
 16 15  1  0  0  0  0
 16 13  1  1  0  0  0
 16 12  1  0  0  0  0
 17 18  1  0  0  0  0
 19 12  1  0  0  0  0
 19 23  1  1  0  0  0
 19 22  1  0  0  0  0
 20 21  1  0  0  0  0
 21 24  1  6  0  0  0
 21 17  1  0  0  0  0
 22  8  1  6  0  0  0
 23 18  1  0  0  0  0
 24 25  1  6  0  0  0
 24 27  1  0  0  0  0
 26 27  1  0  0  0  0
 27 30  1  0  0  0  0
 28 30  2  0  0  0  0
 30 29  2  0  0  0  0
 31 32  1  0  0  0  0
 33 35  1  0  0  0  0
 35 32  1  0  0  0  0
 35 34  1  1  0  0  0
 36 30  1  1  0  0  0
 36 33  1  0  0  0  0
 36 31  1  0  0  0  0
 39 38  1  6  0  0  0
 39 47  1  0  0  0  0
 39 44  1  0  0  0  0
 40 45  1  6  0  0  0
 40 42  1  0  0  0  0
 40 39  1  0  0  0  0
 42 37  1  6  0  0  0
 42 43  1  0  0  0  0
 43 46  1  0  0  0  0
 46 41  1  6  0  0  0
 46 48  1  0  0  0  0
 47 46  1  0  0  0  0
 47 44  1  1  0  0  0
 48 49  1  0  0  0  0
 49 50  1  0  0  0  0
 51 50  1  1  0  0  0
 51 56  1  0  0  0  0
 51 54  1  0  0  0  0
 54 52  2  0  0  0  0
 54 53  1  0  0  0  0
 55 56  2  0  0  0  0
 56 58  1  0  0  0  0
 57 56  2  0  0  0  0
 58 60  1  0  0  0  0
 60 61  2  6  0  0  0
 60 59  1  0  0  0  0
 60 63  1  0  0  0  0
 62 64  1  0  0  0  0
 63 62  1  0  0  0  0
 63 64  1  0  0  0  0
M  END
>  <MODEL>
7

>  <REMARK>
 VINA RESULT:      -6.0      2.402      3.437
  Name = 
  16 active torsions:
  status: ('A' for Active; 'I' for Inactive)
    1  A    between atoms: C_1  and  N_43
    2  A    between atoms: C_6  and  C_50
    3  A    between atoms: C_6  and  C_56
    4  A    between atoms: C_7  and  N_41
    5  A    between atoms: C_7  and  C_51
    6  A    between atoms: P_15  and  C_22
    7  A    between atoms: P_15  and  N_64
    8  A    between atoms: C_32  and  C_52
    9  A    between atoms: C_38  and  N_43
   10  A    between atoms: N_41  and  S_57
   11  A    between atoms: S_46  and  C_62
   12  A    between atoms: S_46  and  N_64
   13  A    between atoms: C_49  and  C_62
   14  A    between atoms: C_56  and  C_63
   15  A    between atoms: S_57  and  C_59
   16  A    between atoms: C_62  and  C_63
                            x       y       z     vdW  Elec       q    Type
                         _______ _______ _______ _____ _____    ______ ____

>  <TORSDO>
F 16

$$$$
=
 OpenBabel11032421233D

 64 71  0  0  1  0  0  0  0  0999 V2000
  186.8930  177.4020  145.1500 C   0  0  2  0  0  3  0  0  0  0  0  0
  189.7670  177.5110  145.0550 C   0  0  0  0  0  3  0  0  0  0  0  0
  189.8170  178.1420  147.4530 C   0  0  0  0  0  3  0  0  0  0  0  0
  187.0530  177.9160  147.6340 C   0  0  0  0  0  0  0  0  0  0  0  0
  189.1480  178.3880  148.6550 C   0  0  0  0  0  3  0  0  0  0  0  0
  189.0830  177.7700  146.3290 C   0  0  0  0  0  0  0  0  0  0  0  0
  187.7950  178.2650  148.7170 N   0  0  0  0  0  0  0  0  0  0  0  0
  189.0770  177.0280  144.0220 C   0  0  0  0  0  0  0  0  0  0  0  0
  185.8020  177.8340  147.7350 O   0  0  0  0  0  0  0  0  0  0  0  0
  187.6850  177.6580  146.4080 C   0  0  2  0  0  3  0  0  0  0  0  0
  187.7020  176.7670  144.1520 O   0  0  0  0  0  0  0  0  0  0  0  0
  190.4180  177.5040  140.5720 C   0  0  1  0  0  3  0  0  0  0  0  0
  192.5940  176.9000  139.7730 O   0  0  0  0  0  1  0  0  0  0  0  0
  191.2190  176.3990  142.9900 C   0  0  0  0  0  3  0  0  0  0  0  0
  192.1930  176.6930  142.1110 C   0  0  0  0  0  3  0  0  0  0  0  0
  191.9180  177.4810  140.8530 C   0  0  2  0  0  3  0  0  0  0  0  0
  187.7590  177.8410  139.3590 C   0  0  0  0  0  2  0  0  0  0  0  0
  187.6780  177.3010  140.6520 O   0  0  0  0  0  0  0  0  0  0  0  0
  189.6900  177.9180  141.7890 N   0  0  2  0  0  0  0  0  0  0  0  0
  190.1110  178.3030  139.4620 O   0  0  0  0  0  0  0  0  0  0  0  0
  189.1460  177.5560  138.7780 C   0  0  2  0  0  3  0  0  0  0  0  0
  189.7770  176.7780  142.7220 C   0  0  2  0  0  3  0  0  0  0  0  0
  188.2790  178.2490  141.4970 C   0  0  0  0  0  2  0  0  0  0  0  0
  189.2980  177.7320  137.2580 C   0  0  2  0  0  3  0  0  0  0  0  0
  188.6980  179.0390  136.7160 C   0  0  0  0  0  1  0  0  0  0  0  0
  187.7450  176.9220  135.7680 O   0  0  0  0  0  1  0  0  0  0  0  0
  188.7560  176.5400  136.5910 N   0  0  0  0  0  0  0  0  0  0  0  0
  189.3520  174.5790  134.8940 O   0  0  0  0  0  0  0  0  0  0  0  0
  190.5200  176.7220  134.5940 O   0  0  0  0  0  0  0  0  0  0  0  0
  189.9630  175.7560  135.6090 S   0  0  0  0  0  0  0  0  0  0  0  0
  192.5480  175.9730  136.4420 C   0  0  0  0  0  2  0  0  0  0  0  0
  193.6850  175.0680  136.2830 N   0  0  0  0  0  2  0  0  0  0  0  0
  191.6140  173.4290  136.3970 S   0  0  0  0  0  0  0  0  0  0  0  0
  194.2330  172.7010  136.3510 C   0  0  0  0  0  1  0  0  0  0  0  0
  193.3140  173.7900  136.8700 C   0  0  1  0  0  3  0  0  0  0  0  0
  191.2690  175.1810  136.6780 C   0  0  2  0  0  3  0  0  0  0  0  0
  186.4030  178.6750  144.6400 N   0  0  0  0  0  2  0  0  0  0  0  0
  181.4890  178.9450  144.6690 F   0  0  0  0  0  0  0  0  0  0  0  0
  182.7030  179.0560  144.0140 C   0  0  2  0  0  0  0  0  0  0  0  0
  183.9960  178.9970  144.8200 C   0  0  2  0  0  3  0  0  0  0  0  0
  184.2370  177.1210  141.6100 C   0  0  0  0  0  1  0  0  0  0  0  0
  185.1340  178.4400  143.9680 C   0  0  1  0  0  3  0  0  0  0  0  0
  185.1610  179.0760  142.7100 O   0  0  0  0  0  0  0  0  0  0  0  0
  182.6890  180.1660  143.1470 O   0  0  0  0  0  0  0  0  0  0  0  0
  183.8090  178.1780  145.9360 O   0  0  0  0  0  1  0  0  0  0  0  0
  184.0880  178.6130  141.9050 C   0  0  2  0  0  0  0  0  0  0  0  0
  182.7010  178.8910  142.5370 C   0  0  1  0  0  3  0  0  0  0  0  0
  184.1790  179.3700  140.5760 C   0  0  0  0  0  2  0  0  0  0  0  0
  184.1010  178.4630  139.3540 C   0  0  0  0  0  2  0  0  0  0  0  0
  182.6480  178.2370  138.9870 C   0  0  0  0  0  2  0  0  0  0  0  0
  182.3130  178.9360  137.6790 C   0  0  2  0  0  3  0  0  0  0  0  0
  180.0030  179.2600  138.5890 O   0  0  0  0  0  1  0  0  0  0  0  0
  180.9800  180.8680  137.2820 O   0  0  0  0  0  0  0  0  0  0  0  0
  181.0690  179.7430  137.8390 C   0  0  0  0  0  0  0  0  0  0  0  0
  181.9330  178.4870  135.0500 O   0  0  0  0  0  0  0  0  0  0  0  0
  182.1180  177.7520  136.3500 S   0  0  0  0  0  0  0  0  0  0  0  0
  180.9050  176.9060  136.6230 O   0  0  0  0  0  0  0  0  0  0  0  0
  183.5390  176.7580  136.2600 N   0  0  0  0  0  2  0  0  0  0  0  0
  182.1020  174.7130  135.3300 O   0  0  0  0  0  0  0  0  0  0  0  0
  183.0910  175.0630  136.4220 P   0  0  2  0  0  0  0  0  0  0  0  0
  182.3530  174.7900  137.9220 O   0  0  0  0  0  1  0  0  0  0  0  0
  184.8090  173.2690  137.5940 C   0  0  0  0  0  2  0  0  0  0  0  0
  184.5500  173.9800  136.2780 C   0  0  0  0  0  3  0  0  0  0  0  0
  185.6390  174.4720  137.2120 C   0  0  0  0  0  2  0  0  0  0  0  0
  1 37  1  6  0  0  0
  1 10  1  0  0  0  0
  2  6  1  0  0  0  0
  3  5  1  0  0  0  0
  4  9  2  0  0  0  0
  4  7  1  0  0  0  0
  5  7  2  0  0  0  0
  6  3  2  0  0  0  0
  8 11  1  0  0  0  0
  8  2  2  0  0  0  0
 10  6  1  6  0  0  0
 10  4  1  0  0  0  0
 11  1  1  0  0  0  0
 12 20  1  6  0  0  0
 12 16  1  0  0  0  0
 12 19  1  0  0  0  0
 15 14  2  0  0  0  0
 16 13  1  6  0  0  0
 16 15  1  0  0  0  0
 17 18  1  0  0  0  0
 18 23  1  0  0  0  0
 19 23  1  6  0  0  0
 19 22  1  0  0  0  0
 21 24  1  6  0  0  0
 21 17  1  0  0  0  0
 21 20  1  0  0  0  0
 22 14  1  0  0  0  0
 22  8  1  1  0  0  0
 24 25  1  6  0  0  0
 26 27  1  0  0  0  0
 27 24  1  0  0  0  0
 28 30  2  0  0  0  0
 29 30  2  0  0  0  0
 30 27  1  0  0  0  0
 31 36  1  0  0  0  0
 32 31  1  0  0  0  0
 32 35  1  0  0  0  0
 33 36  1  0  0  0  0
 33 35  1  0  0  0  0
 35 34  1  6  0  0  0
 36 30  1  6  0  0  0
 39 38  1  1  0  0  0
 39 40  1  0  0  0  0
 40 45  1  1  0  0  0
 42 37  1  1  0  0  0
 42 40  1  0  0  0  0
 43 42  1  0  0  0  0
 44 39  1  0  0  0  0
 46 41  1  6  0  0  0
 46 47  1  0  0  0  0
 46 43  1  0  0  0  0
 47 44  1  6  0  0  0
 47 39  1  0  0  0  0
 48 46  1  0  0  0  0
 49 48  1  0  0  0  0
 50 49  1  0  0  0  0
 51 54  1  0  0  0  0
 51 50  1  1  0  0  0
 53 54  2  0  0  0  0
 54 52  1  0  0  0  0
 55 56  2  0  0  0  0
 56 57  2  0  0  0  0
 56 51  1  0  0  0  0
 58 56  1  0  0  0  0
 58 60  1  0  0  0  0
 60 59  2  6  0  0  0
 60 61  1  0  0  0  0
 63 60  1  0  0  0  0
 63 64  1  0  0  0  0
 63 62  1  0  0  0  0
 64 62  1  0  0  0  0
M  END
>  <MODEL>
8

>  <REMARK>
 VINA RESULT:      -5.9      3.167      9.925
  Name = 
  16 active torsions:
  status: ('A' for Active; 'I' for Inactive)
    1  A    between atoms: C_1  and  N_43
    2  A    between atoms: C_6  and  C_50
    3  A    between atoms: C_6  and  C_56
    4  A    between atoms: C_7  and  N_41
    5  A    between atoms: C_7  and  C_51
    6  A    between atoms: P_15  and  C_22
    7  A    between atoms: P_15  and  N_64
    8  A    between atoms: C_32  and  C_52
    9  A    between atoms: C_38  and  N_43
   10  A    between atoms: N_41  and  S_57
   11  A    between atoms: S_46  and  C_62
   12  A    between atoms: S_46  and  N_64
   13  A    between atoms: C_49  and  C_62
   14  A    between atoms: C_56  and  C_63
   15  A    between atoms: S_57  and  C_59
   16  A    between atoms: C_62  and  C_63
                            x       y       z     vdW  Elec       q    Type
                         _______ _______ _______ _____ _____    ______ ____

>  <TORSDO>
F 16

$$$$
=
 OpenBabel11032421233D

 64 71  0  0  1  0  0  0  0  0999 V2000
  186.3580  177.4880  144.8530 C   0  0  2  0  0  3  0  0  0  0  0  0
  189.2240  177.6080  144.6320 C   0  0  0  0  0  3  0  0  0  0  0  0
  189.3760  178.2670  147.0190 C   0  0  0  0  0  3  0  0  0  0  0  0
  186.6230  178.0300  147.3210 C   0  0  0  0  0  0  0  0  0  0  0  0
  188.7580  178.5230  148.2450 C   0  0  0  0  0  3  0  0  0  0  0  0
  188.5960  177.8780  145.9310 C   0  0  0  0  0  0  0  0  0  0  0  0
  187.4100  178.3950  148.3680 N   0  0  0  0  0  0  0  0  0  0  0  0
  188.4930  177.1110  143.6360 C   0  0  0  0  0  0  0  0  0  0  0  0
  185.3780  177.9440  147.4780 O   0  0  0  0  0  0  0  0  0  0  0  0
  187.2030  177.7610  146.0730 C   0  0  2  0  0  3  0  0  0  0  0  0
  187.1260  176.8450  143.8280 O   0  0  0  0  0  0  0  0  0  0  0  0
  189.7790  177.5930  140.1650 C   0  0  1  0  0  3  0  0  0  0  0  0
  191.8780  176.8440  139.2870 O   0  0  0  0  0  1  0  0  0  0  0  0
  190.5500  176.3480  142.5240 C   0  0  0  0  0  3  0  0  0  0  0  0
  191.5210  176.5930  141.6280 C   0  0  0  0  0  3  0  0  0  0  0  0
  191.2790  177.4410  140.4020 C   0  0  2  0  0  3  0  0  0  0  0  0
  187.1250  178.1790  139.0390 C   0  0  0  0  0  2  0  0  0  0  0  0
  187.0340  177.6050  140.3160 O   0  0  0  0  0  0  0  0  0  0  0  0
  189.1180  178.0230  141.4140 N   0  0  2  0  0  0  0  0  0  0  0  0
  189.5080  178.4490  139.0900 O   0  0  0  0  0  0  0  0  0  0  0  0
  188.4690  177.8040  138.4100 C   0  0  2  0  0  3  0  0  0  0  0  0
  189.1370  176.8490  142.3090 C   0  0  2  0  0  3  0  0  0  0  0  0
  187.7310  178.4730  141.1730 C   0  0  0  0  0  2  0  0  0  0  0  0
  188.5960  178.0180  136.8930 C   0  0  2  0  0  3  0  0  0  0  0  0
  188.1990  179.4260  136.4230 C   0  0  0  0  0  1  0  0  0  0  0  0
  187.5410  177.3820  134.9510 O   0  0  0  0  0  1  0  0  0  0  0  0
  187.8450  176.9580  136.2050 N   0  0  0  0  0  0  0  0  0  0  0  0
  189.1360  175.2720  134.6020 O   0  0  0  0  0  0  0  0  0  0  0  0
  190.0610  175.6180  136.8540 O   0  0  0  0  0  0  0  0  0  0  0  0
  188.7910  175.5040  136.0500 S   0  0  0  0  0  0  0  0  0  0  0  0
  188.6590  172.8700  136.7330 C   0  0  0  0  0  2  0  0  0  0  0  0
  187.9610  171.7500  136.1040 N   0  0  0  0  0  2  0  0  0  0  0  0
  186.4060  173.8190  135.5630 S   0  0  0  0  0  0  0  0  0  0  0  0
  185.8490  171.2130  135.0270 C   0  0  0  0  0  1  0  0  0  0  0  0
  186.5480  172.0900  136.0480 C   0  0  1  0  0  3  0  0  0  0  0  0
  187.8170  174.1350  136.6480 C   0  0  2  0  0  3  0  0  0  0  0  0
  185.8400  178.7520  144.3500 N   0  0  0  0  0  2  0  0  0  0  0  0
  180.9240  178.8900  144.1950 F   0  0  0  0  0  0  0  0  0  0  0  0
  182.1570  179.0380  143.5880 C   0  0  2  0  0  0  0  0  0  0  0  0
  183.4200  179.0090  144.4410 C   0  0  2  0  0  3  0  0  0  0  0  0
  183.8320  177.1550  141.2360 C   0  0  0  0  0  1  0  0  0  0  0  0
  184.6040  178.4870  143.6310 C   0  0  1  0  0  3  0  0  0  0  0  0
  184.6610  179.1280  142.3770 O   0  0  0  0  0  0  0  0  0  0  0  0
  182.1460  180.1500  142.7240 O   0  0  0  0  0  0  0  0  0  0  0  0
  183.2140  178.1800  145.5460 O   0  0  0  0  0  1  0  0  0  0  0  0
  183.6320  178.6410  141.5300 C   0  0  2  0  0  0  0  0  0  0  0  0
  182.2150  178.8790  142.1110 C   0  0  1  0  0  3  0  0  0  0  0  0
  183.7520  179.4060  140.2090 C   0  0  0  0  0  2  0  0  0  0  0  0
  182.5080  179.3080  139.3340 C   0  0  0  0  0  2  0  0  0  0  0  0
  182.6520  178.1360  138.3840 C   0  0  0  0  0  2  0  0  0  0  0  0
  181.2880  177.6830  137.8850 C   0  0  2  0  0  3  0  0  0  0  0  0
  179.6460  178.6440  139.5120 O   0  0  0  0  0  1  0  0  0  0  0  0
  179.9150  179.5750  137.4360 O   0  0  0  0  0  0  0  0  0  0  0  0
  180.2520  178.6860  138.2610 C   0  0  0  0  0  0  0  0  0  0  0  0
  179.5120  175.6640  138.0330 O   0  0  0  0  0  0  0  0  0  0  0  0
  180.8640  176.0750  138.5480 S   0  0  0  0  0  0  0  0  0  0  0  0
  180.8230  176.1590  140.0490 O   0  0  0  0  0  0  0  0  0  0  0  0
  182.0560  174.9180  138.0420 N   0  0  0  0  0  2  0  0  0  0  0  0
  183.2000  175.6170  135.7360 O   0  0  0  0  0  1  0  0  0  0  0  0
  182.0560  174.7910  136.2860 P   0  0  2  0  0  0  0  0  0  0  0  0
  180.6060  175.3970  135.6530 O   0  0  0  0  0  0  0  0  0  0  0  0
  181.4410  172.1380  136.6390 C   0  0  0  0  0  2  0  0  0  0  0  0
  182.2540  173.0610  135.7510 C   0  0  0  0  0  3  0  0  0  0  0  0
  182.9310  172.2650  136.8510 C   0  0  0  0  0  2  0  0  0  0  0  0
  1 37  1  6  0  0  0
  1 10  1  0  0  0  0
  2  6  1  0  0  0  0
  3  5  1  0  0  0  0
  4  9  2  0  0  0  0
  4  7  1  0  0  0  0
  5  7  2  0  0  0  0
  6  3  2  0  0  0  0
  8 11  1  0  0  0  0
  8  2  2  0  0  0  0
 10  6  1  6  0  0  0
 10  4  1  0  0  0  0
 11  1  1  0  0  0  0
 12 20  1  6  0  0  0
 12 16  1  0  0  0  0
 12 19  1  0  0  0  0
 15 14  2  0  0  0  0
 16 13  1  6  0  0  0
 16 15  1  0  0  0  0
 17 18  1  0  0  0  0
 18 23  1  0  0  0  0
 19 23  1  6  0  0  0
 19 22  1  0  0  0  0
 21 24  1  6  0  0  0
 21 17  1  0  0  0  0
 21 20  1  0  0  0  0
 22 14  1  0  0  0  0
 22  8  1  1  0  0  0
 24 25  1  1  0  0  0
 26 27  1  0  0  0  0
 27 24  1  0  0  0  0
 28 30  2  0  0  0  0
 30 27  1  0  0  0  0
 30 29  2  0  0  0  0
 32 31  1  0  0  0  0
 33 35  1  0  0  0  0
 33 36  1  0  0  0  0
 35 34  1  6  0  0  0
 35 32  1  0  0  0  0
 36 30  1  6  0  0  0
 36 31  1  0  0  0  0
 39 38  1  1  0  0  0
 39 40  1  0  0  0  0
 40 45  1  1  0  0  0
 42 37  1  1  0  0  0
 42 40  1  0  0  0  0
 43 42  1  0  0  0  0
 44 39  1  0  0  0  0
 46 41  1  6  0  0  0
 46 47  1  0  0  0  0
 46 43  1  0  0  0  0
 47 44  1  6  0  0  0
 47 39  1  0  0  0  0
 48 46  1  0  0  0  0
 49 48  1  0  0  0  0
 50 49  1  0  0  0  0
 51 54  1  0  0  0  0
 51 50  1  1  0  0  0
 51 56  1  0  0  0  0
 53 54  2  0  0  0  0
 54 52  1  0  0  0  0
 55 56  2  0  0  0  0
 56 57  2  0  0  0  0
 58 56  1  0  0  0  0
 59 60  1  0  0  0  0
 60 61  2  6  0  0  0
 60 58  1  0  0  0  0
 62 64  1  0  0  0  0
 63 60  1  0  0  0  0
 63 62  1  0  0  0  0
 63 64  1  0  0  0  0
M  END
>  <MODEL>
9

>  <REMARK>
 VINA RESULT:      -5.9      3.477      9.596
  Name = 
  16 active torsions:
  status: ('A' for Active; 'I' for Inactive)
    1  A    between atoms: C_1  and  N_43
    2  A    between atoms: C_6  and  C_50
    3  A    between atoms: C_6  and  C_56
    4  A    between atoms: C_7  and  N_41
    5  A    between atoms: C_7  and  C_51
    6  A    between atoms: P_15  and  C_22
    7  A    between atoms: P_15  and  N_64
    8  A    between atoms: C_32  and  C_52
    9  A    between atoms: C_38  and  N_43
   10  A    between atoms: N_41  and  S_57
   11  A    between atoms: S_46  and  C_62
   12  A    between atoms: S_46  and  N_64
   13  A    between atoms: C_49  and  C_62
   14  A    between atoms: C_56  and  C_63
   15  A    between atoms: S_57  and  C_59
   16  A    between atoms: C_62  and  C_63
                            x       y       z     vdW  Elec       q    Type
                         _______ _______ _______ _____ _____    ______ ____

>  <TORSDO>
F 16

$$$$
