=
 OpenBabel11032421293D

 34 37  0  0  1  0  0  0  0  0999 V2000
  188.2710  177.0320  142.4580 C   0  0  1  0  0  3  0  0  0  0  0  0
  186.7460  178.6270  139.6880 N   0  0  0  0  0  0  0  0  0  0  0  0
  185.9820  178.8990  140.7400 N   0  0  0  0  0  0  0  0  0  0  0  0
  187.1280  177.0710  143.4570 C   0  0  0  0  0  3  0  0  0  0  0  0
  186.2370  177.9840  143.0640 C   0  0  0  0  0  0  0  0  0  0  0  0
  186.7100  178.5660  141.8230 C   0  0  0  0  0  0  0  0  0  0  0  0
  187.8870  178.0750  140.1570 C   0  0  0  0  0  0  0  0  0  0  0  0
  187.8910  178.0640  141.5010 N   0  0  0  0  0  0  0  0  0  0  0  0
  190.3980  177.5880  139.5320 C   0  0  0  0  0  2  0  0  0  0  0  0
  192.7980  175.9040  136.9450 C   0  0  0  0  0  0  0  0  0  0  0  0
  188.9290  177.4730  139.3070 C   0  0  0  0  0  0  0  0  0  0  0  0
  189.9370  176.3600  137.6010 N   0  0  0  0  0  0  0  0  0  0  0  0
  192.2760  176.6230  138.0670 N   0  0  0  0  0  2  0  0  0  0  0  0
  194.2690  175.8140  136.7560 C   0  0  0  0  0  1  0  0  0  0  0  0
  190.8860  176.8180  138.3500 C   0  0  0  0  0  0  0  0  0  0  0  0
  188.7210  176.7720  138.2020 C   0  0  0  0  0  0  0  0  0  0  0  0
  187.5030  176.4810  137.6840 F   0  0  0  0  0  0  0  0  0  0  0  0
  192.0310  175.3590  136.1070 O   0  0  0  0  0  0  0  0  0  0  0  0
  184.9890  178.2140  143.7240 N   0  0  0  0  0  2  0  0  0  0  0  0
  183.4890  179.2400  145.3880 N   0  0  0  0  0  1  0  0  0  0  0  0
  184.8070  178.9670  144.9270 C   0  0  0  0  0  0  0  0  0  0  0  0
  185.7940  179.3640  145.6010 O   0  0  0  0  0  0  0  0  0  0  0  0
  189.6160  177.3490  143.1130 C   0  0  0  0  0  2  0  0  0  0  0  0
  190.5510  176.1510  143.1520 C   0  0  0  0  0  2  0  0  0  0  0  0
  191.4880  176.2800  144.3340 C   0  0  0  0  0  2  0  0  0  0  0  0
  190.9890  177.3830  145.2460 C   0  0  0  0  0  2  0  0  0  0  0  0
  191.3650  177.0990  146.6310 N   0  0  0  0  0  0  0  0  0  0  0  0
  190.4450  178.1340  148.7280 C   0  0  0  0  0  1  0  0  0  0  0  0
  190.1960  177.2400  147.5160 C   0  0  1  0  0  3  0  0  0  0  0  0
  187.8370  176.8150  147.0440 N   0  0  0  0  0  2  0  0  0  0  0  0
  188.9700  177.7040  146.7420 C   0  0  1  0  0  3  0  0  0  0  0  0
  187.9330  178.1440  147.6680 C   0  0  0  0  0  2  0  0  0  0  0  0
  192.0630  175.8070  146.7760 C   0  0  0  0  0  2  0  0  0  0  0  0
  192.8090  175.6480  148.1020 C   0  0  0  0  0  1  0  0  0  0  0  0
  1 23  1  1  0  0  0
  1  4  1  0  0  0  0
  2  7  2  0  0  0  0
  2  3  1  0  0  0  0
  3  6  2  0  0  0  0
  5  4  2  0  0  0  0
  5 19  1  0  0  0  0
  6  5  1  0  0  0  0
  7  8  1  0  0  0  0
  8  6  1  0  0  0  0
  8  1  1  0  0  0  0
 10 13  1  0  0  0  0
 11  9  1  0  0  0  0
 11  7  1  0  0  0  0
 12 16  1  0  0  0  0
 12 15  2  0  0  0  0
 13 15  1  0  0  0  0
 14 10  1  0  0  0  0
 15  9  1  0  0  0  0
 16 11  2  0  0  0  0
 17 16  1  0  0  0  0
 18 10  2  0  0  0  0
 19 21  1  0  0  0  0
 21 20  1  0  0  0  0
 21 22  2  0  0  0  0
 23 24  1  0  0  0  0
 24 25  1  0  0  0  0
 25 26  1  0  0  0  0
 26 27  1  0  0  0  0
 27 33  1  0  0  0  0
 27 29  1  0  0  0  0
 29 28  1  1  0  0  0
 30 32  1  0  0  0  0
 31 30  1  0  0  0  0
 31 29  1  1  0  0  0
 31 32  1  0  0  0  0
 33 34  1  0  0  0  0
M  END
>  <MODEL>
1

>  <REMARK>
 VINA RESULT:      -8.1      0.000      0.000
  Name = 
  10 active torsions:
  status: ('A' for Active; 'I' for Inactive)
    1  A    between atoms: C_1  and  C_2
    2  A    between atoms: C_1  and  C_24
    3  A    between atoms: C_6  and  C_11
    4  A    between atoms: C_6  and  N_15
    5  A    between atoms: N_8  and  C_17
    6  A    between atoms: C_9  and  C_31
    7  A    between atoms: C_11  and  C_24
    8  A    between atoms: N_15  and  C_16
    9  A    between atoms: N_15  and  C_30
   10  A    between atoms: C_27  and  C_30
                            x       y       z     vdW  Elec       q    Type
                         _______ _______ _______ _____ _____    ______ ____

>  <TORSDO>
F 10

$$$$
=
 OpenBabel11032421293D

 34 37  0  0  1  0  0  0  0  0999 V2000
  189.9190  177.0350  140.9650 C   0  0  1  0  0  3  0  0  0  0  0  0
  189.5890  177.9400  137.5570 N   0  0  0  0  0  0  0  0  0  0  0  0
  188.6640  178.6300  138.2160 N   0  0  0  0  0  0  0  0  0  0  0  0
  188.5990  177.5470  141.5110 C   0  0  0  0  0  3  0  0  0  0  0  0
  188.0830  178.4260  140.6500 C   0  0  0  0  0  0  0  0  0  0  0  0
  188.9860  178.5290  139.5200 C   0  0  0  0  0  0  0  0  0  0  0  0
  190.4040  177.3850  138.4800 C   0  0  0  0  0  0  0  0  0  0  0  0
  190.0570  177.7780  139.7180 N   0  0  0  0  0  0  0  0  0  0  0  0
  192.9250  176.6610  138.2470 C   0  0  0  0  0  2  0  0  0  0  0  0
  195.3590  173.7720  137.2380 C   0  0  0  0  0  0  0  0  0  0  0  0
  191.4580  176.4030  138.1740 C   0  0  0  0  0  0  0  0  0  0  0  0
  192.4890  174.4850  137.5220 N   0  0  0  0  0  0  0  0  0  0  0  0
  194.8230  175.0270  137.6720 N   0  0  0  0  0  2  0  0  0  0  0  0
  196.8310  173.6120  137.1170 C   0  0  0  0  0  1  0  0  0  0  0  0
  193.4290  175.3290  137.7990 C   0  0  0  0  0  0  0  0  0  0  0  0
  191.2660  175.1610  137.7570 C   0  0  0  0  0  0  0  0  0  0  0  0
  190.0530  174.5860  137.5620 F   0  0  0  0  0  0  0  0  0  0  0  0
  194.6040  172.8080  136.9420 O   0  0  0  0  0  0  0  0  0  0  0  0
  186.7960  179.0330  140.8070 N   0  0  0  0  0  2  0  0  0  0  0  0
  184.3900  179.3300  140.3690 N   0  0  0  0  0  1  0  0  0  0  0  0
  185.6440  178.7650  140.0030 C   0  0  0  0  0  0  0  0  0  0  0  0
  185.7270  178.0650  138.9600 O   0  0  0  0  0  0  0  0  0  0  0  0
  191.0830  177.3220  141.9140 C   0  0  0  0  0  2  0  0  0  0  0  0
  190.7090  178.2780  143.0360 C   0  0  0  0  0  2  0  0  0  0  0  0
  191.4900  177.9230  144.2830 C   0  0  0  0  0  2  0  0  0  0  0  0
  190.7610  176.8240  145.0310 C   0  0  0  0  0  2  0  0  0  0  0  0
  190.3190  177.3120  146.3370 N   0  0  0  0  0  0  0  0  0  0  0  0
  188.4010  177.2100  147.9580 C   0  0  0  0  0  1  0  0  0  0  0  0
  188.8790  177.0550  146.5170 C   0  0  1  0  0  3  0  0  0  0  0  0
  187.1910  177.0370  144.7510 N   0  0  0  0  0  2  0  0  0  0  0  0
  188.0440  177.9100  145.5730 C   0  0  1  0  0  3  0  0  0  0  0  0
  186.6280  177.7690  145.8960 C   0  0  0  0  0  2  0  0  0  0  0  0
  191.1520  176.8030  147.4440 C   0  0  0  0  0  2  0  0  0  0  0  0
  192.1320  175.7040  147.0320 C   0  0  0  0  0  1  0  0  0  0  0  0
  1  4  1  0  0  0  0
  1 23  1  1  0  0  0
  2  3  1  0  0  0  0
  2  7  2  0  0  0  0
  3  6  2  0  0  0  0
  5 19  1  0  0  0  0
  5  4  2  0  0  0  0
  6  8  1  0  0  0  0
  6  5  1  0  0  0  0
  7  8  1  0  0  0  0
  8  1  1  0  0  0  0
 10 13  1  0  0  0  0
 11  9  1  0  0  0  0
 11  7  1  0  0  0  0
 12 16  1  0  0  0  0
 12 15  2  0  0  0  0
 13 15  1  0  0  0  0
 14 10  1  0  0  0  0
 15  9  1  0  0  0  0
 16 11  2  0  0  0  0
 17 16  1  0  0  0  0
 18 10  2  0  0  0  0
 21 20  1  0  0  0  0
 21 19  1  0  0  0  0
 22 21  2  0  0  0  0
 23 24  1  0  0  0  0
 24 25  1  0  0  0  0
 25 26  1  0  0  0  0
 26 27  1  0  0  0  0
 27 29  1  0  0  0  0
 27 33  1  0  0  0  0
 29 28  1  1  0  0  0
 30 31  1  0  0  0  0
 30 32  1  0  0  0  0
 31 32  1  0  0  0  0
 31 29  1  1  0  0  0
 34 33  1  0  0  0  0
M  END
>  <MODEL>
2

>  <REMARK>
 VINA RESULT:      -8.0      2.203      3.088
  Name = 
  10 active torsions:
  status: ('A' for Active; 'I' for Inactive)
    1  A    between atoms: C_1  and  C_2
    2  A    between atoms: C_1  and  C_24
    3  A    between atoms: C_6  and  C_11
    4  A    between atoms: C_6  and  N_15
    5  A    between atoms: N_8  and  C_17
    6  A    between atoms: C_9  and  C_31
    7  A    between atoms: C_11  and  C_24
    8  A    between atoms: N_15  and  C_16
    9  A    between atoms: N_15  and  C_30
   10  A    between atoms: C_27  and  C_30
                            x       y       z     vdW  Elec       q    Type
                         _______ _______ _______ _____ _____    ______ ____

>  <TORSDO>
F 10

$$$$
=
 OpenBabel11032421293D

 34 37  0  0  1  0  0  0  0  0999 V2000
  188.6130  176.7090  142.1750 C   0  0  1  0  0  3  0  0  0  0  0  0
  187.7570  178.4380  139.2050 N   0  0  0  0  0  0  0  0  0  0  0  0
  186.9740  178.9280  140.1600 N   0  0  0  0  0  0  0  0  0  0  0  0
  187.4150  177.0510  143.0430 C   0  0  0  0  0  3  0  0  0  0  0  0
  186.7920  178.1120  142.5270 C   0  0  0  0  0  0  0  0  0  0  0  0
  187.5010  178.5070  141.3250 C   0  0  0  0  0  0  0  0  0  0  0  0
  188.6950  177.6790  139.8120 C   0  0  0  0  0  0  0  0  0  0  0  0
  188.5670  177.7430  141.1490 N   0  0  0  0  0  0  0  0  0  0  0  0
  189.3000  175.7860  138.0840 C   0  0  0  0  0  2  0  0  0  0  0  0
  192.1880  173.6620  136.5230 C   0  0  0  0  0  0  0  0  0  0  0  0
  189.6560  176.8190  139.0990 C   0  0  0  0  0  0  0  0  0  0  0  0
  191.6040  175.8420  138.4560 N   0  0  0  0  0  0  0  0  0  0  0  0
  190.9040  174.2080  136.8440 N   0  0  0  0  0  2  0  0  0  0  0  0
  192.2830  172.5390  135.5560 C   0  0  0  0  0  1  0  0  0  0  0  0
  190.6650  175.2630  137.7810 C   0  0  0  0  0  0  0  0  0  0  0  0
  190.9680  176.8080  139.2740 C   0  0  0  0  0  0  0  0  0  0  0  0
  191.6440  177.6090  140.1350 F   0  0  0  0  0  0  0  0  0  0  0  0
  193.2380  174.1090  137.0590 O   0  0  0  0  0  0  0  0  0  0  0  0
  185.5670  178.6440  143.0420 N   0  0  0  0  0  2  0  0  0  0  0  0
  183.1200  178.8460  143.2400 N   0  0  0  0  0  1  0  0  0  0  0  0
  184.2590  178.3670  142.5340 C   0  0  0  0  0  0  0  0  0  0  0  0
  184.1000  177.7340  141.4570 O   0  0  0  0  0  0  0  0  0  0  0  0
  189.9250  176.7640  142.9600 C   0  0  0  0  0  2  0  0  0  0  0  0
  190.4320  178.1820  143.1660 C   0  0  0  0  0  2  0  0  0  0  0  0
  190.7340  178.4020  144.6330 C   0  0  0  0  0  2  0  0  0  0  0  0
  190.1070  177.2850  145.4430 C   0  0  0  0  0  2  0  0  0  0  0  0
  189.9640  177.6950  146.8390 N   0  0  0  0  0  0  0  0  0  0  0  0
  188.3370  177.8870  148.7460 C   0  0  0  0  0  1  0  0  0  0  0  0
  188.5810  177.4700  147.2980 C   0  0  1  0  0  3  0  0  0  0  0  0
  186.3810  177.2820  146.2520 N   0  0  0  0  0  2  0  0  0  0  0  0
  187.5760  178.1330  146.3650 C   0  0  1  0  0  3  0  0  0  0  0  0
  186.3670  178.4810  147.1040 C   0  0  0  0  0  2  0  0  0  0  0  0
  190.9830  177.0860  147.7160 C   0  0  0  0  0  2  0  0  0  0  0  0
  191.6270  175.8250  147.1400 C   0  0  0  0  0  1  0  0  0  0  0  0
  1 23  1  1  0  0  0
  1  4  1  0  0  0  0
  2  7  2  0  0  0  0
  2  3  1  0  0  0  0
  3  6  2  0  0  0  0
  5 19  1  0  0  0  0
  5  4  2  0  0  0  0
  6  5  1  0  0  0  0
  7  8  1  0  0  0  0
  8  6  1  0  0  0  0
  8  1  1  0  0  0  0
  9 11  1  0  0  0  0
 10 13  1  0  0  0  0
 10 18  2  0  0  0  0
 11 16  2  0  0  0  0
 11  7  1  0  0  0  0
 12 16  1  0  0  0  0
 13 15  1  0  0  0  0
 14 10  1  0  0  0  0
 15  9  1  0  0  0  0
 15 12  2  0  0  0  0
 16 17  1  0  0  0  0
 21 19  1  0  0  0  0
 21 20  1  0  0  0  0
 22 21  2  0  0  0  0
 23 24  1  0  0  0  0
 24 25  1  0  0  0  0
 25 26  1  0  0  0  0
 26 27  1  0  0  0  0
 27 29  1  0  0  0  0
 27 33  1  0  0  0  0
 29 28  1  1  0  0  0
 30 31  1  0  0  0  0
 30 32  1  0  0  0  0
 31 32  1  0  0  0  0
 31 29  1  1  0  0  0
 34 33  1  0  0  0  0
M  END
>  <MODEL>
3

>  <REMARK>
 VINA RESULT:      -8.0      1.837      2.136
  Name = 
  10 active torsions:
  status: ('A' for Active; 'I' for Inactive)
    1  A    between atoms: C_1  and  C_2
    2  A    between atoms: C_1  and  C_24
    3  A    between atoms: C_6  and  C_11
    4  A    between atoms: C_6  and  N_15
    5  A    between atoms: N_8  and  C_17
    6  A    between atoms: C_9  and  C_31
    7  A    between atoms: C_11  and  C_24
    8  A    between atoms: N_15  and  C_16
    9  A    between atoms: N_15  and  C_30
   10  A    between atoms: C_27  and  C_30
                            x       y       z     vdW  Elec       q    Type
                         _______ _______ _______ _____ _____    ______ ____

>  <TORSDO>
F 10

$$$$
=
 OpenBabel11032421293D

 34 37  0  0  1  0  0  0  0  0999 V2000
  187.5630  177.2730  143.3890 C   0  0  1  0  0  3  0  0  0  0  0  0
  185.9970  178.3920  146.3620 N   0  0  0  0  0  0  0  0  0  0  0  0
  187.2420  178.0660  146.6960 N   0  0  0  0  0  0  0  0  0  0  0  0
  188.7790  176.5730  143.9690 C   0  0  0  0  0  3  0  0  0  0  0  0
  188.9660  176.9920  145.2220 C   0  0  0  0  0  0  0  0  0  0  0  0
  187.9160  177.9410  145.5380 C   0  0  0  0  0  0  0  0  0  0  0  0
  185.9360  178.3890  145.0120 C   0  0  0  0  0  0  0  0  0  0  0  0
  187.1460  178.1420  144.4820 N   0  0  0  0  0  0  0  0  0  0  0  0
  184.5630  178.3310  142.7660 C   0  0  0  0  0  2  0  0  0  0  0  0
  181.0650  178.9230  141.1210 C   0  0  0  0  0  0  0  0  0  0  0  0
  184.6910  178.5320  144.2380 C   0  0  0  0  0  0  0  0  0  0  0  0
  182.5230  178.9630  143.7100 N   0  0  0  0  0  0  0  0  0  0  0  0
  182.4470  178.6200  141.3350 N   0  0  0  0  0  2  0  0  0  0  0  0
  180.5160  178.8900  139.7410 C   0  0  0  0  0  1  0  0  0  0  0  0
  183.1120  178.6470  142.6030 C   0  0  0  0  0  0  0  0  0  0  0  0
  183.5110  178.8890  144.7230 C   0  0  0  0  0  0  0  0  0  0  0  0
  183.2580  179.1670  146.0250 F   0  0  0  0  0  0  0  0  0  0  0  0
  180.3090  179.2310  142.0810 O   0  0  0  0  0  0  0  0  0  0  0  0
  189.9690  176.4640  146.0970 N   0  0  0  0  0  2  0  0  0  0  0  0
  192.1760  176.3890  147.1880 N   0  0  0  0  0  1  0  0  0  0  0  0
  191.3300  176.9000  146.1650 C   0  0  0  0  0  0  0  0  0  0  0  0
  191.7990  177.7030  145.3160 O   0  0  0  0  0  0  0  0  0  0  0  0
  187.9090  178.0800  142.1370 C   0  0  0  0  0  2  0  0  0  0  0  0
  189.2390  177.6750  141.5210 C   0  0  0  0  0  2  0  0  0  0  0  0
  189.0440  177.3790  140.0490 C   0  0  0  0  0  2  0  0  0  0  0  0
  187.9340  178.2570  139.5080 C   0  0  0  0  0  2  0  0  0  0  0  0
  187.7220  177.9830  138.0870 N   0  0  0  0  0  0  0  0  0  0  0  0
  185.7500  177.3650  136.6560 C   0  0  0  0  0  1  0  0  0  0  0  0
  186.3360  178.3050  137.7060 C   0  0  1  0  0  3  0  0  0  0  0  0
  184.8000  179.7110  138.9840 N   0  0  0  0  0  2  0  0  0  0  0  0
  185.4310  178.3830  138.9290 C   0  0  1  0  0  3  0  0  0  0  0  0
  184.0430  178.5420  138.5120 C   0  0  0  0  0  2  0  0  0  0  0  0
  188.7350  178.6270  137.2280 C   0  0  0  0  0  2  0  0  0  0  0  0
  189.4290  177.6690  136.2590 C   0  0  0  0  0  1  0  0  0  0  0  0
  1 23  1  6  0  0  0
  1  4  1  0  0  0  0
  1  8  1  0  0  0  0
  2  3  1  0  0  0  0
  4  5  2  0  0  0  0
  5  6  1  0  0  0  0
  5 19  1  0  0  0  0
  6  3  2  0  0  0  0
  7  2  2  0  0  0  0
  8  7  1  0  0  0  0
  8  6  1  0  0  0  0
  9 11  1  0  0  0  0
 10 13  1  0  0  0  0
 10 18  2  0  0  0  0
 11 16  2  0  0  0  0
 11  7  1  0  0  0  0
 12 16  1  0  0  0  0
 13 15  1  0  0  0  0
 14 10  1  0  0  0  0
 15  9  1  0  0  0  0
 15 12  2  0  0  0  0
 16 17  1  0  0  0  0
 19 21  1  0  0  0  0
 21 20  1  0  0  0  0
 22 21  2  0  0  0  0
 24 23  1  0  0  0  0
 25 24  1  0  0  0  0
 26 25  1  0  0  0  0
 27 26  1  0  0  0  0
 29 28  1  6  0  0  0
 29 27  1  0  0  0  0
 31 29  1  6  0  0  0
 31 30  1  0  0  0  0
 32 31  1  0  0  0  0
 32 30  1  0  0  0  0
 33 27  1  0  0  0  0
 34 33  1  0  0  0  0
M  END
>  <MODEL>
4

>  <REMARK>
 VINA RESULT:      -7.9      3.376      8.470
  Name = 
  10 active torsions:
  status: ('A' for Active; 'I' for Inactive)
    1  A    between atoms: C_1  and  C_2
    2  A    between atoms: C_1  and  C_24
    3  A    between atoms: C_6  and  C_11
    4  A    between atoms: C_6  and  N_15
    5  A    between atoms: N_8  and  C_17
    6  A    between atoms: C_9  and  C_31
    7  A    between atoms: C_11  and  C_24
    8  A    between atoms: N_15  and  C_16
    9  A    between atoms: N_15  and  C_30
   10  A    between atoms: C_27  and  C_30
                            x       y       z     vdW  Elec       q    Type
                         _______ _______ _______ _____ _____    ______ ____

>  <TORSDO>
F 10

$$$$
=
 OpenBabel11032421293D

 34 37  0  0  1  0  0  0  0  0999 V2000
  188.8220  177.3290  144.2260 C   0  0  1  0  0  3  0  0  0  0  0  0
  186.5620  178.1010  146.8410 N   0  0  0  0  0  0  0  0  0  0  0  0
  187.7390  177.8820  147.4190 N   0  0  0  0  0  0  0  0  0  0  0  0
  189.9620  176.7200  145.0230 C   0  0  0  0  0  3  0  0  0  0  0  0
  189.8390  177.0780  146.3020 C   0  0  0  0  0  0  0  0  0  0  0  0
  188.6480  177.8960  146.4260 C   0  0  0  0  0  0  0  0  0  0  0  0
  186.7810  178.1750  145.5100 C   0  0  0  0  0  0  0  0  0  0  0  0
  188.0940  178.0840  145.2390 N   0  0  0  0  0  0  0  0  0  0  0  0
  185.8900  177.9640  143.0410 C   0  0  0  0  0  2  0  0  0  0  0  0
  182.7830  178.3610  140.7010 C   0  0  0  0  0  0  0  0  0  0  0  0
  185.7140  178.2400  144.4960 C   0  0  0  0  0  0  0  0  0  0  0  0
  183.6880  178.5740  143.5230 N   0  0  0  0  0  0  0  0  0  0  0  0
  184.1000  178.1140  141.2030 N   0  0  0  0  0  2  0  0  0  0  0  0
  182.5240  178.2430  139.2430 C   0  0  0  0  0  1  0  0  0  0  0  0
  184.4950  178.2240  142.5750 C   0  0  0  0  0  0  0  0  0  0  0  0
  184.4540  178.5820  144.7150 C   0  0  0  0  0  0  0  0  0  0  0  0
  183.9380  178.9140  145.9240 F   0  0  0  0  0  0  0  0  0  0  0  0
  181.8430  178.6910  141.4730 O   0  0  0  0  0  0  0  0  0  0  0  0
  190.6920  176.6010  147.3480 N   0  0  0  0  0  2  0  0  0  0  0  0
  192.7480  175.6300  148.2940 N   0  0  0  0  0  1  0  0  0  0  0  0
  191.9320  175.9120  147.1640 C   0  0  0  0  0  0  0  0  0  0  0  0
  192.2960  175.5220  146.0230 O   0  0  0  0  0  0  0  0  0  0  0  0
  189.3270  178.2420  143.1080 C   0  0  0  0  0  2  0  0  0  0  0  0
  189.0420  177.6910  141.7200 C   0  0  0  0  0  2  0  0  0  0  0  0
  190.2190  176.8590  141.2560 C   0  0  0  0  0  2  0  0  0  0  0  0
  190.7350  177.4160  139.9440 C   0  0  0  0  0  2  0  0  0  0  0  0
  190.3160  176.5600  138.8350 N   0  0  0  0  0  0  0  0  0  0  0  0
  189.7790  177.0190  136.4220 C   0  0  0  0  0  1  0  0  0  0  0  0
  189.4820  177.3230  137.8890 C   0  0  1  0  0  3  0  0  0  0  0  0
  187.4300  178.4340  138.6120 N   0  0  0  0  0  2  0  0  0  0  0  0
  188.0000  177.1440  138.1910 C   0  0  1  0  0  3  0  0  0  0  0  0
  187.2030  177.9240  137.2510 C   0  0  0  0  0  2  0  0  0  0  0  0
  191.4500  175.8660  138.1950 C   0  0  0  0  0  2  0  0  0  0  0  0
  192.8070  176.5250  138.4480 C   0  0  0  0  0  1  0  0  0  0  0  0
  1 23  1  6  0  0  0
  1  4  1  0  0  0  0
  1  8  1  0  0  0  0
  2  3  1  0  0  0  0
  4  5  2  0  0  0  0
  5  6  1  0  0  0  0
  5 19  1  0  0  0  0
  6  3  2  0  0  0  0
  7  2  2  0  0  0  0
  8  7  1  0  0  0  0
  8  6  1  0  0  0  0
  9 11  1  0  0  0  0
 10 13  1  0  0  0  0
 10 18  2  0  0  0  0
 11 16  2  0  0  0  0
 11  7  1  0  0  0  0
 12 16  1  0  0  0  0
 13 15  1  0  0  0  0
 14 10  1  0  0  0  0
 15  9  1  0  0  0  0
 15 12  2  0  0  0  0
 16 17  1  0  0  0  0
 21 19  1  0  0  0  0
 21 20  1  0  0  0  0
 22 21  2  0  0  0  0
 24 23  1  0  0  0  0
 25 24  1  0  0  0  0
 26 25  1  0  0  0  0
 27 26  1  0  0  0  0
 29 28  1  6  0  0  0
 29 27  1  0  0  0  0
 31 29  1  6  0  0  0
 31 30  1  0  0  0  0
 32 31  1  0  0  0  0
 32 30  1  0  0  0  0
 33 34  1  0  0  0  0
 33 27  1  0  0  0  0
M  END
>  <MODEL>
5

>  <REMARK>
 VINA RESULT:      -7.7      2.939      7.897
  Name = 
  10 active torsions:
  status: ('A' for Active; 'I' for Inactive)
    1  A    between atoms: C_1  and  C_2
    2  A    between atoms: C_1  and  C_24
    3  A    between atoms: C_6  and  C_11
    4  A    between atoms: C_6  and  N_15
    5  A    between atoms: N_8  and  C_17
    6  A    between atoms: C_9  and  C_31
    7  A    between atoms: C_11  and  C_24
    8  A    between atoms: N_15  and  C_16
    9  A    between atoms: N_15  and  C_30
   10  A    between atoms: C_27  and  C_30
                            x       y       z     vdW  Elec       q    Type
                         _______ _______ _______ _____ _____    ______ ____

>  <TORSDO>
F 10

$$$$
=
 OpenBabel11032421293D

 34 37  0  0  1  0  0  0  0  0999 V2000
  188.6240  177.4780  141.0440 C   0  0  1  0  0  3  0  0  0  0  0  0
  192.0880  177.1950  140.3630 N   0  0  0  0  0  0  0  0  0  0  0  0
  191.4850  177.3050  139.1840 N   0  0  0  0  0  0  0  0  0  0  0  0
  188.0520  177.1860  139.6680 C   0  0  0  0  0  3  0  0  0  0  0  0
  189.0120  177.3450  138.7550 C   0  0  0  0  0  0  0  0  0  0  0  0
  190.2310  177.7190  139.4460 C   0  0  0  0  0  0  0  0  0  0  0  0
  191.1660  177.4790  141.3090 C   0  0  0  0  0  0  0  0  0  0  0  0
  190.0030  177.8450  140.7430 N   0  0  0  0  0  0  0  0  0  0  0  0
  191.6770  176.0120  143.4350 C   0  0  0  0  0  2  0  0  0  0  0  0
  192.0730  176.0190  147.3250 C   0  0  0  0  0  0  0  0  0  0  0  0
  191.3810  177.3060  142.7550 C   0  0  0  0  0  0  0  0  0  0  0  0
  191.5410  177.7600  144.9770 N   0  0  0  0  0  0  0  0  0  0  0  0
  192.0040  175.6170  145.9530 N   0  0  0  0  0  2  0  0  0  0  0  0
  192.3100  174.9950  148.3740 C   0  0  0  0  0  1  0  0  0  0  0  0
  191.7490  176.4900  144.8470 C   0  0  0  0  0  0  0  0  0  0  0  0
  191.3130  178.2610  143.6710 C   0  0  0  0  0  0  0  0  0  0  0  0
  191.0470  179.5660  143.4140 F   0  0  0  0  0  0  0  0  0  0  0  0
  191.9210  177.2250  147.6590 O   0  0  0  0  0  0  0  0  0  0  0  0
  188.8410  177.0580  137.3630 N   0  0  0  0  0  2  0  0  0  0  0  0
  188.7420  175.6150  135.3690 N   0  0  0  0  0  1  0  0  0  0  0  0
  189.1000  175.7990  136.7340 C   0  0  0  0  0  0  0  0  0  0  0  0
  189.6680  174.8650  137.3570 O   0  0  0  0  0  0  0  0  0  0  0  0
  187.8850  178.6210  141.7420 C   0  0  0  0  0  2  0  0  0  0  0  0
  186.5270  178.9110  141.1230 C   0  0  0  0  0  2  0  0  0  0  0  0
  185.4350  178.4990  142.0870 C   0  0  0  0  0  2  0  0  0  0  0  0
  186.0660  177.9000  143.3280 C   0  0  0  0  0  2  0  0  0  0  0  0
  185.2700  178.2350  144.5080 N   0  0  0  0  0  0  0  0  0  0  0  0
  185.4000  178.7200  146.9710 C   0  0  0  0  0  1  0  0  0  0  0  0
  186.1510  178.4800  145.6640 C   0  0  1  0  0  3  0  0  0  0  0  0
  188.5210  177.9490  145.9230 N   0  0  0  0  0  2  0  0  0  0  0  0
  187.1750  177.3640  145.8240 C   0  0  1  0  0  3  0  0  0  0  0  0
  187.8240  177.4670  147.1260 C   0  0  0  0  0  2  0  0  0  0  0  0
  184.3110  179.3270  144.2550 C   0  0  0  0  0  2  0  0  0  0  0  0
  182.8450  178.9010  144.3430 C   0  0  0  0  0  1  0  0  0  0  0  0
  1 23  1  6  0  0  0
  2  7  2  0  0  0  0
  3  6  2  0  0  0  0
  3  2  1  0  0  0  0
  4  1  1  0  0  0  0
  5  6  1  0  0  0  0
  5  4  2  0  0  0  0
  6  8  1  0  0  0  0
  7 11  1  0  0  0  0
  8  1  1  0  0  0  0
  8  7  1  0  0  0  0
  9 15  1  0  0  0  0
 10 18  2  0  0  0  0
 10 14  1  0  0  0  0
 11  9  1  0  0  0  0
 11 16  2  0  0  0  0
 13 10  1  0  0  0  0
 15 12  2  0  0  0  0
 15 13  1  0  0  0  0
 16 12  1  0  0  0  0
 17 16  1  0  0  0  0
 19  5  1  0  0  0  0
 20 21  1  0  0  0  0
 21 22  2  0  0  0  0
 21 19  1  0  0  0  0
 24 23  1  0  0  0  0
 24 25  1  0  0  0  0
 25 26  1  0  0  0  0
 26 27  1  0  0  0  0
 27 29  1  0  0  0  0
 29 28  1  1  0  0  0
 30 32  1  0  0  0  0
 31 29  1  1  0  0  0
 31 30  1  0  0  0  0
 31 32  1  0  0  0  0
 33 34  1  0  0  0  0
 33 27  1  0  0  0  0
M  END
>  <MODEL>
6

>  <REMARK>
 VINA RESULT:      -7.6      2.611      6.940
  Name = 
  10 active torsions:
  status: ('A' for Active; 'I' for Inactive)
    1  A    between atoms: C_1  and  C_2
    2  A    between atoms: C_1  and  C_24
    3  A    between atoms: C_6  and  C_11
    4  A    between atoms: C_6  and  N_15
    5  A    between atoms: N_8  and  C_17
    6  A    between atoms: C_9  and  C_31
    7  A    between atoms: C_11  and  C_24
    8  A    between atoms: N_15  and  C_16
    9  A    between atoms: N_15  and  C_30
   10  A    between atoms: C_27  and  C_30
                            x       y       z     vdW  Elec       q    Type
                         _______ _______ _______ _____ _____    ______ ____

>  <TORSDO>
F 10

$$$$
=
 OpenBabel11032421293D

 34 37  0  0  1  0  0  0  0  0999 V2000
  188.7950  177.3530  140.4350 C   0  0  1  0  0  3  0  0  0  0  0  0
  192.2940  177.1570  140.9530 N   0  0  0  0  0  0  0  0  0  0  0  0
  192.1150  177.2210  139.6370 N   0  0  0  0  0  0  0  0  0  0  0  0
  188.7200  177.0110  138.9570 C   0  0  0  0  0  3  0  0  0  0  0  0
  189.9260  177.1770  138.4100 C   0  0  0  0  0  0  0  0  0  0  0  0
  190.8370  177.6030  139.4540 C   0  0  0  0  0  0  0  0  0  0  0  0
  191.1040  177.4360  141.5290 C   0  0  0  0  0  0  0  0  0  0  0  0
  190.1880  177.7530  140.5970 N   0  0  0  0  0  0  0  0  0  0  0  0
  190.0620  178.2820  143.7940 C   0  0  0  0  0  2  0  0  0  0  0  0
  189.6680  177.5640  147.6170 C   0  0  0  0  0  0  0  0  0  0  0  0
  190.8280  177.3040  142.9700 C   0  0  0  0  0  0  0  0  0  0  0  0
  190.8340  176.5060  145.0980 N   0  0  0  0  0  0  0  0  0  0  0  0
  189.5900  178.1580  146.3170 N   0  0  0  0  0  2  0  0  0  0  0  0
  189.0550  178.2630  148.7760 C   0  0  0  0  0  1  0  0  0  0  0  0
  190.1650  177.6130  145.1240 C   0  0  0  0  0  0  0  0  0  0  0  0
  191.2440  176.3220  143.7540 C   0  0  0  0  0  0  0  0  0  0  0  0
  191.9830  175.2610  143.3440 F   0  0  0  0  0  0  0  0  0  0  0  0
  190.2600  176.4660  147.7980 O   0  0  0  0  0  0  0  0  0  0  0  0
  190.2340  176.8510  137.0510 N   0  0  0  0  0  2  0  0  0  0  0  0
  190.7630  175.3490  135.1710 N   0  0  0  0  0  1  0  0  0  0  0  0
  190.6350  175.5640  136.5720 C   0  0  0  0  0  0  0  0  0  0  0  0
  190.9060  174.6290  137.3700 O   0  0  0  0  0  0  0  0  0  0  0  0
  187.8430  178.4890  140.8100 C   0  0  0  0  0  2  0  0  0  0  0  0
  186.4490  178.3070  140.2300 C   0  0  0  0  0  2  0  0  0  0  0  0
  185.4390  179.0060  141.1150 C   0  0  0  0  0  2  0  0  0  0  0  0
  185.8890  178.9050  142.5590 C   0  0  0  0  0  2  0  0  0  0  0  0
  184.7850  178.4430  143.3990 N   0  0  0  0  0  0  0  0  0  0  0  0
  186.6620  177.2480  144.5680 C   0  0  0  0  0  1  0  0  0  0  0  0
  185.3000  177.9260  144.6800 C   0  0  1  0  0  3  0  0  0  0  0  0
  184.6130  178.5370  146.9430 N   0  0  0  0  0  2  0  0  0  0  0  0
  185.3210  179.0150  145.7450 C   0  0  1  0  0  3  0  0  0  0  0  0
  186.0840  178.5630  146.9030 C   0  0  0  0  0  2  0  0  0  0  0  0
  183.7270  179.4590  143.5550 C   0  0  0  0  0  2  0  0  0  0  0  0
  182.3310  178.9700  143.1650 C   0  0  0  0  0  1  0  0  0  0  0  0
  1  8  1  0  0  0  0
  1 23  1  6  0  0  0
  2  7  2  0  0  0  0
  3  2  1  0  0  0  0
  4  1  1  0  0  0  0
  5  4  2  0  0  0  0
  5  6  1  0  0  0  0
  6  3  2  0  0  0  0
  6  8  1  0  0  0  0
  7 11  1  0  0  0  0
  8  7  1  0  0  0  0
  9 15  1  0  0  0  0
 10 18  2  0  0  0  0
 10 14  1  0  0  0  0
 11 16  2  0  0  0  0
 11  9  1  0  0  0  0
 12 15  2  0  0  0  0
 13 10  1  0  0  0  0
 15 13  1  0  0  0  0
 16 12  1  0  0  0  0
 17 16  1  0  0  0  0
 19  5  1  0  0  0  0
 20 21  1  0  0  0  0
 21 19  1  0  0  0  0
 21 22  2  0  0  0  0
 24 23  1  0  0  0  0
 24 25  1  0  0  0  0
 25 26  1  0  0  0  0
 26 27  1  0  0  0  0
 27 33  1  0  0  0  0
 27 29  1  0  0  0  0
 29 28  1  6  0  0  0
 31 29  1  6  0  0  0
 31 32  1  0  0  0  0
 31 30  1  0  0  0  0
 32 30  1  0  0  0  0
 34 33  1  0  0  0  0
M  END
>  <MODEL>
7

>  <REMARK>
 VINA RESULT:      -7.6      2.415      7.545
  Name = 
  10 active torsions:
  status: ('A' for Active; 'I' for Inactive)
    1  A    between atoms: C_1  and  C_2
    2  A    between atoms: C_1  and  C_24
    3  A    between atoms: C_6  and  C_11
    4  A    between atoms: C_6  and  N_15
    5  A    between atoms: N_8  and  C_17
    6  A    between atoms: C_9  and  C_31
    7  A    between atoms: C_11  and  C_24
    8  A    between atoms: N_15  and  C_16
    9  A    between atoms: N_15  and  C_30
   10  A    between atoms: C_27  and  C_30
                            x       y       z     vdW  Elec       q    Type
                         _______ _______ _______ _____ _____    ______ ____

>  <TORSDO>
F 10

$$$$
=
 OpenBabel11032421293D

 34 37  0  0  1  0  0  0  0  0999 V2000
  191.6800  177.5470  140.4810 C   0  0  1  0  0  3  0  0  0  0  0  0
  189.6610  176.5200  137.7570 N   0  0  0  0  0  0  0  0  0  0  0  0
  190.9030  176.1540  137.4590 N   0  0  0  0  0  0  0  0  0  0  0  0
  193.0580  177.4490  139.8490 C   0  0  0  0  0  3  0  0  0  0  0  0
  192.9840  176.6810  138.7600 C   0  0  0  0  0  0  0  0  0  0  0  0
  191.6060  176.2580  138.6030 C   0  0  0  0  0  0  0  0  0  0  0  0
  189.6610  176.9010  139.0540 C   0  0  0  0  0  0  0  0  0  0  0  0
  190.8700  176.7060  139.6070 N   0  0  0  0  0  0  0  0  0  0  0  0
  188.2570  177.5040  141.1990 C   0  0  0  0  0  2  0  0  0  0  0  0
  185.0300  179.2580  142.5400 C   0  0  0  0  0  0  0  0  0  0  0  0
  188.5180  177.5380  139.7310 C   0  0  0  0  0  0  0  0  0  0  0  0
  186.5760  178.6690  140.0720 N   0  0  0  0  0  0  0  0  0  0  0  0
  186.2620  178.5350  142.4480 N   0  0  0  0  0  2  0  0  0  0  0  0
  184.3760  179.4200  143.8640 C   0  0  0  0  0  1  0  0  0  0  0  0
  186.9790  178.2750  141.2360 C   0  0  0  0  0  0  0  0  0  0  0  0
  187.5390  178.2060  139.1410 C   0  0  0  0  0  0  0  0  0  0  0  0
  187.4420  178.4250  137.8060 F   0  0  0  0  0  0  0  0  0  0  0  0
  184.4840  179.7470  141.5150 O   0  0  0  0  0  0  0  0  0  0  0  0
  194.0820  176.4550  137.8700 N   0  0  0  0  0  2  0  0  0  0  0  0
  195.5650  175.1060  136.4390 N   0  0  0  0  0  1  0  0  0  0  0  0
  194.5620  175.1770  137.4450 C   0  0  0  0  0  0  0  0  0  0  0  0
  194.1350  174.1150  137.9700 O   0  0  0  0  0  0  0  0  0  0  0  0
  191.6700  177.0260  141.9180 C   0  0  0  0  0  2  0  0  0  0  0  0
  191.0440  178.0070  142.8970 C   0  0  0  0  0  2  0  0  0  0  0  0
  191.6780  177.8320  144.2610 C   0  0  0  0  0  2  0  0  0  0  0  0
  190.9010  176.7890  145.0400 C   0  0  0  0  0  2  0  0  0  0  0  0
  190.5520  177.3050  146.3630 N   0  0  0  0  0  0  0  0  0  0  0  0
  188.6820  177.5050  148.0300 C   0  0  0  0  0  1  0  0  0  0  0  0
  189.1100  177.1320  146.6140 C   0  0  1  0  0  3  0  0  0  0  0  0
  187.3360  176.9400  144.9450 N   0  0  0  0  0  2  0  0  0  0  0  0
  188.2760  177.8770  145.5800 C   0  0  1  0  0  3  0  0  0  0  0  0
  186.8740  177.8780  145.9800 C   0  0  0  0  0  2  0  0  0  0  0  0
  191.4070  176.7540  147.4310 C   0  0  0  0  0  2  0  0  0  0  0  0
  192.2870  175.5850  146.9840 C   0  0  0  0  0  1  0  0  0  0  0  0
  1 23  1  1  0  0  0
  2  7  2  0  0  0  0
  3  2  1  0  0  0  0
  3  6  2  0  0  0  0
  4  1  1  0  0  0  0
  5  4  2  0  0  0  0
  6  5  1  0  0  0  0
  6  8  1  0  0  0  0
  7  8  1  0  0  0  0
  7 11  1  0  0  0  0
  8  1  1  0  0  0  0
  9 15  1  0  0  0  0
 10 14  1  0  0  0  0
 11  9  1  0  0  0  0
 12 15  2  0  0  0  0
 13 10  1  0  0  0  0
 15 13  1  0  0  0  0
 16 11  2  0  0  0  0
 16 12  1  0  0  0  0
 17 16  1  0  0  0  0
 18 10  2  0  0  0  0
 19  5  1  0  0  0  0
 20 21  1  0  0  0  0
 21 19  1  0  0  0  0
 21 22  2  0  0  0  0
 23 24  1  0  0  0  0
 24 25  1  0  0  0  0
 25 26  1  0  0  0  0
 26 27  1  0  0  0  0
 27 29  1  0  0  0  0
 27 33  1  0  0  0  0
 29 28  1  1  0  0  0
 30 31  1  0  0  0  0
 30 32  1  0  0  0  0
 31 32  1  0  0  0  0
 31 29  1  1  0  0  0
 34 33  1  0  0  0  0
M  END
>  <MODEL>
8

>  <REMARK>
 VINA RESULT:      -7.5      1.777      6.550
  Name = 
  10 active torsions:
  status: ('A' for Active; 'I' for Inactive)
    1  A    between atoms: C_1  and  C_2
    2  A    between atoms: C_1  and  C_24
    3  A    between atoms: C_6  and  C_11
    4  A    between atoms: C_6  and  N_15
    5  A    between atoms: N_8  and  C_17
    6  A    between atoms: C_9  and  C_31
    7  A    between atoms: C_11  and  C_24
    8  A    between atoms: N_15  and  C_16
    9  A    between atoms: N_15  and  C_30
   10  A    between atoms: C_27  and  C_30
                            x       y       z     vdW  Elec       q    Type
                         _______ _______ _______ _____ _____    ______ ____

>  <TORSDO>
F 10

$$$$
=
 OpenBabel11032421293D

 34 37  0  0  1  0  0  0  0  0999 V2000
  188.8650  177.3610  144.3630 C   0  0  1  0  0  3  0  0  0  0  0  0
  186.6120  178.1480  146.9800 N   0  0  0  0  0  0  0  0  0  0  0  0
  187.7890  177.9290  147.5560 N   0  0  0  0  0  0  0  0  0  0  0  0
  190.0050  176.7530  145.1600 C   0  0  0  0  0  3  0  0  0  0  0  0
  189.8850  177.1160  146.4390 C   0  0  0  0  0  0  0  0  0  0  0  0
  188.6960  177.9380  146.5610 C   0  0  0  0  0  0  0  0  0  0  0  0
  186.8280  178.2160  145.6480 C   0  0  0  0  0  0  0  0  0  0  0  0
  188.1410  178.1210  145.3750 N   0  0  0  0  0  0  0  0  0  0  0  0
  185.9300  177.9880  143.1840 C   0  0  0  0  0  2  0  0  0  0  0  0
  182.8190  178.3840  140.8470 C   0  0  0  0  0  0  0  0  0  0  0  0
  185.7590  178.2780  144.6360 C   0  0  0  0  0  0  0  0  0  0  0  0
  183.7330  178.6170  143.6640 N   0  0  0  0  0  0  0  0  0  0  0  0
  184.1360  178.1330  141.3480 N   0  0  0  0  0  2  0  0  0  0  0  0
  182.5560  178.2550  139.3910 C   0  0  0  0  0  1  0  0  0  0  0  0
  184.5360  178.2530  142.7180 C   0  0  0  0  0  0  0  0  0  0  0  0
  184.5020  178.6310  144.8550 C   0  0  0  0  0  0  0  0  0  0  0  0
  183.9910  178.9770  146.0620 F   0  0  0  0  0  0  0  0  0  0  0  0
  181.8830  178.7280  141.6170 O   0  0  0  0  0  0  0  0  0  0  0  0
  190.7390  176.6420  147.4850 N   0  0  0  0  0  2  0  0  0  0  0  0
  192.8080  175.6990  148.4340 N   0  0  0  0  0  1  0  0  0  0  0  0
  191.9950  175.9810  147.3010 C   0  0  0  0  0  0  0  0  0  0  0  0
  192.3760  175.6150  146.1580 O   0  0  0  0  0  0  0  0  0  0  0  0
  189.3690  178.2680  143.2400 C   0  0  0  0  0  2  0  0  0  0  0  0
  189.5210  177.5390  141.9150 C   0  0  0  0  0  2  0  0  0  0  0  0
  188.9050  178.3700  140.8090 C   0  0  0  0  0  2  0  0  0  0  0  0
  188.7050  177.4990  139.5850 C   0  0  0  0  0  2  0  0  0  0  0  0
  189.4740  178.0280  138.4590 N   0  0  0  0  0  0  0  0  0  0  0  0
  191.5810  176.7130  138.8430 C   0  0  0  0  0  1  0  0  0  0  0  0
  190.3870  176.9960  137.9360 C   0  0  1  0  0  3  0  0  0  0  0  0
  189.8250  175.3890  136.1840 N   0  0  0  0  0  2  0  0  0  0  0  0
  189.6380  175.7110  137.6080 C   0  0  1  0  0  3  0  0  0  0  0  0
  190.5820  174.6700  137.2200 C   0  0  0  0  0  2  0  0  0  0  0  0
  188.6180  178.6380  137.4240 C   0  0  0  0  0  2  0  0  0  0  0  0
  187.1490  178.2180  137.5030 C   0  0  0  0  0  1  0  0  0  0  0  0
  1 23  1  6  0  0  0
  1  4  1  0  0  0  0
  1  8  1  0  0  0  0
  2  3  1  0  0  0  0
  4  5  2  0  0  0  0
  5  6  1  0  0  0  0
  5 19  1  0  0  0  0
  6  3  2  0  0  0  0
  7  2  2  0  0  0  0
  8  7  1  0  0  0  0
  8  6  1  0  0  0  0
  9 11  1  0  0  0  0
 10 13  1  0  0  0  0
 10 18  2  0  0  0  0
 11 16  2  0  0  0  0
 11  7  1  0  0  0  0
 12 16  1  0  0  0  0
 13 15  1  0  0  0  0
 14 10  1  0  0  0  0
 15  9  1  0  0  0  0
 15 12  2  0  0  0  0
 16 17  1  0  0  0  0
 21 19  1  0  0  0  0
 21 20  1  0  0  0  0
 22 21  2  0  0  0  0
 24 23  1  0  0  0  0
 25 24  1  0  0  0  0
 26 25  1  0  0  0  0
 27 26  1  0  0  0  0
 29 27  1  0  0  0  0
 29 28  1  1  0  0  0
 30 32  1  0  0  0  0
 30 31  1  0  0  0  0
 31 29  1  6  0  0  0
 32 31  1  0  0  0  0
 33 34  1  0  0  0  0
 33 27  1  0  0  0  0
M  END
>  <MODEL>
9

>  <REMARK>
 VINA RESULT:      -7.4      3.077      8.212
  Name = 
  10 active torsions:
  status: ('A' for Active; 'I' for Inactive)
    1  A    between atoms: C_1  and  C_2
    2  A    between atoms: C_1  and  C_24
    3  A    between atoms: C_6  and  C_11
    4  A    between atoms: C_6  and  N_15
    5  A    between atoms: N_8  and  C_17
    6  A    between atoms: C_9  and  C_31
    7  A    between atoms: C_11  and  C_24
    8  A    between atoms: N_15  and  C_16
    9  A    between atoms: N_15  and  C_30
   10  A    between atoms: C_27  and  C_30
                            x       y       z     vdW  Elec       q    Type
                         _______ _______ _______ _____ _____    ______ ____

>  <TORSDO>
F 10

$$$$
