=
 OpenBabel11032420363D

 27 28  0  0  1  0  0  0  0  0999 V2000
  182.9090  179.5320  144.4580 N   0  0  0  0  0  1  0  0  0  0  0  0
  184.7950  178.4260  143.3100 C   0  0  0  0  0  0  0  0  0  0  0  0
  186.7130  177.6870  144.6140 C   0  0  0  0  0  0  0  0  0  0  0  0
  184.1720  178.8730  144.4940 C   0  0  0  0  0  0  0  0  0  0  0  0
  186.0710  177.8480  143.3830 C   0  0  0  0  0  3  0  0  0  0  0  0
  186.0790  178.1180  145.7860 C   0  0  0  0  0  3  0  0  0  0  0  0
  184.8160  178.7100  145.7230 C   0  0  0  0  0  3  0  0  0  0  0  0
  182.2610  178.9910  138.3030 F   0  0  0  0  0  0  0  0  0  0  0  0
  186.2160  179.5170  140.9930 N   0  0  0  0  0  1  0  0  0  0  0  0
  184.8600  179.0920  140.8750 C   0  0  0  0  0  0  0  0  0  0  0  0
  182.8050  178.2330  141.8420 C   0  0  0  0  0  3  0  0  0  0  0  0
  184.2140  179.2270  139.6430 C   0  0  0  0  0  3  0  0  0  0  0  0
  182.1650  178.3710  140.6090 C   0  0  0  0  0  0  0  0  0  0  0  0
  180.8280  178.0190  140.4840 O   0  0  0  0  0  1  0  0  0  0  0  0
  184.1580  178.5800  141.9860 C   0  0  0  0  0  0  0  0  0  0  0  0
  182.8730  178.8610  139.5060 C   0  0  0  0  0  0  0  0  0  0  0  0
  188.0710  177.0520  144.6450 C   0  0  1  0  0  3  0  0  0  0  0  0
  188.5940  176.7310  143.2740 C   0  0  0  0  0  0  0  0  0  0  0  0
  188.9640  177.7440  142.4010 O   0  0  0  0  0  0  0  0  0  0  0  0
  188.7040  175.5300  142.9160 O   0  0  0  0  0  1  0  0  0  0  0  0
  189.0630  177.8090  145.5350 C   0  0  1  0  0  3  0  0  0  0  0  0
  189.1910  177.1180  146.8860 C   0  0  0  0  0  2  0  0  0  0  0  0
  189.1110  178.1330  148.0090 C   0  0  0  0  0  2  0  0  0  0  0  0
  187.9110  177.8250  148.8800 C   0  0  0  0  0  1  0  0  0  0  0  0
  190.3170  177.9150  144.9220 O   0  0  0  0  0  0  0  0  0  0  0  0
  191.1220  176.9850  145.5810 C   0  0  0  0  0  2  0  0  0  0  0  0
  191.7950  176.0890  144.5640 C   0  0  0  0  0  1  0  0  0  0  0  0
  1  4  1  0  0  0  0
  2  5  2  0  0  0  0
  2  4  1  0  0  0  0
  3 17  1  0  0  0  0
  3  6  2  0  0  0  0
  4  7  2  0  0  0  0
  5  3  1  0  0  0  0
  7  6  1  0  0  0  0
  8 16  1  0  0  0  0
 10  9  1  0  0  0  0
 10 15  1  0  0  0  0
 11 15  2  0  0  0  0
 12 10  2  0  0  0  0
 13 11  1  0  0  0  0
 14 13  1  0  0  0  0
 15  2  1  0  0  0  0
 16 12  1  0  0  0  0
 16 13  2  0  0  0  0
 17 18  1  6  0  0  0
 17 21  1  0  0  0  0
 19 18  2  0  0  0  0
 20 18  1  0  0  0  0
 21 22  1  1  0  0  0
 22 23  1  0  0  0  0
 23 24  1  0  0  0  0
 25 21  1  0  0  0  0
 25 26  1  0  0  0  0
 27 26  1  0  0  0  0
M  END
>  <MODEL>
1

>  <REMARK>
 VINA RESULT:      -8.3      0.000      0.000
  Name = 
  8 active torsions:
  status: ('A' for Active; 'I' for Inactive)
    1  A    between atoms: C_2  and  C_25
    2  A    between atoms: C_4  and  C_10
    3  A    between atoms: C_6  and  O_24
    4  A    between atoms: C_8  and  C_18
    5  A    between atoms: C_10  and  C_13
    6  A    between atoms: C_10  and  C_14
    7  A    between atoms: C_13  and  C_18
    8  A    between atoms: C_13  and  O_24
                            x       y       z     vdW  Elec       q    Type
                         _______ _______ _______ _____ _____    ______ ____

>  <TORSDO>
F 8

$$$$
=
 OpenBabel11032420363D

 27 28  0  0  1  0  0  0  0  0999 V2000
  189.3920  178.2970  137.9290 N   0  0  0  0  0  1  0  0  0  0  0  0
  190.3670  176.9450  139.7500 C   0  0  0  0  0  0  0  0  0  0  0  0
  189.6370  177.3330  142.0410 C   0  0  0  0  0  0  0  0  0  0  0  0
  189.4610  177.9300  139.3040 C   0  0  0  0  0  0  0  0  0  0  0  0
  190.4530  176.6660  141.1220 C   0  0  0  0  0  3  0  0  0  0  0  0
  188.7290  178.2970  141.5850 C   0  0  0  0  0  3  0  0  0  0  0  0
  188.6460  178.5940  140.2240 C   0  0  0  0  0  3  0  0  0  0  0  0
  193.6610  174.1280  136.1440 F   0  0  0  0  0  0  0  0  0  0  0  0
  193.2270  177.5280  139.5200 N   0  0  0  0  0  1  0  0  0  0  0  0
  192.6330  176.5000  138.7300 C   0  0  0  0  0  0  0  0  0  0  0  0
  190.6970  175.2440  137.9770 C   0  0  0  0  0  3  0  0  0  0  0  0
  193.4330  175.7930  137.8280 C   0  0  0  0  0  3  0  0  0  0  0  0
  191.5000  174.5400  137.0770 C   0  0  0  0  0  0  0  0  0  0  0  0
  190.9340  173.5760  136.2560 O   0  0  0  0  0  1  0  0  0  0  0  0
  191.2530  176.2190  138.8190 C   0  0  0  0  0  0  0  0  0  0  0  0
  192.8720  174.8110  137.0090 C   0  0  0  0  0  0  0  0  0  0  0  0
  189.7560  176.9920  143.4960 C   0  0  1  0  0  3  0  0  0  0  0  0
  191.1780  176.9860  143.9780 C   0  0  0  0  0  0  0  0  0  0  0  0
  191.9370  178.1470  143.9610 O   0  0  0  0  0  0  0  0  0  0  0  0
  191.6840  175.9180  144.4080 O   0  0  0  0  0  1  0  0  0  0  0  0
  188.7970  177.8000  144.3770 C   0  0  1  0  0  3  0  0  0  0  0  0
  187.5130  177.0160  144.6160 C   0  0  0  0  0  2  0  0  0  0  0  0
  186.3170  177.7870  144.0960 C   0  0  0  0  0  2  0  0  0  0  0  0
  185.5820  178.4190  145.2600 C   0  0  0  0  0  1  0  0  0  0  0  0
  189.3930  178.1420  145.5960 O   0  0  0  0  0  0  0  0  0  0  0  0
  188.8270  177.2730  146.5320 C   0  0  0  0  0  2  0  0  0  0  0  0
  189.0350  177.8280  147.9250 C   0  0  0  0  0  1  0  0  0  0  0  0
  1  4  1  0  0  0  0
  2  5  1  0  0  0  0
  3 17  1  0  0  0  0
  4  2  2  0  0  0  0
  4  7  1  0  0  0  0
  5  3  2  0  0  0  0
  6  3  1  0  0  0  0
  7  6  2  0  0  0  0
  8 16  1  0  0  0  0
 10 15  1  0  0  0  0
 10  9  1  0  0  0  0
 11 15  2  0  0  0  0
 12 10  2  0  0  0  0
 13 11  1  0  0  0  0
 14 13  1  0  0  0  0
 15  2  1  0  0  0  0
 16 13  2  0  0  0  0
 16 12  1  0  0  0  0
 17 18  1  1  0  0  0
 17 21  1  0  0  0  0
 18 20  1  0  0  0  0
 19 18  2  0  0  0  0
 21 22  1  1  0  0  0
 21 25  1  0  0  0  0
 23 22  1  0  0  0  0
 23 24  1  0  0  0  0
 25 26  1  0  0  0  0
 26 27  1  0  0  0  0
M  END
>  <MODEL>
2

>  <REMARK>
 VINA RESULT:      -8.0      4.807      7.013
  Name = 
  8 active torsions:
  status: ('A' for Active; 'I' for Inactive)
    1  A    between atoms: C_2  and  C_25
    2  A    between atoms: C_4  and  C_10
    3  A    between atoms: C_6  and  O_24
    4  A    between atoms: C_8  and  C_18
    5  A    between atoms: C_10  and  C_13
    6  A    between atoms: C_10  and  C_14
    7  A    between atoms: C_13  and  C_18
    8  A    between atoms: C_13  and  O_24
                            x       y       z     vdW  Elec       q    Type
                         _______ _______ _______ _____ _____    ______ ____

>  <TORSDO>
F 8

$$$$
=
 OpenBabel11032420363D

 27 28  0  0  1  0  0  0  0  0999 V2000
  189.3750  178.2310  137.4030 N   0  0  0  0  0  1  0  0  0  0  0  0
  190.3220  176.8210  139.1960 C   0  0  0  0  0  0  0  0  0  0  0  0
  189.6430  177.2110  141.5010 C   0  0  0  0  0  0  0  0  0  0  0  0
  189.4500  177.8460  138.7740 C   0  0  0  0  0  0  0  0  0  0  0  0
  190.4180  176.5230  140.5630 C   0  0  0  0  0  3  0  0  0  0  0  0
  188.7660  178.2160  141.0700 C   0  0  0  0  0  3  0  0  0  0  0  0
  188.6750  178.5310  139.7130 C   0  0  0  0  0  3  0  0  0  0  0  0
  193.6350  174.0110  135.6000 F   0  0  0  0  0  0  0  0  0  0  0  0
  189.3210  174.5340  137.6650 N   0  0  0  0  0  1  0  0  0  0  0  0
  190.6650  174.9810  137.5010 C   0  0  0  0  0  0  0  0  0  0  0  0
  192.5130  176.4370  138.0990 C   0  0  0  0  0  3  0  0  0  0  0  0
  191.5030  174.2950  136.6170 C   0  0  0  0  0  3  0  0  0  0  0  0
  193.3450  175.7490  137.2140 C   0  0  0  0  0  0  0  0  0  0  0  0
  194.6740  176.1280  137.0800 O   0  0  0  0  0  1  0  0  0  0  0  0
  191.1660  176.0710  138.2430 C   0  0  0  0  0  0  0  0  0  0  0  0
  192.8360  174.6810  136.4670 C   0  0  0  0  0  0  0  0  0  0  0  0
  189.7690  176.8490  142.9500 C   0  0  1  0  0  3  0  0  0  0  0  0
  191.1970  176.7060  143.3920 C   0  0  0  0  0  0  0  0  0  0  0  0
  192.0810  177.7710  143.2940 O   0  0  0  0  0  0  0  0  0  0  0  0
  191.5950  175.6080  143.8610 O   0  0  0  0  0  1  0  0  0  0  0  0
  188.9160  177.7390  143.8630 C   0  0  1  0  0  3  0  0  0  0  0  0
  187.6240  177.0240  144.2360 C   0  0  0  0  0  2  0  0  0  0  0  0
  186.4240  177.8010  143.7310 C   0  0  0  0  0  2  0  0  0  0  0  0
  185.5670  178.2220  144.9070 C   0  0  0  0  0  1  0  0  0  0  0  0
  189.6190  178.1070  145.0150 O   0  0  0  0  0  0  0  0  0  0  0  0
  189.0150  177.3940  146.0520 C   0  0  0  0  0  2  0  0  0  0  0  0
  190.0800  176.8660  146.9890 C   0  0  0  0  0  1  0  0  0  0  0  0
  1  4  1  0  0  0  0
  2  5  1  0  0  0  0
  3 17  1  0  0  0  0
  4  2  2  0  0  0  0
  4  7  1  0  0  0  0
  5  3  2  0  0  0  0
  6  3  1  0  0  0  0
  7  6  2  0  0  0  0
  8 16  1  0  0  0  0
 10  9  1  0  0  0  0
 10 15  1  0  0  0  0
 11 15  2  0  0  0  0
 12 10  2  0  0  0  0
 13 11  1  0  0  0  0
 14 13  1  0  0  0  0
 15  2  1  0  0  0  0
 16 12  1  0  0  0  0
 16 13  2  0  0  0  0
 17 18  1  1  0  0  0
 17 21  1  0  0  0  0
 18 20  1  0  0  0  0
 19 18  2  0  0  0  0
 21 22  1  1  0  0  0
 21 25  1  0  0  0  0
 23 22  1  0  0  0  0
 23 24  1  0  0  0  0
 25 26  1  0  0  0  0
 26 27  1  0  0  0  0
M  END
>  <MODEL>
3

>  <REMARK>
 VINA RESULT:      -7.9      5.080      7.333
  Name = 
  8 active torsions:
  status: ('A' for Active; 'I' for Inactive)
    1  A    between atoms: C_2  and  C_25
    2  A    between atoms: C_4  and  C_10
    3  A    between atoms: C_6  and  O_24
    4  A    between atoms: C_8  and  C_18
    5  A    between atoms: C_10  and  C_13
    6  A    between atoms: C_10  and  C_14
    7  A    between atoms: C_13  and  C_18
    8  A    between atoms: C_13  and  O_24
                            x       y       z     vdW  Elec       q    Type
                         _______ _______ _______ _____ _____    ______ ____

>  <TORSDO>
F 8

$$$$
=
 OpenBabel11032420363D

 27 28  0  0  1  0  0  0  0  0999 V2000
  191.3290  176.5580  145.8880 N   0  0  0  0  0  1  0  0  0  0  0  0
  189.4710  177.3910  144.4910 C   0  0  0  0  0  0  0  0  0  0  0  0
  187.2810  177.7270  145.5010 C   0  0  0  0  0  0  0  0  0  0  0  0
  189.9790  176.9930  145.7450 C   0  0  0  0  0  0  0  0  0  0  0  0
  188.1170  177.7420  144.3810 C   0  0  0  0  0  3  0  0  0  0  0  0
  187.8000  177.3460  146.7450 C   0  0  0  0  0  3  0  0  0  0  0  0
  189.1410  176.9790  146.8630 C   0  0  0  0  0  3  0  0  0  0  0  0
  192.6110  177.4320  139.8070 F   0  0  0  0  0  0  0  0  0  0  0  0
  191.8210  179.1210  144.2420 N   0  0  0  0  0  1  0  0  0  0  0  0
  191.4520  178.2450  143.1790 C   0  0  0  0  0  0  0  0  0  0  0  0
  189.9510  176.6170  142.1840 C   0  0  0  0  0  3  0  0  0  0  0  0
  192.2170  178.2440  142.0090 C   0  0  0  0  0  3  0  0  0  0  0  0
  190.7180  176.6200  141.0170 C   0  0  0  0  0  0  0  0  0  0  0  0
  190.3460  175.8190  139.9470 O   0  0  0  0  0  1  0  0  0  0  0  0
  190.3140  177.4180  143.2790 C   0  0  0  0  0  0  0  0  0  0  0  0
  191.8570  177.4290  140.9330 C   0  0  0  0  0  0  0  0  0  0  0  0
  185.8450  178.1230  145.3370 C   0  0  1  0  0  3  0  0  0  0  0  0
  185.2510  178.6890  146.5950 C   0  0  0  0  0  0  0  0  0  0  0  0
  185.8150  179.7980  147.2090 O   0  0  0  0  0  1  0  0  0  0  0  0
  184.2260  178.1560  147.0940 O   0  0  0  0  0  0  0  0  0  0  0  0
  185.6000  178.9770  144.0870 C   0  0  1  0  0  3  0  0  0  0  0  0
  185.6140  178.1010  142.8410 C   0  0  0  0  0  2  0  0  0  0  0  0
  185.9120  178.9360  141.6110 C   0  0  0  0  0  2  0  0  0  0  0  0
  187.2650  178.5450  141.0540 C   0  0  0  0  0  1  0  0  0  0  0  0
  184.3920  179.6760  144.1780 O   0  0  0  0  0  0  0  0  0  0  0  0
  183.4690  178.8960  143.4780 C   0  0  0  0  0  2  0  0  0  0  0  0
  182.1590  178.8640  144.2360 C   0  0  0  0  0  1  0  0  0  0  0  0
  2  4  1  0  0  0  0
  3  6  2  0  0  0  0
  4  1  1  0  0  0  0
  4  7  2  0  0  0  0
  5  2  2  0  0  0  0
  5  3  1  0  0  0  0
  6  7  1  0  0  0  0
  8 16  1  0  0  0  0
 10 15  1  0  0  0  0
 10  9  1  0  0  0  0
 11 15  2  0  0  0  0
 12 10  2  0  0  0  0
 13 11  1  0  0  0  0
 14 13  1  0  0  0  0
 15  2  1  0  0  0  0
 16 13  2  0  0  0  0
 16 12  1  0  0  0  0
 17  3  1  0  0  0  0
 17 18  1  1  0  0  0
 18 20  2  0  0  0  0
 18 19  1  0  0  0  0
 21 22  1  6  0  0  0
 21 25  1  0  0  0  0
 21 17  1  0  0  0  0
 23 22  1  0  0  0  0
 24 23  1  0  0  0  0
 26 25  1  0  0  0  0
 26 27  1  0  0  0  0
M  END
>  <MODEL>
4

>  <REMARK>
 VINA RESULT:      -7.9      3.827      6.897
  Name = 
  8 active torsions:
  status: ('A' for Active; 'I' for Inactive)
    1  A    between atoms: C_2  and  C_25
    2  A    between atoms: C_4  and  C_10
    3  A    between atoms: C_6  and  O_24
    4  A    between atoms: C_8  and  C_18
    5  A    between atoms: C_10  and  C_13
    6  A    between atoms: C_10  and  C_14
    7  A    between atoms: C_13  and  C_18
    8  A    between atoms: C_13  and  O_24
                            x       y       z     vdW  Elec       q    Type
                         _______ _______ _______ _____ _____    ______ ____

>  <TORSDO>
F 8

$$$$
=
 OpenBabel11032420363D

 27 28  0  0  1  0  0  0  0  0999 V2000
  184.9950  179.1570  146.7260 N   0  0  0  0  0  1  0  0  0  0  0  0
  186.1090  178.1310  144.7760 C   0  0  0  0  0  0  0  0  0  0  0  0
  188.3720  177.2650  145.0180 C   0  0  0  0  0  0  0  0  0  0  0  0
  186.1070  178.4830  146.1420 C   0  0  0  0  0  0  0  0  0  0  0  0
  187.2540  177.5350  144.2250 C   0  0  0  0  0  3  0  0  0  0  0  0
  188.3530  177.6030  146.3780 C   0  0  0  0  0  3  0  0  0  0  0  0
  187.2260  178.2110  146.9330 C   0  0  0  0  0  3  0  0  0  0  0  0
  181.6320  179.1750  141.5100 F   0  0  0  0  0  0  0  0  0  0  0  0
  186.4000  178.6800  141.9140 N   0  0  0  0  0  1  0  0  0  0  0  0
  185.1090  178.6490  142.5170 C   0  0  0  0  0  0  0  0  0  0  0  0
  183.6700  178.4440  144.4610 C   0  0  0  0  0  3  0  0  0  0  0  0
  183.9870  178.9090  141.7230 C   0  0  0  0  0  3  0  0  0  0  0  0
  182.5530  178.7040  143.6640 C   0  0  0  0  0  0  0  0  0  0  0  0
  181.2900  178.7380  144.2390 O   0  0  0  0  0  1  0  0  0  0  0  0
  184.9540  178.4020  143.8960 C   0  0  0  0  0  0  0  0  0  0  0  0
  182.7120  178.9290  142.2920 C   0  0  0  0  0  0  0  0  0  0  0  0
  189.5670  176.6140  144.3880 C   0  0  1  0  0  3  0  0  0  0  0  0
  189.4190  176.4380  142.9050 C   0  0  0  0  0  0  0  0  0  0  0  0
  189.7930  177.4480  142.0290 O   0  0  0  0  0  0  0  0  0  0  0  0
  188.9550  175.3600  142.4500 O   0  0  0  0  0  1  0  0  0  0  0  0
  190.8910  177.2590  144.8150 C   0  0  1  0  0  3  0  0  0  0  0  0
  191.7120  176.2790  145.6410 C   0  0  0  0  0  2  0  0  0  0  0  0
  191.6140  176.6160  147.1160 C   0  0  0  0  0  2  0  0  0  0  0  0
  192.4470  175.6340  147.9130 C   0  0  0  0  0  1  0  0  0  0  0  0
  191.6240  177.6960  143.7060 O   0  0  0  0  0  0  0  0  0  0  0  0
  192.0860  178.9660  144.0540 C   0  0  0  0  0  2  0  0  0  0  0  0
  190.9320  179.9460  144.0310 C   0  0  0  0  0  1  0  0  0  0  0  0
  2  4  1  0  0  0  0
  3  6  2  0  0  0  0
  4  1  1  0  0  0  0
  4  7  2  0  0  0  0
  5  2  2  0  0  0  0
  5  3  1  0  0  0  0
  6  7  1  0  0  0  0
  8 16  1  0  0  0  0
  9 10  1  0  0  0  0
 10 15  1  0  0  0  0
 12 16  1  0  0  0  0
 12 10  2  0  0  0  0
 13 14  1  0  0  0  0
 13 11  1  0  0  0  0
 15 11  2  0  0  0  0
 15  2  1  0  0  0  0
 16 13  2  0  0  0  0
 17 18  1  6  0  0  0
 17 21  1  0  0  0  0
 17  3  1  0  0  0  0
 19 18  2  0  0  0  0
 20 18  1  0  0  0  0
 21 22  1  6  0  0  0
 22 23  1  0  0  0  0
 23 24  1  0  0  0  0
 25 26  1  0  0  0  0
 25 21  1  0  0  0  0
 27 26  1  0  0  0  0
M  END
>  <MODEL>
5

>  <REMARK>
 VINA RESULT:      -7.6      1.789      2.597
  Name = 
  8 active torsions:
  status: ('A' for Active; 'I' for Inactive)
    1  A    between atoms: C_2  and  C_25
    2  A    between atoms: C_4  and  C_10
    3  A    between atoms: C_6  and  O_24
    4  A    between atoms: C_8  and  C_18
    5  A    between atoms: C_10  and  C_13
    6  A    between atoms: C_10  and  C_14
    7  A    between atoms: C_13  and  C_18
    8  A    between atoms: C_13  and  O_24
                            x       y       z     vdW  Elec       q    Type
                         _______ _______ _______ _____ _____    ______ ____

>  <TORSDO>
F 8

$$$$
=
 OpenBabel11032420363D

 27 28  0  0  1  0  0  0  0  0999 V2000
  185.3500  179.7400  140.5020 N   0  0  0  0  0  1  0  0  0  0  0  0
  185.7340  178.3190  142.4840 C   0  0  0  0  0  0  0  0  0  0  0  0
  187.9020  177.2520  142.7820 C   0  0  0  0  0  0  0  0  0  0  0  0
  186.2060  178.9310  141.3040 C   0  0  0  0  0  0  0  0  0  0  0  0
  186.5880  177.4720  143.2050 C   0  0  0  0  0  3  0  0  0  0  0  0
  188.3670  177.8790  141.6180 C   0  0  0  0  0  3  0  0  0  0  0  0
  187.5200  178.7110  140.8840 C   0  0  0  0  0  3  0  0  0  0  0  0
  180.4200  179.0310  144.2320 F   0  0  0  0  0  0  0  0  0  0  0  0
  185.1150  178.9470  145.2770 N   0  0  0  0  0  1  0  0  0  0  0  0
  184.0710  178.8330  144.3130 C   0  0  0  0  0  0  0  0  0  0  0  0
  183.2900  178.3510  142.0660 C   0  0  0  0  0  3  0  0  0  0  0  0
  182.7470  179.0030  144.7280 C   0  0  0  0  0  3  0  0  0  0  0  0
  181.9690  178.5220  142.4860 C   0  0  0  0  0  0  0  0  0  0  0  0
  180.9310  178.3590  141.5790 O   0  0  0  0  0  1  0  0  0  0  0  0
  184.3520  178.5160  142.9680 C   0  0  0  0  0  0  0  0  0  0  0  0
  181.6990  178.8560  143.8170 C   0  0  0  0  0  0  0  0  0  0  0  0
  188.7830  176.3490  143.5920 C   0  0  1  0  0  3  0  0  0  0  0  0
  189.9470  175.8160  142.8080 C   0  0  0  0  0  0  0  0  0  0  0  0
  190.3630  176.4400  141.6410 O   0  0  0  0  0  0  0  0  0  0  0  0
  190.5560  174.7940  143.2180 O   0  0  0  0  0  1  0  0  0  0  0  0
  189.1630  176.9500  144.9510 C   0  0  1  0  0  3  0  0  0  0  0  0
  189.9290  178.2520  144.7550 C   0  0  0  0  0  2  0  0  0  0  0  0
  191.4210  178.0080  144.8580 C   0  0  0  0  0  2  0  0  0  0  0  0
  191.6790  176.8700  145.8220 C   0  0  0  0  0  1  0  0  0  0  0  0
  188.0310  177.1660  145.7450 O   0  0  0  0  0  0  0  0  0  0  0  0
  188.4440  178.0680  146.7270 C   0  0  0  0  0  2  0  0  0  0  0  0
  188.3090  177.4270  148.0910 C   0  0  0  0  0  1  0  0  0  0  0  0
  1  4  1  0  0  0  0
  2 15  1  0  0  0  0
  2  5  1  0  0  0  0
  3  5  2  0  0  0  0
  3 17  1  0  0  0  0
  4  2  2  0  0  0  0
  6  3  1  0  0  0  0
  7  4  1  0  0  0  0
  7  6  2  0  0  0  0
 10 12  1  0  0  0  0
 10  9  1  0  0  0  0
 11 13  2  0  0  0  0
 11 15  1  0  0  0  0
 13 16  1  0  0  0  0
 14 13  1  0  0  0  0
 15 10  2  0  0  0  0
 16  8  1  0  0  0  0
 16 12  2  0  0  0  0
 17 18  1  6  0  0  0
 17 21  1  0  0  0  0
 18 20  1  0  0  0  0
 19 18  2  0  0  0  0
 21 22  1  6  0  0  0
 21 25  1  0  0  0  0
 22 23  1  0  0  0  0
 23 24  1  0  0  0  0
 25 26  1  0  0  0  0
 26 27  1  0  0  0  0
M  END
>  <MODEL>
6

>  <REMARK>
 VINA RESULT:      -7.6      1.949      3.467
  Name = 
  8 active torsions:
  status: ('A' for Active; 'I' for Inactive)
    1  A    between atoms: C_2  and  C_25
    2  A    between atoms: C_4  and  C_10
    3  A    between atoms: C_6  and  O_24
    4  A    between atoms: C_8  and  C_18
    5  A    between atoms: C_10  and  C_13
    6  A    between atoms: C_10  and  C_14
    7  A    between atoms: C_13  and  C_18
    8  A    between atoms: C_13  and  O_24
                            x       y       z     vdW  Elec       q    Type
                         _______ _______ _______ _____ _____    ______ ____

>  <TORSDO>
F 8

$$$$
=
 OpenBabel11032420363D

 27 28  0  0  1  0  0  0  0  0999 V2000
  180.9670  178.6660  141.4940 N   0  0  0  0  0  1  0  0  0  0  0  0
  183.3700  178.2000  141.8170 C   0  0  0  0  0  0  0  0  0  0  0  0
  184.3930  178.6710  143.9760 C   0  0  0  0  0  0  0  0  0  0  0  0
  182.1240  178.6230  142.3250 C   0  0  0  0  0  0  0  0  0  0  0  0
  184.4980  178.2410  142.6500 C   0  0  0  0  0  3  0  0  0  0  0  0
  183.1480  179.0730  144.4750 C   0  0  0  0  0  3  0  0  0  0  0  0
  182.0220  179.0510  143.6510 C   0  0  0  0  0  3  0  0  0  0  0  0
  183.9060  176.3790  136.5070 F   0  0  0  0  0  0  0  0  0  0  0  0
  184.9040  179.7100  139.8320 N   0  0  0  0  0  1  0  0  0  0  0  0
  184.2870  178.4740  139.4810 C   0  0  0  0  0  0  0  0  0  0  0  0
  182.8870  176.5640  140.0170 C   0  0  0  0  0  3  0  0  0  0  0  0
  184.4060  178.0080  138.1680 C   0  0  0  0  0  3  0  0  0  0  0  0
  183.0090  176.1030  138.7050 C   0  0  0  0  0  0  0  0  0  0  0  0
  182.3690  174.9330  138.3230 O   0  0  0  0  0  1  0  0  0  0  0  0
  183.5320  177.7430  140.4220 C   0  0  0  0  0  0  0  0  0  0  0  0
  183.7760  176.8230  137.7820 C   0  0  0  0  0  0  0  0  0  0  0  0
  185.6240  178.6860  144.8320 C   0  0  1  0  0  3  0  0  0  0  0  0
  185.3260  178.9790  146.2740 C   0  0  0  0  0  0  0  0  0  0  0  0
  184.5710  178.0980  147.0360 O   0  0  0  0  0  1  0  0  0  0  0  0
  185.7710  180.0330  146.7990 O   0  0  0  0  0  0  0  0  0  0  0  0
  186.5180  177.4600  144.6120 C   0  0  1  0  0  3  0  0  0  0  0  0
  187.7790  177.8570  143.8560 C   0  0  0  0  0  2  0  0  0  0  0  0
  188.0840  176.8480  142.7670 C   0  0  0  0  0  2  0  0  0  0  0  0
  189.5090  177.0380  142.2900 C   0  0  0  0  0  1  0  0  0  0  0  0
  186.8500  176.8490  145.8260 O   0  0  0  0  0  0  0  0  0  0  0  0
  188.1940  177.1630  146.0330 C   0  0  0  0  0  2  0  0  0  0  0  0
  188.3910  177.6200  147.4630 C   0  0  0  0  0  1  0  0  0  0  0  0
  1  4  1  0  0  0  0
  2  4  2  0  0  0  0
  2  5  1  0  0  0  0
  3  6  1  0  0  0  0
  3 17  1  0  0  0  0
  4  7  1  0  0  0  0
  5  3  2  0  0  0  0
  7  6  2  0  0  0  0
  8 16  1  0  0  0  0
 10  9  1  0  0  0  0
 10 15  1  0  0  0  0
 11 15  2  0  0  0  0
 12 10  2  0  0  0  0
 13 11  1  0  0  0  0
 14 13  1  0  0  0  0
 15  2  1  0  0  0  0
 16 12  1  0  0  0  0
 16 13  2  0  0  0  0
 17 18  1  1  0  0  0
 18 20  2  0  0  0  0
 18 19  1  0  0  0  0
 21 22  1  1  0  0  0
 21 17  1  0  0  0  0
 21 25  1  0  0  0  0
 23 22  1  0  0  0  0
 24 23  1  0  0  0  0
 25 26  1  0  0  0  0
 26 27  1  0  0  0  0
M  END
>  <MODEL>
7

>  <REMARK>
 VINA RESULT:      -7.5      2.500      3.777
  Name = 
  8 active torsions:
  status: ('A' for Active; 'I' for Inactive)
    1  A    between atoms: C_2  and  C_25
    2  A    between atoms: C_4  and  C_10
    3  A    between atoms: C_6  and  O_24
    4  A    between atoms: C_8  and  C_18
    5  A    between atoms: C_10  and  C_13
    6  A    between atoms: C_10  and  C_14
    7  A    between atoms: C_13  and  C_18
    8  A    between atoms: C_13  and  O_24
                            x       y       z     vdW  Elec       q    Type
                         _______ _______ _______ _____ _____    ______ ____

>  <TORSDO>
F 8

$$$$
=
 OpenBabel11032420363D

 27 28  0  0  1  0  0  0  0  0999 V2000
  185.9340  178.7720  145.4620 N   0  0  0  0  0  1  0  0  0  0  0  0
  184.9320  178.4220  143.2330 C   0  0  0  0  0  0  0  0  0  0  0  0
  182.5170  178.5940  142.9740 C   0  0  0  0  0  0  0  0  0  0  0  0
  184.8000  178.7460  144.5990 C   0  0  0  0  0  0  0  0  0  0  0  0
  183.7810  178.3370  142.4350 C   0  0  0  0  0  3  0  0  0  0  0  0
  182.3980  178.9320  144.3280 C   0  0  0  0  0  3  0  0  0  0  0  0
  183.5360  179.0030  145.1350 C   0  0  0  0  0  3  0  0  0  0  0  0
  189.9660  177.2540  140.9760 F   0  0  0  0  0  0  0  0  0  0  0  0
  185.6790  179.4020  140.5760 N   0  0  0  0  0  1  0  0  0  0  0  0
  186.5970  178.6280  141.3460 C   0  0  0  0  0  0  0  0  0  0  0  0
  187.1540  177.3250  143.3170 C   0  0  0  0  0  3  0  0  0  0  0  0
  187.8490  178.3250  140.8020 C   0  0  0  0  0  3  0  0  0  0  0  0
  188.4030  177.0260  142.7690 C   0  0  0  0  0  0  0  0  0  0  0  0
  189.2910  176.2260  143.4740 O   0  0  0  0  0  1  0  0  0  0  0  0
  186.2450  178.1360  142.6200 C   0  0  0  0  0  0  0  0  0  0  0  0
  188.7530  177.5330  141.5120 C   0  0  0  0  0  0  0  0  0  0  0  0
  181.3170  178.5040  142.0800 C   0  0  1  0  0  3  0  0  0  0  0  0
  180.1300  179.2470  142.6220 C   0  0  0  0  0  0  0  0  0  0  0  0
  180.1910  180.6150  142.8440 O   0  0  0  0  0  0  0  0  0  0  0  0
  179.0670  178.6220  142.8730 O   0  0  0  0  0  1  0  0  0  0  0  0
  181.6400  178.8200  140.6150 C   0  0  1  0  0  3  0  0  0  0  0  0
  181.1690  177.6850  139.7150 C   0  0  0  0  0  2  0  0  0  0  0  0
  182.2130  176.5880  139.6550 C   0  0  0  0  0  2  0  0  0  0  0  0
  183.4300  177.0920  138.9100 C   0  0  0  0  0  1  0  0  0  0  0  0
  181.0610  180.0300  140.2160 O   0  0  0  0  0  0  0  0  0  0  0  0
  181.1270  180.0210  138.8220 C   0  0  0  0  0  2  0  0  0  0  0  0
  181.8660  181.2520  138.3440 C   0  0  0  0  0  1  0  0  0  0  0  0
  2  4  1  0  0  0  0
  3  6  2  0  0  0  0
  4  7  2  0  0  0  0
  4  1  1  0  0  0  0
  5  3  1  0  0  0  0
  5  2  2  0  0  0  0
  6  7  1  0  0  0  0
  8 16  1  0  0  0  0
  9 10  1  0  0  0  0
 10 15  1  0  0  0  0
 12 10  2  0  0  0  0
 12 16  1  0  0  0  0
 13 11  1  0  0  0  0
 13 14  1  0  0  0  0
 15  2  1  0  0  0  0
 15 11  2  0  0  0  0
 16 13  2  0  0  0  0
 17 18  1  1  0  0  0
 17  3  1  0  0  0  0
 18 19  2  0  0  0  0
 18 20  1  0  0  0  0
 21 22  1  6  0  0  0
 21 17  1  0  0  0  0
 23 22  1  0  0  0  0
 24 23  1  0  0  0  0
 25 21  1  0  0  0  0
 26 25  1  0  0  0  0
 27 26  1  0  0  0  0
M  END
>  <MODEL>
8

>  <REMARK>
 VINA RESULT:      -7.4      2.935      7.528
  Name = 
  8 active torsions:
  status: ('A' for Active; 'I' for Inactive)
    1  A    between atoms: C_2  and  C_25
    2  A    between atoms: C_4  and  C_10
    3  A    between atoms: C_6  and  O_24
    4  A    between atoms: C_8  and  C_18
    5  A    between atoms: C_10  and  C_13
    6  A    between atoms: C_10  and  C_14
    7  A    between atoms: C_13  and  C_18
    8  A    between atoms: C_13  and  O_24
                            x       y       z     vdW  Elec       q    Type
                         _______ _______ _______ _____ _____    ______ ____

>  <TORSDO>
F 8

$$$$
=
 OpenBabel11032420363D

 27 28  0  0  1  0  0  0  0  0999 V2000
  191.3250  178.1140  142.8320 N   0  0  0  0  0  1  0  0  0  0  0  0
  189.8940  177.3930  140.9530 C   0  0  0  0  0  0  0  0  0  0  0  0
  190.9220  176.8620  138.8110 C   0  0  0  0  0  0  0  0  0  0  0  0
  191.1720  177.6530  141.4920 C   0  0  0  0  0  0  0  0  0  0  0  0
  189.7840  177.0120  139.6080 C   0  0  0  0  0  3  0  0  0  0  0  0
  192.1870  177.1060  139.3600 C   0  0  0  0  0  3  0  0  0  0  0  0
  192.3080  177.5020  140.6930 C   0  0  0  0  0  3  0  0  0  0  0  0
  185.1520  178.0390  143.9350 F   0  0  0  0  0  0  0  0  0  0  0  0
  189.2500  175.6280  143.1990 N   0  0  0  0  0  1  0  0  0  0  0  0
  188.3730  176.6950  142.8430 C   0  0  0  0  0  0  0  0  0  0  0  0
  187.7420  178.5410  141.3990 C   0  0  0  0  0  3  0  0  0  0  0  0
  187.1910  176.8690  143.5690 C   0  0  0  0  0  3  0  0  0  0  0  0
  186.5620  178.7100  142.1270 C   0  0  0  0  0  0  0  0  0  0  0  0
  185.6650  179.7050  141.7640 O   0  0  0  0  0  1  0  0  0  0  0  0
  188.6630  177.5440  141.7550 C   0  0  0  0  0  0  0  0  0  0  0  0
  186.2910  177.8770  143.2180 C   0  0  0  0  0  0  0  0  0  0  0  0
  190.7550  176.4400  137.3820 C   0  0  1  0  0  3  0  0  0  0  0  0
  191.4400  175.1390  137.0770 C   0  0  0  0  0  0  0  0  0  0  0  0
  192.2420  175.0070  135.9520 O   0  0  0  0  0  0  0  0  0  0  0  0
  191.2910  174.1600  137.8530 O   0  0  0  0  0  1  0  0  0  0  0  0
  189.2990  176.5100  136.9060 C   0  0  1  0  0  3  0  0  0  0  0  0
  189.0890  177.7400  136.0330 C   0  0  0  0  0  2  0  0  0  0  0  0
  188.4870  178.8690  136.8460 C   0  0  0  0  0  2  0  0  0  0  0  0
  187.1270  178.4480  137.3620 C   0  0  0  0  0  1  0  0  0  0  0  0
  188.9360  175.3510  136.2110 O   0  0  0  0  0  0  0  0  0  0  0  0
  187.7760  174.8990  136.8420 C   0  0  0  0  0  2  0  0  0  0  0  0
  186.6180  174.9540  135.8700 C   0  0  0  0  0  1  0  0  0  0  0  0
  2  4  1  0  0  0  0
  2 15  1  0  0  0  0
  3  6  2  0  0  0  0
  3  5  1  0  0  0  0
  4  1  1  0  0  0  0
  5  2  2  0  0  0  0
  6  7  1  0  0  0  0
  7  4  2  0  0  0  0
 10  9  1  0  0  0  0
 10 12  1  0  0  0  0
 11 15  1  0  0  0  0
 11 13  2  0  0  0  0
 13 16  1  0  0  0  0
 14 13  1  0  0  0  0
 15 10  2  0  0  0  0
 16 12  2  0  0  0  0
 16  8  1  0  0  0  0
 17 18  1  1  0  0  0
 17  3  1  0  0  0  0
 18 20  1  0  0  0  0
 19 18  2  0  0  0  0
 21 22  1  6  0  0  0
 21 17  1  0  0  0  0
 22 23  1  0  0  0  0
 23 24  1  0  0  0  0
 25 26  1  0  0  0  0
 25 21  1  0  0  0  0
 27 26  1  0  0  0  0
M  END
>  <MODEL>
9

>  <REMARK>
 VINA RESULT:      -7.4      4.945      7.679
  Name = 
  8 active torsions:
  status: ('A' for Active; 'I' for Inactive)
    1  A    between atoms: C_2  and  C_25
    2  A    between atoms: C_4  and  C_10
    3  A    between atoms: C_6  and  O_24
    4  A    between atoms: C_8  and  C_18
    5  A    between atoms: C_10  and  C_13
    6  A    between atoms: C_10  and  C_14
    7  A    between atoms: C_13  and  C_18
    8  A    between atoms: C_13  and  O_24
                            x       y       z     vdW  Elec       q    Type
                         _______ _______ _______ _____ _____    ______ ____

>  <TORSDO>
F 8

$$$$
