=
 OpenBabel11032421103D

 34 38  0  0  1  0  0  0  0  0999 V2000
  189.3340  177.8040  141.2720 C   0  0  1  0  0  3  0  0  0  0  0  0
  187.9200  178.2450  141.4820 C   0  0  0  0  0  0  0  0  0  0  0  0
  185.8510  178.7430  141.2340 C   0  0  0  0  0  0  0  0  0  0  0  0
  190.7430  176.9560  142.9260 C   0  0  0  0  0  2  0  0  0  0  0  0
  187.4230  176.7530  143.2830 C   0  0  0  0  0  2  0  0  0  0  0  0
  188.8690  176.2090  143.1920 C   0  0  2  0  0  3  0  0  0  0  0  0
  189.9200  176.6910  144.1840 C   0  0  2  0  0  3  0  0  0  0  0  0
  185.9150  178.5140  142.5050 N   0  0  0  0  0  0  0  0  0  0  0  0
  187.2990  178.1870  142.8120 C   0  0  2  0  0  3  0  0  0  0  0  0
  189.6770  176.5650  142.0050 N   0  0  1  0  0  0  0  0  0  0  0  0
  187.0860  178.5700  140.5510 N   0  0  0  0  0  0  0  0  0  0  0  0
  189.6930  177.6670  139.8230 C   0  0  0  0  0  0  0  0  0  0  0  0
  189.2290  178.1840  137.5020 C   0  0  0  0  0  3  0  0  0  0  0  0
  191.0850  176.7200  138.0630 C   0  0  0  0  0  0  0  0  0  0  0  0
  190.3050  177.3850  137.1070 C   0  0  0  0  0  3  0  0  0  0  0  0
  188.9210  178.3230  138.8580 C   0  0  0  0  0  3  0  0  0  0  0  0
  190.7710  176.8660  139.4220 C   0  0  0  0  0  3  0  0  0  0  0  0
  193.5840  174.1020  137.2710 C   0  0  0  0  0  0  0  0  0  0  0  0
  192.1860  175.8960  137.6530 N   0  0  0  0  0  0  0  0  0  0  0  0
  191.2630  173.9590  136.4700 C   0  0  0  0  0  1  0  0  0  0  0  0
  192.1650  174.4280  137.6000 C   0  0  1  0  0  3  0  0  0  0  0  0
  193.4540  176.4230  137.3640 N   0  0  0  0  0  2  0  0  0  0  0  0
  194.0510  172.9440  137.0990 O   0  0  0  0  0  0  0  0  0  0  0  0
  194.3350  175.3350  137.1720 C   0  0  0  0  0  0  0  0  0  0  0  0
  195.4720  175.4510  136.5700 N   0  0  0  0  0  2  0  0  0  0  0  0
  184.6350  179.8930  139.4110 O   0  0  0  0  0  0  0  0  0  0  0  0
  184.6040  179.1020  140.5530 C   0  0  0  0  0  0  0  0  0  0  0  0
  183.5010  178.6960  140.9990 O   0  0  0  0  0  1  0  0  0  0  0  0
  189.5500  177.9500  144.8310 N   0  0  0  0  0  0  0  0  0  0  0  0
  190.4720  178.8770  144.4670 O   0  0  0  0  0  1  0  0  0  0  0  0
  189.7130  177.7560  146.2640 C   0  0  0  0  0  2  0  0  0  0  0  0
  188.3010  176.7300  147.8870 O   0  0  0  0  0  1  0  0  0  0  0  0
  188.3900  177.5060  146.9010 C   0  0  0  0  0  0  0  0  0  0  0  0
  187.2580  178.1560  146.4280 O   0  0  0  0  0  0  0  0  0  0  0  0
  1 12  1  6  0  0  0
  1  2  1  0  0  0  0
  1 10  1  0  0  0  0
  2  9  1  0  0  0  0
  3  8  2  0  0  0  0
  4  7  1  0  0  0  0
  6  5  1  6  0  0  0
  6  7  1  0  0  0  0
  7 29  1  6  0  0  0
  8  9  1  0  0  0  0
  9  5  1  6  0  0  0
 10  4  1  1  0  0  0
 10  6  1  0  0  0  0
 11  3  1  0  0  0  0
 11  2  2  0  0  0  0
 13 16  1  0  0  0  0
 14 17  2  0  0  0  0
 15 13  2  0  0  0  0
 15 14  1  0  0  0  0
 16 12  2  0  0  0  0
 17 12  1  0  0  0  0
 18 21  1  0  0  0  0
 19 14  1  0  0  0  0
 21 20  1  6  0  0  0
 21 19  1  0  0  0  0
 22 19  1  0  0  0  0
 23 18  2  0  0  0  0
 24 18  1  0  0  0  0
 24 22  1  0  0  0  0
 25 24  2  0  0  0  0
 26 27  2  0  0  0  0
 27 28  1  0  0  0  0
 27  3  1  0  0  0  0
 29 31  1  0  0  0  0
 30 29  1  0  0  0  0
 31 33  1  0  0  0  0
 33 32  1  0  0  0  0
 34 33  2  0  0  0  0
M  END
>  <MODEL>
1

>  <REMARK>
 VINA RESULT:      -9.1      0.000      0.000
  Name = 
  6 active torsions:
  status: ('A' for Active; 'I' for Inactive)
    1  A    between atoms: N_3  and  C_5
    2  A    between atoms: N_3  and  C_24
    3  A    between atoms: C_5  and  C_27
    4  A    between atoms: C_6  and  C_7
    5  A    between atoms: N_8  and  C_17
    6  A    between atoms: C_12  and  C_14
                            x       y       z     vdW  Elec       q    Type
                         _______ _______ _______ _____ _____    ______ ____

>  <TORSDO>
F 6

$$$$
=
 OpenBabel11032421103D

 34 38  0  0  1  0  0  0  0  0999 V2000
  189.1950  177.8260  140.7630 C   0  0  1  0  0  3  0  0  0  0  0  0
  187.8340  178.2730  141.1970 C   0  0  0  0  0  0  0  0  0  0  0  0
  185.7530  178.7740  141.2840 C   0  0  0  0  0  0  0  0  0  0  0  0
  190.8540  176.9900  142.1750 C   0  0  0  0  0  2  0  0  0  0  0  0
  187.6350  176.8000  143.0700 C   0  0  0  0  0  2  0  0  0  0  0  0
  189.0470  176.2510  142.7500 C   0  0  2  0  0  3  0  0  0  0  0  0
  190.2460  176.7400  143.5520 C   0  0  2  0  0  3  0  0  0  0  0  0
  186.0230  178.5580  142.5300 N   0  0  0  0  0  0  0  0  0  0  0  0
  187.4380  178.2300  142.6100 C   0  0  2  0  0  3  0  0  0  0  0  0
  189.6510  176.5940  141.4430 N   0  0  1  0  0  0  0  0  0  0  0  0
  186.8600  178.5920  140.4110 N   0  0  0  0  0  0  0  0  0  0  0  0
  189.3120  177.6740  139.2770 C   0  0  0  0  0  0  0  0  0  0  0  0
  189.2900  178.6730  137.0700 C   0  0  0  0  0  3  0  0  0  0  0  0
  189.5770  176.2720  137.3030 C   0  0  0  0  0  0  0  0  0  0  0  0
  189.4730  177.4130  136.4950 C   0  0  0  0  0  3  0  0  0  0  0  0
  189.2070  178.8030  138.4600 C   0  0  0  0  0  3  0  0  0  0  0  0
  189.4960  176.4110  138.6960 C   0  0  0  0  0  3  0  0  0  0  0  0
  190.6070  173.1850  135.5330 C   0  0  0  0  0  0  0  0  0  0  0  0
  189.7590  174.9780  136.7080 N   0  0  0  0  0  0  0  0  0  0  0  0
  192.0290  174.2290  137.2460 C   0  0  0  0  0  1  0  0  0  0  0  0
  191.0210  174.4840  136.1380 C   0  0  1  0  0  3  0  0  0  0  0  0
  188.6960  174.0850  136.5090 N   0  0  0  0  0  2  0  0  0  0  0  0
  191.3690  172.3760  134.9380 O   0  0  0  0  0  0  0  0  0  0  0  0
  189.1880  172.9990  135.7490 C   0  0  0  0  0  0  0  0  0  0  0  0
  188.5820  171.8610  135.6780 N   0  0  0  0  0  2  0  0  0  0  0  0
  184.2560  179.8730  139.6480 O   0  0  0  0  0  0  0  0  0  0  0  0
  184.4120  179.1300  140.8110 C   0  0  0  0  0  0  0  0  0  0  0  0
  183.3970  178.7650  141.4580 O   0  0  0  0  0  1  0  0  0  0  0  0
  189.9880  178.0070  144.2380 N   0  0  0  0  0  0  0  0  0  0  0  0
  190.8430  178.9260  143.7240 O   0  0  0  0  0  1  0  0  0  0  0  0
  190.3760  177.8250  145.6290 C   0  0  0  0  0  2  0  0  0  0  0  0
  189.3270  176.5140  147.3210 O   0  0  0  0  0  1  0  0  0  0  0  0
  189.2000  177.4020  146.4390 C   0  0  0  0  0  0  0  0  0  0  0  0
  187.9680  178.0110  146.2430 O   0  0  0  0  0  0  0  0  0  0  0  0
  1 12  1  6  0  0  0
  1  2  1  0  0  0  0
  1 10  1  0  0  0  0
  2  9  1  0  0  0  0
  3  8  2  0  0  0  0
  4  7  1  0  0  0  0
  6  5  1  1  0  0  0
  6  7  1  0  0  0  0
  7 29  1  1  0  0  0
  8  9  1  0  0  0  0
  9  5  1  6  0  0  0
 10  4  1  1  0  0  0
 10  6  1  0  0  0  0
 11  2  2  0  0  0  0
 11  3  1  0  0  0  0
 13 16  1  0  0  0  0
 14 17  2  0  0  0  0
 15 13  2  0  0  0  0
 15 14  1  0  0  0  0
 16 12  2  0  0  0  0
 17 12  1  0  0  0  0
 18 24  1  0  0  0  0
 18 21  1  0  0  0  0
 19 14  1  0  0  0  0
 21 19  1  0  0  0  0
 21 20  1  1  0  0  0
 22 19  1  0  0  0  0
 23 18  2  0  0  0  0
 24 22  1  0  0  0  0
 25 24  2  0  0  0  0
 26 27  2  0  0  0  0
 27  3  1  0  0  0  0
 27 28  1  0  0  0  0
 29 31  1  0  0  0  0
 30 29  1  0  0  0  0
 31 33  1  0  0  0  0
 33 32  1  0  0  0  0
 34 33  2  0  0  0  0
M  END
>  <MODEL>
2

>  <REMARK>
 VINA RESULT:      -8.8      1.659      2.280
  Name = 
  6 active torsions:
  status: ('A' for Active; 'I' for Inactive)
    1  A    between atoms: N_3  and  C_5
    2  A    between atoms: N_3  and  C_24
    3  A    between atoms: C_5  and  C_27
    4  A    between atoms: C_6  and  C_7
    5  A    between atoms: N_8  and  C_17
    6  A    between atoms: C_12  and  C_14
                            x       y       z     vdW  Elec       q    Type
                         _______ _______ _______ _____ _____    ______ ____

>  <TORSDO>
F 6

$$$$
=
 OpenBabel11032421103D

 34 38  0  0  1  0  0  0  0  0999 V2000
  189.2030  177.8060  140.8760 C   0  0  1  0  0  3  0  0  0  0  0  0
  187.9610  178.0650  141.6700 C   0  0  0  0  0  0  0  0  0  0  0  0
  185.9340  178.3370  142.3070 C   0  0  0  0  0  0  0  0  0  0  0  0
  191.2170  177.0070  141.7420 C   0  0  0  0  0  2  0  0  0  0  0  0
  188.3420  176.3960  143.3400 C   0  0  0  0  0  2  0  0  0  0  0  0
  189.6680  176.0310  142.6310 C   0  0  2  0  0  3  0  0  0  0  0  0
  190.9880  176.5570  143.1820 C   0  0  2  0  0  3  0  0  0  0  0  0
  186.5190  178.0250  143.4180 N   0  0  0  0  0  0  0  0  0  0  0  0
  187.9300  177.8380  143.1210 C   0  0  2  0  0  3  0  0  0  0  0  0
  189.9040  176.5650  141.2710 N   0  0  1  0  0  0  0  0  0  0  0  0
  186.8020  178.3590  141.1820 N   0  0  0  0  0  0  0  0  0  0  0  0
  188.9620  177.8190  139.3970 C   0  0  0  0  0  0  0  0  0  0  0  0
  188.9800  179.0160  137.2910 C   0  0  0  0  0  3  0  0  0  0  0  0
  188.1990  176.7170  137.3630 C   0  0  0  0  0  0  0  0  0  0  0  0
  188.4690  177.8890  136.6430 C   0  0  0  0  0  3  0  0  0  0  0  0
  189.2230  178.9820  138.6670 C   0  0  0  0  0  3  0  0  0  0  0  0
  188.4490  176.6900  138.7430 C   0  0  0  0  0  3  0  0  0  0  0  0
  186.3360  173.7900  136.0640 C   0  0  0  0  0  0  0  0  0  0  0  0
  187.6700  175.5620  136.6950 N   0  0  0  0  0  0  0  0  0  0  0  0
  185.3280  176.0320  136.1460 C   0  0  0  0  0  1  0  0  0  0  0  0
  186.2910  175.0720  136.8260 C   0  0  1  0  0  3  0  0  0  0  0  0
  188.4690  174.7070  135.9220 N   0  0  0  0  0  2  0  0  0  0  0  0
  185.3630  173.0120  135.8780 O   0  0  0  0  0  0  0  0  0  0  0  0
  187.6790  173.5910  135.5640 C   0  0  0  0  0  0  0  0  0  0  0  0
  187.9870  172.7960  134.5940 N   0  0  0  0  0  2  0  0  0  0  0  0
  183.6970  178.5300  143.3480 O   0  0  0  0  0  1  0  0  0  0  0  0
  184.4960  178.5990  142.2130 C   0  0  0  0  0  0  0  0  0  0  0  0
  183.9770  178.8860  141.1030 O   0  0  0  0  0  0  0  0  0  0  0  0
  190.8120  177.7140  144.0600 N   0  0  0  0  0  0  0  0  0  0  0  0
  191.5090  178.7430  143.5170 O   0  0  0  0  0  1  0  0  0  0  0  0
  191.4700  177.3970  145.3190 C   0  0  0  0  0  2  0  0  0  0  0  0
  190.6810  176.3610  147.3150 O   0  0  0  0  0  1  0  0  0  0  0  0
  190.4560  177.1800  146.3880 C   0  0  0  0  0  0  0  0  0  0  0  0
  189.2740  177.9080  146.3800 O   0  0  0  0  0  0  0  0  0  0  0  0
  1 12  1  6  0  0  0
  1 10  1  0  0  0  0
  1  2  1  0  0  0  0
  2  9  1  0  0  0  0
  3  8  2  0  0  0  0
  4  7  1  0  0  0  0
  6  7  1  0  0  0  0
  6  5  1  1  0  0  0
  7 29  1  1  0  0  0
  9  5  1  6  0  0  0
  9  8  1  0  0  0  0
 10  4  1  1  0  0  0
 10  6  1  0  0  0  0
 11  2  2  0  0  0  0
 11  3  1  0  0  0  0
 13 16  1  0  0  0  0
 14 17  2  0  0  0  0
 15 13  2  0  0  0  0
 15 14  1  0  0  0  0
 16 12  2  0  0  0  0
 17 12  1  0  0  0  0
 18 21  1  0  0  0  0
 19 21  1  0  0  0  0
 19 14  1  0  0  0  0
 21 20  1  6  0  0  0
 22 19  1  0  0  0  0
 23 18  2  0  0  0  0
 24 22  1  0  0  0  0
 24 18  1  0  0  0  0
 25 24  2  0  0  0  0
 27  3  1  0  0  0  0
 27 26  1  0  0  0  0
 28 27  2  0  0  0  0
 29 31  1  0  0  0  0
 30 29  1  0  0  0  0
 31 33  1  0  0  0  0
 33 32  1  0  0  0  0
 34 33  2  0  0  0  0
M  END
>  <MODEL>
3

>  <REMARK>
 VINA RESULT:      -8.7      3.100      3.639
  Name = 
  6 active torsions:
  status: ('A' for Active; 'I' for Inactive)
    1  A    between atoms: N_3  and  C_5
    2  A    between atoms: N_3  and  C_24
    3  A    between atoms: C_5  and  C_27
    4  A    between atoms: C_6  and  C_7
    5  A    between atoms: N_8  and  C_17
    6  A    between atoms: C_12  and  C_14
                            x       y       z     vdW  Elec       q    Type
                         _______ _______ _______ _____ _____    ______ ____

>  <TORSDO>
F 6

$$$$
=
 OpenBabel11032421103D

 34 38  0  0  1  0  0  0  0  0999 V2000
  188.8310  177.9960  141.2250 C   0  0  1  0  0  3  0  0  0  0  0  0
  187.6770  178.1560  142.1640 C   0  0  0  0  0  0  0  0  0  0  0  0
  185.7260  178.3440  143.0280 C   0  0  0  0  0  0  0  0  0  0  0  0
  190.9150  177.1110  141.7870 C   0  0  0  0  0  2  0  0  0  0  0  0
  188.2100  176.3070  143.5840 C   0  0  0  0  0  2  0  0  0  0  0  0
  189.4560  176.0320  142.7090 C   0  0  2  0  0  3  0  0  0  0  0  0
  190.8280  176.4960  143.1810 C   0  0  2  0  0  3  0  0  0  0  0  0
  186.4160  177.9070  144.0320 N   0  0  0  0  0  0  0  0  0  0  0  0
  187.7890  177.7620  143.5750 C   0  0  2  0  0  3  0  0  0  0  0  0
  189.5590  176.7210  141.4030 N   0  0  1  0  0  0  0  0  0  0  0  0
  186.4770  178.4990  141.8320 N   0  0  0  0  0  0  0  0  0  0  0  0
  188.4430  178.1780  139.7890 C   0  0  0  0  0  0  0  0  0  0  0  0
  189.0430  178.8280  137.5340 C   0  0  0  0  0  3  0  0  0  0  0  0
  186.7680  178.1300  138.0230 C   0  0  0  0  0  0  0  0  0  0  0  0
  187.7340  178.5800  137.1120 C   0  0  0  0  0  3  0  0  0  0  0  0
  189.3970  178.6300  138.8720 C   0  0  0  0  0  3  0  0  0  0  0  0
  187.1310  177.9300  139.3620 C   0  0  0  0  0  3  0  0  0  0  0  0
  183.1510  177.4870  137.5370 C   0  0  0  0  0  0  0  0  0  0  0  0
  185.4230  177.8810  137.5860 N   0  0  0  0  0  0  0  0  0  0  0  0
  183.9620  179.4720  138.7430 C   0  0  0  0  0  1  0  0  0  0  0  0
  184.2270  178.0080  138.4310 C   0  0  1  0  0  3  0  0  0  0  0  0
  185.1270  177.3710  136.3130 N   0  0  0  0  0  2  0  0  0  0  0  0
  181.9260  177.4200  137.8250 O   0  0  0  0  0  0  0  0  0  0  0  0
  183.7440  177.0810  136.2810 C   0  0  0  0  0  0  0  0  0  0  0  0
  183.0860  176.9230  135.1810 N   0  0  0  0  0  2  0  0  0  0  0  0
  183.6880  178.8430  144.3410 O   0  0  0  0  0  1  0  0  0  0  0  0
  184.2870  178.6080  143.1090 C   0  0  0  0  0  0  0  0  0  0  0  0
  183.5870  178.6240  142.0640 O   0  0  0  0  0  0  0  0  0  0  0  0
  190.7490  177.5430  144.2000 N   0  0  0  0  0  0  0  0  0  0  0  0
  191.2330  178.6840  143.6470 O   0  0  0  0  0  1  0  0  0  0  0  0
  191.6810  177.1790  145.2580 C   0  0  0  0  0  2  0  0  0  0  0  0
  189.7000  176.9420  146.5620 O   0  0  0  0  0  0  0  0  0  0  0  0
  190.9550  177.0250  146.5500 C   0  0  0  0  0  0  0  0  0  0  0  0
  191.6660  176.9380  147.7390 O   0  0  0  0  0  1  0  0  0  0  0  0
  1 12  1  6  0  0  0
  1 10  1  0  0  0  0
  1  2  1  0  0  0  0
  2  9  1  0  0  0  0
  3 27  1  0  0  0  0
  3  8  2  0  0  0  0
  4  7  1  0  0  0  0
  6  7  1  0  0  0  0
  6  5  1  1  0  0  0
  7 29  1  1  0  0  0
  9  5  1  6  0  0  0
  9  8  1  0  0  0  0
 10  4  1  1  0  0  0
 10  6  1  0  0  0  0
 11  2  2  0  0  0  0
 11  3  1  0  0  0  0
 13 16  1  0  0  0  0
 14 17  2  0  0  0  0
 15 13  2  0  0  0  0
 15 14  1  0  0  0  0
 16 12  2  0  0  0  0
 17 12  1  0  0  0  0
 18 23  2  0  0  0  0
 18 21  1  0  0  0  0
 19 14  1  0  0  0  0
 19 21  1  0  0  0  0
 21 20  1  6  0  0  0
 22 19  1  0  0  0  0
 24 22  1  0  0  0  0
 24 18  1  0  0  0  0
 25 24  2  0  0  0  0
 27 26  1  0  0  0  0
 28 27  2  0  0  0  0
 29 31  1  0  0  0  0
 30 29  1  0  0  0  0
 31 33  1  0  0  0  0
 33 32  2  0  0  0  0
 33 34  1  0  0  0  0
M  END
>  <MODEL>
4

>  <REMARK>
 VINA RESULT:      -8.7      3.406      5.382
  Name = 
  6 active torsions:
  status: ('A' for Active; 'I' for Inactive)
    1  A    between atoms: N_3  and  C_5
    2  A    between atoms: N_3  and  C_24
    3  A    between atoms: C_5  and  C_27
    4  A    between atoms: C_6  and  C_7
    5  A    between atoms: N_8  and  C_17
    6  A    between atoms: C_12  and  C_14
                            x       y       z     vdW  Elec       q    Type
                         _______ _______ _______ _____ _____    ______ ____

>  <TORSDO>
F 6

$$$$
=
 OpenBabel11032421103D

 34 38  0  0  1  0  0  0  0  0999 V2000
  184.1010  178.7520  141.2210 C   0  0  1  0  0  3  0  0  0  0  0  0
  185.1180  178.7110  140.1240 C   0  0  0  0  0  0  0  0  0  0  0  0
  186.9040  178.4490  138.9700 C   0  0  0  0  0  0  0  0  0  0  0  0
  181.7900  178.6230  140.9230 C   0  0  0  0  0  2  0  0  0  0  0  0
  183.8540  177.3530  138.6160 C   0  0  0  0  0  2  0  0  0  0  0  0
  182.7050  177.3230  139.6530 C   0  0  2  0  0  3  0  0  0  0  0  0
  181.5020  178.2400  139.4740 C   0  0  2  0  0  3  0  0  0  0  0  0
  185.9910  178.4020  138.0550 N   0  0  0  0  0  0  0  0  0  0  0  0
  184.7110  178.5980  138.7180 C   0  0  2  0  0  3  0  0  0  0  0  0
  182.9910  177.7940  141.0270 N   0  0  1  0  0  0  0  0  0  0  0  0
  186.3970  178.6280  140.2850 N   0  0  0  0  0  0  0  0  0  0  0  0
  184.7040  178.5810  142.5820 C   0  0  0  0  0  0  0  0  0  0  0  0
  184.5290  178.8260  144.9860 C   0  0  0  0  0  3  0  0  0  0  0  0
  186.5730  177.9470  144.0090 C   0  0  0  0  0  0  0  0  0  0  0  0
  185.8250  178.3240  145.1330 C   0  0  0  0  0  3  0  0  0  0  0  0
  183.9700  178.9570  143.7110 C   0  0  0  0  0  3  0  0  0  0  0  0
  186.0030  178.0780  142.7340 C   0  0  0  0  0  3  0  0  0  0  0  0
  190.1050  177.1530  144.7960 C   0  0  0  0  0  0  0  0  0  0  0  0
  187.9050  177.4370  144.1640 N   0  0  0  0  0  0  0  0  0  0  0  0
  188.4100  177.4000  146.5610 C   0  0  0  0  0  1  0  0  0  0  0  0
  188.8610  177.8770  145.1900 C   0  0  1  0  0  3  0  0  0  0  0  0
  188.4740  176.5290  143.2590 N   0  0  0  0  0  2  0  0  0  0  0  0
  191.2070  177.2010  145.4050 O   0  0  0  0  0  0  0  0  0  0  0  0
  189.8360  176.3780  143.6040 C   0  0  0  0  0  0  0  0  0  0  0  0
  190.5550  175.3830  143.2030 N   0  0  0  0  0  2  0  0  0  0  0  0
  189.0540  179.3360  138.1250 O   0  0  0  0  0  0  0  0  0  0  0  0
  188.3300  178.2870  138.6780 C   0  0  0  0  0  0  0  0  0  0  0  0
  188.9060  177.1960  138.9250 O   0  0  0  0  0  1  0  0  0  0  0  0
  181.7790  179.3650  138.5810 N   0  0  0  0  0  0  0  0  0  0  0  0
  181.7210  180.4980  139.3260 O   0  0  0  0  0  1  0  0  0  0  0  0
  180.6730  179.4430  137.6380 C   0  0  0  0  0  2  0  0  0  0  0  0
  181.8820  178.2920  135.9360 O   0  0  0  0  0  1  0  0  0  0  0  0
  181.1750  179.2860  136.2440 C   0  0  0  0  0  0  0  0  0  0  0  0
  180.8350  180.2210  135.2750 O   0  0  0  0  0  0  0  0  0  0  0  0
  1 12  1  1  0  0  0
  2 11  2  0  0  0  0
  2  1  1  0  0  0  0
  3 11  1  0  0  0  0
  6  5  1  6  0  0  0
  6 10  1  0  0  0  0
  7 29  1  6  0  0  0
  7  6  1  0  0  0  0
  7  4  1  0  0  0  0
  8  9  1  0  0  0  0
  8  3  2  0  0  0  0
  9  5  1  1  0  0  0
  9  2  1  0  0  0  0
 10  4  1  6  0  0  0
 10  1  1  0  0  0  0
 12 17  2  0  0  0  0
 12 16  1  0  0  0  0
 13 15  1  0  0  0  0
 14 19  1  0  0  0  0
 14 15  2  0  0  0  0
 16 13  2  0  0  0  0
 17 14  1  0  0  0  0
 18 21  1  0  0  0  0
 18 23  2  0  0  0  0
 19 21  1  0  0  0  0
 21 20  1  1  0  0  0
 22 24  1  0  0  0  0
 22 19  1  0  0  0  0
 24 18  1  0  0  0  0
 25 24  2  0  0  0  0
 26 27  2  0  0  0  0
 27 28  1  0  0  0  0
 27  3  1  0  0  0  0
 29 30  1  0  0  0  0
 31 29  1  0  0  0  0
 32 33  1  0  0  0  0
 33 31  1  0  0  0  0
 34 33  2  0  0  0  0
M  END
>  <MODEL>
5

>  <REMARK>
 VINA RESULT:      -8.5      3.736      8.293
  Name = 
  6 active torsions:
  status: ('A' for Active; 'I' for Inactive)
    1  A    between atoms: N_3  and  C_5
    2  A    between atoms: N_3  and  C_24
    3  A    between atoms: C_5  and  C_27
    4  A    between atoms: C_6  and  C_7
    5  A    between atoms: N_8  and  C_17
    6  A    between atoms: C_12  and  C_14
                            x       y       z     vdW  Elec       q    Type
                         _______ _______ _______ _____ _____    ______ ____

>  <TORSDO>
F 6

$$$$
=
 OpenBabel11032421103D

 34 38  0  0  1  0  0  0  0  0999 V2000
  189.7630  177.0670  140.6710 C   0  0  1  0  0  3  0  0  0  0  0  0
  188.3970  177.5900  140.3560 C   0  0  0  0  0  0  0  0  0  0  0  0
  186.5230  178.6270  140.3860 C   0  0  0  0  0  0  0  0  0  0  0  0
  191.3010  176.2790  139.1040 C   0  0  0  0  0  2  0  0  0  0  0  0
  188.9130  178.4300  138.1770 C   0  0  0  0  0  2  0  0  0  0  0  0
  190.3640  177.9230  138.3570 C   0  0  2  0  0  3  0  0  0  0  0  0
  190.7940  176.6150  137.7050 C   0  0  2  0  0  3  0  0  0  0  0  0
  186.6600  178.3690  139.1260 N   0  0  0  0  0  0  0  0  0  0  0  0
  187.9030  177.6300  138.9730 C   0  0  2  0  0  3  0  0  0  0  0  0
  190.7970  177.5100  139.7110 N   0  0  1  0  0  0  0  0  0  0  0  0
  187.6000  178.1680  141.1910 N   0  0  0  0  0  0  0  0  0  0  0  0
  190.1930  177.3690  142.0750 C   0  0  0  0  0  0  0  0  0  0  0  0
  191.9690  177.8010  143.6640 C   0  0  0  0  0  3  0  0  0  0  0  0
  189.6650  177.7040  144.4280 C   0  0  0  0  0  0  0  0  0  0  0  0
  191.0300  177.8800  144.6960 C   0  0  0  0  0  3  0  0  0  0  0  0
  191.5520  177.5430  142.3560 C   0  0  0  0  0  3  0  0  0  0  0  0
  189.2540  177.4490  143.1120 C   0  0  0  0  0  3  0  0  0  0  0  0
  186.8230  178.2450  146.7440 C   0  0  0  0  0  0  0  0  0  0  0  0
  188.7040  177.7810  145.4920 N   0  0  0  0  0  0  0  0  0  0  0  0
  186.5280  177.1280  144.5720 C   0  0  0  0  0  1  0  0  0  0  0  0
  187.3020  178.1930  145.3310 C   0  0  1  0  0  3  0  0  0  0  0  0
  189.0490  177.5720  146.8350 N   0  0  0  0  0  2  0  0  0  0  0  0
  185.6540  178.5350  147.1130 O   0  0  0  0  0  0  0  0  0  0  0  0
  187.9200  177.8970  147.6220 C   0  0  0  0  0  0  0  0  0  0  0  0
  187.7800  177.5030  148.8440 N   0  0  0  0  0  2  0  0  0  0  0  0
  185.3100  179.6520  142.2840 O   0  0  0  0  0  1  0  0  0  0  0  0
  185.3800  179.3690  140.9250 C   0  0  0  0  0  0  0  0  0  0  0  0
  184.4580  179.7530  140.1610 O   0  0  0  0  0  0  0  0  0  0  0  0
  189.6590  175.7620  137.3510 N   0  0  0  0  0  0  0  0  0  0  0  0
  189.9570  174.5030  137.7590 O   0  0  0  0  0  1  0  0  0  0  0  0
  189.5990  175.7150  135.8980 C   0  0  0  0  0  2  0  0  0  0  0  0
  187.2800  175.2900  135.5440 O   0  0  0  0  0  1  0  0  0  0  0  0
  188.2380  176.0970  135.4280 C   0  0  0  0  0  0  0  0  0  0  0  0
  188.0180  177.3590  134.8920 O   0  0  0  0  0  0  0  0  0  0  0  0
  1 12  1  1  0  0  0
  2  1  1  0  0  0  0
  2 11  2  0  0  0  0
  3 27  1  0  0  0  0
  3 11  1  0  0  0  0
  6  5  1  1  0  0  0
  6 10  1  0  0  0  0
  7 29  1  1  0  0  0
  7  6  1  0  0  0  0
  7  4  1  0  0  0  0
  8  3  2  0  0  0  0
  9  5  1  6  0  0  0
  9  8  1  0  0  0  0
  9  2  1  0  0  0  0
 10  4  1  6  0  0  0
 10  1  1  0  0  0  0
 12 16  2  0  0  0  0
 12 17  1  0  0  0  0
 13 15  2  0  0  0  0
 14 15  1  0  0  0  0
 14 19  1  0  0  0  0
 16 13  1  0  0  0  0
 17 14  2  0  0  0  0
 18 23  2  0  0  0  0
 18 24  1  0  0  0  0
 19 22  1  0  0  0  0
 21 20  1  6  0  0  0
 21 19  1  0  0  0  0
 21 18  1  0  0  0  0
 22 24  1  0  0  0  0
 24 25  2  0  0  0  0
 27 26  1  0  0  0  0
 28 27  2  0  0  0  0
 29 30  1  0  0  0  0
 31 29  1  0  0  0  0
 33 32  1  0  0  0  0
 33 31  1  0  0  0  0
 34 33  2  0  0  0  0
M  END
>  <MODEL>
6

>  <REMARK>
 VINA RESULT:      -8.5      2.426      7.911
  Name = 
  6 active torsions:
  status: ('A' for Active; 'I' for Inactive)
    1  A    between atoms: N_3  and  C_5
    2  A    between atoms: N_3  and  C_24
    3  A    between atoms: C_5  and  C_27
    4  A    between atoms: C_6  and  C_7
    5  A    between atoms: N_8  and  C_17
    6  A    between atoms: C_12  and  C_14
                            x       y       z     vdW  Elec       q    Type
                         _______ _______ _______ _____ _____    ______ ____

>  <TORSDO>
F 6

$$$$
=
 OpenBabel11032421103D

 34 38  0  0  1  0  0  0  0  0999 V2000
  188.0630  178.0690  141.7030 C   0  0  1  0  0  3  0  0  0  0  0  0
  187.0800  178.2900  142.8100 C   0  0  0  0  0  0  0  0  0  0  0  0
  185.2990  178.5400  143.9740 C   0  0  0  0  0  0  0  0  0  0  0  0
  190.2130  177.2020  141.9600 C   0  0  0  0  0  2  0  0  0  0  0  0
  187.8450  176.5190  144.2230 C   0  0  0  0  0  2  0  0  0  0  0  0
  188.9300  176.1870  143.1700 C   0  0  2  0  0  3  0  0  0  0  0  0
  190.3600  176.6660  143.3810 C   0  0  2  0  0  3  0  0  0  0  0  0
  186.1470  178.1550  144.8720 N   0  0  0  0  0  0  0  0  0  0  0  0
  187.4260  177.9750  144.2020 C   0  0  2  0  0  3  0  0  0  0  0  0
  188.8130  176.8010  141.8280 N   0  0  1  0  0  0  0  0  0  0  0  0
  185.8410  178.6230  142.6630 N   0  0  0  0  0  0  0  0  0  0  0  0
  187.4410  178.1740  140.3430 C   0  0  0  0  0  0  0  0  0  0  0  0
  187.6940  178.2400  137.9350 C   0  0  0  0  0  3  0  0  0  0  0  0
  185.4870  178.4830  138.9230 C   0  0  0  0  0  0  0  0  0  0  0  0
  186.3150  178.4220  137.7930 C   0  0  0  0  0  3  0  0  0  0  0  0
  188.2560  178.1190  139.2080 C   0  0  0  0  0  3  0  0  0  0  0  0
  186.0590  178.3570  140.1970 C   0  0  0  0  0  3  0  0  0  0  0  0
  181.9350  178.7940  137.9150 C   0  0  0  0  0  0  0  0  0  0  0  0
  184.0730  178.6750  138.7730 N   0  0  0  0  0  0  0  0  0  0  0  0
  183.1640  176.6740  137.6890 C   0  0  0  0  0  1  0  0  0  0  0  0
  183.2720  178.1900  137.6400 C   0  0  1  0  0  3  0  0  0  0  0  0
  183.3220  179.4600  139.6610 N   0  0  0  0  0  2  0  0  0  0  0  0
  180.9010  178.6370  137.2130 O   0  0  0  0  0  0  0  0  0  0  0  0
  182.0190  179.5820  139.1260 C   0  0  0  0  0  0  0  0  0  0  0  0
  181.0010  179.9410  139.8340 N   0  0  0  0  0  2  0  0  0  0  0  0
  182.9570  178.8840  143.2530 O   0  0  0  0  0  0  0  0  0  0  0  0
  183.8930  178.8190  144.2770 C   0  0  0  0  0  0  0  0  0  0  0  0
  183.5270  179.0030  145.4670 O   0  0  0  0  0  1  0  0  0  0  0  0
  190.4490  177.7690  144.3390 N   0  0  0  0  0  0  0  0  0  0  0  0
  190.7230  178.8960  143.6340 O   0  0  0  0  0  1  0  0  0  0  0  0
  191.6170  177.5170  145.1710 C   0  0  0  0  0  2  0  0  0  0  0  0
  190.0980  176.9370  146.9140 O   0  0  0  0  0  0  0  0  0  0  0  0
  191.2250  176.7500  146.3860 C   0  0  0  0  0  0  0  0  0  0  0  0
  192.0900  175.8040  146.9190 O   0  0  0  0  0  1  0  0  0  0  0  0
  1 12  1  6  0  0  0
  1 10  1  0  0  0  0
  1  2  1  0  0  0  0
  2  9  1  0  0  0  0
  3 27  1  0  0  0  0
  3  8  2  0  0  0  0
  4  7  1  0  0  0  0
  6  7  1  0  0  0  0
  6  5  1  1  0  0  0
  7 29  1  1  0  0  0
  9  5  1  6  0  0  0
  9  8  1  0  0  0  0
 10  4  1  1  0  0  0
 10  6  1  0  0  0  0
 11  2  2  0  0  0  0
 11  3  1  0  0  0  0
 13 16  1  0  0  0  0
 14 17  2  0  0  0  0
 15 13  2  0  0  0  0
 15 14  1  0  0  0  0
 16 12  2  0  0  0  0
 17 12  1  0  0  0  0
 18 24  1  0  0  0  0
 19 14  1  0  0  0  0
 19 22  1  0  0  0  0
 21 20  1  1  0  0  0
 21 18  1  0  0  0  0
 21 19  1  0  0  0  0
 23 18  2  0  0  0  0
 24 22  1  0  0  0  0
 24 25  2  0  0  0  0
 26 27  2  0  0  0  0
 27 28  1  0  0  0  0
 29 31  1  0  0  0  0
 30 29  1  0  0  0  0
 31 33  1  0  0  0  0
 33 32  2  0  0  0  0
 33 34  1  0  0  0  0
M  END
>  <MODEL>
7

>  <REMARK>
 VINA RESULT:      -8.0      3.770      6.314
  Name = 
  6 active torsions:
  status: ('A' for Active; 'I' for Inactive)
    1  A    between atoms: N_3  and  C_5
    2  A    between atoms: N_3  and  C_24
    3  A    between atoms: C_5  and  C_27
    4  A    between atoms: C_6  and  C_7
    5  A    between atoms: N_8  and  C_17
    6  A    between atoms: C_12  and  C_14
                            x       y       z     vdW  Elec       q    Type
                         _______ _______ _______ _____ _____    ______ ____

>  <TORSDO>
F 6

$$$$
=
 OpenBabel11032421103D

 34 38  0  0  1  0  0  0  0  0999 V2000
  188.1090  177.2470  145.2930 C   0  0  1  0  0  3  0  0  0  0  0  0
  188.8220  177.0280  143.9960 C   0  0  0  0  0  0  0  0  0  0  0  0
  189.4250  177.0410  141.9400 C   0  0  0  0  0  0  0  0  0  0  0  0
  189.0970  177.1790  147.4050 C   0  0  0  0  0  2  0  0  0  0  0  0
  190.9540  177.8500  144.7040 C   0  0  0  0  0  2  0  0  0  0  0  0
  190.3530  178.1150  146.1050 C   0  0  2  0  0  3  0  0  0  0  0  0
  190.6130  177.1280  147.2370 C   0  0  2  0  0  3  0  0  0  0  0  0
  190.5430  176.7880  142.5390 N   0  0  0  0  0  0  0  0  0  0  0  0
  190.2590  176.7250  143.9650 C   0  0  2  0  0  3  0  0  0  0  0  0
  188.8820  178.0600  146.2570 N   0  0  1  0  0  0  0  0  0  0  0  0
  188.3220  177.2130  142.8200 N   0  0  0  0  0  0  0  0  0  0  0  0
  186.7350  177.8200  145.1130 C   0  0  0  0  0  0  0  0  0  0  0  0
  184.6700  178.6300  146.0860 C   0  0  0  0  0  3  0  0  0  0  0  0
  184.9120  178.5420  143.6700 C   0  0  0  0  0  0  0  0  0  0  0  0
  184.1470  178.8400  144.8060 C   0  0  0  0  0  3  0  0  0  0  0  0
  185.9620  178.1180  146.2390 C   0  0  0  0  0  3  0  0  0  0  0  0
  186.2080  178.0320  143.8310 C   0  0  0  0  0  3  0  0  0  0  0  0
  183.0870  178.6170  140.4460 C   0  0  0  0  0  0  0  0  0  0  0  0
  184.3700  178.7550  142.3580 N   0  0  0  0  0  0  0  0  0  0  0  0
  181.9430  179.0020  142.5890 C   0  0  0  0  0  1  0  0  0  0  0  0
  183.0680  178.2540  141.8930 C   0  0  1  0  0  3  0  0  0  0  0  0
  185.0980  179.3790  141.3340 N   0  0  0  0  0  2  0  0  0  0  0  0
  182.1560  178.4050  139.6230 O   0  0  0  0  0  0  0  0  0  0  0  0
  184.3460  179.2640  140.1430 C   0  0  0  0  0  0  0  0  0  0  0  0
  184.5540  180.0070  139.1070 N   0  0  0  0  0  2  0  0  0  0  0  0
  188.3000  177.9490  139.9320 O   0  0  0  0  0  1  0  0  0  0  0  0
  189.3170  177.1820  140.4860 C   0  0  0  0  0  0  0  0  0  0  0  0
  190.1460  176.6090  139.7320 O   0  0  0  0  0  0  0  0  0  0  0  0
  191.0320  175.8120  146.7530 N   0  0  0  0  0  0  0  0  0  0  0  0
  190.4320  174.8830  147.5380 O   0  0  0  0  0  1  0  0  0  0  0  0
  192.4610  175.7000  147.0080 C   0  0  0  0  0  2  0  0  0  0  0  0
  192.8040  174.8560  149.2110 O   0  0  0  0  0  1  0  0  0  0  0  0
  192.7360  175.8650  148.4630 C   0  0  0  0  0  0  0  0  0  0  0  0
  192.9520  177.1310  148.9880 O   0  0  0  0  0  0  0  0  0  0  0  0
  1 12  1  6  0  0  0
  1 10  1  0  0  0  0
  2  1  1  0  0  0  0
  3  8  2  0  0  0  0
  3 11  1  0  0  0  0
  6  5  1  6  0  0  0
  6 10  1  0  0  0  0
  6  7  1  0  0  0  0
  7 29  1  6  0  0  0
  7  4  1  0  0  0  0
  8  9  1  0  0  0  0
  9  2  1  0  0  0  0
  9  5  1  1  0  0  0
 10  4  1  1  0  0  0
 11  2  2  0  0  0  0
 12 16  1  0  0  0  0
 13 16  2  0  0  0  0
 14 17  1  0  0  0  0
 14 15  2  0  0  0  0
 15 13  1  0  0  0  0
 17 12  2  0  0  0  0
 18 21  1  0  0  0  0
 19 14  1  0  0  0  0
 21 19  1  0  0  0  0
 21 20  1  1  0  0  0
 22 19  1  0  0  0  0
 23 18  2  0  0  0  0
 24 18  1  0  0  0  0
 24 22  1  0  0  0  0
 25 24  2  0  0  0  0
 26 27  1  0  0  0  0
 27  3  1  0  0  0  0
 28 27  2  0  0  0  0
 29 31  1  0  0  0  0
 29 30  1  0  0  0  0
 31 33  1  0  0  0  0
 33 34  2  0  0  0  0
 33 32  1  0  0  0  0
M  END
>  <MODEL>
8

>  <REMARK>
 VINA RESULT:      -7.9      3.551      7.379
  Name = 
  6 active torsions:
  status: ('A' for Active; 'I' for Inactive)
    1  A    between atoms: N_3  and  C_5
    2  A    between atoms: N_3  and  C_24
    3  A    between atoms: C_5  and  C_27
    4  A    between atoms: C_6  and  C_7
    5  A    between atoms: N_8  and  C_17
    6  A    between atoms: C_12  and  C_14
                            x       y       z     vdW  Elec       q    Type
                         _______ _______ _______ _____ _____    ______ ____

>  <TORSDO>
F 6

$$$$
=
 OpenBabel11032421103D

 34 38  0  0  1  0  0  0  0  0999 V2000
  191.4580  175.7490  138.1050 C   0  0  1  0  0  3  0  0  0  0  0  0
  190.7630  174.6040  137.4390 C   0  0  0  0  0  0  0  0  0  0  0  0
  189.3050  173.2580  136.6310 C   0  0  0  0  0  0  0  0  0  0  0  0
  193.6210  176.4790  137.6250 C   0  0  0  0  0  2  0  0  0  0  0  0
  191.8700  174.7920  135.3280 C   0  0  0  0  0  2  0  0  0  0  0  0
  192.6780  175.9860  135.8910 C   0  0  2  0  0  3  0  0  0  0  0  0
  194.1100  175.7710  136.3650 C   0  0  2  0  0  3  0  0  0  0  0  0
  190.3480  172.9720  135.9210 N   0  0  0  0  0  0  0  0  0  0  0  0
  191.4340  173.8130  136.3990 C   0  0  2  0  0  3  0  0  0  0  0  0
  192.2360  176.5880  137.1680 N   0  0  1  0  0  0  0  0  0  0  0  0
  189.5190  174.2880  137.5860 N   0  0  0  0  0  0  0  0  0  0  0  0
  190.5300  176.6010  138.9180 C   0  0  0  0  0  0  0  0  0  0  0  0
  188.7230  178.2110  139.0130 C   0  0  0  0  0  3  0  0  0  0  0  0
  189.7730  177.4540  141.0690 C   0  0  0  0  0  0  0  0  0  0  0  0
  188.8210  178.2420  140.4070 C   0  0  0  0  0  3  0  0  0  0  0  0
  189.5780  177.3940  138.2690 C   0  0  0  0  0  3  0  0  0  0  0  0
  190.6250  176.6340  140.3160 C   0  0  0  0  0  3  0  0  0  0  0  0
  189.4230  177.7950  144.7420 C   0  0  0  0  0  0  0  0  0  0  0  0
  189.8730  177.4920  142.5010 N   0  0  0  0  0  0  0  0  0  0  0  0
  187.8590  176.4380  143.4140 C   0  0  0  0  0  1  0  0  0  0  0  0
  188.7410  177.6760  143.4200 C   0  0  1  0  0  3  0  0  0  0  0  0
  191.1070  177.4710  143.1690 N   0  0  0  0  0  2  0  0  0  0  0  0
  188.8480  177.9440  145.8540 O   0  0  0  0  0  0  0  0  0  0  0  0
  190.8530  177.7010  144.5410 C   0  0  0  0  0  0  0  0  0  0  0  0
  191.7030  177.4130  145.4690 N   0  0  0  0  0  2  0  0  0  0  0  0
  187.9450  171.2680  136.0700 O   0  0  0  0  0  0  0  0  0  0  0  0
  188.0070  172.6080  136.4340 C   0  0  0  0  0  0  0  0  0  0  0  0
  186.9430  173.2590  136.5920 O   0  0  0  0  0  1  0  0  0  0  0  0
  194.4060  174.3660  136.6470 N   0  0  0  0  0  0  0  0  0  0  0  0
  194.6510  174.2630  137.9770 O   0  0  0  0  0  1  0  0  0  0  0  0
  195.6610  174.0530  135.9780 C   0  0  0  0  0  2  0  0  0  0  0  0
  197.3150  173.5050  137.6060 O   0  0  0  0  0  1  0  0  0  0  0  0
  196.8110  174.3880  136.8640 C   0  0  0  0  0  0  0  0  0  0  0  0
  197.3510  175.6670  136.8460 O   0  0  0  0  0  0  0  0  0  0  0  0
  1 12  1  6  0  0  0
  2 11  2  0  0  0  0
  2  1  1  0  0  0  0
  3 11  1  0  0  0  0
  6  5  1  1  0  0  0
  6  7  1  0  0  0  0
  6 10  1  0  0  0  0
  7 29  1  1  0  0  0
  7  4  1  0  0  0  0
  8  9  1  0  0  0  0
  8  3  2  0  0  0  0
  9  5  1  6  0  0  0
  9  2  1  0  0  0  0
 10  4  1  1  0  0  0
 10  1  1  0  0  0  0
 12 17  1  0  0  0  0
 13 15  2  0  0  0  0
 14 19  1  0  0  0  0
 15 14  1  0  0  0  0
 16 12  2  0  0  0  0
 16 13  1  0  0  0  0
 17 14  2  0  0  0  0
 18 23  2  0  0  0  0
 19 22  1  0  0  0  0
 19 21  1  0  0  0  0
 21 20  1  1  0  0  0
 21 18  1  0  0  0  0
 22 24  1  0  0  0  0
 24 18  1  0  0  0  0
 24 25  2  0  0  0  0
 26 27  2  0  0  0  0
 27 28  1  0  0  0  0
 27  3  1  0  0  0  0
 29 30  1  0  0  0  0
 31 29  1  0  0  0  0
 31 33  1  0  0  0  0
 33 32  1  0  0  0  0
 34 33  2  0  0  0  0
M  END
>  <MODEL>
9

>  <REMARK>
 VINA RESULT:      -7.6      2.593      8.370
  Name = 
  6 active torsions:
  status: ('A' for Active; 'I' for Inactive)
    1  A    between atoms: N_3  and  C_5
    2  A    between atoms: N_3  and  C_24
    3  A    between atoms: C_5  and  C_27
    4  A    between atoms: C_6  and  C_7
    5  A    between atoms: N_8  and  C_17
    6  A    between atoms: C_12  and  C_14
                            x       y       z     vdW  Elec       q    Type
                         _______ _______ _______ _____ _____    ______ ____

>  <TORSDO>
F 6

$$$$
