=
 OpenBabel11032421003D

 46 51  0  0  1  0  0  0  0  0999 V2000
  189.2820  177.0470  143.9180 C   0  0  0  0  0  0  0  0  0  0  0  0
  188.3920  177.1560  142.8390 C   0  0  0  0  0  0  0  0  0  0  0  0
  192.1370  177.0930  146.8360 O   0  0  0  0  0  0  0  0  0  0  0  0
  190.6040  176.4190  143.7490 C   0  0  0  0  0  3  0  0  0  0  0  0
  186.8460  178.3470  144.2730 C   0  0  0  0  0  0  0  0  0  0  0  0
  187.7210  178.2090  145.3090 N   0  0  0  0  0  0  0  0  0  0  0  0
  191.4730  176.4110  144.7120 N   0  0  0  0  0  0  0  0  0  0  0  0
  191.2030  176.9860  145.9970 C   0  0  0  0  0  0  0  0  0  0  0  0
  189.8140  177.4210  146.3750 C   0  0  1  0  0  3  0  0  0  0  0  0
  188.9190  177.5790  145.1680 C   0  0  0  0  0  0  0  0  0  0  0  0
  187.1670  177.8100  143.0250 C   0  0  0  0  0  3  0  0  0  0  0  0
  185.5210  179.0390  144.4540 C   0  0  2  0  0  0  0  0  0  0  0  0
  184.6540  178.1790  145.3650 C   0  0  2  0  0  3  0  0  0  0  0  0
  184.3370  178.2790  143.8850 C   0  0  1  0  0  3  0  0  0  0  0  0
  185.2680  179.4570  145.8900 C   0  0  0  0  0  2  0  0  0  0  0  0
  183.2160  179.1840  143.6840 N   0  0  0  0  0  2  0  0  0  0  0  0
  182.5080  178.7070  142.5110 C   0  0  0  0  0  2  0  0  0  0  0  0
  183.5010  178.1660  141.5030 C   0  0  0  0  0  2  0  0  0  0  0  0
  183.1800  178.7090  140.1200 C   0  0  1  0  0  3  0  0  0  0  0  0
  184.3880  179.3560  139.5270 C   0  0  0  0  0  0  0  0  0  0  0  0
  184.2960  180.5920  138.8970 O   0  0  0  0  0  0  0  0  0  0  0  0
  185.4970  178.7660  139.5830 O   0  0  0  0  0  1  0  0  0  0  0  0
  182.5540  177.4160  139.0480 S   0  0  0  0  0  0  0  0  0  0  0  0
  181.0520  177.4670  139.0140 O   0  0  0  0  0  0  0  0  0  0  0  0
  182.9890  176.0730  139.5630 O   0  0  0  0  0  0  0  0  0  0  0  0
  183.1880  177.6400  137.3960 C   0  0  0  0  0  2  0  0  0  0  0  0
  183.5330  175.4940  136.4190 O   0  0  0  0  0  0  0  0  0  0  0  0
  185.3930  176.4820  137.3210 O   0  0  0  0  0  1  0  0  0  0  0  0
  184.0420  176.4850  137.0050 C   0  0  0  0  0  0  0  0  0  0  0  0
  189.2320  176.4300  147.3380 C   0  0  0  0  0  3  0  0  0  0  0  0
  188.3500  176.8010  148.2640 C   0  0  0  0  0  2  0  0  0  0  0  0
  188.7480  176.6280  141.5560 N   0  0  0  0  0  2  0  0  0  0  0  0
  188.9070  178.2500  139.7190 C   0  0  0  0  0  1  0  0  0  0  0  0
  189.6610  177.2960  140.6340 C   0  0  2  0  0  3  0  0  0  0  0  0
  190.4390  176.3200  139.8670 N   0  0  0  0  0  2  0  0  0  0  0  0
  190.4240  176.6520  138.4450 C   0  0  0  0  0  2  0  0  0  0  0  0
  189.2550  173.9420  136.6750 C   0  0  0  0  0  0  0  0  0  0  0  0
  190.8520  175.7820  135.8560 S   0  0  1  0  0  0  0  0  0  0  0  0
  189.7570  174.3940  137.7800 N   0  0  0  0  0  0  0  0  0  0  0  0
  190.7810  175.4230  137.6260 C   0  0  2  0  0  3  0  0  0  0  0  0
  189.7420  174.5020  135.4660 N   0  0  0  0  0  2  0  0  0  0  0  0
  190.0010  177.0340  135.6740 O   0  0  0  0  0  0  0  0  0  0  0  0
  188.2430  172.8520  136.6750 C   0  0  0  0  0  2  0  0  0  0  0  0
  185.8820  172.3150  136.1780 C   0  0  0  0  0  2  0  0  0  0  0  0
  186.8570  173.4350  136.4740 C   0  0  0  0  0  3  0  0  0  0  0  0
  185.9430  172.9150  137.5640 C   0  0  0  0  0  2  0  0  0  0  0  0
  1 10  1  0  0  0  0
  2 11  1  0  0  0  0
  2  1  2  0  0  0  0
  4  1  1  0  0  0  0
  4  7  2  0  0  0  0
  5  6  1  0  0  0  0
  7  8  1  0  0  0  0
  8  9  1  0  0  0  0
  8  3  2  0  0  0  0
  9 30  1  1  0  0  0
 10  6  2  0  0  0  0
 10  9  1  0  0  0  0
 11  5  2  0  0  0  0
 12  5  1  6  0  0  0
 12 13  1  0  0  0  0
 12 15  1  0  0  0  0
 13 15  1  1  0  0  0
 14 16  1  1  0  0  0
 14 12  1  0  0  0  0
 14 13  1  0  0  0  0
 17 16  1  0  0  0  0
 18 17  1  0  0  0  0
 19 18  1  1  0  0  0
 20 22  1  0  0  0  0
 20 19  1  0  0  0  0
 21 20  2  0  0  0  0
 23 25  2  0  0  0  0
 23 19  1  0  0  0  0
 24 23  2  0  0  0  0
 26 23  1  0  0  0  0
 27 29  2  0  0  0  0
 29 28  1  0  0  0  0
 29 26  1  0  0  0  0
 30 31  2  0  0  0  0
 32  2  1  0  0  0  0
 34 33  1  6  0  0  0
 34 32  1  0  0  0  0
 35 34  1  0  0  0  0
 36 35  1  0  0  0  0
 37 39  2  0  0  0  0
 38 42  2  1  0  0  0
 38 40  1  0  0  0  0
 40 39  1  0  0  0  0
 40 36  1  1  0  0  0
 41 38  1  0  0  0  0
 41 37  1  0  0  0  0
 43 37  1  0  0  0  0
 44 45  1  0  0  0  0
 44 46  1  0  0  0  0
 45 43  1  0  0  0  0
 45 46  1  0  0  0  0
M  END
>  <MODEL>
1

>  <REMARK>
 VINA RESULT:      -7.3      0.000      0.000
  Name = 
  17 active torsions:
  status: ('A' for Active; 'I' for Inactive)
    1  A    between atoms: C_2  and  C_40
    2  A    between atoms: C_3  and  C_23
    3  A    between atoms: C_4  and  C_42
    4  A    between atoms: C_6  and  S_14
    5  A    between atoms: C_6  and  C_33
    6  A    between atoms: C_7  and  N_9
    7  A    between atoms: N_9  and  C_15
    8  A    between atoms: S_14  and  C_42
    9  A    between atoms: C_15  and  N_35
   10  A    between atoms: C_16  and  C_21
   11  A    between atoms: N_19  and  C_20
   12  A    between atoms: N_19  and  C_32
   13  A    between atoms: C_20  and  C_43
   14  A    between atoms: C_22  and  C_23
   15  A    between atoms: C_27  and  C_37
   16  A    between atoms: N_35  and  C_37
   17  A    between atoms: C_42  and  C_43
                            x       y       z     vdW  Elec       q    Type
                         _______ _______ _______ _____ _____    ______ ____

>  <TORSDO>
F 17

$$$$
=
 OpenBabel11032421003D

 46 51  0  0  1  0  0  0  0  0999 V2000
  189.4750  176.8820  144.1640 C   0  0  0  0  0  0  0  0  0  0  0  0
  188.7390  176.9230  142.9700 C   0  0  0  0  0  0  0  0  0  0  0  0
  191.9140  177.1060  147.4290 O   0  0  0  0  0  0  0  0  0  0  0  0
  190.7940  176.2300  144.2180 C   0  0  0  0  0  3  0  0  0  0  0  0
  187.0390  178.2290  144.0960 C   0  0  0  0  0  0  0  0  0  0  0  0
  187.7650  178.1560  145.2480 N   0  0  0  0  0  0  0  0  0  0  0  0
  191.5270  176.2820  145.2880 N   0  0  0  0  0  0  0  0  0  0  0  0
  191.0990  176.9490  146.4820 C   0  0  0  0  0  0  0  0  0  0  0  0
  189.6800  177.4240  146.6380 C   0  0  1  0  0  3  0  0  0  0  0  0
  188.9580  177.5050  145.3140 C   0  0  0  0  0  0  0  0  0  0  0  0
  187.5130  177.6000  142.9430 C   0  0  0  0  0  3  0  0  0  0  0  0
  185.7150  178.9450  144.0490 C   0  0  2  0  0  0  0  0  0  0  0  0
  184.6620  178.0460  144.6840 C   0  0  2  0  0  3  0  0  0  0  0  0
  184.6690  178.2670  143.1840 C   0  0  1  0  0  3  0  0  0  0  0  0
  185.1690  179.2620  145.4290 C   0  0  0  0  0  2  0  0  0  0  0  0
  183.6290  179.2190  142.8240 N   0  0  0  0  0  2  0  0  0  0  0  0
  182.6480  178.4830  142.0500 C   0  0  0  0  0  2  0  0  0  0  0  0
  183.1590  178.2870  140.6380 C   0  0  0  0  0  2  0  0  0  0  0  0
  182.2380  178.9880  139.6520 C   0  0  1  0  0  3  0  0  0  0  0  0
  182.9390  180.1480  139.0270 C   0  0  0  0  0  0  0  0  0  0  0  0
  184.3270  180.2310  139.0410 O   0  0  0  0  0  1  0  0  0  0  0  0
  182.2650  181.0680  138.4970 O   0  0  0  0  0  0  0  0  0  0  0  0
  181.6420  177.8490  138.4030 S   0  0  0  0  0  0  0  0  0  0  0  0
  181.5090  178.5630  137.0870 O   0  0  0  0  0  0  0  0  0  0  0  0
  180.2980  177.3090  138.8060 O   0  0  0  0  0  0  0  0  0  0  0  0
  182.7860  176.4930  138.2240 C   0  0  0  0  0  2  0  0  0  0  0  0
  183.6820  176.3380  136.0220 O   0  0  0  0  0  0  0  0  0  0  0  0
  184.9090  177.5830  137.5050 O   0  0  0  0  0  1  0  0  0  0  0  0
  183.8040  176.8060  137.1840 C   0  0  0  0  0  0  0  0  0  0  0  0
  188.9560  176.5110  147.5800 C   0  0  0  0  0  3  0  0  0  0  0  0
  187.9870  176.9620  148.3750 C   0  0  0  0  0  2  0  0  0  0  0  0
  189.2530  176.3010  141.7860 N   0  0  0  0  0  2  0  0  0  0  0  0
  191.3020  177.3870  140.9770 C   0  0  0  0  0  1  0  0  0  0  0  0
  189.8500  177.0430  140.6790 C   0  0  2  0  0  3  0  0  0  0  0  0
  189.0670  178.2410  140.3680 N   0  0  0  0  0  2  0  0  0  0  0  0
  188.0860  177.9590  139.3250 C   0  0  0  0  0  2  0  0  0  0  0  0
  187.6740  175.9760  136.5420 C   0  0  0  0  0  0  0  0  0  0  0  0
  188.8140  178.2760  136.6770 S   0  0  1  0  0  0  0  0  0  0  0  0
  188.0080  176.0540  137.7910 N   0  0  0  0  0  0  0  0  0  0  0  0
  188.7600  177.2490  138.1620 C   0  0  2  0  0  3  0  0  0  0  0  0
  188.0600  177.0510  135.7000 N   0  0  0  0  0  2  0  0  0  0  0  0
  187.6950  179.2950  136.8620 O   0  0  0  0  0  0  0  0  0  0  0  0
  186.9540  174.7900  136.0070 C   0  0  0  0  0  2  0  0  0  0  0  0
  185.3530  173.4150  137.2930 C   0  0  0  0  0  2  0  0  0  0  0  0
  186.8190  173.7360  137.0900 C   0  0  0  0  0  3  0  0  0  0  0  0
  186.2240  172.4820  136.4840 C   0  0  0  0  0  2  0  0  0  0  0  0
  1  4  1  0  0  0  0
  1 10  1  0  0  0  0
  2  1  2  0  0  0  0
  4  7  2  0  0  0  0
  5  6  1  0  0  0  0
  6 10  2  0  0  0  0
  7  8  1  0  0  0  0
  8  9  1  0  0  0  0
  8  3  2  0  0  0  0
  9 30  1  1  0  0  0
 10  9  1  0  0  0  0
 11  2  1  0  0  0  0
 11  5  2  0  0  0  0
 12  5  1  6  0  0  0
 12 13  1  0  0  0  0
 12 15  1  0  0  0  0
 13 15  1  1  0  0  0
 14 16  1  1  0  0  0
 14 12  1  0  0  0  0
 14 13  1  0  0  0  0
 17 16  1  0  0  0  0
 18 17  1  0  0  0  0
 19 18  1  1  0  0  0
 20 21  1  0  0  0  0
 20 19  1  0  0  0  0
 22 20  2  0  0  0  0
 23 25  2  0  0  0  0
 23 19  1  0  0  0  0
 24 23  2  0  0  0  0
 26 23  1  0  0  0  0
 27 29  2  0  0  0  0
 29 28  1  0  0  0  0
 29 26  1  0  0  0  0
 30 31  2  0  0  0  0
 32  2  1  0  0  0  0
 34 33  1  1  0  0  0
 34 32  1  0  0  0  0
 35 34  1  0  0  0  0
 36 35  1  0  0  0  0
 37 39  2  0  0  0  0
 38 42  2  1  0  0  0
 38 40  1  0  0  0  0
 39 40  1  0  0  0  0
 40 36  1  1  0  0  0
 41 37  1  0  0  0  0
 41 38  1  0  0  0  0
 43 37  1  0  0  0  0
 43 45  1  0  0  0  0
 45 44  1  0  0  0  0
 46 45  1  0  0  0  0
 46 44  1  0  0  0  0
M  END
>  <MODEL>
2

>  <REMARK>
 VINA RESULT:      -7.3      1.433      1.701
  Name = 
  17 active torsions:
  status: ('A' for Active; 'I' for Inactive)
    1  A    between atoms: C_2  and  C_40
    2  A    between atoms: C_3  and  C_23
    3  A    between atoms: C_4  and  C_42
    4  A    between atoms: C_6  and  S_14
    5  A    between atoms: C_6  and  C_33
    6  A    between atoms: C_7  and  N_9
    7  A    between atoms: N_9  and  C_15
    8  A    between atoms: S_14  and  C_42
    9  A    between atoms: C_15  and  N_35
   10  A    between atoms: C_16  and  C_21
   11  A    between atoms: N_19  and  C_20
   12  A    between atoms: N_19  and  C_32
   13  A    between atoms: C_20  and  C_43
   14  A    between atoms: C_22  and  C_23
   15  A    between atoms: C_27  and  C_37
   16  A    between atoms: N_35  and  C_37
   17  A    between atoms: C_42  and  C_43
                            x       y       z     vdW  Elec       q    Type
                         _______ _______ _______ _____ _____    ______ ____

>  <TORSDO>
F 17

$$$$
=
 OpenBabel11032421003D

 46 51  0  0  1  0  0  0  0  0999 V2000
  182.9500  178.6920  141.5800 C   0  0  0  0  0  0  0  0  0  0  0  0
  184.2710  178.6960  141.1080 C   0  0  0  0  0  0  0  0  0  0  0  0
  179.1320  179.1790  142.9420 O   0  0  0  0  0  0  0  0  0  0  0  0
  182.6420  179.0590  142.9730 C   0  0  0  0  0  3  0  0  0  0  0  0
  183.4550  178.1020  138.9070 C   0  0  0  0  0  0  0  0  0  0  0  0
  182.1830  178.0850  139.3970 N   0  0  0  0  0  0  0  0  0  0  0  0
  181.4170  179.1610  143.3870 N   0  0  0  0  0  0  0  0  0  0  0  0
  180.2930  178.9080  142.5350 C   0  0  0  0  0  0  0  0  0  0  0  0
  180.4740  178.2800  141.1790 C   0  0  1  0  0  3  0  0  0  0  0  0
  181.9030  178.3680  140.6980 C   0  0  0  0  0  0  0  0  0  0  0  0
  184.5180  178.3970  139.7620 C   0  0  0  0  0  3  0  0  0  0  0  0
  183.7430  177.7750  137.4650 C   0  0  2  0  0  0  0  0  0  0  0  0
  183.1490  176.4060  137.1590 C   0  0  2  0  0  3  0  0  0  0  0  0
  184.6520  176.5750  137.2670 C   0  0  1  0  0  3  0  0  0  0  0  0
  182.4840  177.6570  136.6270 C   0  0  0  0  0  2  0  0  0  0  0  0
  185.2380  176.6110  135.9370 N   0  0  0  0  0  2  0  0  0  0  0  0
  185.8720  175.3230  135.7310 C   0  0  0  0  0  2  0  0  0  0  0  0
  187.3600  175.5160  135.5260 C   0  0  0  0  0  2  0  0  0  0  0  0
  188.1290  174.8450  136.6520 C   0  0  1  0  0  3  0  0  0  0  0  0
  188.8610  173.6500  136.1360 C   0  0  0  0  0  0  0  0  0  0  0  0
  189.8140  173.7790  135.1330 O   0  0  0  0  0  0  0  0  0  0  0  0
  188.5960  172.5120  136.6030 O   0  0  0  0  0  1  0  0  0  0  0  0
  189.2560  175.9950  137.4400 S   0  0  0  0  0  0  0  0  0  0  0  0
  189.8360  176.9240  136.4110 O   0  0  0  0  0  0  0  0  0  0  0  0
  190.3720  175.2400  138.1050 O   0  0  0  0  0  0  0  0  0  0  0  0
  188.3850  176.9490  138.6700 C   0  0  0  0  0  2  0  0  0  0  0  0
  189.1030  179.2210  138.6380 O   0  0  0  0  0  1  0  0  0  0  0  0
  187.2130  178.7630  137.4260 O   0  0  0  0  0  0  0  0  0  0  0  0
  188.2670  178.3690  138.2390 C   0  0  0  0  0  0  0  0  0  0  0  0
  180.0220  176.8520  141.2330 C   0  0  0  0  0  3  0  0  0  0  0  0
  179.1380  176.3730  140.3600 C   0  0  0  0  0  2  0  0  0  0  0  0
  185.3490  179.0320  141.9900 N   0  0  0  0  0  2  0  0  0  0  0  0
  186.1330  177.8630  144.0020 C   0  0  0  0  0  1  0  0  0  0  0  0
  186.3060  178.0570  142.5020 C   0  0  2  0  0  3  0  0  0  0  0  0
  187.6780  178.4420  142.1660 N   0  0  0  0  0  2  0  0  0  0  0  0
  188.5900  177.3160  142.3550 C   0  0  0  0  0  2  0  0  0  0  0  0
  190.1980  177.2350  145.3970 C   0  0  0  0  0  0  0  0  0  0  0  0
  191.1390  176.5540  143.1040 S   0  0  1  0  0  0  0  0  0  0  0  0
  189.4440  177.8920  144.5740 N   0  0  0  0  0  0  0  0  0  0  0  0
  189.7970  177.7620  143.1640 C   0  0  2  0  0  3  0  0  0  0  0  0
  191.2510  176.4660  144.8360 N   0  0  0  0  0  2  0  0  0  0  0  0
  190.4670  175.2350  142.7420 O   0  0  0  0  0  0  0  0  0  0  0  0
  189.9930  177.3160  146.8680 C   0  0  0  0  0  2  0  0  0  0  0  0
  188.0280  176.9930  148.3320 C   0  0  0  0  0  2  0  0  0  0  0  0
  188.5820  177.7870  147.1670 C   0  0  0  0  0  3  0  0  0  0  0  0
  188.5500  178.3940  148.5530 C   0  0  0  0  0  2  0  0  0  0  0  0
  1  4  1  0  0  0  0
  2  1  1  0  0  0  0
  2 32  1  0  0  0  0
  4  7  2  0  0  0  0
  5  6  2  0  0  0  0
  5 11  1  0  0  0  0
  6 10  1  0  0  0  0
  8  3  2  0  0  0  0
  8  7  1  0  0  0  0
  9 30  1  1  0  0  0
  9  8  1  0  0  0  0
 10  9  1  0  0  0  0
 10  1  2  0  0  0  0
 11  2  2  0  0  0  0
 12  5  1  1  0  0  0
 13 15  1  6  0  0  0
 13 14  1  0  0  0  0
 13 12  1  0  0  0  0
 14 16  1  6  0  0  0
 14 12  1  0  0  0  0
 15 12  1  0  0  0  0
 17 16  1  0  0  0  0
 18 17  1  0  0  0  0
 19 18  1  6  0  0  0
 19 23  1  0  0  0  0
 20 22  1  0  0  0  0
 20 19  1  0  0  0  0
 21 20  2  0  0  0  0
 23 25  2  0  0  0  0
 23 26  1  0  0  0  0
 24 23  2  0  0  0  0
 28 29  2  0  0  0  0
 29 27  1  0  0  0  0
 29 26  1  0  0  0  0
 31 30  2  0  0  0  0
 32 34  1  0  0  0  0
 34 33  1  1  0  0  0
 35 36  1  0  0  0  0
 35 34  1  0  0  0  0
 37 43  1  0  0  0  0
 38 42  2  1  0  0  0
 38 40  1  0  0  0  0
 38 41  1  0  0  0  0
 39 37  2  0  0  0  0
 40 36  1  6  0  0  0
 40 39  1  0  0  0  0
 41 37  1  0  0  0  0
 43 45  1  0  0  0  0
 44 46  1  0  0  0  0
 45 44  1  0  0  0  0
 45 46  1  0  0  0  0
M  END
>  <MODEL>
3

>  <REMARK>
 VINA RESULT:      -7.1      2.735      8.420
  Name = 
  17 active torsions:
  status: ('A' for Active; 'I' for Inactive)
    1  A    between atoms: C_2  and  C_40
    2  A    between atoms: C_3  and  C_23
    3  A    between atoms: C_4  and  C_42
    4  A    between atoms: C_6  and  S_14
    5  A    between atoms: C_6  and  C_33
    6  A    between atoms: C_7  and  N_9
    7  A    between atoms: N_9  and  C_15
    8  A    between atoms: S_14  and  C_42
    9  A    between atoms: C_15  and  N_35
   10  A    between atoms: C_16  and  C_21
   11  A    between atoms: N_19  and  C_20
   12  A    between atoms: N_19  and  C_32
   13  A    between atoms: C_20  and  C_43
   14  A    between atoms: C_22  and  C_23
   15  A    between atoms: C_27  and  C_37
   16  A    between atoms: N_35  and  C_37
   17  A    between atoms: C_42  and  C_43
                            x       y       z     vdW  Elec       q    Type
                         _______ _______ _______ _____ _____    ______ ____

>  <TORSDO>
F 17

$$$$
=
 OpenBabel11032421003D

 46 51  0  0  1  0  0  0  0  0999 V2000
  183.1910  178.5120  140.8050 C   0  0  0  0  0  0  0  0  0  0  0  0
  184.5560  178.6130  140.5000 C   0  0  0  0  0  0  0  0  0  0  0  0
  179.2040  178.7170  141.6590 O   0  0  0  0  0  0  0  0  0  0  0  0
  182.6790  178.9040  142.1300 C   0  0  0  0  0  3  0  0  0  0  0  0
  184.0790  177.8650  138.2470 C   0  0  0  0  0  0  0  0  0  0  0  0
  182.7610  177.7570  138.5770 N   0  0  0  0  0  0  0  0  0  0  0  0
  181.4070  178.9160  142.3830 N   0  0  0  0  0  0  0  0  0  0  0  0
  180.4250  178.5320  141.4120 C   0  0  0  0  0  0  0  0  0  0  0  0
  180.8290  177.8710  140.1220 C   0  0  1  0  0  3  0  0  0  0  0  0
  182.2950  178.0650  139.8170 C   0  0  0  0  0  0  0  0  0  0  0  0
  184.9970  178.2840  139.2120 C   0  0  0  0  0  3  0  0  0  0  0  0
  184.5740  177.5090  136.8700 C   0  0  2  0  0  0  0  0  0  0  0  0
  184.6820  175.9920  136.7790 C   0  0  2  0  0  3  0  0  0  0  0  0
  185.9370  176.8400  136.8500 C   0  0  1  0  0  3  0  0  0  0  0  0
  183.5590  176.7160  136.0690 C   0  0  0  0  0  2  0  0  0  0  0  0
  186.5260  176.9550  135.5260 N   0  0  0  0  0  2  0  0  0  0  0  0
  187.9610  177.0430  135.7210 C   0  0  0  0  0  2  0  0  0  0  0  0
  188.2920  176.7970  137.1780 C   0  0  0  0  0  2  0  0  0  0  0  0
  189.6840  177.3220  137.4880 C   0  0  1  0  0  3  0  0  0  0  0  0
  189.7050  177.9610  138.8380 C   0  0  0  0  0  0  0  0  0  0  0  0
  188.8270  178.9920  139.1490 O   0  0  0  0  0  0  0  0  0  0  0  0
  190.5400  177.5720  139.6940 O   0  0  0  0  0  1  0  0  0  0  0  0
  190.9070  176.0160  137.3780 S   0  0  0  0  0  0  0  0  0  0  0  0
  191.1260  175.6460  135.9380 O   0  0  0  0  0  0  0  0  0  0  0  0
  190.4280  174.8050  138.1280 O   0  0  0  0  0  0  0  0  0  0  0  0
  192.4480  176.5690  138.0850 C   0  0  0  0  0  2  0  0  0  0  0  0
  193.9400  174.7520  137.6970 O   0  0  0  0  0  1  0  0  0  0  0  0
  194.3180  176.6310  136.4400 O   0  0  0  0  0  0  0  0  0  0  0  0
  193.5980  175.9250  137.3940 C   0  0  0  0  0  0  0  0  0  0  0  0
  180.4910  176.4120  140.1900 C   0  0  0  0  0  3  0  0  0  0  0  0
  179.7170  175.8370  139.2710 C   0  0  0  0  0  2  0  0  0  0  0  0
  185.4830  179.0760  141.4910 N   0  0  0  0  0  2  0  0  0  0  0  0
  185.8920  178.1890  143.7440 C   0  0  0  0  0  1  0  0  0  0  0  0
  186.3250  178.1870  142.2850 C   0  0  2  0  0  3  0  0  0  0  0  0
  187.7390  178.5420  142.1440 N   0  0  0  0  0  2  0  0  0  0  0  0
  188.5890  177.3810  142.3960 C   0  0  0  0  0  2  0  0  0  0  0  0
  190.0980  177.1200  145.4770 C   0  0  0  0  0  0  0  0  0  0  0  0
  191.1190  176.5900  143.1790 S   0  0  1  0  0  0  0  0  0  0  0  0
  189.3660  177.8220  144.6730 N   0  0  0  0  0  0  0  0  0  0  0  0
  189.7650  177.7830  143.2700 C   0  0  2  0  0  3  0  0  0  0  0  0
  191.1760  176.3950  144.9050 N   0  0  0  0  0  2  0  0  0  0  0  0
  190.4700  175.2920  142.7130 O   0  0  0  0  0  0  0  0  0  0  0  0
  189.8450  177.1090  146.9430 C   0  0  0  0  0  2  0  0  0  0  0  0
  187.5070  177.7260  147.4540 C   0  0  0  0  0  2  0  0  0  0  0  0
  188.9200  178.2520  147.3160 C   0  0  0  0  0  3  0  0  0  0  0  0
  188.3390  177.9860  148.6890 C   0  0  0  0  0  2  0  0  0  0  0  0
  1  4  1  0  0  0  0
  2  1  1  0  0  0  0
  2 32  1  0  0  0  0
  4  7  2  0  0  0  0
  5  6  2  0  0  0  0
  5 11  1  0  0  0  0
  6 10  1  0  0  0  0
  8  3  2  0  0  0  0
  8  7  1  0  0  0  0
  9 30  1  1  0  0  0
  9  8  1  0  0  0  0
 10  9  1  0  0  0  0
 10  1  2  0  0  0  0
 11  2  2  0  0  0  0
 12  5  1  1  0  0  0
 13 15  1  6  0  0  0
 13 14  1  0  0  0  0
 13 12  1  0  0  0  0
 14 16  1  6  0  0  0
 14 12  1  0  0  0  0
 15 12  1  0  0  0  0
 16 17  1  0  0  0  0
 17 18  1  0  0  0  0
 19 18  1  1  0  0  0
 19 20  1  0  0  0  0
 20 21  2  0  0  0  0
 20 22  1  0  0  0  0
 23 19  1  0  0  0  0
 23 26  1  0  0  0  0
 23 25  2  0  0  0  0
 24 23  2  0  0  0  0
 28 29  2  0  0  0  0
 29 27  1  0  0  0  0
 29 26  1  0  0  0  0
 31 30  2  0  0  0  0
 32 34  1  0  0  0  0
 34 33  1  1  0  0  0
 35 34  1  0  0  0  0
 35 36  1  0  0  0  0
 37 43  1  0  0  0  0
 38 42  2  6  0  0  0
 38 40  1  0  0  0  0
 38 41  1  0  0  0  0
 39 37  2  0  0  0  0
 40 36  1  6  0  0  0
 40 39  1  0  0  0  0
 41 37  1  0  0  0  0
 43 45  1  0  0  0  0
 44 46  1  0  0  0  0
 45 44  1  0  0  0  0
 45 46  1  0  0  0  0
M  END
>  <MODEL>
4

>  <REMARK>
 VINA RESULT:      -7.1      3.027      8.753
  Name = 
  17 active torsions:
  status: ('A' for Active; 'I' for Inactive)
    1  A    between atoms: C_2  and  C_40
    2  A    between atoms: C_3  and  C_23
    3  A    between atoms: C_4  and  C_42
    4  A    between atoms: C_6  and  S_14
    5  A    between atoms: C_6  and  C_33
    6  A    between atoms: C_7  and  N_9
    7  A    between atoms: N_9  and  C_15
    8  A    between atoms: S_14  and  C_42
    9  A    between atoms: C_15  and  N_35
   10  A    between atoms: C_16  and  C_21
   11  A    between atoms: N_19  and  C_20
   12  A    between atoms: N_19  and  C_32
   13  A    between atoms: C_20  and  C_43
   14  A    between atoms: C_22  and  C_23
   15  A    between atoms: C_27  and  C_37
   16  A    between atoms: N_35  and  C_37
   17  A    between atoms: C_42  and  C_43
                            x       y       z     vdW  Elec       q    Type
                         _______ _______ _______ _____ _____    ______ ____

>  <TORSDO>
F 17

$$$$
=
 OpenBabel11032421003D

 46 51  0  0  1  0  0  0  0  0999 V2000
  189.2790  177.0420  143.9520 C   0  0  0  0  0  0  0  0  0  0  0  0
  188.4210  177.1180  142.8450 C   0  0  0  0  0  0  0  0  0  0  0  0
  192.0390  177.1820  146.9570 O   0  0  0  0  0  0  0  0  0  0  0  0
  190.6130  176.4290  143.8370 C   0  0  0  0  0  3  0  0  0  0  0  0
  186.8150  178.3140  144.2060 C   0  0  0  0  0  0  0  0  0  0  0  0
  187.6590  178.2080  145.2710 N   0  0  0  0  0  0  0  0  0  0  0  0
  191.4520  176.4510  144.8270 N   0  0  0  0  0  0  0  0  0  0  0  0
  191.1340  177.0460  146.0910 C   0  0  0  0  0  0  0  0  0  0  0  0
  189.7270  177.4690  146.4170 C   0  0  1  0  0  3  0  0  0  0  0  0
  188.8690  177.5920  145.1800 C   0  0  0  0  0  0  0  0  0  0  0  0
  187.1830  177.7580  142.9790 C   0  0  0  0  0  3  0  0  0  0  0  0
  185.4760  178.9910  144.3320 C   0  0  2  0  0  0  0  0  0  0  0  0
  184.5270  178.0400  145.0490 C   0  0  2  0  0  3  0  0  0  0  0  0
  184.3570  178.3080  143.5670 C   0  0  1  0  0  3  0  0  0  0  0  0
  185.0810  179.2470  145.7740 C   0  0  0  0  0  2  0  0  0  0  0  0
  183.2590  179.2390  143.3590 N   0  0  0  0  0  2  0  0  0  0  0  0
  182.4780  178.7140  142.2550 C   0  0  0  0  0  2  0  0  0  0  0  0
  183.4070  178.1680  141.1900 C   0  0  0  0  0  2  0  0  0  0  0  0
  183.0230  178.7310  139.8310 C   0  0  1  0  0  3  0  0  0  0  0  0
  184.1920  179.4190  139.2090 C   0  0  0  0  0  0  0  0  0  0  0  0
  185.3710  178.7280  138.9540 O   0  0  0  0  0  1  0  0  0  0  0  0
  184.1140  180.6430  138.9290 O   0  0  0  0  0  0  0  0  0  0  0  0
  182.3900  177.4440  138.7550 S   0  0  0  0  0  0  0  0  0  0  0  0
  180.9430  177.1840  139.0710 O   0  0  0  0  0  0  0  0  0  0  0  0
  183.1720  176.1780  138.9600 O   0  0  0  0  0  0  0  0  0  0  0  0
  182.5380  177.9530  137.0520 C   0  0  0  0  0  2  0  0  0  0  0  0
  182.7240  175.9500  135.7740 O   0  0  0  0  0  0  0  0  0  0  0  0
  184.6840  177.0830  136.1320 O   0  0  0  0  0  1  0  0  0  0  0  0
  183.3100  176.9450  136.2750 C   0  0  0  0  0  0  0  0  0  0  0  0
  189.1290  176.4890  147.3810 C   0  0  0  0  0  3  0  0  0  0  0  0
  188.2260  176.8680  148.2820 C   0  0  0  0  0  2  0  0  0  0  0  0
  188.8250  176.5710  141.5830 N   0  0  0  0  0  2  0  0  0  0  0  0
  188.5910  178.5440  140.1410 C   0  0  0  0  0  1  0  0  0  0  0  0
  189.4590  177.3560  140.5290 C   0  0  2  0  0  3  0  0  0  0  0  0
  189.7720  176.5190  139.3680 N   0  0  0  0  0  2  0  0  0  0  0  0
  188.9760  176.9220  138.2120 C   0  0  0  0  0  2  0  0  0  0  0  0
  191.4720  175.8390  136.1050 C   0  0  0  0  0  0  0  0  0  0  0  0
  189.1770  176.8000  135.4580 S   0  0  1  0  0  0  0  0  0  0  0  0
  191.1460  176.5240  137.1540 N   0  0  0  0  0  0  0  0  0  0  0  0
  189.8930  177.2670  137.0500 C   0  0  2  0  0  3  0  0  0  0  0  0
  190.5790  175.8790  135.0020 N   0  0  0  0  0  2  0  0  0  0  0  0
  188.1540  175.7190  135.7870 O   0  0  0  0  0  0  0  0  0  0  0  0
  192.7480  175.0780  136.0440 C   0  0  0  0  0  2  0  0  0  0  0  0
  194.0440  173.8440  137.7500 C   0  0  0  0  0  2  0  0  0  0  0  0
  193.4840  175.1980  137.3660 C   0  0  0  0  0  3  0  0  0  0  0  0
  194.9500  174.8910  137.1420 C   0  0  0  0  0  2  0  0  0  0  0  0
  1 10  1  0  0  0  0
  2 11  1  0  0  0  0
  2  1  2  0  0  0  0
  4  1  1  0  0  0  0
  4  7  2  0  0  0  0
  5  6  1  0  0  0  0
  7  8  1  0  0  0  0
  8  9  1  0  0  0  0
  8  3  2  0  0  0  0
  9 30  1  1  0  0  0
 10  6  2  0  0  0  0
 10  9  1  0  0  0  0
 11  5  2  0  0  0  0
 12  5  1  6  0  0  0
 12 13  1  0  0  0  0
 12 15  1  0  0  0  0
 13 15  1  1  0  0  0
 14 16  1  1  0  0  0
 14 12  1  0  0  0  0
 14 13  1  0  0  0  0
 17 16  1  0  0  0  0
 18 17  1  0  0  0  0
 19 18  1  1  0  0  0
 20 19  1  0  0  0  0
 21 20  1  0  0  0  0
 22 20  2  0  0  0  0
 23 25  2  0  0  0  0
 23 24  2  0  0  0  0
 23 19  1  0  0  0  0
 26 23  1  0  0  0  0
 27 29  2  0  0  0  0
 28 29  1  0  0  0  0
 29 26  1  0  0  0  0
 30 31  2  0  0  0  0
 32  2  1  0  0  0  0
 34 33  1  6  0  0  0
 34 32  1  0  0  0  0
 35 34  1  0  0  0  0
 36 35  1  0  0  0  0
 37 39  2  0  0  0  0
 38 42  2  1  0  0  0
 38 40  1  0  0  0  0
 40 39  1  0  0  0  0
 40 36  1  1  0  0  0
 41 38  1  0  0  0  0
 41 37  1  0  0  0  0
 43 37  1  0  0  0  0
 43 45  1  0  0  0  0
 45 44  1  0  0  0  0
 46 45  1  0  0  0  0
 46 44  1  0  0  0  0
M  END
>  <MODEL>
5

>  <REMARK>
 VINA RESULT:      -6.9      1.704      2.482
  Name = 
  17 active torsions:
  status: ('A' for Active; 'I' for Inactive)
    1  A    between atoms: C_2  and  C_40
    2  A    between atoms: C_3  and  C_23
    3  A    between atoms: C_4  and  C_42
    4  A    between atoms: C_6  and  S_14
    5  A    between atoms: C_6  and  C_33
    6  A    between atoms: C_7  and  N_9
    7  A    between atoms: N_9  and  C_15
    8  A    between atoms: S_14  and  C_42
    9  A    between atoms: C_15  and  N_35
   10  A    between atoms: C_16  and  C_21
   11  A    between atoms: N_19  and  C_20
   12  A    between atoms: N_19  and  C_32
   13  A    between atoms: C_20  and  C_43
   14  A    between atoms: C_22  and  C_23
   15  A    between atoms: C_27  and  C_37
   16  A    between atoms: N_35  and  C_37
   17  A    between atoms: C_42  and  C_43
                            x       y       z     vdW  Elec       q    Type
                         _______ _______ _______ _____ _____    ______ ____

>  <TORSDO>
F 17

$$$$
=
 OpenBabel11032421003D

 46 51  0  0  1  0  0  0  0  0999 V2000
  187.7710  177.6840  143.7900 C   0  0  0  0  0  0  0  0  0  0  0  0
  186.8900  177.8550  142.7120 C   0  0  0  0  0  0  0  0  0  0  0  0
  190.1850  176.7090  146.9350 O   0  0  0  0  0  0  0  0  0  0  0  0
  187.2660  177.5350  145.1660 C   0  0  0  0  0  3  0  0  0  0  0  0
  188.7810  177.8430  141.2010 C   0  0  0  0  0  0  0  0  0  0  0  0
  189.6170  177.6970  142.2680 N   0  0  0  0  0  0  0  0  0  0  0  0
  188.0660  177.2690  146.1520 N   0  0  0  0  0  0  0  0  0  0  0  0
  189.4810  177.1260  145.9770 C   0  0  0  0  0  0  0  0  0  0  0  0
  190.1440  177.5070  144.6810 C   0  0  1  0  0  3  0  0  0  0  0  0
  189.1550  177.6170  143.5450 C   0  0  0  0  0  0  0  0  0  0  0  0
  187.4050  177.9360  141.4120 C   0  0  0  0  0  3  0  0  0  0  0  0
  189.3160  177.9410  139.7960 C   0  0  2  0  0  0  0  0  0  0  0  0
  188.8390  176.7210  139.0180 C   0  0  2  0  0  3  0  0  0  0  0  0
  190.2950  176.8420  139.4240 C   0  0  1  0  0  3  0  0  0  0  0  0
  188.2180  178.0760  138.7580 C   0  0  0  0  0  2  0  0  0  0  0  0
  191.0900  177.2540  138.2780 N   0  0  0  0  0  2  0  0  0  0  0  0
  191.5500  176.0360  137.6370 C   0  0  0  0  0  2  0  0  0  0  0  0
  193.0370  175.8690  137.8720 C   0  0  0  0  0  2  0  0  0  0  0  0
  193.4330  174.4160  137.6630 C   0  0  1  0  0  3  0  0  0  0  0  0
  193.2890  174.0460  136.2240 C   0  0  0  0  0  0  0  0  0  0  0  0
  193.7520  174.8920  135.2220 O   0  0  0  0  0  0  0  0  0  0  0  0
  192.7270  172.9640  135.9160 O   0  0  0  0  0  1  0  0  0  0  0  0
  195.1030  174.1130  138.2390 S   0  0  0  0  0  0  0  0  0  0  0  0
  195.1380  172.8490  139.0520 O   0  0  0  0  0  0  0  0  0  0  0  0
  195.5630  175.2600  139.0950 O   0  0  0  0  0  0  0  0  0  0  0  0
  196.2030  173.9470  136.8460 C   0  0  0  0  0  2  0  0  0  0  0  0
  198.3750  174.1950  137.7950 O   0  0  0  0  0  1  0  0  0  0  0  0
  197.6230  175.9750  136.5620 O   0  0  0  0  0  0  0  0  0  0  0  0
  197.4640  174.7000  137.0870 C   0  0  0  0  0  0  0  0  0  0  0  0
  190.8820  178.7980  144.8670 C   0  0  0  0  0  3  0  0  0  0  0  0
  191.9000  179.1340  144.0770 C   0  0  0  0  0  2  0  0  0  0  0  0
  185.4760  177.9160  142.9410 N   0  0  0  0  0  2  0  0  0  0  0  0
  184.4380  179.7330  144.2260 C   0  0  0  0  0  1  0  0  0  0  0  0
  184.6960  179.1460  142.8460 C   0  0  2  0  0  3  0  0  0  0  0  0
  183.4470  178.9190  142.1160 N   0  0  0  0  0  2  0  0  0  0  0  0
  183.6580  177.9910  141.0090 C   0  0  0  0  0  2  0  0  0  0  0  0
  183.8370  177.7980  137.5770 C   0  0  0  0  0  0  0  0  0  0  0  0
  182.0330  178.9580  138.9930 S   0  0  1  0  0  0  0  0  0  0  0  0
  184.4530  178.0200  138.6950 N   0  0  0  0  0  0  0  0  0  0  0  0
  183.6850  178.7550  139.6950 C   0  0  2  0  0  3  0  0  0  0  0  0
  182.5060  178.2760  137.4650 N   0  0  0  0  0  2  0  0  0  0  0  0
  181.1990  177.8450  139.6170 O   0  0  0  0  0  0  0  0  0  0  0  0
  184.5140  177.1100  136.4460 C   0  0  0  0  0  2  0  0  0  0  0  0
  185.4050  174.8380  136.8350 C   0  0  0  0  0  2  0  0  0  0  0  0
  185.7010  176.3170  136.9590 C   0  0  0  0  0  3  0  0  0  0  0  0
  186.2900  175.5170  135.8160 C   0  0  0  0  0  2  0  0  0  0  0  0
  1  4  1  0  0  0  0
  2 32  1  0  0  0  0
  2  1  2  0  0  0  0
  4  7  2  0  0  0  0
  5 11  2  0  0  0  0
  5  6  1  0  0  0  0
  6 10  2  0  0  0  0
  8  7  1  0  0  0  0
  8  3  2  0  0  0  0
  9 30  1  1  0  0  0
  9  8  1  0  0  0  0
 10  1  1  0  0  0  0
 10  9  1  0  0  0  0
 11  2  1  0  0  0  0
 12  5  1  1  0  0  0
 13 15  1  6  0  0  0
 13 14  1  0  0  0  0
 13 12  1  0  0  0  0
 14 16  1  6  0  0  0
 14 12  1  0  0  0  0
 15 12  1  0  0  0  0
 17 18  1  0  0  0  0
 17 16  1  0  0  0  0
 19 18  1  6  0  0  0
 19 23  1  0  0  0  0
 20 19  1  0  0  0  0
 21 20  2  0  0  0  0
 22 20  1  0  0  0  0
 23 24  2  0  0  0  0
 23 25  2  0  0  0  0
 26 29  1  0  0  0  0
 26 23  1  0  0  0  0
 28 29  2  0  0  0  0
 29 27  1  0  0  0  0
 31 30  2  0  0  0  0
 34 32  1  0  0  0  0
 34 33  1  1  0  0  0
 35 34  1  0  0  0  0
 36 35  1  0  0  0  0
 37 39  2  0  0  0  0
 38 42  2  1  0  0  0
 38 40  1  0  0  0  0
 39 40  1  0  0  0  0
 40 36  1  1  0  0  0
 41 37  1  0  0  0  0
 41 38  1  0  0  0  0
 43 45  1  0  0  0  0
 43 37  1  0  0  0  0
 44 45  1  0  0  0  0
 46 44  1  0  0  0  0
 46 45  1  0  0  0  0
M  END
>  <MODEL>
6

>  <REMARK>
 VINA RESULT:      -6.8      3.471      8.221
  Name = 
  17 active torsions:
  status: ('A' for Active; 'I' for Inactive)
    1  A    between atoms: C_2  and  C_40
    2  A    between atoms: C_3  and  C_23
    3  A    between atoms: C_4  and  C_42
    4  A    between atoms: C_6  and  S_14
    5  A    between atoms: C_6  and  C_33
    6  A    between atoms: C_7  and  N_9
    7  A    between atoms: N_9  and  C_15
    8  A    between atoms: S_14  and  C_42
    9  A    between atoms: C_15  and  N_35
   10  A    between atoms: C_16  and  C_21
   11  A    between atoms: N_19  and  C_20
   12  A    between atoms: N_19  and  C_32
   13  A    between atoms: C_20  and  C_43
   14  A    between atoms: C_22  and  C_23
   15  A    between atoms: C_27  and  C_37
   16  A    between atoms: N_35  and  C_37
   17  A    between atoms: C_42  and  C_43
                            x       y       z     vdW  Elec       q    Type
                         _______ _______ _______ _____ _____    ______ ____

>  <TORSDO>
F 17

$$$$
=
 OpenBabel11032421003D

 46 51  0  0  1  0  0  0  0  0999 V2000
  189.2200  177.0430  144.0450 C   0  0  0  0  0  0  0  0  0  0  0  0
  188.3280  177.1510  142.9680 C   0  0  0  0  0  0  0  0  0  0  0  0
  192.0710  177.1020  146.9660 O   0  0  0  0  0  0  0  0  0  0  0  0
  190.5530  176.4430  143.8680 C   0  0  0  0  0  3  0  0  0  0  0  0
  186.7590  178.2920  144.4160 C   0  0  0  0  0  0  0  0  0  0  0  0
  187.6360  178.1560  145.4510 N   0  0  0  0  0  0  0  0  0  0  0  0
  191.4220  176.4380  144.8320 N   0  0  0  0  0  0  0  0  0  0  0  0
  191.1410  176.9890  146.1250 C   0  0  0  0  0  0  0  0  0  0  0  0
  189.7420  177.3920  146.5070 C   0  0  1  0  0  3  0  0  0  0  0  0
  188.8450  177.5510  145.3030 C   0  0  0  0  0  0  0  0  0  0  0  0
  187.0910  177.7780  143.1610 C   0  0  0  0  0  3  0  0  0  0  0  0
  185.4210  178.9560  144.6060 C   0  0  2  0  0  0  0  0  0  0  0  0
  184.4410  177.9150  145.1320 C   0  0  2  0  0  3  0  0  0  0  0  0
  184.3240  178.4180  143.7060 C   0  0  1  0  0  3  0  0  0  0  0  0
  184.9800  178.9830  146.0570 C   0  0  0  0  0  2  0  0  0  0  0  0
  183.2390  179.3830  143.6150 N   0  0  0  0  0  2  0  0  0  0  0  0
  182.0410  178.6270  143.3020 C   0  0  0  0  0  2  0  0  0  0  0  0
  181.2150  179.3830  142.2830 C   0  0  0  0  0  2  0  0  0  0  0  0
  181.3590  178.7320  140.9160 C   0  0  1  0  0  3  0  0  0  0  0  0
  180.5840  177.4570  140.8680 C   0  0  0  0  0  0  0  0  0  0  0  0
  179.3690  177.3390  141.5340 O   0  0  0  0  0  1  0  0  0  0  0  0
  181.0450  176.4750  140.2340 O   0  0  0  0  0  0  0  0  0  0  0  0
  180.8400  179.8470  139.6120 S   0  0  0  0  0  0  0  0  0  0  0  0
  180.1150  181.0220  140.2060 O   0  0  0  0  0  0  0  0  0  0  0  0
  179.9200  179.1300  138.6650 O   0  0  0  0  0  0  0  0  0  0  0  0
  182.2650  180.4300  138.7110 C   0  0  0  0  0  2  0  0  0  0  0  0
  183.3170  178.3460  138.2350 O   0  0  0  0  0  0  0  0  0  0  0  0
  184.4890  179.7560  139.6100 O   0  0  0  0  0  1  0  0  0  0  0  0
  183.3850  179.4560  138.8240 C   0  0  0  0  0  0  0  0  0  0  0  0
  189.1800  176.3780  147.4560 C   0  0  0  0  0  3  0  0  0  0  0  0
  188.0580  176.6120  148.1350 C   0  0  0  0  0  2  0  0  0  0  0  0
  188.6950  176.6480  141.6770 N   0  0  0  0  0  2  0  0  0  0  0  0
  188.6060  178.3160  139.8780 C   0  0  0  0  0  1  0  0  0  0  0  0
  189.4900  177.4020  140.7130 C   0  0  2  0  0  3  0  0  0  0  0  0
  190.2820  176.5040  139.8700 N   0  0  0  0  0  2  0  0  0  0  0  0
  190.3700  177.0210  138.5070 C   0  0  0  0  0  2  0  0  0  0  0  0
  189.0510  174.3510  136.7820 C   0  0  0  0  0  0  0  0  0  0  0  0
  190.3360  176.3600  135.8230 S   0  0  1  0  0  0  0  0  0  0  0  0
  189.7300  174.7670  137.8040 N   0  0  0  0  0  0  0  0  0  0  0  0
  190.6360  175.8800  137.5390 C   0  0  2  0  0  3  0  0  0  0  0  0
  189.2540  175.0260  135.5510 N   0  0  0  0  0  2  0  0  0  0  0  0
  189.3880  177.5510  135.9070 O   0  0  0  0  0  0  0  0  0  0  0  0
  188.1290  173.1880  136.8880 C   0  0  0  0  0  2  0  0  0  0  0  0
  185.9330  173.6480  135.8520 C   0  0  0  0  0  2  0  0  0  0  0  0
  186.7150  173.6730  137.1490 C   0  0  0  0  0  3  0  0  0  0  0  0
  185.7490  172.5420  136.8660 C   0  0  0  0  0  2  0  0  0  0  0  0
  1 10  1  0  0  0  0
  2 11  1  0  0  0  0
  2  1  2  0  0  0  0
  4  1  1  0  0  0  0
  4  7  2  0  0  0  0
  5  6  1  0  0  0  0
  7  8  1  0  0  0  0
  8  9  1  0  0  0  0
  8  3  2  0  0  0  0
  9 30  1  1  0  0  0
 10  6  2  0  0  0  0
 10  9  1  0  0  0  0
 11  5  2  0  0  0  0
 12  5  1  6  0  0  0
 12 13  1  0  0  0  0
 12 15  1  0  0  0  0
 13 15  1  1  0  0  0
 14 16  1  1  0  0  0
 14 12  1  0  0  0  0
 14 13  1  0  0  0  0
 17 16  1  0  0  0  0
 18 17  1  0  0  0  0
 19 18  1  1  0  0  0
 20 19  1  0  0  0  0
 20 21  1  0  0  0  0
 22 20  2  0  0  0  0
 23 24  2  0  0  0  0
 23 19  1  0  0  0  0
 25 23  2  0  0  0  0
 26 29  1  0  0  0  0
 26 23  1  0  0  0  0
 27 29  2  0  0  0  0
 29 28  1  0  0  0  0
 30 31  2  0  0  0  0
 32  2  1  0  0  0  0
 34 33  1  6  0  0  0
 34 32  1  0  0  0  0
 35 34  1  0  0  0  0
 36 35  1  0  0  0  0
 37 43  1  0  0  0  0
 37 39  2  0  0  0  0
 38 42  2  1  0  0  0
 38 40  1  0  0  0  0
 40 39  1  0  0  0  0
 40 36  1  1  0  0  0
 41 38  1  0  0  0  0
 41 37  1  0  0  0  0
 43 45  1  0  0  0  0
 44 46  1  0  0  0  0
 44 45  1  0  0  0  0
 46 45  1  0  0  0  0
M  END
>  <MODEL>
7

>  <REMARK>
 VINA RESULT:      -6.7      1.287      2.092
  Name = 
  17 active torsions:
  status: ('A' for Active; 'I' for Inactive)
    1  A    between atoms: C_2  and  C_40
    2  A    between atoms: C_3  and  C_23
    3  A    between atoms: C_4  and  C_42
    4  A    between atoms: C_6  and  S_14
    5  A    between atoms: C_6  and  C_33
    6  A    between atoms: C_7  and  N_9
    7  A    between atoms: N_9  and  C_15
    8  A    between atoms: S_14  and  C_42
    9  A    between atoms: C_15  and  N_35
   10  A    between atoms: C_16  and  C_21
   11  A    between atoms: N_19  and  C_20
   12  A    between atoms: N_19  and  C_32
   13  A    between atoms: C_20  and  C_43
   14  A    between atoms: C_22  and  C_23
   15  A    between atoms: C_27  and  C_37
   16  A    between atoms: N_35  and  C_37
   17  A    between atoms: C_42  and  C_43
                            x       y       z     vdW  Elec       q    Type
                         _______ _______ _______ _____ _____    ______ ____

>  <TORSDO>
F 17

$$$$
=
 OpenBabel11032421003D

 46 51  0  0  1  0  0  0  0  0999 V2000
  188.1890  177.7280  140.4220 C   0  0  0  0  0  0  0  0  0  0  0  0
  187.7180  178.0590  139.1430 C   0  0  0  0  0  0  0  0  0  0  0  0
  189.2520  176.3740  144.1230 O   0  0  0  0  0  0  0  0  0  0  0  0
  187.3490  177.9280  141.6150 C   0  0  0  0  0  3  0  0  0  0  0  0
  189.7820  177.2190  138.1950 C   0  0  0  0  0  0  0  0  0  0  0  0
  190.2230  176.9260  139.4520 N   0  0  0  0  0  0  0  0  0  0  0  0
  187.7350  177.5260  142.7860 N   0  0  0  0  0  0  0  0  0  0  0  0
  189.0000  176.8870  143.0010 C   0  0  0  0  0  0  0  0  0  0  0  0
  190.0480  176.8590  141.9220 C   0  0  1  0  0  3  0  0  0  0  0  0
  189.4700  177.1630  140.5590 C   0  0  0  0  0  0  0  0  0  0  0  0
  188.5250  177.8020  138.0270 C   0  0  0  0  0  3  0  0  0  0  0  0
  190.6370  176.9580  136.9840 C   0  0  2  0  0  0  0  0  0  0  0  0
  190.2530  175.5990  136.4130 C   0  0  2  0  0  3  0  0  0  0  0  0
  191.5780  175.7750  137.1280 C   0  0  1  0  0  3  0  0  0  0  0  0
  189.8290  176.8670  135.7030 C   0  0  0  0  0  2  0  0  0  0  0  0
  192.6520  175.8750  136.1530 N   0  0  0  0  0  2  0  0  0  0  0  0
  192.6960  174.6020  135.4570 C   0  0  0  0  0  2  0  0  0  0  0  0
  194.0960  174.0310  135.5310 C   0  0  0  0  0  2  0  0  0  0  0  0
  194.2020  173.0720  136.7060 C   0  0  1  0  0  3  0  0  0  0  0  0
  194.5400  171.7000  136.2230 C   0  0  0  0  0  0  0  0  0  0  0  0
  195.4580  171.5140  135.1960 O   0  0  0  0  0  0  0  0  0  0  0  0
  193.9720  170.7040  136.7400 O   0  0  0  0  0  1  0  0  0  0  0  0
  195.4090  173.6460  137.9010 S   0  0  0  0  0  0  0  0  0  0  0  0
  195.4200  172.7290  139.0920 O   0  0  0  0  0  0  0  0  0  0  0  0
  195.0560  175.0350  138.3540 O   0  0  0  0  0  0  0  0  0  0  0  0
  197.0310  173.6680  137.1600 C   0  0  0  0  0  2  0  0  0  0  0  0
  197.6250  175.8650  136.4550 O   0  0  0  0  0  0  0  0  0  0  0  0
  198.3680  175.2580  138.5360 O   0  0  0  0  0  1  0  0  0  0  0  0
  197.6760  174.9940  137.3620 C   0  0  0  0  0  0  0  0  0  0  0  0
  191.1340  177.8330  142.2650 C   0  0  0  0  0  3  0  0  0  0  0  0
  191.0870  178.5580  143.3810 C   0  0  0  0  0  2  0  0  0  0  0  0
  186.4120  178.6270  138.9820 N   0  0  0  0  0  2  0  0  0  0  0  0
  185.4110  177.6270  136.9750 C   0  0  0  0  0  1  0  0  0  0  0  0
  185.2660  177.8840  138.4680 C   0  0  2  0  0  3  0  0  0  0  0  0
  184.0120  178.5760  138.7740 N   0  0  0  0  0  2  0  0  0  0  0  0
  184.1100  179.2780  140.0510 C   0  0  0  0  0  2  0  0  0  0  0  0
  183.3120  179.0360  143.3900 C   0  0  0  0  0  0  0  0  0  0  0  0
  181.7830  178.5860  141.3740 S   0  0  1  0  0  0  0  0  0  0  0  0
  184.1580  178.7760  142.4450 N   0  0  0  0  0  0  0  0  0  0  0  0
  183.5680  178.3970  141.1650 C   0  0  2  0  0  3  0  0  0  0  0  0
  181.9330  178.9380  143.0690 N   0  0  0  0  0  2  0  0  0  0  0  0
  181.4580  179.9490  140.7730 O   0  0  0  0  0  0  0  0  0  0  0  0
  183.7680  179.3810  144.7630 C   0  0  0  0  0  2  0  0  0  0  0  0
  186.0120  178.7600  145.5920 C   0  0  0  0  0  2  0  0  0  0  0  0
  184.6100  178.2510  145.3260 C   0  0  0  0  0  3  0  0  0  0  0  0
  185.0340  178.6100  146.7350 C   0  0  0  0  0  2  0  0  0  0  0  0
  1 10  1  0  0  0  0
  1  4  1  0  0  0  0
  2  1  2  0  0  0  0
  4  7  2  0  0  0  0
  5  6  1  0  0  0  0
  6 10  2  0  0  0  0
  7  8  1  0  0  0  0
  8  3  2  0  0  0  0
  9 30  1  1  0  0  0
  9  8  1  0  0  0  0
 10  9  1  0  0  0  0
 11  5  2  0  0  0  0
 11  2  1  0  0  0  0
 12 14  1  0  0  0  0
 12  5  1  1  0  0  0
 13 15  1  6  0  0  0
 13 12  1  0  0  0  0
 13 14  1  0  0  0  0
 14 16  1  6  0  0  0
 15 12  1  0  0  0  0
 17 18  1  0  0  0  0
 17 16  1  0  0  0  0
 19 18  1  6  0  0  0
 19 23  1  0  0  0  0
 20 19  1  0  0  0  0
 20 22  1  0  0  0  0
 21 20  2  0  0  0  0
 23 25  2  0  0  0  0
 23 24  2  0  0  0  0
 26 29  1  0  0  0  0
 26 23  1  0  0  0  0
 27 29  2  0  0  0  0
 29 28  1  0  0  0  0
 30 31  2  0  0  0  0
 32  2  1  0  0  0  0
 34 33  1  6  0  0  0
 34 35  1  0  0  0  0
 34 32  1  0  0  0  0
 35 36  1  0  0  0  0
 37 43  1  0  0  0  0
 38 42  2  6  0  0  0
 38 41  1  0  0  0  0
 39 37  2  0  0  0  0
 40 36  1  6  0  0  0
 40 38  1  0  0  0  0
 40 39  1  0  0  0  0
 41 37  1  0  0  0  0
 43 45  1  0  0  0  0
 44 46  1  0  0  0  0
 45 44  1  0  0  0  0
 45 46  1  0  0  0  0
M  END
>  <MODEL>
8

>  <REMARK>
 VINA RESULT:      -6.7      3.873      9.930
  Name = 
  17 active torsions:
  status: ('A' for Active; 'I' for Inactive)
    1  A    between atoms: C_2  and  C_40
    2  A    between atoms: C_3  and  C_23
    3  A    between atoms: C_4  and  C_42
    4  A    between atoms: C_6  and  S_14
    5  A    between atoms: C_6  and  C_33
    6  A    between atoms: C_7  and  N_9
    7  A    between atoms: N_9  and  C_15
    8  A    between atoms: S_14  and  C_42
    9  A    between atoms: C_15  and  N_35
   10  A    between atoms: C_16  and  C_21
   11  A    between atoms: N_19  and  C_20
   12  A    between atoms: N_19  and  C_32
   13  A    between atoms: C_20  and  C_43
   14  A    between atoms: C_22  and  C_23
   15  A    between atoms: C_27  and  C_37
   16  A    between atoms: N_35  and  C_37
   17  A    between atoms: C_42  and  C_43
                            x       y       z     vdW  Elec       q    Type
                         _______ _______ _______ _____ _____    ______ ____

>  <TORSDO>
F 17

$$$$
=
 OpenBabel11032421003D

 46 51  0  0  1  0  0  0  0  0999 V2000
  184.8280  178.7960  140.4450 C   0  0  0  0  0  0  0  0  0  0  0  0
  185.9000  178.8750  141.3460 C   0  0  0  0  0  0  0  0  0  0  0  0
  181.6980  179.0640  137.8380 O   0  0  0  0  0  0  0  0  0  0  0  0
  183.4480  179.0640  140.8830 C   0  0  0  0  0  3  0  0  0  0  0  0
  187.4270  178.3890  139.5300 C   0  0  0  0  0  0  0  0  0  0  0  0
  186.3650  178.2980  138.6800 N   0  0  0  0  0  0  0  0  0  0  0  0
  182.4670  179.0990  140.0340 N   0  0  0  0  0  0  0  0  0  0  0  0
  182.6530  178.8590  138.6340 C   0  0  0  0  0  0  0  0  0  0  0  0
  183.9560  178.3230  138.1050 C   0  0  1  0  0  3  0  0  0  0  0  0
  185.0840  178.4900  139.0950 C   0  0  0  0  0  0  0  0  0  0  0  0
  187.2050  178.6670  140.8800 C   0  0  0  0  0  3  0  0  0  0  0  0
  188.8360  178.1620  139.0510 C   0  0  2  0  0  0  0  0  0  0  0  0
  188.7800  177.2930  137.8000 C   0  0  2  0  0  3  0  0  0  0  0  0
  189.2880  176.7130  139.1060 C   0  0  1  0  0  3  0  0  0  0  0  0
  189.0960  178.7680  137.6850 C   0  0  0  0  0  2  0  0  0  0  0  0
  190.7400  176.6460  139.0800 N   0  0  0  0  0  2  0  0  0  0  0  0
  191.0960  175.8890  137.8950 C   0  0  0  0  0  2  0  0  0  0  0  0
  192.6040  175.8170  137.7730 C   0  0  0  0  0  2  0  0  0  0  0  0
  193.0370  174.3750  137.5600 C   0  0  1  0  0  3  0  0  0  0  0  0
  192.5530  173.8820  136.2360 C   0  0  0  0  0  0  0  0  0  0  0  0
  191.9930  172.6160  136.1110 O   0  0  0  0  0  1  0  0  0  0  0  0
  192.6700  174.6150  135.2210 O   0  0  0  0  0  0  0  0  0  0  0  0
  194.8160  174.2080  137.6940 S   0  0  0  0  0  0  0  0  0  0  0  0
  195.1610  172.8330  138.1940 O   0  0  0  0  0  0  0  0  0  0  0  0
  195.3520  175.2290  138.6570 O   0  0  0  0  0  0  0  0  0  0  0  0
  195.5700  174.4600  136.0970 C   0  0  0  0  0  2  0  0  0  0  0  0
  197.2970  176.1000  136.1440 O   0  0  0  0  0  1  0  0  0  0  0  0
  195.1910  176.8920  135.7110 O   0  0  0  0  0  0  0  0  0  0  0  0
  196.0750  175.8550  135.9750 C   0  0  0  0  0  0  0  0  0  0  0  0
  183.7820  176.8790  137.7400 C   0  0  0  0  0  3  0  0  0  0  0  0
  183.2940  175.9980  138.6110 C   0  0  0  0  0  2  0  0  0  0  0  0
  185.6610  179.1930  142.7230 N   0  0  0  0  0  2  0  0  0  0  0  0
  184.2220  178.9470  144.6970 C   0  0  0  0  0  1  0  0  0  0  0  0
  185.1170  178.2430  143.6880 C   0  0  2  0  0  3  0  0  0  0  0  0
  186.1900  177.4970  144.3500 N   0  0  0  0  0  2  0  0  0  0  0  0
  186.2700  177.8570  145.7630 C   0  0  0  0  0  2  0  0  0  0  0  0
  189.6240  177.2680  146.2620 C   0  0  0  0  0  0  0  0  0  0  0  0
  187.8230  177.6920  148.0450 S   0  0  1  0  0  0  0  0  0  0  0  0
  188.5340  176.9350  145.6470 N   0  0  0  0  0  0  0  0  0  0  0  0
  187.3190  177.0000  146.4540 C   0  0  2  0  0  3  0  0  0  0  0  0
  189.5080  177.6640  147.6200 N   0  0  0  0  0  2  0  0  0  0  0  0
  187.4770  179.1740  147.9570 O   0  0  0  0  0  0  0  0  0  0  0  0
  190.9460  177.1970  145.5840 C   0  0  0  0  0  2  0  0  0  0  0  0
  190.6120  179.0590  143.9940 C   0  0  0  0  0  2  0  0  0  0  0  0
  190.7950  177.5610  144.1190 C   0  0  0  0  0  3  0  0  0  0  0  0
  191.9600  178.4370  143.7070 C   0  0  0  0  0  2  0  0  0  0  0  0
  1  4  1  0  0  0  0
  1  2  1  0  0  0  0
  2 32  1  0  0  0  0
  3  8  2  0  0  0  0
  5 11  1  0  0  0  0
  6 10  1  0  0  0  0
  6  5  2  0  0  0  0
  7  4  2  0  0  0  0
  8  7  1  0  0  0  0
  9 30  1  1  0  0  0
  9  8  1  0  0  0  0
  9 10  1  0  0  0  0
 10  1  2  0  0  0  0
 11  2  2  0  0  0  0
 12 14  1  0  0  0  0
 12  5  1  1  0  0  0
 13 15  1  6  0  0  0
 13 12  1  0  0  0  0
 13 14  1  0  0  0  0
 14 16  1  6  0  0  0
 15 12  1  0  0  0  0
 17 16  1  0  0  0  0
 18 17  1  0  0  0  0
 19 23  1  0  0  0  0
 19 18  1  6  0  0  0
 20 19  1  0  0  0  0
 21 20  1  0  0  0  0
 22 20  2  0  0  0  0
 23 24  2  0  0  0  0
 23 25  2  0  0  0  0
 26 23  1  0  0  0  0
 28 29  2  0  0  0  0
 29 26  1  0  0  0  0
 29 27  1  0  0  0  0
 30 31  2  0  0  0  0
 32 34  1  0  0  0  0
 34 35  1  0  0  0  0
 34 33  1  1  0  0  0
 35 36  1  0  0  0  0
 37 41  1  0  0  0  0
 38 42  2  6  0  0  0
 39 37  2  0  0  0  0
 39 40  1  0  0  0  0
 40 36  1  6  0  0  0
 40 38  1  0  0  0  0
 41 38  1  0  0  0  0
 43 37  1  0  0  0  0
 44 45  1  0  0  0  0
 45 43  1  0  0  0  0
 46 44  1  0  0  0  0
 46 45  1  0  0  0  0
M  END
>  <MODEL>
9

>  <REMARK>
 VINA RESULT:      -6.7      3.477      9.920
  Name = 
  17 active torsions:
  status: ('A' for Active; 'I' for Inactive)
    1  A    between atoms: C_2  and  C_40
    2  A    between atoms: C_3  and  C_23
    3  A    between atoms: C_4  and  C_42
    4  A    between atoms: C_6  and  S_14
    5  A    between atoms: C_6  and  C_33
    6  A    between atoms: C_7  and  N_9
    7  A    between atoms: N_9  and  C_15
    8  A    between atoms: S_14  and  C_42
    9  A    between atoms: C_15  and  N_35
   10  A    between atoms: C_16  and  C_21
   11  A    between atoms: N_19  and  C_20
   12  A    between atoms: N_19  and  C_32
   13  A    between atoms: C_20  and  C_43
   14  A    between atoms: C_22  and  C_23
   15  A    between atoms: C_27  and  C_37
   16  A    between atoms: N_35  and  C_37
   17  A    between atoms: C_42  and  C_43
                            x       y       z     vdW  Elec       q    Type
                         _______ _______ _______ _____ _____    ______ ____

>  <TORSDO>
F 17

$$$$
