=
 OpenBabel11032419413D

 49 55  0  0  1  0  0  0  0  0999 V2000
  186.9780  178.6420  142.2490 N   0  0  0  0  0  2  0  0  0  0  0  0
  188.8970  177.9540  139.1470 C   0  0  0  0  0  0  0  0  0  0  0  0
  190.6940  176.6300  138.5710 N   0  0  0  0  0  2  0  0  0  0  0  0
  189.8260  176.6020  140.9110 C   0  0  0  0  0  3  0  0  0  0  0  0
  187.9450  178.5030  140.0050 C   0  0  0  0  0  3  0  0  0  0  0  0
  189.8070  177.0390  139.5900 C   0  0  0  0  0  0  0  0  0  0  0  0
  190.3300  177.3510  137.3490 C   0  0  2  0  0  3  0  0  0  0  0  0
  189.1140  178.2350  137.7050 C   0  0  0  0  0  2  0  0  0  0  0  0
  188.8770  177.1370  141.7960 C   0  0  0  0  0  3  0  0  0  0  0  0
  187.9380  178.0900  141.3490 C   0  0  0  0  0  0  0  0  0  0  0  0
  189.8530  176.1680  136.0560 S   0  0  0  0  0  0  0  0  0  0  0  0
  189.3730  173.5620  136.7420 C   0  0  0  0  0  2  0  0  0  0  0  0
  189.0670  174.9990  137.2030 C   0  0  2  0  0  3  0  0  0  0  0  0
  188.0780  172.9220  136.8250 N   0  0  1  0  0  0  0  0  0  0  0  0
  185.8350  173.2060  136.4590 C   0  0  2  0  0  3  0  0  0  0  0  0
  187.1680  173.9130  136.3210 C   0  0  1  0  0  0  0  0  0  0  0  0
  187.5280  175.1260  137.1320 C   0  0  0  0  0  2  0  0  0  0  0  0
  187.7530  171.7330  136.0660 C   0  0  0  0  0  2  0  0  0  0  0  0
  187.4180  174.1970  134.9610 O   0  0  0  0  0  1  0  0  0  0  0  0
  186.2090  171.7770  136.0060 C   0  0  0  0  0  2  0  0  0  0  0  0
  184.7410  173.7890  135.5680 C   0  0  0  0  0  2  0  0  0  0  0  0
  183.4710  175.7800  136.5170 N   0  0  0  0  0  2  0  0  0  0  0  0
  182.8270  173.6000  136.9720 O   0  0  0  0  0  0  0  0  0  0  0  0
  184.3770  176.7300  135.8940 C   0  0  0  0  0  1  0  0  0  0  0  0
  183.6410  174.3680  136.3990 C   0  0  0  0  0  0  0  0  0  0  0  0
  185.7900  177.9620  142.5530 N   0  0  0  0  0  2  0  0  0  0  0  0
  184.6860  178.8430  142.2130 C   0  0  0  0  0  2  0  0  0  0  0  0
  183.9160  179.2300  143.4730 C   0  0  1  0  0  3  0  0  0  0  0  0
  182.4190  179.3220  143.1630 C   0  0  1  0  0  3  0  0  0  0  0  0
  179.9390  178.0620  142.4190 C   0  0  0  0  0  2  0  0  0  0  0  0
  182.1110  178.7660  141.7720 C   0  0  0  0  0  2  0  0  0  0  0  0
  180.4630  178.3610  140.1610 C   0  0  0  0  0  1  0  0  0  0  0  0
  180.6820  178.9060  141.4870 N   0  0  0  0  0  0  0  0  0  0  0  0
  180.1250  178.5660  143.8460 C   0  0  0  0  0  2  0  0  0  0  0  0
  181.6100  178.5390  144.2010 C   0  0  0  0  0  2  0  0  0  0  0  0
  184.1430  178.2650  144.4650 O   0  0  0  0  0  0  0  0  0  0  0  0
  185.7610  177.9030  146.1200 C   0  0  1  0  0  3  0  0  0  0  0  0
  184.5860  178.4120  146.7000 O   0  0  0  0  0  0  0  0  0  0  0  0
  184.9230  178.9070  145.4290 C   0  0  2  0  0  3  0  0  0  0  0  0
  186.9120  178.5520  146.7250 N   0  0  0  0  0  2  0  0  0  0  0  0
  189.1520  177.4790  147.9010 S   0  0  0  0  0  0  0  0  0  0  0  0
  190.1460  177.1940  145.6160 C   0  0  0  0  0  0  0  0  0  0  0  0
  190.4370  176.9490  146.9610 C   0  0  0  0  0  0  0  0  0  0  0  0
  188.2260  178.0130  146.6040 C   0  0  0  0  0  0  0  0  0  0  0  0
  188.8960  177.7860  145.4080 C   0  0  0  0  0  3  0  0  0  0  0  0
  192.5300  175.7460  147.9150 N   0  0  0  0  0  0  0  0  0  0  0  0
  191.5970  176.2830  147.4890 C   0  0  0  0  0  0  0  0  0  0  0  0
  191.0110  176.8870  144.5250 N   0  0  0  0  0  2  0  0  0  0  0  0
  191.7200  177.8360  143.8630 O   0  0  0  0  0  1  0  0  0  0  0  0
  1 26  1  0  0  0  0
  2  6  2  0  0  0  0
  2  5  1  0  0  0  0
  3  6  1  0  0  0  0
  4  9  2  0  0  0  0
  5 10  2  0  0  0  0
  6  4  1  0  0  0  0
  7 11  1  6  0  0  0
  7  8  1  0  0  0  0
  7  3  1  0  0  0  0
  8  2  1  0  0  0  0
 10  9  1  0  0  0  0
 10  1  1  0  0  0  0
 12 14  1  0  0  0  0
 12 13  1  0  0  0  0
 13 11  1  6  0  0  0
 14 18  1  6  0  0  0
 15 21  1  6  0  0  0
 16 19  1  6  0  0  0
 16 15  1  0  0  0  0
 16 14  1  0  0  0  0
 16 17  1  0  0  0  0
 17 13  1  0  0  0  0
 20 18  1  0  0  0  0
 20 15  1  0  0  0  0
 21 25  1  0  0  0  0
 24 22  1  0  0  0  0
 25 22  1  0  0  0  0
 25 23  2  0  0  0  0
 27 26  1  0  0  0  0
 28 27  1  6  0  0  0
 28 36  1  0  0  0  0
 29 28  1  1  0  0  0
 29 35  1  0  0  0  0
 30 34  1  0  0  0  0
 31 29  1  0  0  0  0
 32 33  1  0  0  0  0
 33 31  1  0  0  0  0
 33 30  1  0  0  0  0
 34 35  1  0  0  0  0
 37 38  1  0  0  0  0
 37 40  1  1  0  0  0
 39 36  1  6  0  0  0
 39 37  1  0  0  0  0
 39 38  1  0  0  0  0
 42 43  2  0  0  0  0
 43 47  1  0  0  0  0
 43 41  1  0  0  0  0
 44 40  1  0  0  0  0
 44 41  1  0  0  0  0
 45 42  1  0  0  0  0
 45 44  2  0  0  0  0
 47 46  3  0  0  0  0
 48 42  1  0  0  0  0
 49 48  1  0  0  0  0
M  END
>  <MODEL>
1

>  <REMARK>
 VINA RESULT:      -8.0      0.000      0.000
  Name = 
  15 active torsions:
  status: ('A' for Active; 'I' for Inactive)
    1  A    between atoms: C_1  and  C_10
    2  A    between atoms: N_4  and  C_39
    3  A    between atoms: N_4  and  N_48
    4  A    between atoms: C_8  and  C_29
    5  A    between atoms: C_8  and  C_37
    6  A    between atoms: C_10  and  O_17
    7  A    between atoms: C_10  and  C_39
    8  A    between atoms: N_12  and  C_31
    9  A    between atoms: C_14  and  C_34
   10  A    between atoms: O_17  and  C_40
   11  A    between atoms: C_18  and  S_24
   12  A    between atoms: C_19  and  N_32
   13  A    between atoms: S_24  and  C_35
   14  A    between atoms: N_32  and  C_38
   15  A    between atoms: C_46  and  N_48
                            x       y       z     vdW  Elec       q    Type
                         _______ _______ _______ _____ _____    ______ ____

>  <TORSDO>
F 15

$$$$
=
 OpenBabel11032419413D

 49 55  0  0  1  0  0  0  0  0999 V2000
  186.3980  179.3130  141.3560 N   0  0  0  0  0  2  0  0  0  0  0  0
  189.3340  177.3930  140.1410 C   0  0  0  0  0  0  0  0  0  0  0  0
  189.9760  176.4390  138.1440 N   0  0  0  0  0  2  0  0  0  0  0  0
  187.8150  177.6800  138.2930 C   0  0  0  0  0  3  0  0  0  0  0  0
  188.4910  178.0940  141.0030 C   0  0  0  0  0  3  0  0  0  0  0  0
  189.0020  177.1910  138.8330 C   0  0  0  0  0  0  0  0  0  0  0  0
  191.0430  176.1160  139.0940 C   0  0  2  0  0  3  0  0  0  0  0  0
  190.6430  176.7600  140.4410 C   0  0  0  0  0  2  0  0  0  0  0  0
  186.9500  178.3910  139.1370 C   0  0  0  0  0  3  0  0  0  0  0  0
  187.2810  178.5980  140.4930 C   0  0  0  0  0  0  0  0  0  0  0  0
  192.6110  176.8350  138.5270 S   0  0  0  0  0  0  0  0  0  0  0  0
  192.9260  174.3220  137.4880 C   0  0  0  0  0  2  0  0  0  0  0  0
  192.7320  175.7850  137.0490 C   0  0  2  0  0  3  0  0  0  0  0  0
  194.0040  173.8770  136.6330 N   0  0  1  0  0  0  0  0  0  0  0  0
  195.9950  174.4880  135.6780 C   0  0  2  0  0  3  0  0  0  0  0  0
  194.9090  174.9930  136.6050 C   0  0  1  0  0  0  0  0  0  0  0  0
  194.0020  176.1360  136.2410 C   0  0  0  0  0  2  0  0  0  0  0  0
  194.8500  172.7530  136.9750 C   0  0  0  0  0  2  0  0  0  0  0  0
  195.4530  175.2470  137.8830 O   0  0  0  0  0  1  0  0  0  0  0  0
  196.1280  173.0220  136.1490 C   0  0  0  0  0  2  0  0  0  0  0  0
  197.3210  175.2290  135.8300 C   0  0  0  0  0  2  0  0  0  0  0  0
  199.1610  173.8250  136.8890 N   0  0  0  0  0  2  0  0  0  0  0  0
  198.8080  173.8360  134.5980 O   0  0  0  0  0  0  0  0  0  0  0  0
  198.8350  174.2970  138.2240 C   0  0  0  0  0  1  0  0  0  0  0  0
  198.4690  174.2770  135.7260 C   0  0  0  0  0  0  0  0  0  0  0  0
  185.5980  178.6450  142.2940 N   0  0  0  0  0  2  0  0  0  0  0  0
  184.2340  179.1080  142.1120 C   0  0  0  0  0  2  0  0  0  0  0  0
  183.5710  179.3370  143.4680 C   0  0  1  0  0  3  0  0  0  0  0  0
  182.0470  179.3200  143.3140 C   0  0  1  0  0  3  0  0  0  0  0  0
  179.6190  177.9240  142.6440 C   0  0  0  0  0  2  0  0  0  0  0  0
  181.6430  178.9130  141.8970 C   0  0  0  0  0  2  0  0  0  0  0  0
  179.8750  178.5510  140.4060 C   0  0  0  0  0  1  0  0  0  0  0  0
  180.1850  178.9460  141.7680 N   0  0  0  0  0  0  0  0  0  0  0  0
  179.9110  178.2630  144.1020 C   0  0  0  0  0  2  0  0  0  0  0  0
  181.4210  178.3380  144.3090 C   0  0  0  0  0  2  0  0  0  0  0  0
  183.9770  178.3280  144.3540 O   0  0  0  0  0  0  0  0  0  0  0  0
  185.4150  177.9620  146.1660 C   0  0  1  0  0  3  0  0  0  0  0  0
  184.2710  178.6590  146.5940 O   0  0  0  0  0  0  0  0  0  0  0  0
  184.7570  178.9760  145.3130 C   0  0  2  0  0  3  0  0  0  0  0  0
  186.5880  178.5360  146.8010 N   0  0  0  0  0  2  0  0  0  0  0  0
  188.9930  177.6420  147.7850 S   0  0  0  0  0  0  0  0  0  0  0  0
  189.7060  177.1420  145.4340 C   0  0  0  0  0  0  0  0  0  0  0  0
  190.1700  177.0460  146.7480 C   0  0  0  0  0  0  0  0  0  0  0  0
  187.8960  178.0170  146.5690 C   0  0  0  0  0  0  0  0  0  0  0  0
  188.4200  177.6820  145.3270 C   0  0  0  0  0  3  0  0  0  0  0  0
  192.4060  175.9940  147.5440 N   0  0  0  0  0  0  0  0  0  0  0  0
  191.4090  176.4640  147.1890 C   0  0  0  0  0  0  0  0  0  0  0  0
  190.4400  176.7430  144.2780 N   0  0  0  0  0  2  0  0  0  0  0  0
  191.5420  177.4060  143.8450 O   0  0  0  0  0  1  0  0  0  0  0  0
  1 26  1  0  0  0  0
  2  8  1  0  0  0  0
  2  5  1  0  0  0  0
  3  6  1  0  0  0  0
  3  7  1  0  0  0  0
  4  6  1  0  0  0  0
  4  9  2  0  0  0  0
  6  2  2  0  0  0  0
  7 11  1  6  0  0  0
  7  8  1  0  0  0  0
  9 10  1  0  0  0  0
 10  5  2  0  0  0  0
 10  1  1  0  0  0  0
 13 12  1  0  0  0  0
 13 11  1  1  0  0  0
 14 18  1  1  0  0  0
 14 12  1  0  0  0  0
 15 21  1  1  0  0  0
 15 20  1  0  0  0  0
 15 16  1  0  0  0  0
 16 14  1  0  0  0  0
 16 19  1  1  0  0  0
 17 16  1  0  0  0  0
 17 13  1  0  0  0  0
 20 18  1  0  0  0  0
 22 24  1  0  0  0  0
 23 25  2  0  0  0  0
 25 21  1  0  0  0  0
 25 22  1  0  0  0  0
 27 26  1  0  0  0  0
 28 27  1  6  0  0  0
 28 36  1  0  0  0  0
 29 28  1  6  0  0  0
 29 35  1  0  0  0  0
 30 34  1  0  0  0  0
 31 29  1  0  0  0  0
 32 33  1  0  0  0  0
 33 31  1  0  0  0  0
 33 30  1  0  0  0  0
 34 35  1  0  0  0  0
 37 38  1  0  0  0  0
 37 40  1  1  0  0  0
 39 36  1  6  0  0  0
 39 37  1  0  0  0  0
 39 38  1  0  0  0  0
 42 43  2  0  0  0  0
 43 47  1  0  0  0  0
 43 41  1  0  0  0  0
 44 40  1  0  0  0  0
 44 41  1  0  0  0  0
 45 42  1  0  0  0  0
 45 44  2  0  0  0  0
 47 46  3  0  0  0  0
 48 42  1  0  0  0  0
 49 48  1  0  0  0  0
M  END
>  <MODEL>
2

>  <REMARK>
 VINA RESULT:      -7.7      3.844      5.858
  Name = 
  15 active torsions:
  status: ('A' for Active; 'I' for Inactive)
    1  A    between atoms: C_1  and  C_10
    2  A    between atoms: N_4  and  C_39
    3  A    between atoms: N_4  and  N_48
    4  A    between atoms: C_8  and  C_29
    5  A    between atoms: C_8  and  C_37
    6  A    between atoms: C_10  and  O_17
    7  A    between atoms: C_10  and  C_39
    8  A    between atoms: N_12  and  C_31
    9  A    between atoms: C_14  and  C_34
   10  A    between atoms: O_17  and  C_40
   11  A    between atoms: C_18  and  S_24
   12  A    between atoms: C_19  and  N_32
   13  A    between atoms: S_24  and  C_35
   14  A    between atoms: N_32  and  C_38
   15  A    between atoms: C_46  and  N_48
                            x       y       z     vdW  Elec       q    Type
                         _______ _______ _______ _____ _____    ______ ____

>  <TORSDO>
F 15

$$$$
=
 OpenBabel11032419413D

 49 55  0  0  1  0  0  0  0  0999 V2000
  185.9150  178.8160  138.6160 N   0  0  0  0  0  2  0  0  0  0  0  0
  189.0670  176.9480  138.0200 C   0  0  0  0  0  0  0  0  0  0  0  0
  190.4190  176.5180  136.2040 N   0  0  0  0  0  2  0  0  0  0  0  0
  188.3850  177.9400  135.9340 C   0  0  0  0  0  3  0  0  0  0  0  0
  187.9660  177.4820  138.6890 C   0  0  0  0  0  3  0  0  0  0  0  0
  189.2630  177.1680  136.6890 C   0  0  0  0  0  0  0  0  0  0  0  0
  191.0310  175.8040  137.3260 C   0  0  2  0  0  3  0  0  0  0  0  0
  190.1510  176.0900  138.5630 C   0  0  0  0  0  2  0  0  0  0  0  0
  187.2690  178.4920  136.5820 C   0  0  0  0  0  3  0  0  0  0  0  0
  187.0530  178.2630  137.9570 C   0  0  0  0  0  0  0  0  0  0  0  0
  192.7060  176.4420  137.6220 S   0  0  0  0  0  0  0  0  0  0  0  0
  192.9450  174.0530  136.3050 C   0  0  0  0  0  2  0  0  0  0  0  0
  193.4660  175.5020  136.2640 C   0  0  2  0  0  3  0  0  0  0  0  0
  194.1560  173.2790  136.1480 N   0  0  1  0  0  0  0  0  0  0  0  0
  196.3660  173.1400  136.7360 C   0  0  2  0  0  3  0  0  0  0  0  0
  195.1180  173.9700  136.9600 C   0  0  1  0  0  0  0  0  0  0  0  0
  194.9930  175.3880  136.4770 C   0  0  0  0  0  2  0  0  0  0  0  0
  194.2570  171.9020  136.5850 C   0  0  0  0  0  2  0  0  0  0  0  0
  194.7610  173.9330  138.3260 O   0  0  0  0  0  1  0  0  0  0  0  0
  195.7790  171.7110  136.7650 C   0  0  0  0  0  2  0  0  0  0  0  0
  197.4200  173.3160  137.8250 C   0  0  0  0  0  2  0  0  0  0  0  0
  198.2700  175.5020  138.8120 N   0  0  0  0  0  2  0  0  0  0  0  0
  198.5660  174.9850  136.5710 O   0  0  0  0  0  0  0  0  0  0  0  0
  197.7510  175.1790  140.1290 C   0  0  0  0  0  1  0  0  0  0  0  0
  198.1010  174.6400  137.6880 C   0  0  0  0  0  0  0  0  0  0  0  0
  184.6120  178.4970  138.2070 N   0  0  0  0  0  2  0  0  0  0  0  0
  184.0190  177.6730  139.2460 C   0  0  0  0  0  2  0  0  0  0  0  0
  183.6870  178.5250  140.4680 C   0  0  1  0  0  3  0  0  0  0  0  0
  182.1810  178.7940  140.5250 C   0  0  1  0  0  3  0  0  0  0  0  0
  179.5040  177.9010  141.1020 C   0  0  0  0  0  2  0  0  0  0  0  0
  181.4090  177.7700  139.6920 C   0  0  0  0  0  2  0  0  0  0  0  0
  179.3110  177.0700  138.9260 C   0  0  0  0  0  1  0  0  0  0  0  0
  179.9770  178.0750  139.7310 N   0  0  0  0  0  0  0  0  0  0  0  0
  180.1680  178.9230  142.0200 C   0  0  0  0  0  2  0  0  0  0  0  0
  181.6820  178.7330  141.9720 C   0  0  0  0  0  2  0  0  0  0  0  0
  184.1000  177.8490  141.6250 O   0  0  0  0  0  0  0  0  0  0  0  0
  185.8130  177.8080  143.2220 C   0  0  1  0  0  3  0  0  0  0  0  0
  185.1070  179.0200  143.3060 O   0  0  0  0  0  0  0  0  0  0  0  0
  185.2790  178.4830  142.0190 C   0  0  2  0  0  3  0  0  0  0  0  0
  187.2360  178.0740  143.3490 N   0  0  0  0  0  2  0  0  0  0  0  0
  189.6000  177.3010  144.5170 S   0  0  0  0  0  0  0  0  0  0  0  0
  188.4450  177.3300  146.7420 C   0  0  0  0  0  0  0  0  0  0  0  0
  189.7010  177.0900  146.1780 C   0  0  0  0  0  0  0  0  0  0  0  0
  187.9680  177.7010  144.5130 C   0  0  0  0  0  0  0  0  0  0  0  0
  187.4650  177.6830  145.8080 C   0  0  0  0  0  3  0  0  0  0  0  0
  191.9050  176.5470  147.4380 N   0  0  0  0  0  0  0  0  0  0  0  0
  190.9220  176.7900  146.8770 C   0  0  0  0  0  0  0  0  0  0  0  0
  188.1430  177.2330  148.1320 N   0  0  0  0  0  2  0  0  0  0  0  0
  188.5160  178.1790  149.0300 O   0  0  0  0  0  1  0  0  0  0  0  0
  2  8  1  0  0  0  0
  2  5  1  0  0  0  0
  3  6  1  0  0  0  0
  3  7  1  0  0  0  0
  4  9  2  0  0  0  0
  4  6  1  0  0  0  0
  6  2  2  0  0  0  0
  7 11  1  1  0  0  0
  7  8  1  0  0  0  0
  9 10  1  0  0  0  0
 10  1  1  0  0  0  0
 10  5  2  0  0  0  0
 13 12  1  0  0  0  0
 13 17  1  0  0  0  0
 13 11  1  1  0  0  0
 14 12  1  1  0  0  0
 14 18  1  0  0  0  0
 14 16  1  0  0  0  0
 15 20  1  0  0  0  0
 15 16  1  0  0  0  0
 15 21  1  1  0  0  0
 16 19  1  1  0  0  0
 17 16  1  0  0  0  0
 18 20  1  0  0  0  0
 22 24  1  0  0  0  0
 23 25  2  0  0  0  0
 25 21  1  0  0  0  0
 25 22  1  0  0  0  0
 26  1  1  0  0  0  0
 26 27  1  0  0  0  0
 28 27  1  6  0  0  0
 28 36  1  0  0  0  0
 29 28  1  1  0  0  0
 29 35  1  0  0  0  0
 30 34  1  0  0  0  0
 31 33  1  0  0  0  0
 31 29  1  0  0  0  0
 32 33  1  0  0  0  0
 33 30  1  0  0  0  0
 35 34  1  0  0  0  0
 37 38  1  0  0  0  0
 37 40  1  6  0  0  0
 39 36  1  1  0  0  0
 39 37  1  0  0  0  0
 39 38  1  0  0  0  0
 40 44  1  0  0  0  0
 41 43  1  0  0  0  0
 42 48  1  0  0  0  0
 43 42  2  0  0  0  0
 43 47  1  0  0  0  0
 44 41  1  0  0  0  0
 44 45  2  0  0  0  0
 45 42  1  0  0  0  0
 47 46  3  0  0  0  0
 48 49  1  0  0  0  0
M  END
>  <MODEL>
3

>  <REMARK>
 VINA RESULT:      -7.6      4.071      6.209
  Name = 
  15 active torsions:
  status: ('A' for Active; 'I' for Inactive)
    1  A    between atoms: C_1  and  C_10
    2  A    between atoms: N_4  and  C_39
    3  A    between atoms: N_4  and  N_48
    4  A    between atoms: C_8  and  C_29
    5  A    between atoms: C_8  and  C_37
    6  A    between atoms: C_10  and  O_17
    7  A    between atoms: C_10  and  C_39
    8  A    between atoms: N_12  and  C_31
    9  A    between atoms: C_14  and  C_34
   10  A    between atoms: O_17  and  C_40
   11  A    between atoms: C_18  and  S_24
   12  A    between atoms: C_19  and  N_32
   13  A    between atoms: S_24  and  C_35
   14  A    between atoms: N_32  and  C_38
   15  A    between atoms: C_46  and  N_48
                            x       y       z     vdW  Elec       q    Type
                         _______ _______ _______ _____ _____    ______ ____

>  <TORSDO>
F 15

$$$$
=
 OpenBabel11032419413D

 49 55  0  0  1  0  0  0  0  0999 V2000
  185.9730  178.8980  142.0090 N   0  0  0  0  0  2  0  0  0  0  0  0
  182.5000  178.4150  140.7900 C   0  0  0  0  0  0  0  0  0  0  0  0
  181.4410  178.4690  138.7440 N   0  0  0  0  0  2  0  0  0  0  0  0
  183.9050  178.8480  138.8820 C   0  0  0  0  0  3  0  0  0  0  0  0
  183.5800  178.5130  141.6670 C   0  0  0  0  0  3  0  0  0  0  0  0
  182.6610  178.5820  139.4460 C   0  0  0  0  0  0  0  0  0  0  0  0
  180.3860  178.2080  139.7260 C   0  0  2  0  0  3  0  0  0  0  0  0
  181.0740  178.1510  141.1080 C   0  0  0  0  0  2  0  0  0  0  0  0
  185.0100  178.9490  139.7410 C   0  0  0  0  0  3  0  0  0  0  0  0
  184.8530  178.7870  141.1330 C   0  0  0  0  0  0  0  0  0  0  0  0
  179.6040  176.6060  139.3770 S   0  0  0  0  0  0  0  0  0  0  0  0
  179.3080  175.8570  136.7610 C   0  0  0  0  0  2  0  0  0  0  0  0
  180.3580  176.4250  137.7330 C   0  0  2  0  0  3  0  0  0  0  0  0
  180.0410  174.8130  136.0790 N   0  0  1  0  0  0  0  0  0  0  0  0
  181.5770  173.1360  136.3530 C   0  0  2  0  0  3  0  0  0  0  0  0
  180.8110  174.1930  137.1220 C   0  0  1  0  0  0  0  0  0  0  0  0
  181.4860  175.3690  137.7710 C   0  0  0  0  0  2  0  0  0  0  0  0
  179.3810  173.7030  135.4260 C   0  0  0  0  0  2  0  0  0  0  0  0
  179.9780  173.5740  138.0790 O   0  0  0  0  0  1  0  0  0  0  0  0
  180.4860  172.6230  135.3870 C   0  0  0  0  0  2  0  0  0  0  0  0
  182.1020  172.0030  137.2300 C   0  0  0  0  0  2  0  0  0  0  0  0
  184.6140  171.8530  136.8530 N   0  0  0  0  0  2  0  0  0  0  0  0
  183.1470  170.3510  135.8700 O   0  0  0  0  0  0  0  0  0  0  0  0
  184.8680  173.0230  137.6760 C   0  0  0  0  0  1  0  0  0  0  0  0
  183.2980  171.3630  136.6020 C   0  0  0  0  0  0  0  0  0  0  0  0
  185.8510  178.6480  143.3830 N   0  0  0  0  0  2  0  0  0  0  0  0
  186.4460  177.3490  143.6440 C   0  0  0  0  0  2  0  0  0  0  0  0
  187.9190  177.5090  144.0100 C   0  0  1  0  0  3  0  0  0  0  0  0
  188.1320  177.1530  145.4840 C   0  0  1  0  0  3  0  0  0  0  0  0
  189.2020  177.7950  148.0800 C   0  0  0  0  0  2  0  0  0  0  0  0
  189.6200  177.1430  145.8370 C   0  0  0  0  0  2  0  0  0  0  0  0
  191.2230  176.7710  147.5010 C   0  0  0  0  0  1  0  0  0  0  0  0
  189.7960  176.7590  147.2390 N   0  0  0  0  0  0  0  0  0  0  0  0
  187.6950  177.8520  147.8550 C   0  0  0  0  0  2  0  0  0  0  0  0
  187.4160  178.1620  146.3860 C   0  0  0  0  0  2  0  0  0  0  0  0
  188.6890  176.6660  143.1950 O   0  0  0  0  0  0  0  0  0  0  0  0
  190.3490  176.7150  141.5440 C   0  0  1  0  0  3  0  0  0  0  0  0
  190.8330  177.2960  142.7290 O   0  0  0  0  0  0  0  0  0  0  0  0
  189.4790  177.5220  142.4270 C   0  0  2  0  0  3  0  0  0  0  0  0
  190.7800  177.5140  140.4100 N   0  0  0  0  0  2  0  0  0  0  0  0
  190.5700  175.9730  138.1440 S   0  0  0  0  0  0  0  0  0  0  0  0
  188.9500  177.6510  137.2220 C   0  0  0  0  0  0  0  0  0  0  0  0
  189.5520  176.4330  136.8920 C   0  0  0  0  0  0  0  0  0  0  0  0
  190.2450  177.3140  139.1040 C   0  0  0  0  0  0  0  0  0  0  0  0
  189.3310  178.1480  138.4720 C   0  0  0  0  0  3  0  0  0  0  0  0
  189.1060  174.9900  134.7810 N   0  0  0  0  0  0  0  0  0  0  0  0
  189.3060  175.6340  135.7220 C   0  0  0  0  0  0  0  0  0  0  0  0
  188.0310  178.3580  136.3920 N   0  0  0  0  0  2  0  0  0  0  0  0
  187.3290  179.4340  136.8270 O   0  0  0  0  0  1  0  0  0  0  0  0
  1 26  1  0  0  0  0
  2  8  1  0  0  0  0
  2  5  1  0  0  0  0
  3  6  1  0  0  0  0
  3  7  1  0  0  0  0
  4  6  1  0  0  0  0
  4  9  2  0  0  0  0
  6  2  2  0  0  0  0
  7 11  1  6  0  0  0
  7  8  1  0  0  0  0
  9 10  1  0  0  0  0
 10  5  2  0  0  0  0
 10  1  1  0  0  0  0
 12 13  1  0  0  0  0
 13 17  1  0  0  0  0
 13 11  1  1  0  0  0
 14 18  1  1  0  0  0
 14 12  1  0  0  0  0
 14 16  1  0  0  0  0
 15 16  1  0  0  0  0
 15 21  1  1  0  0  0
 16 17  1  0  0  0  0
 16 19  1  1  0  0  0
 20 18  1  0  0  0  0
 20 15  1  0  0  0  0
 22 24  1  0  0  0  0
 23 25  2  0  0  0  0
 25 22  1  0  0  0  0
 25 21  1  0  0  0  0
 26 27  1  0  0  0  0
 28 27  1  6  0  0  0
 29 28  1  6  0  0  0
 29 31  1  0  0  0  0
 29 35  1  0  0  0  0
 31 33  1  0  0  0  0
 33 32  1  0  0  0  0
 33 30  1  0  0  0  0
 34 30  1  0  0  0  0
 35 34  1  0  0  0  0
 36 28  1  0  0  0  0
 37 40  1  6  0  0  0
 37 39  1  0  0  0  0
 37 38  1  0  0  0  0
 39 38  1  0  0  0  0
 39 36  1  1  0  0  0
 41 44  1  0  0  0  0
 42 45  1  0  0  0  0
 43 42  2  0  0  0  0
 43 41  1  0  0  0  0
 44 40  1  0  0  0  0
 45 44  2  0  0  0  0
 46 47  3  0  0  0  0
 47 43  1  0  0  0  0
 48 49  1  0  0  0  0
 48 42  1  0  0  0  0
M  END
>  <MODEL>
4

>  <REMARK>
 VINA RESULT:      -7.3      2.924      7.716
  Name = 
  15 active torsions:
  status: ('A' for Active; 'I' for Inactive)
    1  A    between atoms: C_1  and  C_10
    2  A    between atoms: N_4  and  C_39
    3  A    between atoms: N_4  and  N_48
    4  A    between atoms: C_8  and  C_29
    5  A    between atoms: C_8  and  C_37
    6  A    between atoms: C_10  and  O_17
    7  A    between atoms: C_10  and  C_39
    8  A    between atoms: N_12  and  C_31
    9  A    between atoms: C_14  and  C_34
   10  A    between atoms: O_17  and  C_40
   11  A    between atoms: C_18  and  S_24
   12  A    between atoms: C_19  and  N_32
   13  A    between atoms: S_24  and  C_35
   14  A    between atoms: N_32  and  C_38
   15  A    between atoms: C_46  and  N_48
                            x       y       z     vdW  Elec       q    Type
                         _______ _______ _______ _____ _____    ______ ____

>  <TORSDO>
F 15

$$$$
=
 OpenBabel11032419413D

 49 55  0  0  1  0  0  0  0  0999 V2000
  185.1890  177.9580  137.1630 N   0  0  0  0  0  2  0  0  0  0  0  0
  188.5490  176.3860  137.0140 C   0  0  0  0  0  0  0  0  0  0  0  0
  190.1950  176.1480  135.4190 N   0  0  0  0  0  2  0  0  0  0  0  0
  188.1080  177.4040  134.8760 C   0  0  0  0  0  3  0  0  0  0  0  0
  187.3150  176.7990  137.5180 C   0  0  0  0  0  3  0  0  0  0  0  0
  188.9260  176.6770  135.7360 C   0  0  0  0  0  0  0  0  0  0  0  0
  190.6900  175.4410  136.6030 C   0  0  2  0  0  3  0  0  0  0  0  0
  189.6090  175.6000  137.6950 C   0  0  0  0  0  2  0  0  0  0  0  0
  186.8620  177.8330  135.3570 C   0  0  0  0  0  3  0  0  0  0  0  0
  186.4590  177.5300  136.6750 C   0  0  0  0  0  0  0  0  0  0  0  0
  192.2370  176.2040  137.1740 S   0  0  0  0  0  0  0  0  0  0  0  0
  192.8950  173.8930  135.8610 C   0  0  0  0  0  2  0  0  0  0  0  0
  193.2770  175.3830  135.9300 C   0  0  2  0  0  3  0  0  0  0  0  0
  194.1840  173.2370  135.8750 N   0  0  1  0  0  0  0  0  0  0  0  0
  196.2830  173.2790  136.7900 C   0  0  2  0  0  3  0  0  0  0  0  0
  194.9440  173.9840  136.8380 C   0  0  1  0  0  0  0  0  0  0  0  0
  194.7580  175.4000  136.3690 C   0  0  0  0  0  2  0  0  0  0  0  0
  194.3480  171.8610  136.2950 C   0  0  0  0  0  2  0  0  0  0  0  0
  194.3920  173.8690  138.1330 O   0  0  0  0  0  1  0  0  0  0  0  0
  195.8370  171.8020  136.7010 C   0  0  0  0  0  2  0  0  0  0  0  0
  197.1420  173.5130  138.0300 C   0  0  0  0  0  2  0  0  0  0  0  0
  198.3300  175.5530  138.9800 N   0  0  0  0  0  2  0  0  0  0  0  0
  198.4280  175.0320  136.7230 O   0  0  0  0  0  0  0  0  0  0  0  0
  197.8460  175.2840  140.3230 C   0  0  0  0  0  1  0  0  0  0  0  0
  197.9840  174.7370  137.8630 C   0  0  0  0  0  0  0  0  0  0  0  0
  184.2940  177.0540  137.7520 N   0  0  0  0  0  2  0  0  0  0  0  0
  183.8280  177.6480  138.9930 C   0  0  0  0  0  2  0  0  0  0  0  0
  183.7380  179.1650  138.8480 C   0  0  1  0  0  3  0  0  0  0  0  0
  182.2700  179.6010  138.8230 C   0  0  1  0  0  3  0  0  0  0  0  0
  180.0900  181.1030  139.9580 C   0  0  0  0  0  2  0  0  0  0  0  0
  181.5720  179.2580  140.1390 C   0  0  0  0  0  2  0  0  0  0  0  0
  179.5670  179.2960  141.3460 C   0  0  0  0  0  1  0  0  0  0  0  0
  180.1630  179.6490  140.0710 N   0  0  0  0  0  0  0  0  0  0  0  0
  180.7080  181.5570  138.6390 C   0  0  0  0  0  2  0  0  0  0  0  0
  182.1670  181.1110  138.5850 C   0  0  0  0  0  2  0  0  0  0  0  0
  184.4010  179.7680  139.9270 O   0  0  0  0  0  0  0  0  0  0  0  0
  185.1570  179.2010  142.0700 C   0  0  1  0  0  3  0  0  0  0  0  0
  186.1830  179.0000  141.1300 O   0  0  0  0  0  0  0  0  0  0  0  0
  184.8760  178.7100  140.7030 C   0  0  2  0  0  3  0  0  0  0  0  0
  185.1430  178.0900  143.0070 N   0  0  0  0  0  2  0  0  0  0  0  0
  185.8020  178.3770  145.6600 S   0  0  0  0  0  0  0  0  0  0  0  0
  188.0690  177.4410  145.1400 C   0  0  0  0  0  0  0  0  0  0  0  0
  187.3130  177.9100  146.2180 C   0  0  0  0  0  0  0  0  0  0  0  0
  186.1040  177.9820  144.0540 C   0  0  0  0  0  0  0  0  0  0  0  0
  187.3890  177.4710  143.9180 C   0  0  0  0  0  3  0  0  0  0  0  0
  188.0080  177.9440  148.7190 N   0  0  0  0  0  0  0  0  0  0  0  0
  187.6990  177.9290  147.6040 C   0  0  0  0  0  0  0  0  0  0  0  0
  189.4120  176.9690  145.2290 N   0  0  0  0  0  2  0  0  0  0  0  0
  190.1160  176.5540  144.1460 O   0  0  0  0  0  1  0  0  0  0  0  0
  1 26  1  0  0  0  0
  2  5  1  0  0  0  0
  2  8  1  0  0  0  0
  3  6  1  0  0  0  0
  3  7  1  0  0  0  0
  4  9  2  0  0  0  0
  4  6  1  0  0  0  0
  6  2  2  0  0  0  0
  7 11  1  1  0  0  0
  7  8  1  0  0  0  0
  9 10  1  0  0  0  0
 10  1  1  0  0  0  0
 10  5  2  0  0  0  0
 12 13  1  0  0  0  0
 13 17  1  0  0  0  0
 13 11  1  1  0  0  0
 14 12  1  1  0  0  0
 14 18  1  0  0  0  0
 14 16  1  0  0  0  0
 15 16  1  0  0  0  0
 15 21  1  1  0  0  0
 16 19  1  1  0  0  0
 17 16  1  0  0  0  0
 18 20  1  0  0  0  0
 20 15  1  0  0  0  0
 22 24  1  0  0  0  0
 23 25  2  0  0  0  0
 25 21  1  0  0  0  0
 25 22  1  0  0  0  0
 26 27  1  0  0  0  0
 28 27  1  1  0  0  0
 28 36  1  0  0  0  0
 29 28  1  1  0  0  0
 29 31  1  0  0  0  0
 30 33  1  0  0  0  0
 33 31  1  0  0  0  0
 33 32  1  0  0  0  0
 34 30  1  0  0  0  0
 35 34  1  0  0  0  0
 35 29  1  0  0  0  0
 37 40  1  1  0  0  0
 38 37  1  0  0  0  0
 39 36  1  6  0  0  0
 39 38  1  0  0  0  0
 39 37  1  0  0  0  0
 40 44  1  0  0  0  0
 41 43  1  0  0  0  0
 42 48  1  0  0  0  0
 42 43  2  0  0  0  0
 43 47  1  0  0  0  0
 44 41  1  0  0  0  0
 45 44  2  0  0  0  0
 45 42  1  0  0  0  0
 47 46  3  0  0  0  0
 49 48  1  0  0  0  0
M  END
>  <MODEL>
5

>  <REMARK>
 VINA RESULT:      -7.3      4.209      6.588
  Name = 
  15 active torsions:
  status: ('A' for Active; 'I' for Inactive)
    1  A    between atoms: C_1  and  C_10
    2  A    between atoms: N_4  and  C_39
    3  A    between atoms: N_4  and  N_48
    4  A    between atoms: C_8  and  C_29
    5  A    between atoms: C_8  and  C_37
    6  A    between atoms: C_10  and  O_17
    7  A    between atoms: C_10  and  C_39
    8  A    between atoms: N_12  and  C_31
    9  A    between atoms: C_14  and  C_34
   10  A    between atoms: O_17  and  C_40
   11  A    between atoms: C_18  and  S_24
   12  A    between atoms: C_19  and  N_32
   13  A    between atoms: S_24  and  C_35
   14  A    between atoms: N_32  and  C_38
   15  A    between atoms: C_46  and  N_48
                            x       y       z     vdW  Elec       q    Type
                         _______ _______ _______ _____ _____    ______ ____

>  <TORSDO>
F 15

$$$$
=
 OpenBabel11032419413D

 49 55  0  0  1  0  0  0  0  0999 V2000
  182.4770  178.3660  142.4770 N   0  0  0  0  0  2  0  0  0  0  0  0
  183.0310  177.1540  139.0120 C   0  0  0  0  0  0  0  0  0  0  0  0
  182.6920  177.9900  136.8920 N   0  0  0  0  0  2  0  0  0  0  0  0
  182.1290  179.3840  138.8850 C   0  0  0  0  0  3  0  0  0  0  0  0
  183.0030  177.1710  140.4070 C   0  0  0  0  0  3  0  0  0  0  0  0
  182.6040  178.2230  138.2810 C   0  0  0  0  0  0  0  0  0  0  0  0
  183.2230  176.6390  136.7010 C   0  0  2  0  0  3  0  0  0  0  0  0
  183.4750  176.0600  138.1110 C   0  0  0  0  0  2  0  0  0  0  0  0
  182.0920  179.4300  140.2870 C   0  0  0  0  0  3  0  0  0  0  0  0
  182.5230  178.3250  141.0520 C   0  0  0  0  0  0  0  0  0  0  0  0
  184.7950  176.7170  135.7950 S   0  0  0  0  0  0  0  0  0  0  0  0
  186.5040  178.1070  137.4210 C   0  0  0  0  0  2  0  0  0  0  0  0
  185.8290  176.7290  137.2890 C   0  0  2  0  0  3  0  0  0  0  0  0
  187.8750  177.7600  137.7200 N   0  0  1  0  0  0  0  0  0  0  0  0
  189.5740  176.3030  137.2320 C   0  0  2  0  0  3  0  0  0  0  0  0
  188.1470  176.6430  136.8580 C   0  0  1  0  0  0  0  0  0  0  0  0
  186.9930  175.7230  137.1470 C   0  0  0  0  0  2  0  0  0  0  0  0
  188.9760  178.6660  137.4710 C   0  0  0  0  0  2  0  0  0  0  0  0
  188.0870  177.0160  135.4970 O   0  0  0  0  0  1  0  0  0  0  0  0
  190.1880  177.7130  137.3710 C   0  0  0  0  0  2  0  0  0  0  0  0
  190.3090  175.4930  136.1670 C   0  0  0  0  0  2  0  0  0  0  0  0
  192.5200  174.5190  136.9660 N   0  0  0  0  0  2  0  0  0  0  0  0
  190.5230  173.3690  137.2220 O   0  0  0  0  0  0  0  0  0  0  0  0
  193.2670  175.6710  136.4910 C   0  0  0  0  0  1  0  0  0  0  0  0
  191.1080  174.3980  136.7970 C   0  0  0  0  0  0  0  0  0  0  0  0
  182.5970  179.5770  143.1740 N   0  0  0  0  0  2  0  0  0  0  0  0
  183.9860  179.7100  143.5790 C   0  0  0  0  0  2  0  0  0  0  0  0
  184.6650  178.3430  143.5860 C   0  0  1  0  0  3  0  0  0  0  0  0
  186.1080  178.4740  143.0880 C   0  0  1  0  0  3  0  0  0  0  0  0
  188.2280  177.6420  141.3260 C   0  0  0  0  0  2  0  0  0  0  0  0
  186.8470  177.1400  143.1890 C   0  0  0  0  0  2  0  0  0  0  0  0
  188.8700  176.0070  142.8690 C   0  0  0  0  0  1  0  0  0  0  0  0
  188.2330  177.3050  142.7470 N   0  0  0  0  0  0  0  0  0  0  0  0
  187.5630  178.9970  141.1100 C   0  0  0  0  0  2  0  0  0  0  0  0
  186.1280  178.9430  141.6300 C   0  0  0  0  0  2  0  0  0  0  0  0
  184.6520  177.8300  144.8910 O   0  0  0  0  0  0  0  0  0  0  0  0
  186.0240  177.9520  146.7860 C   0  0  1  0  0  3  0  0  0  0  0  0
  184.9370  178.8320  146.9230 O   0  0  0  0  0  0  0  0  0  0  0  0
  185.4680  178.6890  145.6300 C   0  0  2  0  0  3  0  0  0  0  0  0
  187.2320  178.6080  147.2560 N   0  0  0  0  0  2  0  0  0  0  0  0
  189.3850  177.1030  148.0640 S   0  0  0  0  0  0  0  0  0  0  0  0
  190.4460  177.5250  145.8320 C   0  0  0  0  0  0  0  0  0  0  0  0
  190.6800  176.8440  147.0300 C   0  0  0  0  0  0  0  0  0  0  0  0
  188.5270  178.0740  146.9930 C   0  0  0  0  0  0  0  0  0  0  0  0
  189.2290  178.2140  145.8030 C   0  0  0  0  0  3  0  0  0  0  0  0
  192.6900  175.2970  147.5820 N   0  0  0  0  0  0  0  0  0  0  0  0
  191.7930  175.9860  147.3360 C   0  0  0  0  0  0  0  0  0  0  0  0
  191.3360  177.5460  144.7180 N   0  0  0  0  0  2  0  0  0  0  0  0
  191.6750  178.6910  144.0730 O   0  0  0  0  0  1  0  0  0  0  0  0
  1 26  1  0  0  0  0
  2  5  1  0  0  0  0
  3  6  1  0  0  0  0
  4  9  2  0  0  0  0
  5 10  2  0  0  0  0
  6  4  1  0  0  0  0
  6  2  2  0  0  0  0
  7 11  1  6  0  0  0
  7  3  1  0  0  0  0
  7  8  1  0  0  0  0
  8  2  1  0  0  0  0
  9 10  1  0  0  0  0
 10  1  1  0  0  0  0
 13 11  1  6  0  0  0
 13 12  1  0  0  0  0
 14 12  1  6  0  0  0
 15 21  1  6  0  0  0
 15 20  1  0  0  0  0
 16 19  1  6  0  0  0
 16 17  1  0  0  0  0
 16 15  1  0  0  0  0
 16 14  1  0  0  0  0
 17 13  1  0  0  0  0
 18 14  1  0  0  0  0
 20 18  1  0  0  0  0
 21 25  1  0  0  0  0
 24 22  1  0  0  0  0
 25 22  1  0  0  0  0
 25 23  2  0  0  0  0
 26 27  1  0  0  0  0
 28 27  1  1  0  0  0
 28 36  1  0  0  0  0
 29 31  1  0  0  0  0
 29 28  1  6  0  0  0
 30 33  1  0  0  0  0
 33 32  1  0  0  0  0
 33 31  1  0  0  0  0
 34 30  1  0  0  0  0
 34 35  1  0  0  0  0
 35 29  1  0  0  0  0
 37 38  1  0  0  0  0
 37 40  1  1  0  0  0
 39 36  1  6  0  0  0
 39 37  1  0  0  0  0
 39 38  1  0  0  0  0
 42 43  2  0  0  0  0
 43 47  1  0  0  0  0
 43 41  1  0  0  0  0
 44 40  1  0  0  0  0
 44 41  1  0  0  0  0
 45 42  1  0  0  0  0
 45 44  2  0  0  0  0
 47 46  3  0  0  0  0
 48 42  1  0  0  0  0
 49 48  1  0  0  0  0
M  END
>  <MODEL>
6

>  <REMARK>
 VINA RESULT:      -7.2      2.310      5.289
  Name = 
  15 active torsions:
  status: ('A' for Active; 'I' for Inactive)
    1  A    between atoms: C_1  and  C_10
    2  A    between atoms: N_4  and  C_39
    3  A    between atoms: N_4  and  N_48
    4  A    between atoms: C_8  and  C_29
    5  A    between atoms: C_8  and  C_37
    6  A    between atoms: C_10  and  O_17
    7  A    between atoms: C_10  and  C_39
    8  A    between atoms: N_12  and  C_31
    9  A    between atoms: C_14  and  C_34
   10  A    between atoms: O_17  and  C_40
   11  A    between atoms: C_18  and  S_24
   12  A    between atoms: C_19  and  N_32
   13  A    between atoms: S_24  and  C_35
   14  A    between atoms: N_32  and  C_38
   15  A    between atoms: C_46  and  N_48
                            x       y       z     vdW  Elec       q    Type
                         _______ _______ _______ _____ _____    ______ ____

>  <TORSDO>
F 15

$$$$
=
 OpenBabel11032419413D

 49 55  0  0  1  0  0  0  0  0999 V2000
  186.5180  178.6360  142.9340 N   0  0  0  0  0  2  0  0  0  0  0  0
  183.0540  178.9150  141.6260 C   0  0  0  0  0  0  0  0  0  0  0  0
  180.9420  179.0100  142.5420 N   0  0  0  0  0  2  0  0  0  0  0  0
  182.9400  178.8660  144.0320 C   0  0  0  0  0  3  0  0  0  0  0  0
  184.4460  178.8190  141.6440 C   0  0  0  0  0  3  0  0  0  0  0  0
  182.3310  178.9340  142.7820 C   0  0  0  0  0  0  0  0  0  0  0  0
  180.7430  179.0400  141.0920 C   0  0  2  0  0  3  0  0  0  0  0  0
  182.1490  178.9940  140.4530 C   0  0  0  0  0  2  0  0  0  0  0  0
  184.3390  178.7710  144.0790 C   0  0  0  0  0  3  0  0  0  0  0  0
  185.0960  178.7430  142.8890 C   0  0  0  0  0  0  0  0  0  0  0  0
  179.9170  180.5860  140.6160 S   0  0  0  0  0  0  0  0  0  0  0  0
  179.9010  178.6670  138.6630 C   0  0  0  0  0  2  0  0  0  0  0  0
  179.0850  179.8720  139.1670 C   0  0  2  0  0  3  0  0  0  0  0  0
  179.9530  178.8960  137.2360 N   0  0  1  0  0  0  0  0  0  0  0  0
  180.1840  180.4990  135.6160 C   0  0  2  0  0  3  0  0  0  0  0  0
  180.1690  180.3120  137.1190 C   0  0  1  0  0  0  0  0  0  0  0  0
  179.0860  180.8790  137.9940 C   0  0  0  0  0  2  0  0  0  0  0  0
  180.9800  178.3170  136.3960 C   0  0  0  0  0  2  0  0  0  0  0  0
  181.4190  180.6880  137.6580 O   0  0  0  0  0  1  0  0  0  0  0  0
  180.9910  179.2590  135.1710 C   0  0  0  0  0  2  0  0  0  0  0  0
  180.8740  181.7850  135.1680 C   0  0  0  0  0  2  0  0  0  0  0  0
  180.2400  184.0020  136.2450 N   0  0  0  0  0  2  0  0  0  0  0  0
  178.9310  183.0360  134.5940 O   0  0  0  0  0  0  0  0  0  0  0  0
  181.3950  183.9720  137.1250 C   0  0  0  0  0  1  0  0  0  0  0  0
  179.9540  182.9540  135.3200 C   0  0  0  0  0  0  0  0  0  0  0  0
  187.1960  177.6440  142.2140 N   0  0  0  0  0  2  0  0  0  0  0  0
  188.0860  176.9650  143.1400 C   0  0  0  0  0  2  0  0  0  0  0  0
  189.4480  177.6540  143.1620 C   0  0  1  0  0  3  0  0  0  0  0  0
  189.9360  177.8000  144.6060 C   0  0  1  0  0  3  0  0  0  0  0  0
  190.1910  176.7510  147.2760 C   0  0  0  0  0  2  0  0  0  0  0  0
  188.7790  177.6530  145.5950 C   0  0  0  0  0  2  0  0  0  0  0  0
  188.1240  177.6850  147.8410 C   0  0  0  0  0  1  0  0  0  0  0  0
  189.2680  177.8380  146.9620 N   0  0  0  0  0  0  0  0  0  0  0  0
  191.4250  176.8370  146.3830 C   0  0  0  0  0  2  0  0  0  0  0  0
  190.9960  176.7410  144.9210 C   0  0  0  0  0  2  0  0  0  0  0  0
  190.3610  176.8910  142.4200 O   0  0  0  0  0  0  0  0  0  0  0  0
  191.1720  176.6900  140.2310 C   0  0  1  0  0  3  0  0  0  0  0  0
  191.8930  177.6810  140.9220 O   0  0  0  0  0  0  0  0  0  0  0  0
  190.5220  177.5810  141.2170 C   0  0  2  0  0  3  0  0  0  0  0  0
  190.8930  177.1560  138.8840 N   0  0  0  0  0  2  0  0  0  0  0  0
  189.3500  175.6860  137.1490 S   0  0  0  0  0  0  0  0  0  0  0  0
  187.3840  177.1080  137.7800 C   0  0  0  0  0  0  0  0  0  0  0  0
  187.7150  176.0190  136.9700 C   0  0  0  0  0  0  0  0  0  0  0  0
  189.6360  176.9180  138.2550 C   0  0  0  0  0  0  0  0  0  0  0  0
  188.4620  177.6150  138.5140 C   0  0  0  0  0  3  0  0  0  0  0  0
  186.0960  174.6010  135.5180 N   0  0  0  0  0  0  0  0  0  0  0  0
  186.8190  175.2330  136.1650 C   0  0  0  0  0  0  0  0  0  0  0  0
  186.0840  177.6850  137.8800 N   0  0  0  0  0  2  0  0  0  0  0  0
  185.8560  178.8780  138.4860 O   0  0  0  0  0  1  0  0  0  0  0  0
  2  5  2  0  0  0  0
  2  6  1  0  0  0  0
  3  6  1  0  0  0  0
  4  9  1  0  0  0  0
  5 10  1  0  0  0  0
  6  4  2  0  0  0  0
  7 11  1  1  0  0  0
  7  3  1  0  0  0  0
  8  7  1  0  0  0  0
  8  2  1  0  0  0  0
 10  1  1  0  0  0  0
 10  9  2  0  0  0  0
 12 13  1  0  0  0  0
 13 11  1  1  0  0  0
 14 18  1  1  0  0  0
 14 12  1  0  0  0  0
 15 21  1  1  0  0  0
 15 16  1  0  0  0  0
 16 14  1  0  0  0  0
 16 19  1  1  0  0  0
 16 17  1  0  0  0  0
 17 13  1  0  0  0  0
 20 15  1  0  0  0  0
 20 18  1  0  0  0  0
 21 25  1  0  0  0  0
 22 24  1  0  0  0  0
 23 25  2  0  0  0  0
 25 22  1  0  0  0  0
 26  1  1  0  0  0  0
 26 27  1  0  0  0  0
 28 27  1  1  0  0  0
 29 28  1  6  0  0  0
 29 35  1  0  0  0  0
 29 31  1  0  0  0  0
 31 33  1  0  0  0  0
 33 30  1  0  0  0  0
 33 32  1  0  0  0  0
 34 30  1  0  0  0  0
 35 34  1  0  0  0  0
 36 28  1  0  0  0  0
 37 40  1  6  0  0  0
 37 38  1  0  0  0  0
 37 39  1  0  0  0  0
 38 39  1  0  0  0  0
 39 36  1  1  0  0  0
 41 44  1  0  0  0  0
 42 48  1  0  0  0  0
 42 45  1  0  0  0  0
 43 41  1  0  0  0  0
 43 42  2  0  0  0  0
 44 45  2  0  0  0  0
 44 40  1  0  0  0  0
 46 47  3  0  0  0  0
 47 43  1  0  0  0  0
 48 49  1  0  0  0  0
M  END
>  <MODEL>
7

>  <REMARK>
 VINA RESULT:      -7.1      3.786      8.964
  Name = 
  15 active torsions:
  status: ('A' for Active; 'I' for Inactive)
    1  A    between atoms: C_1  and  C_10
    2  A    between atoms: N_4  and  C_39
    3  A    between atoms: N_4  and  N_48
    4  A    between atoms: C_8  and  C_29
    5  A    between atoms: C_8  and  C_37
    6  A    between atoms: C_10  and  O_17
    7  A    between atoms: C_10  and  C_39
    8  A    between atoms: N_12  and  C_31
    9  A    between atoms: C_14  and  C_34
   10  A    between atoms: O_17  and  C_40
   11  A    between atoms: C_18  and  S_24
   12  A    between atoms: C_19  and  N_32
   13  A    between atoms: S_24  and  C_35
   14  A    between atoms: N_32  and  C_38
   15  A    between atoms: C_46  and  N_48
                            x       y       z     vdW  Elec       q    Type
                         _______ _______ _______ _____ _____    ______ ____

>  <TORSDO>
F 15

$$$$
=
 OpenBabel11032419413D

 49 55  0  0  1  0  0  0  0  0999 V2000
  188.3530  174.3730  136.5480 N   0  0  0  0  0  2  0  0  0  0  0  0
  184.7130  174.4390  135.8240 C   0  0  0  0  0  0  0  0  0  0  0  0
  182.8450  173.3550  136.6280 N   0  0  0  0  0  2  0  0  0  0  0  0
  185.0870  172.8700  137.6130 C   0  0  0  0  0  3  0  0  0  0  0  0
  186.0720  174.7410  135.7410 C   0  0  0  0  0  3  0  0  0  0  0  0
  184.2420  173.5320  136.7270 C   0  0  0  0  0  0  0  0  0  0  0  0
  182.3620  174.2270  135.5560 C   0  0  2  0  0  3  0  0  0  0  0  0
  183.5950  174.9800  135.0100 C   0  0  0  0  0  2  0  0  0  0  0  0
  186.4600  173.1560  137.5530 C   0  0  0  0  0  3  0  0  0  0  0  0
  186.9580  174.0870  136.6170 C   0  0  0  0  0  0  0  0  0  0  0  0
  181.1750  175.4270  136.2270 S   0  0  0  0  0  0  0  0  0  0  0  0
  180.4720  175.5800  138.8690 C   0  0  0  0  0  2  0  0  0  0  0  0
  181.6370  175.1410  137.9620 C   0  0  2  0  0  3  0  0  0  0  0  0
  181.1440  176.3530  139.8910 N   0  0  1  0  0  0  0  0  0  0  0  0
  182.8150  177.8710  140.2800 C   0  0  2  0  0  3  0  0  0  0  0  0
  182.1260  177.1090  139.1650 C   0  0  1  0  0  0  0  0  0  0  0  0
  182.8230  176.0480  138.3600 C   0  0  0  0  0  2  0  0  0  0  0  0
  180.4560  177.3480  140.6860 C   0  0  0  0  0  2  0  0  0  0  0  0
  181.5190  178.0190  138.2720 O   0  0  0  0  0  1  0  0  0  0  0  0
  181.6080  178.2620  141.1600 C   0  0  0  0  0  2  0  0  0  0  0  0
  183.5620  179.1120  139.7990 C   0  0  0  0  0  2  0  0  0  0  0  0
  186.0490  178.6800  139.4760 N   0  0  0  0  0  2  0  0  0  0  0  0
  185.2110  179.5200  141.4680 O   0  0  0  0  0  0  0  0  0  0  0  0
  185.8480  178.1780  138.1280 C   0  0  0  0  0  1  0  0  0  0  0  0
  184.9690  179.1060  140.3050 C   0  0  0  0  0  0  0  0  0  0  0  0
  188.8240  175.5730  135.9980 N   0  0  0  0  0  2  0  0  0  0  0  0
  190.2720  175.4800  135.9230 C   0  0  0  0  0  2  0  0  0  0  0  0
  190.8940  175.8760  137.2590 C   0  0  1  0  0  3  0  0  0  0  0  0
  192.4010  176.0930  137.0910 C   0  0  1  0  0  3  0  0  0  0  0  0
  195.0000  175.1020  136.3470 C   0  0  0  0  0  2  0  0  0  0  0  0
  193.1970  175.0610  137.8890 C   0  0  0  0  0  2  0  0  0  0  0  0
  195.3210  174.3080  138.5220 C   0  0  0  0  0  1  0  0  0  0  0  0
  194.6310  175.3190  137.7430 N   0  0  0  0  0  0  0  0  0  0  0  0
  194.3050  176.1260  135.4560 C   0  0  0  0  0  2  0  0  0  0  0  0
  192.7930  175.9880  135.6140 C   0  0  0  0  0  2  0  0  0  0  0  0
  190.2860  177.0540  137.7180 O   0  0  0  0  0  0  0  0  0  0  0  0
  189.9800  177.4700  140.0020 C   0  0  1  0  0  3  0  0  0  0  0  0
  190.4110  176.1460  139.8090 O   0  0  0  0  0  0  0  0  0  0  0  0
  189.5440  176.6720  138.8360 C   0  0  2  0  0  3  0  0  0  0  0  0
  188.9320  177.4880  141.0090 N   0  0  0  0  0  2  0  0  0  0  0  0
  190.7300  176.9290  143.0100 S   0  0  0  0  0  0  0  0  0  0  0  0
  188.9380  177.4400  144.6870 C   0  0  0  0  0  0  0  0  0  0  0  0
  190.2820  177.0640  144.6210 C   0  0  0  0  0  0  0  0  0  0  0  0
  189.2230  177.3500  142.3970 C   0  0  0  0  0  0  0  0  0  0  0  0
  188.3370  177.6110  143.4350 C   0  0  0  0  0  3  0  0  0  0  0  0
  191.9190  176.7520  146.6110 N   0  0  0  0  0  0  0  0  0  0  0  0
  191.1890  176.8920  145.7240 C   0  0  0  0  0  0  0  0  0  0  0  0
  188.2050  177.6400  145.8940 N   0  0  0  0  0  2  0  0  0  0  0  0
  186.8800  177.3670  146.0000 O   0  0  0  0  0  1  0  0  0  0  0  0
  1 10  1  0  0  0  0
  2  6  1  0  0  0  0
  3  6  1  0  0  0  0
  5  2  2  0  0  0  0
  5 10  1  0  0  0  0
  6  4  2  0  0  0  0
  7 11  1  1  0  0  0
  7  3  1  0  0  0  0
  8  7  1  0  0  0  0
  8  2  1  0  0  0  0
  9  4  1  0  0  0  0
 10  9  2  0  0  0  0
 13 11  1  6  0  0  0
 13 17  1  0  0  0  0
 13 12  1  0  0  0  0
 14 12  1  6  0  0  0
 14 18  1  0  0  0  0
 15 21  1  6  0  0  0
 15 20  1  0  0  0  0
 16 19  1  6  0  0  0
 16 14  1  0  0  0  0
 16 15  1  0  0  0  0
 17 16  1  0  0  0  0
 18 20  1  0  0  0  0
 21 25  1  0  0  0  0
 22 25  1  0  0  0  0
 24 22  1  0  0  0  0
 25 23  2  0  0  0  0
 26  1  1  0  0  0  0
 27 26  1  0  0  0  0
 28 27  1  6  0  0  0
 28 36  1  0  0  0  0
 29 28  1  6  0  0  0
 29 31  1  0  0  0  0
 30 33  1  0  0  0  0
 33 31  1  0  0  0  0
 33 32  1  0  0  0  0
 34 35  1  0  0  0  0
 34 30  1  0  0  0  0
 35 29  1  0  0  0  0
 37 40  1  1  0  0  0
 38 37  1  0  0  0  0
 39 36  1  6  0  0  0
 39 38  1  0  0  0  0
 39 37  1  0  0  0  0
 40 44  1  0  0  0  0
 41 43  1  0  0  0  0
 42 48  1  0  0  0  0
 43 42  2  0  0  0  0
 43 47  1  0  0  0  0
 44 41  1  0  0  0  0
 44 45  2  0  0  0  0
 45 42  1  0  0  0  0
 47 46  3  0  0  0  0
 48 49  1  0  0  0  0
M  END
>  <MODEL>
8

>  <REMARK>
 VINA RESULT:      -7.0      3.024      8.499
  Name = 
  15 active torsions:
  status: ('A' for Active; 'I' for Inactive)
    1  A    between atoms: C_1  and  C_10
    2  A    between atoms: N_4  and  C_39
    3  A    between atoms: N_4  and  N_48
    4  A    between atoms: C_8  and  C_29
    5  A    between atoms: C_8  and  C_37
    6  A    between atoms: C_10  and  O_17
    7  A    between atoms: C_10  and  C_39
    8  A    between atoms: N_12  and  C_31
    9  A    between atoms: C_14  and  C_34
   10  A    between atoms: O_17  and  C_40
   11  A    between atoms: C_18  and  S_24
   12  A    between atoms: C_19  and  N_32
   13  A    between atoms: S_24  and  C_35
   14  A    between atoms: N_32  and  C_38
   15  A    between atoms: C_46  and  N_48
                            x       y       z     vdW  Elec       q    Type
                         _______ _______ _______ _____ _____    ______ ____

>  <TORSDO>
F 15

$$$$
=
 OpenBabel11032419413D

 49 55  0  0  1  0  0  0  0  0999 V2000
  186.6250  178.5800  143.9250 N   0  0  0  0  0  2  0  0  0  0  0  0
  183.3630  178.3510  142.1690 C   0  0  0  0  0  0  0  0  0  0  0  0
  181.1770  178.8900  142.6610 N   0  0  0  0  0  2  0  0  0  0  0  0
  182.9790  179.3580  144.3240 C   0  0  0  0  0  3  0  0  0  0  0  0
  184.7310  178.2360  142.4140 C   0  0  0  0  0  3  0  0  0  0  0  0
  182.5200  178.8900  143.0960 C   0  0  0  0  0  0  0  0  0  0  0  0
  181.1430  178.2900  141.3250 C   0  0  2  0  0  3  0  0  0  0  0  0
  182.6020  177.9350  140.9640 C   0  0  0  0  0  2  0  0  0  0  0  0
  184.3520  179.2560  144.5960 C   0  0  0  0  0  3  0  0  0  0  0  0
  185.2310  178.6930  143.6470 C   0  0  0  0  0  0  0  0  0  0  0  0
  180.5040  179.4960  140.1250 S   0  0  0  0  0  0  0  0  0  0  0  0
  179.1200  177.1510  140.4110 C   0  0  0  0  0  2  0  0  0  0  0  0
  179.1180  178.4520  139.5860 C   0  0  2  0  0  3  0  0  0  0  0  0
  178.9360  176.1360  139.3970 N   0  0  1  0  0  0  0  0  0  0  0  0
  179.5100  175.5020  137.2720 C   0  0  2  0  0  3  0  0  0  0  0  0
  179.7630  176.5780  138.3090 C   0  0  1  0  0  0  0  0  0  0  0  0
  179.3200  178.0020  138.1220 C   0  0  0  0  0  2  0  0  0  0  0  0
  179.3340  174.7590  139.6000 C   0  0  0  0  0  2  0  0  0  0  0  0
  181.1290  176.5810  138.6670 O   0  0  0  0  0  1  0  0  0  0  0  0
  179.5010  174.2350  138.1560 C   0  0  0  0  0  2  0  0  0  0  0  0
  180.5980  175.4140  136.2060 C   0  0  0  0  0  2  0  0  0  0  0  0
  181.0510  173.4260  134.6830 N   0  0  0  0  0  2  0  0  0  0  0  0
  179.0500  174.5930  134.5940 O   0  0  0  0  0  0  0  0  0  0  0  0
  182.3840  173.2360  135.2280 C   0  0  0  0  0  1  0  0  0  0  0  0
  180.1890  174.4770  135.1150 C   0  0  0  0  0  0  0  0  0  0  0  0
  187.5270  178.1240  142.9540 N   0  0  0  0  0  2  0  0  0  0  0  0
  188.4000  177.1540  143.5900 C   0  0  0  0  0  2  0  0  0  0  0  0
  189.8200  177.7080  143.6870 C   0  0  1  0  0  3  0  0  0  0  0  0
  190.2930  177.6820  145.1440 C   0  0  1  0  0  3  0  0  0  0  0  0
  190.4400  176.3630  147.7000 C   0  0  0  0  0  2  0  0  0  0  0  0
  189.1130  177.5100  146.1010 C   0  0  0  0  0  2  0  0  0  0  0  0
  188.4240  177.3640  148.3330 C   0  0  0  0  0  1  0  0  0  0  0  0
  189.5900  177.5310  147.4850 N   0  0  0  0  0  0  0  0  0  0  0  0
  191.6910  176.4600  146.8320 C   0  0  0  0  0  2  0  0  0  0  0  0
  191.2810  176.5330  145.3630 C   0  0  0  0  0  2  0  0  0  0  0  0
  190.6720  176.9300  142.8910 O   0  0  0  0  0  0  0  0  0  0  0  0
  190.0960  176.9070  140.6200 C   0  0  1  0  0  3  0  0  0  0  0  0
  191.4930  176.8450  140.7620 O   0  0  0  0  0  0  0  0  0  0  0  0
  190.8030  177.6370  141.6940 C   0  0  2  0  0  3  0  0  0  0  0  0
  189.7660  177.8170  139.5370 N   0  0  0  0  0  2  0  0  0  0  0  0
  188.3480  176.7720  137.4280 S   0  0  0  0  0  0  0  0  0  0  0  0
  186.3080  177.9480  138.2910 C   0  0  0  0  0  0  0  0  0  0  0  0
  186.7100  177.0960  137.2590 C   0  0  0  0  0  0  0  0  0  0  0  0
  188.5450  177.7070  138.8110 C   0  0  0  0  0  0  0  0  0  0  0  0
  187.3370  178.2890  139.1740 C   0  0  0  0  0  3  0  0  0  0  0  0
  185.2040  176.0320  135.4310 N   0  0  0  0  0  0  0  0  0  0  0  0
  185.8750  176.5060  136.2470 C   0  0  0  0  0  0  0  0  0  0  0  0
  184.9840  178.4490  138.4660 N   0  0  0  0  0  2  0  0  0  0  0  0
  184.7270  179.7470  138.7670 O   0  0  0  0  0  1  0  0  0  0  0  0
  2  5  2  0  0  0  0
  2  6  1  0  0  0  0
  3  6  1  0  0  0  0
  4  9  1  0  0  0  0
  5 10  1  0  0  0  0
  6  4  2  0  0  0  0
  7 11  1  6  0  0  0
  7  3  1  0  0  0  0
  8  7  1  0  0  0  0
  8  2  1  0  0  0  0
 10  1  1  0  0  0  0
 10  9  2  0  0  0  0
 13 11  1  1  0  0  0
 13 12  1  0  0  0  0
 14 18  1  1  0  0  0
 14 12  1  0  0  0  0
 15 21  1  6  0  0  0
 15 20  1  0  0  0  0
 15 16  1  0  0  0  0
 16 19  1  1  0  0  0
 16 14  1  0  0  0  0
 17 16  1  0  0  0  0
 17 13  1  0  0  0  0
 20 18  1  0  0  0  0
 22 25  1  0  0  0  0
 22 24  1  0  0  0  0
 23 25  2  0  0  0  0
 25 21  1  0  0  0  0
 26 27  1  0  0  0  0
 26  1  1  0  0  0  0
 28 27  1  1  0  0  0
 29 28  1  6  0  0  0
 29 35  1  0  0  0  0
 29 31  1  0  0  0  0
 31 33  1  0  0  0  0
 33 30  1  0  0  0  0
 33 32  1  0  0  0  0
 34 30  1  0  0  0  0
 35 34  1  0  0  0  0
 36 28  1  0  0  0  0
 37 40  1  6  0  0  0
 37 38  1  0  0  0  0
 37 39  1  0  0  0  0
 38 39  1  0  0  0  0
 39 36  1  1  0  0  0
 41 44  1  0  0  0  0
 42 48  1  0  0  0  0
 42 45  1  0  0  0  0
 43 41  1  0  0  0  0
 43 42  2  0  0  0  0
 44 45  2  0  0  0  0
 44 40  1  0  0  0  0
 46 47  3  0  0  0  0
 47 43  1  0  0  0  0
 48 49  1  0  0  0  0
M  END
>  <MODEL>
9

>  <REMARK>
 VINA RESULT:      -6.8      3.175      8.439
  Name = 
  15 active torsions:
  status: ('A' for Active; 'I' for Inactive)
    1  A    between atoms: C_1  and  C_10
    2  A    between atoms: N_4  and  C_39
    3  A    between atoms: N_4  and  N_48
    4  A    between atoms: C_8  and  C_29
    5  A    between atoms: C_8  and  C_37
    6  A    between atoms: C_10  and  O_17
    7  A    between atoms: C_10  and  C_39
    8  A    between atoms: N_12  and  C_31
    9  A    between atoms: C_14  and  C_34
   10  A    between atoms: O_17  and  C_40
   11  A    between atoms: C_18  and  S_24
   12  A    between atoms: C_19  and  N_32
   13  A    between atoms: S_24  and  C_35
   14  A    between atoms: N_32  and  C_38
   15  A    between atoms: C_46  and  N_48
                            x       y       z     vdW  Elec       q    Type
                         _______ _______ _______ _____ _____    ______ ____

>  <TORSDO>
F 15

$$$$
