=
 OpenBabel11042410043D

 29 33  0  0  1  0  0  0  0  0999 V2000
  188.8200  179.5180  137.2190 O   0  0  0  0  0  0  0  0  0  0  0  0
  187.5880  177.1270  144.6080 C   0  0  0  0  0  2  0  0  0  0  0  0
  187.5590  177.6750  138.0490 C   0  0  1  0  0  3  0  0  0  0  0  0
  187.2440  178.6800  141.0760 C   0  0  2  0  0  3  0  0  0  0  0  0
  186.0170  178.9680  145.3350 C   0  0  0  0  0  2  0  0  0  0  0  0
  186.2510  177.8920  138.7480 C   0  0  0  0  0  0  0  0  0  0  0  0
  188.6860  178.3760  140.6820 C   0  0  0  0  0  2  0  0  0  0  0  0
  182.6820  178.4650  140.7510 C   0  0  0  0  0  0  0  0  0  0  0  0
  187.1550  177.0260  143.1410 C   0  0  1  0  0  3  0  0  0  0  0  0
  189.0560  179.1290  139.4970 N   0  0  0  0  0  2  0  0  0  0  0  0
  185.0900  179.0810  144.1650 C   0  0  0  0  0  3  0  0  0  0  0  0
  186.4310  177.5130  145.5330 C   0  0  0  0  0  2  0  0  0  0  0  0
  184.8450  178.4180  140.6090 C   0  0  0  0  0  0  0  0  0  0  0  0
  186.9180  178.4480  142.5880 C   0  0  2  0  0  3  0  0  0  0  0  0
  183.7890  177.8390  138.5370 C   0  0  0  0  0  3  0  0  0  0  0  0
  185.0740  177.6720  137.9820 C   0  0  0  0  0  3  0  0  0  0  0  0
  188.5010  178.8230  138.2190 C   0  0  0  0  0  0  0  0  0  0  0  0
  188.1420  176.4870  138.4510 F   0  0  0  0  0  0  0  0  0  0  0  0
  186.1340  178.2530  140.1260 C   0  0  0  0  0  0  0  0  0  0  0  0
  183.7250  178.2290  139.8690 C   0  0  0  0  0  0  0  0  0  0  0  0
  183.1930  178.7760  141.9710 N   0  0  0  0  0  0  0  0  0  0  0  0
  185.4870  178.8530  142.9060 C   0  0  0  0  0  0  0  0  0  0  0  0
  184.5170  178.7530  141.8570 N   0  0  0  0  0  0  0  0  0  0  0  0
  180.6200  179.2280  139.2450 O   0  0  0  0  0  0  0  0  0  0  0  0
  180.9670  178.3310  140.3990 S   0  0  0  0  0  0  0  0  0  0  0  0
  180.0260  178.8140  141.8250 C   0  0  0  0  0  1  0  0  0  0  0  0
  180.6320  176.9070  140.0550 O   0  0  0  0  0  0  0  0  0  0  0  0
  189.1540  176.0900  143.3410 C   0  0  0  0  0  1  0  0  0  0  0  0
  188.1240  176.3190  142.4260 O   0  0  0  0  0  0  0  0  0  0  0  0
  1 17  2  0  0  0  0
  2 12  1  0  0  0  0
  3 17  1  0  0  0  0
  3 18  1  1  0  0  0
  3  6  1  0  0  0  0
  4  7  1  6  0  0  0
  4 14  1  0  0  0  0
  5 12  1  0  0  0  0
  6 19  1  0  0  0  0
  8 21  2  0  0  0  0
  9 29  1  6  0  0  0
  9  2  1  0  0  0  0
 10  7  1  0  0  0  0
 11  5  1  0  0  0  0
 13 23  1  0  0  0  0
 14 22  1  6  0  0  0
 14  9  1  0  0  0  0
 15 20  2  0  0  0  0
 16 15  1  0  0  0  0
 16  6  2  0  0  0  0
 17 10  1  0  0  0  0
 19 13  2  0  0  0  0
 19  4  1  0  0  0  0
 20 13  1  0  0  0  0
 20  8  1  0  0  0  0
 22 11  2  0  0  0  0
 23 21  1  0  0  0  0
 23 22  1  0  0  0  0
 24 25  2  0  0  0  0
 25  8  1  0  0  0  0
 25 26  1  0  0  0  0
 27 25  2  0  0  0  0
 29 28  1  0  0  0  0
M  END
>  <MODEL>
1

>  <REMARK>
 VINA RESULT:      -7.4      0.000      0.000
  Name = 
  2 active torsions:
  status: ('A' for Active; 'I' for Inactive)
    1  A    between atoms: S_4  and  C_10
    2  A    between atoms: C_11  and  O_28
                            x       y       z     vdW  Elec       q    Type
                         _______ _______ _______ _____ _____    ______ ____

>  <TORSDO>
F 2

$$$$
=
 OpenBabel11042410043D

 29 33  0  0  1  0  0  0  0  0999 V2000
  179.2700  181.3990  141.7180 O   0  0  0  0  0  0  0  0  0  0  0  0
  184.0860  176.9090  137.4200 C   0  0  0  0  0  2  0  0  0  0  0  0
  180.1160  179.2120  142.1380 C   0  0  1  0  0  3  0  0  0  0  0  0
  182.5710  179.2830  140.0790 C   0  0  2  0  0  3  0  0  0  0  0  0
  186.2300  178.1850  137.8140 C   0  0  0  0  0  2  0  0  0  0  0  0
  181.5530  179.0030  142.5100 C   0  0  0  0  0  0  0  0  0  0  0  0
  181.2060  179.3500  139.4020 C   0  0  0  0  0  2  0  0  0  0  0  0
  185.5280  178.3890  143.4580 C   0  0  0  0  0  0  0  0  0  0  0  0
  183.4310  177.1400  138.7860 C   0  0  1  0  0  3  0  0  0  0  0  0
  180.4270  180.4500  139.9420 N   0  0  0  0  0  2  0  0  0  0  0  0
  186.1800  178.4520  139.2860 C   0  0  0  0  0  3  0  0  0  0  0  0
  185.6100  176.8240  137.5100 C   0  0  0  0  0  2  0  0  0  0  0  0
  183.8930  178.7530  142.0830 C   0  0  0  0  0  0  0  0  0  0  0  0
  183.6890  178.5970  139.2280 C   0  0  2  0  0  3  0  0  0  0  0  0
  183.1460  178.5900  144.3550 C   0  0  0  0  0  3  0  0  0  0  0  0
  181.8330  178.8030  143.8890 C   0  0  0  0  0  3  0  0  0  0  0  0
  179.9130  180.4140  141.2720 C   0  0  0  0  0  0  0  0  0  0  0  0
  179.5900  178.0770  141.5480 F   0  0  0  0  0  0  0  0  0  0  0  0
  182.6220  178.9490  141.5630 C   0  0  0  0  0  0  0  0  0  0  0  0
  184.1570  178.5840  143.4020 C   0  0  0  0  0  0  0  0  0  0  0  0
  186.0370  178.4380  142.1990 N   0  0  0  0  0  0  0  0  0  0  0  0
  185.0300  178.6480  139.9440 C   0  0  0  0  0  0  0  0  0  0  0  0
  185.0200  178.6730  141.3760 N   0  0  0  0  0  0  0  0  0  0  0  0
  186.2700  179.1690  145.8960 O   0  0  0  0  0  0  0  0  0  0  0  0
  186.4780  178.0650  144.8990 S   0  0  0  0  0  0  0  0  0  0  0  0
  188.1990  177.9740  144.4710 C   0  0  0  0  0  1  0  0  0  0  0  0
  186.0560  176.7530  145.4970 O   0  0  0  0  0  0  0  0  0  0  0  0
  181.9130  175.6700  139.4590 C   0  0  0  0  0  1  0  0  0  0  0  0
  182.0710  176.8310  138.6990 O   0  0  0  0  0  0  0  0  0  0  0  0
  2 12  1  0  0  0  0
  2  9  1  0  0  0  0
  3 18  1  6  0  0  0
  3  6  1  0  0  0  0
  4  7  1  6  0  0  0
  4 19  1  0  0  0  0
  5 11  1  0  0  0  0
  6 16  1  0  0  0  0
  7 10  1  0  0  0  0
  8 25  1  0  0  0  0
  9 29  1  6  0  0  0
  9 14  1  0  0  0  0
 10 17  1  0  0  0  0
 11 22  2  0  0  0  0
 12  5  1  0  0  0  0
 13 20  2  0  0  0  0
 14 22  1  1  0  0  0
 14  4  1  0  0  0  0
 16 15  2  0  0  0  0
 17  1  2  0  0  0  0
 17  3  1  0  0  0  0
 19 13  1  0  0  0  0
 19  6  2  0  0  0  0
 20  8  1  0  0  0  0
 20 15  1  0  0  0  0
 21  8  2  0  0  0  0
 22 23  1  0  0  0  0
 23 13  1  0  0  0  0
 23 21  1  0  0  0  0
 25 27  2  0  0  0  0
 25 24  2  0  0  0  0
 26 25  1  0  0  0  0
 29 28  1  0  0  0  0
M  END
>  <MODEL>
2

>  <REMARK>
 VINA RESULT:      -7.1      3.148      6.815
  Name = 
  2 active torsions:
  status: ('A' for Active; 'I' for Inactive)
    1  A    between atoms: S_4  and  C_10
    2  A    between atoms: C_11  and  O_28
                            x       y       z     vdW  Elec       q    Type
                         _______ _______ _______ _____ _____    ______ ____

>  <TORSDO>
F 2

$$$$
=
 OpenBabel11042410043D

 29 33  0  0  1  0  0  0  0  0999 V2000
  186.8510  179.7710  136.4950 O   0  0  0  0  0  0  0  0  0  0  0  0
  192.2700  174.0800  136.7450 C   0  0  0  0  0  2  0  0  0  0  0  0
  187.0250  177.8760  137.9270 C   0  0  1  0  0  3  0  0  0  0  0  0
  190.1250  177.2310  137.4340 C   0  0  2  0  0  3  0  0  0  0  0  0
  194.1720  175.4230  137.7250 C   0  0  0  0  0  2  0  0  0  0  0  0
  188.0700  177.8180  139.0000 C   0  0  0  0  0  0  0  0  0  0  0  0
  189.2600  177.0480  136.1910 C   0  0  0  0  0  2  0  0  0  0  0  0
  190.9910  177.5960  141.9150 C   0  0  0  0  0  0  0  0  0  0  0  0
  191.1080  174.7730  137.4650 C   0  0  1  0  0  3  0  0  0  0  0  0
  188.5180  178.2630  135.9090 N   0  0  0  0  0  2  0  0  0  0  0  0
  193.4940  176.1910  138.8170 C   0  0  0  0  0  3  0  0  0  0  0  0
  193.5420  174.0390  137.5940 C   0  0  0  0  0  2  0  0  0  0  0  0
  190.2630  177.4450  139.8780 C   0  0  0  0  0  0  0  0  0  0  0  0
  191.3750  176.2940  137.5020 C   0  0  2  0  0  3  0  0  0  0  0  0
  188.5370  178.0890  141.4130 C   0  0  0  0  0  3  0  0  0  0  0  0
  187.6430  178.1180  140.3230 C   0  0  0  0  0  3  0  0  0  0  0  0
  187.4510  178.6950  136.7520 C   0  0  0  0  0  0  0  0  0  0  0  0
  186.6470  176.6040  137.5390 F   0  0  0  0  0  0  0  0  0  0  0  0
  189.4280  177.4400  138.7700 C   0  0  0  0  0  0  0  0  0  0  0  0
  189.8560  177.7530  141.1350 C   0  0  0  0  0  0  0  0  0  0  0  0
  192.0230  177.2020  141.1240 N   0  0  0  0  0  0  0  0  0  0  0  0
  192.2220  176.6000  138.7280 C   0  0  0  0  0  0  0  0  0  0  0  0
  191.5570  177.1280  139.8810 N   0  0  0  0  0  0  0  0  0  0  0  0
  192.0560  178.9200  143.9680 O   0  0  0  0  0  0  0  0  0  0  0  0
  191.0990  177.8050  143.6540 S   0  0  0  0  0  0  0  0  0  0  0  0
  191.6800  176.3020  144.4010 C   0  0  0  0  0  1  0  0  0  0  0  0
  189.7410  178.1290  144.2080 O   0  0  0  0  0  0  0  0  0  0  0  0
  190.2310  173.3750  135.9850 C   0  0  0  0  0  1  0  0  0  0  0  0
  189.9120  174.4470  136.8210 O   0  0  0  0  0  0  0  0  0  0  0  0
  1 17  2  0  0  0  0
  2  9  1  0  0  0  0
  2 12  1  0  0  0  0
  3 18  1  6  0  0  0
  3  6  1  0  0  0  0
  4  7  1  6  0  0  0
  4 14  1  0  0  0  0
  4 19  1  0  0  0  0
  5 11  1  0  0  0  0
  6 16  1  0  0  0  0
  8 25  1  0  0  0  0
  9 29  1  6  0  0  0
  9 14  1  0  0  0  0
 10  7  1  0  0  0  0
 10 17  1  0  0  0  0
 12  5  1  0  0  0  0
 13 23  1  0  0  0  0
 13 20  2  0  0  0  0
 14 22  1  1  0  0  0
 16 15  2  0  0  0  0
 17  3  1  0  0  0  0
 19  6  2  0  0  0  0
 19 13  1  0  0  0  0
 20 15  1  0  0  0  0
 20  8  1  0  0  0  0
 21  8  2  0  0  0  0
 22 11  2  0  0  0  0
 22 23  1  0  0  0  0
 23 21  1  0  0  0  0
 25 24  2  0  0  0  0
 25 27  2  0  0  0  0
 25 26  1  0  0  0  0
 28 29  1  0  0  0  0
M  END
>  <MODEL>
3

>  <REMARK>
 VINA RESULT:      -6.8      4.551      7.570
  Name = 
  2 active torsions:
  status: ('A' for Active; 'I' for Inactive)
    1  A    between atoms: S_4  and  C_10
    2  A    between atoms: C_11  and  O_28
                            x       y       z     vdW  Elec       q    Type
                         _______ _______ _______ _____ _____    ______ ____

>  <TORSDO>
F 2

$$$$
=
 OpenBabel11042410043D

 29 33  0  0  1  0  0  0  0  0999 V2000
  183.9170  180.6350  139.0930 O   0  0  0  0  0  0  0  0  0  0  0  0
  189.1440  175.2540  136.7370 C   0  0  0  0  0  2  0  0  0  0  0  0
  184.4760  178.5190  140.0340 C   0  0  1  0  0  3  0  0  0  0  0  0
  187.3050  178.1210  138.5820 C   0  0  2  0  0  3  0  0  0  0  0  0
  191.2550  176.4810  137.3830 C   0  0  0  0  0  2  0  0  0  0  0  0
  185.7820  178.3140  140.7420 C   0  0  0  0  0  0  0  0  0  0  0  0
  186.1210  178.1290  137.6190 C   0  0  0  0  0  2  0  0  0  0  0  0
  189.4070  177.6980  142.6270 C   0  0  0  0  0  0  0  0  0  0  0  0
  188.2390  175.7480  137.8710 C   0  0  1  0  0  3  0  0  0  0  0  0
  185.3390  179.3400  137.7910 N   0  0  0  0  0  2  0  0  0  0  0  0
  190.9200  177.0040  138.7460 C   0  0  0  0  0  3  0  0  0  0  0  0
  190.6040  175.1170  137.1730 C   0  0  0  0  0  2  0  0  0  0  0  0
  188.1300  177.8890  140.8850 C   0  0  0  0  0  0  0  0  0  0  0  0
  188.5160  177.2470  138.1190 C   0  0  2  0  0  3  0  0  0  0  0  0
  186.9150  178.1590  142.9340 C   0  0  0  0  0  3  0  0  0  0  0  0
  185.7490  178.3460  142.1630 C   0  0  0  0  0  3  0  0  0  0  0  0
  184.5570  179.5590  138.9640 C   0  0  0  0  0  0  0  0  0  0  0  0
  183.9940  177.3240  139.5340 F   0  0  0  0  0  0  0  0  0  0  0  0
  187.0170  178.0480  140.0740 C   0  0  0  0  0  0  0  0  0  0  0  0
  188.0990  177.9420  142.2400 C   0  0  0  0  0  0  0  0  0  0  0  0
  190.1700  177.5040  141.5200 N   0  0  0  0  0  0  0  0  0  0  0  0
  189.6780  177.3620  139.0940 C   0  0  0  0  0  0  0  0  0  0  0  0
  189.3700  177.6380  140.4660 N   0  0  0  0  0  0  0  0  0  0  0  0
  190.5000  178.9350  144.7190 O   0  0  0  0  0  0  0  0  0  0  0  0
  190.0050  177.5890  144.2740 S   0  0  0  0  0  0  0  0  0  0  0  0
  191.3370  176.4160  144.3490 C   0  0  0  0  0  1  0  0  0  0  0  0
  188.9000  177.1270  145.1820 O   0  0  0  0  0  0  0  0  0  0  0  0
  186.9320  174.2680  136.8630 C   0  0  0  0  0  1  0  0  0  0  0  0
  186.9060  175.4900  137.5380 O   0  0  0  0  0  0  0  0  0  0  0  0
  2 12  1  0  0  0  0
  2  9  1  0  0  0  0
  3 18  1  6  0  0  0
  3  6  1  0  0  0  0
  4  7  1  6  0  0  0
  4 19  1  0  0  0  0
  5 11  1  0  0  0  0
  6 16  1  0  0  0  0
  7 10  1  0  0  0  0
  8 25  1  0  0  0  0
  9 29  1  6  0  0  0
  9 14  1  0  0  0  0
 10 17  1  0  0  0  0
 11 22  2  0  0  0  0
 12  5  1  0  0  0  0
 13 20  2  0  0  0  0
 14  4  1  0  0  0  0
 14 22  1  1  0  0  0
 16 15  2  0  0  0  0
 17  1  2  0  0  0  0
 17  3  1  0  0  0  0
 19  6  2  0  0  0  0
 19 13  1  0  0  0  0
 20  8  1  0  0  0  0
 20 15  1  0  0  0  0
 21  8  2  0  0  0  0
 22 23  1  0  0  0  0
 23 13  1  0  0  0  0
 23 21  1  0  0  0  0
 25 26  1  0  0  0  0
 25 24  2  0  0  0  0
 25 27  2  0  0  0  0
 28 29  1  0  0  0  0
M  END
>  <MODEL>
4

>  <REMARK>
 VINA RESULT:      -6.6      3.196      6.653
  Name = 
  2 active torsions:
  status: ('A' for Active; 'I' for Inactive)
    1  A    between atoms: S_4  and  C_10
    2  A    between atoms: C_11  and  O_28
                            x       y       z     vdW  Elec       q    Type
                         _______ _______ _______ _____ _____    ______ ____

>  <TORSDO>
F 2

$$$$
=
 OpenBabel11042410043D

 29 33  0  0  1  0  0  0  0  0999 V2000
  183.1490  178.0030  145.2770 O   0  0  0  0  0  0  0  0  0  0  0  0
  190.9360  177.0140  145.7370 C   0  0  0  0  0  2  0  0  0  0  0  0
  184.9230  179.3840  144.4910 C   0  0  1  0  0  3  0  0  0  0  0  0
  187.2550  177.1850  144.5450 C   0  0  2  0  0  3  0  0  0  0  0  0
  191.1740  175.1570  144.0410 C   0  0  0  0  0  2  0  0  0  0  0  0
  185.7460  178.9780  143.3060 C   0  0  0  0  0  0  0  0  0  0  0  0
  186.7070  177.5270  145.9270 C   0  0  0  0  0  2  0  0  0  0  0  0
  188.0810  177.8440  140.0900 C   0  0  0  0  0  0  0  0  0  0  0  0
  189.7790  177.7740  145.0800 C   0  0  1  0  0  3  0  0  0  0  0  0
  185.2680  177.3420  145.9610 N   0  0  0  0  0  2  0  0  0  0  0  0
  190.3020  175.6320  142.9200 C   0  0  0  0  0  3  0  0  0  0  0  0
  191.8540  176.3470  144.7110 C   0  0  0  0  0  2  0  0  0  0  0  0
  187.4890  177.7940  142.1750 C   0  0  0  0  0  0  0  0  0  0  0  0
  188.7580  176.7570  144.5260 C   0  0  2  0  0  3  0  0  0  0  0  0
  186.1340  179.2920  140.8840 C   0  0  0  0  0  3  0  0  0  0  0  0
  185.4240  179.5920  142.0650 C   0  0  0  0  0  3  0  0  0  0  0  0
  184.3890  178.2130  145.2510 C   0  0  0  0  0  0  0  0  0  0  0  0
  185.6370  180.2330  145.3170 F   0  0  0  0  0  0  0  0  0  0  0  0
  186.8400  178.0620  143.3710 C   0  0  0  0  0  0  0  0  0  0  0  0
  187.1650  178.3660  140.9890 C   0  0  0  0  0  0  0  0  0  0  0  0
  188.9160  176.9970  140.7470 N   0  0  0  0  0  0  0  0  0  0  0  0
  189.1950  176.3560  143.1250 C   0  0  0  0  0  0  0  0  0  0  0  0
  188.5270  176.9730  142.0180 N   0  0  0  0  0  0  0  0  0  0  0  0
  186.8400  178.4690  137.8160 O   0  0  0  0  0  0  0  0  0  0  0  0
  188.2110  178.2390  138.3840 S   0  0  0  0  0  0  0  0  0  0  0  0
  188.9900  176.8980  137.5190 C   0  0  0  0  0  1  0  0  0  0  0  0
  189.0460  179.4760  138.2160 O   0  0  0  0  0  0  0  0  0  0  0  0
  189.5260  178.0990  147.2580 C   0  0  0  0  0  1  0  0  0  0  0  0
  189.2200  178.6520  146.0130 O   0  0  0  0  0  0  0  0  0  0  0  0
  3 17  1  0  0  0  0
  3 18  1  1  0  0  0
  4  7  1  1  0  0  0
  5 12  1  0  0  0  0
  6 19  1  0  0  0  0
  6  3  1  0  0  0  0
  7 10  1  0  0  0  0
  8 21  2  0  0  0  0
  8 20  1  0  0  0  0
  9  2  1  0  0  0  0
  9 29  1  1  0  0  0
 11 22  2  0  0  0  0
 11  5  1  0  0  0  0
 12  2  1  0  0  0  0
 13 19  2  0  0  0  0
 14 22  1  6  0  0  0
 14  4  1  0  0  0  0
 14  9  1  0  0  0  0
 15 20  2  0  0  0  0
 15 16  1  0  0  0  0
 16  6  2  0  0  0  0
 17  1  2  0  0  0  0
 17 10  1  0  0  0  0
 19  4  1  0  0  0  0
 20 13  1  0  0  0  0
 21 23  1  0  0  0  0
 23 13  1  0  0  0  0
 23 22  1  0  0  0  0
 24 25  2  0  0  0  0
 25  8  1  0  0  0  0
 26 25  1  0  0  0  0
 27 25  2  0  0  0  0
 29 28  1  0  0  0  0
M  END
>  <MODEL>
5

>  <REMARK>
 VINA RESULT:      -6.5      3.546      6.034
  Name = 
  2 active torsions:
  status: ('A' for Active; 'I' for Inactive)
    1  A    between atoms: S_4  and  C_10
    2  A    between atoms: C_11  and  O_28
                            x       y       z     vdW  Elec       q    Type
                         _______ _______ _______ _____ _____    ______ ____

>  <TORSDO>
F 2

$$$$
=
 OpenBabel11042410043D

 29 33  0  0  1  0  0  0  0  0999 V2000
  192.7570  178.8700  144.0390 O   0  0  0  0  0  0  0  0  0  0  0  0
  184.9570  177.8760  144.0320 C   0  0  0  0  0  2  0  0  0  0  0  0
  191.4400  177.0500  143.2460 C   0  0  1  0  0  3  0  0  0  0  0  0
  188.6340  178.5880  143.0450 C   0  0  2  0  0  3  0  0  0  0  0  0
  184.3750  179.5330  142.2160 C   0  0  0  0  0  2  0  0  0  0  0  0
  190.6210  177.1810  141.9970 C   0  0  0  0  0  0  0  0  0  0  0  0
  189.1580  178.4590  144.4730 C   0  0  0  0  0  2  0  0  0  0  0  0
  188.2940  177.5400  138.6020 C   0  0  0  0  0  0  0  0  0  0  0  0
  186.3080  177.4040  143.4830 C   0  0  1  0  0  3  0  0  0  0  0  0
  190.5000  179.0040  144.5700 N   0  0  0  0  0  2  0  0  0  0  0  0
  185.4090  179.2440  141.1720 C   0  0  0  0  0  3  0  0  0  0  0  0
  183.9710  178.2420  142.9200 C   0  0  0  0  0  2  0  0  0  0  0  0
  188.7160  177.8330  140.7080 C   0  0  0  0  0  0  0  0  0  0  0  0
  187.0760  178.6210  142.9220 C   0  0  2  0  0  3  0  0  0  0  0  0
  190.4840  176.6700  139.5820 C   0  0  0  0  0  3  0  0  0  0  0  0
  191.1670  176.6130  140.8140 C   0  0  0  0  0  3  0  0  0  0  0  0
  191.6130  178.3510  143.9610 C   0  0  0  0  0  0  0  0  0  0  0  0
  190.9080  176.0870  144.0840 F   0  0  0  0  0  0  0  0  0  0  0  0
  189.3310  177.7930  141.9500 C   0  0  0  0  0  0  0  0  0  0  0  0
  189.2500  177.3080  139.5770 C   0  0  0  0  0  0  0  0  0  0  0  0
  187.2320  178.1780  139.1610 N   0  0  0  0  0  0  0  0  0  0  0  0
  186.6460  178.8340  141.4790 C   0  0  0  0  0  0  0  0  0  0  0  0
  187.5180  178.3570  140.4480 N   0  0  0  0  0  0  0  0  0  0  0  0
  189.5750  177.6860  136.2690 O   0  0  0  0  0  0  0  0  0  0  0  0
  188.3790  177.0490  136.9180 S   0  0  0  0  0  0  0  0  0  0  0  0
  186.9050  177.5620  136.0710 C   0  0  0  0  0  1  0  0  0  0  0  0
  188.4920  175.5530  136.8350 O   0  0  0  0  0  0  0  0  0  0  0  0
  186.4060  177.1590  145.6840 C   0  0  0  0  0  1  0  0  0  0  0  0
  187.0050  176.7400  144.4950 O   0  0  0  0  0  0  0  0  0  0  0  0
  3 17  1  0  0  0  0
  3 18  1  1  0  0  0
  4  7  1  1  0  0  0
  5 12  1  0  0  0  0
  6  3  1  0  0  0  0
  7 10  1  0  0  0  0
  8 21  2  0  0  0  0
  8 20  1  0  0  0  0
  9  2  1  0  0  0  0
  9 29  1  1  0  0  0
 11 22  2  0  0  0  0
 11  5  1  0  0  0  0
 12  2  1  0  0  0  0
 13 19  2  0  0  0  0
 14 22  1  6  0  0  0
 14  4  1  0  0  0  0
 14  9  1  0  0  0  0
 15 16  1  0  0  0  0
 16  6  2  0  0  0  0
 17  1  2  0  0  0  0
 17 10  1  0  0  0  0
 19  6  1  0  0  0  0
 19  4  1  0  0  0  0
 20 15  2  0  0  0  0
 20 13  1  0  0  0  0
 21 23  1  0  0  0  0
 23 13  1  0  0  0  0
 23 22  1  0  0  0  0
 24 25  2  0  0  0  0
 25  8  1  0  0  0  0
 26 25  1  0  0  0  0
 27 25  2  0  0  0  0
 29 28  1  0  0  0  0
M  END
>  <MODEL>
6

>  <REMARK>
 VINA RESULT:      -5.8      3.547      5.496
  Name = 
  2 active torsions:
  status: ('A' for Active; 'I' for Inactive)
    1  A    between atoms: S_4  and  C_10
    2  A    between atoms: C_11  and  O_28
                            x       y       z     vdW  Elec       q    Type
                         _______ _______ _______ _____ _____    ______ ____

>  <TORSDO>
F 2

$$$$
=
 OpenBabel11042410043D

 29 33  0  0  1  0  0  0  0  0999 V2000
  183.2160  171.7780  137.2040 O   0  0  0  0  0  0  0  0  0  0  0  0
  180.9060  179.2930  137.3230 C   0  0  0  0  0  2  0  0  0  0  0  0
  183.7510  173.5740  135.7340 C   0  0  1  0  0  3  0  0  0  0  0  0
  182.9030  175.9920  137.6600 C   0  0  2  0  0  3  0  0  0  0  0  0
  182.2610  180.0650  139.3110 C   0  0  0  0  0  2  0  0  0  0  0  0
  184.6620  174.6810  136.1730 C   0  0  0  0  0  0  0  0  0  0  0  0
  181.7320  175.1110  137.2360 C   0  0  0  0  0  2  0  0  0  0  0  0
  187.1070  177.7850  137.3840 C   0  0  0  0  0  0  0  0  0  0  0  0
  181.8950  178.2670  136.7590 C   0  0  1  0  0  3  0  0  0  0  0  0
  181.9980  173.7230  137.5660 N   0  0  0  0  0  2  0  0  0  0  0  0
  183.5990  179.4460  139.0480 C   0  0  0  0  0  3  0  0  0  0  0  0
  181.6090  180.4750  137.9930 C   0  0  0  0  0  2  0  0  0  0  0  0
  185.2170  176.7270  137.2790 C   0  0  0  0  0  0  0  0  0  0  0  0
  182.5320  177.4860  137.9300 C   0  0  2  0  0  3  0  0  0  0  0  0
  186.9550  175.6000  136.0720 C   0  0  0  0  0  3  0  0  0  0  0  0
  186.0100  174.6120  135.7270 C   0  0  0  0  0  3  0  0  0  0  0  0
  182.9900  172.9700  136.8690 C   0  0  0  0  0  0  0  0  0  0  0  0
  182.8980  174.0060  134.7340 F   0  0  0  0  0  0  0  0  0  0  0  0
  184.2390  175.7970  136.9580 C   0  0  0  0  0  0  0  0  0  0  0  0
  186.5080  176.6460  136.8700 C   0  0  0  0  0  0  0  0  0  0  0  0
  186.1800  178.5060  138.0670 N   0  0  0  0  0  0  0  0  0  0  0  0
  183.7390  178.2690  138.4250 C   0  0  0  0  0  0  0  0  0  0  0  0
  185.0350  177.8330  137.9990 N   0  0  0  0  0  0  0  0  0  0  0  0
  189.1930  178.0030  135.7400 O   0  0  0  0  0  0  0  0  0  0  0  0
  188.7760  178.2790  137.1560 S   0  0  0  0  0  0  0  0  0  0  0  0
  189.8240  177.3730  138.2680 C   0  0  0  0  0  1  0  0  0  0  0  0
  188.9110  179.7470  137.4500 O   0  0  0  0  0  0  0  0  0  0  0  0
  181.7840  177.7410  134.6090 C   0  0  0  0  0  1  0  0  0  0  0  0
  181.2270  177.4390  135.8530 O   0  0  0  0  0  0  0  0  0  0  0  0
  2 12  1  0  0  0  0
  3 18  1  6  0  0  0
  3  6  1  0  0  0  0
  3 17  1  0  0  0  0
  4  7  1  6  0  0  0
  4 14  1  0  0  0  0
  6 19  1  0  0  0  0
  7 10  1  0  0  0  0
  8 21  2  0  0  0  0
  9 29  1  6  0  0  0
  9  2  1  0  0  0  0
  9 14  1  0  0  0  0
 11  5  1  0  0  0  0
 12  5  1  0  0  0  0
 13 23  1  0  0  0  0
 14 22  1  6  0  0  0
 15 20  2  0  0  0  0
 16 15  1  0  0  0  0
 16  6  2  0  0  0  0
 17  1  2  0  0  0  0
 17 10  1  0  0  0  0
 19 13  2  0  0  0  0
 19  4  1  0  0  0  0
 20 13  1  0  0  0  0
 20  8  1  0  0  0  0
 22 11  2  0  0  0  0
 23 21  1  0  0  0  0
 23 22  1  0  0  0  0
 24 25  2  0  0  0  0
 25  8  1  0  0  0  0
 25 27  2  0  0  0  0
 25 26  1  0  0  0  0
 28 29  1  0  0  0  0
M  END
>  <MODEL>
7

>  <REMARK>
 VINA RESULT:      -5.5      4.458      7.425
  Name = 
  2 active torsions:
  status: ('A' for Active; 'I' for Inactive)
    1  A    between atoms: S_4  and  C_10
    2  A    between atoms: C_11  and  O_28
                            x       y       z     vdW  Elec       q    Type
                         _______ _______ _______ _____ _____    ______ ____

>  <TORSDO>
F 2

$$$$
=
 OpenBabel11042410043D

 29 33  0  0  1  0  0  0  0  0999 V2000
  189.8100  176.8770  135.2590 O   0  0  0  0  0  0  0  0  0  0  0  0
  183.7550  179.6330  139.4500 C   0  0  0  0  0  2  0  0  0  0  0  0
  188.6730  175.9280  137.1250 C   0  0  1  0  0  3  0  0  0  0  0  0
  186.0030  177.6940  136.9630 C   0  0  2  0  0  3  0  0  0  0  0  0
  181.9320  179.2940  137.7340 C   0  0  0  0  0  2  0  0  0  0  0  0
  187.2870  175.3760  136.9810 C   0  0  0  0  0  0  0  0  0  0  0  0
  187.2520  178.5070  137.2880 C   0  0  0  0  0  2  0  0  0  0  0  0
  183.4360  173.9170  136.6290 C   0  0  0  0  0  0  0  0  0  0  0  0
  184.6220  178.4190  139.1020 C   0  0  1  0  0  3  0  0  0  0  0  0
  188.2730  178.2890  136.2790 N   0  0  0  0  0  2  0  0  0  0  0  0
  182.2310  177.9220  137.2140 C   0  0  0  0  0  3  0  0  0  0  0  0
  182.2650  179.3710  139.2210 C   0  0  0  0  0  2  0  0  0  0  0  0
  184.9030  175.4990  136.8490 C   0  0  0  0  0  0  0  0  0  0  0  0
  184.6780  178.2650  137.5670 C   0  0  2  0  0  3  0  0  0  0  0  0
  185.9190  173.3310  136.7300 C   0  0  0  0  0  3  0  0  0  0  0  0
  187.1720  173.9630  136.8640 C   0  0  0  0  0  3  0  0  0  0  0  0
  188.9530  177.0400  136.1670 C   0  0  0  0  0  0  0  0  0  0  0  0
  188.9130  176.3210  138.4300 F   0  0  0  0  0  0  0  0  0  0  0  0
  186.1040  176.1760  137.0020 C   0  0  0  0  0  0  0  0  0  0  0  0
  184.7990  174.1530  136.7160 C   0  0  0  0  0  0  0  0  0  0  0  0
  182.7730  175.1000  136.7170 N   0  0  0  0  0  0  0  0  0  0  0  0
  183.4770  177.4410  137.1250 C   0  0  0  0  0  0  0  0  0  0  0  0
  183.6910  176.0540  136.8380 N   0  0  0  0  0  0  0  0  0  0  0  0
  182.5340  171.9760  135.0420 O   0  0  0  0  0  0  0  0  0  0  0  0
  182.6550  172.3510  136.4910 S   0  0  0  0  0  0  0  0  0  0  0  0
  181.0370  172.4250  137.2180 C   0  0  0  0  0  1  0  0  0  0  0  0
  183.4680  171.3170  137.2190 O   0  0  0  0  0  0  0  0  0  0  0  0
  185.6360  179.0030  140.9850 C   0  0  0  0  0  1  0  0  0  0  0  0
  185.8850  178.5800  139.6780 O   0  0  0  0  0  0  0  0  0  0  0  0
  1 17  2  0  0  0  0
  3 18  1  1  0  0  0
  4 19  1  0  0  0  0
  4  7  1  1  0  0  0
  4 14  1  0  0  0  0
  5 12  1  0  0  0  0
  6 19  1  0  0  0  0
  6  3  1  0  0  0  0
  8 20  1  0  0  0  0
  8 21  2  0  0  0  0
  9  2  1  0  0  0  0
  9 29  1  6  0  0  0
 10  7  1  0  0  0  0
 11  5  1  0  0  0  0
 12  2  1  0  0  0  0
 13 19  2  0  0  0  0
 14 22  1  1  0  0  0
 14  9  1  0  0  0  0
 15 16  1  0  0  0  0
 16  6  2  0  0  0  0
 17 10  1  0  0  0  0
 17  3  1  0  0  0  0
 20 15  2  0  0  0  0
 20 13  1  0  0  0  0
 21 23  1  0  0  0  0
 22 11  2  0  0  0  0
 23 13  1  0  0  0  0
 23 22  1  0  0  0  0
 24 25  2  0  0  0  0
 25  8  1  0  0  0  0
 25 26  1  0  0  0  0
 25 27  2  0  0  0  0
 29 28  1  0  0  0  0
M  END
>  <MODEL>
8

>  <REMARK>
 VINA RESULT:      -5.4      3.844      5.639
  Name = 
  2 active torsions:
  status: ('A' for Active; 'I' for Inactive)
    1  A    between atoms: S_4  and  C_10
    2  A    between atoms: C_11  and  O_28
                            x       y       z     vdW  Elec       q    Type
                         _______ _______ _______ _____ _____    ______ ____

>  <TORSDO>
F 2

$$$$
=
 OpenBabel11042410043D

 29 33  0  0  1  0  0  0  0  0999 V2000
  180.2390  180.8490  140.3610 O   0  0  0  0  0  0  0  0  0  0  0  0
  180.9330  173.9110  136.7280 C   0  0  0  0  0  2  0  0  0  0  0  0
  181.6670  179.0030  140.8330 C   0  0  1  0  0  3  0  0  0  0  0  0
  181.4500  177.5350  137.9920 C   0  0  2  0  0  3  0  0  0  0  0  0
  182.0900  174.7070  134.6280 C   0  0  0  0  0  2  0  0  0  0  0  0
  182.8290  178.6830  139.9420 C   0  0  0  0  0  0  0  0  0  0  0  0
  180.1330  177.5720  138.7620 C   0  0  0  0  0  2  0  0  0  0  0  0
  185.9930  177.7310  137.4590 C   0  0  0  0  0  0  0  0  0  0  0  0
  181.5510  174.9040  137.7170 C   0  0  1  0  0  3  0  0  0  0  0  0
  179.7940  178.9370  139.1190 N   0  0  0  0  0  2  0  0  0  0  0  0
  183.1230  175.6490  135.1660 C   0  0  0  0  0  3  0  0  0  0  0  0
  181.8930  173.5430  135.5940 C   0  0  0  0  0  2  0  0  0  0  0  0
  183.8980  177.7470  138.0190 C   0  0  0  0  0  0  0  0  0  0  0  0
  181.6230  176.2970  137.0530 C   0  0  2  0  0  3  0  0  0  0  0  0
  185.2760  178.8590  139.6350 C   0  0  0  0  0  3  0  0  0  0  0  0
  184.1110  179.1100  140.3870 C   0  0  0  0  0  3  0  0  0  0  0  0
  180.5410  179.6560  140.1000 C   0  0  0  0  0  0  0  0  0  0  0  0
  181.2370  177.8730  141.5060 F   0  0  0  0  0  0  0  0  0  0  0  0
  182.7200  177.9480  138.7220 C   0  0  0  0  0  0  0  0  0  0  0  0
  185.1160  178.1750  138.4360 C   0  0  0  0  0  0  0  0  0  0  0  0
  185.2950  177.0590  136.5070 N   0  0  0  0  0  0  0  0  0  0  0  0
  182.9220  176.3850  136.2670 C   0  0  0  0  0  0  0  0  0  0  0  0
  184.0150  177.0920  136.8640 N   0  0  0  0  0  0  0  0  0  0  0  0
  188.0740  179.3780  137.2190 O   0  0  0  0  0  0  0  0  0  0  0  0
  187.7370  177.9330  137.4530 S   0  0  0  0  0  0  0  0  0  0  0  0
  188.4480  176.9450  136.1600 C   0  0  0  0  0  1  0  0  0  0  0  0
  188.3010  177.4860  138.7720 O   0  0  0  0  0  0  0  0  0  0  0  0
  179.8730  173.8720  138.7320 C   0  0  0  0  0  1  0  0  0  0  0  0
  180.8000  174.9020  138.8960 O   0  0  0  0  0  0  0  0  0  0  0  0
  2  9  1  0  0  0  0
  3 18  1  6  0  0  0
  4 19  1  0  0  0  0
  4  7  1  1  0  0  0
  5 11  1  0  0  0  0
  5 12  1  0  0  0  0
  6 16  1  0  0  0  0
  6  3  1  0  0  0  0
  7 10  1  0  0  0  0
  8 20  1  0  0  0  0
  9 29  1  1  0  0  0
 10 17  1  0  0  0  0
 11 22  2  0  0  0  0
 12  2  1  0  0  0  0
 13 20  2  0  0  0  0
 13 19  1  0  0  0  0
 14 22  1  1  0  0  0
 14  9  1  0  0  0  0
 14  4  1  0  0  0  0
 15 16  2  0  0  0  0
 17  1  2  0  0  0  0
 17  3  1  0  0  0  0
 19  6  2  0  0  0  0
 20 15  1  0  0  0  0
 21 23  1  0  0  0  0
 21  8  2  0  0  0  0
 22 23  1  0  0  0  0
 23 13  1  0  0  0  0
 24 25  2  0  0  0  0
 25  8  1  0  0  0  0
 25 27  2  0  0  0  0
 26 25  1  0  0  0  0
 28 29  1  0  0  0  0
M  END
>  <MODEL>
9

>  <REMARK>
 VINA RESULT:      -5.2      3.892      7.764
  Name = 
  2 active torsions:
  status: ('A' for Active; 'I' for Inactive)
    1  A    between atoms: S_4  and  C_10
    2  A    between atoms: C_11  and  O_28
                            x       y       z     vdW  Elec       q    Type
                         _______ _______ _______ _____ _____    ______ ____

>  <TORSDO>
F 2

$$$$
