=
 OpenBabel11042413283D

 56 68  0  0  1  0  0  0  0  0999 V2000
  186.4510  178.4460  137.3280 C   0  0  2  0  0  3  0  0  0  0  0  0
  188.0520  178.4550  139.3890 C   0  0  0  0  0  2  0  0  0  0  0  0
  190.0840  177.4260  137.5260 C   0  0  0  0  0  3  0  0  0  0  0  0
  189.3780  177.8450  139.9270 C   0  0  2  0  0  3  0  0  0  0  0  0
  187.7930  178.1030  137.9300 C   0  0  1  0  0  0  0  0  0  0  0  0
  190.1210  176.9050  138.9480 C   0  0  2  0  0  3  0  0  0  0  0  0
  185.3870  177.5960  137.9960 C   0  0  2  0  0  3  0  0  0  0  0  0
  186.7620  177.0170  137.7380 C   0  0  1  0  0  3  0  0  0  0  0  0
  188.9740  177.9750  137.0270 C   0  0  0  0  0  3  0  0  0  0  0  0
  188.3920  177.9030  142.4200 C   0  0  2  0  0  0  0  0  0  0  0  0
  189.8300  178.3220  142.1920 C   0  0  2  0  0  3  0  0  0  0  0  0
  187.8480  176.8960  141.5160 N   0  0  0  0  0  2  0  0  0  0  0  0
  188.1870  177.2910  143.8350 C   0  0  1  0  0  3  0  0  0  0  0  0
  189.2640  177.2240  141.3340 C   0  0  2  0  0  0  0  0  0  0  0  0
  190.6660  176.9020  144.0700 C   0  0  0  0  0  0  0  0  0  0  0  0
  189.3260  176.5640  144.3790 N   0  0  0  0  0  2  0  0  0  0  0  0
  190.9120  177.7380  143.0650 C   0  0  0  0  0  3  0  0  0  0  0  0
  187.6370  178.2260  144.8330 N   0  0  0  0  0  0  0  0  0  0  0  0
  188.0550  177.7870  146.1600 C   0  0  0  0  0  2  0  0  0  0  0  0
  186.1800  178.2340  144.8210 C   0  0  0  0  0  2  0  0  0  0  0  0
  185.7180  178.3310  146.2540 C   0  0  0  0  0  2  0  0  0  0  0  0
  186.8400  177.7400  147.0600 C   0  0  0  0  0  2  0  0  0  0  0  0
  191.7720  176.3300  144.8990 C   0  0  0  0  0  3  0  0  0  0  0  0
  192.0870  174.9060  144.4860 C   0  0  0  0  0  1  0  0  0  0  0  0
  191.4770  176.3910  146.3910 C   0  0  0  0  0  1  0  0  0  0  0  0
  184.4050  177.0850  136.9600 C   0  0  0  0  0  2  0  0  0  0  0  0
  182.1610  176.5250  136.5530 C   0  0  0  0  0  2  0  0  0  0  0  0
  183.1560  176.7170  137.6040 N   0  0  0  0  0  0  0  0  0  0  0  0
  180.9580  176.2490  139.3090 O   0  0  0  0  0  0  0  0  0  0  0  0
  182.7090  177.8760  138.3830 C   0  0  1  0  0  3  0  0  0  0  0  0
  180.2890  176.0810  138.0770 C   0  0  0  0  0  2  0  0  0  0  0  0
  181.2840  178.2110  137.9480 C   0  0  2  0  0  3  0  0  0  0  0  0
  181.5100  177.5470  139.2820 C   0  0  1  0  0  0  0  0  0  0  0  0
  180.8550  177.0750  137.0820 C   0  0  1  0  0  3  0  0  0  0  0  0
  182.0310  178.2970  141.5350 C   0  0  0  0  0  3  0  0  0  0  0  0
  181.7920  179.0940  142.6520 C   0  0  0  0  0  0  0  0  0  0  0  0
  180.7560  179.9710  142.6380 N   0  0  0  0  0  0  0  0  0  0  0  0
  179.9470  180.0820  141.5540 C   0  0  0  0  0  3  0  0  0  0  0  0
  179.4110  179.3750  139.4410 O   0  0  0  0  0  0  0  0  0  0  0  0
  182.8130  178.9560  144.0660 Cl  0  0  0  0  0  0  0  0  0  0  0  0
  181.2400  178.4150  140.4300 N   0  0  0  0  0  0  0  0  0  0  0  0
  180.1850  179.2900  140.4320 C   0  0  0  0  0  0  0  0  0  0  0  0
  191.5660  176.7070  139.4090 C   0  0  0  0  0  2  0  0  0  0  0  0
  192.5310  176.6320  138.2380 C   0  0  0  0  0  2  0  0  0  0  0  0
  192.6600  175.1930  137.7770 C   0  0  0  0  0  2  0  0  0  0  0  0
  194.6370  175.8580  136.6370 O   0  0  0  0  0  0  0  0  0  0  0  0
  194.6430  173.6680  137.4460 N   0  0  0  0  0  2  0  0  0  0  0  0
  194.0270  174.9400  137.2500 C   0  0  0  0  0  0  0  0  0  0  0  0
  196.4760  172.2830  137.7800 C   0  0  2  0  0  0  0  0  0  0  0  0
  196.8240  173.7180  138.0870 C   0  0  2  0  0  3  0  0  0  0  0  0
  197.7250  171.7390  137.3430 O   0  0  0  0  0  0  0  0  0  0  0  0
  195.9430  173.4270  136.9870 N   0  0  0  0  0  0  0  0  0  0  0  0
  196.6270  171.3040  136.6440 C   0  0  0  0  0  2  0  0  0  0  0  0
  198.1320  174.2940  137.5270 C   0  0  0  0  0  2  0  0  0  0  0  0
  198.4240  175.2190  135.4000 C   0  0  0  0  0  1  0  0  0  0  0  0
  197.8500  175.4630  136.7120 N   0  0  0  0  0  2  0  0  0  0  0  0
  1  8  1  0  0  0  0
  1  5  1  0  0  0  0
  1  7  1  0  0  0  0
  2  4  1  0  0  0  0
  3  6  1  0  0  0  0
  4 14  1  0  0  0  0
  5  2  1  0  0  0  0
  6 43  1  0  0  0  0
  6  4  1  0  0  0  0
  8  5  1  0  0  0  0
  8  7  1  0  0  0  0
  9  3  2  0  0  0  0
  9  5  1  0  0  0  0
 10 13  1  0  0  0  0
 11 10  1  0  0  0  0
 11 17  1  0  0  0  0
 12 10  1  0  0  0  0
 13 16  1  0  0  0  0
 13 18  1  0  0  0  0
 14 12  1  0  0  0  0
 14 11  1  0  0  0  0
 14 10  1  0  0  0  0
 15 16  1  0  0  0  0
 15 23  1  0  0  0  0
 17 15  2  0  0  0  0
 18 19  1  0  0  0  0
 19 22  1  0  0  0  0
 20 18  1  0  0  0  0
 20 21  1  0  0  0  0
 21 22  1  0  0  0  0
 23 25  1  0  0  0  0
 24 23  1  0  0  0  0
 26 28  1  0  0  0  0
 26  7  1  0  0  0  0
 27 34  1  0  0  0  0
 27 28  1  0  0  0  0
 28 30  1  0  0  0  0
 30 33  1  0  0  0  0
 31 29  1  0  0  0  0
 32 30  1  0  0  0  0
 32 33  1  0  0  0  0
 33 29  1  0  0  0  0
 33 41  1  0  0  0  0
 34 32  1  0  0  0  0
 34 31  1  0  0  0  0
 35 36  2  0  0  0  0
 36 40  1  0  0  0  0
 37 36  1  0  0  0  0
 38 37  2  0  0  0  0
 39 42  2  0  0  0  0
 41 42  1  0  0  0  0
 41 35  1  0  0  0  0
 42 38  1  0  0  0  0
 44 43  1  0  0  0  0
 45 44  1  0  0  0  0
 46 48  2  0  0  0  0
 48 47  1  0  0  0  0
 48 45  1  0  0  0  0
 49 50  1  0  0  0  0
 51 49  1  0  0  0  0
 52 47  1  0  0  0  0
 52 49  1  0  0  0  0
 52 50  1  0  0  0  0
 53 51  1  0  0  0  0
 53 49  1  0  0  0  0
 54 50  1  0  0  0  0
 55 56  1  0  0  0  0
 56 54  1  0  0  0  0
M  END
>  <MODEL>
1

>  <REMARK>
 VINA RESULT:      -8.5      0.000      0.000
  Name = 
  13 active torsions:
  status: ('A' for Active; 'I' for Inactive)
    1  A    between atoms: C_4  and  C_25
    2  A    between atoms: N_6  and  C_13
    3  A    between atoms: N_7  and  C_8
    4  A    between atoms: C_8  and  C_53
    5  A    between atoms: C_19  and  C_27
    6  A    between atoms: C_26  and  C_45
    7  A    between atoms: C_35  and  N_43
    8  A    between atoms: N_36  and  N_38
    9  A    between atoms: C_37  and  C_42
   10  A    between atoms: C_37  and  C_51
   11  A    between atoms: C_42  and  C_52
   12  A    between atoms: C_45  and  N_47
   13  A    between atoms: C_48  and  C_52
                            x       y       z     vdW  Elec       q    Type
                         _______ _______ _______ _____ _____    ______ ____

>  <TORSDO>
F 13

$$$$
=
 OpenBabel11042413283D

 56 68  0  0  1  0  0  0  0  0999 V2000
  189.9160  176.3080  138.2890 C   0  0  2  0  0  3  0  0  0  0  0  0
  188.8590  176.6130  140.6550 C   0  0  0  0  0  2  0  0  0  0  0  0
  186.8470  178.2710  139.2920 C   0  0  0  0  0  3  0  0  0  0  0  0
  187.9060  177.5290  141.4740 C   0  0  2  0  0  3  0  0  0  0  0  0
  188.8860  176.9680  139.1740 C   0  0  1  0  0  0  0  0  0  0  0  0
  187.2650  178.6940  140.6850 C   0  0  2  0  0  3  0  0  0  0  0  0
  191.2940  176.7910  138.7000 C   0  0  2  0  0  3  0  0  0  0  0  0
  190.1150  177.7390  138.7550 C   0  0  1  0  0  3  0  0  0  0  0  0
  187.6240  177.4700  138.5580 C   0  0  0  0  0  3  0  0  0  0  0  0
  189.9030  177.5520  143.2640 C   0  0  2  0  0  0  0  0  0  0  0  0
  188.6800  176.7030  143.5440 C   0  0  2  0  0  3  0  0  0  0  0  0
  189.6970  178.7690  142.4870 N   0  0  0  0  0  2  0  0  0  0  0  0
  190.5700  178.0520  144.5770 C   0  0  1  0  0  3  0  0  0  0  0  0
  188.4910  178.0080  142.8190 C   0  0  2  0  0  0  0  0  0  0  0  0
  188.4680  177.5670  145.8780 C   0  0  0  0  0  0  0  0  0  0  0  0
  189.6650  178.2990  145.6910 N   0  0  0  0  0  2  0  0  0  0  0  0
  188.0100  176.8020  144.8910 C   0  0  0  0  0  3  0  0  0  0  0  0
  191.7340  177.2590  145.0140 N   0  0  0  0  0  0  0  0  0  0  0  0
  191.8440  176.0850  144.1560 C   0  0  0  0  0  2  0  0  0  0  0  0
  191.5800  176.7810  146.3810 C   0  0  0  0  0  2  0  0  0  0  0  0
  192.1310  175.3770  146.4320 C   0  0  0  0  0  2  0  0  0  0  0  0
  191.9900  174.8580  145.0300 C   0  0  0  0  0  2  0  0  0  0  0  0
  187.7600  177.6500  147.1940 C   0  0  0  0  0  3  0  0  0  0  0  0
  186.6750  178.7090  147.1660 C   0  0  0  0  0  1  0  0  0  0  0  0
  188.7100  177.9030  148.3550 C   0  0  0  0  0  1  0  0  0  0  0  0
  192.1330  177.0750  137.4690 C   0  0  0  0  0  2  0  0  0  0  0  0
  191.9420  174.7380  137.6240 C   0  0  0  0  0  2  0  0  0  0  0  0
  192.5360  175.8240  136.8490 N   0  0  0  0  0  0  0  0  0  0  0  0
  193.7400  173.7050  135.4280 O   0  0  0  0  0  0  0  0  0  0  0  0
  193.9870  175.7010  137.0180 C   0  0  1  0  0  3  0  0  0  0  0  0
  192.9800  172.9300  136.3300 C   0  0  0  0  0  2  0  0  0  0  0  0
  194.2680  174.3580  137.6870 C   0  0  2  0  0  3  0  0  0  0  0  0
  194.5690  174.5270  136.2200 C   0  0  1  0  0  0  0  0  0  0  0  0
  192.9670  173.6280  137.6760 C   0  0  1  0  0  3  0  0  0  0  0  0
  196.7910  173.5650  136.4390 C   0  0  0  0  0  3  0  0  0  0  0  0
  198.1590  173.5560  136.1760 C   0  0  0  0  0  0  0  0  0  0  0  0
  198.6970  174.5330  135.4030 N   0  0  0  0  0  0  0  0  0  0  0  0
  197.9250  175.5210  134.8840 C   0  0  0  0  0  3  0  0  0  0  0  0
  195.8490  176.4700  134.6830 O   0  0  0  0  0  0  0  0  0  0  0  0
  199.1750  172.3000  136.8480 Cl  0  0  0  0  0  0  0  0  0  0  0  0
  195.9990  174.5390  135.9060 N   0  0  0  0  0  0  0  0  0  0  0  0
  196.5550  175.5320  135.1410 C   0  0  0  0  0  0  0  0  0  0  0  0
  186.0690  179.2530  141.4560 C   0  0  0  0  0  2  0  0  0  0  0  0
  185.0400  178.1790  141.7660 C   0  0  0  0  0  2  0  0  0  0  0  0
  184.7870  178.1330  143.2610 C   0  0  0  0  0  2  0  0  0  0  0  0
  183.1820  179.0420  144.7610 O   0  0  0  0  0  0  0  0  0  0  0  0
  182.4840  178.8700  142.5390 N   0  0  0  0  0  2  0  0  0  0  0  0
  183.4500  178.7030  143.5770 C   0  0  0  0  0  0  0  0  0  0  0  0
  180.2500  178.3190  142.8480 C   0  0  2  0  0  0  0  0  0  0  0  0
  180.4220  179.2160  141.6470 C   0  0  2  0  0  3  0  0  0  0  0  0
  178.9350  178.6480  143.3060 O   0  0  0  0  0  0  0  0  0  0  0  0
  181.2350  179.4370  142.8140 N   0  0  0  0  0  0  0  0  0  0  0  0
  179.8600  178.4380  144.2980 C   0  0  0  0  0  2  0  0  0  0  0  0
  179.4720  180.4100  141.4790 C   0  0  0  0  0  2  0  0  0  0  0  0
  180.9130  180.4560  139.6400 C   0  0  0  0  0  1  0  0  0  0  0  0
  179.8530  181.1870  140.3130 N   0  0  0  0  0  2  0  0  0  0  0  0
  1  7  1  0  0  0  0
  1  8  1  0  0  0  0
  1  5  1  0  0  0  0
  2  4  1  0  0  0  0
  3  6  1  0  0  0  0
  4 14  1  0  0  0  0
  5  2  1  0  0  0  0
  6 43  1  0  0  0  0
  6  4  1  0  0  0  0
  7  8  1  0  0  0  0
  8  5  1  0  0  0  0
  9  5  1  0  0  0  0
  9  3  2  0  0  0  0
 10 11  1  0  0  0  0
 10 13  1  0  0  0  0
 11 17  1  0  0  0  0
 12 14  1  0  0  0  0
 12 10  1  0  0  0  0
 13 18  1  0  0  0  0
 13 16  1  0  0  0  0
 14 10  1  0  0  0  0
 14 11  1  0  0  0  0
 15 23  1  0  0  0  0
 16 15  1  0  0  0  0
 17 15  2  0  0  0  0
 18 20  1  0  0  0  0
 19 18  1  0  0  0  0
 19 22  1  0  0  0  0
 20 21  1  0  0  0  0
 22 21  1  0  0  0  0
 23 25  1  0  0  0  0
 24 23  1  0  0  0  0
 26  7  1  0  0  0  0
 27 34  1  0  0  0  0
 28 30  1  0  0  0  0
 28 26  1  0  0  0  0
 28 27  1  0  0  0  0
 29 33  1  0  0  0  0
 29 31  1  0  0  0  0
 30 32  1  0  0  0  0
 31 34  1  0  0  0  0
 33 30  1  0  0  0  0
 33 32  1  0  0  0  0
 34 32  1  0  0  0  0
 36 35  2  0  0  0  0
 36 40  1  0  0  0  0
 37 36  1  0  0  0  0
 38 42  1  0  0  0  0
 38 37  2  0  0  0  0
 39 42  2  0  0  0  0
 41 33  1  0  0  0  0
 41 35  1  0  0  0  0
 42 41  1  0  0  0  0
 43 44  1  0  0  0  0
 44 45  1  0  0  0  0
 45 48  1  0  0  0  0
 47 52  1  0  0  0  0
 47 48  1  0  0  0  0
 48 46  2  0  0  0  0
 49 51  1  0  0  0  0
 49 53  1  0  0  0  0
 50 52  1  0  0  0  0
 50 49  1  0  0  0  0
 51 53  1  0  0  0  0
 52 49  1  0  0  0  0
 54 50  1  0  0  0  0
 55 56  1  0  0  0  0
 56 54  1  0  0  0  0
M  END
>  <MODEL>
2

>  <REMARK>
 VINA RESULT:      -7.7      3.453     11.936
  Name = 
  13 active torsions:
  status: ('A' for Active; 'I' for Inactive)
    1  A    between atoms: C_4  and  C_25
    2  A    between atoms: N_6  and  C_13
    3  A    between atoms: N_7  and  C_8
    4  A    between atoms: C_8  and  C_53
    5  A    between atoms: C_19  and  C_27
    6  A    between atoms: C_26  and  C_45
    7  A    between atoms: C_35  and  N_43
    8  A    between atoms: N_36  and  N_38
    9  A    between atoms: C_37  and  C_42
   10  A    between atoms: C_37  and  C_51
   11  A    between atoms: C_42  and  C_52
   12  A    between atoms: C_45  and  N_47
   13  A    between atoms: C_48  and  C_52
                            x       y       z     vdW  Elec       q    Type
                         _______ _______ _______ _____ _____    ______ ____

>  <TORSDO>
F 13

$$$$
=
 OpenBabel11042413283D

 56 68  0  0  1  0  0  0  0  0999 V2000
  190.3510  176.3130  138.4550 C   0  0  2  0  0  3  0  0  0  0  0  0
  189.1090  176.5330  140.7400 C   0  0  0  0  0  2  0  0  0  0  0  0
  187.2630  178.3190  139.3040 C   0  0  0  0  0  3  0  0  0  0  0  0
  188.1160  177.4370  141.5250 C   0  0  2  0  0  3  0  0  0  0  0  0
  189.2690  176.9610  139.2860 C   0  0  1  0  0  0  0  0  0  0  0  0
  187.5750  178.6590  140.7470 C   0  0  2  0  0  3  0  0  0  0  0  0
  191.7030  176.7320  139.0020 C   0  0  2  0  0  3  0  0  0  0  0  0
  190.5500  177.7130  139.0100 C   0  0  1  0  0  3  0  0  0  0  0  0
  188.0770  177.5320  138.5960 C   0  0  0  0  0  3  0  0  0  0  0  0
  189.4990  176.8660  143.7510 C   0  0  2  0  0  0  0  0  0  0  0  0
  187.9900  176.7400  143.7750 C   0  0  2  0  0  3  0  0  0  0  0  0
  190.0610  177.8780  142.8630 N   0  0  0  0  0  2  0  0  0  0  0  0
  190.0680  177.2330  145.1500 C   0  0  1  0  0  3  0  0  0  0  0  0
  188.6000  177.8300  142.9360 C   0  0  2  0  0  0  0  0  0  0  0  0
  187.7980  178.0120  145.9150 C   0  0  0  0  0  0  0  0  0  0  0  0
  189.2100  178.0660  145.9820 N   0  0  0  0  0  2  0  0  0  0  0  0
  187.2170  177.3780  144.9010 C   0  0  0  0  0  3  0  0  0  0  0  0
  190.5920  176.0890  145.9190 N   0  0  0  0  0  0  0  0  0  0  0  0
  190.6370  176.4580  147.3280 C   0  0  0  0  0  2  0  0  0  0  0  0
  191.9510  175.7460  145.5190 C   0  0  0  0  0  2  0  0  0  0  0  0
  192.7100  175.3820  146.7710 C   0  0  0  0  0  2  0  0  0  0  0  0
  192.0070  176.1200  147.8750 C   0  0  0  0  0  2  0  0  0  0  0  0
  186.9910  178.6490  147.0030 C   0  0  0  0  0  3  0  0  0  0  0  0
  187.4980  178.2410  148.3730 C   0  0  0  0  0  1  0  0  0  0  0  0
  185.5040  178.3460  146.8830 C   0  0  0  0  0  1  0  0  0  0  0  0
  192.6480  177.0500  137.8610 C   0  0  0  0  0  2  0  0  0  0  0  0
  192.1400  174.7640  137.6830 C   0  0  0  0  0  2  0  0  0  0  0  0
  192.9610  175.8360  137.1270 N   0  0  0  0  0  0  0  0  0  0  0  0
  194.0500  173.7460  135.5760 O   0  0  0  0  0  0  0  0  0  0  0  0
  194.3510  175.4870  137.4330 C   0  0  1  0  0  3  0  0  0  0  0  0
  193.0900  172.9880  136.2800 C   0  0  0  0  0  2  0  0  0  0  0  0
  194.3720  174.0490  137.9450 C   0  0  2  0  0  3  0  0  0  0  0  0
  194.8730  174.3430  136.5550 C   0  0  1  0  0  0  0  0  0  0  0  0
  192.9990  173.5190  137.6970 C   0  0  1  0  0  3  0  0  0  0  0  0
  196.8990  173.0290  136.8330 C   0  0  0  0  0  3  0  0  0  0  0  0
  198.2760  172.8520  136.7190 C   0  0  0  0  0  0  0  0  0  0  0  0
  199.0360  173.8470  136.1930 N   0  0  0  0  0  0  0  0  0  0  0  0
  198.4760  175.0120  135.7800 C   0  0  0  0  0  3  0  0  0  0  0  0
  196.5890  176.2880  135.5320 O   0  0  0  0  0  0  0  0  0  0  0  0
  199.0210  171.3640  137.2590 Cl  0  0  0  0  0  0  0  0  0  0  0  0
  196.3200  174.1860  136.4000 N   0  0  0  0  0  0  0  0  0  0  0  0
  197.0980  175.1910  135.8880 C   0  0  0  0  0  0  0  0  0  0  0  0
  186.3340  179.2160  141.4460 C   0  0  0  0  0  2  0  0  0  0  0  0
  185.2200  178.1870  141.5320 C   0  0  0  0  0  2  0  0  0  0  0  0
  184.5410  178.2850  142.8850 C   0  0  0  0  0  2  0  0  0  0  0  0
  182.3860  178.8070  143.7400 O   0  0  0  0  0  0  0  0  0  0  0  0
  182.5820  178.8920  141.4150 N   0  0  0  0  0  2  0  0  0  0  0  0
  183.1150  178.6710  142.7210 C   0  0  0  0  0  0  0  0  0  0  0  0
  180.5740  178.2160  140.4660 C   0  0  2  0  0  0  0  0  0  0  0  0
  181.0630  179.4950  139.8350 C   0  0  2  0  0  3  0  0  0  0  0  0
  179.1530  178.3240  140.3430 O   0  0  0  0  0  0  0  0  0  0  0  0
  181.2510  179.2900  141.2470 N   0  0  0  0  0  0  0  0  0  0  0  0
  179.5940  177.7840  141.5250 C   0  0  0  0  0  2  0  0  0  0  0  0
  180.0660  180.6460  139.6360 C   0  0  0  0  0  2  0  0  0  0  0  0
  179.6980  182.1010  137.8440 C   0  0  0  0  0  1  0  0  0  0  0  0
  180.6750  181.6980  138.8410 N   0  0  0  0  0  2  0  0  0  0  0  0
  1  7  1  0  0  0  0
  1  8  1  0  0  0  0
  1  5  1  0  0  0  0
  2  4  1  0  0  0  0
  3  6  1  0  0  0  0
  4 14  1  0  0  0  0
  5  2  1  0  0  0  0
  6 43  1  0  0  0  0
  6  4  1  0  0  0  0
  7  8  1  0  0  0  0
  8  5  1  0  0  0  0
  9  5  1  0  0  0  0
  9  3  2  0  0  0  0
 10 11  1  0  0  0  0
 10 13  1  0  0  0  0
 11 17  1  0  0  0  0
 12 14  1  0  0  0  0
 12 10  1  0  0  0  0
 13 18  1  0  0  0  0
 13 16  1  0  0  0  0
 14 10  1  0  0  0  0
 14 11  1  0  0  0  0
 15 16  1  0  0  0  0
 15 23  1  0  0  0  0
 17 15  2  0  0  0  0
 18 19  1  0  0  0  0
 19 22  1  0  0  0  0
 20 18  1  0  0  0  0
 20 21  1  0  0  0  0
 21 22  1  0  0  0  0
 23 24  1  0  0  0  0
 25 23  1  0  0  0  0
 26  7  1  0  0  0  0
 27 34  1  0  0  0  0
 28 30  1  0  0  0  0
 28 27  1  0  0  0  0
 28 26  1  0  0  0  0
 29 31  1  0  0  0  0
 29 33  1  0  0  0  0
 30 32  1  0  0  0  0
 31 34  1  0  0  0  0
 33 30  1  0  0  0  0
 33 32  1  0  0  0  0
 34 32  1  0  0  0  0
 36 35  2  0  0  0  0
 36 40  1  0  0  0  0
 37 36  1  0  0  0  0
 38 42  1  0  0  0  0
 38 37  2  0  0  0  0
 39 42  2  0  0  0  0
 41 33  1  0  0  0  0
 41 35  1  0  0  0  0
 42 41  1  0  0  0  0
 43 44  1  0  0  0  0
 44 45  1  0  0  0  0
 47 48  1  0  0  0  0
 48 45  1  0  0  0  0
 48 46  2  0  0  0  0
 49 52  1  0  0  0  0
 49 53  1  0  0  0  0
 50 49  1  0  0  0  0
 50 52  1  0  0  0  0
 51 49  1  0  0  0  0
 51 53  1  0  0  0  0
 52 47  1  0  0  0  0
 54 50  1  0  0  0  0
 55 56  1  0  0  0  0
 56 54  1  0  0  0  0
M  END
>  <MODEL>
3

>  <REMARK>
 VINA RESULT:      -7.4      3.232     11.930
  Name = 
  13 active torsions:
  status: ('A' for Active; 'I' for Inactive)
    1  A    between atoms: C_4  and  C_25
    2  A    between atoms: N_6  and  C_13
    3  A    between atoms: N_7  and  C_8
    4  A    between atoms: C_8  and  C_53
    5  A    between atoms: C_19  and  C_27
    6  A    between atoms: C_26  and  C_45
    7  A    between atoms: C_35  and  N_43
    8  A    between atoms: N_36  and  N_38
    9  A    between atoms: C_37  and  C_42
   10  A    between atoms: C_37  and  C_51
   11  A    between atoms: C_42  and  C_52
   12  A    between atoms: C_45  and  N_47
   13  A    between atoms: C_48  and  C_52
                            x       y       z     vdW  Elec       q    Type
                         _______ _______ _______ _____ _____    ______ ____

>  <TORSDO>
F 13

$$$$
=
 OpenBabel11042413283D

 56 68  0  0  1  0  0  0  0  0999 V2000
  188.3990  178.4830  139.3480 C   0  0  2  0  0  3  0  0  0  0  0  0
  186.0790  178.9770  140.4380 C   0  0  0  0  0  2  0  0  0  0  0  0
  187.3960  178.3300  142.9880 C   0  0  0  0  0  3  0  0  0  0  0  0
  185.2340  178.7180  141.7170 C   0  0  2  0  0  3  0  0  0  0  0  0
  187.5160  178.4900  140.5740 C   0  0  1  0  0  0  0  0  0  0  0  0
  185.9470  177.9160  142.8320 C   0  0  2  0  0  3  0  0  0  0  0  0
  187.8650  177.4540  138.3700 C   0  0  2  0  0  3  0  0  0  0  0  0
  187.7890  177.1890  139.8580 C   0  0  1  0  0  3  0  0  0  0  0  0
  188.1550  178.5820  141.9190 C   0  0  0  0  0  3  0  0  0  0  0  0
  183.0480  178.6050  140.1680 C   0  0  2  0  0  0  0  0  0  0  0  0
  183.0060  179.4370  141.4330 C   0  0  2  0  0  3  0  0  0  0  0  0
  183.9120  177.4290  140.1810 N   0  0  0  0  0  2  0  0  0  0  0  0
  181.6460  178.0390  139.8030 C   0  0  1  0  0  3  0  0  0  0  0  0
  183.8190  178.1710  141.4400 C   0  0  2  0  0  0  0  0  0  0  0  0
  180.8230  178.4540  142.1480 C   0  0  0  0  0  0  0  0  0  0  0  0
  180.7760  177.7330  140.9310 N   0  0  0  0  0  2  0  0  0  0  0  0
  181.8490  179.2680  142.3850 C   0  0  0  0  0  3  0  0  0  0  0  0
  180.9220  178.8100  138.7760 N   0  0  0  0  0  0  0  0  0  0  0  0
  181.8780  179.6570  138.0720 C   0  0  0  0  0  2  0  0  0  0  0  0
  179.9200  179.6880  139.3650 C   0  0  0  0  0  2  0  0  0  0  0  0
  179.9440  180.9820  138.5900 C   0  0  0  0  0  2  0  0  0  0  0  0
  181.3360  181.0680  138.0300 C   0  0  0  0  0  2  0  0  0  0  0  0
  179.7040  178.3020  143.1300 C   0  0  0  0  0  3  0  0  0  0  0  0
  179.1390  179.6510  143.5290 C   0  0  0  0  0  1  0  0  0  0  0  0
  180.1150  177.5180  144.3680 C   0  0  0  0  0  1  0  0  0  0  0  0
  189.0120  176.6740  137.7600 C   0  0  0  0  0  2  0  0  0  0  0  0
  189.1960  175.3780  135.8090 C   0  0  0  0  0  2  0  0  0  0  0  0
  188.5020  175.4900  137.0890 N   0  0  0  0  0  0  0  0  0  0  0  0
  187.0650  173.2620  136.1250 O   0  0  0  0  0  0  0  0  0  0  0  0
  187.0940  175.7430  136.7690 C   0  0  1  0  0  3  0  0  0  0  0  0
  187.9470  173.4130  135.0340 C   0  0  0  0  0  2  0  0  0  0  0  0
  186.9040  175.5100  135.2730 C   0  0  2  0  0  3  0  0  0  0  0  0
  186.3790  174.4890  136.2490 C   0  0  1  0  0  0  0  0  0  0  0  0
  188.1780  174.8940  134.8010 C   0  0  1  0  0  3  0  0  0  0  0  0
  184.1950  175.2900  135.5440 C   0  0  0  0  0  2  0  0  0  0  0  0
  182.8030  175.2800  135.6040 C   0  0  0  0  0  0  0  0  0  0  0  0
  182.1770  174.4300  136.4570 N   0  0  0  0  0  0  0  0  0  0  0  0
  182.8850  173.5910  137.2560 C   0  0  0  0  0  2  0  0  0  0  0  0
  184.9290  172.8370  137.9640 O   0  0  0  0  0  0  0  0  0  0  0  0
  181.8720  176.3630  134.5940 Cl  0  0  0  0  0  0  0  0  0  0  0  0
  184.9180  174.4370  136.3250 N   0  0  0  0  0  0  0  0  0  0  0  0
  184.2770  173.5950  137.1960 C   0  0  0  0  0  0  0  0  0  0  0  0
  185.1970  178.0790  144.1540 C   0  0  0  0  0  2  0  0  0  0  0  0
  185.9600  178.9500  145.1370 C   0  0  0  0  0  2  0  0  0  0  0  0
  185.9960  178.2740  146.4950 C   0  0  0  0  0  2  0  0  0  0  0  0
  187.4780  176.8900  147.7340 O   0  0  0  0  0  0  0  0  0  0  0  0
  188.2240  177.4930  145.6050 N   0  0  0  0  0  2  0  0  0  0  0  0
  187.2640  177.5160  146.6610 C   0  0  0  0  0  0  0  0  0  0  0  0
  190.4500  177.6930  146.2340 C   0  0  2  0  0  0  0  0  0  0  0  0
  190.3350  177.3050  144.7810 C   0  0  2  0  0  3  0  0  0  0  0  0
  191.6940  177.1040  146.6230 O   0  0  0  0  0  0  0  0  0  0  0  0
  189.4060  176.7550  145.7330 N   0  0  0  0  0  0  0  0  0  0  0  0
  190.6970  177.0270  147.5630 C   0  0  0  0  0  2  0  0  0  0  0  0
  191.2220  176.1700  144.2500 C   0  0  0  0  0  2  0  0  0  0  0  0
  191.5590  177.9420  142.7640 C   0  0  0  0  0  1  0  0  0  0  0  0
  191.7220  176.5080  142.9300 N   0  0  0  0  0  2  0  0  0  0  0  0
  1  8  1  0  0  0  0
  1  5  1  0  0  0  0
  2  5  1  0  0  0  0
  2  4  1  0  0  0  0
  4  6  1  0  0  0  0
  5  9  1  0  0  0  0
  6  3  1  0  0  0  0
  6 43  1  0  0  0  0
  7  1  1  0  0  0  0
  7  8  1  0  0  0  0
  8  5  1  0  0  0  0
  9  3  2  0  0  0  0
 10 12  1  0  0  0  0
 10 11  1  0  0  0  0
 10 14  1  0  0  0  0
 11 14  1  0  0  0  0
 11 17  1  0  0  0  0
 12 14  1  0  0  0  0
 13 10  1  0  0  0  0
 13 16  1  0  0  0  0
 14  4  1  0  0  0  0
 15 17  2  0  0  0  0
 15 23  1  0  0  0  0
 16 15  1  0  0  0  0
 18 20  1  0  0  0  0
 18 13  1  0  0  0  0
 19 18  1  0  0  0  0
 21 20  1  0  0  0  0
 22 19  1  0  0  0  0
 22 21  1  0  0  0  0
 23 24  1  0  0  0  0
 23 25  1  0  0  0  0
 26  7  1  0  0  0  0
 27 28  1  0  0  0  0
 28 26  1  0  0  0  0
 29 33  1  0  0  0  0
 30 28  1  0  0  0  0
 31 29  1  0  0  0  0
 32 33  1  0  0  0  0
 32 30  1  0  0  0  0
 33 41  1  0  0  0  0
 33 30  1  0  0  0  0
 34 31  1  0  0  0  0
 34 32  1  0  0  0  0
 34 27  1  0  0  0  0
 35 36  1  0  0  0  0
 35 41  1  0  0  0  0
 36 37  2  0  0  0  0
 37 38  1  0  0  0  0
 40 36  1  0  0  0  0
 41 42  1  0  0  0  0
 42 38  1  0  0  0  0
 42 39  2  0  0  0  0
 43 44  1  0  0  0  0
 44 45  1  0  0  0  0
 45 48  1  0  0  0  0
 47 52  1  0  0  0  0
 47 48  1  0  0  0  0
 48 46  2  0  0  0  0
 49 51  1  0  0  0  0
 49 53  1  0  0  0  0
 50 52  1  0  0  0  0
 50 49  1  0  0  0  0
 51 53  1  0  0  0  0
 52 49  1  0  0  0  0
 54 50  1  0  0  0  0
 55 56  1  0  0  0  0
 56 54  1  0  0  0  0
M  END
>  <MODEL>
4

>  <REMARK>
 VINA RESULT:      -7.3      4.461      8.701
  Name = 
  13 active torsions:
  status: ('A' for Active; 'I' for Inactive)
    1  A    between atoms: C_4  and  C_25
    2  A    between atoms: N_6  and  C_13
    3  A    between atoms: N_7  and  C_8
    4  A    between atoms: C_8  and  C_53
    5  A    between atoms: C_19  and  C_27
    6  A    between atoms: C_26  and  C_45
    7  A    between atoms: C_35  and  N_43
    8  A    between atoms: N_36  and  N_38
    9  A    between atoms: C_37  and  C_42
   10  A    between atoms: C_37  and  C_51
   11  A    between atoms: C_42  and  C_52
   12  A    between atoms: C_45  and  N_47
   13  A    between atoms: C_48  and  C_52
                            x       y       z     vdW  Elec       q    Type
                         _______ _______ _______ _____ _____    ______ ____

>  <TORSDO>
F 13

$$$$
=
 OpenBabel11042413283D

 56 68  0  0  1  0  0  0  0  0999 V2000
  185.7480  177.8450  144.1030 C   0  0  2  0  0  3  0  0  0  0  0  0
  184.2850  177.5400  141.9630 C   0  0  0  0  0  2  0  0  0  0  0  0
  186.5920  178.6410  140.5070 C   0  0  0  0  0  3  0  0  0  0  0  0
  184.1320  178.0200  140.4920 C   0  0  2  0  0  3  0  0  0  0  0  0
  185.5620  178.0520  142.6190 C   0  0  1  0  0  0  0  0  0  0  0  0
  185.2130  179.0120  140.0020 C   0  0  2  0  0  3  0  0  0  0  0  0
  184.7210  178.6790  144.8440 C   0  0  2  0  0  3  0  0  0  0  0  0
  185.3400  179.2060  143.5670 C   0  0  1  0  0  3  0  0  0  0  0  0
  186.7690  178.2060  141.7570 C   0  0  0  0  0  3  0  0  0  0  0  0
  181.4930  177.5680  140.3370 C   0  0  2  0  0  0  0  0  0  0  0  0
  182.3220  177.5050  139.0700 C   0  0  2  0  0  3  0  0  0  0  0  0
  181.9480  178.4850  141.3760 N   0  0  0  0  0  2  0  0  0  0  0  0
  180.0340  178.0190  140.0480 C   0  0  1  0  0  3  0  0  0  0  0  0
  182.7130  178.5010  140.1280 C   0  0  2  0  0  0  0  0  0  0  0  0
  180.7200  178.9460  137.8080 C   0  0  0  0  0  0  0  0  0  0  0  0
  179.8680  178.9480  138.9380 N   0  0  0  0  0  2  0  0  0  0  0  0
  181.8580  178.2580  137.8500 C   0  0  0  0  0  3  0  0  0  0  0  0
  179.0580  176.9170  139.9600 N   0  0  0  0  0  0  0  0  0  0  0  0
  179.3630  175.9420  141.0000 C   0  0  0  0  0  2  0  0  0  0  0  0
  179.1380  176.2240  138.6810 C   0  0  0  0  0  2  0  0  0  0  0  0
  178.9560  174.7510  138.9550 C   0  0  0  0  0  2  0  0  0  0  0  0
  179.4120  174.5660  140.3740 C   0  0  0  0  0  2  0  0  0  0  0  0
  180.3060  179.6960  136.5810 C   0  0  0  0  0  3  0  0  0  0  0  0
  181.0480  179.1960  135.3560 C   0  0  0  0  0  1  0  0  0  0  0  0
  180.4880  181.2000  136.7260 C   0  0  0  0  0  1  0  0  0  0  0  0
  185.3620  179.3440  146.0460 C   0  0  0  0  0  2  0  0  0  0  0  0
  186.4300  178.8930  148.0890 C   0  0  0  0  0  2  0  0  0  0  0  0
  186.2260  178.3970  146.7310 N   0  0  0  0  0  0  0  0  0  0  0  0
  188.0570  176.4090  147.5370 O   0  0  0  0  0  0  0  0  0  0  0  0
  187.5360  178.4490  146.0750 C   0  0  1  0  0  3  0  0  0  0  0  0
  187.9870  177.1160  148.7560 C   0  0  0  0  0  2  0  0  0  0  0  0
  188.5850  178.7270  147.1480 C   0  0  2  0  0  3  0  0  0  0  0  0
  188.4770  177.3420  146.5660 C   0  0  1  0  0  0  0  0  0  0  0  0
  187.8680  178.5970  148.4500 C   0  0  1  0  0  3  0  0  0  0  0  0
  189.4090  176.8460  144.3760 C   0  0  0  0  0  3  0  0  0  0  0  0
  190.4600  176.4710  143.5420 C   0  0  0  0  0  0  0  0  0  0  0  0
  191.6780  176.2050  144.0820 N   0  0  0  0  0  0  0  0  0  0  0  0
  191.8870  176.2960  145.4190 C   0  0  0  0  0  3  0  0  0  0  0  0
  191.0310  176.7260  147.5000 O   0  0  0  0  0  0  0  0  0  0  0  0
  190.2090  176.3330  141.8160 Cl  0  0  0  0  0  0  0  0  0  0  0  0
  189.6110  176.9640  145.7190 N   0  0  0  0  0  0  0  0  0  0  0  0
  190.8390  176.6760  146.2560 C   0  0  0  0  0  0  0  0  0  0  0  0
  185.2030  179.0840  138.4750 C   0  0  0  0  0  2  0  0  0  0  0  0
  185.9760  177.9380  137.8460 C   0  0  0  0  0  2  0  0  0  0  0  0
  187.0410  178.4910  136.9180 C   0  0  0  0  0  2  0  0  0  0  0  0
  187.6310  176.6230  135.5730 O   0  0  0  0  0  0  0  0  0  0  0  0
  189.2420  177.2750  137.1320 N   0  0  0  0  0  2  0  0  0  0  0  0
  187.9710  177.4100  136.4970 C   0  0  0  0  0  0  0  0  0  0  0  0
  190.2630  175.3170  137.8500 C   0  0  2  0  0  0  0  0  0  0  0  0
  191.2880  176.3930  137.5860 C   0  0  2  0  0  3  0  0  0  0  0  0
  190.9870  174.1150  137.5740 O   0  0  0  0  0  0  0  0  0  0  0  0
  190.1420  176.2850  136.7220 N   0  0  0  0  0  0  0  0  0  0  0  0
  189.6830  174.1170  137.1480 C   0  0  0  0  0  2  0  0  0  0  0  0
  192.5440  176.0310  136.7800 C   0  0  0  0  0  2  0  0  0  0  0  0
  194.4030  175.0660  137.8160 C   0  0  0  0  0  1  0  0  0  0  0  0
  193.7330  176.3290  137.5570 N   0  0  0  0  0  2  0  0  0  0  0  0
  1  7  1  0  0  0  0
  2  5  1  0  0  0  0
  3  9  2  0  0  0  0
  4  2  1  0  0  0  0
  5  8  1  0  0  0  0
  5  1  1  0  0  0  0
  6  4  1  0  0  0  0
  6  3  1  0  0  0  0
  7 26  1  0  0  0  0
  8  1  1  0  0  0  0
  8  7  1  0  0  0  0
  9  5  1  0  0  0  0
 10 12  1  0  0  0  0
 11 14  1  0  0  0  0
 11 10  1  0  0  0  0
 13 10  1  0  0  0  0
 14 10  1  0  0  0  0
 14  4  1  0  0  0  0
 14 12  1  0  0  0  0
 15 17  2  0  0  0  0
 15 16  1  0  0  0  0
 16 13  1  0  0  0  0
 17 11  1  0  0  0  0
 18 13  1  0  0  0  0
 18 19  1  0  0  0  0
 20 21  1  0  0  0  0
 20 18  1  0  0  0  0
 21 22  1  0  0  0  0
 22 19  1  0  0  0  0
 23 25  1  0  0  0  0
 23 15  1  0  0  0  0
 24 23  1  0  0  0  0
 26 28  1  0  0  0  0
 27 34  1  0  0  0  0
 28 27  1  0  0  0  0
 29 31  1  0  0  0  0
 30 33  1  0  0  0  0
 30 28  1  0  0  0  0
 30 32  1  0  0  0  0
 32 34  1  0  0  0  0
 33 32  1  0  0  0  0
 33 29  1  0  0  0  0
 34 31  1  0  0  0  0
 35 41  1  0  0  0  0
 36 37  1  0  0  0  0
 36 35  2  0  0  0  0
 37 38  2  0  0  0  0
 38 42  1  0  0  0  0
 40 36  1  0  0  0  0
 41 42  1  0  0  0  0
 41 33  1  0  0  0  0
 42 39  2  0  0  0  0
 43  6  1  0  0  0  0
 44 43  1  0  0  0  0
 45 44  1  0  0  0  0
 46 48  2  0  0  0  0
 48 45  1  0  0  0  0
 48 47  1  0  0  0  0
 50 49  1  0  0  0  0
 51 49  1  0  0  0  0
 52 47  1  0  0  0  0
 52 50  1  0  0  0  0
 52 49  1  0  0  0  0
 53 51  1  0  0  0  0
 53 49  1  0  0  0  0
 54 56  1  0  0  0  0
 54 50  1  0  0  0  0
 56 55  1  0  0  0  0
M  END
>  <MODEL>
5

>  <REMARK>
 VINA RESULT:      -7.2      3.274      9.301
  Name = 
  13 active torsions:
  status: ('A' for Active; 'I' for Inactive)
    1  A    between atoms: C_4  and  C_25
    2  A    between atoms: N_6  and  C_13
    3  A    between atoms: N_7  and  C_8
    4  A    between atoms: C_8  and  C_53
    5  A    between atoms: C_19  and  C_27
    6  A    between atoms: C_26  and  C_45
    7  A    between atoms: C_35  and  N_43
    8  A    between atoms: N_36  and  N_38
    9  A    between atoms: C_37  and  C_42
   10  A    between atoms: C_37  and  C_51
   11  A    between atoms: C_42  and  C_52
   12  A    between atoms: C_45  and  N_47
   13  A    between atoms: C_48  and  C_52
                            x       y       z     vdW  Elec       q    Type
                         _______ _______ _______ _____ _____    ______ ____

>  <TORSDO>
F 13

$$$$
=
 OpenBabel11042413283D

 56 68  0  0  1  0  0  0  0  0999 V2000
  185.6120  179.3500  142.9210 C   0  0  2  0  0  3  0  0  0  0  0  0
  187.0800  178.8430  140.8230 C   0  0  0  0  0  2  0  0  0  0  0  0
  184.5450  178.8500  139.3300 C   0  0  0  0  0  3  0  0  0  0  0  0
  187.0150  178.2740  139.3770 C   0  0  2  0  0  3  0  0  0  0  0  0
  185.7020  179.0060  141.4530 C   0  0  1  0  0  0  0  0  0  0  0  0
  185.6060  177.8640  138.8880 C   0  0  2  0  0  3  0  0  0  0  0  0
  186.1320  178.1760  143.7280 C   0  0  2  0  0  3  0  0  0  0  0  0
  185.3570  177.9280  142.4520 C   0  0  1  0  0  3  0  0  0  0  0  0
  184.5700  179.3790  140.5560 C   0  0  0  0  0  3  0  0  0  0  0  0
  189.5740  177.4920  139.1930 C   0  0  2  0  0  0  0  0  0  0  0  0
  188.8040  177.7820  137.9210 C   0  0  2  0  0  3  0  0  0  0  0  0
  188.8070  176.9870  140.3260 N   0  0  0  0  0  2  0  0  0  0  0  0
  190.6720  176.4140  138.9690 C   0  0  1  0  0  3  0  0  0  0  0  0
  188.0610  177.1790  139.0810 C   0  0  2  0  0  0  0  0  0  0  0  0
  189.5520  175.6570  136.8430 C   0  0  0  0  0  0  0  0  0  0  0  0
  190.3630  175.3970  137.9730 N   0  0  0  0  0  2  0  0  0  0  0  0
  188.8360  176.7770  136.7980 C   0  0  0  0  0  3  0  0  0  0  0  0
  192.0290  176.9540  138.7640 N   0  0  0  0  0  0  0  0  0  0  0  0
  192.7950  175.9960  137.9760 C   0  0  0  0  0  2  0  0  0  0  0  0
  192.7330  177.1370  140.0260 C   0  0  0  0  0  2  0  0  0  0  0  0
  194.1700  176.7320  139.8020 C   0  0  0  0  0  2  0  0  0  0  0  0
  194.1200  175.7520  138.6650 C   0  0  0  0  0  2  0  0  0  0  0  0
  189.5390  174.6760  135.7120 C   0  0  0  0  0  3  0  0  0  0  0  0
  188.3660  174.9250  134.7840 C   0  0  0  0  0  1  0  0  0  0  0  0
  189.5320  173.2320  136.1910 C   0  0  0  0  0  1  0  0  0  0  0  0
  185.2410  177.9390  144.9310 C   0  0  0  0  0  2  0  0  0  0  0  0
  185.8690  178.7280  147.0530 C   0  0  0  0  0  2  0  0  0  0  0  0
  186.0560  177.6400  146.0970 N   0  0  0  0  0  0  0  0  0  0  0  0
  187.9270  176.7320  148.0020 O   0  0  0  0  0  0  0  0  0  0  0  0
  187.4580  177.7020  145.6760 C   0  0  1  0  0  3  0  0  0  0  0  0
  187.4770  177.8740  148.6990 C   0  0  0  0  0  2  0  0  0  0  0  0
  188.1820  178.6770  146.6010 C   0  0  2  0  0  3  0  0  0  0  0  0
  188.4160  177.1970  146.7620 C   0  0  1  0  0  0  0  0  0  0  0  0
  187.2150  178.9800  147.6950 C   0  0  1  0  0  3  0  0  0  0  0  0
  190.6560  176.4470  147.3390 C   0  0  0  0  0  3  0  0  0  0  0  0
  191.9450  176.0460  146.9970 C   0  0  0  0  0  0  0  0  0  0  0  0
  192.3010  175.9910  145.6880 N   0  0  0  0  0  0  0  0  0  0  0  0
  191.4240  176.3210  144.7080 C   0  0  0  0  0  3  0  0  0  0  0  0
  189.3310  177.0560  144.1320 O   0  0  0  0  0  0  0  0  0  0  0  0
  193.0980  175.6300  148.2460 Cl  0  0  0  0  0  0  0  0  0  0  0  0
  189.7560  176.7610  146.3640 N   0  0  0  0  0  0  0  0  0  0  0  0
  190.1310  176.7190  145.0460 C   0  0  0  0  0  0  0  0  0  0  0  0
  185.6030  177.7190  137.3660 C   0  0  0  0  0  2  0  0  0  0  0  0
  184.2880  177.1590  136.8520 C   0  0  0  0  0  2  0  0  0  0  0  0
  184.0050  175.8270  137.5210 C   0  0  0  0  0  2  0  0  0  0  0  0
  181.9980  174.6420  137.9900 O   0  0  0  0  0  0  0  0  0  0  0  0
  181.8970  176.9500  138.3350 N   0  0  0  0  0  2  0  0  0  0  0  0
  182.5840  175.7580  137.9550 C   0  0  0  0  0  0  0  0  0  0  0  0
  180.2950  178.1860  139.4730 C   0  0  2  0  0  0  0  0  0  0  0  0
  180.6230  176.9160  140.2180 C   0  0  2  0  0  3  0  0  0  0  0  0
  178.9330  178.4280  139.8390 O   0  0  0  0  0  0  0  0  0  0  0  0
  180.5710  176.8960  138.7800 N   0  0  0  0  0  0  0  0  0  0  0  0
  179.2390  178.6990  138.5290 C   0  0  0  0  0  2  0  0  0  0  0  0
  179.4670  176.0630  140.7610 C   0  0  0  0  0  2  0  0  0  0  0  0
  179.6760  173.7560  141.0800 C   0  0  0  0  0  1  0  0  0  0  0  0
  179.4350  174.7820  140.0780 N   0  0  0  0  0  2  0  0  0  0  0  0
  1  7  1  0  0  0  0
  2  5  1  0  0  0  0
  3  9  2  0  0  0  0
  4  2  1  0  0  0  0
  5  8  1  0  0  0  0
  5  1  1  0  0  0  0
  6  3  1  0  0  0  0
  6  4  1  0  0  0  0
  7 26  1  0  0  0  0
  8  1  1  0  0  0  0
  8  7  1  0  0  0  0
  9  5  1  0  0  0  0
 10 12  1  0  0  0  0
 11 14  1  0  0  0  0
 11 10  1  0  0  0  0
 13 10  1  0  0  0  0
 14 10  1  0  0  0  0
 14  4  1  0  0  0  0
 14 12  1  0  0  0  0
 15 16  1  0  0  0  0
 16 13  1  0  0  0  0
 17 15  2  0  0  0  0
 17 11  1  0  0  0  0
 18 13  1  0  0  0  0
 18 20  1  0  0  0  0
 19 22  1  0  0  0  0
 19 18  1  0  0  0  0
 21 20  1  0  0  0  0
 22 21  1  0  0  0  0
 23 25  1  0  0  0  0
 23 15  1  0  0  0  0
 24 23  1  0  0  0  0
 26 28  1  0  0  0  0
 27 34  1  0  0  0  0
 28 27  1  0  0  0  0
 29 31  1  0  0  0  0
 30 28  1  0  0  0  0
 30 32  1  0  0  0  0
 30 33  1  0  0  0  0
 32 33  1  0  0  0  0
 32 34  1  0  0  0  0
 33 29  1  0  0  0  0
 34 31  1  0  0  0  0
 36 35  2  0  0  0  0
 36 40  1  0  0  0  0
 37 36  1  0  0  0  0
 38 42  1  0  0  0  0
 38 37  2  0  0  0  0
 39 42  2  0  0  0  0
 41 33  1  0  0  0  0
 41 35  1  0  0  0  0
 42 41  1  0  0  0  0
 43  6  1  0  0  0  0
 44 43  1  0  0  0  0
 44 45  1  0  0  0  0
 45 48  1  0  0  0  0
 47 52  1  0  0  0  0
 48 46  2  0  0  0  0
 48 47  1  0  0  0  0
 49 51  1  0  0  0  0
 49 50  1  0  0  0  0
 50 54  1  0  0  0  0
 52 49  1  0  0  0  0
 52 50  1  0  0  0  0
 53 49  1  0  0  0  0
 53 51  1  0  0  0  0
 56 54  1  0  0  0  0
 56 55  1  0  0  0  0
M  END
>  <MODEL>
6

>  <REMARK>
 VINA RESULT:      -7.1      3.582     10.881
  Name = 
  13 active torsions:
  status: ('A' for Active; 'I' for Inactive)
    1  A    between atoms: C_4  and  C_25
    2  A    between atoms: N_6  and  C_13
    3  A    between atoms: N_7  and  C_8
    4  A    between atoms: C_8  and  C_53
    5  A    between atoms: C_19  and  C_27
    6  A    between atoms: C_26  and  C_45
    7  A    between atoms: C_35  and  N_43
    8  A    between atoms: N_36  and  N_38
    9  A    between atoms: C_37  and  C_42
   10  A    between atoms: C_37  and  C_51
   11  A    between atoms: C_42  and  C_52
   12  A    between atoms: C_45  and  N_47
   13  A    between atoms: C_48  and  C_52
                            x       y       z     vdW  Elec       q    Type
                         _______ _______ _______ _____ _____    ______ ____

>  <TORSDO>
F 13

$$$$
=
 OpenBabel11042413283D

 56 68  0  0  1  0  0  0  0  0999 V2000
  189.9780  176.5010  139.3830 C   0  0  2  0  0  3  0  0  0  0  0  0
  187.5030  176.7550  138.5940 C   0  0  0  0  0  2  0  0  0  0  0  0
  188.6480  177.3530  135.9500 C   0  0  0  0  0  3  0  0  0  0  0  0
  186.6210  177.3780  137.4750 C   0  0  2  0  0  3  0  0  0  0  0  0
  188.9930  176.8710  138.2990 C   0  0  1  0  0  0  0  0  0  0  0  0
  187.3920  178.1020  136.3470 C   0  0  2  0  0  3  0  0  0  0  0  0
  189.8560  177.5040  140.5150 C   0  0  2  0  0  3  0  0  0  0  0  0
  189.6870  177.9610  139.0820 C   0  0  1  0  0  3  0  0  0  0  0  0
  189.4270  176.7860  136.8740 C   0  0  0  0  0  3  0  0  0  0  0  0
  184.8830  177.9970  139.4220 C   0  0  2  0  0  0  0  0  0  0  0  0
  184.3990  177.1780  138.2430 C   0  0  2  0  0  3  0  0  0  0  0  0
  185.9580  178.9490  139.1660 N   0  0  0  0  0  2  0  0  0  0  0  0
  183.7440  178.8660  140.0270 C   0  0  1  0  0  3  0  0  0  0  0  0
  185.4460  178.2300  137.9980 C   0  0  2  0  0  0  0  0  0  0  0  0
  182.3800  178.6140  137.9240 C   0  0  0  0  0  0  0  0  0  0  0  0
  182.7440  179.3420  139.0810 N   0  0  0  0  0  2  0  0  0  0  0  0
  183.1330  177.5880  137.5350 C   0  0  0  0  0  3  0  0  0  0  0  0
  183.1020  178.2900  141.2230 N   0  0  0  0  0  0  0  0  0  0  0  0
  181.7420  178.8060  141.3130 C   0  0  0  0  0  2  0  0  0  0  0  0
  183.7930  178.6760  142.4460 C   0  0  0  0  0  2  0  0  0  0  0  0
  182.7390  178.9400  143.4930 C   0  0  0  0  0  2  0  0  0  0  0  0
  181.5130  179.3260  142.7150 C   0  0  0  0  0  2  0  0  0  0  0  0
  181.1400  178.9980  137.1790 C   0  0  0  0  0  3  0  0  0  0  0  0
  179.9600  178.1450  137.6020 C   0  0  0  0  0  1  0  0  0  0  0  0
  181.3200  178.9330  135.6690 C   0  0  0  0  0  1  0  0  0  0  0  0
  191.2320  177.8830  141.0230 C   0  0  0  0  0  2  0  0  0  0  0  0
  192.0340  176.4000  142.6590 C   0  0  0  0  0  2  0  0  0  0  0  0
  191.3100  177.6520  142.4550 N   0  0  0  0  0  0  0  0  0  0  0  0
  191.0170  177.5510  145.2590 O   0  0  0  0  0  0  0  0  0  0  0  0
  189.9450  177.4180  142.9340 C   0  0  1  0  0  3  0  0  0  0  0  0
  191.7880  176.3800  145.1000 C   0  0  0  0  0  2  0  0  0  0  0  0
  189.9330  176.0870  143.6820 C   0  0  2  0  0  3  0  0  0  0  0  0
  189.8640  177.3720  144.4650 C   0  0  1  0  0  0  0  0  0  0  0  0
  191.3650  175.6930  143.8160 C   0  0  1  0  0  3  0  0  0  0  0  0
  188.5190  177.7090  146.4620 C   0  0  0  0  0  3  0  0  0  0  0  0
  187.3000  177.9160  147.1030 C   0  0  0  0  0  0  0  0  0  0  0  0
  186.1630  177.9980  146.3660 N   0  0  0  0  0  0  0  0  0  0  0  0
  186.1930  177.8790  145.0150 C   0  0  0  0  0  3  0  0  0  0  0  0
  187.4290  177.5330  143.1170 O   0  0  0  0  0  0  0  0  0  0  0  0
  187.2350  178.0580  148.8460 Cl  0  0  0  0  0  0  0  0  0  0  0  0
  188.5670  177.6090  145.1030 N   0  0  0  0  0  0  0  0  0  0  0  0
  187.4120  177.6760  144.3690 C   0  0  0  0  0  0  0  0  0  0  0  0
  186.4820  178.3010  135.1350 C   0  0  0  0  0  2  0  0  0  0  0  0
  185.5380  177.1280  134.9340 C   0  0  0  0  0  2  0  0  0  0  0  0
  186.3400  175.8770  134.6240 C   0  0  0  0  0  2  0  0  0  0  0  0
  186.6170  174.0560  136.1250 O   0  0  0  0  0  0  0  0  0  0  0  0
  184.4380  174.3900  135.3560 N   0  0  0  0  0  2  0  0  0  0  0  0
  185.8240  174.7250  135.4100 C   0  0  0  0  0  0  0  0  0  0  0  0
  183.4610  172.2930  135.1560 C   0  0  2  0  0  0  0  0  0  0  0  0
  182.5230  173.2610  135.8320 C   0  0  2  0  0  3  0  0  0  0  0  0
  183.0810  171.0350  135.7200 O   0  0  0  0  0  0  0  0  0  0  0  0
  183.9320  173.3310  136.1180 N   0  0  0  0  0  0  0  0  0  0  0  0
  184.4310  171.2070  135.5420 C   0  0  0  0  0  2  0  0  0  0  0  0
  181.7880  172.8080  137.1020 C   0  0  0  0  0  2  0  0  0  0  0  0
  179.6460  173.1370  137.9770 C   0  0  0  0  0  1  0  0  0  0  0  0
  180.3740  172.6390  136.8230 N   0  0  0  0  0  2  0  0  0  0  0  0
  1  7  1  0  0  0  0
  3  6  1  0  0  0  0
  3  9  2  0  0  0  0
  4 14  1  0  0  0  0
  4  2  1  0  0  0  0
  5  2  1  0  0  0  0
  5  8  1  0  0  0  0
  5  1  1  0  0  0  0
  6  4  1  0  0  0  0
  7 26  1  0  0  0  0
  8  1  1  0  0  0  0
  8  7  1  0  0  0  0
  9  5  1  0  0  0  0
 10 13  1  0  0  0  0
 11 10  1  0  0  0  0
 12 10  1  0  0  0  0
 13 18  1  0  0  0  0
 14 11  1  0  0  0  0
 14 12  1  0  0  0  0
 14 10  1  0  0  0  0
 15 16  1  0  0  0  0
 16 13  1  0  0  0  0
 17 15  2  0  0  0  0
 17 11  1  0  0  0  0
 18 19  1  0  0  0  0
 18 20  1  0  0  0  0
 19 22  1  0  0  0  0
 20 21  1  0  0  0  0
 22 21  1  0  0  0  0
 23 24  1  0  0  0  0
 23 15  1  0  0  0  0
 25 23  1  0  0  0  0
 26 28  1  0  0  0  0
 27 34  1  0  0  0  0
 28 27  1  0  0  0  0
 28 30  1  0  0  0  0
 30 32  1  0  0  0  0
 30 33  1  0  0  0  0
 31 29  1  0  0  0  0
 32 34  1  0  0  0  0
 32 33  1  0  0  0  0
 33 41  1  0  0  0  0
 33 29  1  0  0  0  0
 34 31  1  0  0  0  0
 35 36  2  0  0  0  0
 36 40  1  0  0  0  0
 37 36  1  0  0  0  0
 38 37  2  0  0  0  0
 39 42  2  0  0  0  0
 41 35  1  0  0  0  0
 42 38  1  0  0  0  0
 42 41  1  0  0  0  0
 43  6  1  0  0  0  0
 44 43  1  0  0  0  0
 45 44  1  0  0  0  0
 45 48  1  0  0  0  0
 47 48  1  0  0  0  0
 47 52  1  0  0  0  0
 48 46  2  0  0  0  0
 49 53  1  0  0  0  0
 49 51  1  0  0  0  0
 49 50  1  0  0  0  0
 49 52  1  0  0  0  0
 50 52  1  0  0  0  0
 50 54  1  0  0  0  0
 53 51  1  0  0  0  0
 56 54  1  0  0  0  0
 56 55  1  0  0  0  0
M  END
>  <MODEL>
7

>  <REMARK>
 VINA RESULT:      -7.0      4.329      9.544
  Name = 
  13 active torsions:
  status: ('A' for Active; 'I' for Inactive)
    1  A    between atoms: C_4  and  C_25
    2  A    between atoms: N_6  and  C_13
    3  A    between atoms: N_7  and  C_8
    4  A    between atoms: C_8  and  C_53
    5  A    between atoms: C_19  and  C_27
    6  A    between atoms: C_26  and  C_45
    7  A    between atoms: C_35  and  N_43
    8  A    between atoms: N_36  and  N_38
    9  A    between atoms: C_37  and  C_42
   10  A    between atoms: C_37  and  C_51
   11  A    between atoms: C_42  and  C_52
   12  A    between atoms: C_45  and  N_47
   13  A    between atoms: C_48  and  C_52
                            x       y       z     vdW  Elec       q    Type
                         _______ _______ _______ _____ _____    ______ ____

>  <TORSDO>
F 13

$$$$
=
 OpenBabel11042413283D

 56 68  0  0  1  0  0  0  0  0999 V2000
  187.9510  177.2310  138.3280 C   0  0  2  0  0  3  0  0  0  0  0  0
  187.6750  177.1860  140.9230 C   0  0  0  0  0  2  0  0  0  0  0  0
  185.3400  178.9200  140.4760 C   0  0  0  0  0  3  0  0  0  0  0  0
  187.0200  177.9490  142.1100 C   0  0  2  0  0  3  0  0  0  0  0  0
  187.2440  177.7290  139.5670 C   0  0  1  0  0  0  0  0  0  0  0  0
  186.1670  179.1780  141.7190 C   0  0  2  0  0  3  0  0  0  0  0  0
  189.3880  177.7140  138.3600 C   0  0  2  0  0  3  0  0  0  0  0  0
  188.2840  178.5980  138.9000 C   0  0  1  0  0  3  0  0  0  0  0  0
  185.8530  178.2520  139.4390 C   0  0  0  0  0  3  0  0  0  0  0  0
  189.4210  177.6780  143.2750 C   0  0  2  0  0  0  0  0  0  0  0  0
  188.2440  176.9080  143.8380 C   0  0  2  0  0  3  0  0  0  0  0  0
  189.1290  178.9640  142.6510 N   0  0  0  0  0  2  0  0  0  0  0  0
  190.4640  178.0210  144.3770 C   0  0  1  0  0  3  0  0  0  0  0  0
  187.9910  178.2760  143.2640 C   0  0  2  0  0  0  0  0  0  0  0  0
  188.7560  177.6030  146.1820 C   0  0  0  0  0  0  0  0  0  0  0  0
  189.9220  178.2520  145.7090 N   0  0  0  0  0  2  0  0  0  0  0  0
  187.9770  176.9550  145.3210 C   0  0  0  0  0  3  0  0  0  0  0  0
  191.6200  177.1090  144.4310 N   0  0  0  0  0  0  0  0  0  0  0  0
  191.4770  176.1140  143.3740 C   0  0  0  0  0  2  0  0  0  0  0  0
  191.6810  176.3880  145.6960 C   0  0  0  0  0  2  0  0  0  0  0  0
  192.1170  174.9760  145.3890 C   0  0  0  0  0  2  0  0  0  0  0  0
  191.6820  174.7390  143.9710 C   0  0  0  0  0  2  0  0  0  0  0  0
  188.4430  177.6390  147.6440 C   0  0  0  0  0  3  0  0  0  0  0  0
  187.1410  178.3720  147.9080 C   0  0  0  0  0  1  0  0  0  0  0  0
  189.5660  178.2530  148.4680 C   0  0  0  0  0  1  0  0  0  0  0  0
  189.8060  178.1880  136.9820 C   0  0  0  0  0  2  0  0  0  0  0  0
  189.4740  176.2010  135.7750 C   0  0  0  0  0  2  0  0  0  0  0  0
  190.4930  177.1170  136.2800 N   0  0  0  0  0  0  0  0  0  0  0  0
  192.2680  175.1920  135.2310 O   0  0  0  0  0  0  0  0  0  0  0  0
  191.2610  176.3640  137.2760 C   0  0  1  0  0  3  0  0  0  0  0  0
  191.0590  174.5770  134.8410 C   0  0  0  0  0  2  0  0  0  0  0  0
  190.8600  174.8950  137.1650 C   0  0  2  0  0  3  0  0  0  0  0  0
  192.2000  175.3360  136.6330 C   0  0  1  0  0  0  0  0  0  0  0  0
  190.0290  174.8020  135.9300 C   0  0  1  0  0  3  0  0  0  0  0  0
  193.7370  173.5530  137.2430 C   0  0  0  0  0  3  0  0  0  0  0  0
  194.8040  173.0480  137.9820 C   0  0  0  0  0  0  0  0  0  0  0  0
  195.4280  173.8470  138.8850 N   0  0  0  0  0  0  0  0  0  0  0  0
  195.0280  175.1290  139.0820 C   0  0  0  0  0  3  0  0  0  0  0  0
  193.5750  176.8200  138.5520 O   0  0  0  0  0  0  0  0  0  0  0  0
  195.3270  171.3940  137.7550 Cl  0  0  0  0  0  0  0  0  0  0  0  0
  193.3380  174.8460  137.4140 N   0  0  0  0  0  0  0  0  0  0  0  0
  193.9630  175.6390  138.3410 C   0  0  0  0  0  0  0  0  0  0  0  0
  185.2670  179.5830  142.8860 C   0  0  0  0  0  2  0  0  0  0  0  0
  184.3210  178.4650  143.2900 C   0  0  0  0  0  2  0  0  0  0  0  0
  183.2010  179.0290  144.1440 C   0  0  0  0  0  2  0  0  0  0  0  0
  180.8280  178.9590  144.0300 O   0  0  0  0  0  0  0  0  0  0  0  0
  181.9230  179.0350  141.9690 N   0  0  0  0  0  2  0  0  0  0  0  0
  181.9170  179.0030  143.3960 C   0  0  0  0  0  0  0  0  0  0  0  0
  180.8050  177.9440  140.2510 C   0  0  2  0  0  0  0  0  0  0  0  0
  181.0610  179.3870  139.8950 C   0  0  2  0  0  3  0  0  0  0  0  0
  179.6020  177.6490  139.5350 O   0  0  0  0  0  0  0  0  0  0  0  0
  180.7220  179.0460  141.2510 N   0  0  0  0  0  0  0  0  0  0  0  0
  179.6810  177.0980  140.7900 C   0  0  0  0  0  2  0  0  0  0  0  0
  179.9130  180.2130  139.2960 C   0  0  0  0  0  2  0  0  0  0  0  0
  179.3550  182.2220  138.2400 C   0  0  0  0  0  1  0  0  0  0  0  0
  180.3410  181.5850  139.0970 N   0  0  0  0  0  2  0  0  0  0  0  0
  1  7  1  0  0  0  0
  1  8  1  0  0  0  0
  1  5  1  0  0  0  0
  2  4  1  0  0  0  0
  3  6  1  0  0  0  0
  4 14  1  0  0  0  0
  5  2  1  0  0  0  0
  6  4  1  0  0  0  0
  6 43  1  0  0  0  0
  7  8  1  0  0  0  0
  8  5  1  0  0  0  0
  9  5  1  0  0  0  0
  9  3  2  0  0  0  0
 10 11  1  0  0  0  0
 10 13  1  0  0  0  0
 11 17  1  0  0  0  0
 12 14  1  0  0  0  0
 12 10  1  0  0  0  0
 13 18  1  0  0  0  0
 13 16  1  0  0  0  0
 14 10  1  0  0  0  0
 14 11  1  0  0  0  0
 15 23  1  0  0  0  0
 16 15  1  0  0  0  0
 17 15  2  0  0  0  0
 18 20  1  0  0  0  0
 19 22  1  0  0  0  0
 19 18  1  0  0  0  0
 21 20  1  0  0  0  0
 22 21  1  0  0  0  0
 23 24  1  0  0  0  0
 23 25  1  0  0  0  0
 26  7  1  0  0  0  0
 27 34  1  0  0  0  0
 27 28  1  0  0  0  0
 28 26  1  0  0  0  0
 28 30  1  0  0  0  0
 29 33  1  0  0  0  0
 31 29  1  0  0  0  0
 31 34  1  0  0  0  0
 32 30  1  0  0  0  0
 33 32  1  0  0  0  0
 33 30  1  0  0  0  0
 33 41  1  0  0  0  0
 34 32  1  0  0  0  0
 35 41  1  0  0  0  0
 35 36  2  0  0  0  0
 36 37  1  0  0  0  0
 37 38  2  0  0  0  0
 40 36  1  0  0  0  0
 41 42  1  0  0  0  0
 42 39  2  0  0  0  0
 42 38  1  0  0  0  0
 43 44  1  0  0  0  0
 44 45  1  0  0  0  0
 47 48  1  0  0  0  0
 48 46  2  0  0  0  0
 48 45  1  0  0  0  0
 49 53  1  0  0  0  0
 49 52  1  0  0  0  0
 50 49  1  0  0  0  0
 50 52  1  0  0  0  0
 51 49  1  0  0  0  0
 51 53  1  0  0  0  0
 52 47  1  0  0  0  0
 54 50  1  0  0  0  0
 55 56  1  0  0  0  0
 56 54  1  0  0  0  0
M  END
>  <MODEL>
8

>  <REMARK>
 VINA RESULT:      -7.0      3.133     10.914
  Name = 
  13 active torsions:
  status: ('A' for Active; 'I' for Inactive)
    1  A    between atoms: C_4  and  C_25
    2  A    between atoms: N_6  and  C_13
    3  A    between atoms: N_7  and  C_8
    4  A    between atoms: C_8  and  C_53
    5  A    between atoms: C_19  and  C_27
    6  A    between atoms: C_26  and  C_45
    7  A    between atoms: C_35  and  N_43
    8  A    between atoms: N_36  and  N_38
    9  A    between atoms: C_37  and  C_42
   10  A    between atoms: C_37  and  C_51
   11  A    between atoms: C_42  and  C_52
   12  A    between atoms: C_45  and  N_47
   13  A    between atoms: C_48  and  C_52
                            x       y       z     vdW  Elec       q    Type
                         _______ _______ _______ _____ _____    ______ ____

>  <TORSDO>
F 13

$$$$
=
 OpenBabel11042413283D

 56 68  0  0  1  0  0  0  0  0999 V2000
  190.4070  176.3500  138.5570 C   0  0  2  0  0  3  0  0  0  0  0  0
  189.2230  176.5270  140.8760 C   0  0  0  0  0  2  0  0  0  0  0  0
  187.2980  178.2790  139.5040 C   0  0  0  0  0  3  0  0  0  0  0  0
  188.2320  177.4020  141.6940 C   0  0  2  0  0  3  0  0  0  0  0  0
  189.3340  176.9670  139.4220 C   0  0  1  0  0  0  0  0  0  0  0  0
  187.6410  178.6170  140.9400 C   0  0  2  0  0  3  0  0  0  0  0  0
  191.7630  176.7960  139.0690 C   0  0  2  0  0  3  0  0  0  0  0  0
  190.5880  177.7500  139.1160 C   0  0  1  0  0  3  0  0  0  0  0  0
  188.1090  177.5150  138.7690 C   0  0  0  0  0  3  0  0  0  0  0  0
  189.6180  176.8140  143.9140 C   0  0  2  0  0  0  0  0  0  0  0  0
  188.1060  176.7420  143.9550 C   0  0  2  0  0  3  0  0  0  0  0  0
  190.2060  177.7920  143.0050 N   0  0  0  0  0  2  0  0  0  0  0  0
  190.2160  177.1800  145.3020 C   0  0  1  0  0  3  0  0  0  0  0  0
  188.7450  177.7970  143.0940 C   0  0  2  0  0  0  0  0  0  0  0  0
  187.9830  178.0510  146.0790 C   0  0  0  0  0  0  0  0  0  0  0  0
  189.3980  178.0550  146.1300 N   0  0  0  0  0  2  0  0  0  0  0  0
  187.3690  177.4230  145.0800 C   0  0  0  0  0  3  0  0  0  0  0  0
  190.7070  176.0290  146.0810 N   0  0  0  0  0  0  0  0  0  0  0  0
  190.7620  176.4090  147.4870 C   0  0  0  0  0  2  0  0  0  0  0  0
  192.0550  175.6440  145.6850 C   0  0  0  0  0  2  0  0  0  0  0  0
  192.8040  175.2700  146.9410 C   0  0  0  0  0  2  0  0  0  0  0  0
  192.1210  176.0380  148.0370 C   0  0  0  0  0  2  0  0  0  0  0  0
  187.2120  178.7320  147.1660 C   0  0  0  0  0  3  0  0  0  0  0  0
  187.6290  178.2260  148.5340 C   0  0  0  0  0  1  0  0  0  0  0  0
  185.7070  178.5910  146.9920 C   0  0  0  0  0  1  0  0  0  0  0  0
  192.6690  177.1430  137.9050 C   0  0  0  0  0  2  0  0  0  0  0  0
  192.1940  174.8500  137.7200 C   0  0  0  0  0  2  0  0  0  0  0  0
  192.9600  175.9470  137.1330 N   0  0  0  0  0  0  0  0  0  0  0  0
  193.9920  173.9040  135.4850 O   0  0  0  0  0  0  0  0  0  0  0  0
  194.3720  175.6220  137.3490 C   0  0  1  0  0  3  0  0  0  0  0  0
  193.0910  173.1160  136.2330 C   0  0  0  0  0  2  0  0  0  0  0  0
  194.4510  174.1760  137.8350 C   0  0  2  0  0  3  0  0  0  0  0  0
  194.8610  174.5020  136.4220 C   0  0  1  0  0  0  0  0  0  0  0  0
  193.0770  173.6230  137.6610 C   0  0  1  0  0  3  0  0  0  0  0  0
  196.9570  173.3010  136.7000 C   0  0  0  0  0  3  0  0  0  0  0  0
  198.3280  173.1590  136.5030 C   0  0  0  0  0  0  0  0  0  0  0  0
  199.0050  174.1070  135.8060 N   0  0  0  0  0  0  0  0  0  0  0  0
  198.3680  175.1930  135.3000 C   0  0  0  0  0  3  0  0  0  0  0  0
  196.4150  176.3640  135.0470 O   0  0  0  0  0  0  0  0  0  0  0  0
  199.1730  171.7740  137.1600 Cl  0  0  0  0  0  0  0  0  0  0  0  0
  196.2990  174.3760  136.1780 N   0  0  0  0  0  0  0  0  0  0  0  0
  196.9950  175.3370  135.4910 C   0  0  0  0  0  0  0  0  0  0  0  0
  186.4080  179.1400  141.6770 C   0  0  0  0  0  2  0  0  0  0  0  0
  185.3710  178.0520  141.8950 C   0  0  0  0  0  2  0  0  0  0  0  0
  183.9920  178.6760  142.0000 C   0  0  0  0  0  2  0  0  0  0  0  0
  181.9330  178.5890  140.8160 O   0  0  0  0  0  0  0  0  0  0  0  0
  183.7360  177.5470  139.7580 N   0  0  0  0  0  2  0  0  0  0  0  0
  183.1540  178.2760  140.8400 C   0  0  0  0  0  0  0  0  0  0  0  0
  182.7990  175.7140  138.6860 C   0  0  2  0  0  0  0  0  0  0  0  0
  183.8160  176.3910  137.8020 C   0  0  2  0  0  3  0  0  0  0  0  0
  181.8800  175.1550  137.7420 O   0  0  0  0  0  0  0  0  0  0  0  0
  182.9680  177.1940  138.6430 N   0  0  0  0  0  0  0  0  0  0  0  0
  181.3040  175.6870  138.8680 C   0  0  0  0  0  2  0  0  0  0  0  0
  183.4520  176.6650  136.3360 C   0  0  0  0  0  2  0  0  0  0  0  0
  185.7550  176.6490  135.9390 C   0  0  0  0  0  1  0  0  0  0  0  0
  184.4830  176.1350  135.4620 N   0  0  0  0  0  2  0  0  0  0  0  0
  1  7  1  0  0  0  0
  1  8  1  0  0  0  0
  1  5  1  0  0  0  0
  2  4  1  0  0  0  0
  3  6  1  0  0  0  0
  4 14  1  0  0  0  0
  5  2  1  0  0  0  0
  6 43  1  0  0  0  0
  6  4  1  0  0  0  0
  7  8  1  0  0  0  0
  8  5  1  0  0  0  0
  9  5  1  0  0  0  0
  9  3  2  0  0  0  0
 10 11  1  0  0  0  0
 10 13  1  0  0  0  0
 11 17  1  0  0  0  0
 12 14  1  0  0  0  0
 12 10  1  0  0  0  0
 13 18  1  0  0  0  0
 13 16  1  0  0  0  0
 14 10  1  0  0  0  0
 14 11  1  0  0  0  0
 15 16  1  0  0  0  0
 15 23  1  0  0  0  0
 17 15  2  0  0  0  0
 18 19  1  0  0  0  0
 19 22  1  0  0  0  0
 20 18  1  0  0  0  0
 20 21  1  0  0  0  0
 21 22  1  0  0  0  0
 23 24  1  0  0  0  0
 25 23  1  0  0  0  0
 26  7  1  0  0  0  0
 28 30  1  0  0  0  0
 28 27  1  0  0  0  0
 28 26  1  0  0  0  0
 29 31  1  0  0  0  0
 29 33  1  0  0  0  0
 30 32  1  0  0  0  0
 31 34  1  0  0  0  0
 33 30  1  0  0  0  0
 33 32  1  0  0  0  0
 34 27  1  0  0  0  0
 34 32  1  0  0  0  0
 36 35  2  0  0  0  0
 36 40  1  0  0  0  0
 37 36  1  0  0  0  0
 38 42  1  0  0  0  0
 38 37  2  0  0  0  0
 39 42  2  0  0  0  0
 41 33  1  0  0  0  0
 41 35  1  0  0  0  0
 42 41  1  0  0  0  0
 43 44  1  0  0  0  0
 44 45  1  0  0  0  0
 46 48  2  0  0  0  0
 47 48  1  0  0  0  0
 48 45  1  0  0  0  0
 49 53  1  0  0  0  0
 50 52  1  0  0  0  0
 50 49  1  0  0  0  0
 51 49  1  0  0  0  0
 51 53  1  0  0  0  0
 52 49  1  0  0  0  0
 52 47  1  0  0  0  0
 54 50  1  0  0  0  0
 56 55  1  0  0  0  0
 56 54  1  0  0  0  0
M  END
>  <MODEL>
9

>  <REMARK>
 VINA RESULT:      -7.0      3.206     11.042
  Name = 
  13 active torsions:
  status: ('A' for Active; 'I' for Inactive)
    1  A    between atoms: C_4  and  C_25
    2  A    between atoms: N_6  and  C_13
    3  A    between atoms: N_7  and  C_8
    4  A    between atoms: C_8  and  C_53
    5  A    between atoms: C_19  and  C_27
    6  A    between atoms: C_26  and  C_45
    7  A    between atoms: C_35  and  N_43
    8  A    between atoms: N_36  and  N_38
    9  A    between atoms: C_37  and  C_42
   10  A    between atoms: C_37  and  C_51
   11  A    between atoms: C_42  and  C_52
   12  A    between atoms: C_45  and  N_47
   13  A    between atoms: C_48  and  C_52
                            x       y       z     vdW  Elec       q    Type
                         _______ _______ _______ _____ _____    ______ ____

>  <TORSDO>
F 13

$$$$
