=
 OpenBabel11042410063D

 29 31  0  0  0  0  0  0  0  0999 V2000
  189.6760  176.8640  145.0470 C   0  0  0  0  0  0  0  0  0  0  0  0
  188.4270  177.0030  144.4020 C   0  0  0  0  0  0  0  0  0  0  0  0
  185.0610  178.4150  145.1370 C   0  0  0  0  0  0  0  0  0  0  0  0
  188.8320  178.0570  146.9860 C   0  0  0  0  0  0  0  0  0  0  0  0
  189.0600  178.5810  148.2540 O   0  0  0  0  0  1  0  0  0  0  0  0
  189.8660  177.3960  146.3260 C   0  0  0  0  0  3  0  0  0  0  0  0
  187.3690  177.6420  145.0780 C   0  0  0  0  0  0  0  0  0  0  0  0
  186.5230  178.8270  147.0320 C   0  0  0  0  0  3  0  0  0  0  0  0
  187.5760  178.1790  146.3730 C   0  0  0  0  0  0  0  0  0  0  0  0
  185.2740  178.9440  146.4190 C   0  0  0  0  0  3  0  0  0  0  0  0
  186.1090  177.7700  144.4760 C   0  0  0  0  0  3  0  0  0  0  0  0
  183.7600  178.5220  144.4640 C   0  0  0  0  0  3  0  0  0  0  0  0
  183.6420  178.6870  143.1520 C   0  0  0  0  0  3  0  0  0  0  0  0
  182.2930  178.7870  142.5310 C   0  0  0  0  0  2  0  0  0  0  0  0
  179.6630  177.6620  142.4710 O   0  0  0  0  0  0  0  0  0  0  0  0
  179.9770  178.3710  143.4650 C   0  0  0  0  0  0  0  0  0  0  0  0
  179.0290  178.5920  144.5010 N   0  0  0  0  0  1  0  0  0  0  0  0
  181.2790  178.9520  143.5620 N   0  0  0  0  0  2  0  0  0  0  0  0
  190.7620  176.1280  144.4520 C   0  0  0  0  0  0  0  0  0  0  0  0
  191.6700  175.5100  143.9540 C   0  0  0  0  0  3  0  0  0  0  0  0
  188.1980  176.4570  143.0910 N   0  0  0  0  0  2  0  0  0  0  0  0
  188.0480  178.6020  140.0080 N   0  0  0  0  0  0  0  0  0  0  0  0
  190.2290  177.8410  139.2000 C   0  0  0  0  0  3  0  0  0  0  0  0
  189.0380  179.6480  137.6960 Cl  0  0  0  0  0  0  0  0  0  0  0  0
  189.9130  176.5440  141.3380 C   0  0  0  0  0  3  0  0  0  0  0  0
  189.1410  178.5940  139.0890 C   0  0  0  0  0  0  0  0  0  0  0  0
  187.8300  177.9160  141.2420 C   0  0  0  0  0  2  0  0  0  0  0  0
  190.5810  176.8740  140.2390 C   0  0  0  0  0  3  0  0  0  0  0  0
  188.6300  177.0360  141.8520 C   0  0  0  0  0  0  0  0  0  0  0  0
  1  6  1  0  0  0  0
  2  1  2  0  0  0  0
  2  7  1  0  0  0  0
  3 10  1  0  0  0  0
  4  5  1  0  0  0  0
  6  4  2  0  0  0  0
  7  9  2  0  0  0  0
  9  4  1  0  0  0  0
  9  8  1  0  0  0  0
 10  8  2  0  0  0  0
 11  7  1  0  0  0  0
 11  3  2  0  0  0  0
 12  3  1  0  0  0  0
 13 12  2  0  0  0  0
 14 13  1  0  0  0  0
 14 18  1  0  0  0  0
 15 16  2  0  0  0  0
 16 18  1  0  0  0  0
 16 17  1  0  0  0  0
 19  1  1  0  0  0  0
 20 19  3  0  0  0  0
 21  2  1  0  0  0  0
 22 27  1  0  0  0  0
 23 28  2  0  0  0  0
 24 26  1  0  0  0  0
 25 29  2  0  0  0  0
 26 23  1  0  0  0  0
 26 22  2  0  0  0  0
 27 29  1  0  0  0  0
 28 25  1  0  0  0  0
 29 21  1  0  0  0  0
M  END
>  <MODEL>
1

>  <REMARK>
 VINA RESULT:      -9.6      0.000      0.000
  Name = 
  6 active torsions:
  status: ('A' for Active; 'I' for Inactive)
    1  A    between atoms: C_1  and  C_9
    2  A    between atoms: C_2  and  N_14
    3  A    between atoms: C_4  and  C_11
    4  A    between atoms: C_4  and  N_27
    5  A    between atoms: C_5  and  C_7
    6  A    between atoms: N_14  and  C_28
                            x       y       z     vdW  Elec       q    Type
                         _______ _______ _______ _____ _____    ______ ____

>  <TORSDO>
F 6

$$$$
=
 OpenBabel11042410063D

 29 31  0  0  0  0  0  0  0  0999 V2000
  188.1460  177.4960  146.1910 C   0  0  0  0  0  0  0  0  0  0  0  0
  187.6030  177.2670  144.9070 C   0  0  0  0  0  0  0  0  0  0  0  0
  184.6240  178.2960  142.9250 C   0  0  0  0  0  0  0  0  0  0  0  0
  186.3280  179.0190  146.7110 C   0  0  0  0  0  0  0  0  0  0  0  0
  185.7250  179.8900  147.6130 O   0  0  0  0  0  1  0  0  0  0  0  0
  187.5080  178.3710  147.0750 C   0  0  0  0  0  3  0  0  0  0  0  0
  186.3940  177.8950  144.5480 C   0  0  0  0  0  0  0  0  0  0  0  0
  184.5660  179.4140  145.0800 C   0  0  0  0  0  3  0  0  0  0  0  0
  185.7590  178.7820  145.4520 C   0  0  0  0  0  0  0  0  0  0  0  0
  184.0010  179.1730  143.8260 C   0  0  0  0  0  3  0  0  0  0  0  0
  185.8150  177.6650  143.2910 C   0  0  0  0  0  3  0  0  0  0  0  0
  184.0580  178.0220  141.5980 C   0  0  0  0  0  3  0  0  0  0  0  0
  182.8130  178.3460  141.2670 C   0  0  0  0  0  3  0  0  0  0  0  0
  182.3010  178.0420  139.9030 C   0  0  0  0  0  2  0  0  0  0  0  0
  183.6980  180.3330  138.9110 O   0  0  0  0  0  0  0  0  0  0  0  0
  182.4390  180.3430  138.8580 C   0  0  0  0  0  0  0  0  0  0  0  0
  181.7650  181.4750  138.3240 N   0  0  0  0  0  1  0  0  0  0  0  0
  181.6820  179.2250  139.3250 N   0  0  0  0  0  2  0  0  0  0  0  0
  189.3190  176.8010  146.6560 C   0  0  0  0  0  0  0  0  0  0  0  0
  190.3010  176.2180  147.0430 C   0  0  0  0  0  3  0  0  0  0  0  0
  188.2310  176.3630  143.9800 N   0  0  0  0  0  2  0  0  0  0  0  0
  191.5720  176.9360  142.3540 N   0  0  0  0  0  0  0  0  0  0  0  0
  190.5780  177.7250  140.2630 C   0  0  0  0  0  3  0  0  0  0  0  0
  193.2100  177.6160  140.2880 Cl  0  0  0  0  0  0  0  0  0  0  0  0
  188.5750  177.2500  141.7180 C   0  0  0  0  0  3  0  0  0  0  0  0
  191.6290  177.4120  141.0090 C   0  0  0  0  0  0  0  0  0  0  0  0
  190.4730  176.6210  143.2130 C   0  0  0  0  0  2  0  0  0  0  0  0
  189.1560  177.6650  140.5980 C   0  0  0  0  0  3  0  0  0  0  0  0
  189.1660  176.7270  142.9550 C   0  0  0  0  0  0  0  0  0  0  0  0
  1 19  1  0  0  0  0
  1  6  1  0  0  0  0
  2  1  2  0  0  0  0
  3 11  2  0  0  0  0
  3 10  1  0  0  0  0
  4  6  2  0  0  0  0
  4  5  1  0  0  0  0
  7  2  1  0  0  0  0
  7  9  2  0  0  0  0
  8  9  1  0  0  0  0
  9  4  1  0  0  0  0
 10  8  2  0  0  0  0
 11  7  1  0  0  0  0
 12  3  1  0  0  0  0
 13 12  2  0  0  0  0
 14 13  1  0  0  0  0
 16 15  2  0  0  0  0
 16 18  1  0  0  0  0
 17 16  1  0  0  0  0
 18 14  1  0  0  0  0
 19 20  3  0  0  0  0
 21  2  1  0  0  0  0
 22 27  1  0  0  0  0
 23 28  2  0  0  0  0
 23 26  1  0  0  0  0
 24 26  1  0  0  0  0
 25 29  2  0  0  0  0
 26 22  2  0  0  0  0
 28 25  1  0  0  0  0
 29 27  1  0  0  0  0
 29 21  1  0  0  0  0
M  END
>  <MODEL>
2

>  <REMARK>
 VINA RESULT:      -8.8      2.565      3.333
  Name = 
  6 active torsions:
  status: ('A' for Active; 'I' for Inactive)
    1  A    between atoms: C_1  and  C_9
    2  A    between atoms: C_2  and  N_14
    3  A    between atoms: C_4  and  C_11
    4  A    between atoms: C_4  and  N_27
    5  A    between atoms: C_5  and  C_7
    6  A    between atoms: N_14  and  C_28
                            x       y       z     vdW  Elec       q    Type
                         _______ _______ _______ _____ _____    ______ ____

>  <TORSDO>
F 6

$$$$
=
 OpenBabel11042410063D

 29 31  0  0  0  0  0  0  0  0999 V2000
  188.3140  177.5100  146.3900 C   0  0  0  0  0  0  0  0  0  0  0  0
  187.7530  177.2620  145.1170 C   0  0  0  0  0  0  0  0  0  0  0  0
  184.7350  178.2460  143.1720 C   0  0  0  0  0  0  0  0  0  0  0  0
  186.4930  179.0240  146.9220 C   0  0  0  0  0  0  0  0  0  0  0  0
  185.8980  179.9000  147.8240 O   0  0  0  0  0  1  0  0  0  0  0  0
  187.6830  178.3890  147.2740 C   0  0  0  0  0  3  0  0  0  0  0  0
  186.5340  177.8770  144.7700 C   0  0  0  0  0  0  0  0  0  0  0  0
  184.7020  179.3880  145.3150 C   0  0  0  0  0  3  0  0  0  0  0  0
  185.9060  178.7690  145.6740 C   0  0  0  0  0  0  0  0  0  0  0  0
  184.1200  179.1290  144.0730 C   0  0  0  0  0  3  0  0  0  0  0  0
  185.9370  177.6280  143.5260 C   0  0  0  0  0  3  0  0  0  0  0  0
  184.1500  177.9530  141.8560 C   0  0  0  0  0  3  0  0  0  0  0  0
  183.0920  178.5980  141.3810 C   0  0  0  0  0  3  0  0  0  0  0  0
  182.5490  178.2530  140.0390 C   0  0  0  0  0  2  0  0  0  0  0  0
  184.5040  180.0990  139.0610 O   0  0  0  0  0  0  0  0  0  0  0  0
  184.5740  178.9040  138.6680 C   0  0  0  0  0  0  0  0  0  0  0  0
  185.5990  178.5210  137.7600 N   0  0  0  0  0  1  0  0  0  0  0  0
  183.6360  177.9300  139.1280 N   0  0  0  0  0  2  0  0  0  0  0  0
  189.5000  176.8290  146.8440 C   0  0  0  0  0  0  0  0  0  0  0  0
  190.4940  176.2600  147.2220 C   0  0  0  0  0  3  0  0  0  0  0  0
  188.3730  176.3530  144.1910 N   0  0  0  0  0  2  0  0  0  0  0  0
  191.6340  177.0010  142.4340 N   0  0  0  0  0  0  0  0  0  0  0  0
  190.5410  177.6720  140.3510 C   0  0  0  0  0  3  0  0  0  0  0  0
  193.1750  177.6700  140.2910 Cl  0  0  0  0  0  0  0  0  0  0  0  0
  188.6080  177.1700  141.8890 C   0  0  0  0  0  3  0  0  0  0  0  0
  191.6280  177.4290  141.0720 C   0  0  0  0  0  0  0  0  0  0  0  0
  190.5770  176.6730  143.3390 C   0  0  0  0  0  2  0  0  0  0  0  0
  189.1340  177.5670  140.7360 C   0  0  0  0  0  3  0  0  0  0  0  0
  189.2590  176.7170  143.1220 C   0  0  0  0  0  0  0  0  0  0  0  0
  1 19  1  0  0  0  0
  1  6  1  0  0  0  0
  2  1  2  0  0  0  0
  3 11  2  0  0  0  0
  3 10  1  0  0  0  0
  4  6  2  0  0  0  0
  4  5  1  0  0  0  0
  7  2  1  0  0  0  0
  7  9  2  0  0  0  0
  8  9  1  0  0  0  0
  9  4  1  0  0  0  0
 10  8  2  0  0  0  0
 11  7  1  0  0  0  0
 12  3  1  0  0  0  0
 13 12  2  0  0  0  0
 14 13  1  0  0  0  0
 16 15  2  0  0  0  0
 16 18  1  0  0  0  0
 17 16  1  0  0  0  0
 18 14  1  0  0  0  0
 19 20  3  0  0  0  0
 21  2  1  0  0  0  0
 22 27  1  0  0  0  0
 23 28  2  0  0  0  0
 23 26  1  0  0  0  0
 24 26  1  0  0  0  0
 25 29  2  0  0  0  0
 26 22  2  0  0  0  0
 28 25  1  0  0  0  0
 29 27  1  0  0  0  0
 29 21  1  0  0  0  0
M  END
>  <MODEL>
3

>  <REMARK>
 VINA RESULT:      -8.8      2.699      3.596
  Name = 
  6 active torsions:
  status: ('A' for Active; 'I' for Inactive)
    1  A    between atoms: C_1  and  C_9
    2  A    between atoms: C_2  and  N_14
    3  A    between atoms: C_4  and  C_11
    4  A    between atoms: C_4  and  N_27
    5  A    between atoms: C_5  and  C_7
    6  A    between atoms: N_14  and  C_28
                            x       y       z     vdW  Elec       q    Type
                         _______ _______ _______ _____ _____    ______ ____

>  <TORSDO>
F 6

$$$$
=
 OpenBabel11042410063D

 29 31  0  0  0  0  0  0  0  0999 V2000
  188.1880  177.4980  146.4700 C   0  0  0  0  0  0  0  0  0  0  0  0
  187.7070  177.2920  145.1580 C   0  0  0  0  0  0  0  0  0  0  0  0
  184.8270  178.3600  143.0530 C   0  0  0  0  0  0  0  0  0  0  0  0
  186.3500  179.0160  146.9280 C   0  0  0  0  0  0  0  0  0  0  0  0
  185.7060  179.8730  147.8150 O   0  0  0  0  0  1  0  0  0  0  0  0
  187.5100  178.3590  147.3370 C   0  0  0  0  0  3  0  0  0  0  0  0
  186.5180  177.9280  144.7520 C   0  0  0  0  0  0  0  0  0  0  0  0
  184.6680  179.4420  145.2220 C   0  0  0  0  0  3  0  0  0  0  0  0
  185.8410  178.8010  145.6390 C   0  0  0  0  0  0  0  0  0  0  0  0
  184.1640  179.2240  143.9380 C   0  0  0  0  0  3  0  0  0  0  0  0
  185.9990  177.7200  143.4650 C   0  0  0  0  0  3  0  0  0  0  0  0
  184.3250  178.1090  141.6960 C   0  0  0  0  0  3  0  0  0  0  0  0
  184.7440  178.7920  140.6380 C   0  0  0  0  0  3  0  0  0  0  0  0
  184.1950  178.4880  139.2880 C   0  0  0  0  0  2  0  0  0  0  0  0
  184.0620  176.2600  137.4980 O   0  0  0  0  0  0  0  0  0  0  0  0
  183.2220  176.3120  138.4360 C   0  0  0  0  0  0  0  0  0  0  0  0
  182.2470  175.2840  138.5670 N   0  0  0  0  0  1  0  0  0  0  0  0
  183.2420  177.3910  139.3720 N   0  0  0  0  0  2  0  0  0  0  0  0
  189.3380  176.7930  146.9780 C   0  0  0  0  0  0  0  0  0  0  0  0
  190.2980  176.2010  147.4030 C   0  0  0  0  0  3  0  0  0  0  0  0
  188.3780  176.4020  144.2470 N   0  0  0  0  0  2  0  0  0  0  0  0
  190.3870  176.4650  141.0700 N   0  0  0  0  0  0  0  0  0  0  0  0
  192.0810  177.9630  142.0050 C   0  0  0  0  0  3  0  0  0  0  0  0
  192.4440  177.2840  139.4840 Cl  0  0  0  0  0  0  0  0  0  0  0  0
  190.4860  177.6160  143.9250 C   0  0  0  0  0  3  0  0  0  0  0  0
  191.5750  177.2550  141.0020 C   0  0  0  0  0  0  0  0  0  0  0  0
  189.4340  176.2570  142.1140 C   0  0  0  0  0  2  0  0  0  0  0  0
  191.5830  178.1180  143.3700 C   0  0  0  0  0  3  0  0  0  0  0  0
  189.4410  176.7600  143.3530 C   0  0  0  0  0  0  0  0  0  0  0  0
  1 19  1  0  0  0  0
  1  6  1  0  0  0  0
  2  1  2  0  0  0  0
  3 11  2  0  0  0  0
  3 10  1  0  0  0  0
  4  6  2  0  0  0  0
  4  5  1  0  0  0  0
  7  2  1  0  0  0  0
  7  9  2  0  0  0  0
  8  9  1  0  0  0  0
  9  4  1  0  0  0  0
 10  8  2  0  0  0  0
 11  7  1  0  0  0  0
 12  3  1  0  0  0  0
 13 12  2  0  0  0  0
 14 18  1  0  0  0  0
 14 13  1  0  0  0  0
 15 16  2  0  0  0  0
 16 17  1  0  0  0  0
 16 18  1  0  0  0  0
 19 20  3  0  0  0  0
 21  2  1  0  0  0  0
 22 27  1  0  0  0  0
 23 28  2  0  0  0  0
 24 26  1  0  0  0  0
 26 22  2  0  0  0  0
 26 23  1  0  0  0  0
 27 29  1  0  0  0  0
 28 25  1  0  0  0  0
 29 25  2  0  0  0  0
 29 21  1  0  0  0  0
M  END
>  <MODEL>
4

>  <REMARK>
 VINA RESULT:      -8.4      2.834      3.538
  Name = 
  6 active torsions:
  status: ('A' for Active; 'I' for Inactive)
    1  A    between atoms: C_1  and  C_9
    2  A    between atoms: C_2  and  N_14
    3  A    between atoms: C_4  and  C_11
    4  A    between atoms: C_4  and  N_27
    5  A    between atoms: C_5  and  C_7
    6  A    between atoms: N_14  and  C_28
                            x       y       z     vdW  Elec       q    Type
                         _______ _______ _______ _____ _____    ______ ____

>  <TORSDO>
F 6

$$$$
=
 OpenBabel11042410063D

 29 31  0  0  0  0  0  0  0  0999 V2000
  182.9780  178.9500  143.3590 C   0  0  0  0  0  0  0  0  0  0  0  0
  184.0660  178.8020  142.4690 C   0  0  0  0  0  0  0  0  0  0  0  0
  187.7010  178.0130  142.6310 C   0  0  0  0  0  0  0  0  0  0  0  0
  184.4070  178.3770  145.2350 C   0  0  0  0  0  0  0  0  0  0  0  0
  184.5480  178.1590  146.6020 O   0  0  0  0  0  1  0  0  0  0  0  0
  183.1590  178.7320  144.7270 C   0  0  0  0  0  3  0  0  0  0  0  0
  185.3360  178.4760  142.9820 C   0  0  0  0  0  0  0  0  0  0  0  0
  186.7690  177.9140  144.8720 C   0  0  0  0  0  3  0  0  0  0  0  0
  185.5050  178.2540  144.3720 C   0  0  0  0  0  0  0  0  0  0  0  0
  187.8590  177.7950  144.0080 C   0  0  0  0  0  3  0  0  0  0  0  0
  186.4420  178.3500  142.1280 C   0  0  0  0  0  3  0  0  0  0  0  0
  188.8270  177.8940  141.6950 C   0  0  0  0  0  3  0  0  0  0  0  0
  188.6670  177.8780  140.3780 C   0  0  0  0  0  3  0  0  0  0  0  0
  189.8510  177.7570  139.4840 C   0  0  0  0  0  2  0  0  0  0  0  0
  189.0550  179.7520  137.5950 O   0  0  0  0  0  0  0  0  0  0  0  0
  189.0250  178.5480  137.2260 C   0  0  0  0  0  0  0  0  0  0  0  0
  188.5970  178.2250  135.9090 N   0  0  0  0  0  1  0  0  0  0  0  0
  189.4210  177.5030  138.1170 N   0  0  0  0  0  2  0  0  0  0  0  0
  181.6810  179.3870  142.9080 C   0  0  0  0  0  0  0  0  0  0  0  0
  180.5960  179.7530  142.5320 C   0  0  0  0  0  3  0  0  0  0  0  0
  183.9130  179.0320  141.0570 N   0  0  0  0  0  2  0  0  0  0  0  0
  184.5600  177.1810  137.8490 N   0  0  0  0  0  0  0  0  0  0  0  0
  182.8360  175.5050  138.3030 C   0  0  0  0  0  3  0  0  0  0  0  0
  184.1840  175.1570  136.0660 Cl  0  0  0  0  0  0  0  0  0  0  0  0
  182.6950  177.0420  140.2960 C   0  0  0  0  0  3  0  0  0  0  0  0
  183.8080  176.0040  137.5500 C   0  0  0  0  0  0  0  0  0  0  0  0
  184.5450  178.0680  138.9700 C   0  0  0  0  0  2  0  0  0  0  0  0
  182.3060  175.9980  139.5740 C   0  0  0  0  0  3  0  0  0  0  0  0
  183.7620  178.0190  140.0530 C   0  0  0  0  0  0  0  0  0  0  0  0
  1  6  1  0  0  0  0
  2  7  1  0  0  0  0
  2  1  2  0  0  0  0
  3 10  1  0  0  0  0
  4  5  1  0  0  0  0
  6  4  2  0  0  0  0
  7  9  2  0  0  0  0
  9  8  1  0  0  0  0
  9  4  1  0  0  0  0
 10  8  2  0  0  0  0
 11  3  2  0  0  0  0
 11  7  1  0  0  0  0
 12  3  1  0  0  0  0
 13 12  2  0  0  0  0
 14 13  1  0  0  0  0
 16 15  2  0  0  0  0
 16 18  1  0  0  0  0
 17 16  1  0  0  0  0
 18 14  1  0  0  0  0
 19  1  1  0  0  0  0
 20 19  3  0  0  0  0
 21  2  1  0  0  0  0
 22 27  1  0  0  0  0
 23 28  2  0  0  0  0
 24 26  1  0  0  0  0
 26 22  2  0  0  0  0
 26 23  1  0  0  0  0
 27 29  1  0  0  0  0
 28 25  1  0  0  0  0
 29 25  2  0  0  0  0
 29 21  1  0  0  0  0
M  END
>  <MODEL>
5

>  <REMARK>
 VINA RESULT:      -8.2      3.595      7.103
  Name = 
  6 active torsions:
  status: ('A' for Active; 'I' for Inactive)
    1  A    between atoms: C_1  and  C_9
    2  A    between atoms: C_2  and  N_14
    3  A    between atoms: C_4  and  C_11
    4  A    between atoms: C_4  and  N_27
    5  A    between atoms: C_5  and  C_7
    6  A    between atoms: N_14  and  C_28
                            x       y       z     vdW  Elec       q    Type
                         _______ _______ _______ _____ _____    ______ ____

>  <TORSDO>
F 6

$$$$
=
 OpenBabel11042410063D

 29 31  0  0  0  0  0  0  0  0999 V2000
  189.9220  176.8050  146.5210 C   0  0  0  0  0  0  0  0  0  0  0  0
  188.9630  176.8240  145.4840 C   0  0  0  0  0  0  0  0  0  0  0  0
  185.5830  178.2520  144.8510 C   0  0  0  0  0  0  0  0  0  0  0  0
  188.5140  178.2420  147.8790 C   0  0  0  0  0  0  0  0  0  0  0  0
  188.3220  178.9450  149.0640 O   0  0  0  0  0  1  0  0  0  0  0  0
  189.6910  177.5160  147.7010 C   0  0  0  0  0  3  0  0  0  0  0  0
  187.7580  177.5290  145.6730 C   0  0  0  0  0  0  0  0  0  0  0  0
  186.3430  178.9600  147.0460 C   0  0  0  0  0  3  0  0  0  0  0  0
  187.5370  178.2490  146.8730 C   0  0  0  0  0  0  0  0  0  0  0  0
  185.3720  178.9620  146.0430 C   0  0  0  0  0  3  0  0  0  0  0  0
  186.7740  177.5430  144.6740 C   0  0  0  0  0  3  0  0  0  0  0  0
  184.5830  178.2340  143.7750 C   0  0  0  0  0  3  0  0  0  0  0  0
  184.8800  177.9040  142.5240 C   0  0  0  0  0  3  0  0  0  0  0  0
  183.8190  177.9050  141.4810 C   0  0  0  0  0  2  0  0  0  0  0  0
  184.5680  178.3370  138.7530 O   0  0  0  0  0  0  0  0  0  0  0  0
  184.1960  179.3350  139.4270 C   0  0  0  0  0  0  0  0  0  0  0  0
  184.1700  180.6220  138.8220 N   0  0  0  0  0  1  0  0  0  0  0  0
  183.7970  179.1860  140.7900 N   0  0  0  0  0  2  0  0  0  0  0  0
  191.1240  176.0160  146.4310 C   0  0  0  0  0  0  0  0  0  0  0  0
  192.1310  175.3560  146.3560 C   0  0  0  0  0  3  0  0  0  0  0  0
  189.1680  176.0920  144.2620 N   0  0  0  0  0  2  0  0  0  0  0  0
  192.0970  177.0710  142.1200 N   0  0  0  0  0  0  0  0  0  0  0  0
  190.6810  177.7370  140.2390 C   0  0  0  0  0  3  0  0  0  0  0  0
  193.2750  177.9490  139.8260 Cl  0  0  0  0  0  0  0  0  0  0  0  0
  189.0210  177.0190  141.9950 C   0  0  0  0  0  3  0  0  0  0  0  0
  191.8730  177.5530  140.7950 C   0  0  0  0  0  0  0  0  0  0  0  0
  191.2030  176.6230  143.1400 C   0  0  0  0  0  2  0  0  0  0  0  0
  189.3530  177.5040  140.8040 C   0  0  0  0  0  3  0  0  0  0  0  0
  189.8680  176.5690  143.1050 C   0  0  0  0  0  0  0  0  0  0  0  0
  1  6  1  0  0  0  0
  2  7  1  0  0  0  0
  2  1  2  0  0  0  0
  3 10  1  0  0  0  0
  4  5  1  0  0  0  0
  6  4  2  0  0  0  0
  7  9  2  0  0  0  0
  9  8  1  0  0  0  0
  9  4  1  0  0  0  0
 10  8  2  0  0  0  0
 11  3  2  0  0  0  0
 11  7  1  0  0  0  0
 12  3  1  0  0  0  0
 13 12  2  0  0  0  0
 14 13  1  0  0  0  0
 15 16  2  0  0  0  0
 16 18  1  0  0  0  0
 17 16  1  0  0  0  0
 18 14  1  0  0  0  0
 19  1  1  0  0  0  0
 20 19  3  0  0  0  0
 21  2  1  0  0  0  0
 22 27  1  0  0  0  0
 23 26  1  0  0  0  0
 23 28  2  0  0  0  0
 24 26  1  0  0  0  0
 25 29  2  0  0  0  0
 26 22  2  0  0  0  0
 28 25  1  0  0  0  0
 29 27  1  0  0  0  0
 29 21  1  0  0  0  0
M  END
>  <MODEL>
6

>  <REMARK>
 VINA RESULT:      -8.1      2.515      3.026
  Name = 
  6 active torsions:
  status: ('A' for Active; 'I' for Inactive)
    1  A    between atoms: C_1  and  C_9
    2  A    between atoms: C_2  and  N_14
    3  A    between atoms: C_4  and  C_11
    4  A    between atoms: C_4  and  N_27
    5  A    between atoms: C_5  and  C_7
    6  A    between atoms: N_14  and  C_28
                            x       y       z     vdW  Elec       q    Type
                         _______ _______ _______ _____ _____    ______ ____

>  <TORSDO>
F 6

$$$$
=
 OpenBabel11042410063D

 29 31  0  0  0  0  0  0  0  0999 V2000
  189.7630  177.6140  141.9080 C   0  0  0  0  0  0  0  0  0  0  0  0
  188.5030  178.1010  141.4950 C   0  0  0  0  0  0  0  0  0  0  0  0
  185.0870  178.5300  142.9130 C   0  0  0  0  0  0  0  0  0  0  0  0
  188.8870  177.1690  144.1280 C   0  0  0  0  0  0  0  0  0  0  0  0
  189.1040  176.7180  145.4260 O   0  0  0  0  0  1  0  0  0  0  0  0
  189.9420  177.1600  143.2170 C   0  0  0  0  0  3  0  0  0  0  0  0
  187.4260  178.0830  142.4020 C   0  0  0  0  0  0  0  0  0  0  0  0
  186.5480  177.6230  144.6280 C   0  0  0  0  0  3  0  0  0  0  0  0
  187.6220  177.6230  143.7280 C   0  0  0  0  0  0  0  0  0  0  0  0
  185.2900  178.0730  144.2240 C   0  0  0  0  0  3  0  0  0  0  0  0
  186.1560  178.5330  142.0120 C   0  0  0  0  0  3  0  0  0  0  0  0
  183.7770  179.0110  142.4560 C   0  0  0  0  0  3  0  0  0  0  0  0
  183.1120  178.4450  141.4560 C   0  0  0  0  0  3  0  0  0  0  0  0
  181.7870  178.9810  141.0430 C   0  0  0  0  0  2  0  0  0  0  0  0
  180.2030  180.5290  142.8540 O   0  0  0  0  0  0  0  0  0  0  0  0
  179.9950  179.2870  142.8050 C   0  0  0  0  0  0  0  0  0  0  0  0
  179.0040  178.7050  143.6420 N   0  0  0  0  0  1  0  0  0  0  0  0
  180.7430  178.4590  141.9130 N   0  0  0  0  0  2  0  0  0  0  0  0
  190.8740  177.5070  140.9960 C   0  0  0  0  0  0  0  0  0  0  0  0
  191.8020  177.4160  140.2320 C   0  0  0  0  0  3  0  0  0  0  0  0
  188.2860  178.5650  140.1500 N   0  0  0  0  0  2  0  0  0  0  0  0
  188.1930  175.9430  137.4570 N   0  0  0  0  0  0  0  0  0  0  0  0
  185.9290  176.5450  136.7520 C   0  0  0  0  0  3  0  0  0  0  0  0
  187.0150  174.5250  135.4530 Cl  0  0  0  0  0  0  0  0  0  0  0  0
  186.4150  178.1780  138.6090 C   0  0  0  0  0  3  0  0  0  0  0  0
  187.0190  175.7920  136.6600 C   0  0  0  0  0  0  0  0  0  0  0  0
  188.5110  176.8240  138.5370 C   0  0  0  0  0  2  0  0  0  0  0  0
  185.6540  177.6660  137.6480 C   0  0  0  0  0  3  0  0  0  0  0  0
  187.7520  177.7860  139.0700 C   0  0  0  0  0  0  0  0  0  0  0  0
  1  6  1  0  0  0  0
  2  1  2  0  0  0  0
  2  7  1  0  0  0  0
  3 10  1  0  0  0  0
  4  5  1  0  0  0  0
  6  4  2  0  0  0  0
  7  9  2  0  0  0  0
  9  4  1  0  0  0  0
  9  8  1  0  0  0  0
 10  8  2  0  0  0  0
 11  7  1  0  0  0  0
 11  3  2  0  0  0  0
 12  3  1  0  0  0  0
 13 12  2  0  0  0  0
 14 13  1  0  0  0  0
 14 18  1  0  0  0  0
 16 15  2  0  0  0  0
 16 17  1  0  0  0  0
 18 16  1  0  0  0  0
 19  1  1  0  0  0  0
 20 19  3  0  0  0  0
 21  2  1  0  0  0  0
 22 27  1  0  0  0  0
 23 28  2  0  0  0  0
 24 26  1  0  0  0  0
 25 29  2  0  0  0  0
 26 23  1  0  0  0  0
 26 22  2  0  0  0  0
 27 29  1  0  0  0  0
 28 25  1  0  0  0  0
 29 21  1  0  0  0  0
M  END
>  <MODEL>
7

>  <REMARK>
 VINA RESULT:      -8.0      2.390      3.338
  Name = 
  6 active torsions:
  status: ('A' for Active; 'I' for Inactive)
    1  A    between atoms: C_1  and  C_9
    2  A    between atoms: C_2  and  N_14
    3  A    between atoms: C_4  and  C_11
    4  A    between atoms: C_4  and  N_27
    5  A    between atoms: C_5  and  C_7
    6  A    between atoms: N_14  and  C_28
                            x       y       z     vdW  Elec       q    Type
                         _______ _______ _______ _____ _____    ______ ____

>  <TORSDO>
F 6

$$$$
=
 OpenBabel11042410063D

 29 31  0  0  0  0  0  0  0  0999 V2000
  185.5410  178.5230  143.7520 C   0  0  0  0  0  0  0  0  0  0  0  0
  186.1340  178.5690  142.4710 C   0  0  0  0  0  0  0  0  0  0  0  0
  189.3410  177.5820  140.8570 C   0  0  0  0  0  0  0  0  0  0  0  0
  187.4940  177.3870  144.6400 C   0  0  0  0  0  0  0  0  0  0  0  0
  188.1390  176.7970  145.7220 O   0  0  0  0  0  1  0  0  0  0  0  0
  186.2220  177.9300  144.8180 C   0  0  0  0  0  3  0  0  0  0  0  0
  187.4320  178.0500  142.2940 C   0  0  0  0  0  0  0  0  0  0  0  0
  189.3950  176.9220  143.1940 C   0  0  0  0  0  3  0  0  0  0  0  0
  188.1110  177.4490  143.3830 C   0  0  0  0  0  0  0  0  0  0  0  0
  190.0060  176.9870  141.9400 C   0  0  0  0  0  3  0  0  0  0  0  0
  188.0600  178.1070  141.0410 C   0  0  0  0  0  3  0  0  0  0  0  0
  189.9550  177.6660  139.5260 C   0  0  0  0  0  3  0  0  0  0  0  0
  190.4710  176.6110  138.9050 C   0  0  0  0  0  3  0  0  0  0  0  0
  191.0780  176.7650  137.5540 C   0  0  0  0  0  2  0  0  0  0  0  0
  193.6320  177.0600  138.8090 O   0  0  0  0  0  0  0  0  0  0  0  0
  193.4590  176.0670  138.0530 C   0  0  0  0  0  0  0  0  0  0  0  0
  194.5230  175.1460  137.8450 N   0  0  0  0  0  1  0  0  0  0  0  0
  192.2030  175.8540  137.4060 N   0  0  0  0  0  2  0  0  0  0  0  0
  184.2630  179.1320  144.0200 C   0  0  0  0  0  0  0  0  0  0  0  0
  183.1930  179.6410  144.2460 C   0  0  0  0  0  3  0  0  0  0  0  0
  185.4620  179.1830  141.3570 N   0  0  0  0  0  2  0  0  0  0  0  0
  184.5540  178.0080  137.9040 N   0  0  0  0  0  0  0  0  0  0  0  0
  182.6040  176.7550  138.6890 C   0  0  0  0  0  3  0  0  0  0  0  0
  183.0760  176.6000  136.1010 Cl  0  0  0  0  0  0  0  0  0  0  0  0
  183.5250  177.7850  140.7970 C   0  0  0  0  0  3  0  0  0  0  0  0
  183.4230  177.1540  137.7230 C   0  0  0  0  0  0  0  0  0  0  0  0
  185.1360  178.5920  139.0700 C   0  0  0  0  0  2  0  0  0  0  0  0
  182.6420  177.0620  140.1180 C   0  0  0  0  0  3  0  0  0  0  0  0
  184.7240  178.4940  140.3380 C   0  0  0  0  0  0  0  0  0  0  0  0
  1 19  1  0  0  0  0
  1  6  1  0  0  0  0
  2  1  2  0  0  0  0
  3 11  2  0  0  0  0
  3 10  1  0  0  0  0
  4  6  2  0  0  0  0
  4  5  1  0  0  0  0
  7  2  1  0  0  0  0
  7  9  2  0  0  0  0
  8  9  1  0  0  0  0
  9  4  1  0  0  0  0
 10  8  2  0  0  0  0
 11  7  1  0  0  0  0
 12  3  1  0  0  0  0
 13 12  2  0  0  0  0
 14 13  1  0  0  0  0
 16 15  2  0  0  0  0
 17 16  1  0  0  0  0
 18 14  1  0  0  0  0
 18 16  1  0  0  0  0
 19 20  3  0  0  0  0
 21  2  1  0  0  0  0
 22 27  1  0  0  0  0
 23 28  2  0  0  0  0
 24 26  1  0  0  0  0
 26 22  2  0  0  0  0
 26 23  1  0  0  0  0
 27 29  1  0  0  0  0
 28 25  1  0  0  0  0
 29 25  2  0  0  0  0
 29 21  1  0  0  0  0
M  END
>  <MODEL>
8

>  <REMARK>
 VINA RESULT:      -8.0      3.736      7.866
  Name = 
  6 active torsions:
  status: ('A' for Active; 'I' for Inactive)
    1  A    between atoms: C_1  and  C_9
    2  A    between atoms: C_2  and  N_14
    3  A    between atoms: C_4  and  C_11
    4  A    between atoms: C_4  and  N_27
    5  A    between atoms: C_5  and  C_7
    6  A    between atoms: N_14  and  C_28
                            x       y       z     vdW  Elec       q    Type
                         _______ _______ _______ _____ _____    ______ ____

>  <TORSDO>
F 6

$$$$
=
 OpenBabel11042410063D

 29 31  0  0  0  0  0  0  0  0999 V2000
  185.6900  178.4010  143.8160 C   0  0  0  0  0  0  0  0  0  0  0  0
  186.0770  178.5960  142.4710 C   0  0  0  0  0  0  0  0  0  0  0  0
  189.0650  178.0130  140.3260 C   0  0  0  0  0  0  0  0  0  0  0  0
  187.8320  177.3690  144.3050 C   0  0  0  0  0  0  0  0  0  0  0  0
  188.6750  176.7540  145.2250 O   0  0  0  0  0  1  0  0  0  0  0  0
  186.5670  177.7870  144.7140 C   0  0  0  0  0  3  0  0  0  0  0  0
  187.3670  178.2050  142.0610 C   0  0  0  0  0  0  0  0  0  0  0  0
  189.5200  177.1800  142.5620 C   0  0  0  0  0  3  0  0  0  0  0  0
  188.2450  177.5800  142.9820 C   0  0  0  0  0  0  0  0  0  0  0  0
  189.9280  177.3950  141.2440 C   0  0  0  0  0  3  0  0  0  0  0  0
  187.7910  178.4120  140.7400 C   0  0  0  0  0  3  0  0  0  0  0  0
  189.4610  178.2520  138.9320 C   0  0  0  0  0  3  0  0  0  0  0  0
  188.5890  178.2770  137.9320 C   0  0  0  0  0  3  0  0  0  0  0  0
  189.0570  178.5260  136.5410 C   0  0  0  0  0  2  0  0  0  0  0  0
  190.8580  176.3500  136.0870 O   0  0  0  0  0  0  0  0  0  0  0  0
  189.7370  176.3160  135.5120 C   0  0  0  0  0  0  0  0  0  0  0  0
  189.4130  175.2200  134.6660 N   0  0  0  0  0  1  0  0  0  0  0  0
  188.7870  177.3650  135.7070 N   0  0  0  0  0  2  0  0  0  0  0  0
  184.4270  178.8770  144.3200 C   0  0  0  0  0  0  0  0  0  0  0  0
  183.3700  179.2730  144.7430 C   0  0  0  0  0  3  0  0  0  0  0  0
  185.2010  179.2360  141.5260 N   0  0  0  0  0  2  0  0  0  0  0  0
  182.3700  177.1760  140.1550 N   0  0  0  0  0  0  0  0  0  0  0  0
  183.1710  177.3520  137.8500 C   0  0  0  0  0  3  0  0  0  0  0  0
  180.9230  176.0120  138.1640 Cl  0  0  0  0  0  0  0  0  0  0  0  0
  184.8990  178.6290  139.1670 C   0  0  0  0  0  3  0  0  0  0  0  0
  182.2870  176.9370  138.7500 C   0  0  0  0  0  0  0  0  0  0  0  0
  183.3030  177.9130  140.9480 C   0  0  0  0  0  2  0  0  0  0  0  0
  184.3950  178.1260  138.0460 C   0  0  0  0  0  3  0  0  0  0  0  0
  184.3950  178.5700  140.5430 C   0  0  0  0  0  0  0  0  0  0  0  0
  1 19  1  0  0  0  0
  1  6  1  0  0  0  0
  2  1  2  0  0  0  0
  3 11  2  0  0  0  0
  3 10  1  0  0  0  0
  4  6  2  0  0  0  0
  4  5  1  0  0  0  0
  7  2  1  0  0  0  0
  7  9  2  0  0  0  0
  8  9  1  0  0  0  0
  9  4  1  0  0  0  0
 10  8  2  0  0  0  0
 11  7  1  0  0  0  0
 12  3  1  0  0  0  0
 13 12  2  0  0  0  0
 14 13  1  0  0  0  0
 16 18  1  0  0  0  0
 16 15  2  0  0  0  0
 17 16  1  0  0  0  0
 18 14  1  0  0  0  0
 19 20  3  0  0  0  0
 21  2  1  0  0  0  0
 22 27  1  0  0  0  0
 23 28  2  0  0  0  0
 23 26  1  0  0  0  0
 24 26  1  0  0  0  0
 25 29  2  0  0  0  0
 26 22  2  0  0  0  0
 28 25  1  0  0  0  0
 29 27  1  0  0  0  0
 29 21  1  0  0  0  0
M  END
>  <MODEL>
9

>  <REMARK>
 VINA RESULT:      -7.8      4.011      7.377
  Name = 
  6 active torsions:
  status: ('A' for Active; 'I' for Inactive)
    1  A    between atoms: C_1  and  C_9
    2  A    between atoms: C_2  and  N_14
    3  A    between atoms: C_4  and  C_11
    4  A    between atoms: C_4  and  N_27
    5  A    between atoms: C_5  and  C_7
    6  A    between atoms: N_14  and  C_28
                            x       y       z     vdW  Elec       q    Type
                         _______ _______ _______ _____ _____    ______ ____

>  <TORSDO>
F 6

$$$$
