=
 OpenBabel11042413113D

 32 34  0  0  1  0  0  0  0  0999 V2000
  187.4120  178.3810  139.9370 N   0  0  0  0  0  0  0  0  0  0  0  0
  187.9980  177.9090  142.2570 C   0  0  0  0  0  2  0  0  0  0  0  0
  190.4490  176.7750  141.2770 C   0  0  2  0  0  3  0  0  0  0  0  0
  188.2380  177.8440  140.7810 C   0  0  0  0  0  0  0  0  0  0  0  0
  189.4160  177.1680  140.3130 N   0  0  0  0  0  0  0  0  0  0  0  0
  189.8480  176.1340  142.5380 C   0  0  0  0  0  2  0  0  0  0  0  0
  188.4100  176.5710  142.8720 C   0  0  1  0  0  3  0  0  0  0  0  0
  191.2870  177.9810  141.6670 C   0  0  0  0  0  1  0  0  0  0  0  0
  189.5230  176.7700  138.9110 C   0  0  1  0  0  3  0  0  0  0  0  0
  189.7310  177.9720  138.0240 C   0  0  0  0  0  2  0  0  0  0  0  0
  190.4280  175.6380  136.3580 O   0  0  0  0  0  0  0  0  0  0  0  0
  189.5140  176.6400  135.9740 C   0  0  0  0  0  0  0  0  0  0  0  0
  188.9060  176.5250  134.6940 N   0  0  0  0  0  1  0  0  0  0  0  0
  192.1780  174.4160  137.6150 C   0  0  0  0  0  1  0  0  0  0  0  0
  191.0310  175.3610  137.6010 C   0  0  0  0  0  0  0  0  0  0  0  0
  189.2100  177.6710  136.7050 N   0  0  0  0  0  0  0  0  0  0  0  0
  190.6340  175.8550  138.7350 N   0  0  0  0  0  0  0  0  0  0  0  0
  183.4840  178.4440  138.1410 C   0  0  0  0  0  3  0  0  0  0  0  0
  184.8030  178.2310  138.4720 C   0  0  2  0  0  3  0  0  0  0  0  0
  186.2520  179.0490  140.3530 N   0  0  0  0  0  2  0  0  0  0  0  0
  183.8980  179.5790  139.9720 N   0  0  0  0  0  0  0  0  0  0  0  0
  182.9670  179.2710  139.0780 N   0  0  0  0  0  0  0  0  0  0  0  0
  185.7290  177.4160  137.7620 N   0  0  0  0  0  1  0  0  0  0  0  0
  185.0300  178.9520  139.6180 C   0  0  0  0  0  0  0  0  0  0  0  0
  188.1270  176.5170  144.3730 C   0  0  0  0  0  2  0  0  0  0  0  0
  187.3700  177.7390  144.8920 C   0  0  0  0  0  2  0  0  0  0  0  0
  187.3420  177.7860  146.4110 C   0  0  0  0  0  2  0  0  0  0  0  0
  185.9690  178.8260  146.9950 S   0  0  0  0  0  0  0  0  0  0  0  0
  185.0620  178.6820  145.4280 C   0  0  0  0  0  2  0  0  0  0  0  0
  183.7350  179.0690  145.6120 O   0  0  0  0  0  0  0  0  0  0  0  0
  184.1970  178.4650  143.3590 C   0  0  0  0  0  1  0  0  0  0  0  0
  183.1730  179.0090  144.3380 C   0  0  0  0  0  2  0  0  0  0  0  0
  1 20  1  0  0  0  0
  1  4  2  0  0  0  0
  2  7  1  0  0  0  0
  3  8  1  1  0  0  0
  3  6  1  0  0  0  0
  4  2  1  0  0  0  0
  5  4  1  0  0  0  0
  5  3  1  0  0  0  0
  6  7  1  0  0  0  0
  7 25  1  1  0  0  0
  9 10  1  6  0  0  0
  9  5  1  0  0  0  0
 11 15  1  0  0  0  0
 12 11  1  0  0  0  0
 12 16  2  0  0  0  0
 13 12  1  0  0  0  0
 15 14  1  0  0  0  0
 15 17  2  0  0  0  0
 16 10  1  0  0  0  0
 17  9  1  0  0  0  0
 18 19  1  0  0  0  0
 18 22  2  0  0  0  0
 19 23  1  1  0  0  0
 19 24  1  0  0  0  0
 22 21  1  0  0  0  0
 24 21  2  0  0  0  0
 24 20  1  0  0  0  0
 25 26  1  0  0  0  0
 26 27  1  0  0  0  0
 27 28  1  0  0  0  0
 29 30  1  0  0  0  0
 29 28  1  0  0  0  0
 31 32  1  0  0  0  0
 32 30  1  0  0  0  0
M  END
>  <MODEL>
1

>  <REMARK>
 VINA RESULT:      -7.7      0.000      0.000
  Name = 
  9 active torsions:
  status: ('A' for Active; 'I' for Inactive)
    1  A    between atoms: N_1  and  N_5
    2  A    between atoms: C_6  and  S_25
    3  A    between atoms: C_6  and  O_28
    4  A    between atoms: C_9  and  N_12
    5  A    between atoms: C_11  and  S_25
    6  A    between atoms: C_11  and  C_29
    7  A    between atoms: C_16  and  O_28
    8  A    between atoms: C_19  and  C_20
    9  A    between atoms: C_20  and  C_29
                            x       y       z     vdW  Elec       q    Type
                         _______ _______ _______ _____ _____    ______ ____

>  <TORSDO>
F 9

$$$$
=
 OpenBabel11042413113D

 32 34  0  0  1  0  0  0  0  0999 V2000
  188.7840  178.1570  139.2900 N   0  0  0  0  0  0  0  0  0  0  0  0
  188.3830  177.7180  141.6560 C   0  0  0  0  0  2  0  0  0  0  0  0
  191.1480  176.9670  141.8590 C   0  0  2  0  0  3  0  0  0  0  0  0
  189.2360  177.7230  140.4260 C   0  0  0  0  0  0  0  0  0  0  0  0
  190.5820  177.2320  140.5320 N   0  0  0  0  0  0  0  0  0  0  0  0
  190.1610  176.2180  142.7680 C   0  0  0  0  0  2  0  0  0  0  0  0
  188.6730  176.4390  142.4400 C   0  0  1  0  0  3  0  0  0  0  0  0
  191.5630  178.2700  142.5200 C   0  0  0  0  0  1  0  0  0  0  0  0
  191.3310  176.8870  139.3250 C   0  0  1  0  0  3  0  0  0  0  0  0
  192.7960  176.7040  139.6340 C   0  0  0  0  0  2  0  0  0  0  0  0
  192.4030  175.5100  136.9640 O   0  0  0  0  0  0  0  0  0  0  0  0
  193.3850  176.4760  137.2620 C   0  0  0  0  0  0  0  0  0  0  0  0
  194.2510  176.8840  136.2110 N   0  0  0  0  0  1  0  0  0  0  0  0
  190.6180  173.8160  137.2460 C   0  0  0  0  0  1  0  0  0  0  0  0
  191.2960  175.0550  137.7070 C   0  0  0  0  0  0  0  0  0  0  0  0
  193.5620  176.9990  138.4390 N   0  0  0  0  0  0  0  0  0  0  0  0
  190.8140  175.6610  138.7510 N   0  0  0  0  0  0  0  0  0  0  0  0
  185.5700  176.7060  136.7960 C   0  0  0  0  0  3  0  0  0  0  0  0
  186.7530  176.9250  137.4650 C   0  0  2  0  0  3  0  0  0  0  0  0
  187.4770  178.6450  139.1460 N   0  0  0  0  0  2  0  0  0  0  0  0
  185.2870  178.4610  138.0810 N   0  0  0  0  0  0  0  0  0  0  0  0
  184.7020  177.6620  137.1970 N   0  0  0  0  0  0  0  0  0  0  0  0
  187.9410  176.1510  137.3520 N   0  0  0  0  0  1  0  0  0  0  0  0
  186.5440  178.0260  138.2580 C   0  0  0  0  0  0  0  0  0  0  0  0
  187.7860  176.3090  143.6790 C   0  0  0  0  0  2  0  0  0  0  0  0
  187.5190  177.6430  144.3750 C   0  0  0  0  0  2  0  0  0  0  0  0
  187.8710  177.5910  145.8530 C   0  0  0  0  0  2  0  0  0  0  0  0
  186.4970  178.2310  146.8610 S   0  0  0  0  0  0  0  0  0  0  0  0
  185.4380  178.5190  145.4130 C   0  0  0  0  0  2  0  0  0  0  0  0
  184.2470  179.1250  145.8120 O   0  0  0  0  0  0  0  0  0  0  0  0
  184.1630  178.5910  143.4970 C   0  0  0  0  0  1  0  0  0  0  0  0
  183.3700  178.9050  144.7520 C   0  0  0  0  0  2  0  0  0  0  0  0
  1  4  2  0  0  0  0
  2  7  1  0  0  0  0
  3  8  1  1  0  0  0
  3  6  1  0  0  0  0
  4  5  1  0  0  0  0
  4  2  1  0  0  0  0
  5  3  1  0  0  0  0
  7  6  1  0  0  0  0
  7 25  1  1  0  0  0
  9 10  1  1  0  0  0
  9  5  1  0  0  0  0
 11 12  1  0  0  0  0
 11 15  1  0  0  0  0
 12 16  2  0  0  0  0
 13 12  1  0  0  0  0
 14 15  1  0  0  0  0
 15 17  2  0  0  0  0
 16 10  1  0  0  0  0
 17  9  1  0  0  0  0
 18 22  2  0  0  0  0
 18 19  1  0  0  0  0
 19 23  1  1  0  0  0
 19 24  1  0  0  0  0
 20  1  1  0  0  0  0
 21 24  2  0  0  0  0
 22 21  1  0  0  0  0
 24 20  1  0  0  0  0
 25 26  1  0  0  0  0
 26 27  1  0  0  0  0
 27 28  1  0  0  0  0
 29 30  1  0  0  0  0
 29 28  1  0  0  0  0
 31 32  1  0  0  0  0
 32 30  1  0  0  0  0
M  END
>  <MODEL>
2

>  <REMARK>
 VINA RESULT:      -7.6      1.666      2.176
  Name = 
  9 active torsions:
  status: ('A' for Active; 'I' for Inactive)
    1  A    between atoms: N_1  and  N_5
    2  A    between atoms: C_6  and  S_25
    3  A    between atoms: C_6  and  O_28
    4  A    between atoms: C_9  and  N_12
    5  A    between atoms: C_11  and  S_25
    6  A    between atoms: C_11  and  C_29
    7  A    between atoms: C_16  and  O_28
    8  A    between atoms: C_19  and  C_20
    9  A    between atoms: C_20  and  C_29
                            x       y       z     vdW  Elec       q    Type
                         _______ _______ _______ _____ _____    ______ ____

>  <TORSDO>
F 9

$$$$
=
 OpenBabel11042413113D

 32 34  0  0  1  0  0  0  0  0999 V2000
  186.8500  178.7460  140.2360 N   0  0  0  0  0  0  0  0  0  0  0  0
  187.2260  178.1680  142.5760 C   0  0  0  0  0  2  0  0  0  0  0  0
  189.8030  177.1720  141.7880 C   0  0  2  0  0  3  0  0  0  0  0  0
  187.6110  178.1910  141.1300 C   0  0  0  0  0  0  0  0  0  0  0  0
  188.8540  177.5820  140.7470 N   0  0  0  0  0  0  0  0  0  0  0  0
  189.1070  176.4440  142.9490 C   0  0  0  0  0  2  0  0  0  0  0  0
  187.6270  176.8130  143.1600 C   0  0  1  0  0  3  0  0  0  0  0  0
  190.5500  178.3830  142.3200 C   0  0  0  0  0  1  0  0  0  0  0  0
  189.1120  177.2650  139.3440 C   0  0  1  0  0  3  0  0  0  0  0  0
  189.2760  178.5230  138.5290 C   0  0  0  0  0  2  0  0  0  0  0  0
  190.3260  176.3470  136.8340 O   0  0  0  0  0  0  0  0  0  0  0  0
  189.3550  177.2790  136.4150 C   0  0  0  0  0  0  0  0  0  0  0  0
  188.8670  177.1710  135.0830 N   0  0  0  0  0  1  0  0  0  0  0  0
  192.0760  175.2310  138.1850 C   0  0  0  0  0  1  0  0  0  0  0  0
  190.8490  176.0660  138.1120 C   0  0  0  0  0  0  0  0  0  0  0  0
  188.8950  178.2400  137.1590 N   0  0  0  0  0  0  0  0  0  0  0  0
  190.3160  176.4660  139.2270 N   0  0  0  0  0  0  0  0  0  0  0  0
  183.0590  178.6000  138.1720 C   0  0  0  0  0  3  0  0  0  0  0  0
  184.3610  178.4580  138.5940 C   0  0  2  0  0  3  0  0  0  0  0  0
  185.6300  179.3510  140.5680 N   0  0  0  0  0  2  0  0  0  0  0  0
  183.2830  179.7550  140.0230 N   0  0  0  0  0  0  0  0  0  0  0  0
  182.4340  179.3980  139.0680 N   0  0  0  0  0  0  0  0  0  0  0  0
  185.3760  177.6940  137.9530 N   0  0  0  0  0  1  0  0  0  0  0  0
  184.4690  179.1890  139.7500 C   0  0  0  0  0  0  0  0  0  0  0  0
  187.2010  176.6680  144.6210 C   0  0  0  0  0  2  0  0  0  0  0  0
  187.9470  177.6090  145.5660 C   0  0  0  0  0  2  0  0  0  0  0  0
  187.3290  177.6250  146.9550 C   0  0  0  0  0  2  0  0  0  0  0  0
  188.6160  177.8140  148.2270 S   0  0  0  0  0  0  0  0  0  0  0  0
  189.9030  177.0810  147.1760 C   0  0  0  0  0  2  0  0  0  0  0  0
  191.1170  177.0580  147.8610 O   0  0  0  0  0  0  0  0  0  0  0  0
  191.6930  176.4020  145.6500 C   0  0  0  0  0  1  0  0  0  0  0  0
  191.9130  176.1750  147.1340 C   0  0  0  0  0  2  0  0  0  0  0  0
  1 20  1  0  0  0  0
  1  4  2  0  0  0  0
  2  7  1  0  0  0  0
  3  8  1  1  0  0  0
  3  6  1  0  0  0  0
  4  2  1  0  0  0  0
  5  4  1  0  0  0  0
  5  3  1  0  0  0  0
  6  7  1  0  0  0  0
  7 25  1  1  0  0  0
  9 10  1  6  0  0  0
  9  5  1  0  0  0  0
 11 15  1  0  0  0  0
 12 11  1  0  0  0  0
 12 16  2  0  0  0  0
 13 12  1  0  0  0  0
 15 14  1  0  0  0  0
 15 17  2  0  0  0  0
 16 10  1  0  0  0  0
 17  9  1  0  0  0  0
 18 19  1  0  0  0  0
 18 22  2  0  0  0  0
 19 23  1  1  0  0  0
 19 24  1  0  0  0  0
 22 21  1  0  0  0  0
 24 21  2  0  0  0  0
 24 20  1  0  0  0  0
 25 26  1  0  0  0  0
 26 27  1  0  0  0  0
 27 28  1  0  0  0  0
 29 30  1  0  0  0  0
 29 28  1  0  0  0  0
 31 32  1  0  0  0  0
 32 30  1  0  0  0  0
M  END
>  <MODEL>
3

>  <REMARK>
 VINA RESULT:      -7.5      2.036      2.943
  Name = 
  9 active torsions:
  status: ('A' for Active; 'I' for Inactive)
    1  A    between atoms: N_1  and  N_5
    2  A    between atoms: C_6  and  S_25
    3  A    between atoms: C_6  and  O_28
    4  A    between atoms: C_9  and  N_12
    5  A    between atoms: C_11  and  S_25
    6  A    between atoms: C_11  and  C_29
    7  A    between atoms: C_16  and  O_28
    8  A    between atoms: C_19  and  C_20
    9  A    between atoms: C_20  and  C_29
                            x       y       z     vdW  Elec       q    Type
                         _______ _______ _______ _____ _____    ______ ____

>  <TORSDO>
F 9

$$$$
=
 OpenBabel11042413113D

 32 34  0  0  1  0  0  0  0  0999 V2000
  187.6600  178.0900  141.7310 N   0  0  0  0  0  0  0  0  0  0  0  0
  189.8410  177.3740  140.9060 C   0  0  0  0  0  2  0  0  0  0  0  0
  190.3910  176.4120  143.5570 C   0  0  2  0  0  3  0  0  0  0  0  0
  188.8260  177.5800  141.9870 C   0  0  0  0  0  0  0  0  0  0  0  0
  189.1730  177.1950  143.3270 N   0  0  0  0  0  0  0  0  0  0  0  0
  191.5870  176.9570  142.7590 C   0  0  0  0  0  2  0  0  0  0  0  0
  191.2210  177.7160  141.4690 C   0  0  1  0  0  3  0  0  0  0  0  0
  190.1550  174.9570  143.1920 C   0  0  0  0  0  1  0  0  0  0  0  0
  188.3830  177.6850  144.4550 C   0  0  1  0  0  3  0  0  0  0  0  0
  187.1040  176.8990  144.5990 C   0  0  0  0  0  2  0  0  0  0  0  0
  187.4170  178.3600  147.1440 O   0  0  0  0  0  0  0  0  0  0  0  0
  186.2510  178.3890  146.3520 C   0  0  0  0  0  0  0  0  0  0  0  0
  185.1520  179.1580  146.8240 N   0  0  0  0  0  1  0  0  0  0  0  0
  189.6450  177.7160  148.0150 C   0  0  0  0  0  1  0  0  0  0  0  0
  188.7100  177.8710  146.8700 C   0  0  0  0  0  0  0  0  0  0  0  0
  186.1110  177.7430  145.2340 N   0  0  0  0  0  0  0  0  0  0  0  0
  189.1450  177.5740  145.6830 N   0  0  0  0  0  0  0  0  0  0  0  0
  183.7320  178.9540  140.1570 C   0  0  0  0  0  3  0  0  0  0  0  0
  184.8260  178.6290  140.9270 C   0  0  2  0  0  3  0  0  0  0  0  0
  187.2840  178.4770  140.4370 N   0  0  0  0  0  2  0  0  0  0  0  0
  185.5080  179.0820  138.8740 N   0  0  0  0  0  0  0  0  0  0  0  0
  184.1880  179.2230  138.9120 N   0  0  0  0  0  0  0  0  0  0  0  0
  184.8110  178.2810  142.3070 N   0  0  0  0  0  1  0  0  0  0  0  0
  185.9170  178.7180  140.0990 C   0  0  0  0  0  0  0  0  0  0  0  0
  192.3180  177.6090  140.4100 C   0  0  0  0  0  2  0  0  0  0  0  0
  191.8310  177.0060  139.0920 C   0  0  0  0  0  2  0  0  0  0  0  0
  192.9820  176.4820  138.2490 C   0  0  0  0  0  2  0  0  0  0  0  0
  192.3800  175.9030  136.6320 S   0  0  0  0  0  0  0  0  0  0  0  0
  190.6360  176.0720  137.1100 C   0  0  0  0  0  2  0  0  0  0  0  0
  190.0040  176.9920  136.2730 O   0  0  0  0  0  0  0  0  0  0  0  0
  188.9880  178.9300  137.2050 C   0  0  0  0  0  1  0  0  0  0  0  0
  188.9000  177.4280  137.0030 C   0  0  0  0  0  2  0  0  0  0  0  0
  1  4  2  0  0  0  0
  2  7  1  0  0  0  0
  2  4  1  0  0  0  0
  3  8  1  6  0  0  0
  4  5  1  0  0  0  0
  5  3  1  0  0  0  0
  6  3  1  0  0  0  0
  7 25  1  6  0  0  0
  7  6  1  0  0  0  0
  9  5  1  6  0  0  0
  9 10  1  0  0  0  0
  9 17  1  0  0  0  0
 10 16  1  0  0  0  0
 12 13  1  0  0  0  0
 12 11  1  0  0  0  0
 15 11  1  0  0  0  0
 15 14  1  0  0  0  0
 16 12  2  0  0  0  0
 17 15  2  0  0  0  0
 18 19  1  0  0  0  0
 19 23  1  1  0  0  0
 20  1  1  0  0  0  0
 21 22  1  0  0  0  0
 21 24  2  0  0  0  0
 22 18  2  0  0  0  0
 24 20  1  0  0  0  0
 24 19  1  0  0  0  0
 26 25  1  0  0  0  0
 27 26  1  0  0  0  0
 28 29  1  0  0  0  0
 28 27  1  0  0  0  0
 30 32  1  0  0  0  0
 30 29  1  0  0  0  0
 32 31  1  0  0  0  0
M  END
>  <MODEL>
4

>  <REMARK>
 VINA RESULT:      -7.1      3.265      7.274
  Name = 
  9 active torsions:
  status: ('A' for Active; 'I' for Inactive)
    1  A    between atoms: N_1  and  N_5
    2  A    between atoms: C_6  and  S_25
    3  A    between atoms: C_6  and  O_28
    4  A    between atoms: C_9  and  N_12
    5  A    between atoms: C_11  and  S_25
    6  A    between atoms: C_11  and  C_29
    7  A    between atoms: C_16  and  O_28
    8  A    between atoms: C_19  and  C_20
    9  A    between atoms: C_20  and  C_29
                            x       y       z     vdW  Elec       q    Type
                         _______ _______ _______ _____ _____    ______ ____

>  <TORSDO>
F 9

$$$$
=
 OpenBabel11042413113D

 32 34  0  0  1  0  0  0  0  0999 V2000
  191.1300  177.2850  139.4810 N   0  0  0  0  0  0  0  0  0  0  0  0
  191.5080  177.4960  141.8810 C   0  0  0  0  0  2  0  0  0  0  0  0
  188.6550  177.6000  142.1980 C   0  0  2  0  0  3  0  0  0  0  0  0
  190.6340  177.4630  140.6670 C   0  0  0  0  0  0  0  0  0  0  0  0
  189.2190  177.6340  140.8440 N   0  0  0  0  0  0  0  0  0  0  0  0
  189.4900  178.4230  143.1920 C   0  0  0  0  0  2  0  0  0  0  0  0
  190.9790  178.5730  142.8290 C   0  0  1  0  0  3  0  0  0  0  0  0
  188.5510  176.1650  142.6850 C   0  0  0  0  0  1  0  0  0  0  0  0
  188.3720  177.9600  139.6980 C   0  0  1  0  0  3  0  0  0  0  0  0
  188.2610  176.7840  138.7590 C   0  0  0  0  0  2  0  0  0  0  0  0
  186.0980  178.6290  137.9670 O   0  0  0  0  0  0  0  0  0  0  0  0
  187.0510  178.0980  137.0760 C   0  0  0  0  0  0  0  0  0  0  0  0
  186.9490  178.4620  135.7050 N   0  0  0  0  0  1  0  0  0  0  0  0
  184.7580  179.0080  140.0160 C   0  0  0  0  0  1  0  0  0  0  0  0
  186.0420  178.6240  139.3760 C   0  0  0  0  0  0  0  0  0  0  0  0
  188.0020  177.2820  137.4230 N   0  0  0  0  0  0  0  0  0  0  0  0
  187.0450  178.3320  140.1470 N   0  0  0  0  0  0  0  0  0  0  0  0
  193.2070  174.1630  137.3390 C   0  0  0  0  0  3  0  0  0  0  0  0
  192.2880  174.9960  137.9350 C   0  0  2  0  0  3  0  0  0  0  0  0
  192.5050  177.1140  139.2660 N   0  0  0  0  0  2  0  0  0  0  0  0
  194.3170  175.7920  138.3010 N   0  0  0  0  0  0  0  0  0  0  0  0
  194.4320  174.6800  137.5850 N   0  0  0  0  0  0  0  0  0  0  0  0
  190.8740  174.8370  137.9220 N   0  0  0  0  0  1  0  0  0  0  0  0
  193.0110  176.0020  138.5260 C   0  0  0  0  0  0  0  0  0  0  0  0
  191.8590  178.7330  144.0680 C   0  0  0  0  0  2  0  0  0  0  0  0
  191.2280  178.1620  145.3370 C   0  0  0  0  0  2  0  0  0  0  0  0
  191.6790  176.7340  145.6020 C   0  0  0  0  0  2  0  0  0  0  0  0
  191.4250  176.2950  147.3490 S   0  0  0  0  0  0  0  0  0  0  0  0
  189.6670  176.7500  147.3100 C   0  0  0  0  0  2  0  0  0  0  0  0
  189.4190  177.7560  148.2440 O   0  0  0  0  0  0  0  0  0  0  0  0
  187.6920  177.6520  146.6120 C   0  0  0  0  0  1  0  0  0  0  0  0
  188.1160  178.1700  147.9740 C   0  0  0  0  0  2  0  0  0  0  0  0
  1  4  2  0  0  0  0
  2  7  1  0  0  0  0
  3  8  1  1  0  0  0
  3  6  1  0  0  0  0
  4  5  1  0  0  0  0
  4  2  1  0  0  0  0
  5  3  1  0  0  0  0
  7  6  1  0  0  0  0
  7 25  1  1  0  0  0
  9 10  1  6  0  0  0
  9 17  1  0  0  0  0
  9  5  1  0  0  0  0
 11 15  1  0  0  0  0
 12 16  2  0  0  0  0
 12 11  1  0  0  0  0
 13 12  1  0  0  0  0
 15 14  1  0  0  0  0
 15 17  2  0  0  0  0
 16 10  1  0  0  0  0
 18 22  2  0  0  0  0
 18 19  1  0  0  0  0
 19 23  1  6  0  0  0
 19 24  1  0  0  0  0
 20  1  1  0  0  0  0
 21 24  2  0  0  0  0
 22 21  1  0  0  0  0
 24 20  1  0  0  0  0
 25 26  1  0  0  0  0
 26 27  1  0  0  0  0
 27 28  1  0  0  0  0
 29 28  1  0  0  0  0
 29 30  1  0  0  0  0
 31 32  1  0  0  0  0
 32 30  1  0  0  0  0
M  END
>  <MODEL>
5

>  <REMARK>
 VINA RESULT:      -7.0      2.719      5.865
  Name = 
  9 active torsions:
  status: ('A' for Active; 'I' for Inactive)
    1  A    between atoms: N_1  and  N_5
    2  A    between atoms: C_6  and  S_25
    3  A    between atoms: C_6  and  O_28
    4  A    between atoms: C_9  and  N_12
    5  A    between atoms: C_11  and  S_25
    6  A    between atoms: C_11  and  C_29
    7  A    between atoms: C_16  and  O_28
    8  A    between atoms: C_19  and  C_20
    9  A    between atoms: C_20  and  C_29
                            x       y       z     vdW  Elec       q    Type
                         _______ _______ _______ _____ _____    ______ ____

>  <TORSDO>
F 9

$$$$
=
 OpenBabel11042413113D

 32 34  0  0  1  0  0  0  0  0999 V2000
  187.7070  177.9670  141.7990 N   0  0  0  0  0  0  0  0  0  0  0  0
  189.8720  177.2580  140.9270 C   0  0  0  0  0  2  0  0  0  0  0  0
  190.4900  176.3150  143.5690 C   0  0  2  0  0  3  0  0  0  0  0  0
  188.8810  177.4640  142.0300 C   0  0  0  0  0  0  0  0  0  0  0  0
  189.2620  177.0900  143.3640 N   0  0  0  0  0  0  0  0  0  0  0  0
  191.6630  176.8610  142.7400 C   0  0  0  0  0  2  0  0  0  0  0  0
  191.2630  177.6100  141.4550 C   0  0  1  0  0  3  0  0  0  0  0  0
  190.2530  174.8560  143.2190 C   0  0  0  0  0  1  0  0  0  0  0  0
  188.4960  177.5820  144.5080 C   0  0  1  0  0  3  0  0  0  0  0  0
  187.2510  176.7570  144.7180 C   0  0  0  0  0  2  0  0  0  0  0  0
  187.6040  178.2940  147.2120 O   0  0  0  0  0  0  0  0  0  0  0  0
  186.4100  178.2630  146.4630 C   0  0  0  0  0  0  0  0  0  0  0  0
  185.3020  179.0070  146.9560 N   0  0  0  0  0  1  0  0  0  0  0  0
  189.8820  177.7490  148.0170 C   0  0  0  0  0  1  0  0  0  0  0  0
  188.9030  177.8430  146.9040 C   0  0  0  0  0  0  0  0  0  0  0  0
  186.2520  177.5830  145.3670 N   0  0  0  0  0  0  0  0  0  0  0  0
  189.3050  177.5290  145.7090 N   0  0  0  0  0  0  0  0  0  0  0  0
  183.7660  178.9900  140.3600 C   0  0  0  0  0  3  0  0  0  0  0  0
  184.8720  178.6280  141.0950 C   0  0  2  0  0  3  0  0  0  0  0  0
  187.2980  178.3440  140.5120 N   0  0  0  0  0  2  0  0  0  0  0  0
  185.4920  179.0030  139.0060 N   0  0  0  0  0  0  0  0  0  0  0  0
  184.1840  179.2100  139.0920 N   0  0  0  0  0  0  0  0  0  0  0  0
  184.8960  178.3110  142.4820 N   0  0  0  0  0  1  0  0  0  0  0  0
  185.9320  178.6450  140.2230 C   0  0  0  0  0  0  0  0  0  0  0  0
  192.3340  177.5030  140.3710 C   0  0  0  0  0  2  0  0  0  0  0  0
  191.8630  176.7540  139.1250 C   0  0  0  0  0  2  0  0  0  0  0  0
  193.0020  176.5020  138.1500 C   0  0  0  0  0  2  0  0  0  0  0  0
  192.9220  174.8060  137.4950 S   0  0  0  0  0  0  0  0  0  0  0  0
  194.7130  174.7310  137.1990 C   0  0  0  0  0  2  0  0  0  0  0  0
  195.3960  175.2490  138.2990 O   0  0  0  0  0  0  0  0  0  0  0  0
  196.2580  173.0470  138.0480 C   0  0  0  0  0  1  0  0  0  0  0  0
  195.8080  174.1260  139.0150 C   0  0  0  0  0  2  0  0  0  0  0  0
  1  4  2  0  0  0  0
  2  7  1  0  0  0  0
  2  4  1  0  0  0  0
  3  8  1  6  0  0  0
  4  5  1  0  0  0  0
  5  3  1  0  0  0  0
  6  3  1  0  0  0  0
  7 25  1  6  0  0  0
  7  6  1  0  0  0  0
  9  5  1  6  0  0  0
  9 10  1  0  0  0  0
  9 17  1  0  0  0  0
 10 16  1  0  0  0  0
 12 13  1  0  0  0  0
 12 11  1  0  0  0  0
 15 11  1  0  0  0  0
 15 14  1  0  0  0  0
 16 12  2  0  0  0  0
 17 15  2  0  0  0  0
 18 19  1  0  0  0  0
 19 23  1  1  0  0  0
 20  1  1  0  0  0  0
 21 22  1  0  0  0  0
 21 24  2  0  0  0  0
 22 18  2  0  0  0  0
 24 20  1  0  0  0  0
 24 19  1  0  0  0  0
 26 25  1  0  0  0  0
 27 26  1  0  0  0  0
 28 27  1  0  0  0  0
 29 28  1  0  0  0  0
 29 30  1  0  0  0  0
 30 32  1  0  0  0  0
 31 32  1  0  0  0  0
M  END
>  <MODEL>
6

>  <REMARK>
 VINA RESULT:      -6.8      3.576      8.118
  Name = 
  9 active torsions:
  status: ('A' for Active; 'I' for Inactive)
    1  A    between atoms: N_1  and  N_5
    2  A    between atoms: C_6  and  S_25
    3  A    between atoms: C_6  and  O_28
    4  A    between atoms: C_9  and  N_12
    5  A    between atoms: C_11  and  S_25
    6  A    between atoms: C_11  and  C_29
    7  A    between atoms: C_16  and  O_28
    8  A    between atoms: C_19  and  C_20
    9  A    between atoms: C_20  and  C_29
                            x       y       z     vdW  Elec       q    Type
                         _______ _______ _______ _____ _____    ______ ____

>  <TORSDO>
F 9

$$$$
=
 OpenBabel11042413113D

 32 34  0  0  1  0  0  0  0  0999 V2000
  186.3870  178.5240  139.8960 N   0  0  0  0  0  0  0  0  0  0  0  0
  188.8060  178.3520  140.1570 C   0  0  0  0  0  2  0  0  0  0  0  0
  188.8980  177.3250  137.4750 C   0  0  2  0  0  3  0  0  0  0  0  0
  187.5280  178.1500  139.4040 C   0  0  0  0  0  0  0  0  0  0  0  0
  187.5920  177.5260  138.1120 N   0  0  0  0  0  0  0  0  0  0  0  0
  189.9410  176.7750  138.4610 C   0  0  0  0  0  2  0  0  0  0  0  0
  189.6930  177.1250  139.9400 C   0  0  1  0  0  3  0  0  0  0  0  0
  189.3960  178.6300  136.8790 C   0  0  0  0  0  1  0  0  0  0  0  0
  186.3780  176.9910  137.4970 C   0  0  1  0  0  3  0  0  0  0  0  0
  186.2230  177.4950  136.0840 C   0  0  0  0  0  2  0  0  0  0  0  0
  184.3550  175.2220  136.3170 O   0  0  0  0  0  0  0  0  0  0  0  0
  183.9900  176.5030  135.8550 C   0  0  0  0  0  0  0  0  0  0  0  0
  182.6390  176.7020  135.4590 N   0  0  0  0  0  1  0  0  0  0  0  0
  185.7310  173.2980  137.0500 C   0  0  0  0  0  1  0  0  0  0  0  0
  185.5270  174.7660  136.9520 C   0  0  0  0  0  0  0  0  0  0  0  0
  184.8130  177.5030  135.7470 N   0  0  0  0  0  0  0  0  0  0  0  0
  186.4240  175.5430  137.4800 N   0  0  0  0  0  0  0  0  0  0  0  0
  183.0470  178.6280  142.6330 C   0  0  0  0  0  3  0  0  0  0  0  0
  183.9140  178.4210  141.5840 C   0  0  2  0  0  3  0  0  0  0  0  0
  186.2830  179.1360  141.1540 N   0  0  0  0  0  2  0  0  0  0  0  0
  184.9300  179.6400  143.1240 N   0  0  0  0  0  0  0  0  0  0  0  0
  183.7010  179.3750  143.5500 N   0  0  0  0  0  0  0  0  0  0  0  0
  183.6450  177.6790  140.4000 N   0  0  0  0  0  1  0  0  0  0  0  0
  185.0790  179.0640  141.9210 C   0  0  0  0  0  0  0  0  0  0  0  0
  190.9950  177.2080  140.7370 C   0  0  0  0  0  2  0  0  0  0  0  0
  190.7760  177.3170  142.2450 C   0  0  0  0  0  2  0  0  0  0  0  0
  190.1630  176.0510  142.8220 C   0  0  0  0  0  2  0  0  0  0  0  0
  188.4960  176.3840  143.4710 S   0  0  0  0  0  0  0  0  0  0  0  0
  189.1130  177.5200  144.7480 C   0  0  0  0  0  2  0  0  0  0  0  0
  188.3420  177.3940  145.9030 O   0  0  0  0  0  0  0  0  0  0  0  0
  188.6790  177.8780  148.2070 C   0  0  0  0  0  1  0  0  0  0  0  0
  189.2730  177.3000  146.9360 C   0  0  0  0  0  2  0  0  0  0  0  0
  1 20  1  0  0  0  0
  3  8  1  1  0  0  0
  3  5  1  0  0  0  0
  3  6  1  0  0  0  0
  4  1  2  0  0  0  0
  4  2  1  0  0  0  0
  5  4  1  0  0  0  0
  6  7  1  0  0  0  0
  7  2  1  0  0  0  0
  7 25  1  6  0  0  0
  9 10  1  6  0  0  0
  9  5  1  0  0  0  0
 11 15  1  0  0  0  0
 12 11  1  0  0  0  0
 13 12  1  0  0  0  0
 15 14  1  0  0  0  0
 15 17  2  0  0  0  0
 16 12  2  0  0  0  0
 16 10  1  0  0  0  0
 17  9  1  0  0  0  0
 18 22  2  0  0  0  0
 19 23  1  1  0  0  0
 19 24  1  0  0  0  0
 19 18  1  0  0  0  0
 20 24  1  0  0  0  0
 21 22  1  0  0  0  0
 24 21  2  0  0  0  0
 25 26  1  0  0  0  0
 26 27  1  0  0  0  0
 27 28  1  0  0  0  0
 28 29  1  0  0  0  0
 29 30  1  0  0  0  0
 30 32  1  0  0  0  0
 32 31  1  0  0  0  0
M  END
>  <MODEL>
7

>  <REMARK>
 VINA RESULT:      -6.6      2.713      4.475
  Name = 
  9 active torsions:
  status: ('A' for Active; 'I' for Inactive)
    1  A    between atoms: N_1  and  N_5
    2  A    between atoms: C_6  and  S_25
    3  A    between atoms: C_6  and  O_28
    4  A    between atoms: C_9  and  N_12
    5  A    between atoms: C_11  and  S_25
    6  A    between atoms: C_11  and  C_29
    7  A    between atoms: C_16  and  O_28
    8  A    between atoms: C_19  and  C_20
    9  A    between atoms: C_20  and  C_29
                            x       y       z     vdW  Elec       q    Type
                         _______ _______ _______ _____ _____    ______ ____

>  <TORSDO>
F 9

$$$$
=
 OpenBabel11042413113D

 32 34  0  0  1  0  0  0  0  0999 V2000
  184.4050  178.4490  142.0020 N   0  0  0  0  0  0  0  0  0  0  0  0
  185.2140  178.5890  139.7060 C   0  0  0  0  0  2  0  0  0  0  0  0
  182.5240  179.2240  138.9260 C   0  0  2  0  0  3  0  0  0  0  0  0
  184.1350  178.6100  140.7430 C   0  0  0  0  0  0  0  0  0  0  0  0
  182.7810  178.8140  140.3110 N   0  0  0  0  0  0  0  0  0  0  0  0
  183.3610  178.4190  137.9200 C   0  0  0  0  0  2  0  0  0  0  0  0
  184.6840  177.8570  138.4730 C   0  0  1  0  0  3  0  0  0  0  0  0
  182.8100  180.7060  138.7580 C   0  0  0  0  0  1  0  0  0  0  0  0
  181.6710  178.4980  141.2080 C   0  0  1  0  0  3  0  0  0  0  0  0
  180.8730  179.7360  141.5340 C   0  0  0  0  0  2  0  0  0  0  0  0
  179.1740  177.4670  142.3560 O   0  0  0  0  0  0  0  0  0  0  0  0
  179.5030  178.5540  143.1920 C   0  0  0  0  0  0  0  0  0  0  0  0
  178.9630  178.5620  144.5070 N   0  0  0  0  0  1  0  0  0  0  0  0
  178.9320  176.0480  140.3410 C   0  0  0  0  0  1  0  0  0  0  0  0
  179.6900  177.0700  141.1060 C   0  0  0  0  0  0  0  0  0  0  0  0
  180.2470  179.5560  142.8280 N   0  0  0  0  0  0  0  0  0  0  0  0
  180.7960  177.5200  140.5940 N   0  0  0  0  0  0  0  0  0  0  0  0
  185.9110  178.4000  146.0500 C   0  0  0  0  0  3  0  0  0  0  0  0
  185.1530  178.4670  144.9030 C   0  0  2  0  0  3  0  0  0  0  0  0
  185.7130  178.2470  142.4650 N   0  0  0  0  0  2  0  0  0  0  0  0
  187.2600  178.0900  144.3480 N   0  0  0  0  0  0  0  0  0  0  0  0
  187.1890  178.1700  145.6710 N   0  0  0  0  0  0  0  0  0  0  0  0
  183.7500  178.6880  144.8310 N   0  0  0  0  0  1  0  0  0  0  0  0
  186.0230  178.2700  143.8590 C   0  0  0  0  0  0  0  0  0  0  0  0
  185.7480  177.7180  137.3840 C   0  0  0  0  0  2  0  0  0  0  0  0
  187.1730  177.9170  137.9000 C   0  0  0  0  0  2  0  0  0  0  0  0
  187.9670  176.6210  137.8880 C   0  0  0  0  0  2  0  0  0  0  0  0
  189.6860  176.9170  138.4060 S   0  0  0  0  0  0  0  0  0  0  0  0
  189.1870  177.9170  139.8380 C   0  0  0  0  0  2  0  0  0  0  0  0
  188.8490  177.0820  140.9030 O   0  0  0  0  0  0  0  0  0  0  0  0
  189.9250  176.1100  142.7870 C   0  0  0  0  0  1  0  0  0  0  0  0
  189.8500  177.2990  141.8480 C   0  0  0  0  0  2  0  0  0  0  0  0
  1 20  1  0  0  0  0
  2  4  1  0  0  0  0
  3  8  1  1  0  0  0
  3  5  1  0  0  0  0
  4  1  2  0  0  0  0
  5  4  1  0  0  0  0
  6  7  1  0  0  0  0
  6  3  1  0  0  0  0
  7 25  1  6  0  0  0
  7  2  1  0  0  0  0
  9  5  1  6  0  0  0
  9 10  1  0  0  0  0
 10 16  1  0  0  0  0
 11 12  1  0  0  0  0
 12 13  1  0  0  0  0
 14 15  1  0  0  0  0
 15 11  1  0  0  0  0
 16 12  2  0  0  0  0
 17 15  2  0  0  0  0
 17  9  1  0  0  0  0
 19 23  1  1  0  0  0
 19 18  1  0  0  0  0
 20 24  1  0  0  0  0
 21 22  1  0  0  0  0
 22 18  2  0  0  0  0
 24 21  2  0  0  0  0
 24 19  1  0  0  0  0
 25 26  1  0  0  0  0
 27 26  1  0  0  0  0
 27 28  1  0  0  0  0
 28 29  1  0  0  0  0
 29 30  1  0  0  0  0
 30 32  1  0  0  0  0
 32 31  1  0  0  0  0
M  END
>  <MODEL>
8

>  <REMARK>
 VINA RESULT:      -6.5      3.735      8.563
  Name = 
  9 active torsions:
  status: ('A' for Active; 'I' for Inactive)
    1  A    between atoms: N_1  and  N_5
    2  A    between atoms: C_6  and  S_25
    3  A    between atoms: C_6  and  O_28
    4  A    between atoms: C_9  and  N_12
    5  A    between atoms: C_11  and  S_25
    6  A    between atoms: C_11  and  C_29
    7  A    between atoms: C_16  and  O_28
    8  A    between atoms: C_19  and  C_20
    9  A    between atoms: C_20  and  C_29
                            x       y       z     vdW  Elec       q    Type
                         _______ _______ _______ _____ _____    ______ ____

>  <TORSDO>
F 9

$$$$
=
 OpenBabel11042413113D

 32 34  0  0  1  0  0  0  0  0999 V2000
  187.8400  178.4990  141.3210 N   0  0  0  0  0  0  0  0  0  0  0  0
  185.4310  178.8660  141.2140 C   0  0  0  0  0  2  0  0  0  0  0  0
  185.4200  178.8090  144.0860 C   0  0  2  0  0  3  0  0  0  0  0  0
  186.7090  178.6010  141.9480 C   0  0  0  0  0  0  0  0  0  0  0  0
  186.6550  178.4610  143.3770 N   0  0  0  0  0  0  0  0  0  0  0  0
  184.1730  178.2530  143.3800 C   0  0  0  0  0  2  0  0  0  0  0  0
  184.3220  178.0380  141.8630 C   0  0  1  0  0  3  0  0  0  0  0  0
  185.3000  180.3170  144.2210 C   0  0  0  0  0  1  0  0  0  0  0  0
  187.7790  177.8650  144.0950 C   0  0  1  0  0  3  0  0  0  0  0  0
  189.0530  178.6280  143.8330 C   0  0  0  0  0  2  0  0  0  0  0  0
  189.6230  176.9350  146.1820 O   0  0  0  0  0  0  0  0  0  0  0  0
  190.4240  176.9760  145.0230 C   0  0  0  0  0  0  0  0  0  0  0  0
  191.5890  176.1620  144.9960 N   0  0  0  0  0  1  0  0  0  0  0  0
  187.8850  177.5030  147.8530 C   0  0  0  0  0  1  0  0  0  0  0  0
  188.3380  177.4530  146.4390 C   0  0  0  0  0  0  0  0  0  0  0  0
  190.1760  177.7250  143.9900 N   0  0  0  0  0  0  0  0  0  0  0  0
  187.5150  177.8620  145.5210 N   0  0  0  0  0  0  0  0  0  0  0  0
  190.6330  176.6790  138.5740 C   0  0  0  0  0  3  0  0  0  0  0  0
  189.9040  177.0940  139.6660 C   0  0  2  0  0  3  0  0  0  0  0  0
  187.9340  178.6300  139.9280 N   0  0  0  0  0  2  0  0  0  0  0  0
  189.0740  178.0420  137.8490 N   0  0  0  0  0  0  0  0  0  0  0  0
  190.0980  177.2790  137.4860 N   0  0  0  0  0  0  0  0  0  0  0  0
  190.1150  176.7040  141.0180 N   0  0  0  0  0  1  0  0  0  0  0  0
  188.9400  177.9430  139.1810 C   0  0  0  0  0  0  0  0  0  0  0  0
  182.9890  178.1850  141.1280 C   0  0  0  0  0  2  0  0  0  0  0  0
  182.7280  177.0710  140.1160 C   0  0  0  0  0  2  0  0  0  0  0  0
  181.3850  177.2360  139.4240 C   0  0  0  0  0  2  0  0  0  0  0  0
  180.5690  178.7700  139.9670 S   0  0  0  0  0  0  0  0  0  0  0  0
  179.2070  177.8770  140.7720 C   0  0  0  0  0  2  0  0  0  0  0  0
  179.5770  177.5210  142.0680 O   0  0  0  0  0  0  0  0  0  0  0  0
  180.4970  178.6050  143.9740 C   0  0  0  0  0  1  0  0  0  0  0  0
  179.5750  178.7220  142.7750 C   0  0  0  0  0  2  0  0  0  0  0  0
  1  4  2  0  0  0  0
  2  7  1  0  0  0  0
  2  4  1  0  0  0  0
  3  8  1  6  0  0  0
  4  5  1  0  0  0  0
  5  3  1  0  0  0  0
  6  3  1  0  0  0  0
  7 25  1  6  0  0  0
  7  6  1  0  0  0  0
  9  5  1  6  0  0  0
  9 17  1  0  0  0  0
 10 16  1  0  0  0  0
 10  9  1  0  0  0  0
 11 15  1  0  0  0  0
 12 11  1  0  0  0  0
 13 12  1  0  0  0  0
 15 14  1  0  0  0  0
 16 12  2  0  0  0  0
 17 15  2  0  0  0  0
 18 19  1  0  0  0  0
 19 23  1  6  0  0  0
 20  1  1  0  0  0  0
 21 24  2  0  0  0  0
 22 21  1  0  0  0  0
 22 18  2  0  0  0  0
 24 19  1  0  0  0  0
 24 20  1  0  0  0  0
 26 25  1  0  0  0  0
 27 28  1  0  0  0  0
 27 26  1  0  0  0  0
 28 29  1  0  0  0  0
 29 30  1  0  0  0  0
 30 32  1  0  0  0  0
 32 31  1  0  0  0  0
M  END
>  <MODEL>
9

>  <REMARK>
 VINA RESULT:      -6.3      3.341      6.763
  Name = 
  9 active torsions:
  status: ('A' for Active; 'I' for Inactive)
    1  A    between atoms: N_1  and  N_5
    2  A    between atoms: C_6  and  S_25
    3  A    between atoms: C_6  and  O_28
    4  A    between atoms: C_9  and  N_12
    5  A    between atoms: C_11  and  S_25
    6  A    between atoms: C_11  and  C_29
    7  A    between atoms: C_16  and  O_28
    8  A    between atoms: C_19  and  C_20
    9  A    between atoms: C_20  and  C_29
                            x       y       z     vdW  Elec       q    Type
                         _______ _______ _______ _____ _____    ______ ____

>  <TORSDO>
F 9

$$$$
