=
 OpenBabel11042412263D

 26 29  0  0  1  0  0  0  0  0999 V2000
  188.9160  178.1380  147.7400 N   0  0  0  0  0  2  0  0  0  0  0  0
  189.4800  176.9160  147.1770 C   0  0  0  0  0  2  0  0  0  0  0  0
  187.3690  177.3650  145.1660 C   0  0  2  0  0  3  0  0  0  0  0  0
  186.1510  178.0630  144.6540 N   0  0  0  0  0  0  0  0  0  0  0  0
  190.4110  177.2080  145.9970 C   0  0  0  0  0  2  0  0  0  0  0  0
  187.5280  177.8310  148.0810 C   0  0  0  0  0  2  0  0  0  0  0  0
  186.5250  178.4700  147.1000 C   0  0  0  0  0  2  0  0  0  0  0  0
  189.7900  178.0780  144.8860 C   0  0  2  0  0  3  0  0  0  0  0  0
  187.0800  178.6130  145.6860 C   0  0  1  0  0  3  0  0  0  0  0  0
  188.5450  177.4780  144.2040 C   0  0  0  0  0  2  0  0  0  0  0  0
  185.0170  178.1470  142.4400 C   0  0  2  0  0  3  0  0  0  0  0  0
  185.0990  179.4880  140.5870 N   0  0  0  0  0  0  0  0  0  0  0  0
  182.9970  178.7750  143.1300 N   0  0  0  0  0  0  0  0  0  0  0  0
  183.7380  178.5300  144.2340 C   0  0  0  0  0  3  0  0  0  0  0  0
  185.0040  178.1410  143.8160 C   0  0  0  0  0  0  0  0  0  0  0  0
  185.9910  178.7530  141.4940 C   0  0  0  0  0  3  0  0  0  0  0  0
  183.7880  178.5560  142.0630 C   0  0  1  0  0  3  0  0  0  0  0  0
  183.8740  179.3890  140.9240 N   0  0  0  0  0  2  0  0  0  0  0  0
  180.6700  178.6100  143.8320 C   0  0  0  0  0  1  0  0  0  0  0  0
  181.7130  179.4600  143.1300 C   0  0  0  0  0  2  0  0  0  0  0  0
  192.0780  178.8720  144.4720 N   0  0  0  0  0  1  0  0  0  0  0  0
  190.8220  178.5040  143.8380 C   0  0  1  0  0  3  0  0  0  0  0  0
  191.0470  177.4720  142.7730 C   0  0  0  0  0  0  0  0  0  0  0  0
  190.6220  176.6870  140.4170 C   0  0  0  0  0  1  0  0  0  0  0  0
  190.4600  177.6590  141.4860 N   0  0  0  0  0  2  0  0  0  0  0  0
  191.7270  176.4380  143.0200 O   0  0  0  0  0  0  0  0  0  0  0  0
  1  6  1  0  0  0  0
  2  1  1  0  0  0  0
  3 10  1  6  0  0  0
  3  9  1  0  0  0  0
  4  3  1  0  0  0  0
  4  9  1  0  0  0  0
  5  2  1  0  0  0  0
  7  6  1  0  0  0  0
  8 22  1  6  0  0  0
  8  5  1  0  0  0  0
  9  7  1  1  0  0  0
 10  8  1  0  0  0  0
 11 16  1  1  0  0  0
 11 15  1  0  0  0  0
 12 18  1  0  0  0  0
 12 16  2  0  0  0  0
 13 14  1  0  0  0  0
 15 14  2  0  0  0  0
 15  4  1  0  0  0  0
 17 18  1  1  0  0  0
 17 11  1  0  0  0  0
 17 13  1  0  0  0  0
 20 13  1  0  0  0  0
 20 19  1  0  0  0  0
 22 21  1  1  0  0  0
 23 26  2  0  0  0  0
 23 22  1  0  0  0  0
 24 25  1  0  0  0  0
 25 23  1  0  0  0  0
M  END
>  <MODEL>
1

>  <REMARK>
 VINA RESULT:      -8.7      0.000      0.000
  Name = 
  4 active torsions:
  status: ('A' for Active; 'I' for Inactive)
    1  A    between atoms: C_7  and  C_25
    2  A    between atoms: N_8  and  C_16
    3  A    between atoms: N_11  and  C_14
    4  A    between atoms: C_23  and  C_25
                            x       y       z     vdW  Elec       q    Type
                         _______ _______ _______ _____ _____    ______ ____

>  <TORSDO>
F 4

$$$$
=
 OpenBabel11042412263D

 26 29  0  0  1  0  0  0  0  0999 V2000
  187.5450  178.5640  147.4250 N   0  0  0  0  0  2  0  0  0  0  0  0
  188.0290  177.2100  147.1720 C   0  0  0  0  0  2  0  0  0  0  0  0
  186.3090  177.4890  144.7920 C   0  0  2  0  0  3  0  0  0  0  0  0
  185.2760  178.1960  143.9760 N   0  0  0  0  0  0  0  0  0  0  0  0
  189.1520  177.1920  146.1310 C   0  0  0  0  0  2  0  0  0  0  0  0
  186.0950  178.4590  147.5750 C   0  0  0  0  0  2  0  0  0  0  0  0
  185.3340  179.0030  146.3500 C   0  0  0  0  0  2  0  0  0  0  0  0
  188.8150  177.9010  144.8050 C   0  0  2  0  0  3  0  0  0  0  0  0
  186.1040  178.8330  145.0440 C   0  0  1  0  0  3  0  0  0  0  0  0
  187.6190  177.3100  144.0330 C   0  0  0  0  0  2  0  0  0  0  0  0
  184.5260  178.2520  141.6040 C   0  0  2  0  0  3  0  0  0  0  0  0
  184.8570  179.6130  139.7940 N   0  0  0  0  0  0  0  0  0  0  0  0
  182.3920  178.7820  141.9470 N   0  0  0  0  0  0  0  0  0  0  0  0
  182.9490  178.5600  143.1590 C   0  0  0  0  0  3  0  0  0  0  0  0
  184.2830  178.2310  142.9590 C   0  0  0  0  0  0  0  0  0  0  0  0
  185.6160  178.9100  140.8360 C   0  0  0  0  0  3  0  0  0  0  0  0
  183.3610  178.6090  141.0270 C   0  0  1  0  0  3  0  0  0  0  0  0
  183.5980  179.4560  139.9200 N   0  0  0  0  0  2  0  0  0  0  0  0
  180.1080  178.3900  141.2000 C   0  0  0  0  0  1  0  0  0  0  0  0
  181.0970  179.4090  141.7330 C   0  0  0  0  0  2  0  0  0  0  0  0
  191.2490  177.6470  144.5920 N   0  0  0  0  0  1  0  0  0  0  0  0
  190.0350  178.0260  143.8880 C   0  0  1  0  0  3  0  0  0  0  0  0
  189.8980  177.2540  142.6090 C   0  0  0  0  0  0  0  0  0  0  0  0
  189.2700  177.2300  140.1700 C   0  0  0  0  0  1  0  0  0  0  0  0
  189.4440  177.9250  141.4350 N   0  0  0  0  0  2  0  0  0  0  0  0
  190.1590  176.0200  142.5800 O   0  0  0  0  0  0  0  0  0  0  0  0
  1  6  1  0  0  0  0
  2  1  1  0  0  0  0
  3 10  1  6  0  0  0
  3  9  1  0  0  0  0
  4  3  1  0  0  0  0
  4  9  1  0  0  0  0
  5  2  1  0  0  0  0
  7  6  1  0  0  0  0
  8 22  1  6  0  0  0
  8  5  1  0  0  0  0
  9  7  1  1  0  0  0
 10  8  1  0  0  0  0
 11 16  1  1  0  0  0
 11 15  1  0  0  0  0
 12 18  1  0  0  0  0
 12 16  2  0  0  0  0
 13 14  1  0  0  0  0
 15 14  2  0  0  0  0
 15  4  1  0  0  0  0
 17 18  1  1  0  0  0
 17 11  1  0  0  0  0
 17 13  1  0  0  0  0
 19 20  1  0  0  0  0
 20 13  1  0  0  0  0
 22 21  1  1  0  0  0
 23 22  1  0  0  0  0
 24 25  1  0  0  0  0
 25 23  1  0  0  0  0
 26 23  2  0  0  0  0
M  END
>  <MODEL>
2

>  <REMARK>
 VINA RESULT:      -8.1      1.272      1.335
  Name = 
  4 active torsions:
  status: ('A' for Active; 'I' for Inactive)
    1  A    between atoms: C_7  and  C_25
    2  A    between atoms: N_8  and  C_16
    3  A    between atoms: N_11  and  C_14
    4  A    between atoms: C_23  and  C_25
                            x       y       z     vdW  Elec       q    Type
                         _______ _______ _______ _____ _____    ______ ____

>  <TORSDO>
F 4

$$$$
=
 OpenBabel11042412263D

 26 29  0  0  1  0  0  0  0  0999 V2000
  189.5990  178.3090  139.8150 N   0  0  0  0  0  2  0  0  0  0  0  0
  188.4860  177.3980  139.5650 C   0  0  0  0  0  2  0  0  0  0  0  0
  188.6540  177.0580  142.4910 C   0  0  2  0  0  3  0  0  0  0  0  0
  189.3190  177.2560  143.8140 N   0  0  0  0  0  0  0  0  0  0  0  0
  187.1380  178.0400  139.9020 C   0  0  0  0  0  2  0  0  0  0  0  0
  190.6760  177.4960  140.3800 C   0  0  0  0  0  2  0  0  0  0  0  0
  190.8590  177.7290  141.8920 C   0  0  0  0  0  2  0  0  0  0  0  0
  187.0420  178.6330  141.3220 C   0  0  2  0  0  3  0  0  0  0  0  0
  189.5600  178.0960  142.6030 C   0  0  1  0  0  3  0  0  0  0  0  0
  187.2380  177.6210  142.4680 C   0  0  0  0  0  2  0  0  0  0  0  0
  188.6030  176.9960  146.1840 C   0  0  2  0  0  3  0  0  0  0  0  0
  187.7380  178.3540  147.8100 N   0  0  0  0  0  0  0  0  0  0  0  0
  190.6100  176.7250  147.1050 N   0  0  0  0  0  0  0  0  0  0  0  0
  190.7840  176.7400  145.7650 C   0  0  0  0  0  3  0  0  0  0  0  0
  189.5380  176.9120  145.1770 C   0  0  0  0  0  0  0  0  0  0  0  0
  187.5200  177.9910  146.4040 C   0  0  0  0  0  3  0  0  0  0  0  0
  189.2950  176.8980  147.3370 C   0  0  1  0  0  3  0  0  0  0  0  0
  188.7430  177.7550  148.3170 N   0  0  0  0  0  2  0  0  0  0  0  0
  192.6700  175.7000  147.9020 C   0  0  0  0  0  1  0  0  0  0  0  0
  191.6830  176.8380  148.0810 C   0  0  0  0  0  2  0  0  0  0  0  0
  185.0150  179.5530  140.2830 N   0  0  0  0  0  1  0  0  0  0  0  0
  185.7530  179.4340  141.5300 C   0  0  1  0  0  3  0  0  0  0  0  0
  184.8780  178.8790  142.6150 C   0  0  0  0  0  0  0  0  0  0  0  0
  184.1520  178.9320  145.0260 C   0  0  0  0  0  1  0  0  0  0  0  0
  184.9570  179.4360  143.9260 N   0  0  0  0  0  2  0  0  0  0  0  0
  184.1000  177.9150  142.3760 O   0  0  0  0  0  0  0  0  0  0  0  0
  1  6  1  0  0  0  0
  2  1  1  0  0  0  0
  2  5  1  0  0  0  0
  3 10  1  1  0  0  0
  3  9  1  0  0  0  0
  3  4  1  0  0  0  0
  4 15  1  0  0  0  0
  5  8  1  0  0  0  0
  6  7  1  0  0  0  0
  8 22  1  1  0  0  0
  8 10  1  0  0  0  0
  9  7  1  6  0  0  0
  9  4  1  0  0  0  0
 11 16  1  1  0  0  0
 11 17  1  0  0  0  0
 12 18  1  0  0  0  0
 13 17  1  0  0  0  0
 13 20  1  0  0  0  0
 14 13  1  0  0  0  0
 15 14  2  0  0  0  0
 15 11  1  0  0  0  0
 16 12  2  0  0  0  0
 17 18  1  1  0  0  0
 19 20  1  0  0  0  0
 22 21  1  6  0  0  0
 22 23  1  0  0  0  0
 23 25  1  0  0  0  0
 25 24  1  0  0  0  0
 26 23  2  0  0  0  0
M  END
>  <MODEL>
3

>  <REMARK>
 VINA RESULT:      -8.0      2.256      7.261
  Name = 
  4 active torsions:
  status: ('A' for Active; 'I' for Inactive)
    1  A    between atoms: C_7  and  C_25
    2  A    between atoms: N_8  and  C_16
    3  A    between atoms: N_11  and  C_14
    4  A    between atoms: C_23  and  C_25
                            x       y       z     vdW  Elec       q    Type
                         _______ _______ _______ _____ _____    ______ ____

>  <TORSDO>
F 4

$$$$
=
 OpenBabel11042412263D

 26 29  0  0  1  0  0  0  0  0999 V2000
  190.9930  175.9720  146.9950 N   0  0  0  0  0  2  0  0  0  0  0  0
  190.8440  177.3380  147.4830 C   0  0  0  0  0  2  0  0  0  0  0  0
  190.1440  177.8260  144.6600 C   0  0  2  0  0  3  0  0  0  0  0  0
  190.0310  177.4100  143.2290 N   0  0  0  0  0  0  0  0  0  0  0  0
  189.3760  177.7030  147.7190 C   0  0  0  0  0  2  0  0  0  0  0  0
  192.0560  176.0080  145.9910 C   0  0  0  0  0  2  0  0  0  0  0  0
  191.5130  175.8810  144.5540 C   0  0  0  0  0  2  0  0  0  0  0  0
  188.4480  177.4560  146.5140 C   0  0  2  0  0  3  0  0  0  0  0  0
  190.1160  176.4710  144.3880 C   0  0  1  0  0  3  0  0  0  0  0  0
  188.8010  178.2530  145.2430 C   0  0  0  0  0  2  0  0  0  0  0  0
  188.9590  178.4990  141.2650 C   0  0  2  0  0  3  0  0  0  0  0  0
  186.8770  178.5240  140.3170 N   0  0  0  0  0  0  0  0  0  0  0  0
  189.9690  177.3400  139.6560 N   0  0  0  0  0  0  0  0  0  0  0  0
  190.5410  176.9810  140.8260 C   0  0  0  0  0  3  0  0  0  0  0  0
  189.9170  177.6960  141.8400 C   0  0  0  0  0  0  0  0  0  0  0  0
  187.5290  178.6910  141.6210 C   0  0  0  0  0  3  0  0  0  0  0  0
  189.0090  178.2400  139.9420 C   0  0  1  0  0  3  0  0  0  0  0  0
  187.7080  178.2530  139.3890 N   0  0  0  0  0  2  0  0  0  0  0  0
  191.6170  176.3810  138.1420 C   0  0  0  0  0  1  0  0  0  0  0  0
  190.1430  176.6320  138.3970 C   0  0  0  0  0  2  0  0  0  0  0  0
  186.8080  178.7220  147.8330 N   0  0  0  0  0  1  0  0  0  0  0  0
  186.9710  177.6450  146.8710 C   0  0  1  0  0  3  0  0  0  0  0  0
  186.0940  177.8640  145.6740 C   0  0  0  0  0  0  0  0  0  0  0  0
  184.2100  179.1420  144.5960 C   0  0  0  0  0  1  0  0  0  0  0  0
  185.1050  178.8920  145.7130 N   0  0  0  0  0  2  0  0  0  0  0  0
  186.2130  177.1310  144.6540 O   0  0  0  0  0  0  0  0  0  0  0  0
  1  2  1  0  0  0  0
  2  5  1  0  0  0  0
  3 10  1  1  0  0  0
  4  9  1  0  0  0  0
  4  3  1  0  0  0  0
  6  1  1  0  0  0  0
  7  6  1  0  0  0  0
  8 22  1  1  0  0  0
  8  5  1  0  0  0  0
  9  7  1  6  0  0  0
  9  3  1  0  0  0  0
 10  8  1  0  0  0  0
 11 16  1  1  0  0  0
 11 15  1  0  0  0  0
 12 16  2  0  0  0  0
 13 17  1  0  0  0  0
 13 14  1  0  0  0  0
 14 15  2  0  0  0  0
 15  4  1  0  0  0  0
 17 18  1  1  0  0  0
 17 11  1  0  0  0  0
 18 12  1  0  0  0  0
 19 20  1  0  0  0  0
 20 13  1  0  0  0  0
 22 21  1  1  0  0  0
 23 25  1  0  0  0  0
 23 22  1  0  0  0  0
 24 25  1  0  0  0  0
 26 23  2  0  0  0  0
M  END
>  <MODEL>
4

>  <REMARK>
 VINA RESULT:      -7.8      2.269      5.741
  Name = 
  4 active torsions:
  status: ('A' for Active; 'I' for Inactive)
    1  A    between atoms: C_7  and  C_25
    2  A    between atoms: N_8  and  C_16
    3  A    between atoms: N_11  and  C_14
    4  A    between atoms: C_23  and  C_25
                            x       y       z     vdW  Elec       q    Type
                         _______ _______ _______ _____ _____    ______ ____

>  <TORSDO>
F 4

$$$$
=
 OpenBabel11042412263D

 26 29  0  0  1  0  0  0  0  0999 V2000
  185.4800  178.7280  144.9750 N   0  0  0  0  0  2  0  0  0  0  0  0
  185.6990  177.4690  145.6790 C   0  0  0  0  0  2  0  0  0  0  0  0
  187.6210  177.0570  143.4790 C   0  0  2  0  0  3  0  0  0  0  0  0
  188.2370  177.4250  142.1690 N   0  0  0  0  0  0  0  0  0  0  0  0
  186.9690  177.5080  146.5340 C   0  0  0  0  0  2  0  0  0  0  0  0
  184.9800  178.3740  143.6470 C   0  0  0  0  0  2  0  0  0  0  0  0
  186.0410  178.5740  142.5460 C   0  0  0  0  0  2  0  0  0  0  0  0
  188.2430  177.9340  145.7790 C   0  0  2  0  0  3  0  0  0  0  0  0
  187.4670  178.3600  143.0430 C   0  0  1  0  0  3  0  0  0  0  0  0
  188.6450  177.0180  144.6070 C   0  0  0  0  0  2  0  0  0  0  0  0
  190.3130  176.7400  140.9780 C   0  0  2  0  0  3  0  0  0  0  0  0
  192.4630  177.5060  140.8250 N   0  0  0  0  0  0  0  0  0  0  0  0
  189.6950  177.2740  138.9080 N   0  0  0  0  0  0  0  0  0  0  0  0
  188.6160  177.4450  139.7040 C   0  0  0  0  0  3  0  0  0  0  0  0
  188.9890  177.1180  141.0010 C   0  0  0  0  0  0  0  0  0  0  0  0
  191.4480  177.1750  141.8330 C   0  0  0  0  0  3  0  0  0  0  0  0
  190.7090  176.8670  139.6950 C   0  0  1  0  0  3  0  0  0  0  0  0
  192.0360  177.3510  139.6340 N   0  0  0  0  0  2  0  0  0  0  0  0
  188.9860  179.0310  137.3770 C   0  0  0  0  0  1  0  0  0  0  0  0
  189.8020  177.7620  137.5420 C   0  0  0  0  0  2  0  0  0  0  0  0
  189.0310  177.9530  148.1060 N   0  0  0  0  0  1  0  0  0  0  0  0
  189.4310  178.1500  146.7210 C   0  0  1  0  0  3  0  0  0  0  0  0
  190.6190  177.2990  146.3840 C   0  0  0  0  0  0  0  0  0  0  0  0
  192.1870  175.4410  147.0430 C   0  0  0  0  0  1  0  0  0  0  0  0
  191.0320  176.2860  147.3000 N   0  0  0  0  0  2  0  0  0  0  0  0
  191.2600  177.4950  145.3160 O   0  0  0  0  0  0  0  0  0  0  0  0
  1  2  1  0  0  0  0
  2  5  1  0  0  0  0
  3 10  1  1  0  0  0
  4  9  1  0  0  0  0
  4  3  1  0  0  0  0
  6  1  1  0  0  0  0
  7  6  1  0  0  0  0
  8  5  1  0  0  0  0
  8 22  1  1  0  0  0
  9  7  1  6  0  0  0
  9  3  1  0  0  0  0
 10  8  1  0  0  0  0
 11 15  1  0  0  0  0
 11 16  1  1  0  0  0
 12 16  2  0  0  0  0
 13 17  1  0  0  0  0
 13 14  1  0  0  0  0
 14 15  2  0  0  0  0
 15  4  1  0  0  0  0
 17 18  1  1  0  0  0
 17 11  1  0  0  0  0
 18 12  1  0  0  0  0
 19 20  1  0  0  0  0
 20 13  1  0  0  0  0
 22 21  1  1  0  0  0
 23 22  1  0  0  0  0
 23 25  1  0  0  0  0
 24 25  1  0  0  0  0
 26 23  2  0  0  0  0
M  END
>  <MODEL>
5

>  <REMARK>
 VINA RESULT:      -7.7      2.256      5.737
  Name = 
  4 active torsions:
  status: ('A' for Active; 'I' for Inactive)
    1  A    between atoms: C_7  and  C_25
    2  A    between atoms: N_8  and  C_16
    3  A    between atoms: N_11  and  C_14
    4  A    between atoms: C_23  and  C_25
                            x       y       z     vdW  Elec       q    Type
                         _______ _______ _______ _____ _____    ______ ____

>  <TORSDO>
F 4

$$$$
=
 OpenBabel11042412263D

 26 29  0  0  1  0  0  0  0  0999 V2000
  191.5490  177.3000  145.2360 N   0  0  0  0  0  2  0  0  0  0  0  0
  191.6810  176.0530  144.4900 C   0  0  0  0  0  2  0  0  0  0  0  0
  188.9560  176.7740  143.6190 C   0  0  2  0  0  3  0  0  0  0  0  0
  187.7140  177.6010  143.6940 N   0  0  0  0  0  0  0  0  0  0  0  0
  192.0190  176.3020  143.0180 C   0  0  0  0  0  2  0  0  0  0  0  0
  190.4310  177.1110  146.1580 C   0  0  0  0  0  2  0  0  0  0  0  0
  189.1680  177.8780  145.7180 C   0  0  0  0  0  2  0  0  0  0  0  0
  191.0630  177.2670  142.2910 C   0  0  2  0  0  3  0  0  0  0  0  0
  189.0530  178.0230  144.2040 C   0  0  1  0  0  3  0  0  0  0  0  0
  189.5910  176.8130  142.2350 C   0  0  0  0  0  2  0  0  0  0  0  0
  185.7450  177.9440  142.2110 C   0  0  2  0  0  3  0  0  0  0  0  0
  185.1370  179.4340  140.5850 N   0  0  0  0  0  0  0  0  0  0  0  0
  184.2900  178.6250  143.7510 N   0  0  0  0  0  0  0  0  0  0  0  0
  185.4110  178.2420  144.4020 C   0  0  0  0  0  3  0  0  0  0  0  0
  186.3290  177.8180  143.4510 C   0  0  0  0  0  0  0  0  0  0  0  0
  186.2620  178.5740  140.9680 C   0  0  0  0  0  3  0  0  0  0  0  0
  184.5170  178.4550  142.4350 C   0  0  1  0  0  3  0  0  0  0  0  0
  184.1750  179.3770  141.4200 N   0  0  0  0  0  2  0  0  0  0  0  0
  181.8680  178.7630  143.9680 C   0  0  0  0  0  1  0  0  0  0  0  0
  183.2000  179.3800  144.3500 C   0  0  0  0  0  2  0  0  0  0  0  0
  192.9100  177.1280  140.6770 N   0  0  0  0  0  1  0  0  0  0  0  0
  191.5640  177.6340  140.8910 C   0  0  1  0  0  3  0  0  0  0  0  0
  190.6460  177.1820  139.7940 C   0  0  0  0  0  0  0  0  0  0  0  0
  188.7410  177.7100  138.2320 C   0  0  0  0  0  1  0  0  0  0  0  0
  189.6740  178.0910  139.2790 N   0  0  0  0  0  2  0  0  0  0  0  0
  190.7150  176.0030  139.3500 O   0  0  0  0  0  0  0  0  0  0  0  0
  1  6  1  0  0  0  0
  2  1  1  0  0  0  0
  3 10  1  6  0  0  0
  3  4  1  0  0  0  0
  3  9  1  0  0  0  0
  4  9  1  0  0  0  0
  5  2  1  0  0  0  0
  7  6  1  0  0  0  0
  8 22  1  6  0  0  0
  8  5  1  0  0  0  0
  9  7  1  1  0  0  0
 10  8  1  0  0  0  0
 11 16  1  6  0  0  0
 11 17  1  0  0  0  0
 11 15  1  0  0  0  0
 12 16  2  0  0  0  0
 12 18  1  0  0  0  0
 13 20  1  0  0  0  0
 13 14  1  0  0  0  0
 15  4  1  0  0  0  0
 15 14  2  0  0  0  0
 17 18  1  6  0  0  0
 17 13  1  0  0  0  0
 19 20  1  0  0  0  0
 22 21  1  6  0  0  0
 23 22  1  0  0  0  0
 24 25  1  0  0  0  0
 25 23  1  0  0  0  0
 26 23  2  0  0  0  0
M  END
>  <MODEL>
6

>  <REMARK>
 VINA RESULT:      -7.6      1.781      2.570
  Name = 
  4 active torsions:
  status: ('A' for Active; 'I' for Inactive)
    1  A    between atoms: C_7  and  C_25
    2  A    between atoms: N_8  and  C_16
    3  A    between atoms: N_11  and  C_14
    4  A    between atoms: C_23  and  C_25
                            x       y       z     vdW  Elec       q    Type
                         _______ _______ _______ _____ _____    ______ ____

>  <TORSDO>
F 4

$$$$
=
 OpenBabel11042412263D

 26 29  0  0  1  0  0  0  0  0999 V2000
  191.9550  177.6410  140.5690 N   0  0  0  0  0  2  0  0  0  0  0  0
  191.2840  176.6210  139.7700 C   0  0  0  0  0  2  0  0  0  0  0  0
  189.2030  176.9710  141.8310 C   0  0  2  0  0  3  0  0  0  0  0  0
  188.6980  177.5130  143.1280 N   0  0  0  0  0  0  0  0  0  0  0  0
  190.2180  177.2260  138.8530 C   0  0  0  0  0  2  0  0  0  0  0  0
  192.1570  177.0570  141.8950 C   0  0  0  0  0  2  0  0  0  0  0  0
  191.1960  177.6420  142.9490 C   0  0  0  0  0  2  0  0  0  0  0  0
  189.1840  178.1190  139.5660 C   0  0  2  0  0  3  0  0  0  0  0  0
  189.8530  178.0690  142.3630 C   0  0  1  0  0  3  0  0  0  0  0  0
  188.3470  177.4130  140.6500 C   0  0  0  0  0  2  0  0  0  0  0  0
  186.4360  177.6870  144.1530 C   0  0  2  0  0  3  0  0  0  0  0  0
  184.7600  179.2430  144.2110 N   0  0  0  0  0  0  0  0  0  0  0  0
  187.0550  177.8850  146.2810 N   0  0  0  0  0  0  0  0  0  0  0  0
  188.1710  177.6290  145.5630 C   0  0  0  0  0  3  0  0  0  0  0  0
  187.7990  177.5060  144.2310 C   0  0  0  0  0  0  0  0  0  0  0  0
  185.6350  178.5570  143.2530 C   0  0  0  0  0  3  0  0  0  0  0  0
  186.0260  177.9330  145.4140 C   0  0  1  0  0  3  0  0  0  0  0  0
  184.9990  178.9040  145.4170 N   0  0  0  0  0  2  0  0  0  0  0  0
  188.1410  177.6510  148.4490 C   0  0  0  0  0  1  0  0  0  0  0  0
  187.0460  178.3450  147.6620 C   0  0  0  0  0  2  0  0  0  0  0  0
  189.0200  179.2750  137.4050 N   0  0  0  0  0  1  0  0  0  0  0  0
  188.2720  178.8530  138.5790 C   0  0  1  0  0  3  0  0  0  0  0  0
  187.0640  178.0580  138.1820 C   0  0  0  0  0  0  0  0  0  0  0  0
  184.5580  177.8000  138.2090 C   0  0  0  0  0  1  0  0  0  0  0  0
  185.7680  178.5330  138.5440 N   0  0  0  0  0  2  0  0  0  0  0  0
  187.1940  176.9690  137.5590 O   0  0  0  0  0  0  0  0  0  0  0  0
  1  6  1  0  0  0  0
  2  1  1  0  0  0  0
  3 10  1  6  0  0  0
  3  9  1  0  0  0  0
  3  4  1  0  0  0  0
  4 15  1  0  0  0  0
  5  8  1  0  0  0  0
  5  2  1  0  0  0  0
  6  7  1  0  0  0  0
  8 22  1  6  0  0  0
  8 10  1  0  0  0  0
  9  7  1  1  0  0  0
  9  4  1  0  0  0  0
 11 16  1  6  0  0  0
 11 15  1  0  0  0  0
 11 17  1  0  0  0  0
 12 18  1  0  0  0  0
 13 20  1  0  0  0  0
 14 13  1  0  0  0  0
 15 14  2  0  0  0  0
 16 12  2  0  0  0  0
 17 18  1  6  0  0  0
 17 13  1  0  0  0  0
 20 19  1  0  0  0  0
 22 21  1  6  0  0  0
 23 25  1  0  0  0  0
 23 22  1  0  0  0  0
 24 25  1  0  0  0  0
 26 23  2  0  0  0  0
M  END
>  <MODEL>
7

>  <REMARK>
 VINA RESULT:      -7.6      2.576      5.739
  Name = 
  4 active torsions:
  status: ('A' for Active; 'I' for Inactive)
    1  A    between atoms: C_7  and  C_25
    2  A    between atoms: N_8  and  C_16
    3  A    between atoms: N_11  and  C_14
    4  A    between atoms: C_23  and  C_25
                            x       y       z     vdW  Elec       q    Type
                         _______ _______ _______ _____ _____    ______ ____

>  <TORSDO>
F 4

$$$$
=
 OpenBabel11042412263D

 26 29  0  0  1  0  0  0  0  0999 V2000
  190.9900  176.1390  142.4760 N   0  0  0  0  0  2  0  0  0  0  0  0
  191.6830  177.2010  143.1970 C   0  0  0  0  0  2  0  0  0  0  0  0
  188.9190  178.1180  143.6610 C   0  0  2  0  0  3  0  0  0  0  0  0
  187.4450  178.0650  143.4220 N   0  0  0  0  0  0  0  0  0  0  0  0
  191.6650  176.9680  144.7100 C   0  0  0  0  0  2  0  0  0  0  0  0
  190.2600  176.7890  141.3880 C   0  0  0  0  0  2  0  0  0  0  0  0
  188.7430  176.8530  141.6520 C   0  0  0  0  0  2  0  0  0  0  0  0
  190.2650  176.7330  145.3100 C   0  0  2  0  0  3  0  0  0  0  0  0
  188.3970  176.9510  143.1340 C   0  0  1  0  0  3  0  0  0  0  0  0
  189.2710  177.8970  145.1280 C   0  0  0  0  0  2  0  0  0  0  0  0
  185.5360  179.1780  144.5670 C   0  0  2  0  0  3  0  0  0  0  0  0
  184.1840  178.7220  146.3560 N   0  0  0  0  0  0  0  0  0  0  0  0
  183.9930  178.8890  142.9900 N   0  0  0  0  0  0  0  0  0  0  0  0
  185.1710  178.4650  142.4800 C   0  0  0  0  0  3  0  0  0  0  0  0
  186.1420  178.6370  143.4560 C   0  0  0  0  0  0  0  0  0  0  0  0
  185.6060  178.7660  145.9940 C   0  0  0  0  0  3  0  0  0  0  0  0
  184.2300  179.2970  144.2510 C   0  0  1  0  0  3  0  0  0  0  0  0
  183.4220  178.9990  145.3720 N   0  0  0  0  0  2  0  0  0  0  0  0
  182.8570  178.1930  140.9510 C   0  0  0  0  0  1  0  0  0  0  0  0
  182.6910  178.6300  142.3950 C   0  0  0  0  0  2  0  0  0  0  0  0
  191.6960  176.0080  147.1700 N   0  0  0  0  0  1  0  0  0  0  0  0
  190.3280  176.3080  146.7800 C   0  0  1  0  0  3  0  0  0  0  0  0
  189.7150  177.3090  147.7140 C   0  0  0  0  0  0  0  0  0  0  0  0
  187.6560  178.2000  148.8590 C   0  0  0  0  0  1  0  0  0  0  0  0
  188.3150  177.2480  147.9800 N   0  0  0  0  0  2  0  0  0  0  0  0
  190.4270  178.2090  148.2390 O   0  0  0  0  0  0  0  0  0  0  0  0
  1  2  1  0  0  0  0
  2  5  1  0  0  0  0
  3 10  1  1  0  0  0
  4 15  1  0  0  0  0
  4  3  1  0  0  0  0
  5  8  1  0  0  0  0
  6  7  1  0  0  0  0
  6  1  1  0  0  0  0
  8 22  1  1  0  0  0
  9  7  1  6  0  0  0
  9  4  1  0  0  0  0
  9  3  1  0  0  0  0
 10  8  1  0  0  0  0
 11 16  1  1  0  0  0
 13 17  1  0  0  0  0
 14 13  1  0  0  0  0
 14 15  2  0  0  0  0
 15 11  1  0  0  0  0
 16 12  2  0  0  0  0
 17 11  1  0  0  0  0
 17 18  1  1  0  0  0
 18 12  1  0  0  0  0
 19 20  1  0  0  0  0
 20 13  1  0  0  0  0
 22 21  1  1  0  0  0
 22 23  1  0  0  0  0
 23 25  1  0  0  0  0
 23 26  2  0  0  0  0
 25 24  1  0  0  0  0
M  END
>  <MODEL>
8

>  <REMARK>
 VINA RESULT:      -7.5      1.919      4.388
  Name = 
  4 active torsions:
  status: ('A' for Active; 'I' for Inactive)
    1  A    between atoms: C_7  and  C_25
    2  A    between atoms: N_8  and  C_16
    3  A    between atoms: N_11  and  C_14
    4  A    between atoms: C_23  and  C_25
                            x       y       z     vdW  Elec       q    Type
                         _______ _______ _______ _____ _____    ______ ____

>  <TORSDO>
F 4

$$$$
=
 OpenBabel11042412263D

 26 29  0  0  1  0  0  0  0  0999 V2000
  191.5740  176.7060  142.7830 N   0  0  0  0  0  2  0  0  0  0  0  0
  191.8560  177.9240  143.5370 C   0  0  0  0  0  2  0  0  0  0  0  0
  188.9110  178.0830  143.5740 C   0  0  2  0  0  3  0  0  0  0  0  0
  187.5520  177.6400  143.1400 N   0  0  0  0  0  0  0  0  0  0  0  0
  191.6800  177.7150  145.0430 C   0  0  0  0  0  2  0  0  0  0  0  0
  190.8650  177.1260  141.5750 C   0  0  0  0  0  2  0  0  0  0  0  0
  189.3620  176.7900  141.6270 C   0  0  0  0  0  2  0  0  0  0  0  0
  190.3180  177.1260  145.4590 C   0  0  2  0  0  3  0  0  0  0  0  0
  188.7920  176.8130  143.0410 C   0  0  1  0  0  3  0  0  0  0  0  0
  189.0930  177.9830  145.0840 C   0  0  0  0  0  2  0  0  0  0  0  0
  185.5090  177.9810  141.7600 C   0  0  2  0  0  3  0  0  0  0  0  0
  184.8090  179.4820  140.1810 N   0  0  0  0  0  0  0  0  0  0  0  0
  184.1260  178.6330  143.3760 N   0  0  0  0  0  0  0  0  0  0  0  0
  185.2810  178.2530  143.9670 C   0  0  0  0  0  3  0  0  0  0  0  0
  186.1550  177.8470  142.9680 C   0  0  0  0  0  0  0  0  0  0  0  0
  185.9590  178.6280  140.4990 C   0  0  0  0  0  3  0  0  0  0  0  0
  184.2890  178.4780  142.0490 C   0  0  1  0  0  3  0  0  0  0  0  0
  183.8900  179.4080  141.0620 N   0  0  0  0  0  2  0  0  0  0  0  0
  181.7430  178.6380  143.8780 C   0  0  0  0  0  1  0  0  0  0  0  0
  183.0610  179.3720  144.0370 C   0  0  0  0  0  2  0  0  0  0  0  0
  191.6150  176.7510  147.5110 N   0  0  0  0  0  1  0  0  0  0  0  0
  190.2760  176.7530  146.9440 C   0  0  1  0  0  3  0  0  0  0  0  0
  189.3580  177.6230  147.7490 C   0  0  0  0  0  0  0  0  0  0  0  0
  187.0030  178.2530  148.3860 C   0  0  0  0  0  1  0  0  0  0  0  0
  187.9480  177.4300  147.6480 N   0  0  0  0  0  2  0  0  0  0  0  0
  189.8270  178.5320  148.4880 O   0  0  0  0  0  0  0  0  0  0  0  0
  1  2  1  0  0  0  0
  2  5  1  0  0  0  0
  3 10  1  1  0  0  0
  4  3  1  0  0  0  0
  5  8  1  0  0  0  0
  6  7  1  0  0  0  0
  6  1  1  0  0  0  0
  8 22  1  1  0  0  0
  9  7  1  6  0  0  0
  9  4  1  0  0  0  0
  9  3  1  0  0  0  0
 10  8  1  0  0  0  0
 11 16  1  6  0  0  0
 11 17  1  0  0  0  0
 11 15  1  0  0  0  0
 12 16  2  0  0  0  0
 12 18  1  0  0  0  0
 13 14  1  0  0  0  0
 13 20  1  0  0  0  0
 15  4  1  0  0  0  0
 15 14  2  0  0  0  0
 17 18  1  6  0  0  0
 17 13  1  0  0  0  0
 19 20  1  0  0  0  0
 22 21  1  1  0  0  0
 22 23  1  0  0  0  0
 23 26  2  0  0  0  0
 25 23  1  0  0  0  0
 25 24  1  0  0  0  0
M  END
>  <MODEL>
9

>  <REMARK>
 VINA RESULT:      -7.5      1.757      3.947
  Name = 
  4 active torsions:
  status: ('A' for Active; 'I' for Inactive)
    1  A    between atoms: C_7  and  C_25
    2  A    between atoms: N_8  and  C_16
    3  A    between atoms: N_11  and  C_14
    4  A    between atoms: C_23  and  C_25
                            x       y       z     vdW  Elec       q    Type
                         _______ _______ _______ _____ _____    ______ ____

>  <TORSDO>
F 4

$$$$
