=
 OpenBabel11042412293D

 27 29  0  0  1  0  0  0  0  0999 V2000
  187.9460  177.7080  143.1610 C   0  0  0  0  0  0  0  0  0  0  0  0
  187.1950  177.9450  144.2720 N   0  0  0  0  0  0  0  0  0  0  0  0
  187.4170  177.9050  147.9360 C   0  0  0  0  0  3  0  0  0  0  0  0
  189.0410  177.4000  145.7070 C   0  0  0  0  0  0  0  0  0  0  0  0
  188.7440  177.5090  148.1130 C   0  0  0  0  0  3  0  0  0  0  0  0
  187.6960  177.8040  145.5300 C   0  0  0  0  0  0  0  0  0  0  0  0
  189.5620  177.2540  147.0080 C   0  0  0  0  0  0  0  0  0  0  0  0
  189.2760  177.3060  143.2950 C   0  0  0  0  0  3  0  0  0  0  0  0
  189.8220  177.1540  144.5690 C   0  0  0  0  0  3  0  0  0  0  0  0
  186.8870  178.0540  146.6520 C   0  0  0  0  0  0  0  0  0  0  0  0
  192.0200  176.5210  147.4290 N   0  0  0  0  0  0  0  0  0  0  0  0
  190.9250  176.8480  147.2420 C   0  0  0  0  0  0  0  0  0  0  0  0
  184.4090  178.7870  146.3890 N   0  0  0  0  0  0  0  0  0  0  0  0
  185.5130  178.4610  146.5080 C   0  0  0  0  0  0  0  0  0  0  0  0
  187.3580  177.8650  141.7920 C   0  0  2  0  0  3  0  0  0  0  0  0
  188.3980  177.8630  140.7150 C   0  0  0  0  0  0  0  0  0  0  0  0
  189.4960  178.3500  138.9800 N   0  0  0  0  0  0  0  0  0  0  0  0
  188.4520  178.7360  139.6940 N   0  0  0  0  0  0  0  0  0  0  0  0
  190.0520  177.2860  139.5380 N   0  0  0  0  0  0  0  0  0  0  0  0
  189.3840  176.9530  140.6300 N   0  0  0  0  0  2  0  0  0  0  0  0
  186.4060  179.0580  141.6860 C   0  0  0  0  0  2  0  0  0  0  0  0
  185.1570  178.6880  141.0300 N   0  0  0  0  0  0  0  0  0  0  0  0
  184.9470  179.6170  140.0670 O   0  0  0  0  0  1  0  0  0  0  0  0
  184.0740  178.8190  142.0050 C   0  0  2  0  0  3  0  0  0  0  0  0
  184.2630  177.9490  143.0670 F   0  0  0  0  0  0  0  0  0  0  0  0
  182.7240  178.5290  141.3550 C   0  0  0  0  0  2  0  0  0  0  0  0
  181.6380  178.8480  142.2710 N   0  0  0  0  0  1  0  0  0  0  0  0
  1  8  2  0  0  0  0
  1  2  1  0  0  0  0
  2  6  2  0  0  0  0
  3  5  1  0  0  0  0
  4  7  1  0  0  0  0
  6  4  1  0  0  0  0
  6 10  1  0  0  0  0
  7 12  1  0  0  0  0
  7  5  2  0  0  0  0
  8  9  1  0  0  0  0
  9  4  2  0  0  0  0
 10  3  2  0  0  0  0
 12 11  3  0  0  0  0
 13 14  3  0  0  0  0
 14 10  1  0  0  0  0
 15 21  1  1  0  0  0
 15  1  1  0  0  0  0
 16 15  1  0  0  0  0
 17 19  2  0  0  0  0
 17 18  1  0  0  0  0
 18 16  2  0  0  0  0
 19 20  1  0  0  0  0
 20 16  1  0  0  0  0
 22 21  1  0  0  0  0
 22 24  1  0  0  0  0
 23 22  1  0  0  0  0
 24 25  1  1  0  0  0
 26 24  1  0  0  0  0
 26 27  1  0  0  0  0
M  END
>  <MODEL>
1

>  <REMARK>
 VINA RESULT:      -8.8      0.000      0.000
  Name = 
  8 active torsions:
  status: ('A' for Active; 'I' for Inactive)
    1  A    between atoms: C_1  and  C_10
    2  A    between atoms: C_7  and  C_10
    3  A    between atoms: C_10  and  C_21
    4  A    between atoms: C_11  and  C_15
    5  A    between atoms: N_12  and  C_15
    6  A    between atoms: N_12  and  C_21
    7  A    between atoms: C_18  and  C_26
    8  A    between atoms: C_19  and  C_27
                            x       y       z     vdW  Elec       q    Type
                         _______ _______ _______ _____ _____    ______ ____

>  <TORSDO>
F 8

$$$$
=
 OpenBabel11042412293D

 27 29  0  0  1  0  0  0  0  0999 V2000
  188.3280  177.6200  143.1340 C   0  0  0  0  0  0  0  0  0  0  0  0
  188.0800  177.7070  144.4700 N   0  0  0  0  0  0  0  0  0  0  0  0
  185.3640  178.4280  146.8330 C   0  0  0  0  0  3  0  0  0  0  0  0
  185.7800  178.2680  144.0650 C   0  0  0  0  0  0  0  0  0  0  0  0
  184.3090  178.6690  145.9520 C   0  0  0  0  0  3  0  0  0  0  0  0
  186.8490  178.0210  144.9600 C   0  0  0  0  0  0  0  0  0  0  0  0
  184.5050  178.5920  144.5700 C   0  0  0  0  0  0  0  0  0  0  0  0
  187.3000  177.8590  142.2190 C   0  0  0  0  0  3  0  0  0  0  0  0
  186.0270  178.1810  142.6870 C   0  0  0  0  0  3  0  0  0  0  0  0
  186.6330  178.1050  146.3470 C   0  0  0  0  0  0  0  0  0  0  0  0
  182.4850  179.0560  143.0020 N   0  0  0  0  0  0  0  0  0  0  0  0
  183.3850  178.8490  143.7010 C   0  0  0  0  0  0  0  0  0  0  0  0
  188.5580  177.6720  148.0370 N   0  0  0  0  0  0  0  0  0  0  0  0
  187.7000  177.8660  147.2850 C   0  0  0  0  0  0  0  0  0  0  0  0
  189.6970  177.2810  142.6310 C   0  0  2  0  0  3  0  0  0  0  0  0
  189.7780  177.2830  141.1350 C   0  0  0  0  0  0  0  0  0  0  0  0
  189.5450  177.8320  139.1110 N   0  0  0  0  0  0  0  0  0  0  0  0
  189.2810  178.2460  140.3380 N   0  0  0  0  0  0  0  0  0  0  0  0
  190.1700  176.6660  139.1560 N   0  0  0  0  0  0  0  0  0  0  0  0
  190.3300  176.2920  140.4150 N   0  0  0  0  0  2  0  0  0  0  0  0
  190.2570  175.9970  143.2470 C   0  0  0  0  0  2  0  0  0  0  0  0
  191.4860  176.2520  143.9880 N   0  0  0  0  0  0  0  0  0  0  0  0
  192.1190  175.0580  144.0910 O   0  0  0  0  0  1  0  0  0  0  0  0
  191.1240  176.6710  145.3420 C   0  0  2  0  0  3  0  0  0  0  0  0
  191.2290  178.0480  145.4730 F   0  0  0  0  0  0  0  0  0  0  0  0
  192.0260  176.0010  146.3750 C   0  0  0  0  0  2  0  0  0  0  0  0
  191.9660  176.7140  147.6420 N   0  0  0  0  0  1  0  0  0  0  0  0
  1  2  1  0  0  0  0
  2  6  2  0  0  0  0
  4  7  1  0  0  0  0
  4  6  1  0  0  0  0
  5  3  1  0  0  0  0
  6 10  1  0  0  0  0
  7  5  2  0  0  0  0
  8  9  1  0  0  0  0
  8  1  2  0  0  0  0
  9  4  2  0  0  0  0
 10  3  2  0  0  0  0
 10 14  1  0  0  0  0
 11 12  3  0  0  0  0
 12  7  1  0  0  0  0
 14 13  3  0  0  0  0
 15  1  1  0  0  0  0
 15 21  1  6  0  0  0
 16 15  1  0  0  0  0
 17 19  2  0  0  0  0
 17 18  1  0  0  0  0
 18 16  2  0  0  0  0
 19 20  1  0  0  0  0
 20 16  1  0  0  0  0
 21 22  1  0  0  0  0
 22 23  1  0  0  0  0
 22 24  1  0  0  0  0
 24 25  1  6  0  0  0
 24 26  1  0  0  0  0
 26 27  1  0  0  0  0
M  END
>  <MODEL>
2

>  <REMARK>
 VINA RESULT:      -8.5      2.769      5.719
  Name = 
  8 active torsions:
  status: ('A' for Active; 'I' for Inactive)
    1  A    between atoms: C_1  and  C_10
    2  A    between atoms: C_7  and  C_10
    3  A    between atoms: C_10  and  C_21
    4  A    between atoms: C_11  and  C_15
    5  A    between atoms: N_12  and  C_15
    6  A    between atoms: N_12  and  C_21
    7  A    between atoms: C_18  and  C_26
    8  A    between atoms: C_19  and  C_27
                            x       y       z     vdW  Elec       q    Type
                         _______ _______ _______ _____ _____    ______ ____

>  <TORSDO>
F 8

$$$$
=
 OpenBabel11042412293D

 27 29  0  0  1  0  0  0  0  0999 V2000
  188.9580  177.9610  142.6680 C   0  0  0  0  0  0  0  0  0  0  0  0
  187.9950  178.0580  143.6260 N   0  0  0  0  0  0  0  0  0  0  0  0
  187.4900  177.5820  147.2310 C   0  0  0  0  0  3  0  0  0  0  0  0
  189.5370  177.3580  145.3280 C   0  0  0  0  0  0  0  0  0  0  0  0
  188.7670  177.1760  147.6220 C   0  0  0  0  0  3  0  0  0  0  0  0
  188.2420  177.7710  144.9340 C   0  0  0  0  0  0  0  0  0  0  0  0
  189.7950  177.0610  146.6820 C   0  0  0  0  0  0  0  0  0  0  0  0
  190.2470  177.5550  143.0180 C   0  0  0  0  0  3  0  0  0  0  0  0
  190.5350  177.2550  144.3490 C   0  0  0  0  0  3  0  0  0  0  0  0
  187.2200  177.8800  145.8930 C   0  0  0  0  0  0  0  0  0  0  0  0
  192.1420  176.2990  147.4970 N   0  0  0  0  0  0  0  0  0  0  0  0
  191.0970  176.6380  147.1340 C   0  0  0  0  0  0  0  0  0  0  0  0
  184.8200  178.6230  145.2320 N   0  0  0  0  0  0  0  0  0  0  0  0
  185.8890  178.2920  145.5250 C   0  0  0  0  0  0  0  0  0  0  0  0
  188.6480  178.2770  141.2370 C   0  0  2  0  0  3  0  0  0  0  0  0
  187.2200  178.6800  141.0330 C   0  0  0  0  0  0  0  0  0  0  0  0
  185.3640  179.1140  140.1270 N   0  0  0  0  0  2  0  0  0  0  0  0
  186.5730  178.6530  139.8540 N   0  0  0  0  0  0  0  0  0  0  0  0
  185.2790  179.4140  141.4140 N   0  0  0  0  0  0  0  0  0  0  0  0
  186.4300  179.1550  142.0110 N   0  0  0  0  0  0  0  0  0  0  0  0
  189.0900  177.1740  140.2740 C   0  0  0  0  0  2  0  0  0  0  0  0
  190.0860  177.6600  139.3260 N   0  0  0  0  0  0  0  0  0  0  0  0
  189.6280  177.3290  138.0950 O   0  0  0  0  0  1  0  0  0  0  0  0
  191.3250  176.9130  139.5440 C   0  0  2  0  0  3  0  0  0  0  0  0
  192.2260  177.6650  140.2830 F   0  0  0  0  0  0  0  0  0  0  0  0
  191.9670  176.5300  138.2140 C   0  0  0  0  0  2  0  0  0  0  0  0
  193.4120  176.6960  138.2780 N   0  0  0  0  0  1  0  0  0  0  0  0
  1  8  2  0  0  0  0
  1  2  1  0  0  0  0
  2  6  2  0  0  0  0
  3  5  1  0  0  0  0
  4  7  1  0  0  0  0
  6  4  1  0  0  0  0
  6 10  1  0  0  0  0
  7 12  1  0  0  0  0
  7  5  2  0  0  0  0
  8  9  1  0  0  0  0
  9  4  2  0  0  0  0
 10  3  2  0  0  0  0
 12 11  3  0  0  0  0
 13 14  3  0  0  0  0
 14 10  1  0  0  0  0
 15 21  1  6  0  0  0
 15  1  1  0  0  0  0
 16 15  1  0  0  0  0
 16 20  1  0  0  0  0
 17 19  1  0  0  0  0
 18 17  1  0  0  0  0
 18 16  2  0  0  0  0
 19 20  2  0  0  0  0
 22 24  1  0  0  0  0
 22 21  1  0  0  0  0
 23 22  1  0  0  0  0
 24 25  1  1  0  0  0
 26 27  1  0  0  0  0
 26 24  1  0  0  0  0
M  END
>  <MODEL>
3

>  <REMARK>
 VINA RESULT:      -8.4      2.496      4.501
  Name = 
  8 active torsions:
  status: ('A' for Active; 'I' for Inactive)
    1  A    between atoms: C_1  and  C_10
    2  A    between atoms: C_7  and  C_10
    3  A    between atoms: C_10  and  C_21
    4  A    between atoms: C_11  and  C_15
    5  A    between atoms: N_12  and  C_15
    6  A    between atoms: N_12  and  C_21
    7  A    between atoms: C_18  and  C_26
    8  A    between atoms: C_19  and  C_27
                            x       y       z     vdW  Elec       q    Type
                         _______ _______ _______ _____ _____    ______ ____

>  <TORSDO>
F 8

$$$$
=
 OpenBabel11042412293D

 27 29  0  0  1  0  0  0  0  0999 V2000
  187.7740  178.2500  141.8490 C   0  0  0  0  0  0  0  0  0  0  0  0
  187.8490  178.0130  143.1880 N   0  0  0  0  0  0  0  0  0  0  0  0
  185.7660  178.0060  146.2110 C   0  0  0  0  0  3  0  0  0  0  0  0
  185.5150  178.5090  143.4640 C   0  0  0  0  0  0  0  0  0  0  0  0
  184.5310  178.3760  145.6770 C   0  0  0  0  0  3  0  0  0  0  0  0
  186.7670  178.1300  144.0060 C   0  0  0  0  0  0  0  0  0  0  0  0
  184.3940  178.6290  144.3090 C   0  0  0  0  0  0  0  0  0  0  0  0
  186.5570  178.6270  141.2770 C   0  0  0  0  0  3  0  0  0  0  0  0
  185.4290  178.7540  142.0860 C   0  0  0  0  0  3  0  0  0  0  0  0
  186.8860  177.8810  145.3850 C   0  0  0  0  0  0  0  0  0  0  0  0
  182.0570  179.3150  143.4010 N   0  0  0  0  0  0  0  0  0  0  0  0
  183.0980  179.0100  143.8060 C   0  0  0  0  0  0  0  0  0  0  0  0
  189.1580  177.1970  146.4420 N   0  0  0  0  0  0  0  0  0  0  0  0
  188.1450  177.5000  145.9710 C   0  0  0  0  0  0  0  0  0  0  0  0
  188.9870  178.1190  140.9800 C   0  0  2  0  0  3  0  0  0  0  0  0
  188.6440  177.9900  139.5280 C   0  0  0  0  0  0  0  0  0  0  0  0
  188.1130  177.1820  137.6520 N   0  0  0  0  0  0  0  0  0  0  0  0
  188.2940  176.8440  138.9170 N   0  0  0  0  0  0  0  0  0  0  0  0
  188.3470  178.4760  137.4960 N   0  0  0  0  0  0  0  0  0  0  0  0
  188.6850  179.0130  138.6570 N   0  0  0  0  0  2  0  0  0  0  0  0
  189.9460  177.0250  141.4560 C   0  0  0  0  0  2  0  0  0  0  0  0
  191.1790  177.5920  141.9890 N   0  0  0  0  0  0  0  0  0  0  0  0
  192.1520  177.2850  141.0970 O   0  0  0  0  0  1  0  0  0  0  0  0
  191.4980  176.8970  143.2370 C   0  0  2  0  0  3  0  0  0  0  0  0
  190.4930  176.0030  143.5700 F   0  0  0  0  0  0  0  0  0  0  0  0
  191.6790  177.8930  144.3790 C   0  0  0  0  0  2  0  0  0  0  0  0
  191.2530  179.2220  143.9700 N   0  0  0  0  0  1  0  0  0  0  0  0
  1  2  1  0  0  0  0
  2  6  2  0  0  0  0
  4  6  1  0  0  0  0
  4  7  1  0  0  0  0
  5  3  1  0  0  0  0
  6 10  1  0  0  0  0
  7  5  2  0  0  0  0
  8  1  2  0  0  0  0
  8  9  1  0  0  0  0
  9  4  2  0  0  0  0
 10 14  1  0  0  0  0
 10  3  2  0  0  0  0
 11 12  3  0  0  0  0
 12  7  1  0  0  0  0
 14 13  3  0  0  0  0
 15 21  1  1  0  0  0
 15  1  1  0  0  0  0
 16 15  1  0  0  0  0
 17 18  1  0  0  0  0
 18 16  2  0  0  0  0
 19 17  2  0  0  0  0
 19 20  1  0  0  0  0
 20 16  1  0  0  0  0
 21 22  1  0  0  0  0
 22 24  1  0  0  0  0
 23 22  1  0  0  0  0
 24 25  1  1  0  0  0
 24 26  1  0  0  0  0
 27 26  1  0  0  0  0
M  END
>  <MODEL>
4

>  <REMARK>
 VINA RESULT:      -8.4      2.697      5.450
  Name = 
  8 active torsions:
  status: ('A' for Active; 'I' for Inactive)
    1  A    between atoms: C_1  and  C_10
    2  A    between atoms: C_7  and  C_10
    3  A    between atoms: C_10  and  C_21
    4  A    between atoms: C_11  and  C_15
    5  A    between atoms: N_12  and  C_15
    6  A    between atoms: N_12  and  C_21
    7  A    between atoms: C_18  and  C_26
    8  A    between atoms: C_19  and  C_27
                            x       y       z     vdW  Elec       q    Type
                         _______ _______ _______ _____ _____    ______ ____

>  <TORSDO>
F 8

$$$$
=
 OpenBabel11042412293D

 27 29  0  0  1  0  0  0  0  0999 V2000
  187.6240  177.5110  142.7360 C   0  0  0  0  0  0  0  0  0  0  0  0
  187.5910  177.5190  144.0970 N   0  0  0  0  0  0  0  0  0  0  0  0
  185.3350  178.2530  146.8990 C   0  0  0  0  0  3  0  0  0  0  0  0
  185.3080  178.2620  144.0950 C   0  0  0  0  0  0  0  0  0  0  0  0
  184.1790  178.6270  146.2120 C   0  0  0  0  0  3  0  0  0  0  0  0
  186.4780  177.8800  144.7940 C   0  0  0  0  0  0  0  0  0  0  0  0
  184.1540  178.6350  144.8140 C   0  0  0  0  0  0  0  0  0  0  0  0
  186.4900  177.8830  142.0110 C   0  0  0  0  0  3  0  0  0  0  0  0
  185.3320  178.2560  142.6930 C   0  0  0  0  0  3  0  0  0  0  0  0
  186.4850  177.8790  146.2000 C   0  0  0  0  0  0  0  0  0  0  0  0
  181.9600  179.3450  143.6170 N   0  0  0  0  0  0  0  0  0  0  0  0
  182.9380  179.0290  144.1500 C   0  0  0  0  0  0  0  0  0  0  0  0
  188.6070  177.1990  147.5360 N   0  0  0  0  0  0  0  0  0  0  0  0
  187.6610  177.5030  146.9420 C   0  0  0  0  0  0  0  0  0  0  0  0
  188.8690  177.1150  142.0030 C   0  0  2  0  0  3  0  0  0  0  0  0
  190.0580  177.0040  142.9070 C   0  0  0  0  0  0  0  0  0  0  0  0
  191.6830  177.4970  144.1600 N   0  0  0  0  0  0  0  0  0  0  0  0
  190.6870  178.0440  143.4840 N   0  0  0  0  0  0  0  0  0  0  0  0
  191.6660  176.1830  143.9990 N   0  0  0  0  0  0  0  0  0  0  0  0
  190.6570  175.8410  143.2140 N   0  0  0  0  0  2  0  0  0  0  0  0
  189.1430  177.9900  140.7780 C   0  0  0  0  0  2  0  0  0  0  0  0
  189.4710  177.1830  139.6080 N   0  0  0  0  0  0  0  0  0  0  0  0
  190.8230  177.1390  139.5480 O   0  0  0  0  0  1  0  0  0  0  0  0
  189.0060  177.8950  138.4180 C   0  0  2  0  0  3  0  0  0  0  0  0
  189.0720  179.2660  138.6100 F   0  0  0  0  0  0  0  0  0  0  0  0
  187.5690  177.5060  138.0810 C   0  0  0  0  0  2  0  0  0  0  0  0
  186.6690  178.6250  138.3170 N   0  0  0  0  0  1  0  0  0  0  0  0
  1  2  1  0  0  0  0
  2  6  2  0  0  0  0
  4  6  1  0  0  0  0
  4  7  1  0  0  0  0
  5  3  1  0  0  0  0
  6 10  1  0  0  0  0
  7  5  2  0  0  0  0
  8  9  1  0  0  0  0
  8  1  2  0  0  0  0
  9  4  2  0  0  0  0
 10  3  2  0  0  0  0
 10 14  1  0  0  0  0
 11 12  3  0  0  0  0
 12  7  1  0  0  0  0
 14 13  3  0  0  0  0
 15 21  1  6  0  0  0
 15  1  1  0  0  0  0
 15 16  1  0  0  0  0
 16 20  1  0  0  0  0
 16 18  2  0  0  0  0
 18 17  1  0  0  0  0
 19 17  2  0  0  0  0
 20 19  1  0  0  0  0
 22 21  1  0  0  0  0
 23 22  1  0  0  0  0
 24 25  1  1  0  0  0
 24 22  1  0  0  0  0
 26 27  1  0  0  0  0
 26 24  1  0  0  0  0
M  END
>  <MODEL>
5

>  <REMARK>
 VINA RESULT:      -8.2      2.670      5.019
  Name = 
  8 active torsions:
  status: ('A' for Active; 'I' for Inactive)
    1  A    between atoms: C_1  and  C_10
    2  A    between atoms: C_7  and  C_10
    3  A    between atoms: C_10  and  C_21
    4  A    between atoms: C_11  and  C_15
    5  A    between atoms: N_12  and  C_15
    6  A    between atoms: N_12  and  C_21
    7  A    between atoms: C_18  and  C_26
    8  A    between atoms: C_19  and  C_27
                            x       y       z     vdW  Elec       q    Type
                         _______ _______ _______ _____ _____    ______ ____

>  <TORSDO>
F 8

$$$$
=
 OpenBabel11042412293D

 27 29  0  0  1  0  0  0  0  0999 V2000
  189.4680  177.1200  141.7530 C   0  0  0  0  0  0  0  0  0  0  0  0
  188.4040  177.4050  142.5540 N   0  0  0  0  0  0  0  0  0  0  0  0
  187.4880  177.6860  146.0980 C   0  0  0  0  0  3  0  0  0  0  0  0
  189.7340  177.0910  144.5290 C   0  0  0  0  0  0  0  0  0  0  0  0
  188.7070  177.3840  146.7070 C   0  0  0  0  0  3  0  0  0  0  0  0
  188.4970  177.4000  143.9120 C   0  0  0  0  0  0  0  0  0  0  0  0
  189.8330  177.0860  145.9340 C   0  0  0  0  0  0  0  0  0  0  0  0
  190.7040  176.8090  142.3230 C   0  0  0  0  0  3  0  0  0  0  0  0
  190.8340  176.7970  143.7110 C   0  0  0  0  0  3  0  0  0  0  0  0
  187.3750  177.6950  144.7060 C   0  0  0  0  0  0  0  0  0  0  0  0
  192.0630  176.5360  147.1510 N   0  0  0  0  0  0  0  0  0  0  0  0
  191.0690  176.7810  146.6090 C   0  0  0  0  0  0  0  0  0  0  0  0
  185.0760  178.2550  143.6330 N   0  0  0  0  0  0  0  0  0  0  0  0
  186.1000  178.0070  144.1110 C   0  0  0  0  0  0  0  0  0  0  0  0
  189.3260  177.1280  140.2620 C   0  0  2  0  0  3  0  0  0  0  0  0
  190.5900  176.7370  139.5610 C   0  0  0  0  0  0  0  0  0  0  0  0
  192.5760  176.7400  138.8480 N   0  0  0  0  0  0  0  0  0  0  0  0
  191.7510  177.4110  139.6340 N   0  0  0  0  0  0  0  0  0  0  0  0
  191.9460  175.7040  138.3160 N   0  0  0  0  0  0  0  0  0  0  0  0
  190.6940  175.6760  138.7420 N   0  0  0  0  0  2  0  0  0  0  0  0
  188.7370  178.4340  139.7250 C   0  0  0  0  0  2  0  0  0  0  0  0
  188.6880  178.4390  138.2680 N   0  0  0  0  0  0  0  0  0  0  0  0
  189.0550  179.6850  137.8830 O   0  0  0  0  0  1  0  0  0  0  0  0
  187.2970  178.2490  137.8570 C   0  0  2  0  0  3  0  0  0  0  0  0
  186.4500  178.3170  138.9520 F   0  0  0  0  0  0  0  0  0  0  0  0
  187.1160  176.9000  137.1680 C   0  0  0  0  0  2  0  0  0  0  0  0
  188.2460  176.6170  136.2960 N   0  0  0  0  0  1  0  0  0  0  0  0
  1  8  2  0  0  0  0
  1  2  1  0  0  0  0
  2  6  2  0  0  0  0
  3  5  1  0  0  0  0
  4  7  1  0  0  0  0
  6  4  1  0  0  0  0
  6 10  1  0  0  0  0
  7 12  1  0  0  0  0
  7  5  2  0  0  0  0
  8  9  1  0  0  0  0
  9  4  2  0  0  0  0
 10  3  2  0  0  0  0
 12 11  3  0  0  0  0
 13 14  3  0  0  0  0
 14 10  1  0  0  0  0
 15 21  1  6  0  0  0
 15  1  1  0  0  0  0
 16 18  2  0  0  0  0
 16 15  1  0  0  0  0
 17 18  1  0  0  0  0
 19 20  1  0  0  0  0
 19 17  2  0  0  0  0
 20 16  1  0  0  0  0
 22 21  1  0  0  0  0
 23 22  1  0  0  0  0
 24 22  1  0  0  0  0
 24 25  1  1  0  0  0
 26 24  1  0  0  0  0
 27 26  1  0  0  0  0
M  END
>  <MODEL>
6

>  <REMARK>
 VINA RESULT:      -8.1      2.325      3.466
  Name = 
  8 active torsions:
  status: ('A' for Active; 'I' for Inactive)
    1  A    between atoms: C_1  and  C_10
    2  A    between atoms: C_7  and  C_10
    3  A    between atoms: C_10  and  C_21
    4  A    between atoms: C_11  and  C_15
    5  A    between atoms: N_12  and  C_15
    6  A    between atoms: N_12  and  C_21
    7  A    between atoms: C_18  and  C_26
    8  A    between atoms: C_19  and  C_27
                            x       y       z     vdW  Elec       q    Type
                         _______ _______ _______ _____ _____    ______ ____

>  <TORSDO>
F 8

$$$$
=
 OpenBabel11042412293D

 27 29  0  0  1  0  0  0  0  0999 V2000
  188.4290  178.0410  141.5670 C   0  0  0  0  0  0  0  0  0  0  0  0
  188.9110  177.7330  142.8020 N   0  0  0  0  0  0  0  0  0  0  0  0
  187.8500  177.5050  146.3100 C   0  0  0  0  0  3  0  0  0  0  0  0
  186.7690  178.1520  143.8050 C   0  0  0  0  0  0  0  0  0  0  0  0
  186.5080  177.8720  146.2010 C   0  0  0  0  0  3  0  0  0  0  0  0
  188.1300  177.7770  143.9170 C   0  0  0  0  0  0  0  0  0  0  0  0
  185.9590  178.1970  144.9570 C   0  0  0  0  0  0  0  0  0  0  0  0
  187.0930  178.4180  141.4160 C   0  0  0  0  0  3  0  0  0  0  0  0
  186.2650  178.4710  142.5360 C   0  0  0  0  0  3  0  0  0  0  0  0
  188.6650  177.4550  145.1760 C   0  0  0  0  0  0  0  0  0  0  0  0
  183.4510  178.8710  144.8460 N   0  0  0  0  0  0  0  0  0  0  0  0
  184.5680  178.5710  144.8950 C   0  0  0  0  0  0  0  0  0  0  0  0
  191.1560  176.7690  145.4500 N   0  0  0  0  0  0  0  0  0  0  0  0
  190.0470  177.0750  145.3270 C   0  0  0  0  0  0  0  0  0  0  0  0
  189.3200  177.9900  140.3630 C   0  0  2  0  0  3  0  0  0  0  0  0
  188.6040  178.3560  139.1010 C   0  0  0  0  0  0  0  0  0  0  0  0
  187.2480  178.3450  137.4830 N   0  0  0  0  0  0  0  0  0  0  0  0
  187.5260  177.7160  138.6120 N   0  0  0  0  0  0  0  0  0  0  0  0
  188.1190  179.3230  137.2890 N   0  0  0  0  0  0  0  0  0  0  0  0
  188.9860  179.3550  138.2870 N   0  0  0  0  0  2  0  0  0  0  0  0
  190.0840  176.6700  140.2430 C   0  0  0  0  0  2  0  0  0  0  0  0
  190.8200  176.5910  138.9870 N   0  0  0  0  0  0  0  0  0  0  0  0
  190.5370  175.3760  138.4600 O   0  0  0  0  0  1  0  0  0  0  0  0
  192.2500  176.6100  139.2940 C   0  0  2  0  0  3  0  0  0  0  0  0
  192.5850  177.7570  139.9970 F   0  0  0  0  0  0  0  0  0  0  0  0
  193.0790  176.5490  138.0140 C   0  0  0  0  0  2  0  0  0  0  0  0
  194.2190  175.6620  138.1870 N   0  0  0  0  0  1  0  0  0  0  0  0
  1  2  1  0  0  0  0
  2  6  2  0  0  0  0
  4  6  1  0  0  0  0
  4  7  1  0  0  0  0
  5  3  1  0  0  0  0
  6 10  1  0  0  0  0
  7  5  2  0  0  0  0
  8  1  2  0  0  0  0
  8  9  1  0  0  0  0
  9  4  2  0  0  0  0
 10 14  1  0  0  0  0
 10  3  2  0  0  0  0
 11 12  3  0  0  0  0
 12  7  1  0  0  0  0
 14 13  3  0  0  0  0
 15 21  1  6  0  0  0
 15  1  1  0  0  0  0
 16 15  1  0  0  0  0
 17 18  1  0  0  0  0
 18 16  2  0  0  0  0
 19 17  2  0  0  0  0
 19 20  1  0  0  0  0
 20 16  1  0  0  0  0
 22 24  1  0  0  0  0
 22 21  1  0  0  0  0
 23 22  1  0  0  0  0
 24 25  1  6  0  0  0
 26 27  1  0  0  0  0
 26 24  1  0  0  0  0
M  END
>  <MODEL>
7

>  <REMARK>
 VINA RESULT:      -8.0      3.073      5.822
  Name = 
  8 active torsions:
  status: ('A' for Active; 'I' for Inactive)
    1  A    between atoms: C_1  and  C_10
    2  A    between atoms: C_7  and  C_10
    3  A    between atoms: C_10  and  C_21
    4  A    between atoms: C_11  and  C_15
    5  A    between atoms: N_12  and  C_15
    6  A    between atoms: N_12  and  C_21
    7  A    between atoms: C_18  and  C_26
    8  A    between atoms: C_19  and  C_27
                            x       y       z     vdW  Elec       q    Type
                         _______ _______ _______ _____ _____    ______ ____

>  <TORSDO>
F 8

$$$$
=
 OpenBabel11042412293D

 27 29  0  0  1  0  0  0  0  0999 V2000
  190.2030  177.4830  144.3010 C   0  0  0  0  0  0  0  0  0  0  0  0
  189.2150  177.8080  143.4230 N   0  0  0  0  0  0  0  0  0  0  0  0
  188.5970  178.1740  139.8230 C   0  0  0  0  0  3  0  0  0  0  0  0
  190.6910  177.4860  141.5560 C   0  0  0  0  0  0  0  0  0  0  0  0
  189.8510  177.8420  139.3080 C   0  0  0  0  0  3  0  0  0  0  0  0
  189.4170  177.8210  142.0760 C   0  0  0  0  0  0  0  0  0  0  0  0
  190.9020  177.4980  140.1630 C   0  0  0  0  0  0  0  0  0  0  0  0
  191.4730  177.1490  143.8270 C   0  0  0  0  0  3  0  0  0  0  0  0
  191.7140  177.1500  142.4530 C   0  0  0  0  0  3  0  0  0  0  0  0
  188.3730  178.1660  141.2010 C   0  0  0  0  0  0  0  0  0  0  0  0
  193.2040  176.8930  139.1180 N   0  0  0  0  0  0  0  0  0  0  0  0
  192.1780  177.1630  139.5830 C   0  0  0  0  0  0  0  0  0  0  0  0
  186.0170  178.8000  142.0940 N   0  0  0  0  0  0  0  0  0  0  0  0
  187.0670  178.5180  141.6980 C   0  0  0  0  0  0  0  0  0  0  0  0
  189.9470  177.4890  145.7770 C   0  0  2  0  0  3  0  0  0  0  0  0
  191.0370  176.8180  146.5540 C   0  0  0  0  0  0  0  0  0  0  0  0
  192.4570  176.3720  148.0500 N   0  0  0  0  0  0  0  0  0  0  0  0
  191.4850  177.2190  147.7570 N   0  0  0  0  0  0  0  0  0  0  0  0
  192.5990  175.4960  147.0680 N   0  0  0  0  0  0  0  0  0  0  0  0
  191.7230  175.7500  146.1100 N   0  0  0  0  0  2  0  0  0  0  0  0
  188.5570  176.9620  146.1420 C   0  0  0  0  0  2  0  0  0  0  0  0
  187.7720  177.9690  146.8470 N   0  0  0  0  0  0  0  0  0  0  0  0
  187.9730  177.7460  148.1680 O   0  0  0  0  0  1  0  0  0  0  0  0
  186.3570  177.7180  146.5740 C   0  0  2  0  0  3  0  0  0  0  0  0
  186.1830  177.2630  145.2760 F   0  0  0  0  0  0  0  0  0  0  0  0
  185.5350  178.9880  146.7730 C   0  0  0  0  0  2  0  0  0  0  0  0
  184.3970  179.0060  145.8660 N   0  0  0  0  0  1  0  0  0  0  0  0
  1 15  1  0  0  0  0
  2  1  2  0  0  0  0
  3 10  1  0  0  0  0
  4  6  1  0  0  0  0
  4  9  1  0  0  0  0
  5  3  2  0  0  0  0
  5  7  1  0  0  0  0
  6  2  1  0  0  0  0
  7  4  2  0  0  0  0
  8  1  1  0  0  0  0
  9  8  2  0  0  0  0
 10 14  1  0  0  0  0
 10  6  2  0  0  0  0
 11 12  3  0  0  0  0
 12  7  1  0  0  0  0
 14 13  3  0  0  0  0
 15 21  1  6  0  0  0
 15 16  1  0  0  0  0
 16 18  2  0  0  0  0
 18 17  1  0  0  0  0
 19 17  2  0  0  0  0
 20 16  1  0  0  0  0
 20 19  1  0  0  0  0
 21 22  1  0  0  0  0
 22 23  1  0  0  0  0
 24 25  1  6  0  0  0
 24 26  1  0  0  0  0
 24 22  1  0  0  0  0
 27 26  1  0  0  0  0
M  END
>  <MODEL>
8

>  <REMARK>
 VINA RESULT:      -7.9      2.778      6.224
  Name = 
  8 active torsions:
  status: ('A' for Active; 'I' for Inactive)
    1  A    between atoms: C_1  and  C_10
    2  A    between atoms: C_7  and  C_10
    3  A    between atoms: C_10  and  C_21
    4  A    between atoms: C_11  and  C_15
    5  A    between atoms: N_12  and  C_15
    6  A    between atoms: N_12  and  C_21
    7  A    between atoms: C_18  and  C_26
    8  A    between atoms: C_19  and  C_27
                            x       y       z     vdW  Elec       q    Type
                         _______ _______ _______ _____ _____    ______ ____

>  <TORSDO>
F 8

$$$$
=
 OpenBabel11042412293D

 27 29  0  0  1  0  0  0  0  0999 V2000
  186.1720  177.9820  143.2360 C   0  0  0  0  0  0  0  0  0  0  0  0
  187.4430  177.5220  143.0680 N   0  0  0  0  0  0  0  0  0  0  0  0
  190.4850  176.7650  144.9780 C   0  0  0  0  0  3  0  0  0  0  0  0
  187.8840  177.7140  145.4210 C   0  0  0  0  0  0  0  0  0  0  0  0
  190.0700  177.0920  146.2700 C   0  0  0  0  0  3  0  0  0  0  0  0
  188.3060  177.3800  144.1110 C   0  0  0  0  0  0  0  0  0  0  0  0
  188.7750  177.5660  146.5020 C   0  0  0  0  0  0  0  0  0  0  0  0
  185.7200  178.3240  144.5110 C   0  0  0  0  0  3  0  0  0  0  0  0
  186.5770  178.1880  145.6020 C   0  0  0  0  0  3  0  0  0  0  0  0
  189.6120  176.9060  143.8970 C   0  0  0  0  0  0  0  0  0  0  0  0
  188.0860  178.1510  148.9390 N   0  0  0  0  0  0  0  0  0  0  0  0
  188.3930  177.8910  147.8530 C   0  0  0  0  0  0  0  0  0  0  0  0
  190.4510  176.2850  141.5170 N   0  0  0  0  0  0  0  0  0  0  0  0
  190.0760  176.5620  142.5770 C   0  0  0  0  0  0  0  0  0  0  0  0
  185.2530  178.1340  142.0630 C   0  0  2  0  0  3  0  0  0  0  0  0
  185.9890  178.3860  140.7830 C   0  0  0  0  0  0  0  0  0  0  0  0
  186.4190  178.7220  138.7450 N   0  0  0  0  0  0  0  0  0  0  0  0
  185.4090  178.5630  139.5830 N   0  0  0  0  0  0  0  0  0  0  0  0
  187.5650  178.6410  139.4030 N   0  0  0  0  0  0  0  0  0  0  0  0
  187.3290  178.4280  140.6870 N   0  0  0  0  0  2  0  0  0  0  0  0
  184.1360  179.1510  142.3080 C   0  0  0  0  0  2  0  0  0  0  0  0
  182.8210  178.5250  142.2440 N   0  0  0  0  0  0  0  0  0  0  0  0
  182.3270  178.8120  141.0160 O   0  0  0  0  0  1  0  0  0  0  0  0
  181.9550  179.1810  143.2250 C   0  0  2  0  0  3  0  0  0  0  0  0
  181.9120  178.4520  144.4040 F   0  0  0  0  0  0  0  0  0  0  0  0
  180.5380  179.3340  142.6800 C   0  0  0  0  0  2  0  0  0  0  0  0
  180.0390  180.6780  142.9290 N   0  0  0  0  0  1  0  0  0  0  0  0
  1  8  1  0  0  0  0
  2  1  2  0  0  0  0
  2  6  1  0  0  0  0
  3  5  1  0  0  0  0
  4  9  1  0  0  0  0
  4  7  1  0  0  0  0
  5  7  2  0  0  0  0
  6  4  2  0  0  0  0
  7 12  1  0  0  0  0
  8  9  2  0  0  0  0
 10  6  1  0  0  0  0
 10  3  2  0  0  0  0
 12 11  3  0  0  0  0
 13 14  3  0  0  0  0
 14 10  1  0  0  0  0
 15 21  1  1  0  0  0
 15  1  1  0  0  0  0
 16 15  1  0  0  0  0
 17 19  2  0  0  0  0
 17 18  1  0  0  0  0
 18 16  2  0  0  0  0
 19 20  1  0  0  0  0
 20 16  1  0  0  0  0
 22 21  1  0  0  0  0
 22 24  1  0  0  0  0
 23 22  1  0  0  0  0
 24 25  1  1  0  0  0
 26 27  1  0  0  0  0
 26 24  1  0  0  0  0
M  END
>  <MODEL>
9

>  <REMARK>
 VINA RESULT:      -7.9      1.908      3.365
  Name = 
  8 active torsions:
  status: ('A' for Active; 'I' for Inactive)
    1  A    between atoms: C_1  and  C_10
    2  A    between atoms: C_7  and  C_10
    3  A    between atoms: C_10  and  C_21
    4  A    between atoms: C_11  and  C_15
    5  A    between atoms: N_12  and  C_15
    6  A    between atoms: N_12  and  C_21
    7  A    between atoms: C_18  and  C_26
    8  A    between atoms: C_19  and  C_27
                            x       y       z     vdW  Elec       q    Type
                         _______ _______ _______ _____ _____    ______ ____

>  <TORSDO>
F 8

$$$$
