=
 OpenBabel11042413013D

 40 47  0  0  1  0  0  0  0  0999 V2000
  182.6240  174.9150  136.7730 C   0  0  0  0  0  0  0  0  0  0  0  0
  182.8450  173.7200  136.0180 N   0  0  0  0  0  2  0  0  0  0  0  0
  181.8930  176.0620  138.6240 N   0  0  0  0  0  0  0  0  0  0  0  0
  181.9810  177.4120  138.0640 C   0  0  2  0  0  3  0  0  0  0  0  0
  182.8350  177.3510  136.8690 N   0  0  0  0  0  0  0  0  0  0  0  0
  182.6320  177.9400  139.2740 C   0  0  1  0  0  3  0  0  0  0  0  0
  182.0720  174.8550  137.9490 N   0  0  0  0  0  0  0  0  0  0  0  0
  182.4510  176.6220  139.8120 N   0  0  0  0  0  2  0  0  0  0  0  0
  183.1180  176.2280  136.2490 C   0  0  0  0  0  0  0  0  0  0  0  0
  181.8540  170.7550  135.2430 C   0  0  0  0  0  2  0  0  0  0  0  0
  181.1090  171.8520  135.9680 C   0  0  0  0  0  2  0  0  0  0  0  0
  182.4220  172.4060  136.4760 C   0  0  1  0  0  0  0  0  0  0  0  0
  183.1780  171.3860  135.6270 C   0  0  1  0  0  3  0  0  0  0  0  0
  183.4290  171.4730  137.1140 C   0  0  0  0  0  2  0  0  0  0  0  0
  184.0620  178.1930  139.0780 N   0  0  1  0  0  0  0  0  0  0  0  0
  184.2190  179.6630  139.1020 C   0  0  0  0  0  2  0  0  0  0  0  0
  186.1770  178.5880  140.3440 C   0  0  0  0  0  1  0  0  0  0  0  0
  184.6920  178.8780  140.2310 C   0  0  2  0  0  0  0  0  0  0  0  0
  183.8870  178.8980  141.4540 N   0  0  0  0  0  2  0  0  0  0  0  0
  184.4680  177.9530  142.3960 C   0  0  0  0  0  2  0  0  0  0  0  0
  184.6410  178.6030  143.7290 C   0  0  0  0  0  0  0  0  0  0  0  0
  186.7740  177.3520  144.2400 C   0  0  0  0  0  3  0  0  0  0  0  0
  185.7250  178.2350  144.5940 N   0  0  0  0  0  0  0  0  0  0  0  0
  185.9750  178.8000  145.9090 C   0  0  1  0  0  3  0  0  0  0  0  0
  183.8220  179.4920  144.0820 O   0  0  0  0  0  0  0  0  0  0  0  0
  184.9090  178.3300  146.8860 C   0  0  0  0  0  1  0  0  0  0  0  0
  187.6910  177.3060  145.1860 C   0  0  0  0  0  3  0  0  0  0  0  0
  187.3240  178.2090  146.3190 C   0  0  0  0  0  2  0  0  0  0  0  0
  184.7160  177.5280  134.7710 C   0  0  0  0  0  2  0  0  0  0  0  0
  185.4780  176.2940  135.2210 C   0  0  2  0  0  3  0  0  0  0  0  0
  183.9570  176.2320  134.9920 C   0  0  1  0  0  3  0  0  0  0  0  0
  189.3240  178.3280  136.7900 C   0  0  0  0  0  1  0  0  0  0  0  0
  186.6100  175.2040  137.2370 C   0  0  2  0  0  3  0  0  0  0  0  0
  188.6660  176.0580  135.9160 C   0  0  0  0  0  2  0  0  0  0  0  0
  185.9370  176.4700  136.6790 C   0  0  1  0  0  3  0  0  0  0  0  0
  188.0160  174.8990  136.6820 C   0  0  0  0  0  2  0  0  0  0  0  0
  186.9150  177.5980  136.7880 C   0  0  0  0  0  0  0  0  0  0  0  0
  186.5280  178.7420  137.1520 O   0  0  0  0  0  0  0  0  0  0  0  0
  188.2930  177.3470  136.4880 N   0  0  0  0  0  0  0  0  0  0  0  0
  185.7890  174.0840  137.1110 O   0  0  0  0  0  1  0  0  0  0  0  0
  1  7  2  0  0  0  0
  2  1  1  0  0  0  0
  3  8  1  0  0  0  0
  4  5  1  6  0  0  0
  4  3  1  0  0  0  0
  4  6  1  0  0  0  0
  6  8  1  1  0  0  0
  7  3  1  0  0  0  0
  9  1  1  0  0  0  0
  9  5  2  0  0  0  0
 10 11  1  0  0  0  0
 11 12  1  0  0  0  0
 12  2  1  6  0  0  0
 12 14  1  0  0  0  0
 13 10  1  1  0  0  0
 13 12  1  0  0  0  0
 13 14  1  0  0  0  0
 15 16  1  6  0  0  0
 15  6  1  0  0  0  0
 15 18  1  0  0  0  0
 16 18  1  0  0  0  0
 18 17  1  1  0  0  0
 18 19  1  0  0  0  0
 19 20  1  0  0  0  0
 20 21  1  0  0  0  0
 21 25  2  0  0  0  0
 21 23  1  0  0  0  0
 22 23  1  0  0  0  0
 22 27  2  0  0  0  0
 23 24  1  0  0  0  0
 24 28  1  0  0  0  0
 24 26  1  1  0  0  0
 27 28  1  0  0  0  0
 29 31  1  0  0  0  0
 30 29  1  6  0  0  0
 30 35  1  0  0  0  0
 31 30  1  0  0  0  0
 31  9  1  1  0  0  0
 33 40  1  6  0  0  0
 34 39  1  0  0  0  0
 34 36  1  0  0  0  0
 35 37  1  6  0  0  0
 35 33  1  0  0  0  0
 36 33  1  0  0  0  0
 37 38  2  0  0  0  0
 39 37  1  0  0  0  0
 39 32  1  0  0  0  0
M  END
>  <MODEL>
1

>  <REMARK>
 VINA RESULT:      -7.1      0.000      0.000
  Name = 
  7 active torsions:
  status: ('A' for Active; 'I' for Inactive)
    1  A    between atoms: C_3  and  C_35
    2  A    between atoms: N_6  and  C_25
    3  A    between atoms: N_7  and  C_15
    4  A    between atoms: C_16  and  C_23
    5  A    between atoms: C_27  and  N_39
    6  A    between atoms: C_34  and  C_37
    7  A    between atoms: C_35  and  N_39
                            x       y       z     vdW  Elec       q    Type
                         _______ _______ _______ _____ _____    ______ ____

>  <TORSDO>
F 7

$$$$
=
 OpenBabel11042413013D

 40 47  0  0  1  0  0  0  0  0999 V2000
  184.2710  177.2480  137.5740 C   0  0  0  0  0  0  0  0  0  0  0  0
  183.9350  176.4530  136.4330 N   0  0  0  0  0  2  0  0  0  0  0  0
  184.0120  177.9070  139.7590 N   0  0  0  0  0  0  0  0  0  0  0  0
  184.8560  179.1030  139.7030 C   0  0  2  0  0  3  0  0  0  0  0  0
  185.6990  179.0060  138.5020 N   0  0  0  0  0  0  0  0  0  0  0  0
  185.5280  178.7650  140.9680 C   0  0  1  0  0  3  0  0  0  0  0  0
  183.6240  177.0980  138.6920 N   0  0  0  0  0  0  0  0  0  0  0  0
  184.6240  177.6520  141.0220 N   0  0  0  0  0  2  0  0  0  0  0  0
  185.4340  178.1880  137.5080 C   0  0  0  0  0  0  0  0  0  0  0  0
  181.8000  174.7610  134.7150 C   0  0  0  0  0  2  0  0  0  0  0  0
  181.5580  175.8660  135.7160 C   0  0  0  0  0  2  0  0  0  0  0  0
  182.8380  175.4970  136.4320 C   0  0  1  0  0  0  0  0  0  0  0  0
  183.1530  174.4770  135.3380 C   0  0  1  0  0  3  0  0  0  0  0  0
  183.1040  174.0490  136.7870 C   0  0  0  0  0  2  0  0  0  0  0  0
  186.8930  178.2740  140.7670 N   0  0  1  0  0  0  0  0  0  0  0  0
  187.7810  179.2800  141.3900 C   0  0  0  0  0  2  0  0  0  0  0  0
  188.6850  176.9410  141.8830 C   0  0  0  0  0  1  0  0  0  0  0  0
  187.6000  177.9910  142.0380 C   0  0  2  0  0  0  0  0  0  0  0  0
  186.7440  177.9430  143.2250 N   0  0  0  0  0  2  0  0  0  0  0  0
  187.3600  177.0500  144.1950 C   0  0  0  0  0  2  0  0  0  0  0  0
  187.4920  177.7410  145.5110 C   0  0  0  0  0  0  0  0  0  0  0  0
  189.7690  176.7550  145.9810 C   0  0  0  0  0  3  0  0  0  0  0  0
  188.6350  177.5170  146.3510 N   0  0  0  0  0  0  0  0  0  0  0  0
  188.8530  178.1330  147.6490 C   0  0  1  0  0  3  0  0  0  0  0  0
  186.5860  178.5360  145.8740 O   0  0  0  0  0  0  0  0  0  0  0  0
  187.8750  177.5620  148.6640 C   0  0  0  0  0  1  0  0  0  0  0  0
  190.7110  176.8330  146.9000 C   0  0  0  0  0  3  0  0  0  0  0  0
  190.2720  177.7100  148.0280 C   0  0  0  0  0  2  0  0  0  0  0  0
  187.6540  178.8400  136.4700 C   0  0  0  0  0  2  0  0  0  0  0  0
  187.5870  177.3250  136.3880 C   0  0  2  0  0  3  0  0  0  0  0  0
  186.3060  178.1710  136.2730 C   0  0  1  0  0  3  0  0  0  0  0  0
  191.6890  176.4320  138.3270 C   0  0  0  0  0  1  0  0  0  0  0  0
  187.7580  175.1840  137.7740 C   0  0  2  0  0  3  0  0  0  0  0  0
  190.1220  175.2850  136.7230 C   0  0  0  0  0  2  0  0  0  0  0  0
  187.8760  176.7180  137.7720 C   0  0  1  0  0  3  0  0  0  0  0  0
  188.8910  174.4290  137.0490 C   0  0  0  0  0  2  0  0  0  0  0  0
  189.2590  177.0740  138.2230 C   0  0  0  0  0  0  0  0  0  0  0  0
  189.4410  178.0420  139.0100 O   0  0  0  0  0  0  0  0  0  0  0  0
  190.3600  176.2860  137.7550 N   0  0  0  0  0  0  0  0  0  0  0  0
  186.5160  174.7600  137.2990 O   0  0  0  0  0  1  0  0  0  0  0  0
  1  7  2  0  0  0  0
  2  1  1  0  0  0  0
  3  8  1  0  0  0  0
  4  5  1  6  0  0  0
  4  3  1  0  0  0  0
  4  6  1  0  0  0  0
  6  8  1  6  0  0  0
  7  3  1  0  0  0  0
  9  1  1  0  0  0  0
  9  5  2  0  0  0  0
 10 11  1  0  0  0  0
 11 12  1  0  0  0  0
 12  2  1  1  0  0  0
 12 14  1  0  0  0  0
 13 10  1  6  0  0  0
 13 12  1  0  0  0  0
 13 14  1  0  0  0  0
 15  6  1  0  0  0  0
 15 16  1  1  0  0  0
 15 18  1  0  0  0  0
 16 18  1  0  0  0  0
 18 17  1  6  0  0  0
 18 19  1  0  0  0  0
 19 20  1  0  0  0  0
 20 21  1  0  0  0  0
 21 25  2  0  0  0  0
 21 23  1  0  0  0  0
 22 23  1  0  0  0  0
 22 27  2  0  0  0  0
 23 24  1  0  0  0  0
 24 28  1  0  0  0  0
 24 26  1  1  0  0  0
 27 28  1  0  0  0  0
 30 29  1  1  0  0  0
 30 35  1  0  0  0  0
 31 30  1  0  0  0  0
 31 29  1  0  0  0  0
 31  9  1  1  0  0  0
 33 40  1  6  0  0  0
 34 36  1  0  0  0  0
 34 39  1  0  0  0  0
 35 33  1  0  0  0  0
 35 37  1  6  0  0  0
 36 33  1  0  0  0  0
 37 38  2  0  0  0  0
 39 37  1  0  0  0  0
 39 32  1  0  0  0  0
M  END
>  <MODEL>
2

>  <REMARK>
 VINA RESULT:      -6.5      2.094      3.191
  Name = 
  7 active torsions:
  status: ('A' for Active; 'I' for Inactive)
    1  A    between atoms: C_3  and  C_35
    2  A    between atoms: N_6  and  C_25
    3  A    between atoms: N_7  and  C_15
    4  A    between atoms: C_16  and  C_23
    5  A    between atoms: C_27  and  N_39
    6  A    between atoms: C_34  and  C_37
    7  A    between atoms: C_35  and  N_39
                            x       y       z     vdW  Elec       q    Type
                         _______ _______ _______ _____ _____    ______ ____

>  <TORSDO>
F 7

$$$$
=
 OpenBabel11042413013D

 40 47  0  0  1  0  0  0  0  0999 V2000
  184.1300  177.4750  137.6650 C   0  0  0  0  0  0  0  0  0  0  0  0
  182.8500  176.8590  137.4980 N   0  0  0  0  0  2  0  0  0  0  0  0
  185.7170  178.6030  138.8830 N   0  0  0  0  0  0  0  0  0  0  0  0
  186.6210  178.9230  137.7760 C   0  0  2  0  0  3  0  0  0  0  0  0
  186.2810  178.0460  136.6460 N   0  0  0  0  0  0  0  0  0  0  0  0
  187.8090  178.5200  138.5470 C   0  0  1  0  0  3  0  0  0  0  0  0
  184.4510  178.0270  138.7970 N   0  0  0  0  0  0  0  0  0  0  0  0
  186.8940  178.2990  139.6300 N   0  0  0  0  0  2  0  0  0  0  0  0
  185.1410  177.4000  136.5620 C   0  0  0  0  0  0  0  0  0  0  0  0
  179.7130  176.8830  138.2310 C   0  0  0  0  0  2  0  0  0  0  0  0
  180.7630  177.9370  138.4930 C   0  0  0  0  0  2  0  0  0  0  0  0
  181.8290  176.8650  138.5340 C   0  0  1  0  0  0  0  0  0  0  0  0
  180.7910  175.8200  138.1280 C   0  0  1  0  0  3  0  0  0  0  0  0
  181.6130  175.6290  139.3810 C   0  0  0  0  0  2  0  0  0  0  0  0
  188.3580  177.2360  138.1030 N   0  0  1  0  0  0  0  0  0  0  0  0
  189.5370  177.5660  137.2730 C   0  0  0  0  0  2  0  0  0  0  0  0
  190.0650  175.5180  138.7080 C   0  0  0  0  0  1  0  0  0  0  0  0
  189.7350  176.9950  138.5960 C   0  0  2  0  0  0  0  0  0  0  0  0
  190.1770  177.8940  139.6630 N   0  0  0  0  0  2  0  0  0  0  0  0
  190.5560  177.0860  140.8120 C   0  0  0  0  0  2  0  0  0  0  0  0
  189.9310  177.6360  142.0510 C   0  0  0  0  0  0  0  0  0  0  0  0
  191.4650  176.3500  143.5900 C   0  0  0  0  0  3  0  0  0  0  0  0
  190.3620  177.2040  143.3500 N   0  0  0  0  0  0  0  0  0  0  0  0
  189.8130  177.6710  144.6120 C   0  0  1  0  0  3  0  0  0  0  0  0
  189.0180  178.4970  141.9400 O   0  0  0  0  0  0  0  0  0  0  0  0
  188.4040  177.1320  144.7950 C   0  0  0  0  0  1  0  0  0  0  0  0
  191.7000  176.2340  144.8810 C   0  0  0  0  0  3  0  0  0  0  0  0
  190.7280  177.0510  145.6680 C   0  0  0  0  0  2  0  0  0  0  0  0
  186.0530  176.0870  134.5940 C   0  0  0  0  0  2  0  0  0  0  0  0
  185.2800  175.0870  135.4360 C   0  0  2  0  0  3  0  0  0  0  0  0
  184.8230  176.5540  135.3500 C   0  0  1  0  0  3  0  0  0  0  0  0
  188.6880  171.9780  135.7710 C   0  0  0  0  0  1  0  0  0  0  0  0
  185.3690  173.7110  137.5880 C   0  0  2  0  0  3  0  0  0  0  0  0
  186.1700  171.9670  135.8510 C   0  0  0  0  0  2  0  0  0  0  0  0
  186.1070  174.7070  136.6770 C   0  0  1  0  0  3  0  0  0  0  0  0
  185.2580  172.2720  137.0470 C   0  0  0  0  0  2  0  0  0  0  0  0
  187.4070  174.0850  136.2720 C   0  0  0  0  0  0  0  0  0  0  0  0
  188.4590  174.7810  136.2310 O   0  0  0  0  0  0  0  0  0  0  0  0
  187.4320  172.6900  135.9490 N   0  0  0  0  0  0  0  0  0  0  0  0
  184.1100  174.1850  137.9600 O   0  0  0  0  0  1  0  0  0  0  0  0
  1  7  2  0  0  0  0
  2  1  1  0  0  0  0
  3  8  1  0  0  0  0
  4  5  1  6  0  0  0
  4  6  1  0  0  0  0
  4  3  1  0  0  0  0
  6  8  1  1  0  0  0
  7  3  1  0  0  0  0
  9  5  2  0  0  0  0
  9  1  1  0  0  0  0
 10 11  1  0  0  0  0
 11 12  1  0  0  0  0
 12  2  1  6  0  0  0
 12 14  1  0  0  0  0
 13 10  1  1  0  0  0
 13 12  1  0  0  0  0
 13 14  1  0  0  0  0
 15 16  1  6  0  0  0
 15  6  1  0  0  0  0
 15 18  1  0  0  0  0
 16 18  1  0  0  0  0
 18 17  1  1  0  0  0
 18 19  1  0  0  0  0
 19 20  1  0  0  0  0
 20 21  1  0  0  0  0
 21 23  1  0  0  0  0
 22 27  2  0  0  0  0
 23 22  1  0  0  0  0
 23 24  1  0  0  0  0
 24 26  1  1  0  0  0
 24 28  1  0  0  0  0
 25 21  2  0  0  0  0
 27 28  1  0  0  0  0
 29 31  1  0  0  0  0
 30 29  1  6  0  0  0
 30 35  1  0  0  0  0
 31 30  1  0  0  0  0
 31  9  1  1  0  0  0
 32 39  1  0  0  0  0
 33 40  1  6  0  0  0
 34 39  1  0  0  0  0
 34 36  1  0  0  0  0
 35 37  1  6  0  0  0
 35 33  1  0  0  0  0
 36 33  1  0  0  0  0
 38 37  2  0  0  0  0
 39 37  1  0  0  0  0
M  END
>  <MODEL>
3

>  <REMARK>
 VINA RESULT:      -5.8      2.727      4.630
  Name = 
  7 active torsions:
  status: ('A' for Active; 'I' for Inactive)
    1  A    between atoms: C_3  and  C_35
    2  A    between atoms: N_6  and  C_25
    3  A    between atoms: N_7  and  C_15
    4  A    between atoms: C_16  and  C_23
    5  A    between atoms: C_27  and  N_39
    6  A    between atoms: C_34  and  C_37
    7  A    between atoms: C_35  and  N_39
                            x       y       z     vdW  Elec       q    Type
                         _______ _______ _______ _____ _____    ______ ____

>  <TORSDO>
F 7

$$$$
=
 OpenBabel11042413013D

 40 47  0  0  1  0  0  0  0  0999 V2000
  183.9300  177.1360  137.7070 C   0  0  0  0  0  0  0  0  0  0  0  0
  183.2730  176.2910  136.7580 N   0  0  0  0  0  2  0  0  0  0  0  0
  184.1780  178.0710  139.7900 N   0  0  0  0  0  0  0  0  0  0  0  0
  185.1720  179.0850  139.4320 C   0  0  2  0  0  3  0  0  0  0  0  0
  185.7570  178.7070  138.1370 N   0  0  0  0  0  0  0  0  0  0  0  0
  186.0020  178.7770  140.6080 C   0  0  1  0  0  3  0  0  0  0  0  0
  183.4820  177.2290  138.9240 N   0  0  0  0  0  0  0  0  0  0  0  0
  184.9620  177.8540  140.9620 N   0  0  0  0  0  2  0  0  0  0  0  0
  185.1930  177.8430  137.3240 C   0  0  0  0  0  0  0  0  0  0  0  0
  180.3250  175.3850  135.8300 C   0  0  0  0  0  2  0  0  0  0  0  0
  180.7330  176.2690  136.9850 C   0  0  0  0  0  2  0  0  0  0  0  0
  182.0600  175.5490  137.0670 C   0  0  1  0  0  0  0  0  0  0  0  0
  181.7050  174.7560  135.8100 C   0  0  1  0  0  3  0  0  0  0  0  0
  182.0890  174.0360  137.0810 C   0  0  0  0  0  2  0  0  0  0  0  0
  187.2150  178.0340  140.2600 N   0  0  1  0  0  0  0  0  0  0  0  0
  188.3270  179.0030  140.3650 C   0  0  0  0  0  2  0  0  0  0  0  0
  189.0910  176.7470  141.2900 C   0  0  0  0  0  1  0  0  0  0  0  0
  188.1910  177.9650  141.3740 C   0  0  2  0  0  0  0  0  0  0  0  0
  187.6650  178.3580  142.6830 N   0  0  0  0  0  2  0  0  0  0  0  0
  187.6280  177.1770  143.5320 C   0  0  0  0  0  2  0  0  0  0  0  0
  187.7580  177.5750  144.9650 C   0  0  0  0  0  0  0  0  0  0  0  0
  190.1420  176.7610  145.1410 C   0  0  0  0  0  3  0  0  0  0  0  0
  188.9570  177.2970  145.7020 N   0  0  0  0  0  0  0  0  0  0  0  0
  189.1790  177.6350  147.0980 C   0  0  1  0  0  3  0  0  0  0  0  0
  186.7960  178.1690  145.5190 O   0  0  0  0  0  0  0  0  0  0  0  0
  188.3140  176.7550  147.9870 C   0  0  0  0  0  1  0  0  0  0  0  0
  191.1160  176.7380  146.0290 C   0  0  0  0  0  3  0  0  0  0  0  0
  190.6500  177.2950  147.3350 C   0  0  0  0  0  2  0  0  0  0  0  0
  187.2760  177.9200  135.8800 C   0  0  0  0  0  2  0  0  0  0  0  0
  186.9070  176.4520  135.9960 C   0  0  2  0  0  3  0  0  0  0  0  0
  185.8120  177.5350  135.9790 C   0  0  1  0  0  3  0  0  0  0  0  0
  191.0310  174.8650  137.3590 C   0  0  0  0  0  1  0  0  0  0  0  0
  186.8960  174.4570  137.5940 C   0  0  2  0  0  3  0  0  0  0  0  0
  189.0030  173.9480  136.1790 C   0  0  0  0  0  2  0  0  0  0  0  0
  187.3140  175.9220  137.3820 C   0  0  1  0  0  3  0  0  0  0  0  0
  187.7060  173.4130  136.7990 C   0  0  0  0  0  2  0  0  0  0  0  0
  188.7980  176.0080  137.5610 C   0  0  0  0  0  0  0  0  0  0  0  0
  189.3080  176.9800  138.1820 O   0  0  0  0  0  0  0  0  0  0  0  0
  189.6180  174.9610  137.0270 N   0  0  0  0  0  0  0  0  0  0  0  0
  185.5300  174.2730  137.3780 O   0  0  0  0  0  1  0  0  0  0  0  0
  1  7  2  0  0  0  0
  2  1  1  0  0  0  0
  3  8  1  0  0  0  0
  4  5  1  6  0  0  0
  4  3  1  0  0  0  0
  4  6  1  0  0  0  0
  6  8  1  1  0  0  0
  7  3  1  0  0  0  0
  9  1  1  0  0  0  0
  9  5  2  0  0  0  0
 10 11  1  0  0  0  0
 11 12  1  0  0  0  0
 12  2  1  1  0  0  0
 12 14  1  0  0  0  0
 13 10  1  1  0  0  0
 13 12  1  0  0  0  0
 13 14  1  0  0  0  0
 15 16  1  6  0  0  0
 15  6  1  0  0  0  0
 15 18  1  0  0  0  0
 16 18  1  0  0  0  0
 18 17  1  6  0  0  0
 18 19  1  0  0  0  0
 19 20  1  0  0  0  0
 20 21  1  0  0  0  0
 21 25  2  0  0  0  0
 21 23  1  0  0  0  0
 22 23  1  0  0  0  0
 22 27  2  0  0  0  0
 23 24  1  0  0  0  0
 24 28  1  0  0  0  0
 24 26  1  1  0  0  0
 27 28  1  0  0  0  0
 29 31  1  0  0  0  0
 30 29  1  1  0  0  0
 30 35  1  0  0  0  0
 31 30  1  0  0  0  0
 31  9  1  1  0  0  0
 33 40  1  6  0  0  0
 34 36  1  0  0  0  0
 34 39  1  0  0  0  0
 35 37  1  6  0  0  0
 35 33  1  0  0  0  0
 36 33  1  0  0  0  0
 37 38  2  0  0  0  0
 39 32  1  0  0  0  0
 39 37  1  0  0  0  0
M  END
>  <MODEL>
4

>  <REMARK>
 VINA RESULT:      -5.8      2.145      3.268
  Name = 
  7 active torsions:
  status: ('A' for Active; 'I' for Inactive)
    1  A    between atoms: C_3  and  C_35
    2  A    between atoms: N_6  and  C_25
    3  A    between atoms: N_7  and  C_15
    4  A    between atoms: C_16  and  C_23
    5  A    between atoms: C_27  and  N_39
    6  A    between atoms: C_34  and  C_37
    7  A    between atoms: C_35  and  N_39
                            x       y       z     vdW  Elec       q    Type
                         _______ _______ _______ _____ _____    ______ ____

>  <TORSDO>
F 7

$$$$
=
 OpenBabel11042413013D

 40 47  0  0  1  0  0  0  0  0999 V2000
  188.3330  176.2410  137.7300 C   0  0  0  0  0  0  0  0  0  0  0  0
  187.0720  176.9030  137.5940 N   0  0  0  0  0  2  0  0  0  0  0  0
  189.8340  174.5730  137.2410 N   0  0  0  0  0  0  0  0  0  0  0  0
  190.7960  174.8570  138.3080 C   0  0  2  0  0  3  0  0  0  0  0  0
  190.5310  176.2150  138.8060 N   0  0  0  0  0  0  0  0  0  0  0  0
  191.9420  174.7370  137.3930 C   0  0  1  0  0  3  0  0  0  0  0  0
  188.5820  175.1570  137.0580 N   0  0  0  0  0  0  0  0  0  0  0  0
  190.9700  174.3820  136.4000 N   0  0  0  0  0  2  0  0  0  0  0  0
  189.4060  176.8520  138.5780 C   0  0  0  0  0  0  0  0  0  0  0  0
  183.9070  176.4300  137.2270 C   0  0  0  0  0  2  0  0  0  0  0  0
  185.0130  175.4120  137.3810 C   0  0  0  0  0  2  0  0  0  0  0  0
  185.9940  176.3850  136.7660 C   0  0  1  0  0  0  0  0  0  0  0  0
  184.9090  177.4610  136.7440 C   0  0  1  0  0  3  0  0  0  0  0  0
  185.6370  177.0890  135.4730 C   0  0  0  0  0  2  0  0  0  0  0  0
  192.5310  176.0350  137.0560 N   0  0  1  0  0  0  0  0  0  0  0  0
  193.6040  176.2620  138.0490 C   0  0  0  0  0  2  0  0  0  0  0  0
  194.3970  177.0660  135.7560 C   0  0  0  0  0  1  0  0  0  0  0  0
  193.9610  175.9410  136.6760 C   0  0  2  0  0  0  0  0  0  0  0  0
  194.4400  174.5850  136.3990 N   0  0  0  0  0  2  0  0  0  0  0  0
  195.7410  174.4240  137.0300 C   0  0  0  0  0  2  0  0  0  0  0  0
  195.8180  173.0970  137.7100 C   0  0  0  0  0  0  0  0  0  0  0  0
  196.9180  171.9690  135.7360 C   0  0  0  0  0  3  0  0  0  0  0  0
  196.3320  171.9460  137.0250 N   0  0  0  0  0  0  0  0  0  0  0  0
  196.4400  170.6130  137.5940 C   0  0  1  0  0  3  0  0  0  0  0  0
  195.4300  173.0040  138.9040 O   0  0  0  0  0  0  0  0  0  0  0  0
  195.0550  170.0100  137.7680 C   0  0  0  0  0  1  0  0  0  0  0  0
  197.4140  170.7900  135.4220 C   0  0  0  0  0  3  0  0  0  0  0  0
  197.2020  169.8160  136.5360 C   0  0  0  0  0  2  0  0  0  0  0  0
  188.0910  178.2560  140.2300 C   0  0  0  0  0  2  0  0  0  0  0  0
  189.5470  178.3830  140.6450 C   0  0  2  0  0  3  0  0  0  0  0  0
  189.1680  178.2270  139.1610 C   0  0  1  0  0  3  0  0  0  0  0  0
  188.7300  177.1280  145.0200 C   0  0  0  0  0  1  0  0  0  0  0  0
  191.4460  177.1860  141.8670 C   0  0  2  0  0  3  0  0  0  0  0  0
  190.4020  178.5610  143.7970 C   0  0  0  0  0  2  0  0  0  0  0  0
  189.9930  177.1000  141.3690 C   0  0  1  0  0  3  0  0  0  0  0  0
  191.6800  178.1180  143.0730 C   0  0  0  0  0  2  0  0  0  0  0  0
  189.1150  176.8330  142.5510 C   0  0  0  0  0  0  0  0  0  0  0  0
  188.1580  176.0160  142.4600 O   0  0  0  0  0  0  0  0  0  0  0  0
  189.3940  177.5080  143.7830 N   0  0  0  0  0  0  0  0  0  0  0  0
  192.3290  177.5030  140.8350 O   0  0  0  0  0  1  0  0  0  0  0  0
  1  9  1  0  0  0  0
  2  1  1  0  0  0  0
  3  4  1  0  0  0  0
  4  5  1  6  0  0  0
  6  8  1  6  0  0  0
  6  4  1  0  0  0  0
  7  3  1  0  0  0  0
  7  1  2  0  0  0  0
  8  3  1  0  0  0  0
  9  5  2  0  0  0  0
 10 11  1  0  0  0  0
 12 11  1  0  0  0  0
 12  2  1  1  0  0  0
 13 14  1  6  0  0  0
 13 12  1  0  0  0  0
 13 10  1  0  0  0  0
 14 12  1  0  0  0  0
 15  6  1  0  0  0  0
 15 16  1  1  0  0  0
 18 17  1  6  0  0  0
 18 15  1  0  0  0  0
 18 16  1  0  0  0  0
 19 18  1  0  0  0  0
 19 20  1  0  0  0  0
 20 21  1  0  0  0  0
 21 25  2  0  0  0  0
 22 23  1  0  0  0  0
 23 24  1  0  0  0  0
 23 21  1  0  0  0  0
 24 26  1  6  0  0  0
 27 22  2  0  0  0  0
 27 28  1  0  0  0  0
 28 24  1  0  0  0  0
 30 29  1  1  0  0  0
 30 35  1  0  0  0  0
 31  9  1  1  0  0  0
 31 29  1  0  0  0  0
 31 30  1  0  0  0  0
 33 40  1  6  0  0  0
 33 36  1  0  0  0  0
 35 33  1  0  0  0  0
 35 37  1  1  0  0  0
 36 34  1  0  0  0  0
 37 39  1  0  0  0  0
 38 37  2  0  0  0  0
 39 34  1  0  0  0  0
 39 32  1  0  0  0  0
M  END
>  <MODEL>
5

>  <REMARK>
 VINA RESULT:      -5.5      5.494      9.851
  Name = 
  7 active torsions:
  status: ('A' for Active; 'I' for Inactive)
    1  A    between atoms: C_3  and  C_35
    2  A    between atoms: N_6  and  C_25
    3  A    between atoms: N_7  and  C_15
    4  A    between atoms: C_16  and  C_23
    5  A    between atoms: C_27  and  N_39
    6  A    between atoms: C_34  and  C_37
    7  A    between atoms: C_35  and  N_39
                            x       y       z     vdW  Elec       q    Type
                         _______ _______ _______ _____ _____    ______ ____

>  <TORSDO>
F 7

$$$$
=
 OpenBabel11042413013D

 40 47  0  0  1  0  0  0  0  0999 V2000
  188.1170  177.8680  141.3460 C   0  0  0  0  0  0  0  0  0  0  0  0
  189.3740  177.2100  141.1620 N   0  0  0  0  0  2  0  0  0  0  0  0
  186.5040  179.4000  140.7740 N   0  0  0  0  0  0  0  0  0  0  0  0
  185.6990  179.2990  141.9930 C   0  0  2  0  0  3  0  0  0  0  0  0
  186.0750  178.0560  142.6820 N   0  0  0  0  0  0  0  0  0  0  0  0
  184.4400  179.2360  141.2310 C   0  0  1  0  0  3  0  0  0  0  0  0
  187.7430  178.8100  140.5310 N   0  0  0  0  0  0  0  0  0  0  0  0
  185.2630  179.4200  140.0710 N   0  0  0  0  0  2  0  0  0  0  0  0
  187.1860  177.4040  142.4230 C   0  0  0  0  0  0  0  0  0  0  0  0
  191.9420  176.4020  139.3940 C   0  0  0  0  0  2  0  0  0  0  0  0
  191.7970  177.5030  140.4180 C   0  0  0  0  0  2  0  0  0  0  0  0
  190.3160  177.5850  140.1190 C   0  0  1  0  0  0  0  0  0  0  0  0
  190.4390  176.3780  139.1910 C   0  0  1  0  0  3  0  0  0  0  0  0
  189.8490  177.6720  138.6810 C   0  0  0  0  0  2  0  0  0  0  0  0
  183.8620  177.8910  141.2110 N   0  0  1  0  0  0  0  0  0  0  0  0
  182.5230  178.0170  141.8270 C   0  0  0  0  0  2  0  0  0  0  0  0
  182.3890  176.4090  139.8450 C   0  0  0  0  0  1  0  0  0  0  0  0
  182.6290  177.8030  140.3920 C   0  0  2  0  0  0  0  0  0  0  0  0
  182.3850  178.9510  139.5170 N   0  0  0  0  0  2  0  0  0  0  0  0
  180.9610  179.0080  139.2260 C   0  0  0  0  0  2  0  0  0  0  0  0
  180.5610  180.4100  138.9070 C   0  0  0  0  0  0  0  0  0  0  0  0
  180.8060  180.0830  136.4150 C   0  0  0  0  0  3  0  0  0  0  0  0
  180.5630  180.8880  137.5540 N   0  0  0  0  0  0  0  0  0  0  0  0
  180.2000  182.2340  137.1420 C   0  0  1  0  0  3  0  0  0  0  0  0
  180.2100  181.1700  139.8480 O   0  0  0  0  0  0  0  0  0  0  0  0
  181.2660  183.2190  137.5940 C   0  0  0  0  0  1  0  0  0  0  0  0
  180.6140  180.7660  135.3040 C   0  0  0  0  0  3  0  0  0  0  0  0
  180.1950  182.1670  135.6150 C   0  0  0  0  0  2  0  0  0  0  0  0
  189.0010  176.1160  143.6370 C   0  0  0  0  0  2  0  0  0  0  0  0
  187.9290  176.3980  144.6740 C   0  0  2  0  0  3  0  0  0  0  0  0
  187.5480  176.1600  143.2020 C   0  0  1  0  0  3  0  0  0  0  0  0
  190.5510  178.2270  148.0160 C   0  0  0  0  0  1  0  0  0  0  0  0
  186.8700  178.2560  146.0750 C   0  0  2  0  0  3  0  0  0  0  0  0
  188.3240  177.0620  147.8530 C   0  0  0  0  0  2  0  0  0  0  0  0
  188.0150  177.8670  145.1230 C   0  0  1  0  0  3  0  0  0  0  0  0
  186.9600  177.6680  147.4970 C   0  0  0  0  0  2  0  0  0  0  0  0
  189.3090  178.1250  145.8300 C   0  0  0  0  0  0  0  0  0  0  0  0
  190.2810  178.6350  145.2090 O   0  0  0  0  0  0  0  0  0  0  0  0
  189.4120  177.7970  147.2200 N   0  0  0  0  0  0  0  0  0  0  0  0
  185.6200  177.9820  145.5180 O   0  0  0  0  0  1  0  0  0  0  0  0
  1  9  1  0  0  0  0
  2  1  1  0  0  0  0
  3  4  1  0  0  0  0
  4  5  1  6  0  0  0
  6  8  1  6  0  0  0
  6  4  1  0  0  0  0
  7  3  1  0  0  0  0
  7  1  2  0  0  0  0
  8  3  1  0  0  0  0
  9  5  2  0  0  0  0
 10 11  1  0  0  0  0
 12 11  1  0  0  0  0
 12  2  1  1  0  0  0
 13 14  1  6  0  0  0
 13 10  1  0  0  0  0
 13 12  1  0  0  0  0
 14 12  1  0  0  0  0
 15  6  1  0  0  0  0
 15 16  1  1  0  0  0
 18 17  1  6  0  0  0
 18 15  1  0  0  0  0
 18 16  1  0  0  0  0
 19 18  1  0  0  0  0
 20 19  1  0  0  0  0
 21 20  1  0  0  0  0
 21 25  2  0  0  0  0
 22 23  1  0  0  0  0
 23 21  1  0  0  0  0
 24 23  1  0  0  0  0
 24 26  1  6  0  0  0
 27 28  1  0  0  0  0
 27 22  2  0  0  0  0
 28 24  1  0  0  0  0
 30 29  1  6  0  0  0
 30 35  1  0  0  0  0
 31  9  1  6  0  0  0
 31 29  1  0  0  0  0
 31 30  1  0  0  0  0
 33 40  1  6  0  0  0
 33 36  1  0  0  0  0
 35 37  1  1  0  0  0
 35 33  1  0  0  0  0
 36 34  1  0  0  0  0
 37 39  1  0  0  0  0
 38 37  2  0  0  0  0
 39 34  1  0  0  0  0
 39 32  1  0  0  0  0
M  END
>  <MODEL>
6

>  <REMARK>
 VINA RESULT:      -5.5      4.100      8.819
  Name = 
  7 active torsions:
  status: ('A' for Active; 'I' for Inactive)
    1  A    between atoms: C_3  and  C_35
    2  A    between atoms: N_6  and  C_25
    3  A    between atoms: N_7  and  C_15
    4  A    between atoms: C_16  and  C_23
    5  A    between atoms: C_27  and  N_39
    6  A    between atoms: C_34  and  C_37
    7  A    between atoms: C_35  and  N_39
                            x       y       z     vdW  Elec       q    Type
                         _______ _______ _______ _____ _____    ______ ____

>  <TORSDO>
F 7

$$$$
=
 OpenBabel11042413013D

 40 47  0  0  1  0  0  0  0  0999 V2000
  184.2600  176.9980  137.3950 C   0  0  0  0  0  0  0  0  0  0  0  0
  183.6700  176.1150  136.4370 N   0  0  0  0  0  2  0  0  0  0  0  0
  184.3860  177.9830  139.4670 N   0  0  0  0  0  0  0  0  0  0  0  0
  185.3710  179.0140  139.1320 C   0  0  2  0  0  3  0  0  0  0  0  0
  186.0250  178.6240  137.8740 N   0  0  0  0  0  0  0  0  0  0  0  0
  186.1520  178.7530  140.3520 C   0  0  1  0  0  3  0  0  0  0  0  0
  183.7530  177.1050  138.5880 N   0  0  0  0  0  0  0  0  0  0  0  0
  185.1200  177.8120  140.6780 N   0  0  0  0  0  2  0  0  0  0  0  0
  185.5220  177.7280  137.0560 C   0  0  0  0  0  0  0  0  0  0  0  0
  180.9060  174.9050  135.3100 C   0  0  0  0  0  2  0  0  0  0  0  0
  181.1240  175.9660  136.3630 C   0  0  0  0  0  2  0  0  0  0  0  0
  182.4620  175.3500  136.7060 C   0  0  1  0  0  0  0  0  0  0  0  0
  182.3040  174.3670  135.5460 C   0  0  1  0  0  3  0  0  0  0  0  0
  182.5570  173.8580  136.9460 C   0  0  0  0  0  2  0  0  0  0  0  0
  187.3980  178.0340  140.0790 N   0  0  1  0  0  0  0  0  0  0  0  0
  188.4870  179.0040  140.3260 C   0  0  0  0  0  2  0  0  0  0  0  0
  189.1890  176.7100  141.2080 C   0  0  0  0  0  1  0  0  0  0  0  0
  188.2730  177.9180  141.2690 C   0  0  2  0  0  0  0  0  0  0  0  0
  187.6300  178.2450  142.5440 N   0  0  0  0  0  2  0  0  0  0  0  0
  187.6980  177.0730  143.4020 C   0  0  0  0  0  2  0  0  0  0  0  0
  187.1770  177.4050  144.7610 C   0  0  0  0  0  0  0  0  0  0  0  0
  184.9670  178.2550  143.8820 C   0  0  0  0  0  3  0  0  0  0  0  0
  185.8930  178.0240  144.9290 N   0  0  0  0  0  0  0  0  0  0  0  0
  185.3020  178.3940  146.2040 C   0  0  1  0  0  3  0  0  0  0  0  0
  187.8810  177.1250  145.7670 O   0  0  0  0  0  0  0  0  0  0  0  0
  186.0550  179.5720  146.8010 C   0  0  0  0  0  1  0  0  0  0  0  0
  183.8270  178.7170  144.3550 C   0  0  0  0  0  3  0  0  0  0  0  0
  183.8840  178.8370  145.8430 C   0  0  0  0  0  2  0  0  0  0  0  0
  187.6560  177.8680  135.6930 C   0  0  0  0  0  2  0  0  0  0  0  0
  187.3610  176.3870  135.8500 C   0  0  2  0  0  3  0  0  0  0  0  0
  186.2110  177.4060  135.7490 C   0  0  1  0  0  3  0  0  0  0  0  0
  191.4910  175.0170  137.4150 C   0  0  0  0  0  1  0  0  0  0  0  0
  187.3680  174.4590  137.5280 C   0  0  2  0  0  3  0  0  0  0  0  0
  189.5410  173.9750  136.2070 C   0  0  0  0  0  2  0  0  0  0  0  0
  187.7390  175.9300  137.2690 C   0  0  1  0  0  3  0  0  0  0  0  0
  188.2440  173.4160  136.8050 C   0  0  0  0  0  2  0  0  0  0  0  0
  189.2110  176.0800  137.4940 C   0  0  0  0  0  0  0  0  0  0  0  0
  189.6630  177.0960  138.0910 O   0  0  0  0  0  0  0  0  0  0  0  0
  190.0880  175.0450  137.0320 N   0  0  0  0  0  0  0  0  0  0  0  0
  186.0180  174.2140  137.2740 O   0  0  0  0  0  1  0  0  0  0  0  0
  1  7  2  0  0  0  0
  2  1  1  0  0  0  0
  3  8  1  0  0  0  0
  4  5  1  6  0  0  0
  4  3  1  0  0  0  0
  4  6  1  0  0  0  0
  6  8  1  1  0  0  0
  7  3  1  0  0  0  0
  9  1  1  0  0  0  0
  9  5  2  0  0  0  0
 10 11  1  0  0  0  0
 11 12  1  0  0  0  0
 12  2  1  1  0  0  0
 12 14  1  0  0  0  0
 13 10  1  1  0  0  0
 13 12  1  0  0  0  0
 13 14  1  0  0  0  0
 15 16  1  6  0  0  0
 15  6  1  0  0  0  0
 15 18  1  0  0  0  0
 16 18  1  0  0  0  0
 18 17  1  1  0  0  0
 18 19  1  0  0  0  0
 19 20  1  0  0  0  0
 20 21  1  0  0  0  0
 21 23  1  0  0  0  0
 21 25  2  0  0  0  0
 22 27  2  0  0  0  0
 22 23  1  0  0  0  0
 23 24  1  0  0  0  0
 24 26  1  6  0  0  0
 27 28  1  0  0  0  0
 28 24  1  0  0  0  0
 29 31  1  0  0  0  0
 30 29  1  1  0  0  0
 30 35  1  0  0  0  0
 31 30  1  0  0  0  0
 31  9  1  1  0  0  0
 33 40  1  6  0  0  0
 34 36  1  0  0  0  0
 34 39  1  0  0  0  0
 35 37  1  6  0  0  0
 35 33  1  0  0  0  0
 36 33  1  0  0  0  0
 37 38  2  0  0  0  0
 39 32  1  0  0  0  0
 39 37  1  0  0  0  0
M  END
>  <MODEL>
7

>  <REMARK>
 VINA RESULT:      -5.4      2.004      3.134
  Name = 
  7 active torsions:
  status: ('A' for Active; 'I' for Inactive)
    1  A    between atoms: C_3  and  C_35
    2  A    between atoms: N_6  and  C_25
    3  A    between atoms: N_7  and  C_15
    4  A    between atoms: C_16  and  C_23
    5  A    between atoms: C_27  and  N_39
    6  A    between atoms: C_34  and  C_37
    7  A    between atoms: C_35  and  N_39
                            x       y       z     vdW  Elec       q    Type
                         _______ _______ _______ _____ _____    ______ ____

>  <TORSDO>
F 7

$$$$
=
 OpenBabel11042413013D

 40 47  0  0  1  0  0  0  0  0999 V2000
  182.2640  177.8660  139.1640 C   0  0  0  0  0  0  0  0  0  0  0  0
  181.0300  177.1560  139.3030 N   0  0  0  0  0  2  0  0  0  0  0  0
  184.1100  178.9470  140.0000 N   0  0  0  0  0  0  0  0  0  0  0  0
  184.5850  179.5240  138.7400 C   0  0  2  0  0  3  0  0  0  0  0  0
  183.9330  178.8030  137.6380 N   0  0  0  0  0  0  0  0  0  0  0  0
  185.9770  179.1290  139.0110 C   0  0  1  0  0  3  0  0  0  0  0  0
  182.9140  178.2650  140.2170 N   0  0  0  0  0  0  0  0  0  0  0  0
  185.4800  178.6520  140.2690 N   0  0  0  0  0  2  0  0  0  0  0  0
  182.8590  178.0650  137.8040 C   0  0  0  0  0  0  0  0  0  0  0  0
  179.0710  178.1980  141.6370 C   0  0  0  0  0  2  0  0  0  0  0  0
  180.5570  177.9310  141.6860 C   0  0  0  0  0  2  0  0  0  0  0  0
  180.4080  176.8980  140.5920 C   0  0  1  0  0  0  0  0  0  0  0  0
  178.9330  177.2720  140.4440 C   0  0  1  0  0  3  0  0  0  0  0  0
  179.3320  175.8380  140.7070 C   0  0  0  0  0  2  0  0  0  0  0  0
  186.4080  177.9920  138.1940 N   0  0  1  0  0  0  0  0  0  0  0  0
  187.2950  178.5550  137.1530 C   0  0  0  0  0  2  0  0  0  0  0  0
  188.2560  176.3300  137.9630 C   0  0  0  0  0  1  0  0  0  0  0  0
  187.8730  177.7730  138.2340 C   0  0  2  0  0  0  0  0  0  0  0  0
  188.5790  178.4970  139.2930 N   0  0  0  0  0  2  0  0  0  0  0  0
  189.1580  177.5220  140.2040 C   0  0  0  0  0  2  0  0  0  0  0  0
  188.9880  177.9780  141.6150 C   0  0  0  0  0  0  0  0  0  0  0  0
  190.7260  176.3800  142.5110 C   0  0  0  0  0  3  0  0  0  0  0  0
  189.7160  177.3570  142.6840 N   0  0  0  0  0  0  0  0  0  0  0  0
  189.6140  177.7210  144.0880 C   0  0  1  0  0  3  0  0  0  0  0  0
  188.1960  178.9280  141.8550 O   0  0  0  0  0  0  0  0  0  0  0  0
  188.2600  177.2980  144.6350 C   0  0  0  0  0  1  0  0  0  0  0  0
  191.3050  176.0910  143.6590 C   0  0  0  0  0  3  0  0  0  0  0  0
  190.7080  176.8970  144.7670 C   0  0  0  0  0  2  0  0  0  0  0  0
  183.0620  177.3630  135.3760 C   0  0  0  0  0  2  0  0  0  0  0  0
  182.8630  176.0800  136.1630 C   0  0  2  0  0  3  0  0  0  0  0  0
  182.1990  177.3900  136.6230 C   0  0  1  0  0  3  0  0  0  0  0  0
  186.3080  173.4230  134.5940 C   0  0  0  0  0  1  0  0  0  0  0  0
  183.9850  174.5350  137.8630 C   0  0  2  0  0  3  0  0  0  0  0  0
  184.0840  173.0770  135.7260 C   0  0  0  0  0  2  0  0  0  0  0  0
  184.1740  175.6980  136.8730 C   0  0  1  0  0  3  0  0  0  0  0  0
  183.7620  173.1490  137.2240 C   0  0  0  0  0  2  0  0  0  0  0  0
  185.2120  175.2910  135.8750 C   0  0  0  0  0  0  0  0  0  0  0  0
  186.0840  176.1170  135.4920 O   0  0  0  0  0  0  0  0  0  0  0  0
  185.2030  173.9460  135.3820 N   0  0  0  0  0  0  0  0  0  0  0  0
  182.9800  174.8050  138.7920 O   0  0  0  0  0  1  0  0  0  0  0  0
  1  2  1  0  0  0  0
  1  7  2  0  0  0  0
  3  7  1  0  0  0  0
  3  8  1  0  0  0  0
  4  5  1  6  0  0  0
  4  6  1  0  0  0  0
  4  3  1  0  0  0  0
  5  9  2  0  0  0  0
  6  8  1  1  0  0  0
  9  1  1  0  0  0  0
 10 11  1  0  0  0  0
 12  2  1  6  0  0  0
 12 14  1  0  0  0  0
 12 11  1  0  0  0  0
 13 12  1  0  0  0  0
 13 14  1  1  0  0  0
 13 10  1  0  0  0  0
 15 16  1  6  0  0  0
 15 18  1  0  0  0  0
 15  6  1  0  0  0  0
 16 18  1  0  0  0  0
 18 17  1  6  0  0  0
 18 19  1  0  0  0  0
 19 20  1  0  0  0  0
 20 21  1  0  0  0  0
 21 25  2  0  0  0  0
 21 23  1  0  0  0  0
 22 23  1  0  0  0  0
 22 27  2  0  0  0  0
 23 24  1  0  0  0  0
 24 26  1  1  0  0  0
 24 28  1  0  0  0  0
 27 28  1  0  0  0  0
 29 31  1  0  0  0  0
 30 29  1  6  0  0  0
 30 31  1  0  0  0  0
 30 35  1  0  0  0  0
 31  9  1  1  0  0  0
 32 39  1  0  0  0  0
 33 40  1  6  0  0  0
 34 36  1  0  0  0  0
 35 37  1  6  0  0  0
 35 33  1  0  0  0  0
 36 33  1  0  0  0  0
 38 37  2  0  0  0  0
 39 34  1  0  0  0  0
 39 37  1  0  0  0  0
M  END
>  <MODEL>
8

>  <REMARK>
 VINA RESULT:      -5.2      2.609      4.723
  Name = 
  7 active torsions:
  status: ('A' for Active; 'I' for Inactive)
    1  A    between atoms: C_3  and  C_35
    2  A    between atoms: N_6  and  C_25
    3  A    between atoms: N_7  and  C_15
    4  A    between atoms: C_16  and  C_23
    5  A    between atoms: C_27  and  N_39
    6  A    between atoms: C_34  and  C_37
    7  A    between atoms: C_35  and  N_39
                            x       y       z     vdW  Elec       q    Type
                         _______ _______ _______ _____ _____    ______ ____

>  <TORSDO>
F 7

$$$$
=
 OpenBabel11042413013D

 40 47  0  0  1  0  0  0  0  0999 V2000
  181.5210  179.9090  138.0630 C   0  0  0  0  0  0  0  0  0  0  0  0
  180.3940  180.5160  137.4260 N   0  0  0  0  0  2  0  0  0  0  0  0
  183.7490  179.7960  138.6130 N   0  0  0  0  0  0  0  0  0  0  0  0
  183.7470  178.4360  139.1560 C   0  0  2  0  0  3  0  0  0  0  0  0
  182.3530  178.0640  139.4410 N   0  0  0  0  0  0  0  0  0  0  0  0
  184.5410  178.8350  140.3290 C   0  0  1  0  0  3  0  0  0  0  0  0
  182.7020  180.4450  137.9610 N   0  0  0  0  0  0  0  0  0  0  0  0
  184.5860  180.1320  139.7190 N   0  0  0  0  0  2  0  0  0  0  0  0
  181.3250  178.7040  138.9310 C   0  0  0  0  0  0  0  0  0  0  0  0
  179.0730  182.3810  135.1560 C   0  0  0  0  0  2  0  0  0  0  0  0
  180.3390  181.5570  135.0980 C   0  0  0  0  0  2  0  0  0  0  0  0
  180.5030  181.7050  136.5940 C   0  0  1  0  0  0  0  0  0  0  0  0
  179.1510  182.4130  136.6700 C   0  0  1  0  0  3  0  0  0  0  0  0
  180.3900  183.0760  137.2260 C   0  0  0  0  0  2  0  0  0  0  0  0
  183.7400  178.9010  141.5540 N   0  0  1  0  0  0  0  0  0  0  0  0
  183.8710  177.5740  142.1940 C   0  0  0  0  0  2  0  0  0  0  0  0
  183.9250  179.3850  143.9970 C   0  0  0  0  0  1  0  0  0  0  0  0
  184.5470  178.7180  142.7840 C   0  0  2  0  0  0  0  0  0  0  0  0
  185.9950  178.8200  142.5940 N   0  0  0  0  0  2  0  0  0  0  0  0
  186.6220  177.6760  143.2400 C   0  0  0  0  0  2  0  0  0  0  0  0
  188.1030  177.7430  143.0700 C   0  0  0  0  0  0  0  0  0  0  0  0
  188.5630  177.3120  145.5160 C   0  0  0  0  0  3  0  0  0  0  0  0
  188.9810  177.6240  144.1990 N   0  0  0  0  0  0  0  0  0  0  0  0
  190.4320  177.6840  144.1420 C   0  0  1  0  0  3  0  0  0  0  0  0
  188.5760  177.8980  141.9140 O   0  0  0  0  0  0  0  0  0  0  0  0
  190.8790  179.1020  143.8220 C   0  0  0  0  0  1  0  0  0  0  0  0
  189.5990  177.1420  146.3120 C   0  0  0  0  0  3  0  0  0  0  0  0
  190.8770  177.3270  145.5590 C   0  0  0  0  0  2  0  0  0  0  0  0
  179.0650  178.0780  137.9680 C   0  0  0  0  0  2  0  0  0  0  0  0
  179.5660  176.8390  138.6890 C   0  0  2  0  0  3  0  0  0  0  0  0
  179.9140  178.2430  139.2150 C   0  0  1  0  0  3  0  0  0  0  0  0
  179.0080  174.2190  134.9190 C   0  0  0  0  0  1  0  0  0  0  0  0
  181.1120  174.8170  138.4590 C   0  0  2  0  0  3  0  0  0  0  0  0
  178.9310  173.8930  137.4160 C   0  0  0  0  0  2  0  0  0  0  0  0
  180.6460  176.1460  137.8400 C   0  0  1  0  0  3  0  0  0  0  0  0
  180.1020  173.6550  138.3780 C   0  0  0  0  0  2  0  0  0  0  0  0
  180.1280  175.8580  136.4660 C   0  0  0  0  0  0  0  0  0  0  0  0
  180.3920  176.6380  135.5100 O   0  0  0  0  0  0  0  0  0  0  0  0
  179.3460  174.6750  136.2580 N   0  0  0  0  0  0  0  0  0  0  0  0
  181.5490  174.9840  139.7740 O   0  0  0  0  0  1  0  0  0  0  0  0
  1  9  1  0  0  0  0
  2  1  1  0  0  0  0
  3  4  1  0  0  0  0
  3  8  1  0  0  0  0
  4  5  1  1  0  0  0
  4  6  1  0  0  0  0
  6  8  1  6  0  0  0
  6 15  1  0  0  0  0
  7  1  2  0  0  0  0
  7  3  1  0  0  0  0
  9  5  2  0  0  0  0
 11 10  1  0  0  0  0
 11 12  1  0  0  0  0
 12 13  1  0  0  0  0
 12 14  1  0  0  0  0
 12  2  1  1  0  0  0
 13 10  1  6  0  0  0
 13 14  1  0  0  0  0
 15 16  1  6  0  0  0
 15 18  1  0  0  0  0
 16 18  1  0  0  0  0
 18 17  1  1  0  0  0
 19 18  1  0  0  0  0
 19 20  1  0  0  0  0
 21 20  1  0  0  0  0
 21 23  1  0  0  0  0
 22 27  2  0  0  0  0
 23 22  1  0  0  0  0
 24 26  1  1  0  0  0
 24 23  1  0  0  0  0
 24 28  1  0  0  0  0
 25 21  2  0  0  0  0
 28 27  1  0  0  0  0
 29 31  1  0  0  0  0
 30 29  1  6  0  0  0
 30 31  1  0  0  0  0
 31  9  1  6  0  0  0
 32 39  1  0  0  0  0
 33 40  1  1  0  0  0
 34 36  1  0  0  0  0
 35 37  1  6  0  0  0
 35 33  1  0  0  0  0
 35 30  1  0  0  0  0
 36 33  1  0  0  0  0
 38 37  2  0  0  0  0
 39 37  1  0  0  0  0
 39 34  1  0  0  0  0
M  END
>  <MODEL>
9

>  <REMARK>
 VINA RESULT:      -5.2      3.589      6.503
  Name = 
  7 active torsions:
  status: ('A' for Active; 'I' for Inactive)
    1  A    between atoms: C_3  and  C_35
    2  A    between atoms: N_6  and  C_25
    3  A    between atoms: N_7  and  C_15
    4  A    between atoms: C_16  and  C_23
    5  A    between atoms: C_27  and  N_39
    6  A    between atoms: C_34  and  C_37
    7  A    between atoms: C_35  and  N_39
                            x       y       z     vdW  Elec       q    Type
                         _______ _______ _______ _____ _____    ______ ____

>  <TORSDO>
F 7

$$$$
