=
 OpenBabel11042409493D

 33 39  0  0  1  0  0  0  0  0999 V2000
  187.4730  178.7120  140.1770 O   0  0  0  0  0  0  0  0  0  0  0  0
  189.1350  177.5320  141.2840 N   0  0  0  0  0  2  0  0  0  0  0  0
  188.5250  178.0280  140.0920 C   0  0  0  0  0  0  0  0  0  0  0  0
  190.2820  176.7210  141.2280 N   0  0  0  0  0  0  0  0  0  0  0  0
  191.0310  176.7540  142.5120 C   0  0  1  0  0  3  0  0  0  0  0  0
  191.4400  177.6120  141.4060 C   0  0  0  0  0  2  0  0  0  0  0  0
  190.3770  177.5860  143.6180 C   0  0  2  0  0  3  0  0  0  0  0  0
  191.3700  177.8710  144.7200 C   0  0  1  0  0  3  0  0  0  0  0  0
  190.3750  176.7940  144.9050 C   0  0  2  0  0  0  0  0  0  0  0  0
  191.7280  176.6520  145.4600 N   0  0  0  0  0  2  0  0  0  0  0  0
  187.5340  178.0890  147.9120 C   0  0  0  0  0  3  0  0  0  0  0  0
  189.3020  177.2330  145.8890 C   0  0  0  0  0  0  0  0  0  0  0  0
  187.9280  177.4670  145.5970 C   0  0  0  0  0  0  0  0  0  0  0  0
  188.8790  177.8790  148.2050 C   0  0  0  0  0  3  0  0  0  0  0  0
  189.7540  177.4590  147.2000 C   0  0  0  0  0  3  0  0  0  0  0  0
  187.0620  177.8830  146.6150 C   0  0  0  0  0  3  0  0  0  0  0  0
  187.3470  177.2880  144.2880 C   0  0  0  0  0  0  0  0  0  0  0  0
  186.8760  177.1480  143.2400 N   0  0  0  0  0  0  0  0  0  0  0  0
  189.1260  177.7280  138.7480 C   0  0  2  0  0  3  0  0  0  0  0  0
  188.9780  179.7110  137.3660 N   0  0  0  0  0  2  0  0  0  0  0  0
  188.5000  178.5590  137.6660 C   0  0  0  0  0  0  0  0  0  0  0  0
  187.3180  178.0340  136.9220 C   0  0  0  0  0  1  0  0  0  0  0  0
  189.0120  176.3110  138.4390 N   0  0  0  0  0  2  0  0  0  0  0  0
  190.2310  174.4460  137.4630 C   0  0  2  0  0  0  0  0  0  0  0  0
  189.1110  173.9210  136.5900 C   0  0  0  0  0  2  0  0  0  0  0  0
  190.1550  175.9540  137.6110 C   0  0  1  0  0  3  0  0  0  0  0  0
  189.6720  175.3040  136.3330 C   0  0  1  0  0  3  0  0  0  0  0  0
  194.1420  173.0800  136.4520 C   0  0  0  0  0  3  0  0  0  0  0  0
  193.9450  174.0900  137.3900 C   0  0  0  0  0  3  0  0  0  0  0  0
  193.0230  172.5310  135.8340 C   0  0  0  0  0  3  0  0  0  0  0  0
  191.6020  173.9710  137.0690 C   0  0  0  0  0  0  0  0  0  0  0  0
  191.7790  172.9780  136.1500 N   0  0  0  0  0  0  0  0  0  0  0  0
  192.6880  174.5160  137.6800 N   0  0  0  0  0  0  0  0  0  0  0  0
  3  1  2  0  0  0  0
  3  2  1  0  0  0  0
  4  2  1  0  0  0  0
  4  6  1  0  0  0  0
  4  5  1  0  0  0  0
  5  6  1  6  0  0  0
  7  5  1  6  0  0  0
  7  8  1  0  0  0  0
  7  9  1  0  0  0  0
  8  9  1  0  0  0  0
  8 10  1  6  0  0  0
  9 10  1  0  0  0  0
  9 12  1  1  0  0  0
 11 14  1  0  0  0  0
 12 15  1  0  0  0  0
 13 12  2  0  0  0  0
 13 16  1  0  0  0  0
 15 14  2  0  0  0  0
 16 11  2  0  0  0  0
 17 13  1  0  0  0  0
 18 17  3  0  0  0  0
 19 21  1  6  0  0  0
 19  3  1  0  0  0  0
 20 21  2  0  0  0  0
 22 21  1  0  0  0  0
 23 19  1  0  0  0  0
 24 31  1  6  0  0  0
 24 26  1  0  0  0  0
 25 24  1  0  0  0  0
 26 23  1  1  0  0  0
 27 25  1  1  0  0  0
 27 24  1  0  0  0  0
 27 26  1  0  0  0  0
 28 29  1  0  0  0  0
 29 33  2  0  0  0  0
 30 32  1  0  0  0  0
 30 28  2  0  0  0  0
 31 33  1  0  0  0  0
 32 31  2  0  0  0  0
M  END
>  <MODEL>
1

>  <REMARK>
 VINA RESULT:      -8.3      0.000      0.000
  Name = 
  9 active torsions:
  status: ('A' for Active; 'I' for Inactive)
    1  A    between atoms: C_1  and  C_22
    2  A    between atoms: C_3  and  C_7
    3  A    between atoms: C_5  and  C_25
    4  A    between atoms: N_6  and  C_20
    5  A    between atoms: N_6  and  C_23
    6  A    between atoms: N_9  and  N_13
    7  A    between atoms: C_12  and  C_15
    8  A    between atoms: C_14  and  C_20
    9  A    between atoms: C_20  and  C_28
                            x       y       z     vdW  Elec       q    Type
                         _______ _______ _______ _____ _____    ______ ____

>  <TORSDO>
F 9

$$$$
=
 OpenBabel11042409493D

 33 39  0  0  1  0  0  0  0  0999 V2000
  189.3760  178.8770  139.0250 O   0  0  0  0  0  0  0  0  0  0  0  0
  189.9610  177.5680  140.8490 N   0  0  0  0  0  2  0  0  0  0  0  0
  189.7210  177.7450  139.4530 C   0  0  0  0  0  0  0  0  0  0  0  0
  190.2980  176.3070  141.3720 N   0  0  0  0  0  0  0  0  0  0  0  0
  189.6960  176.1020  142.7170 C   0  0  1  0  0  3  0  0  0  0  0  0
  191.0780  176.5510  142.5960 C   0  0  0  0  0  2  0  0  0  0  0  0
  188.8040  177.2460  143.2040 C   0  0  2  0  0  3  0  0  0  0  0  0
  189.4070  177.8980  144.4270 C   0  0  1  0  0  3  0  0  0  0  0  0
  188.3020  176.9310  144.5950 C   0  0  2  0  0  0  0  0  0  0  0  0
  189.3780  177.0030  145.5930 N   0  0  0  0  0  2  0  0  0  0  0  0
  184.5480  178.9610  145.3490 C   0  0  0  0  0  3  0  0  0  0  0  0
  187.0170  177.6580  144.9580 C   0  0  0  0  0  0  0  0  0  0  0  0
  186.6040  178.0490  146.2650 C   0  0  0  0  0  0  0  0  0  0  0  0
  184.9340  178.5690  144.0700 C   0  0  0  0  0  3  0  0  0  0  0  0
  186.1560  177.9190  143.8790 C   0  0  0  0  0  3  0  0  0  0  0  0
  185.3790  178.7030  146.4390 C   0  0  0  0  0  3  0  0  0  0  0  0
  187.3900  177.8210  147.4530 C   0  0  0  0  0  0  0  0  0  0  0  0
  188.0160  177.6380  148.4100 N   0  0  0  0  0  0  0  0  0  0  0  0
  189.8660  176.5900  138.5030 C   0  0  2  0  0  3  0  0  0  0  0  0
  192.2800  176.7070  138.6660 N   0  0  0  0  0  2  0  0  0  0  0  0
  191.2500  176.5230  137.9240 C   0  0  0  0  0  0  0  0  0  0  0  0
  191.4300  176.2240  136.4730 C   0  0  0  0  0  1  0  0  0  0  0  0
  188.8700  176.6650  137.4450 N   0  0  0  0  0  2  0  0  0  0  0  0
  186.6600  177.6810  137.3860 C   0  0  2  0  0  0  0  0  0  0  0  0
  186.2660  177.2000  136.0050 C   0  0  0  0  0  2  0  0  0  0  0  0
  187.5610  176.6790  138.0820 C   0  0  1  0  0  3  0  0  0  0  0  0
  186.5160  176.1890  137.1040 C   0  0  1  0  0  3  0  0  0  0  0  0
  183.4370  179.0210  139.8350 C   0  0  0  0  0  3  0  0  0  0  0  0
  184.7580  179.0970  140.2670 C   0  0  0  0  0  3  0  0  0  0  0  0
  183.1880  178.4770  138.5780 C   0  0  0  0  0  3  0  0  0  0  0  0
  185.5060  178.1180  138.2450 C   0  0  0  0  0  0  0  0  0  0  0  0
  184.2180  178.0400  137.8070 N   0  0  0  0  0  0  0  0  0  0  0  0
  185.7640  178.6480  139.4710 N   0  0  0  0  0  0  0  0  0  0  0  0
  1  3  2  0  0  0  0
  2  4  1  0  0  0  0
  3  2  1  0  0  0  0
  4  6  1  0  0  0  0
  4  5  1  0  0  0  0
  5  6  1  1  0  0  0
  7  5  1  1  0  0  0
  7  8  1  0  0  0  0
  7  9  1  0  0  0  0
  8  9  1  0  0  0  0
  8 10  1  1  0  0  0
  9 12  1  1  0  0  0
  9 10  1  0  0  0  0
 11 16  1  0  0  0  0
 12 13  1  0  0  0  0
 13 16  2  0  0  0  0
 13 17  1  0  0  0  0
 14 11  2  0  0  0  0
 15 14  1  0  0  0  0
 15 12  2  0  0  0  0
 17 18  3  0  0  0  0
 19 23  1  6  0  0  0
 19  3  1  0  0  0  0
 21 19  1  0  0  0  0
 21 20  2  0  0  0  0
 22 21  1  0  0  0  0
 24 26  1  0  0  0  0
 24 31  1  1  0  0  0
 25 24  1  0  0  0  0
 26 23  1  6  0  0  0
 27 25  1  6  0  0  0
 27 24  1  0  0  0  0
 27 26  1  0  0  0  0
 28 29  1  0  0  0  0
 30 28  2  0  0  0  0
 31 33  1  0  0  0  0
 32 31  2  0  0  0  0
 32 30  1  0  0  0  0
 33 29  2  0  0  0  0
M  END
>  <MODEL>
2

>  <REMARK>
 VINA RESULT:      -8.3      2.447      5.223
  Name = 
  9 active torsions:
  status: ('A' for Active; 'I' for Inactive)
    1  A    between atoms: C_1  and  C_22
    2  A    between atoms: C_3  and  C_7
    3  A    between atoms: C_5  and  C_25
    4  A    between atoms: N_6  and  C_20
    5  A    between atoms: N_6  and  C_23
    6  A    between atoms: N_9  and  N_13
    7  A    between atoms: C_12  and  C_15
    8  A    between atoms: C_14  and  C_20
    9  A    between atoms: C_20  and  C_28
                            x       y       z     vdW  Elec       q    Type
                         _______ _______ _______ _____ _____    ______ ____

>  <TORSDO>
F 9

$$$$
=
 OpenBabel11042409493D

 33 39  0  0  1  0  0  0  0  0999 V2000
  186.6230  178.9950  140.0100 O   0  0  0  0  0  0  0  0  0  0  0  0
  188.4460  177.8050  140.8100 N   0  0  0  0  0  2  0  0  0  0  0  0
  187.5440  178.1730  139.7670 C   0  0  0  0  0  0  0  0  0  0  0  0
  189.4560  176.8520  140.5920 N   0  0  0  0  0  0  0  0  0  0  0  0
  190.3010  176.6730  141.8030 C   0  0  1  0  0  3  0  0  0  0  0  0
  190.7410  177.5570  140.7310 C   0  0  0  0  0  2  0  0  0  0  0  0
  189.8620  177.4900  143.0210 C   0  0  2  0  0  3  0  0  0  0  0  0
  191.0620  177.8780  143.8540 C   0  0  1  0  0  3  0  0  0  0  0  0
  190.2220  176.7390  144.2820 C   0  0  2  0  0  0  0  0  0  0  0  0
  191.6740  176.7100  144.5050 N   0  0  0  0  0  2  0  0  0  0  0  0
  187.5850  177.8770  147.5290 C   0  0  0  0  0  3  0  0  0  0  0  0
  189.3790  177.1310  145.4860 C   0  0  0  0  0  0  0  0  0  0  0  0
  189.7810  177.0910  146.8520 C   0  0  0  0  0  0  0  0  0  0  0  0
  187.1760  177.9040  146.1980 C   0  0  0  0  0  3  0  0  0  0  0  0
  188.0650  177.5300  145.1880 C   0  0  0  0  0  3  0  0  0  0  0  0
  188.8800  177.4740  147.8530 C   0  0  0  0  0  3  0  0  0  0  0  0
  191.0950  176.6830  147.2870 C   0  0  0  0  0  0  0  0  0  0  0  0
  192.1470  176.3540  147.6420 N   0  0  0  0  0  0  0  0  0  0  0  0
  187.6840  177.5780  138.3950 C   0  0  2  0  0  3  0  0  0  0  0  0
  188.9590  179.4690  137.5790 N   0  0  0  0  0  2  0  0  0  0  0  0
  188.8260  178.1940  137.6400 C   0  0  0  0  0  0  0  0  0  0  0  0
  189.8260  177.3150  136.9660 C   0  0  0  0  0  1  0  0  0  0  0  0
  186.4430  177.7110  137.6470 N   0  0  0  0  0  2  0  0  0  0  0  0
  184.6240  176.1710  137.1610 C   0  0  2  0  0  0  0  0  0  0  0  0
  183.8910  177.0470  136.1680 C   0  0  0  0  0  2  0  0  0  0  0  0
  186.1220  176.4010  137.1000 C   0  0  1  0  0  3  0  0  0  0  0  0
  185.2900  176.5650  135.8470 C   0  0  1  0  0  3  0  0  0  0  0  0
  183.6310  172.0240  137.0700 C   0  0  0  0  0  3  0  0  0  0  0  0
  184.9290  172.4550  137.3310 C   0  0  0  0  0  3  0  0  0  0  0  0
  182.6570  172.9880  136.8220 C   0  0  0  0  0  3  0  0  0  0  0  0
  184.2590  174.7130  137.0940 C   0  0  0  0  0  0  0  0  0  0  0  0
  182.9820  174.3070  136.8400 N   0  0  0  0  0  0  0  0  0  0  0  0
  185.2190  173.7830  137.3380 N   0  0  0  0  0  0  0  0  0  0  0  0
  3  1  2  0  0  0  0
  3  2  1  0  0  0  0
  4  6  1  0  0  0  0
  4  2  1  0  0  0  0
  4  5  1  0  0  0  0
  5  6  1  6  0  0  0
  7  5  1  6  0  0  0
  7  8  1  0  0  0  0
  7  9  1  0  0  0  0
  8  9  1  0  0  0  0
  8 10  1  6  0  0  0
  9 10  1  0  0  0  0
  9 12  1  1  0  0  0
 11 16  1  0  0  0  0
 12 13  1  0  0  0  0
 13 17  1  0  0  0  0
 13 16  2  0  0  0  0
 14 11  2  0  0  0  0
 15 12  2  0  0  0  0
 15 14  1  0  0  0  0
 17 18  3  0  0  0  0
 19 21  1  6  0  0  0
 19  3  1  0  0  0  0
 20 21  2  0  0  0  0
 22 21  1  0  0  0  0
 23 19  1  0  0  0  0
 24 31  1  1  0  0  0
 25 24  1  0  0  0  0
 26 24  1  0  0  0  0
 26 23  1  1  0  0  0
 27 25  1  1  0  0  0
 27 26  1  0  0  0  0
 27 24  1  0  0  0  0
 28 29  1  0  0  0  0
 29 33  2  0  0  0  0
 30 32  1  0  0  0  0
 30 28  2  0  0  0  0
 31 33  1  0  0  0  0
 32 31  2  0  0  0  0
M  END
>  <MODEL>
3

>  <REMARK>
 VINA RESULT:      -8.1      2.745      4.695
  Name = 
  9 active torsions:
  status: ('A' for Active; 'I' for Inactive)
    1  A    between atoms: C_1  and  C_22
    2  A    between atoms: C_3  and  C_7
    3  A    between atoms: C_5  and  C_25
    4  A    between atoms: N_6  and  C_20
    5  A    between atoms: N_6  and  C_23
    6  A    between atoms: N_9  and  N_13
    7  A    between atoms: C_12  and  C_15
    8  A    between atoms: C_14  and  C_20
    9  A    between atoms: C_20  and  C_28
                            x       y       z     vdW  Elec       q    Type
                         _______ _______ _______ _____ _____    ______ ____

>  <TORSDO>
F 9

$$$$
=
 OpenBabel11042409493D

 33 39  0  0  1  0  0  0  0  0999 V2000
  187.2220  179.0030  140.1980 O   0  0  0  0  0  0  0  0  0  0  0  0
  188.9840  177.8280  141.1440 N   0  0  0  0  0  2  0  0  0  0  0  0
  188.1060  178.1190  140.0570 C   0  0  0  0  0  0  0  0  0  0  0  0
  189.9510  176.8120  141.0430 N   0  0  0  0  0  0  0  0  0  0  0  0
  190.6630  176.6140  142.3330 C   0  0  1  0  0  3  0  0  0  0  0  0
  191.2570  177.4440  141.2920 C   0  0  0  0  0  2  0  0  0  0  0  0
  190.1610  177.4850  143.4870 C   0  0  2  0  0  3  0  0  0  0  0  0
  191.2540  177.6830  144.5110 C   0  0  1  0  0  3  0  0  0  0  0  0
  190.1940  176.6850  144.7680 C   0  0  2  0  0  0  0  0  0  0  0  0
  191.5700  176.4340  145.2200 N   0  0  0  0  0  2  0  0  0  0  0  0
  187.6970  178.1720  147.9840 C   0  0  0  0  0  3  0  0  0  0  0  0
  189.2360  177.1970  145.8320 C   0  0  0  0  0  0  0  0  0  0  0  0
  187.8650  177.5360  145.6460 C   0  0  0  0  0  0  0  0  0  0  0  0
  189.0420  177.8600  148.1730 C   0  0  0  0  0  3  0  0  0  0  0  0
  189.8030  177.3810  147.1040 C   0  0  0  0  0  3  0  0  0  0  0  0
  187.1130  178.0090  146.7280 C   0  0  0  0  0  3  0  0  0  0  0  0
  187.1730  177.4080  144.3860 C   0  0  0  0  0  0  0  0  0  0  0  0
  186.6240  177.3040  143.3720 N   0  0  0  0  0  0  0  0  0  0  0  0
  188.2270  177.3710  138.7600 C   0  0  2  0  0  3  0  0  0  0  0  0
  190.4300  177.2600  137.7580 N   0  0  0  0  0  2  0  0  0  0  0  0
  189.3380  177.9170  137.9100 C   0  0  0  0  0  0  0  0  0  0  0  0
  189.1650  179.2290  137.2210 C   0  0  0  0  0  1  0  0  0  0  0  0
  186.9660  177.3940  138.0340 N   0  0  0  0  0  2  0  0  0  0  0  0
  185.4410  176.0180  136.7300 C   0  0  2  0  0  0  0  0  0  0  0  0
  185.5260  176.8070  135.4410 C   0  0  0  0  0  2  0  0  0  0  0  0
  186.7530  176.0610  137.4910 C   0  0  1  0  0  3  0  0  0  0  0  0
  186.7640  176.1210  135.9790 C   0  0  1  0  0  3  0  0  0  0  0  0
  183.9860  172.0470  136.1840 C   0  0  0  0  0  3  0  0  0  0  0  0
  183.8380  173.0180  135.1970 C   0  0  0  0  0  3  0  0  0  0  0  0
  184.6130  172.4100  137.3730 C   0  0  0  0  0  3  0  0  0  0  0  0
  184.9090  174.6210  136.5710 C   0  0  0  0  0  0  0  0  0  0  0  0
  185.0640  173.6800  137.5460 N   0  0  0  0  0  0  0  0  0  0  0  0
  184.2980  174.2790  135.4050 N   0  0  0  0  0  0  0  0  0  0  0  0
  3  1  2  0  0  0  0
  3  2  1  0  0  0  0
  4  2  1  0  0  0  0
  4  6  1  0  0  0  0
  4  5  1  0  0  0  0
  5  6  1  6  0  0  0
  7  5  1  6  0  0  0
  7  8  1  0  0  0  0
  7  9  1  0  0  0  0
  8  9  1  0  0  0  0
  8 10  1  6  0  0  0
  9 10  1  0  0  0  0
  9 12  1  1  0  0  0
 11 14  1  0  0  0  0
 12 15  1  0  0  0  0
 13 12  2  0  0  0  0
 13 16  1  0  0  0  0
 15 14  2  0  0  0  0
 16 11  2  0  0  0  0
 17 13  1  0  0  0  0
 18 17  3  0  0  0  0
 19 21  1  6  0  0  0
 19  3  1  0  0  0  0
 20 21  2  0  0  0  0
 22 21  1  0  0  0  0
 23 19  1  0  0  0  0
 24 31  1  6  0  0  0
 24 26  1  0  0  0  0
 25 24  1  0  0  0  0
 26 23  1  1  0  0  0
 27 25  1  1  0  0  0
 27 24  1  0  0  0  0
 27 26  1  0  0  0  0
 28 30  2  0  0  0  0
 29 33  2  0  0  0  0
 29 28  1  0  0  0  0
 30 32  1  0  0  0  0
 31 32  2  0  0  0  0
 33 31  1  0  0  0  0
M  END
>  <MODEL>
4

>  <REMARK>
 VINA RESULT:      -8.1      2.715      4.067
  Name = 
  9 active torsions:
  status: ('A' for Active; 'I' for Inactive)
    1  A    between atoms: C_1  and  C_22
    2  A    between atoms: C_3  and  C_7
    3  A    between atoms: C_5  and  C_25
    4  A    between atoms: N_6  and  C_20
    5  A    between atoms: N_6  and  C_23
    6  A    between atoms: N_9  and  N_13
    7  A    between atoms: C_12  and  C_15
    8  A    between atoms: C_14  and  C_20
    9  A    between atoms: C_20  and  C_28
                            x       y       z     vdW  Elec       q    Type
                         _______ _______ _______ _____ _____    ______ ____

>  <TORSDO>
F 9

$$$$
=
 OpenBabel11042409493D

 33 39  0  0  1  0  0  0  0  0999 V2000
  187.1450  178.5540  139.6270 O   0  0  0  0  0  0  0  0  0  0  0  0
  188.7200  177.3650  140.8460 N   0  0  0  0  0  2  0  0  0  0  0  0
  188.2240  177.9060  139.6220 C   0  0  0  0  0  0  0  0  0  0  0  0
  189.8940  176.5910  140.8730 N   0  0  0  0  0  0  0  0  0  0  0  0
  190.5190  176.6030  142.2220 C   0  0  1  0  0  3  0  0  0  0  0  0
  191.0000  177.5100  141.1860 C   0  0  0  0  0  2  0  0  0  0  0  0
  189.7380  177.3770  143.2860 C   0  0  2  0  0  3  0  0  0  0  0  0
  190.6180  178.4240  143.9280 C   0  0  1  0  0  3  0  0  0  0  0  0
  190.3750  177.1510  144.6380 C   0  0  2  0  0  0  0  0  0  0  0  0
  191.6800  177.8180  144.7450 N   0  0  0  0  0  2  0  0  0  0  0  0
  187.4440  177.7920  147.7660 C   0  0  0  0  0  3  0  0  0  0  0  0
  189.4260  177.3720  145.8050 C   0  0  0  0  0  0  0  0  0  0  0  0
  189.7460  177.2730  147.1890 C   0  0  0  0  0  0  0  0  0  0  0  0
  187.1160  177.8750  146.4150 C   0  0  0  0  0  3  0  0  0  0  0  0
  188.0990  177.6620  145.4450 C   0  0  0  0  0  3  0  0  0  0  0  0
  188.7520  177.4940  148.1500 C   0  0  0  0  0  3  0  0  0  0  0  0
  191.0660  176.9640  147.6850 C   0  0  0  0  0  0  0  0  0  0  0  0
  192.1230  176.7110  148.0840 N   0  0  0  0  0  0  0  0  0  0  0  0
  188.9730  177.6960  138.3370 C   0  0  2  0  0  3  0  0  0  0  0  0
  189.0550  179.8430  137.2180 N   0  0  0  0  0  2  0  0  0  0  0  0
  188.5390  178.6690  137.2800 C   0  0  0  0  0  0  0  0  0  0  0  0
  187.5090  178.2630  136.2800 C   0  0  0  0  0  1  0  0  0  0  0  0
  188.8180  176.3260  137.8690 N   0  0  0  0  0  2  0  0  0  0  0  0
  190.3400  174.5100  137.3240 C   0  0  2  0  0  0  0  0  0  0  0  0
  189.3400  173.6320  136.6030 C   0  0  0  0  0  2  0  0  0  0  0  0
  190.0240  175.9810  137.1310 C   0  0  1  0  0  3  0  0  0  0  0  0
  189.6820  174.9940  136.0360 C   0  0  1  0  0  3  0  0  0  0  0  0
  194.4450  173.6050  136.6020 C   0  0  0  0  0  3  0  0  0  0  0  0
  194.0580  174.8070  137.1870 C   0  0  0  0  0  3  0  0  0  0  0  0
  193.4500  172.7010  136.2390 C   0  0  0  0  0  3  0  0  0  0  0  0
  191.7790  174.1830  137.0320 C   0  0  0  0  0  0  0  0  0  0  0  0
  192.1430  173.0000  136.4600 N   0  0  0  0  0  0  0  0  0  0  0  0
  192.7410  175.0750  137.3910 N   0  0  0  0  0  0  0  0  0  0  0  0
  2  4  1  0  0  0  0
  3  1  2  0  0  0  0
  3  2  1  0  0  0  0
  4  6  1  0  0  0  0
  4  5  1  0  0  0  0
  5  6  1  6  0  0  0
  7  5  1  6  0  0  0
  7  8  1  0  0  0  0
  7  9  1  0  0  0  0
  8  9  1  0  0  0  0
  8 10  1  6  0  0  0
  9 10  1  0  0  0  0
  9 12  1  1  0  0  0
 11 16  1  0  0  0  0
 12 13  1  0  0  0  0
 13 17  1  0  0  0  0
 13 16  2  0  0  0  0
 14 11  2  0  0  0  0
 15 12  2  0  0  0  0
 15 14  1  0  0  0  0
 17 18  3  0  0  0  0
 19 21  1  6  0  0  0
 19  3  1  0  0  0  0
 20 21  2  0  0  0  0
 22 21  1  0  0  0  0
 23 19  1  0  0  0  0
 24 31  1  6  0  0  0
 25 24  1  0  0  0  0
 26 24  1  0  0  0  0
 26 23  1  1  0  0  0
 27 25  1  1  0  0  0
 27 26  1  0  0  0  0
 27 24  1  0  0  0  0
 28 29  1  0  0  0  0
 29 33  2  0  0  0  0
 30 32  1  0  0  0  0
 30 28  2  0  0  0  0
 31 33  1  0  0  0  0
 32 31  2  0  0  0  0
M  END
>  <MODEL>
5

>  <REMARK>
 VINA RESULT:      -8.0      0.813      1.829
  Name = 
  9 active torsions:
  status: ('A' for Active; 'I' for Inactive)
    1  A    between atoms: C_1  and  C_22
    2  A    between atoms: C_3  and  C_7
    3  A    between atoms: C_5  and  C_25
    4  A    between atoms: N_6  and  C_20
    5  A    between atoms: N_6  and  C_23
    6  A    between atoms: N_9  and  N_13
    7  A    between atoms: C_12  and  C_15
    8  A    between atoms: C_14  and  C_20
    9  A    between atoms: C_20  and  C_28
                            x       y       z     vdW  Elec       q    Type
                         _______ _______ _______ _____ _____    ______ ____

>  <TORSDO>
F 9

$$$$
=
 OpenBabel11042409493D

 33 39  0  0  1  0  0  0  0  0999 V2000
  189.0560  178.9010  138.9860 O   0  0  0  0  0  0  0  0  0  0  0  0
  189.7290  177.6210  140.7990 N   0  0  0  0  0  2  0  0  0  0  0  0
  189.4750  177.7910  139.4050 C   0  0  0  0  0  0  0  0  0  0  0  0
  190.1480  176.3810  141.3130 N   0  0  0  0  0  0  0  0  0  0  0  0
  189.6870  176.1930  142.7140 C   0  0  1  0  0  3  0  0  0  0  0  0
  191.0380  176.6720  142.4480 C   0  0  0  0  0  2  0  0  0  0  0  0
  188.8190  177.3270  143.2640 C   0  0  2  0  0  3  0  0  0  0  0  0
  189.4490  177.9190  144.5020 C   0  0  1  0  0  3  0  0  0  0  0  0
  188.3340  176.9590  144.6470 C   0  0  2  0  0  0  0  0  0  0  0  0
  189.4250  176.9760  145.6300 N   0  0  0  0  0  2  0  0  0  0  0  0
  184.6110  178.9860  145.5510 C   0  0  0  0  0  3  0  0  0  0  0  0
  187.0640  177.6860  145.0610 C   0  0  0  0  0  0  0  0  0  0  0  0
  186.7110  178.0920  146.3810 C   0  0  0  0  0  0  0  0  0  0  0  0
  184.9390  178.5790  144.2600 C   0  0  0  0  0  3  0  0  0  0  0  0
  186.1530  177.9320  144.0210 C   0  0  0  0  0  3  0  0  0  0  0  0
  185.4930  178.7440  146.6040 C   0  0  0  0  0  3  0  0  0  0  0  0
  187.5530  177.8810  147.5340 C   0  0  0  0  0  0  0  0  0  0  0  0
  188.2250  177.7070  148.4610 N   0  0  0  0  0  0  0  0  0  0  0  0
  189.6930  176.6550  138.4460 C   0  0  2  0  0  3  0  0  0  0  0  0
  191.3700  174.9110  138.3410 N   0  0  0  0  0  2  0  0  0  0  0  0
  191.1090  176.1580  138.4930 C   0  0  0  0  0  0  0  0  0  0  0  0
  192.2250  177.1260  138.7020 C   0  0  0  0  0  1  0  0  0  0  0  0
  189.3300  177.0470  137.0930 N   0  0  0  0  0  2  0  0  0  0  0  0
  187.0160  176.3190  137.2660 C   0  0  2  0  0  0  0  0  0  0  0  0
  186.3760  177.5960  136.7640 C   0  0  0  0  0  2  0  0  0  0  0  0
  188.3600  176.0790  136.6050 C   0  0  1  0  0  3  0  0  0  0  0  0
  187.2690  176.7950  135.8400 C   0  0  1  0  0  3  0  0  0  0  0  0
  184.5290  172.8550  137.2120 C   0  0  0  0  0  3  0  0  0  0  0  0
  185.9180  172.7530  137.2080 C   0  0  0  0  0  3  0  0  0  0  0  0
  183.9650  174.1270  137.2190 C   0  0  0  0  0  3  0  0  0  0  0  0
  186.1200  175.1120  137.2160 C   0  0  0  0  0  0  0  0  0  0  0  0
  184.7620  175.2280  137.2240 N   0  0  0  0  0  0  0  0  0  0  0  0
  186.6850  173.8750  137.2090 N   0  0  0  0  0  0  0  0  0  0  0  0
  1  3  2  0  0  0  0
  2  4  1  0  0  0  0
  3  2  1  0  0  0  0
  4  6  1  0  0  0  0
  4  5  1  0  0  0  0
  5  6  1  1  0  0  0
  7  5  1  1  0  0  0
  7  8  1  0  0  0  0
  7  9  1  0  0  0  0
  8  9  1  0  0  0  0
  8 10  1  1  0  0  0
  9 12  1  1  0  0  0
  9 10  1  0  0  0  0
 11 16  1  0  0  0  0
 12 13  1  0  0  0  0
 13 16  2  0  0  0  0
 13 17  1  0  0  0  0
 14 11  2  0  0  0  0
 15 14  1  0  0  0  0
 15 12  2  0  0  0  0
 17 18  3  0  0  0  0
 19 23  1  6  0  0  0
 19 21  1  0  0  0  0
 19  3  1  0  0  0  0
 20 21  2  0  0  0  0
 21 22  1  0  0  0  0
 24 31  1  1  0  0  0
 25 24  1  0  0  0  0
 26 23  1  1  0  0  0
 26 24  1  0  0  0  0
 27 26  1  0  0  0  0
 27 25  1  1  0  0  0
 27 24  1  0  0  0  0
 28 30  2  0  0  0  0
 29 33  2  0  0  0  0
 29 28  1  0  0  0  0
 30 32  1  0  0  0  0
 31 32  2  0  0  0  0
 33 31  1  0  0  0  0
M  END
>  <MODEL>
6

>  <REMARK>
 VINA RESULT:      -8.0      2.411      4.404
  Name = 
  9 active torsions:
  status: ('A' for Active; 'I' for Inactive)
    1  A    between atoms: C_1  and  C_22
    2  A    between atoms: C_3  and  C_7
    3  A    between atoms: C_5  and  C_25
    4  A    between atoms: N_6  and  C_20
    5  A    between atoms: N_6  and  C_23
    6  A    between atoms: N_9  and  N_13
    7  A    between atoms: C_12  and  C_15
    8  A    between atoms: C_14  and  C_20
    9  A    between atoms: C_20  and  C_28
                            x       y       z     vdW  Elec       q    Type
                         _______ _______ _______ _____ _____    ______ ____

>  <TORSDO>
F 9

$$$$
=
 OpenBabel11042409493D

 33 39  0  0  1  0  0  0  0  0999 V2000
  183.4260  177.3610  140.3740 O   0  0  0  0  0  0  0  0  0  0  0  0
  183.4060  178.4590  142.4180 N   0  0  0  0  0  2  0  0  0  0  0  0
  182.8740  178.2140  141.1160 C   0  0  0  0  0  0  0  0  0  0  0  0
  182.8490  179.4400  143.2560 N   0  0  0  0  0  0  0  0  0  0  0  0
  183.4320  179.3780  144.6230 C   0  0  1  0  0  3  0  0  0  0  0  0
  182.1580  178.7260  144.3430 C   0  0  0  0  0  2  0  0  0  0  0  0
  184.5360  178.3330  144.8050 C   0  0  2  0  0  3  0  0  0  0  0  0
  184.8690  178.1700  146.2690 C   0  0  1  0  0  3  0  0  0  0  0  0
  185.7520  178.9920  145.4150 C   0  0  2  0  0  0  0  0  0  0  0  0
  185.5240  179.3680  146.8170 N   0  0  0  0  0  2  0  0  0  0  0  0
  189.4720  176.8270  144.9100 C   0  0  0  0  0  3  0  0  0  0  0  0
  187.0510  178.2530  145.1350 C   0  0  0  0  0  0  0  0  0  0  0  0
  187.5830  177.9280  143.8540 C   0  0  0  0  0  0  0  0  0  0  0  0
  188.9530  177.1250  146.1680 C   0  0  0  0  0  3  0  0  0  0  0  0
  187.7510  177.8280  146.2760 C   0  0  0  0  0  3  0  0  0  0  0  0
  188.7910  177.2280  143.7610 C   0  0  0  0  0  3  0  0  0  0  0  0
  186.9500  178.2930  142.6090 C   0  0  0  0  0  0  0  0  0  0  0  0
  186.4440  178.5800  141.6080 N   0  0  0  0  0  0  0  0  0  0  0  0
  181.6730  178.9750  140.6300 C   0  0  2  0  0  3  0  0  0  0  0  0
  179.6520  178.7540  141.9460 N   0  0  0  0  0  2  0  0  0  0  0  0
  180.3940  178.2870  141.0090 C   0  0  0  0  0  0  0  0  0  0  0  0
  179.9720  177.0560  140.2780 C   0  0  0  0  0  1  0  0  0  0  0  0
  181.7410  179.1770  139.1900 N   0  0  0  0  0  2  0  0  0  0  0  0
  180.9550  180.6810  137.4480 C   0  0  2  0  0  0  0  0  0  0  0  0
  179.6990  179.9180  137.0880 C   0  0  0  0  0  2  0  0  0  0  0  0
  181.2880  180.5330  138.9200 C   0  0  1  0  0  3  0  0  0  0  0  0
  179.8420  180.5070  138.4750 C   0  0  1  0  0  3  0  0  0  0  0  0
  181.0910  184.7500  136.1790 C   0  0  0  0  0  3  0  0  0  0  0  0
  181.5550  184.3640  137.4340 C   0  0  0  0  0  3  0  0  0  0  0  0
  180.5620  183.7700  135.3450 C   0  0  0  0  0  3  0  0  0  0  0  0
  180.9650  182.1140  136.9920 C   0  0  0  0  0  0  0  0  0  0  0  0
  180.5100  182.4760  135.7590 N   0  0  0  0  0  0  0  0  0  0  0  0
  181.4840  183.0630  137.8170 N   0  0  0  0  0  0  0  0  0  0  0  0
  1  3  2  0  0  0  0
  2  4  1  0  0  0  0
  3  2  1  0  0  0  0
  4  6  1  0  0  0  0
  4  5  1  0  0  0  0
  5  6  1  1  0  0  0
  7  5  1  1  0  0  0
  7  9  1  0  0  0  0
  7  8  1  0  0  0  0
  8 10  1  1  0  0  0
  9 12  1  6  0  0  0
  9  8  1  0  0  0  0
  9 10  1  0  0  0  0
 11 14  1  0  0  0  0
 12 15  1  0  0  0  0
 13 12  2  0  0  0  0
 14 15  2  0  0  0  0
 16 13  1  0  0  0  0
 16 11  2  0  0  0  0
 17 13  1  0  0  0  0
 18 17  3  0  0  0  0
 19 23  1  6  0  0  0
 19 21  1  0  0  0  0
 19  3  1  0  0  0  0
 21 20  2  0  0  0  0
 22 21  1  0  0  0  0
 24 31  1  6  0  0  0
 24 27  1  0  0  0  0
 24 26  1  0  0  0  0
 25 24  1  0  0  0  0
 26 23  1  6  0  0  0
 27 25  1  6  0  0  0
 27 26  1  0  0  0  0
 28 29  1  0  0  0  0
 29 33  2  0  0  0  0
 30 32  1  0  0  0  0
 30 28  2  0  0  0  0
 31 33  1  0  0  0  0
 32 31  2  0  0  0  0
M  END
>  <MODEL>
7

>  <REMARK>
 VINA RESULT:      -7.7      5.849      9.251
  Name = 
  9 active torsions:
  status: ('A' for Active; 'I' for Inactive)
    1  A    between atoms: C_1  and  C_22
    2  A    between atoms: C_3  and  C_7
    3  A    between atoms: C_5  and  C_25
    4  A    between atoms: N_6  and  C_20
    5  A    between atoms: N_6  and  C_23
    6  A    between atoms: N_9  and  N_13
    7  A    between atoms: C_12  and  C_15
    8  A    between atoms: C_14  and  C_20
    9  A    between atoms: C_20  and  C_28
                            x       y       z     vdW  Elec       q    Type
                         _______ _______ _______ _____ _____    ______ ____

>  <TORSDO>
F 9

$$$$
=
 OpenBabel11042409493D

 33 39  0  0  1  0  0  0  0  0999 V2000
  188.3690  175.2630  143.2180 O   0  0  0  0  0  0  0  0  0  0  0  0
  189.0200  176.7300  141.5440 N   0  0  0  0  0  2  0  0  0  0  0  0
  189.0260  176.2880  142.9010 C   0  0  0  0  0  0  0  0  0  0  0  0
  189.7000  177.8990  141.1600 N   0  0  0  0  0  0  0  0  0  0  0  0
  189.4630  178.2160  139.7260 C   0  0  1  0  0  3  0  0  0  0  0  0
  190.6710  177.5040  140.1270 C   0  0  0  0  0  2  0  0  0  0  0  0
  188.5000  177.2680  139.0080 C   0  0  2  0  0  3  0  0  0  0  0  0
  189.0660  176.8580  137.6690 C   0  0  1  0  0  3  0  0  0  0  0  0
  188.0310  177.9120  137.7240 C   0  0  2  0  0  0  0  0  0  0  0  0
  189.1060  177.9850  136.7250 N   0  0  0  0  0  2  0  0  0  0  0  0
  184.3970  176.1750  136.1200 C   0  0  0  0  0  3  0  0  0  0  0  0
  186.7020  177.3700  137.2200 C   0  0  0  0  0  0  0  0  0  0  0  0
  185.4090  177.6930  137.7250 C   0  0  0  0  0  0  0  0  0  0  0  0
  185.6570  175.8400  135.6310 C   0  0  0  0  0  3  0  0  0  0  0  0
  186.7980  176.4300  136.1810 C   0  0  0  0  0  3  0  0  0  0  0  0
  184.2750  177.0970  137.1600 C   0  0  0  0  0  3  0  0  0  0  0  0
  185.1800  178.6280  138.8000 C   0  0  0  0  0  0  0  0  0  0  0  0
  184.9970  179.3830  139.6580 N   0  0  0  0  0  0  0  0  0  0  0  0
  189.8010  177.0420  143.9440 C   0  0  2  0  0  3  0  0  0  0  0  0
  191.8180  175.8970  143.2480 N   0  0  0  0  0  2  0  0  0  0  0  0
  191.1350  176.4070  144.2080 C   0  0  0  0  0  0  0  0  0  0  0  0
  191.6800  176.3820  145.5960 C   0  0  0  0  0  1  0  0  0  0  0  0
  189.0330  177.1530  145.1750 N   0  0  0  0  0  2  0  0  0  0  0  0
  186.6520  177.5070  145.5250 C   0  0  2  0  0  0  0  0  0  0  0  0
  186.6890  177.5760  147.0370 C   0  0  0  0  0  2  0  0  0  0  0  0
  187.9260  178.0610  144.9160 C   0  0  1  0  0  3  0  0  0  0  0  0
  187.4170  178.6260  146.2250 C   0  0  1  0  0  3  0  0  0  0  0  0
  183.1250  179.0690  143.7070 C   0  0  0  0  0  3  0  0  0  0  0  0
  184.2020  178.6280  142.9430 C   0  0  0  0  0  3  0  0  0  0  0  0
  183.2320  179.0030  145.0930 C   0  0  0  0  0  3  0  0  0  0  0  0
  185.4120  178.0900  144.9060 C   0  0  0  0  0  0  0  0  0  0  0  0
  184.3640  178.5160  145.6680 N   0  0  0  0  0  0  0  0  0  0  0  0
  185.3190  178.1500  143.5510 N   0  0  0  0  0  0  0  0  0  0  0  0
  2  3  1  0  0  0  0
  3  1  2  0  0  0  0
  4  2  1  0  0  0  0
  5  6  1  6  0  0  0
  5  4  1  0  0  0  0
  6  4  1  0  0  0  0
  7  5  1  1  0  0  0
  8 10  1  1  0  0  0
  8  9  1  0  0  0  0
  8  7  1  0  0  0  0
  9 12  1  6  0  0  0
  9  7  1  0  0  0  0
 10  9  1  0  0  0  0
 11 16  1  0  0  0  0
 12 13  1  0  0  0  0
 13 17  1  0  0  0  0
 14 11  2  0  0  0  0
 14 15  1  0  0  0  0
 15 12  2  0  0  0  0
 16 13  2  0  0  0  0
 17 18  3  0  0  0  0
 19  3  1  6  0  0  0
 19 21  1  0  0  0  0
 19 23  1  0  0  0  0
 20 21  2  0  0  0  0
 21 22  1  0  0  0  0
 24 31  1  6  0  0  0
 24 27  1  0  0  0  0
 24 25  1  0  0  0  0
 26 23  1  1  0  0  0
 26 24  1  0  0  0  0
 26 27  1  0  0  0  0
 27 25  1  1  0  0  0
 28 30  2  0  0  0  0
 29 33  2  0  0  0  0
 29 28  1  0  0  0  0
 30 32  1  0  0  0  0
 31 32  2  0  0  0  0
 33 31  1  0  0  0  0
M  END
>  <MODEL>
8

>  <REMARK>
 VINA RESULT:      -7.7      2.928      9.022
  Name = 
  9 active torsions:
  status: ('A' for Active; 'I' for Inactive)
    1  A    between atoms: C_1  and  C_22
    2  A    between atoms: C_3  and  C_7
    3  A    between atoms: C_5  and  C_25
    4  A    between atoms: N_6  and  C_20
    5  A    between atoms: N_6  and  C_23
    6  A    between atoms: N_9  and  N_13
    7  A    between atoms: C_12  and  C_15
    8  A    between atoms: C_14  and  C_20
    9  A    between atoms: C_20  and  C_28
                            x       y       z     vdW  Elec       q    Type
                         _______ _______ _______ _____ _____    ______ ____

>  <TORSDO>
F 9

$$$$
=
 OpenBabel11042409493D

 33 39  0  0  1  0  0  0  0  0999 V2000
  189.7610  178.4470  139.1090 O   0  0  0  0  0  0  0  0  0  0  0  0
  190.1210  177.3860  141.1400 N   0  0  0  0  0  2  0  0  0  0  0  0
  190.2350  177.4530  139.7190 C   0  0  0  0  0  0  0  0  0  0  0  0
  190.5920  176.2700  141.8530 N   0  0  0  0  0  0  0  0  0  0  0  0
  190.0470  176.2420  143.2360 C   0  0  1  0  0  3  0  0  0  0  0  0
  191.3750  176.7900  142.9860 C   0  0  0  0  0  2  0  0  0  0  0  0
  189.0600  177.3660  143.5620 C   0  0  2  0  0  3  0  0  0  0  0  0
  189.4150  178.0120  144.8810 C   0  0  1  0  0  3  0  0  0  0  0  0
  188.3150  177.0250  144.8320 C   0  0  2  0  0  0  0  0  0  0  0  0
  189.1860  177.1020  146.0130 N   0  0  0  0  0  2  0  0  0  0  0  0
  184.5220  179.0160  145.4890 C   0  0  0  0  0  3  0  0  0  0  0  0
  186.9720  177.7270  144.9580 C   0  0  0  0  0  0  0  0  0  0  0  0
  186.2080  178.2930  143.8980 C   0  0  0  0  0  0  0  0  0  0  0  0
  185.2690  178.4810  146.5360 C   0  0  0  0  0  3  0  0  0  0  0  0
  186.4850  177.8460  146.2700 C   0  0  0  0  0  3  0  0  0  0  0  0
  184.9890  178.9220  144.1780 C   0  0  0  0  0  3  0  0  0  0  0  0
  186.6100  178.2520  142.5120 C   0  0  0  0  0  0  0  0  0  0  0  0
  186.9300  178.2240  141.4000 N   0  0  0  0  0  0  0  0  0  0  0  0
  190.9040  176.3460  138.9560 C   0  0  2  0  0  3  0  0  0  0  0  0
  193.0950  177.1300  139.6280 N   0  0  0  0  0  2  0  0  0  0  0  0
  192.3520  176.6490  138.6990 C   0  0  0  0  0  0  0  0  0  0  0  0
  192.9370  176.3730  137.3540 C   0  0  0  0  0  1  0  0  0  0  0  0
  190.2040  176.0860  137.7070 N   0  0  0  0  0  2  0  0  0  0  0  0
  187.9920  176.4740  136.7710 C   0  0  2  0  0  0  0  0  0  0  0  0
  188.0440  175.3990  135.7060 C   0  0  0  0  0  2  0  0  0  0  0  0
  188.7790  176.0690  138.0030 C   0  0  1  0  0  3  0  0  0  0  0  0
  188.1010  175.0050  137.1670 C   0  0  1  0  0  3  0  0  0  0  0  0
  184.0350  177.7410  137.7310 C   0  0  0  0  0  3  0  0  0  0  0  0
  184.2690  176.7120  136.8230 C   0  0  0  0  0  3  0  0  0  0  0  0
  185.1350  178.3650  138.3130 C   0  0  0  0  0  3  0  0  0  0  0  0
  186.6070  176.9570  137.1010 C   0  0  0  0  0  0  0  0  0  0  0  0
  186.3950  177.9650  137.9940 N   0  0  0  0  0  0  0  0  0  0  0  0
  185.5410  176.3400  136.5240 N   0  0  0  0  0  0  0  0  0  0  0  0
  1  3  2  0  0  0  0
  2  4  1  0  0  0  0
  3  2  1  0  0  0  0
  4  6  1  0  0  0  0
  4  5  1  0  0  0  0
  5  6  1  1  0  0  0
  7  5  1  1  0  0  0
  7  9  1  0  0  0  0
  7  8  1  0  0  0  0
  8 10  1  1  0  0  0
  9  8  1  0  0  0  0
  9 12  1  1  0  0  0
  9 10  1  0  0  0  0
 11 14  1  0  0  0  0
 12 15  1  0  0  0  0
 13 16  1  0  0  0  0
 13 12  2  0  0  0  0
 15 14  2  0  0  0  0
 16 11  2  0  0  0  0
 17 13  1  0  0  0  0
 18 17  3  0  0  0  0
 19 23  1  6  0  0  0
 19  3  1  0  0  0  0
 21 19  1  0  0  0  0
 21 20  2  0  0  0  0
 22 21  1  0  0  0  0
 24 31  1  1  0  0  0
 24 27  1  0  0  0  0
 24 26  1  0  0  0  0
 25 24  1  0  0  0  0
 26 23  1  6  0  0  0
 27 25  1  6  0  0  0
 27 26  1  0  0  0  0
 28 30  2  0  0  0  0
 29 28  1  0  0  0  0
 31 32  2  0  0  0  0
 32 30  1  0  0  0  0
 33 29  2  0  0  0  0
 33 31  1  0  0  0  0
M  END
>  <MODEL>
9

>  <REMARK>
 VINA RESULT:      -7.6      2.193      4.590
  Name = 
  9 active torsions:
  status: ('A' for Active; 'I' for Inactive)
    1  A    between atoms: C_1  and  C_22
    2  A    between atoms: C_3  and  C_7
    3  A    between atoms: C_5  and  C_25
    4  A    between atoms: N_6  and  C_20
    5  A    between atoms: N_6  and  C_23
    6  A    between atoms: N_9  and  N_13
    7  A    between atoms: C_12  and  C_15
    8  A    between atoms: C_14  and  C_20
    9  A    between atoms: C_20  and  C_28
                            x       y       z     vdW  Elec       q    Type
                         _______ _______ _______ _____ _____    ______ ____

>  <TORSDO>
F 9

$$$$
