=
 OpenBabel11032419333D

 31 33  0  0  1  0  0  0  0  0999 V2000
  189.0530  177.8560  139.8280 C   0  0  0  0  0  0  0  0  0  0  0  0
  191.9200  177.3430  140.6870 C   0  0  0  0  0  3  0  0  0  0  0  0
  190.8880  176.9110  138.4140 C   0  0  0  0  0  0  0  0  0  0  0  0
  189.6900  177.7760  138.6460 C   0  0  0  0  0  0  0  0  0  0  0  0
  190.8480  177.5260  141.4660 C   0  0  0  0  0  0  0  0  0  0  0  0
  191.8820  176.7920  139.3180 C   0  0  0  0  0  3  0  0  0  0  0  0
  187.9780  178.7320  139.9780 O   0  0  0  0  0  1  0  0  0  0  0  0
  189.1980  178.6070  137.5030 C   0  0  0  0  0  1  0  0  0  0  0  0
  189.5080  177.0350  141.0000 C   0  0  1  0  0  3  0  0  0  0  0  0
  190.5580  175.3950  134.9790 C   0  0  0  0  0  2  0  0  0  0  0  0
  191.0480  176.2690  137.1330 N   0  0  0  0  0  0  0  0  0  0  0  0
  192.3220  176.2260  136.4400 C   0  0  0  0  0  2  0  0  0  0  0  0
  192.0090  175.8530  135.0040 C   0  0  0  0  0  2  0  0  0  0  0  0
  189.9410  175.8410  136.2920 C   0  0  2  0  0  3  0  0  0  0  0  0
  189.9090  173.5360  137.3180 N   0  0  0  0  0  1  0  0  0  0  0  0
  187.9560  174.7730  137.1090 O   0  0  0  0  0  0  0  0  0  0  0  0
  189.1990  174.7020  136.9200 C   0  0  0  0  0  0  0  0  0  0  0  0
  188.4920  176.9640  142.1040 C   0  0  0  0  0  3  0  0  0  0  0  0
  187.5930  177.9320  142.2630 C   0  0  0  0  0  3  0  0  0  0  0  0
  186.5930  177.8470  143.3650 C   0  0  0  0  0  2  0  0  0  0  0  0
  185.3660  179.5030  141.9140 N   0  0  0  0  0  1  0  0  0  0  0  0
  185.3430  178.5490  142.9690 C   0  0  0  0  0  0  0  0  0  0  0  0
  184.2580  178.2780  143.5460 O   0  0  0  0  0  0  0  0  0  0  0  0
  190.9910  178.1080  142.7720 N   0  0  0  0  0  2  0  0  0  0  0  0
  190.7080  176.2920  147.2750 N   0  0  0  0  0  2  0  0  0  0  0  0
  189.6280  177.9600  145.3110 N   0  0  0  0  0  2  0  0  0  0  0  0
  190.9330  177.4020  145.1110 C   0  0  0  0  0  0  0  0  0  0  0  0
  189.8270  177.3840  147.6820 C   0  0  0  0  0  2  0  0  0  0  0  0
  191.5470  177.4620  143.9270 C   0  0  0  0  0  3  0  0  0  0  0  0
  191.6530  176.7920  146.2760 C   0  0  0  0  0  2  0  0  0  0  0  0
  188.8760  177.7140  146.5360 C   0  0  0  0  0  2  0  0  0  0  0  0
  1  7  1  0  0  0  0
  1  9  1  0  0  0  0
  2  5  2  0  0  0  0
  3  4  1  0  0  0  0
  3  6  2  0  0  0  0
  4  1  2  0  0  0  0
  5 24  1  0  0  0  0
  6  2  1  0  0  0  0
  8  4  1  0  0  0  0
  9  5  1  0  0  0  0
  9 18  1  1  0  0  0
 10 13  1  0  0  0  0
 10 14  1  0  0  0  0
 11  3  1  0  0  0  0
 12 11  1  0  0  0  0
 13 12  1  0  0  0  0
 14 17  1  1  0  0  0
 14 11  1  0  0  0  0
 17 16  2  0  0  0  0
 17 15  1  0  0  0  0
 18 19  2  0  0  0  0
 19 20  1  0  0  0  0
 21 22  1  0  0  0  0
 22 20  1  0  0  0  0
 22 23  2  0  0  0  0
 24 29  1  0  0  0  0
 25 28  1  0  0  0  0
 26 31  1  0  0  0  0
 27 26  1  0  0  0  0
 27 30  1  0  0  0  0
 29 27  2  0  0  0  0
 30 25  1  0  0  0  0
 31 28  1  0  0  0  0
M  END
>  <MODEL>
1

>  <REMARK>
 VINA RESULT:      -7.9      0.000      0.000
  Name = 
  7 active torsions:
  status: ('A' for Active; 'I' for Inactive)
    1  A    between atoms: C_3  and  C_29
    2  A    between atoms: N_5  and  C_13
    3  A    between atoms: C_11  and  C_21
    4  A    between atoms: C_16  and  N_17
    5  A    between atoms: N_17  and  C_18
    6  A    between atoms: C_21  and  C_24
    7  A    between atoms: C_30  and  C_31
                            x       y       z     vdW  Elec       q    Type
                         _______ _______ _______ _____ _____    ______ ____

>  <TORSDO>
F 7

$$$$
=
 OpenBabel11032419333D

 31 33  0  0  1  0  0  0  0  0999 V2000
  188.3370  178.1550  140.3060 C   0  0  0  0  0  0  0  0  0  0  0  0
  191.0450  176.8330  140.6810 C   0  0  0  0  0  3  0  0  0  0  0  0
  189.4340  176.5330  138.7490 C   0  0  0  0  0  0  0  0  0  0  0  0
  188.6290  177.7570  139.0550 C   0  0  0  0  0  0  0  0  0  0  0  0
  190.2850  177.4290  141.6070 C   0  0  0  0  0  0  0  0  0  0  0  0
  190.5300  176.1900  139.4550 C   0  0  0  0  0  3  0  0  0  0  0  0
  187.6310  179.3410  140.5080 O   0  0  0  0  0  1  0  0  0  0  0  0
  188.1510  178.5830  137.9040 C   0  0  0  0  0  1  0  0  0  0  0  0
  188.7910  177.3530  141.4910 C   0  0  1  0  0  3  0  0  0  0  0  0
  189.2720  174.2160  135.7800 C   0  0  0  0  0  2  0  0  0  0  0  0
  189.0970  175.7490  137.5870 N   0  0  0  0  0  0  0  0  0  0  0  0
  187.7330  175.3610  137.2820 C   0  0  0  0  0  2  0  0  0  0  0  0
  187.8300  174.2420  136.2620 C   0  0  0  0  0  2  0  0  0  0  0  0
  190.0720  175.0510  136.7630 C   0  0  2  0  0  3  0  0  0  0  0  0
  192.3160  176.1320  136.3560 N   0  0  0  0  0  1  0  0  0  0  0  0
  190.4590  176.7320  135.0980 O   0  0  0  0  0  0  0  0  0  0  0  0
  190.9380  176.0220  136.0210 C   0  0  0  0  0  0  0  0  0  0  0  0
  188.0830  177.7240  142.7640 C   0  0  0  0  0  3  0  0  0  0  0  0
  186.7990  177.4250  142.9380 C   0  0  0  0  0  3  0  0  0  0  0  0
  186.1120  177.8030  144.2060 C   0  0  0  0  0  2  0  0  0  0  0  0
  184.0650  179.0800  144.9370 N   0  0  0  0  0  1  0  0  0  0  0  0
  184.9980  178.7460  143.9170 C   0  0  0  0  0  0  0  0  0  0  0  0
  184.8980  179.2720  142.7780 O   0  0  0  0  0  0  0  0  0  0  0  0
  190.8910  178.0610  142.7460 N   0  0  0  0  0  2  0  0  0  0  0  0
  190.8780  176.2240  147.2490 N   0  0  0  0  0  2  0  0  0  0  0  0
  189.7130  177.9410  145.3770 N   0  0  0  0  0  2  0  0  0  0  0  0
  190.9810  177.3420  145.0790 C   0  0  0  0  0  0  0  0  0  0  0  0
  190.0650  177.3420  147.7250 C   0  0  0  0  0  2  0  0  0  0  0  0
  191.5080  177.3900  143.8540 C   0  0  0  0  0  3  0  0  0  0  0  0
  191.7640  176.7000  146.1860 C   0  0  0  0  0  2  0  0  0  0  0  0
  189.0450  177.7110  146.6530 C   0  0  0  0  0  2  0  0  0  0  0  0
  1  7  1  0  0  0  0
  1  9  1  0  0  0  0
  2  5  2  0  0  0  0
  3  4  1  0  0  0  0
  3  6  2  0  0  0  0
  4  1  2  0  0  0  0
  5 24  1  0  0  0  0
  6  2  1  0  0  0  0
  8  4  1  0  0  0  0
  9  5  1  0  0  0  0
  9 18  1  1  0  0  0
 10 13  1  0  0  0  0
 10 14  1  0  0  0  0
 11  3  1  0  0  0  0
 12 11  1  0  0  0  0
 13 12  1  0  0  0  0
 14 17  1  6  0  0  0
 14 11  1  0  0  0  0
 16 17  2  0  0  0  0
 17 15  1  0  0  0  0
 18 19  2  0  0  0  0
 19 20  1  0  0  0  0
 22 20  1  0  0  0  0
 22 21  1  0  0  0  0
 23 22  2  0  0  0  0
 24 29  1  0  0  0  0
 25 28  1  0  0  0  0
 26 31  1  0  0  0  0
 27 26  1  0  0  0  0
 27 30  1  0  0  0  0
 29 27  2  0  0  0  0
 30 25  1  0  0  0  0
 31 28  1  0  0  0  0
M  END
>  <MODEL>
2

>  <REMARK>
 VINA RESULT:      -7.5      1.342      1.925
  Name = 
  7 active torsions:
  status: ('A' for Active; 'I' for Inactive)
    1  A    between atoms: C_3  and  C_29
    2  A    between atoms: N_5  and  C_13
    3  A    between atoms: C_11  and  C_21
    4  A    between atoms: C_16  and  N_17
    5  A    between atoms: N_17  and  C_18
    6  A    between atoms: C_21  and  C_24
    7  A    between atoms: C_30  and  C_31
                            x       y       z     vdW  Elec       q    Type
                         _______ _______ _______ _____ _____    ______ ____

>  <TORSDO>
F 7

$$$$
=
 OpenBabel11032419333D

 31 33  0  0  1  0  0  0  0  0999 V2000
  183.1180  179.2210  138.7410 C   0  0  0  0  0  0  0  0  0  0  0  0
  185.0920  177.3920  137.3350 C   0  0  0  0  0  3  0  0  0  0  0  0
  182.5670  177.3890  137.1290 C   0  0  0  0  0  0  0  0  0  0  0  0
  182.3840  178.7530  137.7160 C   0  0  0  0  0  0  0  0  0  0  0  0
  185.2970  178.1410  138.4230 C   0  0  0  0  0  0  0  0  0  0  0  0
  183.7830  176.8450  136.9230 C   0  0  0  0  0  3  0  0  0  0  0  0
  182.9250  180.5270  139.1920 O   0  0  0  0  0  1  0  0  0  0  0  0
  181.3450  179.6410  137.1070 C   0  0  0  0  0  1  0  0  0  0  0  0
  184.1670  178.3630  139.3870 C   0  0  1  0  0  3  0  0  0  0  0  0
  179.2350  175.7110  136.5840 C   0  0  0  0  0  2  0  0  0  0  0  0
  181.4080  176.6700  136.6610 N   0  0  0  0  0  0  0  0  0  0  0  0
  181.1100  176.5140  135.2500 C   0  0  0  0  0  2  0  0  0  0  0  0
  179.6570  176.0830  135.1710 C   0  0  0  0  0  2  0  0  0  0  0  0
  180.3010  176.2630  137.5130 C   0  0  2  0  0  3  0  0  0  0  0  0
  181.1660  175.5810  139.7830 N   0  0  0  0  0  1  0  0  0  0  0  0
  180.7000  173.9890  138.1590 O   0  0  0  0  0  0  0  0  0  0  0  0
  180.7310  175.2060  138.4820 C   0  0  0  0  0  0  0  0  0  0  0  0
  184.6240  178.8870  140.7180 C   0  0  0  0  0  3  0  0  0  0  0  0
  184.3140  178.2480  141.8430 C   0  0  0  0  0  3  0  0  0  0  0  0
  184.7740  178.7840  143.1550 C   0  0  0  0  0  2  0  0  0  0  0  0
  183.8070  179.0370  145.4700 N   0  0  0  0  0  1  0  0  0  0  0  0
  183.6100  178.9690  144.0630 C   0  0  0  0  0  0  0  0  0  0  0  0
  182.4520  179.0950  143.5840 O   0  0  0  0  0  0  0  0  0  0  0  0
  186.6060  178.6580  138.7140 N   0  0  0  0  0  2  0  0  0  0  0  0
  190.2850  176.4350  140.9890 N   0  0  0  0  0  2  0  0  0  0  0  0
  188.1990  178.2920  141.0910 N   0  0  0  0  0  2  0  0  0  0  0  0
  188.5790  177.7390  139.8240 C   0  0  0  0  0  0  0  0  0  0  0  0
  190.3310  177.4960  141.9930 C   0  0  0  0  0  2  0  0  0  0  0  0
  187.8250  177.9010  138.7340 C   0  0  0  0  0  3  0  0  0  0  0  0
  189.8870  177.0150  139.7050 C   0  0  0  0  0  2  0  0  0  0  0  0
  188.9090  177.9420  142.3160 C   0  0  0  0  0  2  0  0  0  0  0  0
  1  7  1  0  0  0  0
  1  9  1  0  0  0  0
  2  5  2  0  0  0  0
  3  4  1  0  0  0  0
  4  1  2  0  0  0  0
  5 24  1  0  0  0  0
  5  9  1  0  0  0  0
  6  3  2  0  0  0  0
  6  2  1  0  0  0  0
  8  4  1  0  0  0  0
  9 18  1  1  0  0  0
 10 14  1  0  0  0  0
 11  3  1  0  0  0  0
 11 14  1  0  0  0  0
 12 11  1  0  0  0  0
 13 12  1  0  0  0  0
 13 10  1  0  0  0  0
 14 17  1  1  0  0  0
 16 17  2  0  0  0  0
 17 15  1  0  0  0  0
 18 19  2  0  0  0  0
 19 20  1  0  0  0  0
 20 22  1  0  0  0  0
 22 21  1  0  0  0  0
 23 22  2  0  0  0  0
 24 29  1  0  0  0  0
 25 28  1  0  0  0  0
 26 31  1  0  0  0  0
 27 26  1  0  0  0  0
 28 31  1  0  0  0  0
 29 27  2  0  0  0  0
 30 27  1  0  0  0  0
 30 25  1  0  0  0  0
M  END
>  <MODEL>
3

>  <REMARK>
 VINA RESULT:      -7.4      5.202      7.184
  Name = 
  7 active torsions:
  status: ('A' for Active; 'I' for Inactive)
    1  A    between atoms: C_3  and  C_29
    2  A    between atoms: N_5  and  C_13
    3  A    between atoms: C_11  and  C_21
    4  A    between atoms: C_16  and  N_17
    5  A    between atoms: N_17  and  C_18
    6  A    between atoms: C_21  and  C_24
    7  A    between atoms: C_30  and  C_31
                            x       y       z     vdW  Elec       q    Type
                         _______ _______ _______ _____ _____    ______ ____

>  <TORSDO>
F 7

$$$$
=
 OpenBabel11032419333D

 31 33  0  0  1  0  0  0  0  0999 V2000
  181.4800  178.9130  141.5680 C   0  0  0  0  0  0  0  0  0  0  0  0
  183.8490  177.6640  140.1360 C   0  0  0  0  0  3  0  0  0  0  0  0
  181.4200  176.9540  140.0140 C   0  0  0  0  0  0  0  0  0  0  0  0
  180.8800  178.2300  140.5770 C   0  0  0  0  0  0  0  0  0  0  0  0
  183.8650  178.4720  141.2020 C   0  0  0  0  0  0  0  0  0  0  0  0
  182.7340  176.7630  139.7790 C   0  0  0  0  0  3  0  0  0  0  0  0
  180.9430  180.1260  141.9980 O   0  0  0  0  0  1  0  0  0  0  0  0
  179.6190  178.7760  139.9850 C   0  0  0  0  0  1  0  0  0  0  0  0
  182.7430  178.3990  142.1970 C   0  0  1  0  0  3  0  0  0  0  0  0
  179.5090  174.1590  138.3560 C   0  0  0  0  0  2  0  0  0  0  0  0
  180.4960  175.9280  139.5980 N   0  0  0  0  0  0  0  0  0  0  0  0
  179.6210  175.2470  140.5330 C   0  0  0  0  0  2  0  0  0  0  0  0
  179.1260  174.0030  139.8200 C   0  0  0  0  0  2  0  0  0  0  0  0
  180.5220  175.2880  138.2910 C   0  0  2  0  0  3  0  0  0  0  0  0
  181.1520  176.8370  136.4020 N   0  0  0  0  0  1  0  0  0  0  0  0
  178.9310  176.5480  137.0140 O   0  0  0  0  0  0  0  0  0  0  0  0
  180.1400  176.2550  137.2140 C   0  0  0  0  0  0  0  0  0  0  0  0
  183.0700  179.0680  143.5020 C   0  0  0  0  0  3  0  0  0  0  0  0
  183.4940  178.3570  144.5420 C   0  0  0  0  0  3  0  0  0  0  0  0
  183.8120  179.0370  145.8300 C   0  0  0  0  0  2  0  0  0  0  0  0
  185.8750  179.5030  147.2010 N   0  0  0  0  0  1  0  0  0  0  0  0
  185.1910  178.6830  146.2620 C   0  0  0  0  0  0  0  0  0  0  0  0
  185.7420  177.6410  145.8190 O   0  0  0  0  0  0  0  0  0  0  0  0
  184.9860  179.3400  141.4380 N   0  0  0  0  0  2  0  0  0  0  0  0
  189.2770  177.0520  141.4460 N   0  0  0  0  0  2  0  0  0  0  0  0
  186.8880  177.6330  142.7750 N   0  0  0  0  0  2  0  0  0  0  0  0
  187.2190  178.3610  141.5850 C   0  0  0  0  0  0  0  0  0  0  0  0
  189.2280  176.9220  142.9000 C   0  0  0  0  0  2  0  0  0  0  0  0
  186.3250  179.1350  140.9660 C   0  0  0  0  0  3  0  0  0  0  0  0
  188.6230  178.3020  141.0580 C   0  0  0  0  0  2  0  0  0  0  0  0
  187.7940  176.6330  143.3300 C   0  0  0  0  0  2  0  0  0  0  0  0
  1  7  1  0  0  0  0
  1  9  1  0  0  0  0
  2  5  2  0  0  0  0
  3  4  1  0  0  0  0
  4  1  2  0  0  0  0
  5 24  1  0  0  0  0
  5  9  1  0  0  0  0
  6  3  2  0  0  0  0
  6  2  1  0  0  0  0
  8  4  1  0  0  0  0
  9 18  1  1  0  0  0
 10 13  1  0  0  0  0
 11  3  1  0  0  0  0
 11 12  1  0  0  0  0
 13 12  1  0  0  0  0
 14 17  1  6  0  0  0
 14 10  1  0  0  0  0
 14 11  1  0  0  0  0
 15 17  1  0  0  0  0
 16 17  2  0  0  0  0
 18 19  2  0  0  0  0
 19 20  1  0  0  0  0
 20 22  1  0  0  0  0
 22 21  1  0  0  0  0
 23 22  2  0  0  0  0
 25 28  1  0  0  0  0
 26 31  1  0  0  0  0
 27 26  1  0  0  0  0
 28 31  1  0  0  0  0
 29 24  1  0  0  0  0
 29 27  2  0  0  0  0
 30 25  1  0  0  0  0
 30 27  1  0  0  0  0
M  END
>  <MODEL>
4

>  <REMARK>
 VINA RESULT:      -7.1      4.893      7.957
  Name = 
  7 active torsions:
  status: ('A' for Active; 'I' for Inactive)
    1  A    between atoms: C_3  and  C_29
    2  A    between atoms: N_5  and  C_13
    3  A    between atoms: C_11  and  C_21
    4  A    between atoms: C_16  and  N_17
    5  A    between atoms: N_17  and  C_18
    6  A    between atoms: C_21  and  C_24
    7  A    between atoms: C_30  and  C_31
                            x       y       z     vdW  Elec       q    Type
                         _______ _______ _______ _____ _____    ______ ____

>  <TORSDO>
F 7

$$$$
=
 OpenBabel11032419333D

 31 33  0  0  1  0  0  0  0  0999 V2000
  189.2400  178.4410  142.6230 C   0  0  0  0  0  0  0  0  0  0  0  0
  186.8590  177.5020  144.2580 C   0  0  0  0  0  3  0  0  0  0  0  0
  189.3120  177.3350  144.8660 C   0  0  0  0  0  0  0  0  0  0  0  0
  189.7690  178.3400  143.8560 C   0  0  0  0  0  0  0  0  0  0  0  0
  186.9000  177.7850  142.9510 C   0  0  0  0  0  0  0  0  0  0  0  0
  188.0110  177.0350  145.0540 C   0  0  0  0  0  3  0  0  0  0  0  0
  189.6810  179.4430  141.7600 O   0  0  0  0  0  1  0  0  0  0  0  0
  190.8540  179.2890  144.2560 C   0  0  0  0  0  1  0  0  0  0  0  0
  188.1540  177.5050  142.1770 C   0  0  1  0  0  3  0  0  0  0  0  0
  192.3600  176.0080  146.6440 C   0  0  0  0  0  2  0  0  0  0  0  0
  190.2850  176.7460  145.7530 N   0  0  0  0  0  0  0  0  0  0  0  0
  190.0760  176.6610  147.1860 C   0  0  0  0  0  2  0  0  0  0  0  0
  191.4360  176.3760  147.7950 C   0  0  0  0  0  2  0  0  0  0  0  0
  191.6520  176.4270  145.3690 C   0  0  2  0  0  3  0  0  0  0  0  0
  192.4190  174.1260  144.6710 N   0  0  0  0  0  1  0  0  0  0  0  0
  191.0490  175.3940  143.2910 O   0  0  0  0  0  0  0  0  0  0  0  0
  191.6810  175.3060  144.3770 C   0  0  0  0  0  0  0  0  0  0  0  0
  187.9410  177.5110  140.6890 C   0  0  0  0  0  3  0  0  0  0  0  0
  188.8840  177.0620  139.8660 C   0  0  0  0  0  3  0  0  0  0  0  0
  188.6570  177.0780  138.3930 C   0  0  0  0  0  2  0  0  0  0  0  0
  186.7640  178.5920  137.6970 N   0  0  0  0  0  1  0  0  0  0  0  0
  188.1480  178.4120  137.9740 C   0  0  0  0  0  0  0  0  0  0  0  0
  188.9360  179.3900  137.8940 O   0  0  0  0  0  0  0  0  0  0  0  0
  185.7270  178.2720  142.2770 N   0  0  0  0  0  2  0  0  0  0  0  0
  180.8740  178.5680  142.3890 N   0  0  0  0  0  2  0  0  0  0  0  0
  183.2050  178.2690  140.8770 N   0  0  0  0  0  2  0  0  0  0  0  0
  183.3130  178.6430  142.2560 C   0  0  0  0  0  0  0  0  0  0  0  0
  180.8410  178.9020  140.9670 C   0  0  0  0  0  2  0  0  0  0  0  0
  184.4830  178.6250  142.8980 C   0  0  0  0  0  3  0  0  0  0  0  0
  182.0910  179.1280  142.9800 C   0  0  0  0  0  2  0  0  0  0  0  0
  181.9060  178.0890  140.2370 C   0  0  0  0  0  2  0  0  0  0  0  0
  1  4  2  0  0  0  0
  2  6  1  0  0  0  0
  3  6  2  0  0  0  0
  3 11  1  0  0  0  0
  4  8  1  0  0  0  0
  4  3  1  0  0  0  0
  5  2  2  0  0  0  0
  7  1  1  0  0  0  0
  9 18  1  6  0  0  0
  9  1  1  0  0  0  0
  9  5  1  0  0  0  0
 10 13  1  0  0  0  0
 11 12  1  0  0  0  0
 12 13  1  0  0  0  0
 14 17  1  6  0  0  0
 14 11  1  0  0  0  0
 14 10  1  0  0  0  0
 16 17  2  0  0  0  0
 17 15  1  0  0  0  0
 19 18  2  0  0  0  0
 20 19  1  0  0  0  0
 21 22  1  0  0  0  0
 22 20  1  0  0  0  0
 23 22  2  0  0  0  0
 24 29  1  0  0  0  0
 24  5  1  0  0  0  0
 25 30  1  0  0  0  0
 26 27  1  0  0  0  0
 27 29  2  0  0  0  0
 27 30  1  0  0  0  0
 28 25  1  0  0  0  0
 31 26  1  0  0  0  0
 31 28  1  0  0  0  0
M  END
>  <MODEL>
5

>  <REMARK>
 VINA RESULT:      -7.0      2.906      7.636
  Name = 
  7 active torsions:
  status: ('A' for Active; 'I' for Inactive)
    1  A    between atoms: C_3  and  C_29
    2  A    between atoms: N_5  and  C_13
    3  A    between atoms: C_11  and  C_21
    4  A    between atoms: C_16  and  N_17
    5  A    between atoms: N_17  and  C_18
    6  A    between atoms: C_21  and  C_24
    7  A    between atoms: C_30  and  C_31
                            x       y       z     vdW  Elec       q    Type
                         _______ _______ _______ _____ _____    ______ ____

>  <TORSDO>
F 7

$$$$
=
 OpenBabel11032419333D

 31 33  0  0  1  0  0  0  0  0999 V2000
  189.2880  178.4730  142.7240 C   0  0  0  0  0  0  0  0  0  0  0  0
  186.9330  177.5040  144.3780 C   0  0  0  0  0  3  0  0  0  0  0  0
  189.3920  177.3890  144.9770 C   0  0  0  0  0  0  0  0  0  0  0  0
  189.8240  178.3930  143.9550 C   0  0  0  0  0  0  0  0  0  0  0  0
  186.9620  177.7760  143.0690 C   0  0  0  0  0  0  0  0  0  0  0  0
  188.0970  177.0660  145.1740 C   0  0  0  0  0  3  0  0  0  0  0  0
  189.7060  179.4750  141.8490 O   0  0  0  0  0  1  0  0  0  0  0  0
  190.8930  179.3660  144.3410 C   0  0  0  0  0  1  0  0  0  0  0  0
  188.2180  177.5120  142.2910 C   0  0  1  0  0  3  0  0  0  0  0  0
  191.3610  175.7120  147.7180 C   0  0  0  0  0  2  0  0  0  0  0  0
  190.3790  176.8280  145.8650 N   0  0  0  0  0  0  0  0  0  0  0  0
  191.6800  176.3870  145.3990 C   0  0  0  0  0  2  0  0  0  0  0  0
  192.2480  175.5100  146.4990 C   0  0  0  0  0  2  0  0  0  0  0  0
  190.1010  176.4010  147.2280 C   0  0  2  0  0  3  0  0  0  0  0  0
  188.4370  177.8520  148.4510 N   0  0  0  0  0  1  0  0  0  0  0  0
  190.7110  178.3120  148.5410 O   0  0  0  0  0  0  0  0  0  0  0  0
  189.7880  177.5750  148.1030 C   0  0  0  0  0  0  0  0  0  0  0  0
  187.9980  177.5010  140.8050 C   0  0  0  0  0  3  0  0  0  0  0  0
  188.9490  177.0690  139.9810 C   0  0  0  0  0  3  0  0  0  0  0  0
  188.7140  177.0670  138.5090 C   0  0  0  0  0  2  0  0  0  0  0  0
  186.9290  178.6060  137.6150 N   0  0  0  0  0  1  0  0  0  0  0  0
  188.2640  178.4140  138.0660 C   0  0  0  0  0  0  0  0  0  0  0  0
  189.0560  179.3920  138.1190 O   0  0  0  0  0  0  0  0  0  0  0  0
  185.7780  178.2340  142.3960 N   0  0  0  0  0  2  0  0  0  0  0  0
  180.9280  178.5920  142.4630 N   0  0  0  0  0  2  0  0  0  0  0  0
  183.2740  178.3420  140.9660 N   0  0  0  0  0  2  0  0  0  0  0  0
  183.3680  178.6400  142.3650 C   0  0  0  0  0  0  0  0  0  0  0  0
  180.9180  179.0030  141.0610 C   0  0  0  0  0  2  0  0  0  0  0  0
  184.5300  178.5700  143.0200 C   0  0  0  0  0  3  0  0  0  0  0  0
  182.1440  179.1010  143.0980 C   0  0  0  0  0  2  0  0  0  0  0  0
  181.9820  178.2160  140.3010 C   0  0  0  0  0  2  0  0  0  0  0  0
  1  4  2  0  0  0  0
  2  6  1  0  0  0  0
  3  6  2  0  0  0  0
  3 11  1  0  0  0  0
  4  8  1  0  0  0  0
  4  3  1  0  0  0  0
  5  2  2  0  0  0  0
  7  1  1  0  0  0  0
  9 18  1  6  0  0  0
  9  1  1  0  0  0  0
  9  5  1  0  0  0  0
 11 14  1  0  0  0  0
 12 11  1  0  0  0  0
 12 13  1  0  0  0  0
 13 10  1  0  0  0  0
 14 10  1  0  0  0  0
 14 17  1  1  0  0  0
 17 15  1  0  0  0  0
 17 16  2  0  0  0  0
 19 18  2  0  0  0  0
 20 19  1  0  0  0  0
 21 22  1  0  0  0  0
 22 23  2  0  0  0  0
 22 20  1  0  0  0  0
 24 29  1  0  0  0  0
 24  5  1  0  0  0  0
 25 30  1  0  0  0  0
 26 27  1  0  0  0  0
 27 29  2  0  0  0  0
 27 30  1  0  0  0  0
 28 25  1  0  0  0  0
 31 26  1  0  0  0  0
 31 28  1  0  0  0  0
M  END
>  <MODEL>
6

>  <REMARK>
 VINA RESULT:      -7.0      2.892      8.121
  Name = 
  7 active torsions:
  status: ('A' for Active; 'I' for Inactive)
    1  A    between atoms: C_3  and  C_29
    2  A    between atoms: N_5  and  C_13
    3  A    between atoms: C_11  and  C_21
    4  A    between atoms: C_16  and  N_17
    5  A    between atoms: N_17  and  C_18
    6  A    between atoms: C_21  and  C_24
    7  A    between atoms: C_30  and  C_31
                            x       y       z     vdW  Elec       q    Type
                         _______ _______ _______ _____ _____    ______ ____

>  <TORSDO>
F 7

$$$$
=
 OpenBabel11032419333D

 31 33  0  0  1  0  0  0  0  0999 V2000
  183.0850  179.0540  142.7650 C   0  0  0  0  0  0  0  0  0  0  0  0
  184.4310  178.4150  140.1190 C   0  0  0  0  0  3  0  0  0  0  0  0
  182.0300  177.9550  140.7810 C   0  0  0  0  0  0  0  0  0  0  0  0
  182.0300  178.8930  141.9460 C   0  0  0  0  0  0  0  0  0  0  0  0
  185.0120  178.6880  141.2930 C   0  0  0  0  0  0  0  0  0  0  0  0
  183.0910  177.8150  139.9610 C   0  0  0  0  0  3  0  0  0  0  0  0
  183.0260  179.9930  143.7940 O   0  0  0  0  0  1  0  0  0  0  0  0
  180.7970  179.7060  142.1880 C   0  0  0  0  0  1  0  0  0  0  0  0
  184.3400  178.2550  142.5630 C   0  0  1  0  0  3  0  0  0  0  0  0
  179.1620  176.0770  139.2100 C   0  0  0  0  0  2  0  0  0  0  0  0
  180.8130  177.2550  140.4490 N   0  0  0  0  0  0  0  0  0  0  0  0
  180.0440  176.5240  141.4380 C   0  0  0  0  0  2  0  0  0  0  0  0
  179.1080  175.6180  140.6590 C   0  0  0  0  0  2  0  0  0  0  0  0
  180.3740  176.9830  139.0880 C   0  0  2  0  0  3  0  0  0  0  0  0
  180.3520  178.4270  137.0190 N   0  0  0  0  0  1  0  0  0  0  0  0
  179.3560  179.1510  138.9870 O   0  0  0  0  0  0  0  0  0  0  0  0
  179.9960  178.2490  138.3840 C   0  0  0  0  0  0  0  0  0  0  0  0
  185.2570  178.2830  143.7520 C   0  0  0  0  0  3  0  0  0  0  0  0
  186.0490  177.2490  144.0240 C   0  0  0  0  0  3  0  0  0  0  0  0
  186.9520  177.2940  145.2090 C   0  0  0  0  0  2  0  0  0  0  0  0
  189.3980  177.8560  145.4430 N   0  0  0  0  0  1  0  0  0  0  0  0
  188.3660  177.1410  144.7740 C   0  0  0  0  0  0  0  0  0  0  0  0
  188.6550  176.3570  143.8320 O   0  0  0  0  0  0  0  0  0  0  0  0
  186.3060  179.3110  141.3350 N   0  0  0  0  0  2  0  0  0  0  0  0
  190.4490  177.6890  139.3710 N   0  0  0  0  0  2  0  0  0  0  0  0
  187.8400  178.6170  138.9930 N   0  0  0  0  0  2  0  0  0  0  0  0
  188.2780  178.2890  140.3180 C   0  0  0  0  0  0  0  0  0  0  0  0
  189.7550  177.3570  138.1290 C   0  0  0  0  0  2  0  0  0  0  0  0
  187.5680  178.6300  141.3950 C   0  0  0  0  0  3  0  0  0  0  0  0
  189.5340  177.4880  140.4950 C   0  0  0  0  0  2  0  0  0  0  0  0
  188.7110  178.4300  137.8370 C   0  0  0  0  0  2  0  0  0  0  0  0
  1  7  1  0  0  0  0
  2  5  2  0  0  0  0
  3  4  1  0  0  0  0
  4  8  1  0  0  0  0
  4  1  2  0  0  0  0
  5 24  1  0  0  0  0
  5  9  1  0  0  0  0
  6  2  1  0  0  0  0
  6  3  2  0  0  0  0
  9  1  1  0  0  0  0
  9 18  1  1  0  0  0
 10 13  1  0  0  0  0
 11  3  1  0  0  0  0
 11 12  1  0  0  0  0
 13 12  1  0  0  0  0
 14 17  1  1  0  0  0
 14 10  1  0  0  0  0
 14 11  1  0  0  0  0
 15 17  1  0  0  0  0
 17 16  2  0  0  0  0
 18 19  2  0  0  0  0
 19 20  1  0  0  0  0
 22 20  1  0  0  0  0
 22 21  1  0  0  0  0
 23 22  2  0  0  0  0
 24 29  1  0  0  0  0
 25 30  1  0  0  0  0
 26 27  1  0  0  0  0
 27 30  1  0  0  0  0
 27 29  2  0  0  0  0
 28 25  1  0  0  0  0
 31 28  1  0  0  0  0
 31 26  1  0  0  0  0
M  END
>  <MODEL>
7

>  <REMARK>
 VINA RESULT:      -7.0      4.048      8.186
  Name = 
  7 active torsions:
  status: ('A' for Active; 'I' for Inactive)
    1  A    between atoms: C_3  and  C_29
    2  A    between atoms: N_5  and  C_13
    3  A    between atoms: C_11  and  C_21
    4  A    between atoms: C_16  and  N_17
    5  A    between atoms: N_17  and  C_18
    6  A    between atoms: C_21  and  C_24
    7  A    between atoms: C_30  and  C_31
                            x       y       z     vdW  Elec       q    Type
                         _______ _______ _______ _____ _____    ______ ____

>  <TORSDO>
F 7

$$$$
=
 OpenBabel11032419333D

 31 33  0  0  1  0  0  0  0  0999 V2000
  183.5060  178.7710  143.2730 C   0  0  0  0  0  0  0  0  0  0  0  0
  184.5780  178.9170  140.4360 C   0  0  0  0  0  3  0  0  0  0  0  0
  182.1870  178.5080  141.1640 C   0  0  0  0  0  0  0  0  0  0  0  0
  182.3870  179.0000  142.5630 C   0  0  0  0  0  0  0  0  0  0  0  0
  185.2670  178.7230  141.5660 C   0  0  0  0  0  0  0  0  0  0  0  0
  183.1640  178.5420  140.2360 C   0  0  0  0  0  3  0  0  0  0  0  0
  183.6390  179.3150  144.5500 O   0  0  0  0  0  1  0  0  0  0  0  0
  181.2900  179.8060  143.1830 C   0  0  0  0  0  1  0  0  0  0  0  0
  184.6300  177.9620  142.6930 C   0  0  1  0  0  3  0  0  0  0  0  0
  178.9410  177.7180  139.4170 C   0  0  0  0  0  2  0  0  0  0  0  0
  180.8700  178.0860  140.7550 N   0  0  0  0  0  0  0  0  0  0  0  0
  180.1910  176.9600  141.3670 C   0  0  0  0  0  2  0  0  0  0  0  0
  179.0620  176.5850  140.4250 C   0  0  0  0  0  2  0  0  0  0  0  0
  180.2040  178.5490  139.5460 C   0  0  2  0  0  3  0  0  0  0  0  0
  180.4450  180.9330  138.7550 N   0  0  0  0  0  1  0  0  0  0  0  0
  179.0290  180.4000  140.5160 O   0  0  0  0  0  0  0  0  0  0  0  0
  179.8530  180.0000  139.6500 C   0  0  0  0  0  0  0  0  0  0  0  0
  185.6200  177.4990  143.7230 C   0  0  0  0  0  3  0  0  0  0  0  0
  185.8490  178.2210  144.8170 C   0  0  0  0  0  3  0  0  0  0  0  0
  186.8370  177.7480  145.8280 C   0  0  0  0  0  2  0  0  0  0  0  0
  187.5300  178.2680  148.1960 N   0  0  0  0  0  1  0  0  0  0  0  0
  186.6280  178.4660  147.1140 C   0  0  0  0  0  0  0  0  0  0  0  0
  185.6680  179.2720  147.2370 O   0  0  0  0  0  0  0  0  0  0  0  0
  186.6310  179.1610  141.6700 N   0  0  0  0  0  2  0  0  0  0  0  0
  190.6660  176.4780  141.2560 N   0  0  0  0  0  2  0  0  0  0  0  0
  188.8400  177.7880  142.9170 N   0  0  0  0  0  2  0  0  0  0  0  0
  188.7800  178.0120  141.5030 C   0  0  0  0  0  0  0  0  0  0  0  0
  191.0870  176.8660  142.6000 C   0  0  0  0  0  2  0  0  0  0  0  0
  187.7450  178.6340  140.9350 C   0  0  0  0  0  3  0  0  0  0  0  0
  189.9390  177.5930  140.6470 C   0  0  0  0  0  2  0  0  0  0  0  0
  189.8620  176.9320  143.5080 C   0  0  0  0  0  2  0  0  0  0  0  0
  1  7  1  0  0  0  0
  2  5  2  0  0  0  0
  3  4  1  0  0  0  0
  4  8  1  0  0  0  0
  4  1  2  0  0  0  0
  5 24  1  0  0  0  0
  5  9  1  0  0  0  0
  6  2  1  0  0  0  0
  6  3  2  0  0  0  0
  9  1  1  0  0  0  0
  9 18  1  1  0  0  0
 10 14  1  0  0  0  0
 10 13  1  0  0  0  0
 11  3  1  0  0  0  0
 11 12  1  0  0  0  0
 13 12  1  0  0  0  0
 14 17  1  1  0  0  0
 14 11  1  0  0  0  0
 15 17  1  0  0  0  0
 17 16  2  0  0  0  0
 18 19  2  0  0  0  0
 19 20  1  0  0  0  0
 20 22  1  0  0  0  0
 22 23  2  0  0  0  0
 22 21  1  0  0  0  0
 25 28  1  0  0  0  0
 26 31  1  0  0  0  0
 27 26  1  0  0  0  0
 28 31  1  0  0  0  0
 29 27  2  0  0  0  0
 29 24  1  0  0  0  0
 30 25  1  0  0  0  0
 30 27  1  0  0  0  0
M  END
>  <MODEL>
8

>  <REMARK>
 VINA RESULT:      -7.0      3.817      7.982
  Name = 
  7 active torsions:
  status: ('A' for Active; 'I' for Inactive)
    1  A    between atoms: C_3  and  C_29
    2  A    between atoms: N_5  and  C_13
    3  A    between atoms: C_11  and  C_21
    4  A    between atoms: C_16  and  N_17
    5  A    between atoms: N_17  and  C_18
    6  A    between atoms: C_21  and  C_24
    7  A    between atoms: C_30  and  C_31
                            x       y       z     vdW  Elec       q    Type
                         _______ _______ _______ _____ _____    ______ ____

>  <TORSDO>
F 7

$$$$
=
 OpenBabel11032419333D

 31 33  0  0  1  0  0  0  0  0999 V2000
  185.3670  178.6190  144.0410 C   0  0  0  0  0  0  0  0  0  0  0  0
  186.0070  178.7180  141.0740 C   0  0  0  0  0  3  0  0  0  0  0  0
  183.7190  178.7380  142.1620 C   0  0  0  0  0  0  0  0  0  0  0  0
  184.2220  179.1000  143.5240 C   0  0  0  0  0  0  0  0  0  0  0  0
  186.8050  178.3300  142.0750 C   0  0  0  0  0  0  0  0  0  0  0  0
  184.5330  178.6360  141.0910 C   0  0  0  0  0  3  0  0  0  0  0  0
  185.7960  179.0520  145.2950 O   0  0  0  0  0  1  0  0  0  0  0  0
  183.4140  180.0660  144.3320 C   0  0  0  0  0  1  0  0  0  0  0  0
  186.2050  177.6430  143.2680 C   0  0  1  0  0  3  0  0  0  0  0  0
  180.2110  177.8740  141.0840 C   0  0  0  0  0  2  0  0  0  0  0  0
  182.2990  178.6030  141.9560 N   0  0  0  0  0  0  0  0  0  0  0  0
  181.3340  178.8660  143.0070 C   0  0  0  0  0  2  0  0  0  0  0  0
  180.0310  178.2360  142.5500 C   0  0  0  0  0  2  0  0  0  0  0  0
  181.7000  177.9530  140.7990 C   0  0  2  0  0  3  0  0  0  0  0  0
  181.5900  180.1270  139.5230 N   0  0  0  0  0  1  0  0  0  0  0  0
  182.4590  178.2120  138.5390 O   0  0  0  0  0  0  0  0  0  0  0  0
  181.9400  178.7490  139.5540 C   0  0  0  0  0  0  0  0  0  0  0  0
  187.2270  176.9390  144.1150 C   0  0  0  0  0  3  0  0  0  0  0  0
  188.1230  177.6300  144.8140 C   0  0  0  0  0  3  0  0  0  0  0  0
  189.1300  176.9150  145.6480 C   0  0  0  0  0  2  0  0  0  0  0  0
  191.6180  176.9300  146.0580 N   0  0  0  0  0  1  0  0  0  0  0  0
  190.4800  177.5000  145.4230 C   0  0  0  0  0  0  0  0  0  0  0  0
  190.6200  178.4820  144.6480 O   0  0  0  0  0  0  0  0  0  0  0  0
  188.2290  178.4900  141.9730 N   0  0  0  0  0  2  0  0  0  0  0  0
  190.7780  177.1270  138.0620 N   0  0  0  0  0  2  0  0  0  0  0  0
  188.6770  178.6310  139.1270 N   0  0  0  0  0  2  0  0  0  0  0  0
  189.3300  177.6600  139.9560 C   0  0  0  0  0  0  0  0  0  0  0  0
  189.6860  177.5370  137.1820 C   0  0  0  0  0  2  0  0  0  0  0  0
  189.1280  177.6160  141.2740 C   0  0  0  0  0  3  0  0  0  0  0  0
  190.2140  176.6300  139.3180 C   0  0  0  0  0  2  0  0  0  0  0  0
  189.0540  178.8130  137.7290 C   0  0  0  0  0  2  0  0  0  0  0  0
  1  7  1  0  0  0  0
  2  6  1  0  0  0  0
  2  5  2  0  0  0  0
  3  4  1  0  0  0  0
  4  1  2  0  0  0  0
  4  8  1  0  0  0  0
  5  9  1  0  0  0  0
  6  3  2  0  0  0  0
  9  1  1  0  0  0  0
  9 18  1  1  0  0  0
 10 13  1  0  0  0  0
 11  3  1  0  0  0  0
 11 12  1  0  0  0  0
 13 12  1  0  0  0  0
 14 17  1  6  0  0  0
 14 10  1  0  0  0  0
 14 11  1  0  0  0  0
 15 17  1  0  0  0  0
 16 17  2  0  0  0  0
 18 19  2  0  0  0  0
 19 20  1  0  0  0  0
 22 20  1  0  0  0  0
 22 21  1  0  0  0  0
 23 22  2  0  0  0  0
 24  5  1  0  0  0  0
 25 30  1  0  0  0  0
 26 27  1  0  0  0  0
 27 29  2  0  0  0  0
 28 31  1  0  0  0  0
 28 25  1  0  0  0  0
 29 24  1  0  0  0  0
 30 27  1  0  0  0  0
 31 26  1  0  0  0  0
M  END
>  <MODEL>
9

>  <REMARK>
 VINA RESULT:      -6.8      2.965      7.920
  Name = 
  7 active torsions:
  status: ('A' for Active; 'I' for Inactive)
    1  A    between atoms: C_3  and  C_29
    2  A    between atoms: N_5  and  C_13
    3  A    between atoms: C_11  and  C_21
    4  A    between atoms: C_16  and  N_17
    5  A    between atoms: N_17  and  C_18
    6  A    between atoms: C_21  and  C_24
    7  A    between atoms: C_30  and  C_31
                            x       y       z     vdW  Elec       q    Type
                         _______ _______ _______ _____ _____    ______ ____

>  <TORSDO>
F 7

$$$$
