=
 OpenBabel11032419263D

 30 34  0  0  1  0  0  0  0  0999 V2000
  188.6290  176.7590  143.7470 C   0  0  1  0  0  3  0  0  0  0  0  0
  190.6360  177.4440  141.7370 O   0  0  0  0  0  0  0  0  0  0  0  0
  188.5080  177.8890  142.7390 C   0  0  0  0  0  2  0  0  0  0  0  0
  191.0330  176.4970  142.7290 C   0  0  2  0  0  3  0  0  0  0  0  0
  189.2480  177.4720  141.4910 C   0  0  1  0  0  3  0  0  0  0  0  0
  190.2490  175.3260  142.7200 O   0  0  0  0  0  0  0  0  0  0  0  0
  190.0560  176.1830  143.8300 C   0  0  2  0  0  3  0  0  0  0  0  0
  188.9020  178.3820  140.3090 C   0  0  2  0  0  3  0  0  0  0  0  0
  187.0980  178.3100  140.0680 S   0  0  0  0  0  1  0  0  0  0  0  0
  189.6370  178.0520  138.9910 C   0  0  2  0  0  3  0  0  0  0  0  0
  189.0080  178.6740  137.7910 C   0  0  0  0  0  0  0  0  0  0  0  0
  188.9970  179.8770  137.5890 O   0  0  0  0  0  0  0  0  0  0  0  0
  189.0540  176.3750  137.2670 C   0  0  0  0  0  2  0  0  0  0  0  0
  188.5140  177.7080  136.7890 C   0  0  0  0  0  2  0  0  0  0  0  0
  189.5320  176.5570  138.7040 C   0  0  0  0  0  2  0  0  0  0  0  0
  188.1330  177.2040  145.1290 C   0  0  2  0  0  3  0  0  0  0  0  0
  186.0250  178.2880  146.2370 C   0  0  0  0  0  3  0  0  0  0  0  0
  183.7880  178.9200  145.0870 C   0  0  0  0  0  3  0  0  0  0  0  0
  183.8870  178.5810  143.7720 C   0  0  0  0  0  0  0  0  0  0  0  0
  186.0660  177.7550  143.9690 C   0  0  0  0  0  0  0  0  0  0  0  0
  184.7670  178.7870  146.2240 C   0  0  0  0  0  3  0  0  0  0  0  0
  186.7350  177.7400  145.0660 C   0  0  0  0  0  0  0  0  0  0  0  0
  185.0870  177.9620  143.1650 C   0  0  0  0  0  3  0  0  0  0  0  0
  181.5500  179.3340  143.3130 N   0  0  0  0  0  0  0  0  0  0  0  0
  182.7230  178.6260  141.5680 N   0  0  0  0  0  2  0  0  0  0  0  0
  181.5130  178.9900  141.1760 N   0  0  0  0  0  0  0  0  0  0  0  0
  180.8140  179.4120  142.2180 N   0  0  0  0  0  0  0  0  0  0  0  0
  182.7340  178.8440  142.8970 C   0  0  0  0  0  0  0  0  0  0  0  0
  189.0170  178.2210  145.6860 N   0  0  0  0  0  2  0  0  0  0  0  0
  189.4490  177.7440  146.9880 C   0  0  0  0  0  1  0  0  0  0  0  0
  1  7  1  0  0  0  0
  1 16  1  1  0  0  0
  3  1  1  0  0  0  0
  4  2  1  6  0  0  0
  4  7  1  0  0  0  0
  5  8  1  6  0  0  0
  5  2  1  0  0  0  0
  5  3  1  0  0  0  0
  6  4  1  0  0  0  0
  7  6  1  6  0  0  0
  8  9  1  6  0  0  0
 10  8  1  1  0  0  0
 11 10  1  0  0  0  0
 12 11  2  0  0  0  0
 13 15  1  0  0  0  0
 14 13  1  0  0  0  0
 14 11  1  0  0  0  0
 15 10  1  0  0  0  0
 16 29  1  6  0  0  0
 18 21  1  0  0  0  0
 19 18  2  0  0  0  0
 20 22  2  0  0  0  0
 21 17  2  0  0  0  0
 22 16  1  0  0  0  0
 22 17  1  0  0  0  0
 23 19  1  0  0  0  0
 23 20  2  0  0  0  0
 25 28  1  0  0  0  0
 26 25  1  0  0  0  0
 26 27  2  0  0  0  0
 27 24  1  0  0  0  0
 28 24  2  0  0  0  0
 28 19  1  0  0  0  0
 29 30  1  0  0  0  0
M  END
>  <MODEL>
1

>  <REMARK>
 VINA RESULT:      -9.1      0.000      0.000
  Name = 
  6 active torsions:
  status: ('A' for Active; 'I' for Inactive)
    1  A    between atoms: C_2  and  C_24
    2  A    between atoms: C_3  and  C_15
    3  A    between atoms: C_7  and  C_30
    4  A    between atoms: N_8  and  C_15
    5  A    between atoms: C_15  and  C_16
    6  A    between atoms: C_22  and  C_24
                            x       y       z     vdW  Elec       q    Type
                         _______ _______ _______ _____ _____    ______ ____

>  <TORSDO>
F 6

$$$$
=
 OpenBabel11032419263D

 30 34  0  0  1  0  0  0  0  0999 V2000
  190.7520  177.1230  144.7460 C   0  0  1  0  0  3  0  0  0  0  0  0
  190.3760  179.0790  142.6070 O   0  0  0  0  0  0  0  0  0  0  0  0
  189.9370  176.8950  143.4840 C   0  0  0  0  0  2  0  0  0  0  0  0
  190.9880  179.5610  143.8040 C   0  0  2  0  0  3  0  0  0  0  0  0
  190.5700  177.7020  142.3760 C   0  0  1  0  0  3  0  0  0  0  0  0
  192.2040  178.9140  144.1010 O   0  0  0  0  0  0  0  0  0  0  0  0
  191.1210  178.6040  144.9580 C   0  0  2  0  0  3  0  0  0  0  0  0
  190.0360  177.2790  141.0050 C   0  0  2  0  0  3  0  0  0  0  0  0
  191.4470  176.6630  140.0310 S   0  0  0  0  0  1  0  0  0  0  0  0
  189.2820  178.3800  140.2260 C   0  0  2  0  0  3  0  0  0  0  0  0
  187.8000  178.2650  140.3250 C   0  0  0  0  0  0  0  0  0  0  0  0
  187.1810  178.4460  141.3590 O   0  0  0  0  0  0  0  0  0  0  0  0
  188.2070  178.2490  138.0010 C   0  0  0  0  0  2  0  0  0  0  0  0
  187.1170  178.0430  139.0330 C   0  0  0  0  0  2  0  0  0  0  0  0
  189.5470  178.2250  138.7310 C   0  0  0  0  0  2  0  0  0  0  0  0
  190.0300  176.5540  145.9730 C   0  0  2  0  0  3  0  0  0  0  0  0
  188.2630  177.8030  147.4460 C   0  0  0  0  0  3  0  0  0  0  0  0
  185.8990  178.6000  146.7380 C   0  0  0  0  0  3  0  0  0  0  0  0
  185.7160  178.2470  145.4350 C   0  0  0  0  0  0  0  0  0  0  0  0
  187.8230  177.2560  145.2240 C   0  0  0  0  0  0  0  0  0  0  0  0
  187.0670  178.3980  147.6660 C   0  0  0  0  0  3  0  0  0  0  0  0
  188.6900  177.1960  146.1710 C   0  0  0  0  0  0  0  0  0  0  0  0
  186.7250  177.5330  144.6200 C   0  0  0  0  0  3  0  0  0  0  0  0
  183.3440  179.0300  145.4480 N   0  0  0  0  0  0  0  0  0  0  0  0
  184.2050  178.5140  143.4690 N   0  0  0  0  0  2  0  0  0  0  0  0
  182.9510  178.9110  143.3230 N   0  0  0  0  0  0  0  0  0  0  0  0
  182.4380  179.2190  144.5040 N   0  0  0  0  0  0  0  0  0  0  0  0
  184.4370  178.5930  144.7940 C   0  0  0  0  0  0  0  0  0  0  0  0
  190.8370  176.7390  147.1730 N   0  0  0  0  0  2  0  0  0  0  0  0
  191.9500  175.8100  147.0850 C   0  0  0  0  0  1  0  0  0  0  0  0
  1  7  1  0  0  0  0
  1 16  1  1  0  0  0
  3  1  1  0  0  0  0
  4  2  1  6  0  0  0
  4  6  1  0  0  0  0
  4  7  1  0  0  0  0
  5  8  1  6  0  0  0
  5  2  1  0  0  0  0
  5  3  1  0  0  0  0
  7  6  1  6  0  0  0
  8  9  1  6  0  0  0
 10 11  1  0  0  0  0
 10  8  1  1  0  0  0
 11 12  2  0  0  0  0
 13 15  1  0  0  0  0
 13 14  1  0  0  0  0
 14 11  1  0  0  0  0
 15 10  1  0  0  0  0
 16 22  1  0  0  0  0
 16 29  1  1  0  0  0
 17 21  2  0  0  0  0
 18 21  1  0  0  0  0
 19 18  2  0  0  0  0
 20 22  2  0  0  0  0
 22 17  1  0  0  0  0
 23 20  2  0  0  0  0
 23 19  1  0  0  0  0
 25 28  1  0  0  0  0
 26 25  1  0  0  0  0
 26 27  2  0  0  0  0
 27 24  1  0  0  0  0
 28 19  1  0  0  0  0
 28 24  2  0  0  0  0
 30 29  1  0  0  0  0
M  END
>  <MODEL>
2

>  <REMARK>
 VINA RESULT:      -8.9      2.047      2.718
  Name = 
  6 active torsions:
  status: ('A' for Active; 'I' for Inactive)
    1  A    between atoms: C_2  and  C_24
    2  A    between atoms: C_3  and  C_15
    3  A    between atoms: C_7  and  C_30
    4  A    between atoms: N_8  and  C_15
    5  A    between atoms: C_15  and  C_16
    6  A    between atoms: C_22  and  C_24
                            x       y       z     vdW  Elec       q    Type
                         _______ _______ _______ _____ _____    ______ ____

>  <TORSDO>
F 6

$$$$
=
 OpenBabel11032419263D

 30 34  0  0  1  0  0  0  0  0999 V2000
  189.2050  176.7110  146.5720 C   0  0  1  0  0  3  0  0  0  0  0  0
  192.0170  177.1630  145.9180 O   0  0  0  0  0  0  0  0  0  0  0  0
  189.7100  177.5960  145.4450 C   0  0  0  0  0  2  0  0  0  0  0  0
  191.7550  176.4800  147.1440 C   0  0  2  0  0  3  0  0  0  0  0  0
  191.0080  177.0080  144.9460 C   0  0  1  0  0  3  0  0  0  0  0  0
  191.0710  175.2620  146.9620 O   0  0  0  0  0  0  0  0  0  0  0  0
  190.3190  176.3030  147.5560 C   0  0  2  0  0  3  0  0  0  0  0  0
  191.4170  177.6230  143.6040 C   0  0  2  0  0  3  0  0  0  0  0  0
  190.6470  179.2700  143.4960 S   0  0  0  0  0  1  0  0  0  0  0  0
  191.0630  176.7780  142.3610 C   0  0  2  0  0  3  0  0  0  0  0  0
  191.4020  177.4480  141.0740 C   0  0  0  0  0  0  0  0  0  0  0  0
  192.5460  177.6650  140.7120 O   0  0  0  0  0  0  0  0  0  0  0  0
  189.1020  176.9670  140.8620 C   0  0  0  0  0  2  0  0  0  0  0  0
  190.2420  177.7130  140.1980 C   0  0  0  0  0  2  0  0  0  0  0  0
  189.5500  176.6000  142.2740 C   0  0  0  0  0  2  0  0  0  0  0  0
  188.0360  177.3770  147.3080 C   0  0  2  0  0  3  0  0  0  0  0  0
  185.6810  178.3960  146.7910 C   0  0  0  0  0  3  0  0  0  0  0  0
  184.6340  178.8460  144.4630 C   0  0  0  0  0  3  0  0  0  0  0  0
  185.5320  178.4490  143.5200 C   0  0  0  0  0  0  0  0  0  0  0  0
  187.1280  177.7550  145.0820 C   0  0  0  0  0  0  0  0  0  0  0  0
  184.6970  178.8230  145.9670 C   0  0  0  0  0  3  0  0  0  0  0  0
  186.9720  177.8310  146.3550 C   0  0  0  0  0  0  0  0  0  0  0  0
  186.8580  177.8670  143.8320 C   0  0  0  0  0  3  0  0  0  0  0  0
  185.7710  179.4500  141.2440 N   0  0  0  0  0  0  0  0  0  0  0  0
  184.1860  177.9170  141.4890 N   0  0  0  0  0  2  0  0  0  0  0  0
  184.1960  178.3550  140.2410 N   0  0  0  0  0  0  0  0  0  0  0  0
  185.1420  179.2690  140.0950 N   0  0  0  0  0  0  0  0  0  0  0  0
  185.1690  178.6040  142.1020 C   0  0  0  0  0  0  0  0  0  0  0  0
  188.5040  178.5150  148.0880 N   0  0  0  0  0  2  0  0  0  0  0  0
  188.1680  178.2490  149.4760 C   0  0  0  0  0  1  0  0  0  0  0  0
  1 16  1  1  0  0  0
  1  7  1  0  0  0  0
  3  1  1  0  0  0  0
  4  2  1  6  0  0  0
  4  7  1  0  0  0  0
  5  8  1  6  0  0  0
  5  3  1  0  0  0  0
  5  2  1  0  0  0  0
  6  4  1  0  0  0  0
  7  6  1  6  0  0  0
  8  9  1  6  0  0  0
 10  8  1  1  0  0  0
 11 10  1  0  0  0  0
 12 11  2  0  0  0  0
 13 15  1  0  0  0  0
 14 13  1  0  0  0  0
 14 11  1  0  0  0  0
 15 10  1  0  0  0  0
 16 29  1  6  0  0  0
 18 21  1  0  0  0  0
 19 23  1  0  0  0  0
 19 18  2  0  0  0  0
 20 22  2  0  0  0  0
 21 17  2  0  0  0  0
 22 17  1  0  0  0  0
 22 16  1  0  0  0  0
 23 20  2  0  0  0  0
 24 28  2  0  0  0  0
 25 28  1  0  0  0  0
 26 25  1  0  0  0  0
 27 26  2  0  0  0  0
 27 24  1  0  0  0  0
 28 19  1  0  0  0  0
 29 30  1  0  0  0  0
M  END
>  <MODEL>
3

>  <REMARK>
 VINA RESULT:      -8.9      2.457      3.380
  Name = 
  6 active torsions:
  status: ('A' for Active; 'I' for Inactive)
    1  A    between atoms: C_2  and  C_24
    2  A    between atoms: C_3  and  C_15
    3  A    between atoms: C_7  and  C_30
    4  A    between atoms: N_8  and  C_15
    5  A    between atoms: C_15  and  C_16
    6  A    between atoms: C_22  and  C_24
                            x       y       z     vdW  Elec       q    Type
                         _______ _______ _______ _____ _____    ______ ____

>  <TORSDO>
F 6

$$$$
=
 OpenBabel11032419263D

 30 34  0  0  1  0  0  0  0  0999 V2000
  183.9360  178.2730  141.1960 C   0  0  1  0  0  3  0  0  0  0  0  0
  183.3840  177.9580  138.3440 O   0  0  0  0  0  0  0  0  0  0  0  0
  182.9830  177.2540  140.5970 C   0  0  0  0  0  2  0  0  0  0  0  0
  184.1360  179.1120  138.7190 C   0  0  2  0  0  3  0  0  0  0  0  0
  183.5130  176.8730  139.2360 C   0  0  1  0  0  3  0  0  0  0  0  0
  185.3590  178.7960  139.3440 O   0  0  0  0  0  0  0  0  0  0  0  0
  184.3680  179.3530  140.1860 C   0  0  2  0  0  3  0  0  0  0  0  0
  182.8210  175.6170  138.7000 C   0  0  2  0  0  3  0  0  0  0  0  0
  183.7940  175.0160  137.2820 S   0  0  0  0  0  1  0  0  0  0  0  0
  181.3410  175.8040  138.2990 C   0  0  2  0  0  3  0  0  0  0  0  0
  180.4080  174.9200  139.0530 C   0  0  0  0  0  0  0  0  0  0  0  0
  180.1930  175.0360  140.2480 O   0  0  0  0  0  0  0  0  0  0  0  0
  179.9530  174.4140  136.7940 C   0  0  0  0  0  2  0  0  0  0  0  0
  179.6530  173.9680  138.2110 C   0  0  0  0  0  2  0  0  0  0  0  0
  181.1420  175.3680  136.8500 C   0  0  0  0  0  2  0  0  0  0  0  0
  183.3370  178.9060  142.4580 C   0  0  2  0  0  3  0  0  0  0  0  0
  183.7460  178.8800  145.0440 C   0  0  0  0  0  3  0  0  0  0  0  0
  185.9190  178.2120  146.2900 C   0  0  0  0  0  3  0  0  0  0  0  0
  186.8470  177.8710  145.3530 C   0  0  0  0  0  0  0  0  0  0  0  0
  185.4210  178.2720  143.5430 C   0  0  0  0  0  0  0  0  0  0  0  0
  184.4930  178.6770  146.1530 C   0  0  0  0  0  3  0  0  0  0  0  0
  184.2060  178.6740  143.6580 C   0  0  0  0  0  0  0  0  0  0  0  0
  186.5990  177.9000  143.8940 C   0  0  0  0  0  3  0  0  0  0  0  0
  189.2580  177.3120  145.0200 N   0  0  0  0  0  0  0  0  0  0  0  0
  188.4820  177.1490  147.0920 N   0  0  0  0  0  2  0  0  0  0  0  0
  189.7650  176.8250  147.0660 N   0  0  0  0  0  0  0  0  0  0  0  0
  190.2270  176.9220  145.8300 N   0  0  0  0  0  0  0  0  0  0  0  0
  188.1790  177.4490  145.8140 C   0  0  0  0  0  0  0  0  0  0  0  0
  182.0050  178.3720  142.7150 N   0  0  0  0  0  2  0  0  0  0  0  0
  181.0800  179.4910  142.6650 C   0  0  0  0  0  1  0  0  0  0  0  0
  1 16  1  1  0  0  0
  2  5  1  0  0  0  0
  3  1  1  0  0  0  0
  4  2  1  1  0  0  0
  4  6  1  0  0  0  0
  4  7  1  0  0  0  0
  5  8  1  6  0  0  0
  5  3  1  0  0  0  0
  7  6  1  6  0  0  0
  7  1  1  0  0  0  0
  8  9  1  6  0  0  0
 10  8  1  1  0  0  0
 10 11  1  0  0  0  0
 11 12  2  0  0  0  0
 13 15  1  0  0  0  0
 13 14  1  0  0  0  0
 14 11  1  0  0  0  0
 15 10  1  0  0  0  0
 16 29  1  1  0  0  0
 16 22  1  0  0  0  0
 17 21  2  0  0  0  0
 19 28  1  0  0  0  0
 19 18  2  0  0  0  0
 20 22  2  0  0  0  0
 20 23  2  0  0  0  0
 21 18  1  0  0  0  0
 22 17  1  0  0  0  0
 23 19  1  0  0  0  0
 24 28  2  0  0  0  0
 24 27  1  0  0  0  0
 26 25  1  0  0  0  0
 27 26  2  0  0  0  0
 28 25  1  0  0  0  0
 30 29  1  0  0  0  0
M  END
>  <MODEL>
4

>  <REMARK>
 VINA RESULT:      -8.5      4.228      7.204
  Name = 
  6 active torsions:
  status: ('A' for Active; 'I' for Inactive)
    1  A    between atoms: C_2  and  C_24
    2  A    between atoms: C_3  and  C_15
    3  A    between atoms: C_7  and  C_30
    4  A    between atoms: N_8  and  C_15
    5  A    between atoms: C_15  and  C_16
    6  A    between atoms: C_22  and  C_24
                            x       y       z     vdW  Elec       q    Type
                         _______ _______ _______ _____ _____    ______ ____

>  <TORSDO>
F 6

$$$$
=
 OpenBabel11032419263D

 30 34  0  0  1  0  0  0  0  0999 V2000
  182.5730  178.8170  140.1560 C   0  0  1  0  0  3  0  0  0  0  0  0
  181.0030  179.6430  137.8340 O   0  0  0  0  0  0  0  0  0  0  0  0
  182.4830  180.2350  139.6200 C   0  0  0  0  0  2  0  0  0  0  0  0
  181.1330  178.2360  138.0410 C   0  0  2  0  0  3  0  0  0  0  0  0
  181.1130  180.4100  139.0110 C   0  0  1  0  0  3  0  0  0  0  0  0
  180.5920  177.8060  139.2690 O   0  0  0  0  0  0  0  0  0  0  0  0
  182.0040  177.7720  139.1770 C   0  0  2  0  0  3  0  0  0  0  0  0
  180.8030  181.8880  138.7530 C   0  0  2  0  0  3  0  0  0  0  0  0
  179.0800  182.1850  139.2650 S   0  0  0  0  0  1  0  0  0  0  0  0
  181.0240  182.3600  137.2990 C   0  0  2  0  0  3  0  0  0  0  0  0
  181.3420  183.8120  137.1900 C   0  0  0  0  0  0  0  0  0  0  0  0
  182.3790  184.3030  137.6030 O   0  0  0  0  0  0  0  0  0  0  0  0
  179.4560  183.5480  135.7970 C   0  0  0  0  0  2  0  0  0  0  0  0
  180.3570  184.5970  136.4180 C   0  0  0  0  0  2  0  0  0  0  0  0
  179.7220  182.2270  136.5130 C   0  0  0  0  0  2  0  0  0  0  0  0
  184.0140  178.4730  140.5520 C   0  0  2  0  0  3  0  0  0  0  0  0
  183.1600  178.9960  142.9700 C   0  0  0  0  0  3  0  0  0  0  0  0
  184.4720  178.7510  145.1940 C   0  0  0  0  0  3  0  0  0  0  0  0
  185.7190  178.2970  144.8920 C   0  0  0  0  0  0  0  0  0  0  0  0
  185.3240  178.2220  142.5880 C   0  0  0  0  0  0  0  0  0  0  0  0
  183.2930  179.0740  144.3150 C   0  0  0  0  0  3  0  0  0  0  0  0
  184.2110  178.5500  142.0360 C   0  0  0  0  0  0  0  0  0  0  0  0
  186.1870  178.0130  143.5150 C   0  0  0  0  0  3  0  0  0  0  0  0
  187.8780  177.5030  145.8640 N   0  0  0  0  0  0  0  0  0  0  0  0
  186.4320  178.4130  147.2790 N   0  0  0  0  0  2  0  0  0  0  0  0
  187.5220  178.0420  147.9300 N   0  0  0  0  0  0  0  0  0  0  0  0
  188.3840  177.4990  147.0860 N   0  0  0  0  0  0  0  0  0  0  0  0
  186.6660  178.0730  145.9970 C   0  0  0  0  0  0  0  0  0  0  0  0
  184.9540  179.3710  139.8930 N   0  0  0  0  0  2  0  0  0  0  0  0
  185.5670  178.6250  138.8070 C   0  0  0  0  0  1  0  0  0  0  0  0
  1 16  1  6  0  0  0
  2  5  1  0  0  0  0
  3  1  1  0  0  0  0
  4  2  1  1  0  0  0
  4  7  1  0  0  0  0
  4  6  1  0  0  0  0
  5  8  1  6  0  0  0
  5  3  1  0  0  0  0
  7  6  1  1  0  0  0
  7  1  1  0  0  0  0
  8  9  1  6  0  0  0
 10  8  1  1  0  0  0
 11 10  1  0  0  0  0
 11 12  2  0  0  0  0
 13 14  1  0  0  0  0
 13 15  1  0  0  0  0
 14 11  1  0  0  0  0
 15 10  1  0  0  0  0
 16 29  1  6  0  0  0
 16 22  1  0  0  0  0
 17 21  2  0  0  0  0
 19 18  2  0  0  0  0
 19 28  1  0  0  0  0
 20 23  2  0  0  0  0
 21 18  1  0  0  0  0
 22 20  2  0  0  0  0
 22 17  1  0  0  0  0
 23 19  1  0  0  0  0
 24 28  2  0  0  0  0
 24 27  1  0  0  0  0
 25 26  1  0  0  0  0
 27 26  2  0  0  0  0
 28 25  1  0  0  0  0
 30 29  1  0  0  0  0
M  END
>  <MODEL>
5

>  <REMARK>
 VINA RESULT:      -8.5      5.115      8.029
  Name = 
  6 active torsions:
  status: ('A' for Active; 'I' for Inactive)
    1  A    between atoms: C_2  and  C_24
    2  A    between atoms: C_3  and  C_15
    3  A    between atoms: C_7  and  C_30
    4  A    between atoms: N_8  and  C_15
    5  A    between atoms: C_15  and  C_16
    6  A    between atoms: C_22  and  C_24
                            x       y       z     vdW  Elec       q    Type
                         _______ _______ _______ _____ _____    ______ ____

>  <TORSDO>
F 6

$$$$
=
 OpenBabel11032419263D

 30 34  0  0  1  0  0  0  0  0999 V2000
  183.9600  178.2730  141.2610 C   0  0  1  0  0  3  0  0  0  0  0  0
  183.6360  178.3740  138.3590 O   0  0  0  0  0  0  0  0  0  0  0  0
  182.9110  177.5100  140.4700 C   0  0  0  0  0  2  0  0  0  0  0  0
  184.5300  179.3310  138.9280 C   0  0  2  0  0  3  0  0  0  0  0  0
  183.4980  177.1930  139.1160 C   0  0  1  0  0  3  0  0  0  0  0  0
  185.6190  178.7380  139.5980 O   0  0  0  0  0  0  0  0  0  0  0  0
  184.6580  179.3650  140.4280 C   0  0  2  0  0  3  0  0  0  0  0  0
  182.6610  176.1440  138.3780 C   0  0  2  0  0  3  0  0  0  0  0  0
  181.2750  175.6820  139.4670 S   0  0  0  0  0  1  0  0  0  0  0  0
  183.4350  174.8860  137.9270 C   0  0  2  0  0  3  0  0  0  0  0  0
  184.4450  175.1620  136.8660 C   0  0  0  0  0  0  0  0  0  0  0  0
  185.4510  175.8240  137.0550 O   0  0  0  0  0  0  0  0  0  0  0  0
  183.0840  173.4850  135.9170 C   0  0  0  0  0  2  0  0  0  0  0  0
  184.2010  174.4560  135.5920 C   0  0  0  0  0  2  0  0  0  0  0  0
  182.4770  173.9080  137.2520 C   0  0  0  0  0  2  0  0  0  0  0  0
  183.3570  178.8600  142.5440 C   0  0  2  0  0  3  0  0  0  0  0  0
  183.8110  178.8290  145.1210 C   0  0  0  0  0  3  0  0  0  0  0  0
  186.0110  178.1750  146.3270 C   0  0  0  0  0  3  0  0  0  0  0  0
  186.9250  177.8460  145.3730 C   0  0  0  0  0  0  0  0  0  0  0  0
  185.4650  178.2410  143.5890 C   0  0  0  0  0  0  0  0  0  0  0  0
  184.5790  178.6280  146.2170 C   0  0  0  0  0  3  0  0  0  0  0  0
  184.2490  178.6310  143.7270 C   0  0  0  0  0  0  0  0  0  0  0  0
  186.6520  177.8770  143.9180 C   0  0  0  0  0  3  0  0  0  0  0  0
  189.3050  177.1980  144.9820 N   0  0  0  0  0  0  0  0  0  0  0  0
  188.6260  177.2400  147.0940 N   0  0  0  0  0  0  0  0  0  0  0  0
  189.8980  176.8830  147.0400 N   0  0  0  0  0  0  0  0  0  0  0  0
  190.3030  176.8580  145.7800 N   0  0  0  0  0  2  0  0  0  0  0  0
  188.2690  177.4330  145.8100 C   0  0  0  0  0  0  0  0  0  0  0  0
  182.0470  178.2790  142.8050 N   0  0  0  0  0  2  0  0  0  0  0  0
  181.0950  179.3760  142.8570 C   0  0  0  0  0  1  0  0  0  0  0  0
  1 16  1  1  0  0  0
  2  5  1  0  0  0  0
  3  1  1  0  0  0  0
  4  2  1  1  0  0  0
  4  6  1  0  0  0  0
  4  7  1  0  0  0  0
  5  8  1  6  0  0  0
  5  3  1  0  0  0  0
  7  6  1  6  0  0  0
  7  1  1  0  0  0  0
  8  9  1  1  0  0  0
 10  8  1  6  0  0  0
 11 12  2  0  0  0  0
 11 10  1  0  0  0  0
 13 15  1  0  0  0  0
 14 13  1  0  0  0  0
 14 11  1  0  0  0  0
 15 10  1  0  0  0  0
 16 29  1  1  0  0  0
 16 22  1  0  0  0  0
 17 21  2  0  0  0  0
 19 28  1  0  0  0  0
 19 18  2  0  0  0  0
 20 22  2  0  0  0  0
 20 23  2  0  0  0  0
 21 18  1  0  0  0  0
 22 17  1  0  0  0  0
 23 19  1  0  0  0  0
 24 27  1  0  0  0  0
 24 28  2  0  0  0  0
 26 25  2  0  0  0  0
 27 26  1  0  0  0  0
 28 25  1  0  0  0  0
 29 30  1  0  0  0  0
M  END
>  <MODEL>
6

>  <REMARK>
 VINA RESULT:      -8.3      3.683      6.516
  Name = 
  6 active torsions:
  status: ('A' for Active; 'I' for Inactive)
    1  A    between atoms: C_2  and  C_24
    2  A    between atoms: C_3  and  C_15
    3  A    between atoms: C_7  and  C_30
    4  A    between atoms: N_8  and  C_15
    5  A    between atoms: C_15  and  C_16
    6  A    between atoms: C_22  and  C_24
                            x       y       z     vdW  Elec       q    Type
                         _______ _______ _______ _____ _____    ______ ____

>  <TORSDO>
F 6

$$$$
=
 OpenBabel11032419263D

 30 34  0  0  1  0  0  0  0  0999 V2000
  189.1810  177.7020  140.7470 C   0  0  1  0  0  3  0  0  0  0  0  0
  188.6270  176.1390  143.1520 O   0  0  0  0  0  0  0  0  0  0  0  0
  187.8220  177.5740  141.4140 C   0  0  0  0  0  2  0  0  0  0  0  0
  189.9130  175.9530  142.5600 C   0  0  2  0  0  3  0  0  0  0  0  0
  188.0520  177.4000  142.8950 C   0  0  1  0  0  3  0  0  0  0  0  0
  190.6810  177.1340  142.5250 O   0  0  0  0  0  0  0  0  0  0  0  0
  190.2040  176.6770  141.2730 C   0  0  2  0  0  3  0  0  0  0  0  0
  186.7570  177.6010  143.6870 C   0  0  2  0  0  3  0  0  0  0  0  0
  185.4990  178.2360  142.5320 S   0  0  0  0  0  1  0  0  0  0  0  0
  186.8770  178.5270  144.9170 C   0  0  2  0  0  3  0  0  0  0  0  0
  187.5900  177.8970  146.0650 C   0  0  0  0  0  0  0  0  0  0  0  0
  188.7770  177.6180  146.0450 O   0  0  0  0  0  0  0  0  0  0  0  0
  185.5170  178.5470  146.9850 C   0  0  0  0  0  2  0  0  0  0  0  0
  186.7730  177.7560  147.2880 C   0  0  0  0  0  2  0  0  0  0  0  0
  185.4890  178.8140  145.4830 C   0  0  0  0  0  2  0  0  0  0  0  0
  189.0510  177.6180  139.2210 C   0  0  2  0  0  3  0  0  0  0  0  0
  189.7250  175.4620  137.9000 C   0  0  0  0  0  3  0  0  0  0  0  0
  192.1180  174.6520  137.3180 C   0  0  0  0  0  3  0  0  0  0  0  0
  192.9980  175.5550  137.8320 C   0  0  0  0  0  0  0  0  0  0  0  0
  191.3330  176.9300  138.7290 C   0  0  0  0  0  0  0  0  0  0  0  0
  190.6140  174.6040  137.3470 C   0  0  0  0  0  3  0  0  0  0  0  0
  190.0740  176.6940  138.6310 C   0  0  0  0  0  0  0  0  0  0  0  0
  192.5980  176.7660  138.5840 C   0  0  0  0  0  3  0  0  0  0  0  0
  195.1010  175.5520  136.4850 N   0  0  0  0  0  0  0  0  0  0  0  0
  195.2660  174.8320  138.5770 N   0  0  0  0  0  2  0  0  0  0  0  0
  196.4500  174.7750  137.9880 N   0  0  0  0  0  0  0  0  0  0  0  0
  196.3510  175.2050  136.7410 N   0  0  0  0  0  0  0  0  0  0  0  0
  194.4370  175.3170  137.6320 C   0  0  0  0  0  0  0  0  0  0  0  0
  189.1910  178.9400  138.6220 N   0  0  0  0  0  2  0  0  0  0  0  0
  188.6360  178.8630  137.2820 C   0  0  0  0  0  1  0  0  0  0  0  0
  1 16  1  6  0  0  0
  1  7  1  0  0  0  0
  1  3  1  0  0  0  0
  3  5  1  0  0  0  0
  4  6  1  1  0  0  0
  4  2  1  0  0  0  0
  5  2  1  0  0  0  0
  5  8  1  1  0  0  0
  7  6  1  1  0  0  0
  7  4  1  0  0  0  0
  8  9  1  6  0  0  0
 10  8  1  6  0  0  0
 10 15  1  0  0  0  0
 10 11  1  0  0  0  0
 11 14  1  0  0  0  0
 12 11  2  0  0  0  0
 13 14  1  0  0  0  0
 15 13  1  0  0  0  0
 16 29  1  6  0  0  0
 17 22  1  0  0  0  0
 18 21  1  0  0  0  0
 18 19  2  0  0  0  0
 19 23  1  0  0  0  0
 21 17  2  0  0  0  0
 22 20  2  0  0  0  0
 22 16  1  0  0  0  0
 23 20  2  0  0  0  0
 24 27  1  0  0  0  0
 24 28  2  0  0  0  0
 26 25  1  0  0  0  0
 27 26  2  0  0  0  0
 28 19  1  0  0  0  0
 28 25  1  0  0  0  0
 30 29  1  0  0  0  0
M  END
>  <MODEL>
7

>  <REMARK>
 VINA RESULT:      -8.2      4.720      9.227
  Name = 
  6 active torsions:
  status: ('A' for Active; 'I' for Inactive)
    1  A    between atoms: C_2  and  C_24
    2  A    between atoms: C_3  and  C_15
    3  A    between atoms: C_7  and  C_30
    4  A    between atoms: N_8  and  C_15
    5  A    between atoms: C_15  and  C_16
    6  A    between atoms: C_22  and  C_24
                            x       y       z     vdW  Elec       q    Type
                         _______ _______ _______ _____ _____    ______ ____

>  <TORSDO>
F 6

$$$$
=
 OpenBabel11032419263D

 30 34  0  0  1  0  0  0  0  0999 V2000
  189.4750  176.3960  138.7830 C   0  0  1  0  0  3  0  0  0  0  0  0
  189.5370  175.0950  136.1670 O   0  0  0  0  0  0  0  0  0  0  0  0
  188.2660  176.1620  137.8930 C   0  0  0  0  0  2  0  0  0  0  0  0
  190.8030  175.4180  136.7420 C   0  0  2  0  0  3  0  0  0  0  0  0
  188.5100  174.8930  137.1120 C   0  0  1  0  0  3  0  0  0  0  0  0
  191.0330  174.7690  137.9720 O   0  0  0  0  0  0  0  0  0  0  0  0
  190.8100  176.1650  138.0490 C   0  0  2  0  0  3  0  0  0  0  0  0
  187.2240  174.3920  136.4490 C   0  0  2  0  0  3  0  0  0  0  0  0
  185.9920  175.7290  136.5580 S   0  0  0  0  0  1  0  0  0  0  0  0
  186.6530  173.0820  137.0350 C   0  0  2  0  0  3  0  0  0  0  0  0
  186.4140  172.0280  136.0070 C   0  0  0  0  0  0  0  0  0  0  0  0
  187.3120  171.4710  135.3990 O   0  0  0  0  0  0  0  0  0  0  0  0
  184.3120  172.2780  137.0480 C   0  0  0  0  0  2  0  0  0  0  0  0
  185.0030  171.6110  135.8750 C   0  0  0  0  0  2  0  0  0  0  0  0
  185.2590  173.3370  137.6030 C   0  0  0  0  0  2  0  0  0  0  0  0
  189.4270  177.7950  139.4120 C   0  0  2  0  0  3  0  0  0  0  0  0
  187.8150  177.9250  141.4690 C   0  0  0  0  0  3  0  0  0  0  0  0
  188.4190  177.6020  143.9700 C   0  0  0  0  0  3  0  0  0  0  0  0
  189.7550  177.3510  144.0450 C   0  0  0  0  0  0  0  0  0  0  0  0
  190.0880  177.4870  141.7330 C   0  0  0  0  0  0  0  0  0  0  0  0
  187.5230  177.8660  142.7890 C   0  0  0  0  0  3  0  0  0  0  0  0
  189.1540  177.7270  140.8840 C   0  0  0  0  0  0  0  0  0  0  0  0
  190.6540  177.2890  142.8690 C   0  0  0  0  0  3  0  0  0  0  0  0
  189.6620  177.1350  146.5310 N   0  0  0  0  0  0  0  0  0  0  0  0
  191.6570  176.8910  145.5910 N   0  0  0  0  0  2  0  0  0  0  0  0
  191.7590  176.7520  146.9030 N   0  0  0  0  0  0  0  0  0  0  0  0
  190.5690  176.8970  147.4630 N   0  0  0  0  0  0  0  0  0  0  0  0
  190.3490  177.1290  145.3730 C   0  0  0  0  0  0  0  0  0  0  0  0
  188.4070  178.6110  138.7670 N   0  0  0  0  0  2  0  0  0  0  0  0
  189.0560  179.3300  137.6840 C   0  0  0  0  0  1  0  0  0  0  0  0
  1 16  1  6  0  0  0
  2  5  1  0  0  0  0
  3  1  1  0  0  0  0
  4  2  1  1  0  0  0
  4  6  1  0  0  0  0
  4  7  1  0  0  0  0
  5  8  1  6  0  0  0
  5  3  1  0  0  0  0
  7  6  1  1  0  0  0
  7  1  1  0  0  0  0
  8  9  1  1  0  0  0
 10  8  1  6  0  0  0
 10 15  1  0  0  0  0
 11 10  1  0  0  0  0
 12 11  2  0  0  0  0
 13 15  1  0  0  0  0
 14 11  1  0  0  0  0
 14 13  1  0  0  0  0
 16 29  1  6  0  0  0
 16 22  1  0  0  0  0
 17 21  2  0  0  0  0
 18 19  2  0  0  0  0
 19 28  1  0  0  0  0
 20 23  2  0  0  0  0
 21 18  1  0  0  0  0
 22 17  1  0  0  0  0
 22 20  2  0  0  0  0
 23 19  1  0  0  0  0
 24 27  1  0  0  0  0
 25 26  1  0  0  0  0
 26 27  2  0  0  0  0
 28 25  1  0  0  0  0
 28 24  2  0  0  0  0
 30 29  1  0  0  0  0
M  END
>  <MODEL>
8

>  <REMARK>
 VINA RESULT:      -8.1      3.850      6.899
  Name = 
  6 active torsions:
  status: ('A' for Active; 'I' for Inactive)
    1  A    between atoms: C_2  and  C_24
    2  A    between atoms: C_3  and  C_15
    3  A    between atoms: C_7  and  C_30
    4  A    between atoms: N_8  and  C_15
    5  A    between atoms: C_15  and  C_16
    6  A    between atoms: C_22  and  C_24
                            x       y       z     vdW  Elec       q    Type
                         _______ _______ _______ _____ _____    ______ ____

>  <TORSDO>
F 6

$$$$
=
 OpenBabel11032419263D

 30 34  0  0  1  0  0  0  0  0999 V2000
  185.9570  178.9130  140.4470 C   0  0  1  0  0  3  0  0  0  0  0  0
  188.0560  177.3270  139.1750 O   0  0  0  0  0  0  0  0  0  0  0  0
  187.1480  178.3010  141.1640 C   0  0  0  0  0  2  0  0  0  0  0  0
  186.9130  177.6220  138.3720 C   0  0  2  0  0  3  0  0  0  0  0  0
  188.3030  178.2700  140.1930 C   0  0  1  0  0  3  0  0  0  0  0  0
  186.7160  179.0040  138.1780 O   0  0  0  0  0  0  0  0  0  0  0  0
  185.7740  178.3640  139.0190 C   0  0  2  0  0  3  0  0  0  0  0  0
  189.6270  177.9910  140.9110 C   0  0  2  0  0  3  0  0  0  0  0  0
  190.5380  176.7600  139.9250 S   0  0  0  0  0  1  0  0  0  0  0  0
  189.4920  177.5180  142.3750 C   0  0  2  0  0  3  0  0  0  0  0  0
  190.5060  178.1190  143.2870 C   0  0  0  0  0  0  0  0  0  0  0  0
  190.5270  179.3030  143.5770 O   0  0  0  0  0  0  0  0  0  0  0  0
  190.8020  175.7960  143.5780 C   0  0  0  0  0  2  0  0  0  0  0  0
  191.4100  177.1410  143.9260 C   0  0  0  0  0  2  0  0  0  0  0  0
  189.7870  176.0230  142.4610 C   0  0  0  0  0  2  0  0  0  0  0  0
  184.6750  178.7410  141.2720 C   0  0  2  0  0  3  0  0  0  0  0  0
  184.0670  179.3600  143.7410 C   0  0  0  0  0  3  0  0  0  0  0  0
  185.4250  178.8190  145.8820 C   0  0  0  0  0  3  0  0  0  0  0  0
  186.5460  178.1440  145.5040 C   0  0  0  0  0  0  0  0  0  0  0  0
  186.0210  178.2000  143.2250 C   0  0  0  0  0  0  0  0  0  0  0  0
  184.2840  179.3800  145.0760 C   0  0  0  0  0  3  0  0  0  0  0  0
  184.9620  178.7450  142.7430 C   0  0  0  0  0  0  0  0  0  0  0  0
  186.8760  177.8100  144.1000 C   0  0  0  0  0  3  0  0  0  0  0  0
  187.2870  177.8690  147.8730 N   0  0  0  0  0  0  0  0  0  0  0  0
  188.6760  177.1280  146.3100 N   0  0  0  0  0  2  0  0  0  0  0  0
  189.1960  176.9170  147.5080 N   0  0  0  0  0  0  0  0  0  0  0  0
  188.3670  177.3590  148.4400 N   0  0  0  0  0  0  0  0  0  0  0  0
  187.4900  177.7200  146.5500 C   0  0  0  0  0  0  0  0  0  0  0  0
  183.9980  177.5020  140.9130 N   0  0  0  0  0  2  0  0  0  0  0  0
  182.6250  177.8430  140.5870 C   0  0  0  0  0  1  0  0  0  0  0  0
  1  3  1  0  0  0  0
  1 16  1  1  0  0  0
  2  5  1  0  0  0  0
  4  6  1  6  0  0  0
  4  7  1  0  0  0  0
  4  2  1  0  0  0  0
  5  8  1  1  0  0  0
  5  3  1  0  0  0  0
  7  6  1  6  0  0  0
  7  1  1  0  0  0  0
  8  9  1  6  0  0  0
 10  8  1  6  0  0  0
 10 15  1  0  0  0  0
 10 11  1  0  0  0  0
 11 12  2  0  0  0  0
 11 14  1  0  0  0  0
 13 14  1  0  0  0  0
 15 13  1  0  0  0  0
 16 29  1  6  0  0  0
 16 22  1  0  0  0  0
 17 21  2  0  0  0  0
 19 18  2  0  0  0  0
 19 28  1  0  0  0  0
 20 23  2  0  0  0  0
 21 18  1  0  0  0  0
 22 20  2  0  0  0  0
 22 17  1  0  0  0  0
 23 19  1  0  0  0  0
 24 27  1  0  0  0  0
 25 28  1  0  0  0  0
 25 26  1  0  0  0  0
 26 27  2  0  0  0  0
 28 24  2  0  0  0  0
 30 29  1  0  0  0  0
M  END
>  <MODEL>
9

>  <REMARK>
 VINA RESULT:      -8.1      2.143      5.634
  Name = 
  6 active torsions:
  status: ('A' for Active; 'I' for Inactive)
    1  A    between atoms: C_2  and  C_24
    2  A    between atoms: C_3  and  C_15
    3  A    between atoms: C_7  and  C_30
    4  A    between atoms: N_8  and  C_15
    5  A    between atoms: C_15  and  C_16
    6  A    between atoms: C_22  and  C_24
                            x       y       z     vdW  Elec       q    Type
                         _______ _______ _______ _____ _____    ______ ____

>  <TORSDO>
F 6

$$$$
