=
 OpenBabel11042411273D

 55 59  0  0  1  0  0  0  0  0999 V2000
  183.4730  178.2740  138.1550 C   0  0  0  0  0  3  0  0  0  0  0  0
  184.8480  178.0160  138.1670 C   0  0  0  0  0  3  0  0  0  0  0  0
  185.4420  177.3160  137.1090 C   0  0  0  0  0  0  0  0  0  0  0  0
  183.2550  177.1480  136.0400 C   0  0  0  0  0  3  0  0  0  0  0  0
  184.6320  176.8820  136.0510 C   0  0  0  0  0  3  0  0  0  0  0  0
  182.6680  177.8640  137.0810 C   0  0  0  0  0  0  0  0  0  0  0  0
  187.5450  177.4290  138.4060 C   0  0  0  0  0  3  0  0  0  0  0  0
  189.8870  176.8770  136.4760 C   0  0  0  0  0  0  0  0  0  0  0  0
  190.2000  176.7580  140.7680 C   0  0  0  0  0  2  0  0  0  0  0  0
  189.2530  177.6130  140.0690 N   0  0  0  0  0  0  0  0  0  0  0  0
  186.9230  177.0420  137.1050 C   0  0  2  0  0  3  0  0  0  0  0  0
  188.5720  178.6560  140.8270 C   0  0  0  0  0  1  0  0  0  0  0  0
  191.1730  176.1670  139.8500 N   0  0  0  0  0  0  0  0  0  0  0  0
  191.0380  176.0370  138.5510 C   0  0  0  0  0  0  0  0  0  0  0  0
  187.5740  177.7730  135.9890 C   0  0  0  0  0  3  0  0  0  0  0  0
  190.9470  176.4140  135.6990 O   0  0  0  0  0  1  0  0  0  0  0  0
  189.8670  176.6660  137.8380 C   0  0  0  0  0  0  0  0  0  0  0  0
  192.1270  175.4310  137.8550 N   0  0  0  0  0  2  0  0  0  0  0  0
  188.8820  177.6670  135.7200 C   0  0  0  0  0  3  0  0  0  0  0  0
  188.8360  177.2620  138.7360 C   0  0  0  0  0  0  0  0  0  0  0  0
  195.5320  173.0840  136.7050 C   0  0  0  0  0  0  0  0  0  0  0  0
  194.0500  170.3740  134.6970 C   0  0  0  0  0  1  0  0  0  0  0  0
  196.8780  174.3760  138.4030 C   0  0  0  0  0  1  0  0  0  0  0  0
  192.8900  172.4580  135.6370 C   0  0  0  0  0  0  0  0  0  0  0  0
  192.9980  173.7180  136.3750 C   0  0  0  0  0  0  0  0  0  0  0  0
  194.5940  174.5770  136.2950 S   0  0  0  0  0  0  0  0  0  0  0  0
  195.2240  171.9510  136.1400 N   0  0  0  0  0  0  0  0  0  0  0  0
  191.9980  174.1910  137.1330 C   0  0  0  0  0  3  0  0  0  0  0  0
  194.1790  171.8380  135.1340 C   0  0  1  0  0  3  0  0  0  0  0  0
  191.6900  172.0020  135.2250 C   0  0  0  0  0  2  0  0  0  0  0  0
  197.6190  172.1130  137.6670 C   0  0  0  0  0  1  0  0  0  0  0  0
  196.5810  173.1360  137.6990 N   0  0  0  0  0  0  0  0  0  0  0  0
  180.6360  179.3940  136.6480 C   0  0  0  0  0  0  0  0  0  0  0  0
  180.6540  177.7260  138.3630 O   0  0  0  0  0  0  0  0  0  0  0  0
  179.5140  178.5130  138.5740 C   0  0  2  0  0  3  0  0  0  0  0  0
  180.3460  179.3400  135.2920 F   0  0  0  0  0  0  0  0  0  0  0  0
  179.3450  179.5030  137.4250 C   0  0  1  0  0  3  0  0  0  0  0  0
  179.0710  180.8130  137.8440 O   0  0  0  0  0  1  0  0  0  0  0  0
  181.1880  178.0550  137.1130 C   0  0  2  0  0  3  0  0  0  0  0  0
  181.5090  180.4510  136.9290 F   0  0  0  0  0  0  0  0  0  0  0  0
  179.4830  179.0690  140.0160 C   0  0  2  0  0  3  0  0  0  0  0  0
  179.5560  180.6040  140.1670 C   0  0  0  0  0  2  0  0  0  0  0  0
  179.0490  181.0270  141.4060 O   0  0  0  0  0  1  0  0  0  0  0  0
  180.3500  178.2510  140.9990 C   0  0  2  0  0  3  0  0  0  0  0  0
  179.1650  176.1690  141.7240 O   0  0  0  0  0  0  0  0  0  0  0  0
  178.9320  178.1030  142.9290 O   0  0  0  0  0  1  0  0  0  0  0  0
  179.4480  177.5110  141.9440 C   0  0  0  0  0  0  0  0  0  0  0  0
  181.0510  179.3480  143.2050 C   0  0  0  0  0  1  0  0  0  0  0  0
  181.4160  179.0920  141.7520 C   0  0  1  0  0  3  0  0  0  0  0  0
  182.7900  178.4400  141.7080 C   0  0  0  0  0  2  0  0  0  0  0  0
  183.6930  179.0240  142.8030 C   0  0  0  0  0  2  0  0  0  0  0  0
  185.2960  178.0200  141.3380 F   0  0  0  0  0  0  0  0  0  0  0  0
  185.1640  178.6620  142.5590 C   0  0  0  0  0  0  0  0  0  0  0  0
  185.5990  177.8090  143.5600 F   0  0  0  0  0  0  0  0  0  0  0  0
  185.9400  179.8140  142.5560 F   0  0  0  0  0  0  0  0  0  0  0  0
  1  2  1  0  0  0  0
  3  2  2  0  0  0  0
  4  5  2  0  0  0  0
  4  6  1  0  0  0  0
  5  3  1  0  0  0  0
  6  1  2  0  0  0  0
  7 20  2  0  0  0  0
  8 17  2  0  0  0  0
 10  9  1  0  0  0  0
 10 12  1  0  0  0  0
 11  3  1  1  0  0  0
 11  7  1  0  0  0  0
 13  9  1  0  0  0  0
 14 13  2  0  0  0  0
 15 11  1  0  0  0  0
 16  8  1  0  0  0  0
 17 14  1  0  0  0  0
 17 20  1  0  0  0  0
 18 14  1  0  0  0  0
 19 15  2  0  0  0  0
 19  8  1  0  0  0  0
 20 10  1  0  0  0  0
 21 32  1  0  0  0  0
 24 25  1  0  0  0  0
 25 28  2  0  0  0  0
 26 25  1  0  0  0  0
 26 21  1  0  0  0  0
 27 21  2  0  0  0  0
 28 18  1  0  0  0  0
 29 22  1  1  0  0  0
 29 24  1  0  0  0  0
 29 27  1  0  0  0  0
 30 24  2  0  0  0  0
 31 32  1  0  0  0  0
 32 23  1  0  0  0  0
 33 40  1  0  0  0  0
 33 39  1  0  0  0  0
 33 37  1  0  0  0  0
 34 35  1  0  0  0  0
 35 41  1  1  0  0  0
 36 33  1  0  0  0  0
 37 38  1  1  0  0  0
 37 35  1  0  0  0  0
 39  6  1  1  0  0  0
 39 34  1  0  0  0  0
 41 42  1  6  0  0  0
 41 44  1  0  0  0  0
 42 43  1  0  0  0  0
 44 49  1  0  0  0  0
 44 47  1  1  0  0  0
 45 47  2  0  0  0  0
 47 46  1  0  0  0  0
 49 48  1  1  0  0  0
 50 49  1  0  0  0  0
 50 51  1  0  0  0  0
 52 53  1  0  0  0  0
 53 51  1  0  0  0  0
 53 54  1  0  0  0  0
 55 53  1  0  0  0  0
M  END
>  <MODEL>
1

>  <REMARK>
 VINA RESULT:      -7.3      0.000      0.000
  Name = 
  11 active torsions:
  status: ('A' for Active; 'I' for Inactive)
    1  A    between atoms: C_8  and  C_35
    2  A    between atoms: C_13  and  C_34
    3  A    between atoms: C_16  and  C_34
    4  A    between atoms: C_23  and  C_34
    5  A    between atoms: C_23  and  C_50
    6  A    between atoms: C_23  and  C_53
    7  A    between atoms: C_28  and  N_44
    8  A    between atoms: C_37  and  C_39
    9  A    between atoms: C_37  and  C_47
   10  A    between atoms: C_41  and  C_46
   11  A    between atoms: C_47  and  C_53
                            x       y       z     vdW  Elec       q    Type
                         _______ _______ _______ _____ _____    ______ ____

>  <TORSDO>
F 11

$$$$
=
 OpenBabel11042411273D

 55 59  0  0  1  0  0  0  0  0999 V2000
  188.0540  178.5420  142.4470 C   0  0  0  0  0  3  0  0  0  0  0  0
  186.9610  178.5460  141.5740 C   0  0  0  0  0  3  0  0  0  0  0  0
  187.0990  178.0490  140.2720 C   0  0  0  0  0  0  0  0  0  0  0  0
  189.4390  177.5480  140.7500 C   0  0  0  0  0  3  0  0  0  0  0  0
  188.3470  177.5560  139.8690 C   0  0  0  0  0  3  0  0  0  0  0  0
  189.2960  178.0210  142.0520 C   0  0  0  0  0  0  0  0  0  0  0  0
  186.3790  177.9240  137.9090 C   0  0  0  0  0  3  0  0  0  0  0  0
  183.3760  178.6210  137.7880 C   0  0  0  0  0  0  0  0  0  0  0  0
  185.5590  176.7320  134.5940 C   0  0  0  0  0  2  0  0  0  0  0  0
  186.1790  177.6440  135.5430 N   0  0  0  0  0  0  0  0  0  0  0  0
  185.9260  178.0380  139.3270 C   0  0  2  0  0  3  0  0  0  0  0  0
  187.5170  178.1440  135.2490 C   0  0  0  0  0  1  0  0  0  0  0  0
  184.1000  176.7490  134.7040 N   0  0  0  0  0  0  0  0  0  0  0  0
  183.4030  177.1670  135.7340 C   0  0  0  0  0  0  0  0  0  0  0  0
  185.1130  179.2660  139.5080 C   0  0  0  0  0  3  0  0  0  0  0  0
  181.9880  178.7050  137.7120 O   0  0  0  0  0  1  0  0  0  0  0  0
  184.0850  177.8480  136.8930 C   0  0  0  0  0  0  0  0  0  0  0  0
  181.9820  177.0940  135.6130 N   0  0  0  0  0  2  0  0  0  0  0  0
  183.9800  179.4910  138.8310 C   0  0  0  0  0  3  0  0  0  0  0  0
  185.5760  177.8360  136.8360 C   0  0  0  0  0  0  0  0  0  0  0  0
  182.3270  172.8170  135.7170 C   0  0  0  0  0  0  0  0  0  0  0  0
  179.6060  171.8050  137.9850 C   0  0  0  0  0  1  0  0  0  0  0  0
  184.5720  173.0640  134.5950 C   0  0  0  0  0  1  0  0  0  0  0  0
  180.0960  174.1420  137.0520 C   0  0  0  0  0  0  0  0  0  0  0  0
  180.9180  174.9910  136.1880 C   0  0  0  0  0  0  0  0  0  0  0  0
  181.6740  174.1960  134.7430 S   0  0  0  0  0  0  0  0  0  0  0  0
  181.5750  172.2500  136.6180 N   0  0  0  0  0  0  0  0  0  0  0  0
  181.1670  176.2770  136.4750 C   0  0  0  0  0  3  0  0  0  0  0  0
  180.1930  172.6430  136.8430 C   0  0  1  0  0  3  0  0  0  0  0  0
  179.1300  174.6770  137.8260 C   0  0  0  0  0  2  0  0  0  0  0  0
  184.0490  171.0240  135.9290 C   0  0  0  0  0  1  0  0  0  0  0  0
  183.6940  172.3830  135.5360 N   0  0  0  0  0  0  0  0  0  0  0  0
  191.3830  176.8800  143.0510 C   0  0  0  0  0  0  0  0  0  0  0  0
  190.1360  178.5470  144.2280 O   0  0  0  0  0  0  0  0  0  0  0  0
  191.0310  177.9840  145.1480 C   0  0  2  0  0  3  0  0  0  0  0  0
  192.4010  176.9620  142.1110 F   0  0  0  0  0  0  0  0  0  0  0  0
  191.9750  177.0210  144.4330 C   0  0  1  0  0  3  0  0  0  0  0  0
  192.1290  175.7910  145.0880 O   0  0  0  0  0  1  0  0  0  0  0  0
  190.4860  178.1050  142.9490 C   0  0  2  0  0  3  0  0  0  0  0  0
  190.6670  175.6870  142.9060 F   0  0  0  0  0  0  0  0  0  0  0  0
  190.2880  177.4690  146.4020 C   0  0  2  0  0  3  0  0  0  0  0  0
  190.3360  175.9470  146.6580 C   0  0  0  0  0  2  0  0  0  0  0  0
  191.1530  175.6320  147.7540 O   0  0  0  0  0  1  0  0  0  0  0  0
  188.9160  178.1470  146.6140 C   0  0  2  0  0  3  0  0  0  0  0  0
  189.8000  178.2350  148.9540 O   0  0  0  0  0  1  0  0  0  0  0  0
  187.6830  178.9800  148.4970 O   0  0  0  0  0  0  0  0  0  0  0  0
  188.7590  178.4850  148.0690 C   0  0  0  0  0  0  0  0  0  0  0  0
  186.8290  176.7740  147.1820 C   0  0  0  0  0  1  0  0  0  0  0  0
  187.7150  177.3240  146.0750 C   0  0  1  0  0  3  0  0  0  0  0  0
  186.8490  178.1370  145.1250 C   0  0  0  0  0  2  0  0  0  0  0  0
  185.5210  178.5080  145.7980 C   0  0  0  0  0  2  0  0  0  0  0  0
  184.4110  177.9810  143.7450 F   0  0  0  0  0  0  0  0  0  0  0  0
  184.4700  178.9240  144.7590 C   0  0  0  0  0  0  0  0  0  0  0  0
  184.8230  180.1450  144.2110 F   0  0  0  0  0  0  0  0  0  0  0  0
  183.2220  179.0250  145.3630 F   0  0  0  0  0  0  0  0  0  0  0  0
  2  1  2  0  0  0  0
  3  2  1  0  0  0  0
  4  6  2  0  0  0  0
  5  3  2  0  0  0  0
  5  4  1  0  0  0  0
  6  1  1  0  0  0  0
  7 11  1  0  0  0  0
  8 19  1  0  0  0  0
  9 13  1  0  0  0  0
  9 10  1  0  0  0  0
 10 20  1  0  0  0  0
 11 15  1  0  0  0  0
 11  3  1  1  0  0  0
 12 10  1  0  0  0  0
 13 14  2  0  0  0  0
 14 17  1  0  0  0  0
 16  8  1  0  0  0  0
 17  8  2  0  0  0  0
 18 14  1  0  0  0  0
 18 28  1  0  0  0  0
 19 15  2  0  0  0  0
 20 17  1  0  0  0  0
 20  7  2  0  0  0  0
 21 27  2  0  0  0  0
 23 32  1  0  0  0  0
 24 30  2  0  0  0  0
 25 28  2  0  0  0  0
 25 24  1  0  0  0  0
 26 21  1  0  0  0  0
 26 25  1  0  0  0  0
 27 29  1  0  0  0  0
 29 24  1  0  0  0  0
 29 22  1  1  0  0  0
 32 21  1  0  0  0  0
 32 31  1  0  0  0  0
 33 37  1  0  0  0  0
 34 35  1  0  0  0  0
 35 41  1  1  0  0  0
 36 33  1  0  0  0  0
 37 38  1  1  0  0  0
 37 35  1  0  0  0  0
 39  6  1  6  0  0  0
 39 33  1  0  0  0  0
 39 34  1  0  0  0  0
 40 33  1  0  0  0  0
 41 44  1  0  0  0  0
 41 42  1  6  0  0  0
 42 43  1  0  0  0  0
 44 47  1  1  0  0  0
 47 46  2  0  0  0  0
 47 45  1  0  0  0  0
 49 44  1  0  0  0  0
 49 48  1  1  0  0  0
 50 51  1  0  0  0  0
 50 49  1  0  0  0  0
 52 53  1  0  0  0  0
 53 55  1  0  0  0  0
 53 51  1  0  0  0  0
 54 53  1  0  0  0  0
M  END
>  <MODEL>
2

>  <REMARK>
 VINA RESULT:      -6.8      5.564     10.082
  Name = 
  11 active torsions:
  status: ('A' for Active; 'I' for Inactive)
    1  A    between atoms: C_8  and  C_35
    2  A    between atoms: C_13  and  C_34
    3  A    between atoms: C_16  and  C_34
    4  A    between atoms: C_23  and  C_34
    5  A    between atoms: C_23  and  C_50
    6  A    between atoms: C_23  and  C_53
    7  A    between atoms: C_28  and  N_44
    8  A    between atoms: C_37  and  C_39
    9  A    between atoms: C_37  and  C_47
   10  A    between atoms: C_41  and  C_46
   11  A    between atoms: C_47  and  C_53
                            x       y       z     vdW  Elec       q    Type
                         _______ _______ _______ _____ _____    ______ ____

>  <TORSDO>
F 11

$$$$
=
 OpenBabel11042411273D

 55 59  0  0  1  0  0  0  0  0999 V2000
  186.9260  177.0570  144.2580 C   0  0  0  0  0  3  0  0  0  0  0  0
  186.3170  177.1960  143.0070 C   0  0  0  0  0  3  0  0  0  0  0  0
  185.0950  177.8720  142.8910 C   0  0  0  0  0  0  0  0  0  0  0  0
  185.1210  178.2580  145.3000 C   0  0  0  0  0  3  0  0  0  0  0  0
  184.5030  178.3950  144.0480 C   0  0  0  0  0  3  0  0  0  0  0  0
  186.3470  177.6060  145.4120 C   0  0  0  0  0  0  0  0  0  0  0  0
  185.4480  178.0800  140.4520 C   0  0  0  0  0  3  0  0  0  0  0  0
  182.7760  178.9390  139.1710 C   0  0  0  0  0  0  0  0  0  0  0  0
  186.1220  177.3550  136.9730 C   0  0  0  0  0  2  0  0  0  0  0  0
  186.2740  178.1090  138.2080 N   0  0  0  0  0  0  0  0  0  0  0  0
  184.4350  178.0380  141.5480 C   0  0  2  0  0  3  0  0  0  0  0  0
  187.6070  178.5730  138.5770 C   0  0  0  0  0  1  0  0  0  0  0  0
  184.7550  177.4330  136.4590 N   0  0  0  0  0  0  0  0  0  0  0  0
  183.6830  177.7540  137.1450 C   0  0  0  0  0  0  0  0  0  0  0  0
  183.6130  179.2750  141.5330 C   0  0  0  0  0  3  0  0  0  0  0  0
  181.5510  179.1030  138.5290 O   0  0  0  0  0  1  0  0  0  0  0  0
  183.8030  178.2490  138.5640 C   0  0  0  0  0  0  0  0  0  0  0  0
  182.4490  177.7690  136.4270 N   0  0  0  0  0  2  0  0  0  0  0  0
  182.8730  179.6400  140.4780 C   0  0  0  0  0  3  0  0  0  0  0  0
  185.1770  178.1680  139.1390 C   0  0  0  0  0  0  0  0  0  0  0  0
  182.6880  173.5130  135.9190 C   0  0  0  0  0  0  0  0  0  0  0  0
  179.2790  172.3740  136.7280 C   0  0  0  0  0  1  0  0  0  0  0  0
  185.1960  173.7590  135.8290 C   0  0  0  0  0  1  0  0  0  0  0  0
  180.1210  174.7830  136.4800 C   0  0  0  0  0  0  0  0  0  0  0  0
  181.2270  175.6890  136.1670 C   0  0  0  0  0  0  0  0  0  0  0  0
  182.4900  175.0720  135.0210 S   0  0  0  0  0  0  0  0  0  0  0  0
  181.6350  172.8730  136.3410 N   0  0  0  0  0  0  0  0  0  0  0  0
  181.3500  176.8930  136.7450 C   0  0  0  0  0  3  0  0  0  0  0  0
  180.2800  173.3310  136.0710 C   0  0  1  0  0  3  0  0  0  0  0  0
  178.9310  175.2640  136.8920 C   0  0  0  0  0  2  0  0  0  0  0  0
  184.1670  171.5840  136.4770 C   0  0  0  0  0  1  0  0  0  0  0  0
  184.0100  173.0100  136.2170 N   0  0  0  0  0  0  0  0  0  0  0  0
  187.3560  178.5950  147.5720 C   0  0  0  0  0  0  0  0  0  0  0  0
  188.0060  176.4640  146.7010 O   0  0  0  0  0  0  0  0  0  0  0  0
  188.9150  176.7820  147.7190 C   0  0  2  0  0  3  0  0  0  0  0  0
  186.3050  178.9930  148.3870 F   0  0  0  0  0  0  0  0  0  0  0  0
  188.4720  178.0550  148.4330 C   0  0  1  0  0  3  0  0  0  0  0  0
  189.5070  178.9820  148.6280 O   0  0  0  0  0  1  0  0  0  0  0  0
  186.9480  177.3750  146.7600 C   0  0  2  0  0  3  0  0  0  0  0  0
  187.7830  179.6520  146.7600 F   0  0  0  0  0  0  0  0  0  0  0  0
  190.3710  176.7110  147.2050 C   0  0  2  0  0  3  0  0  0  0  0  0
  191.4030  177.6090  147.9240 C   0  0  0  0  0  2  0  0  0  0  0  0
  192.4240  176.8510  148.5160 O   0  0  0  0  0  1  0  0  0  0  0  0
  190.4680  176.6720  145.6640 C   0  0  2  0  0  3  0  0  0  0  0  0
  192.4080  175.1990  146.2430 O   0  0  0  0  0  1  0  0  0  0  0  0
  191.7770  175.4610  144.0570 O   0  0  0  0  0  0  0  0  0  0  0  0
  191.5800  175.7420  145.2690 C   0  0  0  0  0  0  0  0  0  0  0  0
  192.0260  178.3380  144.4990 C   0  0  0  0  0  1  0  0  0  0  0  0
  190.6180  178.0690  145.0040 C   0  0  1  0  0  3  0  0  0  0  0  0
  189.6470  178.2590  143.8480 C   0  0  0  0  0  2  0  0  0  0  0  0
  190.3710  178.0750  142.5070 C   0  0  0  0  0  2  0  0  0  0  0  0
  189.3710  175.9050  142.5970 F   0  0  0  0  0  0  0  0  0  0  0  0
  189.7910  176.8930  141.7210 C   0  0  0  0  0  0  0  0  0  0  0  0
  190.7690  176.3660  140.8940 F   0  0  0  0  0  0  0  0  0  0  0  0
  188.7110  177.3170  140.9570 F   0  0  0  0  0  0  0  0  0  0  0  0
  1  6  1  0  0  0  0
  2  1  2  0  0  0  0
  3  2  1  0  0  0  0
  3  5  2  0  0  0  0
  4  6  2  0  0  0  0
  5  4  1  0  0  0  0
  7 11  1  0  0  0  0
  8 19  1  0  0  0  0
  9 10  1  0  0  0  0
 10 12  1  0  0  0  0
 10 20  1  0  0  0  0
 11  3  1  1  0  0  0
 13  9  1  0  0  0  0
 13 14  2  0  0  0  0
 14 17  1  0  0  0  0
 15 11  1  0  0  0  0
 16  8  1  0  0  0  0
 17 20  1  0  0  0  0
 17  8  2  0  0  0  0
 18 28  1  0  0  0  0
 18 14  1  0  0  0  0
 19 15  2  0  0  0  0
 20  7  2  0  0  0  0
 21 32  1  0  0  0  0
 21 27  2  0  0  0  0
 23 32  1  0  0  0  0
 24 30  2  0  0  0  0
 25 24  1  0  0  0  0
 25 28  2  0  0  0  0
 26 21  1  0  0  0  0
 26 25  1  0  0  0  0
 29 27  1  0  0  0  0
 29 24  1  0  0  0  0
 29 22  1  1  0  0  0
 32 31  1  0  0  0  0
 33 36  1  0  0  0  0
 33 37  1  0  0  0  0
 34 39  1  0  0  0  0
 34 35  1  0  0  0  0
 35 41  1  6  0  0  0
 35 37  1  0  0  0  0
 37 38  1  6  0  0  0
 39  6  1  6  0  0  0
 39 33  1  0  0  0  0
 40 33  1  0  0  0  0
 41 42  1  6  0  0  0
 42 43  1  0  0  0  0
 44 47  1  1  0  0  0
 44 41  1  0  0  0  0
 46 47  2  0  0  0  0
 47 45  1  0  0  0  0
 49 48  1  6  0  0  0
 49 44  1  0  0  0  0
 50 49  1  0  0  0  0
 51 50  1  0  0  0  0
 53 51  1  0  0  0  0
 53 52  1  0  0  0  0
 54 53  1  0  0  0  0
 55 53  1  0  0  0  0
M  END
>  <MODEL>
3

>  <REMARK>
 VINA RESULT:      -6.7      5.486     10.512
  Name = 
  11 active torsions:
  status: ('A' for Active; 'I' for Inactive)
    1  A    between atoms: C_8  and  C_35
    2  A    between atoms: C_13  and  C_34
    3  A    between atoms: C_16  and  C_34
    4  A    between atoms: C_23  and  C_34
    5  A    between atoms: C_23  and  C_50
    6  A    between atoms: C_23  and  C_53
    7  A    between atoms: C_28  and  N_44
    8  A    between atoms: C_37  and  C_39
    9  A    between atoms: C_37  and  C_47
   10  A    between atoms: C_41  and  C_46
   11  A    between atoms: C_47  and  C_53
                            x       y       z     vdW  Elec       q    Type
                         _______ _______ _______ _____ _____    ______ ____

>  <TORSDO>
F 11

$$$$
=
 OpenBabel11042411273D

 55 59  0  0  1  0  0  0  0  0999 V2000
  183.8900  176.5270  137.5290 C   0  0  0  0  0  3  0  0  0  0  0  0
  185.2820  176.3920  137.5360 C   0  0  0  0  0  3  0  0  0  0  0  0
  186.0210  176.6560  136.3750 C   0  0  0  0  0  0  0  0  0  0  0  0
  183.9400  177.1890  135.2170 C   0  0  0  0  0  3  0  0  0  0  0  0
  185.3360  177.0500  135.2180 C   0  0  0  0  0  3  0  0  0  0  0  0
  183.2080  176.9500  136.3780 C   0  0  0  0  0  0  0  0  0  0  0  0
  188.1120  177.1000  137.6190 C   0  0  0  0  0  3  0  0  0  0  0  0
  190.4830  176.5800  135.7150 C   0  0  0  0  0  0  0  0  0  0  0  0
  190.8360  176.9290  139.9910 C   0  0  0  0  0  2  0  0  0  0  0  0
  189.8060  177.6140  139.2260 N   0  0  0  0  0  0  0  0  0  0  0  0
  187.5210  176.5260  136.3740 C   0  0  2  0  0  3  0  0  0  0  0  0
  189.0330  178.6590  139.8860 C   0  0  0  0  0  1  0  0  0  0  0  0
  191.8560  176.3430  139.1200 N   0  0  0  0  0  0  0  0  0  0  0  0
  191.7240  176.0700  137.8440 C   0  0  0  0  0  0  0  0  0  0  0  0
  188.0900  177.1970  135.1790 C   0  0  0  0  0  3  0  0  0  0  0  0
  191.5770  176.1440  134.9710 O   0  0  0  0  0  1  0  0  0  0  0  0
  190.4930  176.5080  137.0910 C   0  0  0  0  0  0  0  0  0  0  0  0
  192.8620  175.5020  137.1940 N   0  0  0  0  0  2  0  0  0  0  0  0
  189.4000  177.1900  134.9000 C   0  0  0  0  0  3  0  0  0  0  0  0
  189.4160  177.0920  137.9420 C   0  0  0  0  0  0  0  0  0  0  0  0
  196.4640  173.3080  136.4000 C   0  0  0  0  0  0  0  0  0  0  0  0
  195.2540  170.3040  134.6440 C   0  0  0  0  0  1  0  0  0  0  0  0
  197.6510  174.8630  137.9920 C   0  0  0  0  0  1  0  0  0  0  0  0
  193.9150  172.3820  135.3250 C   0  0  0  0  0  0  0  0  0  0  0  0
  193.9060  173.7150  135.9290 C   0  0  0  0  0  0  0  0  0  0  0  0
  195.4400  174.6770  135.8070 S   0  0  0  0  0  0  0  0  0  0  0  0
  196.2580  172.1040  135.9480 N   0  0  0  0  0  0  0  0  0  0  0  0
  192.8480  174.1890  136.6030 C   0  0  0  0  0  3  0  0  0  0  0  0
  195.2630  171.8110  134.9280 C   0  0  1  0  0  3  0  0  0  0  0  0
  192.7660  171.7980  134.9270 C   0  0  0  0  0  2  0  0  0  0  0  0
  198.5770  172.5980  137.5200 C   0  0  0  0  0  1  0  0  0  0  0  0
  197.4690  173.5400  137.4140 N   0  0  0  0  0  0  0  0  0  0  0  0
  180.9940  177.4710  137.5950 C   0  0  0  0  0  0  0  0  0  0  0  0
  181.1720  175.7910  135.9020 O   0  0  0  0  0  0  0  0  0  0  0  0
  179.9160  175.6310  136.5020 C   0  0  2  0  0  3  0  0  0  0  0  0
  180.7900  178.8420  137.5360 F   0  0  0  0  0  0  0  0  0  0  0  0
  179.6610  176.7690  137.4870 C   0  0  1  0  0  3  0  0  0  0  0  0
  179.1680  176.3410  138.7280 O   0  0  0  0  0  1  0  0  0  0  0  0
  181.7160  177.0000  136.3420 C   0  0  2  0  0  3  0  0  0  0  0  0
  181.6790  177.1200  138.7630 F   0  0  0  0  0  0  0  0  0  0  0  0
  179.7210  174.1830  137.0070 C   0  0  2  0  0  3  0  0  0  0  0  0
  179.7890  173.9680  138.5340 C   0  0  0  0  0  2  0  0  0  0  0  0
  181.0160  174.3960  139.0630 O   0  0  0  0  0  1  0  0  0  0  0  0
  180.4610  173.1370  136.1430 C   0  0  2  0  0  3  0  0  0  0  0  0
  178.9310  171.4450  137.1730 O   0  0  0  0  0  1  0  0  0  0  0  0
  179.5460  171.2500  134.9750 O   0  0  0  0  0  0  0  0  0  0  0  0
  179.6200  171.8960  136.0550 C   0  0  0  0  0  0  0  0  0  0  0  0
  182.0790  171.3900  137.0890 C   0  0  0  0  0  1  0  0  0  0  0  0
  181.9050  172.8270  136.6240 C   0  0  1  0  0  3  0  0  0  0  0  0
  182.9370  173.1130  135.5450 C   0  0  0  0  0  2  0  0  0  0  0  0
  184.0880  172.1020  135.6260 C   0  0  0  0  0  2  0  0  0  0  0  0
  185.1250  173.4690  137.2920 F   0  0  0  0  0  0  0  0  0  0  0  0
  185.3780  172.7670  136.1240 C   0  0  0  0  0  0  0  0  0  0  0  0
  185.8400  173.6520  135.1640 F   0  0  0  0  0  0  0  0  0  0  0  0
  186.3440  171.7990  136.3730 F   0  0  0  0  0  0  0  0  0  0  0  0
  1  2  1  0  0  0  0
  3  2  2  0  0  0  0
  4  5  2  0  0  0  0
  4  6  1  0  0  0  0
  5  3  1  0  0  0  0
  6  1  2  0  0  0  0
  7 20  2  0  0  0  0
  8 17  2  0  0  0  0
 10 12  1  0  0  0  0
 10  9  1  0  0  0  0
 11  3  1  1  0  0  0
 11  7  1  0  0  0  0
 13  9  1  0  0  0  0
 14 13  2  0  0  0  0
 15 11  1  0  0  0  0
 16  8  1  0  0  0  0
 17 14  1  0  0  0  0
 17 20  1  0  0  0  0
 18 14  1  0  0  0  0
 19 15  2  0  0  0  0
 19  8  1  0  0  0  0
 20 10  1  0  0  0  0
 21 32  1  0  0  0  0
 24 25  1  0  0  0  0
 25 28  2  0  0  0  0
 26 25  1  0  0  0  0
 26 21  1  0  0  0  0
 27 21  2  0  0  0  0
 28 18  1  0  0  0  0
 29 22  1  1  0  0  0
 29 24  1  0  0  0  0
 29 27  1  0  0  0  0
 30 24  2  0  0  0  0
 32 31  1  0  0  0  0
 32 23  1  0  0  0  0
 33 40  1  0  0  0  0
 34 39  1  0  0  0  0
 34 35  1  0  0  0  0
 35 41  1  1  0  0  0
 35 37  1  0  0  0  0
 36 33  1  0  0  0  0
 37 33  1  0  0  0  0
 37 38  1  1  0  0  0
 39  6  1  1  0  0  0
 39 33  1  0  0  0  0
 41 42  1  1  0  0  0
 42 43  1  0  0  0  0
 44 47  1  1  0  0  0
 44 49  1  0  0  0  0
 44 41  1  0  0  0  0
 46 47  2  0  0  0  0
 47 45  1  0  0  0  0
 49 48  1  6  0  0  0
 50 51  1  0  0  0  0
 50 49  1  0  0  0  0
 51 53  1  0  0  0  0
 53 55  1  0  0  0  0
 53 52  1  0  0  0  0
 54 53  1  0  0  0  0
M  END
>  <MODEL>
4

>  <REMARK>
 VINA RESULT:      -5.0      3.206      4.589
  Name = 
  11 active torsions:
  status: ('A' for Active; 'I' for Inactive)
    1  A    between atoms: C_8  and  C_35
    2  A    between atoms: C_13  and  C_34
    3  A    between atoms: C_16  and  C_34
    4  A    between atoms: C_23  and  C_34
    5  A    between atoms: C_23  and  C_50
    6  A    between atoms: C_23  and  C_53
    7  A    between atoms: C_28  and  N_44
    8  A    between atoms: C_37  and  C_39
    9  A    between atoms: C_37  and  C_47
   10  A    between atoms: C_41  and  C_46
   11  A    between atoms: C_47  and  C_53
                            x       y       z     vdW  Elec       q    Type
                         _______ _______ _______ _____ _____    ______ ____

>  <TORSDO>
F 11

$$$$
=
 OpenBabel11042411273D

 55 59  0  0  1  0  0  0  0  0999 V2000
  190.2860  175.9770  138.1310 C   0  0  0  0  0  3  0  0  0  0  0  0
  188.9230  176.2260  137.9390 C   0  0  0  0  0  3  0  0  0  0  0  0
  188.2650  175.7130  136.8140 C   0  0  0  0  0  0  0  0  0  0  0  0
  190.3660  174.7030  136.0930 C   0  0  0  0  0  3  0  0  0  0  0  0
  189.0000  174.9550  135.8930 C   0  0  0  0  0  3  0  0  0  0  0  0
  191.0140  175.1940  137.2230 C   0  0  0  0  0  0  0  0  0  0  0  0
  186.0720  174.6960  136.2930 C   0  0  0  0  0  3  0  0  0  0  0  0
  184.0780  176.9760  135.7070 C   0  0  0  0  0  0  0  0  0  0  0  0
  182.9370  172.9070  136.5290 C   0  0  0  0  0  2  0  0  0  0  0  0
  184.2000  173.2610  135.8990 N   0  0  0  0  0  0  0  0  0  0  0  0
  186.7960  175.9640  136.6030 C   0  0  2  0  0  3  0  0  0  0  0  0
  184.9890  172.1990  135.2850 C   0  0  0  0  0  1  0  0  0  0  0  0
  182.0300  174.0520  136.6000 N   0  0  0  0  0  0  0  0  0  0  0  0
  182.3680  175.3180  136.5180 C   0  0  0  0  0  0  0  0  0  0  0  0
  186.5980  176.9470  135.5080 C   0  0  0  0  0  3  0  0  0  0  0  0
  183.0980  177.9650  135.6590 O   0  0  0  0  0  1  0  0  0  0  0  0
  183.7800  175.7110  136.1670 C   0  0  0  0  0  0  0  0  0  0  0  0
  181.3050  176.2670  136.6090 N   0  0  0  0  0  2  0  0  0  0  0  0
  185.3890  177.3930  135.1450 C   0  0  0  0  0  3  0  0  0  0  0  0
  184.7470  174.5770  136.1050 C   0  0  0  0  0  0  0  0  0  0  0  0
  179.2540  175.4660  140.2940 C   0  0  0  0  0  0  0  0  0  0  0  0
  179.4050  178.6940  142.0630 C   0  0  0  0  0  1  0  0  0  0  0  0
  179.3900  173.0120  139.7270 C   0  0  0  0  0  1  0  0  0  0  0  0
  180.1190  178.1790  139.6550 C   0  0  0  0  0  0  0  0  0  0  0  0
  180.2240  177.2030  138.5700 C   0  0  0  0  0  0  0  0  0  0  0  0
  178.9960  175.8680  138.5480 S   0  0  0  0  0  0  0  0  0  0  0  0
  179.3520  176.4250  141.1700 N   0  0  0  0  0  0  0  0  0  0  0  0
  181.2160  177.2400  137.6670 C   0  0  0  0  0  3  0  0  0  0  0  0
  179.2050  177.8280  140.8140 C   0  0  1  0  0  3  0  0  0  0  0  0
  180.6200  179.4220  139.5150 C   0  0  0  0  0  2  0  0  0  0  0  0
  179.1240  173.7440  142.0950 C   0  0  0  0  0  1  0  0  0  0  0  0
  179.4090  174.0890  140.7070 N   0  0  0  0  0  0  0  0  0  0  0  0
  193.4030  175.9890  136.6570 C   0  0  0  0  0  0  0  0  0  0  0  0
  192.8740  173.6970  137.0890 O   0  0  0  0  0  0  0  0  0  0  0  0
  194.1810  173.7240  136.5850 C   0  0  2  0  0  3  0  0  0  0  0  0
  193.7050  177.0540  137.4940 F   0  0  0  0  0  0  0  0  0  0  0  0
  194.6510  175.1680  136.4340 C   0  0  1  0  0  3  0  0  0  0  0  0
  195.2660  175.4360  135.2030 O   0  0  0  0  0  1  0  0  0  0  0  0
  192.4880  175.0090  137.3760 C   0  0  2  0  0  3  0  0  0  0  0  0
  192.8510  176.4420  135.4540 F   0  0  0  0  0  0  0  0  0  0  0  0
  194.3250  172.7870  135.3630 C   0  0  2  0  0  3  0  0  0  0  0  0
  193.0530  172.0350  134.9150 C   0  0  0  0  0  2  0  0  0  0  0  0
  192.0060  172.9210  134.6160 O   0  0  0  0  0  1  0  0  0  0  0  0
  195.6270  171.9570  135.3880 C   0  0  2  0  0  3  0  0  0  0  0  0
  194.0690  170.0100  135.6060 O   0  0  0  0  0  1  0  0  0  0  0  0
  196.1060  169.7430  134.5940 O   0  0  0  0  0  0  0  0  0  0  0  0
  195.2870  170.5110  135.1650 C   0  0  0  0  0  0  0  0  0  0  0  0
  196.5540  170.9190  137.5390 C   0  0  0  0  0  1  0  0  0  0  0  0
  196.4840  172.1620  136.6660 C   0  0  1  0  0  3  0  0  0  0  0  0
  197.9030  172.5980  136.3350 C   0  0  0  0  0  2  0  0  0  0  0  0
  198.6320  173.0530  137.6070 C   0  0  0  0  0  2  0  0  0  0  0  0
  197.8700  175.2470  137.0350 F   0  0  0  0  0  0  0  0  0  0  0  0
  198.0870  174.3970  138.1080 C   0  0  0  0  0  0  0  0  0  0  0  0
  199.0120  174.9800  138.9580 F   0  0  0  0  0  0  0  0  0  0  0  0
  196.8900  174.1990  138.7840 F   0  0  0  0  0  0  0  0  0  0  0  0
  2  1  1  0  0  0  0
  3  2  2  0  0  0  0
  4  6  1  0  0  0  0
  5  4  2  0  0  0  0
  5  3  1  0  0  0  0
  6  1  2  0  0  0  0
  7 11  1  0  0  0  0
  8 17  2  0  0  0  0
  9 13  1  0  0  0  0
 10 20  1  0  0  0  0
 10  9  1  0  0  0  0
 11  3  1  6  0  0  0
 12 10  1  0  0  0  0
 14 13  2  0  0  0  0
 14 18  1  0  0  0  0
 15 11  1  0  0  0  0
 16  8  1  0  0  0  0
 17 14  1  0  0  0  0
 18 28  1  0  0  0  0
 19 15  2  0  0  0  0
 19  8  1  0  0  0  0
 20 17  1  0  0  0  0
 20  7  2  0  0  0  0
 21 32  1  0  0  0  0
 21 27  2  0  0  0  0
 23 32  1  0  0  0  0
 24 29  1  0  0  0  0
 25 24  1  0  0  0  0
 26 25  1  0  0  0  0
 26 21  1  0  0  0  0
 28 25  2  0  0  0  0
 29 27  1  0  0  0  0
 29 22  1  1  0  0  0
 30 24  2  0  0  0  0
 32 31  1  0  0  0  0
 33 39  1  0  0  0  0
 33 36  1  0  0  0  0
 34 39  1  0  0  0  0
 35 41  1  6  0  0  0
 35 34  1  0  0  0  0
 37 38  1  6  0  0  0
 37 35  1  0  0  0  0
 37 33  1  0  0  0  0
 39  6  1  6  0  0  0
 40 33  1  0  0  0  0
 41 42  1  1  0  0  0
 41 44  1  0  0  0  0
 43 42  1  0  0  0  0
 44 47  1  1  0  0  0
 44 49  1  0  0  0  0
 46 47  2  0  0  0  0
 47 45  1  0  0  0  0
 49 48  1  6  0  0  0
 50 49  1  0  0  0  0
 50 51  1  0  0  0  0
 51 53  1  0  0  0  0
 52 53  1  0  0  0  0
 53 55  1  0  0  0  0
 53 54  1  0  0  0  0
M  END
>  <MODEL>
5

>  <REMARK>
 VINA RESULT:      -5.0      5.638     13.446
  Name = 
  11 active torsions:
  status: ('A' for Active; 'I' for Inactive)
    1  A    between atoms: C_8  and  C_35
    2  A    between atoms: C_13  and  C_34
    3  A    between atoms: C_16  and  C_34
    4  A    between atoms: C_23  and  C_34
    5  A    between atoms: C_23  and  C_50
    6  A    between atoms: C_23  and  C_53
    7  A    between atoms: C_28  and  N_44
    8  A    between atoms: C_37  and  C_39
    9  A    between atoms: C_37  and  C_47
   10  A    between atoms: C_41  and  C_46
   11  A    between atoms: C_47  and  C_53
                            x       y       z     vdW  Elec       q    Type
                         _______ _______ _______ _____ _____    ______ ____

>  <TORSDO>
F 11

$$$$
=
 OpenBabel11042411273D

 55 59  0  0  1  0  0  0  0  0999 V2000
  184.1730  176.2920  137.8730 C   0  0  0  0  0  3  0  0  0  0  0  0
  185.5670  176.2400  137.7740 C   0  0  0  0  0  3  0  0  0  0  0  0
  186.1740  175.8680  136.5680 C   0  0  0  0  0  0  0  0  0  0  0  0
  183.9590  175.6080  135.5770 C   0  0  0  0  0  3  0  0  0  0  0  0
  185.3570  175.5480  135.4750 C   0  0  0  0  0  3  0  0  0  0  0  0
  183.3570  176.0000  136.7700 C   0  0  0  0  0  0  0  0  0  0  0  0
  188.3280  176.5900  137.5440 C   0  0  0  0  0  3  0  0  0  0  0  0
  190.5600  175.9440  135.5160 C   0  0  0  0  0  0  0  0  0  0  0  0
  191.2470  176.8920  139.6580 C   0  0  0  0  0  2  0  0  0  0  0  0
  190.1140  177.4090  138.9080 N   0  0  0  0  0  0  0  0  0  0  0  0
  187.6740  175.8200  136.4460 C   0  0  2  0  0  3  0  0  0  0  0  0
  189.3320  178.4920  139.4930 C   0  0  0  0  0  1  0  0  0  0  0  0
  192.2260  176.2490  138.7820 N   0  0  0  0  0  0  0  0  0  0  0  0
  192.0060  175.7960  137.5700 C   0  0  0  0  0  0  0  0  0  0  0  0
  188.0960  176.3520  135.1260 C   0  0  0  0  0  3  0  0  0  0  0  0
  191.6140  175.4690  134.7380 O   0  0  0  0  0  1  0  0  0  0  0  0
  190.6900  176.0610  136.8830 C   0  0  0  0  0  0  0  0  0  0  0  0
  193.1200  175.2080  136.8990 N   0  0  0  0  0  2  0  0  0  0  0  0
  189.3750  176.3770  134.7300 C   0  0  0  0  0  3  0  0  0  0  0  0
  189.6520  176.6960  137.7450 C   0  0  0  0  0  0  0  0  0  0  0  0
  196.7850  173.0910  136.1820 C   0  0  0  0  0  0  0  0  0  0  0  0
  195.6400  169.8250  134.9180 C   0  0  0  0  0  1  0  0  0  0  0  0
  197.9730  174.8990  137.4780 C   0  0  0  0  0  1  0  0  0  0  0  0
  194.2320  171.9130  135.3990 C   0  0  0  0  0  0  0  0  0  0  0  0
  194.1870  173.3140  135.8200 C   0  0  0  0  0  0  0  0  0  0  0  0
  195.6580  174.3190  135.4770 S   0  0  0  0  0  0  0  0  0  0  0  0
  196.6180  171.8280  135.9080 N   0  0  0  0  0  0  0  0  0  0  0  0
  193.1440  173.8270  136.4890 C   0  0  0  0  0  3  0  0  0  0  0  0
  195.5850  171.3550  134.9990 C   0  0  1  0  0  3  0  0  0  0  0  0
  193.0970  171.2300  135.1530 C   0  0  0  0  0  2  0  0  0  0  0  0
  198.9910  172.6350  137.2540 C   0  0  0  0  0  1  0  0  0  0  0  0
  197.8300  173.5020  137.0930 N   0  0  0  0  0  0  0  0  0  0  0  0
  181.0440  176.5740  135.7790 C   0  0  0  0  0  0  0  0  0  0  0  0
  181.4500  176.4680  138.1350 O   0  0  0  0  0  0  0  0  0  0  0  0
  180.1800  177.0360  137.9660 C   0  0  2  0  0  3  0  0  0  0  0  0
  180.7330  175.6020  134.8390 F   0  0  0  0  0  0  0  0  0  0  0  0
  179.7800  176.9910  136.4940 C   0  0  1  0  0  3  0  0  0  0  0  0
  179.2570  178.2000  136.0140 O   0  0  0  0  0  1  0  0  0  0  0  0
  181.8700  175.9620  136.9010 C   0  0  2  0  0  3  0  0  0  0  0  0
  181.6910  177.6590  135.1790 F   0  0  0  0  0  0  0  0  0  0  0  0
  180.0760  178.3930  138.7000 C   0  0  2  0  0  3  0  0  0  0  0  0
  180.3870  179.6560  137.8680 C   0  0  0  0  0  2  0  0  0  0  0  0
  179.2200  180.2280  137.3400 O   0  0  0  0  0  1  0  0  0  0  0  0
  180.6760  178.3570  140.1240 C   0  0  2  0  0  3  0  0  0  0  0  0
  179.6270  180.5460  140.7390 O   0  0  0  0  0  0  0  0  0  0  0  0
  179.3070  178.7050  142.0650 O   0  0  0  0  0  1  0  0  0  0  0  0
  179.8280  179.2030  141.0300 C   0  0  0  0  0  0  0  0  0  0  0  0
  182.4540  180.1090  139.5480 C   0  0  0  0  0  1  0  0  0  0  0  0
  182.1740  178.7590  140.1890 C   0  0  1  0  0  3  0  0  0  0  0  0
  182.6940  178.7870  141.6180 C   0  0  0  0  0  2  0  0  0  0  0  0
  184.1490  178.2990  141.6660 C   0  0  0  0  0  2  0  0  0  0  0  0
  185.2180  179.7720  143.2180 F   0  0  0  0  0  0  0  0  0  0  0  0
  184.7470  178.4780  143.0680 C   0  0  0  0  0  0  0  0  0  0  0  0
  185.8030  177.5980  143.2330 F   0  0  0  0  0  0  0  0  0  0  0  0
  183.7760  178.2300  144.0320 F   0  0  0  0  0  0  0  0  0  0  0  0
  2  1  1  0  0  0  0
  3  2  2  0  0  0  0
  4  6  1  0  0  0  0
  5  4  2  0  0  0  0
  5  3  1  0  0  0  0
  6  1  2  0  0  0  0
  7 20  2  0  0  0  0
  8 17  2  0  0  0  0
 10 12  1  0  0  0  0
 10  9  1  0  0  0  0
 11  3  1  1  0  0  0
 11  7  1  0  0  0  0
 13  9  1  0  0  0  0
 14 13  2  0  0  0  0
 15 11  1  0  0  0  0
 16  8  1  0  0  0  0
 17 14  1  0  0  0  0
 17 20  1  0  0  0  0
 18 14  1  0  0  0  0
 19 15  2  0  0  0  0
 19  8  1  0  0  0  0
 20 10  1  0  0  0  0
 21 32  1  0  0  0  0
 24 25  1  0  0  0  0
 25 28  2  0  0  0  0
 26 25  1  0  0  0  0
 26 21  1  0  0  0  0
 27 21  2  0  0  0  0
 28 18  1  0  0  0  0
 29 22  1  1  0  0  0
 29 24  1  0  0  0  0
 29 27  1  0  0  0  0
 30 24  2  0  0  0  0
 32 31  1  0  0  0  0
 32 23  1  0  0  0  0
 33 37  1  0  0  0  0
 33 39  1  0  0  0  0
 35 34  1  0  0  0  0
 35 41  1  6  0  0  0
 36 33  1  0  0  0  0
 37 38  1  6  0  0  0
 37 35  1  0  0  0  0
 39  6  1  6  0  0  0
 39 34  1  0  0  0  0
 40 33  1  0  0  0  0
 41 42  1  6  0  0  0
 41 44  1  0  0  0  0
 43 42  1  0  0  0  0
 44 49  1  0  0  0  0
 44 47  1  1  0  0  0
 45 47  2  0  0  0  0
 47 46  1  0  0  0  0
 49 48  1  1  0  0  0
 49 50  1  0  0  0  0
 50 51  1  0  0  0  0
 51 53  1  0  0  0  0
 53 52  1  0  0  0  0
 53 54  1  0  0  0  0
 53 55  1  0  0  0  0
M  END
>  <MODEL>
6

>  <REMARK>
 VINA RESULT:      -4.9      1.534      2.052
  Name = 
  11 active torsions:
  status: ('A' for Active; 'I' for Inactive)
    1  A    between atoms: C_8  and  C_35
    2  A    between atoms: C_13  and  C_34
    3  A    between atoms: C_16  and  C_34
    4  A    between atoms: C_23  and  C_34
    5  A    between atoms: C_23  and  C_50
    6  A    between atoms: C_23  and  C_53
    7  A    between atoms: C_28  and  N_44
    8  A    between atoms: C_37  and  C_39
    9  A    between atoms: C_37  and  C_47
   10  A    between atoms: C_41  and  C_46
   11  A    between atoms: C_47  and  C_53
                            x       y       z     vdW  Elec       q    Type
                         _______ _______ _______ _____ _____    ______ ____

>  <TORSDO>
F 11

$$$$
=
 OpenBabel11042411273D

 55 59  0  0  1  0  0  0  0  0999 V2000
  189.6420  176.5190  143.0260 C   0  0  0  0  0  3  0  0  0  0  0  0
  189.1630  176.4470  141.7140 C   0  0  0  0  0  3  0  0  0  0  0  0
  189.1470  177.5920  140.9060 C   0  0  0  0  0  0  0  0  0  0  0  0
  190.1000  178.8650  142.7580 C   0  0  0  0  0  3  0  0  0  0  0  0
  189.6150  178.7990  141.4420 C   0  0  0  0  0  3  0  0  0  0  0  0
  190.1370  177.7210  143.5520 C   0  0  0  0  0  0  0  0  0  0  0  0
  189.1640  176.3110  138.7910 C   0  0  0  0  0  3  0  0  0  0  0  0
  187.8940  178.0710  136.6000 C   0  0  0  0  0  0  0  0  0  0  0  0
  188.5330  173.8300  136.2370 C   0  0  0  0  0  2  0  0  0  0  0  0
  189.3810  174.6890  137.0470 N   0  0  0  0  0  0  0  0  0  0  0  0
  188.6450  177.5240  139.4890 C   0  0  2  0  0  3  0  0  0  0  0  0
  190.6430  174.1500  137.5400 C   0  0  0  0  0  1  0  0  0  0  0  0
  187.6330  174.6080  135.3860 N   0  0  0  0  0  0  0  0  0  0  0  0
  187.2850  175.8610  135.5620 C   0  0  0  0  0  0  0  0  0  0  0  0
  189.0400  178.7490  138.7480 C   0  0  0  0  0  3  0  0  0  0  0  0
  187.1300  178.7340  135.6400 O   0  0  0  0  0  1  0  0  0  0  0  0
  187.9470  176.6950  136.6300 C   0  0  0  0  0  0  0  0  0  0  0  0
  186.3930  176.4160  134.5950 N   0  0  0  0  0  2  0  0  0  0  0  0
  188.6780  178.9760  137.4790 C   0  0  0  0  0  3  0  0  0  0  0  0
  188.8580  175.9390  137.5370 C   0  0  0  0  0  0  0  0  0  0  0  0
  183.3420  173.8250  136.1440 C   0  0  0  0  0  0  0  0  0  0  0  0
  180.3870  176.0180  136.3320 C   0  0  0  0  0  1  0  0  0  0  0  0
  185.1610  172.1680  136.6980 C   0  0  0  0  0  1  0  0  0  0  0  0
  182.6730  176.5350  135.2910 C   0  0  0  0  0  0  0  0  0  0  0  0
  184.0180  176.0710  134.9470 C   0  0  0  0  0  0  0  0  0  0  0  0
  184.2130  174.2950  134.6290 S   0  0  0  0  0  0  0  0  0  0  0  0
  182.2440  174.4440  136.4770 N   0  0  0  0  0  0  0  0  0  0  0  0
  185.0770  176.8940  134.9320 C   0  0  0  0  0  3  0  0  0  0  0  0
  181.6450  175.4760  135.6440 C   0  0  1  0  0  3  0  0  0  0  0  0
  182.3080  177.8140  135.0730 C   0  0  0  0  0  2  0  0  0  0  0  0
  182.9870  172.1060  137.9160 C   0  0  0  0  0  1  0  0  0  0  0  0
  183.8910  172.8070  137.0110 N   0  0  0  0  0  0  0  0  0  0  0  0
  190.7690  176.5240  145.7490 C   0  0  0  0  0  0  0  0  0  0  0  0
  189.7200  178.6740  145.7060 O   0  0  0  0  0  0  0  0  0  0  0  0
  189.6900  178.2330  147.0350 C   0  0  2  0  0  3  0  0  0  0  0  0
  192.0950  176.1270  145.6490 F   0  0  0  0  0  0  0  0  0  0  0  0
  190.4830  176.9370  147.1730 C   0  0  1  0  0  3  0  0  0  0  0  0
  189.8180  175.9440  147.9060 O   0  0  0  0  0  1  0  0  0  0  0  0
  190.5580  177.8210  144.9810 C   0  0  2  0  0  3  0  0  0  0  0  0
  189.9100  175.5080  145.3150 F   0  0  0  0  0  0  0  0  0  0  0  0
  188.2500  178.2610  147.5960 C   0  0  2  0  0  3  0  0  0  0  0  0
  187.8500  177.1010  148.5340 C   0  0  0  0  0  2  0  0  0  0  0  0
  187.5620  177.5570  149.8290 O   0  0  0  0  0  1  0  0  0  0  0  0
  187.1970  178.6710  146.5420 C   0  0  2  0  0  3  0  0  0  0  0  0
  186.3080  180.0420  148.4380 O   0  0  0  0  0  1  0  0  0  0  0  0
  184.9230  179.4170  146.7240 O   0  0  0  0  0  0  0  0  0  0  0  0
  186.0770  179.3990  147.2290 C   0  0  0  0  0  0  0  0  0  0  0  0
  185.2260  177.1430  145.9570 C   0  0  0  0  0  1  0  0  0  0  0  0
  186.6780  177.4920  145.6750 C   0  0  1  0  0  3  0  0  0  0  0  0
  186.8260  177.7710  144.1870 C   0  0  0  0  0  2  0  0  0  0  0  0
  185.4610  177.6950  143.4910 C   0  0  0  0  0  2  0  0  0  0  0  0
  183.8840  178.9220  142.1770 F   0  0  0  0  0  0  0  0  0  0  0  0
  185.0880  179.0400  142.8540 C   0  0  0  0  0  0  0  0  0  0  0  0
  186.0710  179.4100  141.9520 F   0  0  0  0  0  0  0  0  0  0  0  0
  184.9650  180.0120  143.8390 F   0  0  0  0  0  0  0  0  0  0  0  0
  1  6  1  0  0  0  0
  2  1  2  0  0  0  0
  3  5  2  0  0  0  0
  3  2  1  0  0  0  0
  4  6  2  0  0  0  0
  5  4  1  0  0  0  0
  7 11  1  0  0  0  0
  8 17  2  0  0  0  0
  8 19  1  0  0  0  0
  9 10  1  0  0  0  0
 10 20  1  0  0  0  0
 10 12  1  0  0  0  0
 11  3  1  1  0  0  0
 13 14  2  0  0  0  0
 13  9  1  0  0  0  0
 14 17  1  0  0  0  0
 15 11  1  0  0  0  0
 16  8  1  0  0  0  0
 17 20  1  0  0  0  0
 18 28  1  0  0  0  0
 18 14  1  0  0  0  0
 19 15  2  0  0  0  0
 20  7  2  0  0  0  0
 21 27  2  0  0  0  0
 21 32  1  0  0  0  0
 23 32  1  0  0  0  0
 24 29  1  0  0  0  0
 25 24  1  0  0  0  0
 26 25  1  0  0  0  0
 26 21  1  0  0  0  0
 28 25  2  0  0  0  0
 29 22  1  1  0  0  0
 29 27  1  0  0  0  0
 30 24  2  0  0  0  0
 32 31  1  0  0  0  0
 33 37  1  0  0  0  0
 34 35  1  0  0  0  0
 35 37  1  0  0  0  0
 35 41  1  6  0  0  0
 36 33  1  0  0  0  0
 37 38  1  6  0  0  0
 39  6  1  6  0  0  0
 39 34  1  0  0  0  0
 39 33  1  0  0  0  0
 40 33  1  0  0  0  0
 41 42  1  6  0  0  0
 42 43  1  0  0  0  0
 44 47  1  1  0  0  0
 44 41  1  0  0  0  0
 46 47  2  0  0  0  0
 47 45  1  0  0  0  0
 49 48  1  6  0  0  0
 49 44  1  0  0  0  0
 50 49  1  0  0  0  0
 51 50  1  0  0  0  0
 52 53  1  0  0  0  0
 53 51  1  0  0  0  0
 53 55  1  0  0  0  0
 54 53  1  0  0  0  0
M  END
>  <MODEL>
7

>  <REMARK>
 VINA RESULT:      -4.5      4.972      9.324
  Name = 
  11 active torsions:
  status: ('A' for Active; 'I' for Inactive)
    1  A    between atoms: C_8  and  C_35
    2  A    between atoms: C_13  and  C_34
    3  A    between atoms: C_16  and  C_34
    4  A    between atoms: C_23  and  C_34
    5  A    between atoms: C_23  and  C_50
    6  A    between atoms: C_23  and  C_53
    7  A    between atoms: C_28  and  N_44
    8  A    between atoms: C_37  and  C_39
    9  A    between atoms: C_37  and  C_47
   10  A    between atoms: C_41  and  C_46
   11  A    between atoms: C_47  and  C_53
                            x       y       z     vdW  Elec       q    Type
                         _______ _______ _______ _____ _____    ______ ____

>  <TORSDO>
F 11

$$$$
