=
 OpenBabel11042411323D

 36 40  0  0  1  0  0  0  0  0999 V2000
  184.6020  179.1380  140.9030 C   0  0  0  0  0  3  0  0  0  0  0  0
  187.1210  178.3430  140.0100 C   0  0  0  0  0  3  0  0  0  0  0  0
  186.9230  178.6170  141.3720 C   0  0  0  0  0  0  0  0  0  0  0  0
  186.0650  178.4610  139.0980 C   0  0  0  0  0  0  0  0  0  0  0  0
  185.6550  179.0170  141.8220 C   0  0  0  0  0  0  0  0  0  0  0  0
  184.8070  178.8640  139.5490 C   0  0  0  0  0  3  0  0  0  0  0  0
  185.4670  179.2940  143.2200 N   0  0  0  0  0  2  0  0  0  0  0  0
  184.3470  178.9210  144.0350 C   0  0  0  0  0  0  0  0  0  0  0  0
  183.3810  178.2800  143.5420 O   0  0  0  0  0  0  0  0  0  0  0  0
  184.3020  179.2550  145.3950 O   0  0  0  0  0  0  0  0  0  0  0  0
  185.6140  177.6180  146.3940 O   0  0  0  0  0  0  0  0  0  0  0  0
  185.6660  179.7040  147.3240 O   0  0  0  0  0  1  0  0  0  0  0  0
  185.2050  178.8090  146.3680 C   0  0  0  0  0  0  0  0  0  0  0  0
  186.2700  178.1910  137.6400 C   0  0  2  0  0  3  0  0  0  0  0  0
  185.1720  177.5160  137.0990 O   0  0  0  0  0  1  0  0  0  0  0  0
  189.9300  176.0560  137.0020 C   0  0  0  0  0  0  0  0  0  0  0  0
  188.7540  178.1180  137.1790 C   0  0  0  0  0  0  0  0  0  0  0  0
  187.5450  177.4350  137.3910 C   0  0  0  0  0  0  0  0  0  0  0  0
  188.7860  179.3770  137.1650 O   0  0  0  0  0  0  0  0  0  0  0  0
  188.7470  175.3400  137.2040 C   0  0  0  0  0  2  0  0  0  0  0  0
  189.9040  177.4170  136.9850 N   0  0  0  0  0  0  0  0  0  0  0  0
  187.5550  176.0340  137.4050 C   0  0  0  0  0  3  0  0  0  0  0  0
  192.0660  175.3490  137.9670 C   0  0  2  0  0  3  0  0  0  0  0  0
  191.3040  174.2210  137.6200 O   0  0  0  0  0  0  0  0  0  0  0  0
  191.2130  175.3290  136.7560 C   0  0  1  0  0  3  0  0  0  0  0  0
  193.5090  175.1120  137.5780 C   0  0  0  0  0  1  0  0  0  0  0  0
  187.9720  178.5050  142.2940 O   0  0  0  0  0  0  0  0  0  0  0  0
  188.5090  177.2540  142.7230 C   0  0  2  0  0  3  0  0  0  0  0  0
  190.1720  177.3030  144.4800 C   0  0  1  0  0  0  0  0  0  0  0  0
  190.3760  178.6230  143.7760 C   0  0  0  0  0  2  0  0  0  0  0  0
  187.8470  176.8020  144.0170 C   0  0  0  0  0  2  0  0  0  0  0  0
  188.8300  177.0670  145.1380 C   0  0  0  0  0  2  0  0  0  0  0  0
  190.0100  177.3690  142.9780 C   0  0  2  0  0  3  0  0  0  0  0  0
  191.3860  176.5690  144.9370 C   0  0  0  0  0  0  0  0  0  0  0  0
  191.9250  176.8570  146.0380 O   0  0  0  0  0  1  0  0  0  0  0  0
  191.9490  175.5870  144.1320 O   0  0  0  0  0  0  0  0  0  0  0  0
  1  5  1  0  0  0  0
  2  3  1  0  0  0  0
  3  5  2  0  0  0  0
  3 27  1  0  0  0  0
  4  6  1  0  0  0  0
  4  2  2  0  0  0  0
  5  7  1  0  0  0  0
  6  1  2  0  0  0  0
  7  8  1  0  0  0  0
  8 10  1  0  0  0  0
  9  8  2  0  0  0  0
 10 13  1  0  0  0  0
 13 11  2  0  0  0  0
 13 12  1  0  0  0  0
 14 15  1  1  0  0  0
 14  4  1  0  0  0  0
 16 20  1  0  0  0  0
 17 18  1  0  0  0  0
 18 22  2  0  0  0  0
 18 14  1  0  0  0  0
 19 17  2  0  0  0  0
 20 22  1  0  0  0  0
 21 16  2  0  0  0  0
 21 17  1  0  0  0  0
 23 26  1  6  0  0  0
 24 23  1  0  0  0  0
 25 16  1  1  0  0  0
 25 24  1  0  0  0  0
 25 23  1  0  0  0  0
 28 27  1  1  0  0  0
 28 33  1  0  0  0  0
 28 31  1  0  0  0  0
 29 34  1  1  0  0  0
 29 32  1  0  0  0  0
 30 29  1  0  0  0  0
 31 32  1  0  0  0  0
 33 30  1  1  0  0  0
 33 29  1  0  0  0  0
 34 35  1  0  0  0  0
 36 34  2  0  0  0  0
M  END
>  <MODEL>
1

>  <REMARK>
 VINA RESULT:      -8.7      0.000      0.000
  Name = 
  9 active torsions:
  status: ('A' for Active; 'I' for Inactive)
    1  A    between atoms: C_3  and  C_5
    2  A    between atoms: N_4  and  C_23
    3  A    between atoms: C_6  and  O_26
    4  A    between atoms: C_10  and  C_12
    5  A    between atoms: C_10  and  C_21
    6  A    between atoms: C_13  and  O_26
    7  A    between atoms: C_14  and  C_15
    8  A    between atoms: C_22  and  O_25
    9  A    between atoms: O_25  and  C_35
                            x       y       z     vdW  Elec       q    Type
                         _______ _______ _______ _____ _____    ______ ____

>  <TORSDO>
F 9

$$$$
=
 OpenBabel11042411323D

 36 40  0  0  1  0  0  0  0  0999 V2000
  191.3730  176.8170  140.9360 C   0  0  0  0  0  3  0  0  0  0  0  0
  188.6930  177.5160  140.6110 C   0  0  0  0  0  3  0  0  0  0  0  0
  189.1340  177.0130  141.8450 C   0  0  0  0  0  0  0  0  0  0  0  0
  189.5870  177.6740  139.5450 C   0  0  0  0  0  0  0  0  0  0  0  0
  190.4830  176.6610  142.0090 C   0  0  0  0  0  0  0  0  0  0  0  0
  190.9270  177.3180  139.7110 C   0  0  0  0  0  3  0  0  0  0  0  0
  190.9200  176.1470  143.2780 N   0  0  0  0  0  2  0  0  0  0  0  0
  191.4730  176.8920  144.3720 C   0  0  0  0  0  0  0  0  0  0  0  0
  191.6240  178.1390  144.2860 O   0  0  0  0  0  0  0  0  0  0  0  0
  191.8510  176.2540  145.5610 O   0  0  0  0  0  0  0  0  0  0  0  0
  190.2290  176.9450  147.0740 O   0  0  0  0  0  0  0  0  0  0  0  0
  192.3350  176.6020  147.8910 O   0  0  0  0  0  1  0  0  0  0  0  0
  191.4230  176.6150  146.8450 C   0  0  0  0  0  0  0  0  0  0  0  0
  189.1240  178.1910  138.2180 C   0  0  2  0  0  3  0  0  0  0  0  0
  188.9600  179.5790  138.2540 O   0  0  0  0  0  1  0  0  0  0  0  0
  185.5300  176.2000  137.0010 C   0  0  0  0  0  0  0  0  0  0  0  0
  187.8980  176.2110  137.2350 C   0  0  0  0  0  0  0  0  0  0  0  0
  187.8620  177.5100  137.7700 C   0  0  1  0  0  3  0  0  0  0  0  0
  188.9940  175.6060  137.0960 O   0  0  0  0  0  0  0  0  0  0  0  0
  185.4510  177.4940  137.5240 C   0  0  0  0  0  3  0  0  0  0  0  0
  186.7430  175.5980  136.8620 N   0  0  0  0  0  0  0  0  0  0  0  0
  186.6220  178.1450  137.9140 C   0  0  0  0  0  3  0  0  0  0  0  0
  183.7120  174.6980  137.6550 C   0  0  2  0  0  3  0  0  0  0  0  0
  183.1870  175.9520  137.3010 O   0  0  0  0  0  0  0  0  0  0  0  0
  184.2890  175.4980  136.5510 C   0  0  1  0  0  3  0  0  0  0  0  0
  182.8240  173.6120  137.0870 C   0  0  0  0  0  1  0  0  0  0  0  0
  188.2480  176.8490  142.9180 O   0  0  0  0  0  0  0  0  0  0  0  0
  187.8960  177.9020  143.8130 C   0  0  2  0  0  3  0  0  0  0  0  0
  185.5550  178.1510  144.3700 C   0  0  1  0  0  0  0  0  0  0  0  0
  185.5180  177.5750  142.9760 C   0  0  0  0  0  2  0  0  0  0  0  0
  187.6820  177.3620  145.2210 C   0  0  0  0  0  2  0  0  0  0  0  0
  186.1860  177.3060  145.4540 C   0  0  0  0  0  2  0  0  0  0  0  0
  186.6030  178.5800  143.3680 C   0  0  2  0  0  3  0  0  0  0  0  0
  184.5570  179.2070  144.7090 C   0  0  0  0  0  0  0  0  0  0  0  0
  184.4270  180.2170  143.9680 O   0  0  0  0  0  0  0  0  0  0  0  0
  183.7930  179.0960  145.8630 O   0  0  0  0  0  1  0  0  0  0  0  0
  1  5  1  0  0  0  0
  2  3  1  0  0  0  0
  3  5  2  0  0  0  0
  3 27  1  0  0  0  0
  4  6  1  0  0  0  0
  4  2  2  0  0  0  0
  5  7  1  0  0  0  0
  6  1  2  0  0  0  0
  7  8  1  0  0  0  0
  8 10  1  0  0  0  0
  9  8  2  0  0  0  0
 10 13  1  0  0  0  0
 13 11  2  0  0  0  0
 13 12  1  0  0  0  0
 14 15  1  1  0  0  0
 14  4  1  0  0  0  0
 16 20  1  0  0  0  0
 17 18  1  0  0  0  0
 18 22  1  0  0  0  0
 18 14  1  1  0  0  0
 19 17  2  0  0  0  0
 20 22  2  0  0  0  0
 21 16  2  0  0  0  0
 21 17  1  0  0  0  0
 23 26  1  6  0  0  0
 24 23  1  0  0  0  0
 25 16  1  1  0  0  0
 25 24  1  0  0  0  0
 25 23  1  0  0  0  0
 28 27  1  6  0  0  0
 28 31  1  0  0  0  0
 29 34  1  1  0  0  0
 29 32  1  0  0  0  0
 30 29  1  0  0  0  0
 31 32  1  0  0  0  0
 33 30  1  6  0  0  0
 33 28  1  0  0  0  0
 33 29  1  0  0  0  0
 34 36  1  0  0  0  0
 35 34  2  0  0  0  0
M  END
>  <MODEL>
2

>  <REMARK>
 VINA RESULT:      -8.6      2.356      5.728
  Name = 
  9 active torsions:
  status: ('A' for Active; 'I' for Inactive)
    1  A    between atoms: C_3  and  C_5
    2  A    between atoms: N_4  and  C_23
    3  A    between atoms: C_6  and  O_26
    4  A    between atoms: C_10  and  C_12
    5  A    between atoms: C_10  and  C_21
    6  A    between atoms: C_13  and  O_26
    7  A    between atoms: C_14  and  C_15
    8  A    between atoms: C_22  and  O_25
    9  A    between atoms: O_25  and  C_35
                            x       y       z     vdW  Elec       q    Type
                         _______ _______ _______ _____ _____    ______ ____

>  <TORSDO>
F 9

$$$$
=
 OpenBabel11042411323D

 36 40  0  0  1  0  0  0  0  0999 V2000
  184.0730  179.4110  143.4010 C   0  0  0  0  0  3  0  0  0  0  0  0
  186.4100  177.9970  143.9590 C   0  0  0  0  0  3  0  0  0  0  0  0
  186.0950  178.3190  142.6300 C   0  0  0  0  0  0  0  0  0  0  0  0
  185.5640  178.3840  145.0060 C   0  0  0  0  0  0  0  0  0  0  0  0
  184.9180  179.0300  142.3480 C   0  0  0  0  0  0  0  0  0  0  0  0
  184.3930  179.0880  144.7210 C   0  0  0  0  0  3  0  0  0  0  0  0
  184.6090  179.3530  140.9830 N   0  0  0  0  0  2  0  0  0  0  0  0
  183.7740  178.6090  140.0830 C   0  0  0  0  0  0  0  0  0  0  0  0
  183.2180  177.5430  140.4590 O   0  0  0  0  0  0  0  0  0  0  0  0
  183.5540  179.0500  138.7720 O   0  0  0  0  0  0  0  0  0  0  0  0
  181.5780  178.8300  137.5700 O   0  0  0  0  0  0  0  0  0  0  0  0
  181.9640  180.8440  138.5770 O   0  0  0  0  0  1  0  0  0  0  0  0
  182.3400  179.5420  138.2770 C   0  0  0  0  0  0  0  0  0  0  0  0
  185.8800  178.0280  146.4260 C   0  0  2  0  0  3  0  0  0  0  0  0
  185.4030  179.0080  147.3020 O   0  0  0  0  0  1  0  0  0  0  0  0
  190.0600  177.3030  147.0290 C   0  0  0  0  0  0  0  0  0  0  0  0
  187.9320  177.9240  147.8970 C   0  0  0  0  0  0  0  0  0  0  0  0
  187.3510  177.7980  146.6240 C   0  0  1  0  0  3  0  0  0  0  0  0
  187.2340  178.2620  148.8900 O   0  0  0  0  0  0  0  0  0  0  0  0
  189.5210  177.1710  145.7460 C   0  0  0  0  0  3  0  0  0  0  0  0
  189.2610  177.6830  148.0640 N   0  0  0  0  0  0  0  0  0  0  0  0
  188.1620  177.4140  145.5480 C   0  0  0  0  0  3  0  0  0  0  0  0
  191.7810  175.6580  147.5970 C   0  0  2  0  0  3  0  0  0  0  0  0
  192.0110  176.1600  146.3050 O   0  0  0  0  0  0  0  0  0  0  0  0
  191.5200  177.0760  147.2550 C   0  0  1  0  0  3  0  0  0  0  0  0
  193.1020  175.5460  148.3270 C   0  0  0  0  0  1  0  0  0  0  0  0
  186.9320  177.9350  141.5740 O   0  0  0  0  0  0  0  0  0  0  0  0
  188.1560  178.5980  141.2630 C   0  0  2  0  0  3  0  0  0  0  0  0
  190.1560  177.2410  141.1430 C   0  0  1  0  0  0  0  0  0  0  0  0
  189.3040  176.5100  142.1510 C   0  0  0  0  0  2  0  0  0  0  0  0
  188.5130  178.4060  139.7950 C   0  0  0  0  0  2  0  0  0  0  0  0
  189.6140  177.3670  139.7360 C   0  0  0  0  0  2  0  0  0  0  0  0
  189.3020  178.0400  142.1030 C   0  0  2  0  0  3  0  0  0  0  0  0
  191.6210  177.3240  141.4060 C   0  0  0  0  0  0  0  0  0  0  0  0
  192.0580  177.2580  142.5860 O   0  0  0  0  0  1  0  0  0  0  0  0
  192.5080  177.5100  140.3530 O   0  0  0  0  0  0  0  0  0  0  0  0
  1  6  1  0  0  0  0
  2  4  1  0  0  0  0
  3  2  2  0  0  0  0
  4 14  1  0  0  0  0
  5  3  1  0  0  0  0
  5  1  2  0  0  0  0
  6  4  2  0  0  0  0
  7  5  1  0  0  0  0
  8  9  2  0  0  0  0
  8  7  1  0  0  0  0
 10  8  1  0  0  0  0
 11 13  2  0  0  0  0
 13 12  1  0  0  0  0
 13 10  1  0  0  0  0
 14 15  1  1  0  0  0
 16 21  2  0  0  0  0
 17 21  1  0  0  0  0
 17 19  2  0  0  0  0
 18 14  1  1  0  0  0
 18 17  1  0  0  0  0
 20 16  1  0  0  0  0
 22 20  2  0  0  0  0
 22 18  1  0  0  0  0
 23 26  1  1  0  0  0
 24 25  1  0  0  0  0
 24 23  1  0  0  0  0
 25 16  1  6  0  0  0
 25 23  1  0  0  0  0
 27  3  1  0  0  0  0
 28 27  1  1  0  0  0
 28 33  1  0  0  0  0
 29 34  1  1  0  0  0
 29 33  1  0  0  0  0
 29 30  1  0  0  0  0
 31 28  1  0  0  0  0
 32 31  1  0  0  0  0
 32 29  1  0  0  0  0
 33 30  1  1  0  0  0
 34 35  1  0  0  0  0
 36 34  2  0  0  0  0
M  END
>  <MODEL>
3

>  <REMARK>
 VINA RESULT:      -8.6      2.754      7.160
  Name = 
  9 active torsions:
  status: ('A' for Active; 'I' for Inactive)
    1  A    between atoms: C_3  and  C_5
    2  A    between atoms: N_4  and  C_23
    3  A    between atoms: C_6  and  O_26
    4  A    between atoms: C_10  and  C_12
    5  A    between atoms: C_10  and  C_21
    6  A    between atoms: C_13  and  O_26
    7  A    between atoms: C_14  and  C_15
    8  A    between atoms: C_22  and  O_25
    9  A    between atoms: O_25  and  C_35
                            x       y       z     vdW  Elec       q    Type
                         _______ _______ _______ _____ _____    ______ ____

>  <TORSDO>
F 9

$$$$
=
 OpenBabel11042411323D

 36 40  0  0  1  0  0  0  0  0999 V2000
  183.9290  178.5840  144.9470 C   0  0  0  0  0  3  0  0  0  0  0  0
  184.8770  178.2170  142.3510 C   0  0  0  0  0  3  0  0  0  0  0  0
  185.7010  177.9000  143.4410 C   0  0  0  0  0  0  0  0  0  0  0  0
  183.5820  178.7100  142.5550 C   0  0  0  0  0  0  0  0  0  0  0  0
  185.2240  178.0840  144.7480 C   0  0  0  0  0  0  0  0  0  0  0  0
  183.1140  178.8970  143.8570 C   0  0  0  0  0  3  0  0  0  0  0  0
  186.0800  177.7560  145.8550 N   0  0  0  0  0  2  0  0  0  0  0  0
  186.2910  178.5250  147.0480 C   0  0  0  0  0  0  0  0  0  0  0  0
  185.6960  179.6230  147.2140 O   0  0  0  0  0  0  0  0  0  0  0  0
  187.1550  178.0740  148.0540 O   0  0  0  0  0  0  0  0  0  0  0  0
  189.3890  178.5260  148.5030 O   0  0  0  0  0  1  0  0  0  0  0  0
  188.9440  176.8130  147.0580 O   0  0  0  0  0  0  0  0  0  0  0  0
  188.5260  177.8370  147.8970 C   0  0  0  0  0  0  0  0  0  0  0  0
  182.7010  179.0710  141.4000 C   0  0  2  0  0  3  0  0  0  0  0  0
  181.3540  178.8860  141.7240 O   0  0  0  0  0  1  0  0  0  0  0  0
  183.8250  176.8700  137.8990 C   0  0  0  0  0  0  0  0  0  0  0  0
  183.8950  178.8740  139.1810 C   0  0  0  0  0  0  0  0  0  0  0  0
  183.0690  178.3020  140.1620 C   0  0  0  0  0  0  0  0  0  0  0  0
  184.3180  180.0540  139.3070 O   0  0  0  0  0  0  0  0  0  0  0  0
  182.9970  176.2660  138.8500 C   0  0  0  0  0  2  0  0  0  0  0  0
  184.2430  178.1520  138.0810 N   0  0  0  0  0  0  0  0  0  0  0  0
  182.6260  176.9840  139.9860 C   0  0  0  0  0  3  0  0  0  0  0  0
  185.5670  175.5490  136.7980 C   0  0  2  0  0  3  0  0  0  0  0  0
  184.4120  174.7660  136.9670 O   0  0  0  0  0  0  0  0  0  0  0  0
  184.2090  176.1250  136.6610 C   0  0  1  0  0  3  0  0  0  0  0  0
  186.1490  175.2840  135.4260 C   0  0  0  0  0  1  0  0  0  0  0  0
  186.9990  177.4070  143.2490 O   0  0  0  0  0  0  0  0  0  0  0  0
  188.0920  178.2200  142.8280 C   0  0  2  0  0  3  0  0  0  0  0  0
  190.0460  177.0910  141.9540 C   0  0  1  0  0  0  0  0  0  0  0  0
  189.4820  176.0930  142.9360 C   0  0  0  0  0  2  0  0  0  0  0  0
  188.0940  178.3760  141.3130 C   0  0  0  0  0  2  0  0  0  0  0  0
  189.1800  177.4680  140.7730 C   0  0  0  0  0  2  0  0  0  0  0  0
  189.4220  177.5920  143.2380 C   0  0  2  0  0  3  0  0  0  0  0  0
  191.5280  177.2360  141.8920 C   0  0  0  0  0  0  0  0  0  0  0  0
  192.2210  177.1290  142.9380 O   0  0  0  0  0  1  0  0  0  0  0  0
  192.1480  177.5270  140.6830 O   0  0  0  0  0  0  0  0  0  0  0  0
  2  4  2  0  0  0  0
  2  3  1  0  0  0  0
  3  5  2  0  0  0  0
  4  6  1  0  0  0  0
  5  1  1  0  0  0  0
  5  7  1  0  0  0  0
  6  1  2  0  0  0  0
  7  8  1  0  0  0  0
  8  9  2  0  0  0  0
  8 10  1  0  0  0  0
 12 13  2  0  0  0  0
 13 10  1  0  0  0  0
 13 11  1  0  0  0  0
 14 15  1  1  0  0  0
 14  4  1  0  0  0  0
 16 21  2  0  0  0  0
 16 20  1  0  0  0  0
 17 19  2  0  0  0  0
 17 18  1  0  0  0  0
 18 14  1  0  0  0  0
 20 22  1  0  0  0  0
 21 17  1  0  0  0  0
 22 18  2  0  0  0  0
 23 26  1  6  0  0  0
 23 24  1  0  0  0  0
 25 23  1  0  0  0  0
 25 24  1  0  0  0  0
 25 16  1  1  0  0  0
 27  3  1  0  0  0  0
 28 33  1  0  0  0  0
 28 27  1  6  0  0  0
 29 34  1  6  0  0  0
 29 30  1  0  0  0  0
 29 33  1  0  0  0  0
 31 28  1  0  0  0  0
 32 31  1  0  0  0  0
 32 29  1  0  0  0  0
 33 30  1  1  0  0  0
 34 35  1  0  0  0  0
 36 34  2  0  0  0  0
M  END
>  <MODEL>
4

>  <REMARK>
 VINA RESULT:      -8.5      2.900      4.619
  Name = 
  9 active torsions:
  status: ('A' for Active; 'I' for Inactive)
    1  A    between atoms: C_3  and  C_5
    2  A    between atoms: N_4  and  C_23
    3  A    between atoms: C_6  and  O_26
    4  A    between atoms: C_10  and  C_12
    5  A    between atoms: C_10  and  C_21
    6  A    between atoms: C_13  and  O_26
    7  A    between atoms: C_14  and  C_15
    8  A    between atoms: C_22  and  O_25
    9  A    between atoms: O_25  and  C_35
                            x       y       z     vdW  Elec       q    Type
                         _______ _______ _______ _____ _____    ______ ____

>  <TORSDO>
F 9

$$$$
=
 OpenBabel11042411323D

 36 40  0  0  1  0  0  0  0  0999 V2000
  183.3590  179.3690  144.1310 C   0  0  0  0  0  3  0  0  0  0  0  0
  184.1190  177.8810  141.8980 C   0  0  0  0  0  3  0  0  0  0  0  0
  185.0480  178.1150  142.9240 C   0  0  0  0  0  0  0  0  0  0  0  0
  182.8150  178.3840  141.9890 C   0  0  0  0  0  0  0  0  0  0  0  0
  184.6660  178.8640  144.0490 C   0  0  0  0  0  0  0  0  0  0  0  0
  182.4410  179.1320  143.1060 C   0  0  0  0  0  3  0  0  0  0  0  0
  185.6270  179.0960  145.0910 N   0  0  0  0  0  2  0  0  0  0  0  0
  185.4960  178.7650  146.4820 C   0  0  0  0  0  0  0  0  0  0  0  0
  184.4510  178.2100  146.9120 O   0  0  0  0  0  0  0  0  0  0  0  0
  186.5250  179.0450  147.3890 O   0  0  0  0  0  0  0  0  0  0  0  0
  187.9160  177.9520  148.8960 O   0  0  0  0  0  1  0  0  0  0  0  0
  188.2830  177.5670  146.6740 O   0  0  0  0  0  0  0  0  0  0  0  0
  187.5850  178.1840  147.7030 C   0  0  0  0  0  0  0  0  0  0  0  0
  181.8220  178.1580  140.8910 C   0  0  2  0  0  3  0  0  0  0  0  0
  182.1870  177.0580  140.1080 O   0  0  0  0  0  1  0  0  0  0  0  0
  181.3300  181.7070  138.5410 C   0  0  0  0  0  0  0  0  0  0  0  0
  180.5150  180.2080  140.2000 C   0  0  0  0  0  0  0  0  0  0  0  0
  181.6450  179.3870  140.0450 C   0  0  0  0  0  0  0  0  0  0  0  0
  179.6170  179.9120  141.0330 O   0  0  0  0  0  0  0  0  0  0  0  0
  182.4650  180.9150  138.3520 C   0  0  0  0  0  2  0  0  0  0  0  0
  180.3850  181.3330  139.4470 N   0  0  0  0  0  0  0  0  0  0  0  0
  182.6230  179.7560  139.1120 C   0  0  0  0  0  3  0  0  0  0  0  0
  180.5110  182.5980  136.4130 C   0  0  2  0  0  3  0  0  0  0  0  0
  179.7560  183.1290  137.4730 O   0  0  0  0  0  0  0  0  0  0  0  0
  181.1300  182.9370  137.7150 C   0  0  1  0  0  3  0  0  0  0  0  0
  180.7980  183.6950  135.4110 C   0  0  0  0  0  1  0  0  0  0  0  0
  186.3560  177.6200  142.8450 O   0  0  0  0  0  0  0  0  0  0  0  0
  187.4760  178.4200  142.4730 C   0  0  2  0  0  3  0  0  0  0  0  0
  189.5430  177.2690  141.9610 C   0  0  1  0  0  0  0  0  0  0  0  0
  188.8830  176.3610  142.9690 C   0  0  0  0  0  2  0  0  0  0  0  0
  187.6590  178.4190  140.9600 C   0  0  0  0  0  2  0  0  0  0  0  0
  188.8190  177.4960  140.6510 C   0  0  0  0  0  2  0  0  0  0  0  0
  188.7590  177.8800  143.1010 C   0  0  2  0  0  3  0  0  0  0  0  0
  191.0190  177.4550  142.0590 C   0  0  0  0  0  0  0  0  0  0  0  0
  191.5670  177.5990  143.1840 O   0  0  0  0  0  1  0  0  0  0  0  0
  191.7910  177.5050  140.9060 O   0  0  0  0  0  0  0  0  0  0  0  0
  2  4  2  0  0  0  0
  2  3  1  0  0  0  0
  3  5  2  0  0  0  0
  4  6  1  0  0  0  0
  5  1  1  0  0  0  0
  5  7  1  0  0  0  0
  6  1  2  0  0  0  0
  7  8  1  0  0  0  0
  8  9  2  0  0  0  0
  8 10  1  0  0  0  0
 10 13  1  0  0  0  0
 12 13  2  0  0  0  0
 13 11  1  0  0  0  0
 14 15  1  6  0  0  0
 14  4  1  0  0  0  0
 16 21  2  0  0  0  0
 17 19  2  0  0  0  0
 18 17  1  0  0  0  0
 18 14  1  0  0  0  0
 20 16  1  0  0  0  0
 20 22  1  0  0  0  0
 21 17  1  0  0  0  0
 22 18  2  0  0  0  0
 23 26  1  6  0  0  0
 23 24  1  0  0  0  0
 23 25  1  0  0  0  0
 24 25  1  0  0  0  0
 25 16  1  1  0  0  0
 27  3  1  0  0  0  0
 28 27  1  6  0  0  0
 28 33  1  0  0  0  0
 29 34  1  1  0  0  0
 29 30  1  0  0  0  0
 29 33  1  0  0  0  0
 31 28  1  0  0  0  0
 32 31  1  0  0  0  0
 32 29  1  0  0  0  0
 33 30  1  1  0  0  0
 34 35  1  0  0  0  0
 36 34  2  0  0  0  0
M  END
>  <MODEL>
5

>  <REMARK>
 VINA RESULT:      -8.3      3.465      6.739
  Name = 
  9 active torsions:
  status: ('A' for Active; 'I' for Inactive)
    1  A    between atoms: C_3  and  C_5
    2  A    between atoms: N_4  and  C_23
    3  A    between atoms: C_6  and  O_26
    4  A    between atoms: C_10  and  C_12
    5  A    between atoms: C_10  and  C_21
    6  A    between atoms: C_13  and  O_26
    7  A    between atoms: C_14  and  C_15
    8  A    between atoms: C_22  and  O_25
    9  A    between atoms: O_25  and  C_35
                            x       y       z     vdW  Elec       q    Type
                         _______ _______ _______ _____ _____    ______ ____

>  <TORSDO>
F 9

$$$$
=
 OpenBabel11042411323D

 36 40  0  0  1  0  0  0  0  0999 V2000
  186.0390  177.6450  144.6730 C   0  0  0  0  0  3  0  0  0  0  0  0
  186.4000  178.6570  142.1000 C   0  0  0  0  0  3  0  0  0  0  0  0
  187.5050  178.1680  142.8140 C   0  0  0  0  0  0  0  0  0  0  0  0
  185.1190  178.6360  142.6660 C   0  0  0  0  0  0  0  0  0  0  0  0
  187.3240  177.6590  144.1090 C   0  0  0  0  0  0  0  0  0  0  0  0
  184.9440  178.1330  143.9570 C   0  0  0  0  0  3  0  0  0  0  0  0
  188.4640  177.1620  144.8280 N   0  0  0  0  0  2  0  0  0  0  0  0
  188.7820  177.3800  146.2100 C   0  0  0  0  0  0  0  0  0  0  0  0
  188.0260  178.0760  146.9390 O   0  0  0  0  0  0  0  0  0  0  0  0
  189.9330  176.8230  146.7830 O   0  0  0  0  0  0  0  0  0  0  0  0
  192.0610  175.9370  146.4960 O   0  0  0  0  0  1  0  0  0  0  0  0
  191.5240  177.7770  145.2510 O   0  0  0  0  0  0  0  0  0  0  0  0
  191.2040  176.8090  146.1940 C   0  0  0  0  0  0  0  0  0  0  0  0
  183.9360  179.1740  141.9220 C   0  0  2  0  0  3  0  0  0  0  0  0
  182.7950  179.1680  142.7300 O   0  0  0  0  0  1  0  0  0  0  0  0
  183.3320  177.0110  138.2720 C   0  0  0  0  0  0  0  0  0  0  0  0
  184.0510  178.9770  139.4050 C   0  0  0  0  0  0  0  0  0  0  0  0
  183.6970  178.4190  140.6450 C   0  0  0  0  0  0  0  0  0  0  0  0
  184.5480  180.1330  139.3400 O   0  0  0  0  0  0  0  0  0  0  0  0
  182.9630  176.4220  139.4850 C   0  0  0  0  0  2  0  0  0  0  0  0
  183.8550  178.2680  138.2600 N   0  0  0  0  0  0  0  0  0  0  0  0
  183.1530  177.1280  140.6720 C   0  0  0  0  0  3  0  0  0  0  0  0
  184.2890  175.4520  136.6450 C   0  0  2  0  0  3  0  0  0  0  0  0
  183.1350  174.8920  137.2190 O   0  0  0  0  0  0  0  0  0  0  0  0
  183.1090  176.2800  136.9870 C   0  0  1  0  0  3  0  0  0  0  0  0
  184.2940  175.1620  135.1600 C   0  0  0  0  0  1  0  0  0  0  0  0
  188.7910  178.1860  142.2590 O   0  0  0  0  0  0  0  0  0  0  0  0
  189.4220  177.0320  141.7040 C   0  0  2  0  0  3  0  0  0  0  0  0
  190.4120  177.2560  139.5070 C   0  0  1  0  0  0  0  0  0  0  0  0
  189.2730  178.2460  139.4740 C   0  0  0  0  0  2  0  0  0  0  0  0
  190.9330  177.1160  141.8690 C   0  0  0  0  0  2  0  0  0  0  0  0
  191.5100  177.4930  140.5200 C   0  0  0  0  0  2  0  0  0  0  0  0
  189.1180  176.9150  140.2120 C   0  0  2  0  0  3  0  0  0  0  0  0
  190.6700  176.4580  138.2740 C   0  0  0  0  0  0  0  0  0  0  0  0
  190.7540  177.0300  137.1550 O   0  0  0  0  0  0  0  0  0  0  0  0
  190.7820  175.0760  138.3510 O   0  0  0  0  0  1  0  0  0  0  0  0
  2  4  2  0  0  0  0
  2  3  1  0  0  0  0
  3  5  2  0  0  0  0
  4  6  1  0  0  0  0
  5  1  1  0  0  0  0
  5  7  1  0  0  0  0
  6  1  2  0  0  0  0
  7  8  1  0  0  0  0
  8 10  1  0  0  0  0
  8  9  2  0  0  0  0
 12 13  2  0  0  0  0
 13 11  1  0  0  0  0
 13 10  1  0  0  0  0
 14  4  1  0  0  0  0
 14 15  1  1  0  0  0
 16 20  1  0  0  0  0
 17 18  1  0  0  0  0
 18 22  2  0  0  0  0
 18 14  1  0  0  0  0
 19 17  2  0  0  0  0
 20 22  1  0  0  0  0
 21 16  2  0  0  0  0
 21 17  1  0  0  0  0
 23 26  1  6  0  0  0
 23 25  1  0  0  0  0
 23 24  1  0  0  0  0
 25 24  1  0  0  0  0
 25 16  1  1  0  0  0
 27  3  1  0  0  0  0
 28 31  1  0  0  0  0
 28 27  1  6  0  0  0
 29 34  1  6  0  0  0
 29 33  1  0  0  0  0
 29 32  1  0  0  0  0
 30 29  1  0  0  0  0
 32 31  1  0  0  0  0
 33 30  1  6  0  0  0
 33 28  1  0  0  0  0
 34 36  1  0  0  0  0
 35 34  2  0  0  0  0
M  END
>  <MODEL>
6

>  <REMARK>
 VINA RESULT:      -8.2      2.409      5.668
  Name = 
  9 active torsions:
  status: ('A' for Active; 'I' for Inactive)
    1  A    between atoms: C_3  and  C_5
    2  A    between atoms: N_4  and  C_23
    3  A    between atoms: C_6  and  O_26
    4  A    between atoms: C_10  and  C_12
    5  A    between atoms: C_10  and  C_21
    6  A    between atoms: C_13  and  O_26
    7  A    between atoms: C_14  and  C_15
    8  A    between atoms: C_22  and  O_25
    9  A    between atoms: O_25  and  C_35
                            x       y       z     vdW  Elec       q    Type
                         _______ _______ _______ _____ _____    ______ ____

>  <TORSDO>
F 9

$$$$
=
 OpenBabel11042411323D

 36 40  0  0  1  0  0  0  0  0999 V2000
  190.7760  177.3680  140.2980 C   0  0  0  0  0  3  0  0  0  0  0  0
  188.0880  178.0940  140.1520 C   0  0  0  0  0  3  0  0  0  0  0  0
  188.6880  177.9060  141.4060 C   0  0  0  0  0  0  0  0  0  0  0  0
  188.8280  177.9250  138.9750 C   0  0  0  0  0  0  0  0  0  0  0  0
  190.0410  177.5400  141.4810 C   0  0  0  0  0  0  0  0  0  0  0  0
  190.1720  177.5570  139.0530 C   0  0  0  0  0  3  0  0  0  0  0  0
  190.6420  177.3510  142.7720 N   0  0  0  0  0  2  0  0  0  0  0  0
  190.8770  176.1060  143.4470 C   0  0  0  0  0  0  0  0  0  0  0  0
  190.5440  175.0160  142.9110 O   0  0  0  0  0  0  0  0  0  0  0  0
  191.4830  176.0730  144.7090 O   0  0  0  0  0  0  0  0  0  0  0  0
  191.8510  177.1370  146.7420 O   0  0  0  0  0  1  0  0  0  0  0  0
  189.7080  177.1240  145.9470 O   0  0  0  0  0  0  0  0  0  0  0  0
  191.0500  176.7870  145.8340 C   0  0  0  0  0  0  0  0  0  0  0  0
  188.1930  178.1030  137.6310 C   0  0  2  0  0  3  0  0  0  0  0  0
  188.2820  179.4340  137.2110 O   0  0  0  0  0  1  0  0  0  0  0  0
  184.1420  176.7060  137.6770 C   0  0  0  0  0  0  0  0  0  0  0  0
  186.4430  176.3330  137.1950 C   0  0  0  0  0  0  0  0  0  0  0  0
  186.7670  177.6300  137.6260 C   0  0  1  0  0  3  0  0  0  0  0  0
  187.3400  175.5530  136.7780 O   0  0  0  0  0  0  0  0  0  0  0  0
  184.4220  178.0050  138.1090 C   0  0  0  0  0  3  0  0  0  0  0  0
  185.1500  175.9100  137.2250 N   0  0  0  0  0  0  0  0  0  0  0  0
  185.7400  178.4630  138.0880 C   0  0  0  0  0  3  0  0  0  0  0  0
  182.2010  176.1130  139.0450 C   0  0  2  0  0  3  0  0  0  0  0  0
  181.8780  177.1900  138.2020 O   0  0  0  0  0  0  0  0  0  0  0  0
  182.7330  176.2080  137.6650 C   0  0  1  0  0  3  0  0  0  0  0  0
  181.0390  175.1430  139.0760 C   0  0  0  0  0  1  0  0  0  0  0  0
  187.9570  178.0700  142.5910 O   0  0  0  0  0  0  0  0  0  0  0  0
  186.5560  177.8190  142.6890 C   0  0  2  0  0  3  0  0  0  0  0  0
  185.3710  178.8420  144.5350 C   0  0  1  0  0  0  0  0  0  0  0  0
  186.7610  178.6400  145.0870 C   0  0  0  0  0  2  0  0  0  0  0  0
  185.7600  178.9990  142.1480 C   0  0  0  0  0  2  0  0  0  0  0  0
  185.2250  179.7620  143.3420 C   0  0  0  0  0  2  0  0  0  0  0  0
  186.1470  177.6030  144.1440 C   0  0  2  0  0  3  0  0  0  0  0  0
  184.2200  178.5860  145.4480 C   0  0  0  0  0  0  0  0  0  0  0  0
  184.4220  178.2740  146.6510 O   0  0  0  0  0  1  0  0  0  0  0  0
  182.9200  178.6550  144.9630 O   0  0  0  0  0  0  0  0  0  0  0  0
  1  5  1  0  0  0  0
  2  3  1  0  0  0  0
  3  5  2  0  0  0  0
  3 27  1  0  0  0  0
  4  6  1  0  0  0  0
  4  2  2  0  0  0  0
  5  7  1  0  0  0  0
  6  1  2  0  0  0  0
  7  8  1  0  0  0  0
  8 10  1  0  0  0  0
  9  8  2  0  0  0  0
 10 13  1  0  0  0  0
 13 12  2  0  0  0  0
 13 11  1  0  0  0  0
 14 15  1  1  0  0  0
 14  4  1  0  0  0  0
 16 20  1  0  0  0  0
 17 21  1  0  0  0  0
 17 18  1  0  0  0  0
 18 14  1  1  0  0  0
 18 22  1  0  0  0  0
 19 17  2  0  0  0  0
 21 16  2  0  0  0  0
 22 20  2  0  0  0  0
 23 26  1  6  0  0  0
 24 23  1  0  0  0  0
 25 16  1  1  0  0  0
 25 24  1  0  0  0  0
 25 23  1  0  0  0  0
 28 27  1  1  0  0  0
 28 33  1  0  0  0  0
 29 30  1  0  0  0  0
 29 34  1  1  0  0  0
 31 28  1  0  0  0  0
 31 32  1  0  0  0  0
 32 29  1  0  0  0  0
 33 29  1  0  0  0  0
 33 30  1  1  0  0  0
 34 35  1  0  0  0  0
 36 34  2  0  0  0  0
M  END
>  <MODEL>
7

>  <REMARK>
 VINA RESULT:      -8.1      2.376      5.976
  Name = 
  9 active torsions:
  status: ('A' for Active; 'I' for Inactive)
    1  A    between atoms: C_3  and  C_5
    2  A    between atoms: N_4  and  C_23
    3  A    between atoms: C_6  and  O_26
    4  A    between atoms: C_10  and  C_12
    5  A    between atoms: C_10  and  C_21
    6  A    between atoms: C_13  and  O_26
    7  A    between atoms: C_14  and  C_15
    8  A    between atoms: C_22  and  O_25
    9  A    between atoms: O_25  and  C_35
                            x       y       z     vdW  Elec       q    Type
                         _______ _______ _______ _____ _____    ______ ____

>  <TORSDO>
F 9

$$$$
=
 OpenBabel11042411323D

 36 40  0  0  1  0  0  0  0  0999 V2000
  188.0300  177.6870  139.2890 C   0  0  0  0  0  3  0  0  0  0  0  0
  187.6510  178.5100  141.9260 C   0  0  0  0  0  3  0  0  0  0  0  0
  188.8700  177.9240  141.5510 C   0  0  0  0  0  0  0  0  0  0  0  0
  186.6270  178.6890  140.9880 C   0  0  0  0  0  0  0  0  0  0  0  0
  189.0610  177.5090  140.2230 C   0  0  0  0  0  0  0  0  0  0  0  0
  186.8200  178.2710  139.6700 C   0  0  0  0  0  3  0  0  0  0  0  0
  190.3140  176.9110  139.8540 N   0  0  0  0  0  2  0  0  0  0  0  0
  190.7280  176.5030  138.5410 C   0  0  0  0  0  0  0  0  0  0  0  0
  189.9610  176.6530  137.5540 O   0  0  0  0  0  0  0  0  0  0  0  0
  191.9910  175.9370  138.3270 O   0  0  0  0  0  0  0  0  0  0  0  0
  193.6550  177.1250  139.4290 O   0  0  0  0  0  1  0  0  0  0  0  0
  193.9370  176.7750  137.1880 O   0  0  0  0  0  0  0  0  0  0  0  0
  193.2060  176.6320  138.3600 C   0  0  0  0  0  0  0  0  0  0  0  0
  185.3150  179.2940  141.3810 C   0  0  2  0  0  3  0  0  0  0  0  0
  185.0840  179.1340  142.7510 O   0  0  0  0  0  1  0  0  0  0  0  0
  182.1320  177.6650  139.0190 C   0  0  0  0  0  0  0  0  0  0  0  0
  183.7080  179.4000  139.4340 C   0  0  0  0  0  0  0  0  0  0  0  0
  184.1810  178.7290  140.5730 C   0  0  0  0  0  0  0  0  0  0  0  0
  184.2070  180.5040  139.0870 O   0  0  0  0  0  0  0  0  0  0  0  0
  182.5720  176.9680  140.1480 C   0  0  0  0  0  2  0  0  0  0  0  0
  182.7000  178.8600  138.6970 N   0  0  0  0  0  0  0  0  0  0  0  0
  183.6030  177.5010  140.9210 C   0  0  0  0  0  3  0  0  0  0  0  0
  181.5190  176.1930  137.1630 C   0  0  2  0  0  3  0  0  0  0  0  0
  180.9340  175.7270  138.3520 O   0  0  0  0  0  0  0  0  0  0  0  0
  181.0090  177.1240  138.1960 C   0  0  1  0  0  3  0  0  0  0  0  0
  180.5120  176.0780  136.0380 C   0  0  0  0  0  1  0  0  0  0  0  0
  189.9010  177.7380  142.4810 O   0  0  0  0  0  0  0  0  0  0  0  0
  189.9270  176.6630  143.4180 C   0  0  2  0  0  3  0  0  0  0  0  0
  190.9130  177.1010  145.5850 C   0  0  1  0  0  0  0  0  0  0  0  0
  191.6670  178.0330  144.6680 C   0  0  0  0  0  2  0  0  0  0  0  0
  188.8010  176.8080  144.4340 C   0  0  0  0  0  2  0  0  0  0  0  0
  189.4220  177.3150  145.7190 C   0  0  0  0  0  2  0  0  0  0  0  0
  191.2490  176.6430  144.1820 C   0  0  2  0  0  3  0  0  0  0  0  0
  191.6860  176.4130  146.6580 C   0  0  0  0  0  0  0  0  0  0  0  0
  192.2040  175.2850  146.4440 O   0  0  0  0  0  0  0  0  0  0  0  0
  191.8060  176.9980  147.9120 O   0  0  0  0  0  1  0  0  0  0  0  0
  1  6  2  0  0  0  0
  1  5  1  0  0  0  0
  3  2  1  0  0  0  0
  3 27  1  0  0  0  0
  4 14  1  0  0  0  0
  4  2  2  0  0  0  0
  5  3  2  0  0  0  0
  6  4  1  0  0  0  0
  7  5  1  0  0  0  0
  8  7  1  0  0  0  0
  9  8  2  0  0  0  0
 10 13  1  0  0  0  0
 10  8  1  0  0  0  0
 12 13  2  0  0  0  0
 13 11  1  0  0  0  0
 14 15  1  1  0  0  0
 16 20  1  0  0  0  0
 17 18  1  0  0  0  0
 18 22  2  0  0  0  0
 18 14  1  0  0  0  0
 19 17  2  0  0  0  0
 20 22  1  0  0  0  0
 21 16  2  0  0  0  0
 21 17  1  0  0  0  0
 23 26  1  6  0  0  0
 23 25  1  0  0  0  0
 23 24  1  0  0  0  0
 25 24  1  0  0  0  0
 25 16  1  1  0  0  0
 28 27  1  6  0  0  0
 28 33  1  0  0  0  0
 28 31  1  0  0  0  0
 29 32  1  0  0  0  0
 29 34  1  1  0  0  0
 30 29  1  0  0  0  0
 31 32  1  0  0  0  0
 33 30  1  6  0  0  0
 33 29  1  0  0  0  0
 34 36  1  0  0  0  0
 35 34  2  0  0  0  0
M  END
>  <MODEL>
8

>  <REMARK>
 VINA RESULT:      -7.9      2.692      6.820
  Name = 
  9 active torsions:
  status: ('A' for Active; 'I' for Inactive)
    1  A    between atoms: C_3  and  C_5
    2  A    between atoms: N_4  and  C_23
    3  A    between atoms: C_6  and  O_26
    4  A    between atoms: C_10  and  C_12
    5  A    between atoms: C_10  and  C_21
    6  A    between atoms: C_13  and  O_26
    7  A    between atoms: C_14  and  C_15
    8  A    between atoms: C_22  and  O_25
    9  A    between atoms: O_25  and  C_35
                            x       y       z     vdW  Elec       q    Type
                         _______ _______ _______ _____ _____    ______ ____

>  <TORSDO>
F 9

$$$$
=
 OpenBabel11042411323D

 36 40  0  0  1  0  0  0  0  0999 V2000
  184.3210  178.7770  140.0140 C   0  0  0  0  0  3  0  0  0  0  0  0
  186.3070  178.6030  141.9630 C   0  0  0  0  0  3  0  0  0  0  0  0
  186.6630  178.5720  140.6060 C   0  0  0  0  0  0  0  0  0  0  0  0
  184.9660  178.7250  142.3450 C   0  0  0  0  0  0  0  0  0  0  0  0
  185.6640  178.6600  139.6240 C   0  0  0  0  0  0  0  0  0  0  0  0
  183.9740  178.8070  141.3660 C   0  0  0  0  0  3  0  0  0  0  0  0
  186.0430  178.6270  138.2380 N   0  0  0  0  0  2  0  0  0  0  0  0
  185.7790  177.5830  137.2900 C   0  0  0  0  0  0  0  0  0  0  0  0
  185.1510  176.5470  137.6380 O   0  0  0  0  0  0  0  0  0  0  0  0
  186.2050  177.6910  135.9610 O   0  0  0  0  0  0  0  0  0  0  0  0
  188.3340  177.5110  135.0460 O   0  0  0  0  0  0  0  0  0  0  0  0
  187.0970  175.5940  135.1890 O   0  0  0  0  0  1  0  0  0  0  0  0
  187.2520  176.9600  135.3850 C   0  0  0  0  0  0  0  0  0  0  0  0
  184.5720  178.7380  143.7900 C   0  0  2  0  0  3  0  0  0  0  0  0
  184.1400  180.0100  144.1770 O   0  0  0  0  0  1  0  0  0  0  0  0
  187.7120  177.3060  146.3310 C   0  0  0  0  0  0  0  0  0  0  0  0
  185.6260  178.4210  146.0650 C   0  0  0  0  0  0  0  0  0  0  0  0
  185.6900  178.2560  144.6720 C   0  0  1  0  0  3  0  0  0  0  0  0
  184.6430  179.0020  146.5980 O   0  0  0  0  0  0  0  0  0  0  0  0
  187.8160  177.1270  144.9490 C   0  0  0  0  0  3  0  0  0  0  0  0
  186.6330  177.9530  146.8520 N   0  0  0  0  0  0  0  0  0  0  0  0
  186.7970  177.5990  144.1210 C   0  0  0  0  0  3  0  0  0  0  0  0
  190.1110  177.3960  146.8080 C   0  0  2  0  0  3  0  0  0  0  0  0
  189.3910  177.9340  147.8880 O   0  0  0  0  0  0  0  0  0  0  0  0
  188.8080  176.8340  147.2310 C   0  0  1  0  0  3  0  0  0  0  0  0
  191.2350  176.5340  147.3430 C   0  0  0  0  0  1  0  0  0  0  0  0
  188.0020  178.4490  140.2100 O   0  0  0  0  0  0  0  0  0  0  0  0
  188.7340  177.2270  140.2930 C   0  0  2  0  0  3  0  0  0  0  0  0
  190.7000  177.0140  138.8980 C   0  0  1  0  0  0  0  0  0  0  0  0
  189.8090  177.9340  138.0990 C   0  0  0  0  0  2  0  0  0  0  0  0
  189.9640  177.3980  141.1740 C   0  0  0  0  0  2  0  0  0  0  0  0
  191.1620  177.5000  140.2540 C   0  0  0  0  0  2  0  0  0  0  0  0
  189.2050  176.7850  138.9090 C   0  0  2  0  0  3  0  0  0  0  0  0
  191.4760  175.9830  138.1500 C   0  0  0  0  0  0  0  0  0  0  0  0
  190.9950  174.8330  137.9720 O   0  0  0  0  0  1  0  0  0  0  0  0
  192.7490  176.2780  137.6790 O   0  0  0  0  0  0  0  0  0  0  0  0
  1  6  1  0  0  0  0
  2  4  1  0  0  0  0
  3  2  2  0  0  0  0
  4 14  1  0  0  0  0
  5  1  2  0  0  0  0
  5  3  1  0  0  0  0
  6  4  2  0  0  0  0
  7  5  1  0  0  0  0
  8  9  2  0  0  0  0
  8  7  1  0  0  0  0
 10  8  1  0  0  0  0
 11 13  2  0  0  0  0
 12 13  1  0  0  0  0
 13 10  1  0  0  0  0
 14 15  1  1  0  0  0
 16 21  2  0  0  0  0
 17 19  2  0  0  0  0
 17 21  1  0  0  0  0
 18 14  1  1  0  0  0
 18 17  1  0  0  0  0
 20 16  1  0  0  0  0
 22 18  1  0  0  0  0
 22 20  2  0  0  0  0
 23 25  1  0  0  0  0
 23 26  1  1  0  0  0
 23 24  1  0  0  0  0
 25 16  1  6  0  0  0
 25 24  1  0  0  0  0
 27  3  1  0  0  0  0
 28 27  1  6  0  0  0
 28 31  1  0  0  0  0
 29 34  1  6  0  0  0
 29 33  1  0  0  0  0
 29 32  1  0  0  0  0
 30 29  1  0  0  0  0
 32 31  1  0  0  0  0
 33 30  1  6  0  0  0
 33 28  1  0  0  0  0
 35 34  1  0  0  0  0
 36 34  2  0  0  0  0
M  END
>  <MODEL>
9

>  <REMARK>
 VINA RESULT:      -7.9      2.097      7.558
  Name = 
  9 active torsions:
  status: ('A' for Active; 'I' for Inactive)
    1  A    between atoms: C_3  and  C_5
    2  A    between atoms: N_4  and  C_23
    3  A    between atoms: C_6  and  O_26
    4  A    between atoms: C_10  and  C_12
    5  A    between atoms: C_10  and  C_21
    6  A    between atoms: C_13  and  O_26
    7  A    between atoms: C_14  and  C_15
    8  A    between atoms: C_22  and  O_25
    9  A    between atoms: O_25  and  C_35
                            x       y       z     vdW  Elec       q    Type
                         _______ _______ _______ _____ _____    ______ ____

>  <TORSDO>
F 9

$$$$
