=
 OpenBabel11042412033D

 30 34  0  0  1  0  0  0  0  0999 V2000
  182.0840  179.2270  142.0610 C   0  0  0  0  0  2  0  0  0  0  0  0
  185.4820  178.3500  141.5530 C   0  0  1  0  0  3  0  0  0  0  0  0
  180.9950  178.2860  143.9480 O   0  0  0  0  0  0  0  0  0  0  0  0
  183.1040  178.4910  141.1940 C   0  0  0  0  0  2  0  0  0  0  0  0
  184.8700  179.0640  142.7100 N   0  0  0  0  0  0  0  0  0  0  0  0
  183.2180  178.8830  144.4260 C   0  0  0  0  0  3  0  0  0  0  0  0
  184.4350  179.2060  141.2980 C   0  0  1  0  0  3  0  0  0  0  0  0
  182.0710  178.7570  143.4940 C   0  0  0  0  0  0  0  0  0  0  0  0
  184.4980  179.0740  144.0820 C   0  0  0  0  0  0  0  0  0  0  0  0
  185.8380  177.6510  145.5990 C   0  0  2  0  0  3  0  0  0  0  0  0
  185.5570  179.0760  145.1370 C   0  0  2  0  0  3  0  0  0  0  0  0
  184.9950  178.5770  146.4530 C   0  0  0  0  0  2  0  0  0  0  0  0
  188.7650  177.8120  148.0290 C   0  0  0  0  0  0  0  0  0  0  0  0
  187.4700  177.8940  147.5120 C   0  0  0  0  0  3  0  0  0  0  0  0
  188.2740  177.1150  145.3640 C   0  0  0  0  0  3  0  0  0  0  0  0
  189.8200  177.3820  147.2100 C   0  0  0  0  0  0  0  0  0  0  0  0
  191.2050  177.2860  147.7430 C   0  0  0  0  0  1  0  0  0  0  0  0
  187.2130  177.5300  146.1800 C   0  0  0  0  0  0  0  0  0  0  0  0
  188.9880  178.1500  149.3240 F   0  0  0  0  0  0  0  0  0  0  0  0
  189.5710  177.0380  145.8780 C   0  0  0  0  0  3  0  0  0  0  0  0
  186.7390  178.9960  141.2070 N   0  0  0  0  0  2  0  0  0  0  0  0
  189.3970  177.3100  139.1350 C   0  0  0  0  0  0  0  0  0  0  0  0
  189.7170  176.9660  137.7230 C   0  0  0  0  0  1  0  0  0  0  0  0
  187.3760  178.3710  138.4560 F   0  0  0  0  0  0  0  0  0  0  0  0
  190.0010  177.2380  141.4770 C   0  0  0  0  0  0  0  0  0  0  0  0
  188.2190  178.0030  139.4560 C   0  0  0  0  0  0  0  0  0  0  0  0
  188.8320  177.9240  141.8020 C   0  0  0  0  0  3  0  0  0  0  0  0
  190.9470  176.8330  142.5480 C   0  0  0  0  0  1  0  0  0  0  0  0
  190.2820  176.9290  140.1470 C   0  0  0  0  0  3  0  0  0  0  0  0
  187.9300  178.3080  140.8060 C   0  0  0  0  0  0  0  0  0  0  0  0
  1  8  1  0  0  0  0
  2 21  1  6  0  0  0
  2  5  1  0  0  0  0
  4  1  1  0  0  0  0
  5  9  1  0  0  0  0
  7  4  1  1  0  0  0
  7  2  1  0  0  0  0
  7  5  1  0  0  0  0
  8  3  2  0  0  0  0
  8  6  1  0  0  0  0
  9  6  2  0  0  0  0
 10 18  1  1  0  0  0
 10 12  1  0  0  0  0
 11  9  1  6  0  0  0
 11 10  1  0  0  0  0
 11 12  1  0  0  0  0
 13 19  1  0  0  0  0
 14 13  1  0  0  0  0
 15 20  2  0  0  0  0
 15 18  1  0  0  0  0
 16 17  1  0  0  0  0
 16 13  2  0  0  0  0
 18 14  2  0  0  0  0
 20 16  1  0  0  0  0
 22 26  2  0  0  0  0
 22 29  1  0  0  0  0
 23 22  1  0  0  0  0
 24 26  1  0  0  0  0
 25 27  1  0  0  0  0
 25 28  1  0  0  0  0
 26 30  1  0  0  0  0
 29 25  2  0  0  0  0
 30 21  1  0  0  0  0
 30 27  2  0  0  0  0
M  END
>  <MODEL>
1

>  <REMARK>
 VINA RESULT:     -10.4      0.000      0.000
  Name = 
  4 active torsions:
  status: ('A' for Active; 'I' for Inactive)
    1  A    between atoms: C_3  and  N_23
    2  A    between atoms: C_13  and  C_16
    3  A    between atoms: C_22  and  C_24
    4  A    between atoms: N_23  and  C_30
                            x       y       z     vdW  Elec       q    Type
                         _______ _______ _______ _____ _____    ______ ____

>  <TORSDO>
F 4

$$$$
=
 OpenBabel11042412033D

 30 34  0  0  1  0  0  0  0  0999 V2000
  182.1200  179.2620  142.2540 C   0  0  0  0  0  2  0  0  0  0  0  0
  185.4970  178.3790  141.6300 C   0  0  1  0  0  3  0  0  0  0  0  0
  181.0930  178.3150  144.1720 O   0  0  0  0  0  0  0  0  0  0  0  0
  183.1090  178.5260  141.3510 C   0  0  0  0  0  2  0  0  0  0  0  0
  184.9260  179.0900  142.8100 N   0  0  0  0  0  0  0  0  0  0  0  0
  183.3320  178.9060  144.5790 C   0  0  0  0  0  3  0  0  0  0  0  0
  184.4450  179.2380  141.4130 C   0  0  1  0  0  3  0  0  0  0  0  0
  182.1550  178.7860  143.6850 C   0  0  0  0  0  0  0  0  0  0  0  0
  184.6000  179.0950  144.1930 C   0  0  0  0  0  0  0  0  0  0  0  0
  185.9990  177.6620  145.6450 C   0  0  2  0  0  3  0  0  0  0  0  0
  185.6940  179.0910  145.2120 C   0  0  2  0  0  3  0  0  0  0  0  0
  185.1790  178.5710  146.5390 C   0  0  0  0  0  2  0  0  0  0  0  0
  189.7370  176.9720  145.8780 C   0  0  0  0  0  0  0  0  0  0  0  0
  188.4490  177.1170  145.3570 C   0  0  0  0  0  3  0  0  0  0  0  0
  187.6360  177.7870  147.5370 C   0  0  0  0  0  3  0  0  0  0  0  0
  189.9750  177.2330  147.2360 C   0  0  0  0  0  0  0  0  0  0  0  0
  191.3400  177.0870  147.8090 C   0  0  0  0  0  1  0  0  0  0  0  0
  187.3940  177.5420  146.1800 C   0  0  0  0  0  0  0  0  0  0  0  0
  190.7460  176.5780  145.0610 F   0  0  0  0  0  0  0  0  0  0  0  0
  188.9230  177.6370  148.0630 C   0  0  0  0  0  3  0  0  0  0  0  0
  186.7440  179.0230  141.2450 N   0  0  0  0  0  2  0  0  0  0  0  0
  190.1610  177.4510  141.0300 C   0  0  0  0  0  0  0  0  0  0  0  0
  191.3810  177.2180  141.8510 C   0  0  0  0  0  1  0  0  0  0  0  0
  189.0920  178.5330  142.8620 F   0  0  0  0  0  0  0  0  0  0  0  0
  189.0060  177.2150  138.9180 C   0  0  0  0  0  0  0  0  0  0  0  0
  189.0490  178.1150  141.5700 C   0  0  0  0  0  0  0  0  0  0  0  0
  187.8980  177.8760  139.4470 C   0  0  0  0  0  3  0  0  0  0  0  0
  188.9830  176.7360  137.5120 C   0  0  0  0  0  1  0  0  0  0  0  0
  190.1360  177.0050  139.7070 C   0  0  0  0  0  3  0  0  0  0  0  0
  187.9070  178.3360  140.7670 C   0  0  0  0  0  0  0  0  0  0  0  0
  1  8  1  0  0  0  0
  2 21  1  6  0  0  0
  2  5  1  0  0  0  0
  4  1  1  0  0  0  0
  5  9  1  0  0  0  0
  7  4  1  1  0  0  0
  7  2  1  0  0  0  0
  7  5  1  0  0  0  0
  8  3  2  0  0  0  0
  8  6  1  0  0  0  0
  9  6  2  0  0  0  0
 10 18  1  1  0  0  0
 10 12  1  0  0  0  0
 11  9  1  6  0  0  0
 11 10  1  0  0  0  0
 11 12  1  0  0  0  0
 13 16  1  0  0  0  0
 14 13  2  0  0  0  0
 14 18  1  0  0  0  0
 15 20  1  0  0  0  0
 16 17  1  0  0  0  0
 16 20  2  0  0  0  0
 18 15  2  0  0  0  0
 19 13  1  0  0  0  0
 22 26  1  0  0  0  0
 22 23  1  0  0  0  0
 25 27  2  0  0  0  0
 25 29  1  0  0  0  0
 26 24  1  0  0  0  0
 27 30  1  0  0  0  0
 28 25  1  0  0  0  0
 29 22  2  0  0  0  0
 30 21  1  0  0  0  0
 30 26  2  0  0  0  0
M  END
>  <MODEL>
2

>  <REMARK>
 VINA RESULT:     -10.4      1.281      2.182
  Name = 
  4 active torsions:
  status: ('A' for Active; 'I' for Inactive)
    1  A    between atoms: C_3  and  N_23
    2  A    between atoms: C_13  and  C_16
    3  A    between atoms: C_22  and  C_24
    4  A    between atoms: N_23  and  C_30
                            x       y       z     vdW  Elec       q    Type
                         _______ _______ _______ _____ _____    ______ ____

>  <TORSDO>
F 4

$$$$
=
 OpenBabel11042412033D

 30 34  0  0  1  0  0  0  0  0999 V2000
  190.3630  177.0430  146.7600 C   0  0  0  0  0  2  0  0  0  0  0  0
  189.1130  177.7500  143.5180 C   0  0  1  0  0  3  0  0  0  0  0  0
  189.4290  178.2650  148.5670 O   0  0  0  0  0  0  0  0  0  0  0  0
  190.6420  177.6250  145.3750 C   0  0  0  0  0  2  0  0  0  0  0  0
  188.3770  177.2190  144.7010 N   0  0  0  0  0  0  0  0  0  0  0  0
  187.8040  177.6790  146.9730 C   0  0  0  0  0  3  0  0  0  0  0  0
  189.7860  176.8950  144.3610 C   0  0  1  0  0  3  0  0  0  0  0  0
  189.2040  177.7060  147.4610 C   0  0  0  0  0  0  0  0  0  0  0  0
  187.4080  177.4090  145.7230 C   0  0  0  0  0  0  0  0  0  0  0  0
  185.7070  178.8390  144.6380 C   0  0  2  0  0  3  0  0  0  0  0  0
  185.9620  177.5230  145.3620 C   0  0  2  0  0  3  0  0  0  0  0  0
  185.3230  178.6840  146.0960 C   0  0  0  0  0  2  0  0  0  0  0  0
  183.4380  178.3960  141.6120 C   0  0  0  0  0  0  0  0  0  0  0  0
  184.5810  178.4300  142.4130 C   0  0  0  0  0  3  0  0  0  0  0  0
  183.2350  179.0840  144.3170 C   0  0  0  0  0  3  0  0  0  0  0  0
  182.1870  178.7100  142.1640 C   0  0  0  0  0  0  0  0  0  0  0  0
  180.9570  178.6770  141.3280 C   0  0  0  0  0  1  0  0  0  0  0  0
  184.4850  178.7580  143.7750 C   0  0  0  0  0  0  0  0  0  0  0  0
  183.5510  178.0570  140.3030 F   0  0  0  0  0  0  0  0  0  0  0  0
  182.0900  179.0570  143.5160 C   0  0  0  0  0  3  0  0  0  0  0  0
  188.6830  177.0290  142.3290 N   0  0  0  0  0  2  0  0  0  0  0  0
  188.9310  178.0450  138.7090 C   0  0  0  0  0  0  0  0  0  0  0  0
  188.1180  178.6540  137.6210 C   0  0  0  0  0  1  0  0  0  0  0  0
  187.1130  178.2560  140.2320 F   0  0  0  0  0  0  0  0  0  0  0  0
  191.0220  177.0760  139.4430 C   0  0  0  0  0  0  0  0  0  0  0  0
  188.3900  177.8590  139.9900 C   0  0  0  0  0  0  0  0  0  0  0  0
  190.4900  176.8870  140.7180 C   0  0  0  0  0  3  0  0  0  0  0  0
  192.4190  176.6630  139.1530 C   0  0  0  0  0  1  0  0  0  0  0  0
  190.2440  177.6520  138.4400 C   0  0  0  0  0  3  0  0  0  0  0  0
  189.1760  177.2660  141.0050 C   0  0  0  0  0  0  0  0  0  0  0  0
  1  8  1  0  0  0  0
  2 21  1  6  0  0  0
  2  7  1  0  0  0  0
  2  5  1  0  0  0  0
  4  1  1  0  0  0  0
  5  9  1  0  0  0  0
  6  8  1  0  0  0  0
  7  5  1  0  0  0  0
  7  4  1  1  0  0  0
  8  3  2  0  0  0  0
  9  6  2  0  0  0  0
 10 18  1  6  0  0  0
 10 11  1  0  0  0  0
 10 12  1  0  0  0  0
 11  9  1  1  0  0  0
 11 12  1  0  0  0  0
 13 16  2  0  0  0  0
 13 14  1  0  0  0  0
 14 18  2  0  0  0  0
 16 20  1  0  0  0  0
 17 16  1  0  0  0  0
 18 15  1  0  0  0  0
 19 13  1  0  0  0  0
 20 15  2  0  0  0  0
 22 26  1  0  0  0  0
 23 22  1  0  0  0  0
 25 27  2  0  0  0  0
 26 24  1  0  0  0  0
 26 30  2  0  0  0  0
 27 30  1  0  0  0  0
 28 25  1  0  0  0  0
 29 22  2  0  0  0  0
 29 25  1  0  0  0  0
 30 21  1  0  0  0  0
M  END
>  <MODEL>
3

>  <REMARK>
 VINA RESULT:     -10.4      2.769      5.966
  Name = 
  4 active torsions:
  status: ('A' for Active; 'I' for Inactive)
    1  A    between atoms: C_3  and  N_23
    2  A    between atoms: C_13  and  C_16
    3  A    between atoms: C_22  and  C_24
    4  A    between atoms: N_23  and  C_30
                            x       y       z     vdW  Elec       q    Type
                         _______ _______ _______ _____ _____    ______ ____

>  <TORSDO>
F 4

$$$$
=
 OpenBabel11042412033D

 30 34  0  0  1  0  0  0  0  0999 V2000
  190.2340  176.9890  147.0990 C   0  0  0  0  0  2  0  0  0  0  0  0
  189.0870  177.7370  143.8280 C   0  0  1  0  0  3  0  0  0  0  0  0
  189.3110  178.2530  148.8830 O   0  0  0  0  0  0  0  0  0  0  0  0
  190.5670  177.5560  145.7200 C   0  0  0  0  0  2  0  0  0  0  0  0
  188.3040  177.2390  144.9960 N   0  0  0  0  0  0  0  0  0  0  0  0
  187.6990  177.7280  147.2540 C   0  0  0  0  0  3  0  0  0  0  0  0
  189.7060  176.8580  144.6880 C   0  0  1  0  0  3  0  0  0  0  0  0
  189.0880  177.7010  147.7730 C   0  0  0  0  0  0  0  0  0  0  0  0
  187.3210  177.4700  145.9960 C   0  0  0  0  0  0  0  0  0  0  0  0
  185.7080  178.9540  144.8480 C   0  0  2  0  0  3  0  0  0  0  0  0
  185.8890  177.6420  145.6010 C   0  0  2  0  0  3  0  0  0  0  0  0
  185.2880  178.8440  146.3000 C   0  0  0  0  0  2  0  0  0  0  0  0
  182.0890  178.9060  143.6630 C   0  0  0  0  0  0  0  0  0  0  0  0
  183.2060  178.9870  144.4980 C   0  0  0  0  0  3  0  0  0  0  0  0
  184.6640  178.7150  142.5830 C   0  0  0  0  0  3  0  0  0  0  0  0
  182.2600  178.7250  142.2820 C   0  0  0  0  0  0  0  0  0  0  0  0
  181.0830  178.6380  141.3770 C   0  0  0  0  0  1  0  0  0  0  0  0
  184.5010  178.9100  143.9610 C   0  0  0  0  0  0  0  0  0  0  0  0
  180.8470  179.0030  144.2010 F   0  0  0  0  0  0  0  0  0  0  0  0
  183.5470  178.6260  141.7470 C   0  0  0  0  0  3  0  0  0  0  0  0
  188.6550  177.0310  142.6310 N   0  0  0  0  0  2  0  0  0  0  0  0
  191.0640  177.2780  139.7450 C   0  0  0  0  0  0  0  0  0  0  0  0
  192.5110  177.1280  139.4300 C   0  0  0  0  0  1  0  0  0  0  0  0
  191.4620  176.6920  142.0180 F   0  0  0  0  0  0  0  0  0  0  0  0
  188.8220  177.7970  139.0000 C   0  0  0  0  0  0  0  0  0  0  0  0
  190.5860  177.0580  141.0460 C   0  0  0  0  0  0  0  0  0  0  0  0
  188.3410  177.5830  140.2910 C   0  0  0  0  0  3  0  0  0  0  0  0
  187.8860  178.1870  137.9140 C   0  0  0  0  0  1  0  0  0  0  0  0
  190.1810  177.6470  138.7270 C   0  0  0  0  0  3  0  0  0  0  0  0
  189.2100  177.2200  141.3240 C   0  0  0  0  0  0  0  0  0  0  0  0
  1  8  1  0  0  0  0
  2 21  1  6  0  0  0
  2  7  1  0  0  0  0
  2  5  1  0  0  0  0
  4  1  1  0  0  0  0
  5  9  1  0  0  0  0
  6  8  1  0  0  0  0
  7  5  1  0  0  0  0
  7  4  1  1  0  0  0
  8  3  2  0  0  0  0
  9  6  2  0  0  0  0
 10 18  1  6  0  0  0
 10 11  1  0  0  0  0
 10 12  1  0  0  0  0
 11  9  1  1  0  0  0
 11 12  1  0  0  0  0
 13 19  1  0  0  0  0
 13 14  1  0  0  0  0
 15 18  1  0  0  0  0
 16 13  2  0  0  0  0
 17 16  1  0  0  0  0
 18 14  2  0  0  0  0
 20 16  1  0  0  0  0
 20 15  2  0  0  0  0
 22 26  1  0  0  0  0
 23 22  1  0  0  0  0
 25 27  2  0  0  0  0
 26 30  2  0  0  0  0
 26 24  1  0  0  0  0
 27 30  1  0  0  0  0
 28 25  1  0  0  0  0
 29 25  1  0  0  0  0
 29 22  2  0  0  0  0
 30 21  1  0  0  0  0
M  END
>  <MODEL>
4

>  <REMARK>
 VINA RESULT:     -10.2      2.918      6.027
  Name = 
  4 active torsions:
  status: ('A' for Active; 'I' for Inactive)
    1  A    between atoms: C_3  and  N_23
    2  A    between atoms: C_13  and  C_16
    3  A    between atoms: C_22  and  C_24
    4  A    between atoms: N_23  and  C_30
                            x       y       z     vdW  Elec       q    Type
                         _______ _______ _______ _____ _____    ______ ____

>  <TORSDO>
F 4

$$$$
=
 OpenBabel11042412033D

 30 34  0  0  1  0  0  0  0  0999 V2000
  189.3550  177.2800  148.0810 C   0  0  0  0  0  2  0  0  0  0  0  0
  186.9330  177.8820  145.5620 C   0  0  1  0  0  3  0  0  0  0  0  0
  191.1450  175.8230  147.5320 O   0  0  0  0  0  0  0  0  0  0  0  0
  187.9120  177.0910  147.6160 C   0  0  0  0  0  2  0  0  0  0  0  0
  188.3920  178.1890  145.5400 N   0  0  0  0  0  0  0  0  0  0  0  0
  190.5650  177.2150  145.7290 C   0  0  0  0  0  3  0  0  0  0  0  0
  187.5260  178.2670  146.7430 C   0  0  1  0  0  3  0  0  0  0  0  0
  190.3690  176.7220  147.1140 C   0  0  0  0  0  0  0  0  0  0  0  0
  189.6870  177.9300  145.0140 C   0  0  0  0  0  0  0  0  0  0  0  0
  189.9800  176.9970  142.7420 C   0  0  2  0  0  3  0  0  0  0  0  0
  189.9890  178.2640  143.5890 C   0  0  2  0  0  3  0  0  0  0  0  0
  191.2950  177.6260  143.1610 C   0  0  0  0  0  2  0  0  0  0  0  0
  190.4020  177.3910  138.9780 C   0  0  0  0  0  0  0  0  0  0  0  0
  190.6620  177.0610  140.3100 C   0  0  0  0  0  3  0  0  0  0  0  0
  188.4890  177.9160  140.9510 C   0  0  0  0  0  3  0  0  0  0  0  0
  189.1820  177.9890  138.6310 C   0  0  0  0  0  0  0  0  0  0  0  0
  188.8850  178.3450  137.2170 C   0  0  0  0  0  1  0  0  0  0  0  0
  189.7000  177.3060  141.3030 C   0  0  0  0  0  0  0  0  0  0  0  0
  191.3380  177.1280  138.0320 F   0  0  0  0  0  0  0  0  0  0  0  0
  188.2290  178.2530  139.6200 C   0  0  0  0  0  3  0  0  0  0  0  0
  186.2030  179.0030  144.9910 N   0  0  0  0  0  2  0  0  0  0  0  0
  182.7360  178.7000  143.5470 C   0  0  0  0  0  0  0  0  0  0  0  0
  181.3100  178.6280  143.9680 C   0  0  0  0  0  1  0  0  0  0  0  0
  183.4320  178.9110  145.8140 F   0  0  0  0  0  0  0  0  0  0  0  0
  184.3780  178.6900  141.7700 C   0  0  0  0  0  0  0  0  0  0  0  0
  183.7590  178.8340  144.4980 C   0  0  0  0  0  0  0  0  0  0  0  0
  185.3990  178.8200  142.7100 C   0  0  0  0  0  3  0  0  0  0  0  0
  184.7050  178.6150  140.3230 C   0  0  0  0  0  1  0  0  0  0  0  0
  183.0490  178.6280  142.1880 C   0  0  0  0  0  3  0  0  0  0  0  0
  185.1070  178.8870  144.0750 C   0  0  0  0  0  0  0  0  0  0  0  0
  2 21  1  6  0  0  0
  2  7  1  0  0  0  0
  4  1  1  0  0  0  0
  5  2  1  0  0  0  0
  5  7  1  0  0  0  0
  6  8  1  0  0  0  0
  7  4  1  1  0  0  0
  8  3  2  0  0  0  0
  8  1  1  0  0  0  0
  9  5  1  0  0  0  0
  9  6  2  0  0  0  0
 10 18  1  6  0  0  0
 10 12  1  0  0  0  0
 10 11  1  0  0  0  0
 11  9  1  1  0  0  0
 12 11  1  0  0  0  0
 13 14  1  0  0  0  0
 14 18  2  0  0  0  0
 15 18  1  0  0  0  0
 16 13  2  0  0  0  0
 16 20  1  0  0  0  0
 17 16  1  0  0  0  0
 19 13  1  0  0  0  0
 20 15  2  0  0  0  0
 22 23  1  0  0  0  0
 22 26  1  0  0  0  0
 25 29  1  0  0  0  0
 25 27  2  0  0  0  0
 26 24  1  0  0  0  0
 27 30  1  0  0  0  0
 28 25  1  0  0  0  0
 29 22  2  0  0  0  0
 30 26  2  0  0  0  0
 30 21  1  0  0  0  0
M  END
>  <MODEL>
5

>  <REMARK>
 VINA RESULT:      -9.9      2.802      7.487
  Name = 
  4 active torsions:
  status: ('A' for Active; 'I' for Inactive)
    1  A    between atoms: C_3  and  N_23
    2  A    between atoms: C_13  and  C_16
    3  A    between atoms: C_22  and  C_24
    4  A    between atoms: N_23  and  C_30
                            x       y       z     vdW  Elec       q    Type
                         _______ _______ _______ _____ _____    ______ ____

>  <TORSDO>
F 4

$$$$
=
 OpenBabel11042412033D

 30 34  0  0  1  0  0  0  0  0999 V2000
  181.4280  179.3570  141.8160 C   0  0  0  0  0  2  0  0  0  0  0  0
  184.6580  178.3930  140.7160 C   0  0  1  0  0  3  0  0  0  0  0  0
  180.6740  178.4510  143.8760 O   0  0  0  0  0  0  0  0  0  0  0  0
  182.2580  178.5910  140.7870 C   0  0  0  0  0  2  0  0  0  0  0  0
  184.2810  179.1280  141.9570 N   0  0  0  0  0  0  0  0  0  0  0  0
  182.9600  178.9960  143.9430 C   0  0  0  0  0  3  0  0  0  0  0  0
  183.6030  179.2740  140.6450 C   0  0  1  0  0  3  0  0  0  0  0  0
  181.6620  178.8940  143.2320 C   0  0  0  0  0  0  0  0  0  0  0  0
  184.1610  179.1530  143.3730 C   0  0  0  0  0  0  0  0  0  0  0  0
  185.6560  177.7210  144.7280 C   0  0  2  0  0  3  0  0  0  0  0  0
  185.3920  179.1340  144.2220 C   0  0  2  0  0  3  0  0  0  0  0  0
  185.0460  178.7590  145.6480 C   0  0  0  0  0  2  0  0  0  0  0  0
  188.9640  177.7280  146.6140 C   0  0  0  0  0  0  0  0  0  0  0  0
  187.6060  177.8790  146.3260 C   0  0  0  0  0  3  0  0  0  0  0  0
  187.9820  177.0510  144.0820 C   0  0  0  0  0  3  0  0  0  0  0  0
  189.8370  177.2390  145.6300 C   0  0  0  0  0  0  0  0  0  0  0  0
  191.2870  177.0690  145.9170 C   0  0  0  0  0  1  0  0  0  0  0  0
  187.1030  177.5260  145.0640 C   0  0  0  0  0  0  0  0  0  0  0  0
  189.4260  178.0570  147.8460 F   0  0  0  0  0  0  0  0  0  0  0  0
  189.3430  176.9050  144.3650 C   0  0  0  0  0  3  0  0  0  0  0  0
  185.8480  179.0060  140.1450 N   0  0  0  0  0  2  0  0  0  0  0  0
  189.2800  177.4720  139.8820 C   0  0  0  0  0  0  0  0  0  0  0  0
  190.5550  177.3550  140.6400 C   0  0  0  0  0  1  0  0  0  0  0  0
  188.3070  178.7430  141.6450 F   0  0  0  0  0  0  0  0  0  0  0  0
  187.9950  176.9750  137.8930 C   0  0  0  0  0  0  0  0  0  0  0  0
  188.1900  178.1770  140.4150 C   0  0  0  0  0  0  0  0  0  0  0  0
  186.9090  177.6760  138.4170 C   0  0  0  0  0  3  0  0  0  0  0  0
  187.8910  176.3360  136.5560 C   0  0  0  0  0  1  0  0  0  0  0  0
  189.1790  176.8750  138.6230 C   0  0  0  0  0  3  0  0  0  0  0  0
  186.9930  178.2870  139.6710 C   0  0  0  0  0  0  0  0  0  0  0  0
  1  8  1  0  0  0  0
  2 21  1  6  0  0  0
  2  5  1  0  0  0  0
  4  1  1  0  0  0  0
  5  9  1  0  0  0  0
  7  2  1  0  0  0  0
  7  4  1  1  0  0  0
  7  5  1  0  0  0  0
  8  3  2  0  0  0  0
  8  6  1  0  0  0  0
  9  6  2  0  0  0  0
 10 18  1  1  0  0  0
 10 12  1  0  0  0  0
 11  9  1  6  0  0  0
 11 10  1  0  0  0  0
 11 12  1  0  0  0  0
 13 19  1  0  0  0  0
 14 13  1  0  0  0  0
 15 20  2  0  0  0  0
 15 18  1  0  0  0  0
 16 17  1  0  0  0  0
 16 13  2  0  0  0  0
 18 14  2  0  0  0  0
 20 16  1  0  0  0  0
 22 26  1  0  0  0  0
 22 23  1  0  0  0  0
 25 27  2  0  0  0  0
 25 29  1  0  0  0  0
 26 24  1  0  0  0  0
 27 30  1  0  0  0  0
 28 25  1  0  0  0  0
 29 22  2  0  0  0  0
 30 21  1  0  0  0  0
 30 26  2  0  0  0  0
M  END
>  <MODEL>
6

>  <REMARK>
 VINA RESULT:      -9.7      1.262      2.105
  Name = 
  4 active torsions:
  status: ('A' for Active; 'I' for Inactive)
    1  A    between atoms: C_3  and  N_23
    2  A    between atoms: C_13  and  C_16
    3  A    between atoms: C_22  and  C_24
    4  A    between atoms: N_23  and  C_30
                            x       y       z     vdW  Elec       q    Type
                         _______ _______ _______ _____ _____    ______ ____

>  <TORSDO>
F 4

$$$$
=
 OpenBabel11042412033D

 30 34  0  0  1  0  0  0  0  0999 V2000
  182.6460  178.5160  138.9690 C   0  0  0  0  0  2  0  0  0  0  0  0
  186.0710  177.9280  139.6700 C   0  0  1  0  0  3  0  0  0  0  0  0
  181.0740  177.8320  140.6100 O   0  0  0  0  0  0  0  0  0  0  0  0
  183.9150  177.7450  138.6120 C   0  0  0  0  0  2  0  0  0  0  0  0
  185.1020  178.7760  140.4220 N   0  0  0  0  0  0  0  0  0  0  0  0
  183.0130  178.7420  141.5790 C   0  0  0  0  0  3  0  0  0  0  0  0
  185.1160  178.6050  138.9470 C   0  0  1  0  0  3  0  0  0  0  0  0
  182.2150  178.3230  140.4010 C   0  0  0  0  0  0  0  0  0  0  0  0
  184.3260  179.0010  141.5910 C   0  0  0  0  0  0  0  0  0  0  0  0
  184.6670  178.2530  143.9240 C   0  0  2  0  0  3  0  0  0  0  0  0
  185.0090  179.3130  142.8840 C   0  0  2  0  0  3  0  0  0  0  0  0
  183.9880  179.6070  143.9640 C   0  0  0  0  0  2  0  0  0  0  0  0
  187.8800  177.3990  145.7810 C   0  0  0  0  0  0  0  0  0  0  0  0
  186.9250  177.4950  144.7660 C   0  0  0  0  0  3  0  0  0  0  0  0
  185.4650  178.7300  146.2510 C   0  0  0  0  0  3  0  0  0  0  0  0
  187.6260  177.9680  147.0370 C   0  0  0  0  0  0  0  0  0  0  0  0
  188.6310  177.8780  148.1300 C   0  0  0  0  0  1  0  0  0  0  0  0
  185.7180  178.1770  144.9890 C   0  0  0  0  0  0  0  0  0  0  0  0
  189.0490  176.7530  145.5370 F   0  0  0  0  0  0  0  0  0  0  0  0
  186.4160  178.6300  147.2700 C   0  0  0  0  0  3  0  0  0  0  0  0
  187.3430  178.6280  139.5790 N   0  0  0  0  0  2  0  0  0  0  0  0
  190.3160  177.5500  141.6280 C   0  0  0  0  0  0  0  0  0  0  0  0
  190.8170  177.5520  143.0300 C   0  0  0  0  0  1  0  0  0  0  0  0
  188.2880  178.5930  142.3130 F   0  0  0  0  0  0  0  0  0  0  0  0
  190.6740  177.0060  139.2980 C   0  0  0  0  0  0  0  0  0  0  0  0
  189.0570  178.0840  141.3140 C   0  0  0  0  0  0  0  0  0  0  0  0
  189.4240  177.5360  138.9790 C   0  0  0  0  0  3  0  0  0  0  0  0
  191.5310  176.4320  138.2290 C   0  0  0  0  0  1  0  0  0  0  0  0
  191.1200  177.0150  140.6190 C   0  0  0  0  0  3  0  0  0  0  0  0
  188.6080  178.0840  139.9740 C   0  0  0  0  0  0  0  0  0  0  0  0
  1  8  1  0  0  0  0
  2 21  1  6  0  0  0
  2  5  1  0  0  0  0
  4  1  1  0  0  0  0
  5  9  1  0  0  0  0
  6  9  2  0  0  0  0
  7  4  1  1  0  0  0
  7  2  1  0  0  0  0
  7  5  1  0  0  0  0
  8  3  2  0  0  0  0
  8  6  1  0  0  0  0
 10 12  1  0  0  0  0
 10 18  1  1  0  0  0
 11  9  1  6  0  0  0
 11 10  1  0  0  0  0
 11 12  1  0  0  0  0
 13 16  1  0  0  0  0
 14 18  1  0  0  0  0
 14 13  2  0  0  0  0
 15 20  1  0  0  0  0
 16 20  2  0  0  0  0
 16 17  1  0  0  0  0
 18 15  2  0  0  0  0
 19 13  1  0  0  0  0
 21 30  1  0  0  0  0
 22 23  1  0  0  0  0
 25 29  1  0  0  0  0
 26 22  1  0  0  0  0
 26 24  1  0  0  0  0
 27 25  2  0  0  0  0
 27 30  1  0  0  0  0
 28 25  1  0  0  0  0
 29 22  2  0  0  0  0
 30 26  2  0  0  0  0
M  END
>  <MODEL>
7

>  <REMARK>
 VINA RESULT:      -9.6      1.741      2.916
  Name = 
  4 active torsions:
  status: ('A' for Active; 'I' for Inactive)
    1  A    between atoms: C_3  and  N_23
    2  A    between atoms: C_13  and  C_16
    3  A    between atoms: C_22  and  C_24
    4  A    between atoms: N_23  and  C_30
                            x       y       z     vdW  Elec       q    Type
                         _______ _______ _______ _____ _____    ______ ____

>  <TORSDO>
F 4

$$$$
=
 OpenBabel11042412033D

 30 34  0  0  1  0  0  0  0  0999 V2000
  181.0910  179.1350  142.0280 C   0  0  0  0  0  2  0  0  0  0  0  0
  184.3620  178.3380  140.9150 C   0  0  1  0  0  3  0  0  0  0  0  0
  180.4030  178.2160  144.1050 O   0  0  0  0  0  0  0  0  0  0  0  0
  181.9560  178.4030  141.0030 C   0  0  0  0  0  2  0  0  0  0  0  0
  183.9530  179.0670  142.1500 N   0  0  0  0  0  0  0  0  0  0  0  0
  182.6560  178.8880  144.1470 C   0  0  0  0  0  3  0  0  0  0  0  0
  183.2590  179.1580  140.8410 C   0  0  1  0  0  3  0  0  0  0  0  0
  181.3600  178.7050  143.4480 C   0  0  0  0  0  0  0  0  0  0  0  0
  183.8420  179.1040  143.5660 C   0  0  0  0  0  0  0  0  0  0  0  0
  185.3240  177.8180  145.0720 C   0  0  2  0  0  3  0  0  0  0  0  0
  185.0780  179.1660  144.4050 C   0  0  2  0  0  3  0  0  0  0  0  0
  184.7360  178.9660  145.8670 C   0  0  0  0  0  2  0  0  0  0  0  0
  188.5890  177.7430  147.0310 C   0  0  0  0  0  0  0  0  0  0  0  0
  187.2320  177.8750  146.7270 C   0  0  0  0  0  3  0  0  0  0  0  0
  187.6880  177.3060  144.4180 C   0  0  0  0  0  3  0  0  0  0  0  0
  189.5010  177.3950  146.0230 C   0  0  0  0  0  0  0  0  0  0  0  0
  190.9500  177.2470  146.3260 C   0  0  0  0  0  1  0  0  0  0  0  0
  186.7700  177.6400  145.4230 C   0  0  0  0  0  0  0  0  0  0  0  0
  189.0110  177.9550  148.3030 F   0  0  0  0  0  0  0  0  0  0  0  0
  189.0470  177.1800  144.7180 C   0  0  0  0  0  3  0  0  0  0  0  0
  185.5120  179.0080  140.3270 N   0  0  0  0  0  2  0  0  0  0  0  0
  186.8540  177.4480  137.1700 C   0  0  0  0  0  0  0  0  0  0  0  0
  186.4090  177.0010  135.8220 C   0  0  0  0  0  1  0  0  0  0  0  0
  184.6500  178.1860  137.6900 F   0  0  0  0  0  0  0  0  0  0  0  0
  188.6290  177.6880  138.7960 C   0  0  0  0  0  0  0  0  0  0  0  0
  185.9450  178.0250  138.0710 C   0  0  0  0  0  0  0  0  0  0  0  0
  187.7310  178.2600  139.6960 C   0  0  0  0  0  3  0  0  0  0  0  0
  190.0530  177.5110  139.1800 C   0  0  0  0  0  1  0  0  0  0  0  0
  188.1910  177.2800  137.5370 C   0  0  0  0  0  3  0  0  0  0  0  0
  186.3870  178.4290  139.3510 C   0  0  0  0  0  0  0  0  0  0  0  0
  1  8  1  0  0  0  0
  2 21  1  6  0  0  0
  2  5  1  0  0  0  0
  4  1  1  0  0  0  0
  5  9  1  0  0  0  0
  7  2  1  0  0  0  0
  7  4  1  1  0  0  0
  7  5  1  0  0  0  0
  8  3  2  0  0  0  0
  8  6  1  0  0  0  0
  9  6  2  0  0  0  0
 10 18  1  1  0  0  0
 10 12  1  0  0  0  0
 11  9  1  6  0  0  0
 11 10  1  0  0  0  0
 11 12  1  0  0  0  0
 13 19  1  0  0  0  0
 14 13  1  0  0  0  0
 15 20  2  0  0  0  0
 15 18  1  0  0  0  0
 16 17  1  0  0  0  0
 16 13  2  0  0  0  0
 18 14  2  0  0  0  0
 20 16  1  0  0  0  0
 22 29  2  0  0  0  0
 22 26  1  0  0  0  0
 23 22  1  0  0  0  0
 24 26  1  0  0  0  0
 25 28  1  0  0  0  0
 25 27  2  0  0  0  0
 26 30  2  0  0  0  0
 29 25  1  0  0  0  0
 30 27  1  0  0  0  0
 30 21  1  0  0  0  0
M  END
>  <MODEL>
8

>  <REMARK>
 VINA RESULT:      -9.3      1.453      1.884
  Name = 
  4 active torsions:
  status: ('A' for Active; 'I' for Inactive)
    1  A    between atoms: C_3  and  N_23
    2  A    between atoms: C_13  and  C_16
    3  A    between atoms: C_22  and  C_24
    4  A    between atoms: N_23  and  C_30
                            x       y       z     vdW  Elec       q    Type
                         _______ _______ _______ _____ _____    ______ ____

>  <TORSDO>
F 4

$$$$
=
 OpenBabel11042412033D

 30 34  0  0  1  0  0  0  0  0999 V2000
  191.6880  176.5730  143.5150 C   0  0  0  0  0  2  0  0  0  0  0  0
  189.2380  177.8690  141.3040 C   0  0  1  0  0  3  0  0  0  0  0  0
  191.5760  177.2710  145.7800 O   0  0  0  0  0  0  0  0  0  0  0  0
  191.3870  177.4720  142.3170 C   0  0  0  0  0  2  0  0  0  0  0  0
  189.0410  177.0230  142.5160 N   0  0  0  0  0  0  0  0  0  0  0  0
  189.4400  176.9100  144.8680 C   0  0  0  0  0  3  0  0  0  0  0  0
  190.1880  176.9120  141.5800 C   0  0  1  0  0  3  0  0  0  0  0  0
  190.9180  176.9550  144.7540 C   0  0  0  0  0  0  0  0  0  0  0  0
  188.5700  176.8910  143.8500 C   0  0  0  0  0  0  0  0  0  0  0  0
  186.6530  178.4020  144.2490 C   0  0  2  0  0  3  0  0  0  0  0  0
  187.1020  176.9510  144.1280 C   0  0  2  0  0  3  0  0  0  0  0  0
  186.8460  177.5570  145.4930 C   0  0  0  0  0  2  0  0  0  0  0  0
  183.3510  178.6320  142.3660 C   0  0  0  0  0  0  0  0  0  0  0  0
  184.7110  178.4580  142.6340 C   0  0  0  0  0  3  0  0  0  0  0  0
  184.3010  178.8440  144.9900 C   0  0  0  0  0  3  0  0  0  0  0  0
  182.4620  178.9170  143.4130 C   0  0  0  0  0  0  0  0  0  0  0  0
  181.0100  179.1040  143.1480 C   0  0  0  0  0  1  0  0  0  0  0  0
  185.1920  178.5450  143.9500 C   0  0  0  0  0  0  0  0  0  0  0  0
  182.9050  178.5240  141.0890 F   0  0  0  0  0  0  0  0  0  0  0  0
  182.9410  179.0250  144.7230 C   0  0  0  0  0  3  0  0  0  0  0  0
  188.3580  177.3960  140.2460 N   0  0  0  0  0  2  0  0  0  0  0  0
  188.2120  177.8080  136.5040 C   0  0  0  0  0  0  0  0  0  0  0  0
  187.3160  178.3200  135.4310 C   0  0  0  0  0  1  0  0  0  0  0  0
  186.6320  178.4360  138.1710 F   0  0  0  0  0  0  0  0  0  0  0  0
  190.2960  176.7570  137.1410 C   0  0  0  0  0  0  0  0  0  0  0  0
  187.8300  177.8790  137.8520 C   0  0  0  0  0  0  0  0  0  0  0  0
  189.9210  176.8220  138.4830 C   0  0  0  0  0  3  0  0  0  0  0  0
  191.6040  176.1640  136.7640 C   0  0  0  0  0  1  0  0  0  0  0  0
  189.4420  177.2470  136.1530 C   0  0  0  0  0  3  0  0  0  0  0  0
  188.6910  177.3740  138.8530 C   0  0  0  0  0  0  0  0  0  0  0  0
  1  8  1  0  0  0  0
  2 21  1  6  0  0  0
  2  7  1  0  0  0  0
  2  5  1  0  0  0  0
  4  1  1  0  0  0  0
  5  9  1  0  0  0  0
  7  4  1  1  0  0  0
  7  5  1  0  0  0  0
  8  6  1  0  0  0  0
  8  3  2  0  0  0  0
  9  6  2  0  0  0  0
 10 18  1  6  0  0  0
 10 12  1  0  0  0  0
 11  9  1  1  0  0  0
 11 10  1  0  0  0  0
 11 12  1  0  0  0  0
 13 14  2  0  0  0  0
 13 16  1  0  0  0  0
 14 18  1  0  0  0  0
 16 20  2  0  0  0  0
 17 16  1  0  0  0  0
 18 15  2  0  0  0  0
 19 13  1  0  0  0  0
 20 15  1  0  0  0  0
 22 26  1  0  0  0  0
 23 22  1  0  0  0  0
 25 27  2  0  0  0  0
 26 24  1  0  0  0  0
 26 30  2  0  0  0  0
 27 30  1  0  0  0  0
 28 25  1  0  0  0  0
 29 22  2  0  0  0  0
 29 25  1  0  0  0  0
 30 21  1  0  0  0  0
M  END
>  <MODEL>
9

>  <REMARK>
 VINA RESULT:      -9.2      3.183      6.118
  Name = 
  4 active torsions:
  status: ('A' for Active; 'I' for Inactive)
    1  A    between atoms: C_3  and  N_23
    2  A    between atoms: C_13  and  C_16
    3  A    between atoms: C_22  and  C_24
    4  A    between atoms: N_23  and  C_30
                            x       y       z     vdW  Elec       q    Type
                         _______ _______ _______ _____ _____    ______ ____

>  <TORSDO>
F 4

$$$$
