=
 OpenBabel11032420023D

 46 51  0  0  1  0  0  0  0  0999 V2000
  187.2920  176.8170  137.2410 C   0  0  0  0  0  3  0  0  0  0  0  0
  186.3720  176.4130  136.2690 C   0  0  0  0  0  0  0  0  0  0  0  0
  188.2010  175.6660  134.8810 C   0  0  0  0  0  3  0  0  0  0  0  0
  189.1420  176.0520  135.8510 C   0  0  0  0  0  0  0  0  0  0  0  0
  186.8330  175.8410  135.0870 C   0  0  0  0  0  3  0  0  0  0  0  0
  188.6710  176.6500  137.0560 C   0  0  0  0  0  0  0  0  0  0  0  0
  190.7520  177.3160  141.1730 C   0  0  0  0  0  0  0  0  0  0  0  0
  188.1800  177.1510  144.9690 C   0  0  0  0  0  2  0  0  0  0  0  0
  191.3490  176.9590  139.8380 C   0  0  0  0  0  2  0  0  0  0  0  0
  189.5300  177.1800  138.1690 C   0  0  1  0  0  3  0  0  0  0  0  0
  190.3480  177.6230  144.2030 C   0  0  0  0  0  0  0  0  0  0  0  0
  189.2950  177.6450  141.3190 C   0  0  0  0  0  0  0  0  0  0  0  0
  189.1550  177.5280  146.0480 C   0  0  0  0  0  3  0  0  0  0  0  0
  191.6190  177.3820  142.1430 N   0  0  0  0  0  0  0  0  0  0  0  0
  191.4420  177.6680  143.5110 N   0  0  0  0  0  0  0  0  0  0  0  0
  189.0030  178.4070  138.9200 C   0  0  0  0  0  2  0  0  0  0  0  0
  190.3470  177.7820  145.6090 N   0  0  0  0  0  0  0  0  0  0  0  0
  188.5350  177.3580  142.5330 C   0  0  0  0  0  3  0  0  0  0  0  0
  189.0260  177.2720  143.7540 C   0  0  0  0  0  0  0  0  0  0  0  0
  188.5360  178.0900  140.3070 C   0  0  0  0  0  3  0  0  0  0  0  0
  190.3930  176.1910  138.9390 C   0  0  0  0  0  2  0  0  0  0  0  0
  190.5670  175.8000  135.5300 C   0  0  0  0  0  0  0  0  0  0  0  0
  191.1970  174.5710  135.8870 N   0  0  0  0  0  2  0  0  0  0  0  0
  191.2150  176.6610  134.8730 O   0  0  0  0  0  0  0  0  0  0  0  0
  192.5500  174.2210  135.4730 C   0  0  0  0  0  2  0  0  0  0  0  0
  193.5750  172.1650  136.4720 C   0  0  0  0  0  1  0  0  0  0  0  0
  193.3640  173.6650  136.6450 C   0  0  1  0  0  3  0  0  0  0  0  0
  195.9090  175.0220  134.5940 C   0  0  0  0  0  2  0  0  0  0  0  0
  193.8820  176.6710  137.0160 O   0  0  0  0  0  0  0  0  0  0  0  0
  195.4100  176.2870  135.2640 C   0  0  0  0  0  2  0  0  0  0  0  0
  194.5890  175.8680  136.4280 C   0  0  0  0  0  0  0  0  0  0  0  0
  196.0070  173.6850  135.8290 S   0  0  0  0  0  0  0  0  0  0  0  0
  194.6920  174.4310  136.8550 C   0  0  2  0  0  0  0  0  0  0  0  0
  196.5030  174.2740  138.4570 O   0  0  0  0  0  1  0  0  0  0  0  0
  195.1130  174.3300  138.3260 C   0  0  0  0  0  2  0  0  0  0  0  0
  184.9650  176.5810  136.4640 N   0  0  0  0  0  2  0  0  0  0  0  0
  184.4120  177.5930  137.3530 C   0  0  0  0  0  2  0  0  0  0  0  0
  183.1870  177.0480  138.0640 C   0  0  0  0  0  2  0  0  0  0  0  0
  182.8460  177.9170  139.2590 C   0  0  0  0  0  2  0  0  0  0  0  0
  183.9820  177.9550  140.1670 N   0  0  0  0  0  2  0  0  0  0  0  0
  184.8020  178.4520  143.8780 C   0  0  0  0  0  2  0  0  0  0  0  0
  185.1030  178.3450  142.3870 C   0  0  0  0  0  2  0  0  0  0  0  0
  183.8550  178.3060  141.5450 C   0  0  0  0  0  0  0  0  0  0  0  0
  182.4560  179.0400  143.4190 C   0  0  0  0  0  2  0  0  0  0  0  0
  183.7320  179.5050  144.1090 C   0  0  0  0  0  2  0  0  0  0  0  0
  182.7000  178.6900  142.0180 N   0  0  0  0  0  0  0  0  0  0  0  0
  2 36  1  0  0  0  0
  2  1  2  0  0  0  0
  3  5  2  0  0  0  0
  3  4  1  0  0  0  0
  4  6  2  0  0  0  0
  5  2  1  0  0  0  0
  6  1  1  0  0  0  0
  7 12  1  0  0  0  0
  7 14  2  0  0  0  0
  8 13  1  0  0  0  0
  9  7  1  0  0  0  0
 10  6  1  1  0  0  0
 10 16  1  0  0  0  0
 10 21  1  0  0  0  0
 11 17  1  0  0  0  0
 12 18  1  0  0  0  0
 14 15  1  0  0  0  0
 15 11  2  0  0  0  0
 16 20  1  0  0  0  0
 17 13  2  0  0  0  0
 18 19  2  0  0  0  0
 19 11  1  0  0  0  0
 19  8  1  0  0  0  0
 20 12  2  0  0  0  0
 21  9  1  0  0  0  0
 22  4  1  0  0  0  0
 22 23  1  0  0  0  0
 24 22  2  0  0  0  0
 25 23  1  0  0  0  0
 25 27  1  0  0  0  0
 27 26  1  6  0  0  0
 27 33  1  0  0  0  0
 28 30  1  0  0  0  0
 28 32  1  0  0  0  0
 30 31  1  0  0  0  0
 31 33  1  0  0  0  0
 31 29  2  0  0  0  0
 32 33  1  0  0  0  0
 33 35  1  1  0  0  0
 35 34  1  0  0  0  0
 36 37  1  0  0  0  0
 37 38  1  0  0  0  0
 38 39  1  0  0  0  0
 39 40  1  0  0  0  0
 40 43  1  0  0  0  0
 41 45  1  0  0  0  0
 42 41  1  0  0  0  0
 43 46  2  0  0  0  0
 43 42  1  0  0  0  0
 44 45  1  0  0  0  0
 46 44  1  0  0  0  0
M  END
>  <MODEL>
1

>  <REMARK>
 VINA RESULT:      -8.2      0.000      0.000
  Name = 
  11 active torsions:
  status: ('A' for Active; 'I' for Inactive)
    1  A    between atoms: N_1  and  C_36
    2  A    between atoms: C_3  and  C_40
    3  A    between atoms: C_7  and  N_18
    4  A    between atoms: C_7  and  C_37
    5  A    between atoms: C_9  and  C_44
    6  A    between atoms: N_13  and  C_30
    7  A    between atoms: C_14  and  N_18
    8  A    between atoms: C_16  and  C_30
    9  A    between atoms: C_16  and  C_46
   10  A    between atoms: C_36  and  C_37
   11  A    between atoms: C_38  and  C_46
                            x       y       z     vdW  Elec       q    Type
                         _______ _______ _______ _____ _____    ______ ____

>  <TORSDO>
F 11

$$$$
=
 OpenBabel11032420023D

 46 51  0  0  1  0  0  0  0  0999 V2000
  186.5780  177.2590  137.6660 C   0  0  0  0  0  3  0  0  0  0  0  0
  185.4660  177.0030  136.8590 C   0  0  0  0  0  0  0  0  0  0  0  0
  186.9420  176.2520  135.1030 C   0  0  0  0  0  3  0  0  0  0  0  0
  188.0730  176.4900  135.9020 C   0  0  0  0  0  0  0  0  0  0  0  0
  185.6540  176.5020  135.5740 C   0  0  0  0  0  3  0  0  0  0  0  0
  187.8810  177.0140  137.2130 C   0  0  0  0  0  0  0  0  0  0  0  0
  190.6930  177.2240  140.9250 C   0  0  0  0  0  0  0  0  0  0  0  0
  188.8020  177.0950  145.1040 C   0  0  0  0  0  2  0  0  0  0  0  0
  191.0110  176.8880  139.4920 C   0  0  0  0  0  2  0  0  0  0  0  0
  188.9700  177.3890  138.1790 C   0  0  1  0  0  3  0  0  0  0  0  0
  190.8470  177.3900  143.9880 C   0  0  0  0  0  0  0  0  0  0  0  0
  189.3270  177.6890  141.3380 C   0  0  0  0  0  0  0  0  0  0  0  0
  189.9820  177.3080  146.0090 C   0  0  0  0  0  3  0  0  0  0  0  0
  191.7140  177.1440  141.7290 N   0  0  0  0  0  0  0  0  0  0  0  0
  191.8050  177.3650  143.1180 N   0  0  0  0  0  0  0  0  0  0  0  0
  188.7160  178.6160  139.0600 C   0  0  0  0  0  2  0  0  0  0  0  0
  191.1020  177.4660  145.3780 N   0  0  0  0  0  0  0  0  0  0  0  0
  188.7580  177.4090  142.6540 C   0  0  0  0  0  3  0  0  0  0  0  0
  189.4370  177.2020  143.7650 C   0  0  0  0  0  0  0  0  0  0  0  0
  188.4610  178.2660  140.4930 C   0  0  0  0  0  3  0  0  0  0  0  0
  189.8380  176.2740  138.7450 C   0  0  0  0  0  2  0  0  0  0  0  0
  189.3900  176.1690  135.3020 C   0  0  0  0  0  0  0  0  0  0  0  0
  189.8910  174.8330  135.2930 N   0  0  0  0  0  2  0  0  0  0  0  0
  190.0490  177.0810  134.7310 O   0  0  0  0  0  0  0  0  0  0  0  0
  191.1100  174.4450  134.5950 C   0  0  0  0  0  2  0  0  0  0  0  0
  191.9500  172.1100  134.9410 C   0  0  0  0  0  1  0  0  0  0  0  0
  191.9870  173.5420  135.4670 C   0  0  1  0  0  3  0  0  0  0  0  0
  193.5440  176.3490  136.9540 C   0  0  0  0  0  2  0  0  0  0  0  0
  194.1470  172.8890  137.5510 O   0  0  0  0  0  0  0  0  0  0  0  0
  194.1920  175.2360  137.7540 C   0  0  0  0  0  2  0  0  0  0  0  0
  193.9340  173.9690  137.0240 C   0  0  0  0  0  0  0  0  0  0  0  0
  193.4670  175.8630  135.1980 S   0  0  0  0  0  0  0  0  0  0  0  0
  193.4280  174.0840  135.6140 C   0  0  2  0  0  0  0  0  0  0  0  0
  195.6970  173.6440  134.8870 O   0  0  0  0  0  1  0  0  0  0  0  0
  194.3550  173.3430  134.6420 C   0  0  0  0  0  2  0  0  0  0  0  0
  184.1370  177.2490  137.3270 N   0  0  0  0  0  2  0  0  0  0  0  0
  183.5350  176.4930  138.4160 C   0  0  0  0  0  2  0  0  0  0  0  0
  182.7280  177.4170  139.3090 C   0  0  0  0  0  2  0  0  0  0  0  0
  183.4580  178.7320  139.4980 C   0  0  0  0  0  2  0  0  0  0  0  0
  184.5150  178.5590  140.4810 N   0  0  0  0  0  2  0  0  0  0  0  0
  185.0300  178.2480  144.2670 C   0  0  0  0  0  2  0  0  0  0  0  0
  185.4510  178.4540  142.8160 C   0  0  0  0  0  2  0  0  0  0  0  0
  184.2760  178.6130  141.8880 C   0  0  0  0  0  0  0  0  0  0  0  0
  182.7280  178.9560  143.7570 C   0  0  0  0  0  2  0  0  0  0  0  0
  183.9430  179.2450  144.6290 C   0  0  0  0  0  2  0  0  0  0  0  0
  183.0870  178.9070  142.3380 N   0  0  0  0  0  0  0  0  0  0  0  0
  2 36  1  0  0  0  0
  2  1  2  0  0  0  0
  3  5  2  0  0  0  0
  3  4  1  0  0  0  0
  4  6  2  0  0  0  0
  5  2  1  0  0  0  0
  6  1  1  0  0  0  0
  7 12  1  0  0  0  0
  7 14  2  0  0  0  0
  8 13  1  0  0  0  0
  9  7  1  0  0  0  0
 10  6  1  1  0  0  0
 10 21  1  0  0  0  0
 10 16  1  0  0  0  0
 11 17  1  0  0  0  0
 12 18  1  0  0  0  0
 14 15  1  0  0  0  0
 15 11  2  0  0  0  0
 16 20  1  0  0  0  0
 17 13  2  0  0  0  0
 18 19  2  0  0  0  0
 19 11  1  0  0  0  0
 19  8  1  0  0  0  0
 20 12  2  0  0  0  0
 21  9  1  0  0  0  0
 22  4  1  0  0  0  0
 23 22  1  0  0  0  0
 24 22  2  0  0  0  0
 25 23  1  0  0  0  0
 25 27  1  0  0  0  0
 27 26  1  6  0  0  0
 27 33  1  0  0  0  0
 28 30  1  0  0  0  0
 31 29  2  0  0  0  0
 31 30  1  0  0  0  0
 32 33  1  0  0  0  0
 32 28  1  0  0  0  0
 33 35  1  6  0  0  0
 33 31  1  0  0  0  0
 35 34  1  0  0  0  0
 36 37  1  0  0  0  0
 37 38  1  0  0  0  0
 38 39  1  0  0  0  0
 39 40  1  0  0  0  0
 40 43  1  0  0  0  0
 41 45  1  0  0  0  0
 42 41  1  0  0  0  0
 43 46  2  0  0  0  0
 43 42  1  0  0  0  0
 44 45  1  0  0  0  0
 46 44  1  0  0  0  0
M  END
>  <MODEL>
2

>  <REMARK>
 VINA RESULT:      -8.2      1.290      1.644
  Name = 
  11 active torsions:
  status: ('A' for Active; 'I' for Inactive)
    1  A    between atoms: N_1  and  C_36
    2  A    between atoms: C_3  and  C_40
    3  A    between atoms: C_7  and  N_18
    4  A    between atoms: C_7  and  C_37
    5  A    between atoms: C_9  and  C_44
    6  A    between atoms: N_13  and  C_30
    7  A    between atoms: C_14  and  N_18
    8  A    between atoms: C_16  and  C_30
    9  A    between atoms: C_16  and  C_46
   10  A    between atoms: C_36  and  C_37
   11  A    between atoms: C_38  and  C_46
                            x       y       z     vdW  Elec       q    Type
                         _______ _______ _______ _____ _____    ______ ____

>  <TORSDO>
F 11

$$$$
=
 OpenBabel11032420023D

 46 51  0  0  1  0  0  0  0  0999 V2000
  187.8140  177.2800  137.9040 C   0  0  0  0  0  3  0  0  0  0  0  0
  187.2120  176.8660  136.7120 C   0  0  0  0  0  0  0  0  0  0  0  0
  189.3060  175.8800  136.0240 C   0  0  0  0  0  3  0  0  0  0  0  0
  189.9260  176.2750  137.2220 C   0  0  0  0  0  0  0  0  0  0  0  0
  187.9650  176.1680  135.7720 C   0  0  0  0  0  3  0  0  0  0  0  0
  189.1590  177.0000  138.1790 C   0  0  0  0  0  0  0  0  0  0  0  0
  190.1060  177.6780  142.6930 C   0  0  0  0  0  0  0  0  0  0  0  0
  186.7090  177.1670  145.7340 C   0  0  0  0  0  2  0  0  0  0  0  0
  191.0400  177.4190  141.5400 C   0  0  0  0  0  2  0  0  0  0  0  0
  189.6710  177.5550  139.4780 C   0  0  1  0  0  3  0  0  0  0  0  0
  188.9490  177.8380  145.5340 C   0  0  0  0  0  0  0  0  0  0  0  0
  188.6340  177.8830  142.4800 C   0  0  0  0  0  0  0  0  0  0  0  0
  187.3550  177.5800  147.0260 C   0  0  0  0  0  3  0  0  0  0  0  0
  190.7010  177.7760  143.8470 N   0  0  0  0  0  0  0  0  0  0  0  0
  190.1710  177.9960  145.1330 N   0  0  0  0  0  0  0  0  0  0  0  0
  188.8720  178.7080  140.0960 C   0  0  0  0  0  2  0  0  0  0  0  0
  188.5910  177.9450  146.8980 N   0  0  0  0  0  0  0  0  0  0  0  0
  187.6290  177.4920  143.4640 C   0  0  0  0  0  3  0  0  0  0  0  0
  187.8120  177.4000  144.7680 C   0  0  0  0  0  0  0  0  0  0  0  0
  188.1110  178.3030  141.3190 C   0  0  0  0  0  3  0  0  0  0  0  0
  190.4020  176.6100  140.4210 C   0  0  0  0  0  2  0  0  0  0  0  0
  191.3500  175.8960  137.3870 C   0  0  0  0  0  0  0  0  0  0  0  0
  191.7370  174.5320  137.5530 N   0  0  0  0  0  2  0  0  0  0  0  0
  192.2400  176.7880  137.3150 O   0  0  0  0  0  0  0  0  0  0  0  0
  193.1270  174.0970  137.5800 C   0  0  0  0  0  2  0  0  0  0  0  0
  193.1670  173.4850  135.1510 C   0  0  0  0  0  1  0  0  0  0  0  0
  193.3770  172.9720  136.5720 C   0  0  1  0  0  3  0  0  0  0  0  0
  196.7650  173.9000  136.1420 C   0  0  0  0  0  2  0  0  0  0  0  0
  195.1300  172.7290  139.0840 O   0  0  0  0  0  0  0  0  0  0  0  0
  196.7530  173.6330  137.6350 C   0  0  0  0  0  2  0  0  0  0  0  0
  195.5080  172.8820  137.9330 C   0  0  0  0  0  0  0  0  0  0  0  0
  195.8020  172.6060  135.2920 S   0  0  0  0  0  0  0  0  0  0  0  0
  194.7600  172.3060  136.7640 C   0  0  2  0  0  0  0  0  0  0  0  0
  193.7830  170.2600  135.9090 O   0  0  0  0  0  1  0  0  0  0  0  0
  194.5810  170.7920  136.9260 C   0  0  0  0  0  2  0  0  0  0  0  0
  185.8370  177.1500  136.4380 N   0  0  0  0  0  2  0  0  0  0  0  0
  184.7680  176.8280  137.3720 C   0  0  0  0  0  2  0  0  0  0  0  0
  184.1460  178.1030  137.9120 C   0  0  0  0  0  2  0  0  0  0  0  0
  184.5760  178.3270  139.3480 C   0  0  0  0  0  2  0  0  0  0  0  0
  183.4110  178.2570  140.2170 N   0  0  0  0  0  2  0  0  0  0  0  0
  182.2800  179.2140  143.7530 C   0  0  0  0  0  2  0  0  0  0  0  0
  182.1910  178.5050  142.4050 C   0  0  0  0  0  2  0  0  0  0  0  0
  183.4480  178.6510  141.5890 C   0  0  0  0  0  0  0  0  0  0  0  0
  184.7170  179.4670  143.5200 C   0  0  0  0  0  2  0  0  0  0  0  0
  183.6150  178.9020  144.4060 C   0  0  0  0  0  2  0  0  0  0  0  0
  184.5770  179.0150  142.1340 N   0  0  0  0  0  0  0  0  0  0  0  0
  1  6  1  0  0  0  0
  2  1  2  0  0  0  0
  3  4  1  0  0  0  0
  4 22  1  0  0  0  0
  4  6  2  0  0  0  0
  5  3  2  0  0  0  0
  5  2  1  0  0  0  0
  7 14  2  0  0  0  0
  8 13  1  0  0  0  0
  9  7  1  0  0  0  0
 10  6  1  1  0  0  0
 10 16  1  0  0  0  0
 10 21  1  0  0  0  0
 11 17  1  0  0  0  0
 12  7  1  0  0  0  0
 12 18  1  0  0  0  0
 14 15  1  0  0  0  0
 15 11  2  0  0  0  0
 16 20  1  0  0  0  0
 17 13  2  0  0  0  0
 18 19  2  0  0  0  0
 19 11  1  0  0  0  0
 19  8  1  0  0  0  0
 20 12  2  0  0  0  0
 21  9  1  0  0  0  0
 22 23  1  0  0  0  0
 23 25  1  0  0  0  0
 24 22  2  0  0  0  0
 27 26  1  6  0  0  0
 27 33  1  0  0  0  0
 27 25  1  0  0  0  0
 28 30  1  0  0  0  0
 30 31  1  0  0  0  0
 31 29  2  0  0  0  0
 32 28  1  0  0  0  0
 32 33  1  0  0  0  0
 33 35  1  1  0  0  0
 33 31  1  0  0  0  0
 34 35  1  0  0  0  0
 36  2  1  0  0  0  0
 36 37  1  0  0  0  0
 37 38  1  0  0  0  0
 38 39  1  0  0  0  0
 39 40  1  0  0  0  0
 40 43  1  0  0  0  0
 41 45  1  0  0  0  0
 42 41  1  0  0  0  0
 43 46  2  0  0  0  0
 43 42  1  0  0  0  0
 44 45  1  0  0  0  0
 46 44  1  0  0  0  0
M  END
>  <MODEL>
3

>  <REMARK>
 VINA RESULT:      -8.1      1.496      2.148
  Name = 
  11 active torsions:
  status: ('A' for Active; 'I' for Inactive)
    1  A    between atoms: N_1  and  C_36
    2  A    between atoms: C_3  and  C_40
    3  A    between atoms: C_7  and  N_18
    4  A    between atoms: C_7  and  C_37
    5  A    between atoms: C_9  and  C_44
    6  A    between atoms: N_13  and  C_30
    7  A    between atoms: C_14  and  N_18
    8  A    between atoms: C_16  and  C_30
    9  A    between atoms: C_16  and  C_46
   10  A    between atoms: C_36  and  C_37
   11  A    between atoms: C_38  and  C_46
                            x       y       z     vdW  Elec       q    Type
                         _______ _______ _______ _____ _____    ______ ____

>  <TORSDO>
F 11

$$$$
=
 OpenBabel11032420023D

 46 51  0  0  1  0  0  0  0  0999 V2000
  183.3420  178.6120  142.5070 C   0  0  0  0  0  3  0  0  0  0  0  0
  182.8130  178.7190  143.7970 C   0  0  0  0  0  0  0  0  0  0  0  0
  180.6070  178.9650  142.8490 C   0  0  0  0  0  3  0  0  0  0  0  0
  181.1160  178.8460  141.5440 C   0  0  0  0  0  0  0  0  0  0  0  0
  181.4430  178.9000  143.9630 C   0  0  0  0  0  3  0  0  0  0  0  0
  182.5200  178.6740  141.3740 C   0  0  0  0  0  0  0  0  0  0  0  0
  185.4660  177.5190  137.9510 C   0  0  0  0  0  0  0  0  0  0  0  0
  189.9200  177.0800  138.9630 C   0  0  0  0  0  2  0  0  0  0  0  0
  183.9680  177.3870  138.0190 C   0  0  0  0  0  2  0  0  0  0  0  0
  183.2440  178.5930  140.0600 C   0  0  1  0  0  3  0  0  0  0  0  0
  188.4040  177.0780  137.1710 C   0  0  0  0  0  0  0  0  0  0  0  0
  186.2430  178.2130  139.0330 C   0  0  0  0  0  0  0  0  0  0  0  0
  190.5430  176.8350  137.6190 C   0  0  0  0  0  3  0  0  0  0  0  0
  185.9920  177.0520  136.8560 N   0  0  0  0  0  0  0  0  0  0  0  0
  187.3370  176.9860  136.4420 N   0  0  0  0  0  0  0  0  0  0  0  0
  184.3080  179.6620  139.7940 C   0  0  0  0  0  2  0  0  0  0  0  0
  189.6940  176.8340  136.6410 N   0  0  0  0  0  0  0  0  0  0  0  0
  187.6090  177.8400  139.3920 C   0  0  0  0  0  3  0  0  0  0  0  0
  188.4950  177.2760  138.5930 C   0  0  0  0  0  0  0  0  0  0  0  0
  185.7050  179.1260  139.8540 C   0  0  0  0  0  3  0  0  0  0  0  0
  183.4440  177.2190  139.4370 C   0  0  0  0  0  2  0  0  0  0  0  0
  180.1300  178.9120  140.4390 C   0  0  0  0  0  0  0  0  0  0  0  0
  179.9810  180.0930  139.6520 N   0  0  0  0  0  2  0  0  0  0  0  0
  179.4570  177.8850  140.1480 O   0  0  0  0  0  0  0  0  0  0  0  0
  179.1290  180.1610  138.4720 C   0  0  0  0  0  2  0  0  0  0  0  0
  178.9320  182.5460  139.2140 C   0  0  0  0  0  1  0  0  0  0  0  0
  178.9310  181.6080  138.0110 C   0  0  1  0  0  3  0  0  0  0  0  0
  179.8820  184.6040  136.3870 C   0  0  0  0  0  2  0  0  0  0  0  0
  181.8990  182.3560  138.2770 O   0  0  0  0  0  0  0  0  0  0  0  0
  181.1870  184.2530  137.0740 C   0  0  0  0  0  2  0  0  0  0  0  0
  181.0840  182.8360  137.5050 C   0  0  0  0  0  0  0  0  0  0  0  0
  179.1440  183.0910  135.6860 S   0  0  0  0  0  0  0  0  0  0  0  0
  179.9560  182.0270  136.9310 C   0  0  2  0  0  0  0  0  0  0  0  0
  180.6390  180.9950  134.8480 O   0  0  0  0  0  1  0  0  0  0  0  0
  180.4900  180.7770  136.2200 C   0  0  0  0  0  2  0  0  0  0  0  0
  183.6550  178.6500  144.9510 N   0  0  0  0  0  2  0  0  0  0  0  0
  185.0880  178.8990  144.8930 C   0  0  0  0  0  2  0  0  0  0  0  0
  185.6770  178.8890  146.2920 C   0  0  0  0  0  2  0  0  0  0  0  0
  186.9690  178.0950  146.3100 C   0  0  0  0  0  2  0  0  0  0  0  0
  187.1020  177.3640  145.0610 N   0  0  0  0  0  2  0  0  0  0  0  0
  189.7710  176.2320  142.5520 C   0  0  0  0  0  2  0  0  0  0  0  0
  188.3570  176.5070  143.0530 C   0  0  0  0  0  2  0  0  0  0  0  0
  188.3400  177.2620  144.3560 C   0  0  0  0  0  0  0  0  0  0  0  0
  190.7110  177.8470  144.1540 C   0  0  0  0  0  2  0  0  0  0  0  0
  190.6100  177.4920  142.6770 C   0  0  0  0  0  2  0  0  0  0  0  0
  189.3900  177.9080  144.7830 N   0  0  0  0  0  0  0  0  0  0  0  0
  1  2  1  0  0  0  0
  2  5  2  0  0  0  0
  2 36  1  0  0  0  0
  3  5  1  0  0  0  0
  4  3  2  0  0  0  0
  6  4  1  0  0  0  0
  6  1  2  0  0  0  0
  7  9  1  0  0  0  0
  7 12  1  0  0  0  0
  9 21  1  0  0  0  0
 10  6  1  1  0  0  0
 11 19  1  0  0  0  0
 12 18  1  0  0  0  0
 12 20  2  0  0  0  0
 13  8  1  0  0  0  0
 14  7  2  0  0  0  0
 15 14  1  0  0  0  0
 15 11  2  0  0  0  0
 16 20  1  0  0  0  0
 16 10  1  0  0  0  0
 17 11  1  0  0  0  0
 17 13  2  0  0  0  0
 19  8  1  0  0  0  0
 19 18  2  0  0  0  0
 21 10  1  0  0  0  0
 22  4  1  0  0  0  0
 23 22  1  0  0  0  0
 24 22  2  0  0  0  0
 25 23  1  0  0  0  0
 27 25  1  0  0  0  0
 27 26  1  1  0  0  0
 28 30  1  0  0  0  0
 30 31  1  0  0  0  0
 31 29  2  0  0  0  0
 32 28  1  0  0  0  0
 32 33  1  0  0  0  0
 33 35  1  6  0  0  0
 33 31  1  0  0  0  0
 33 27  1  0  0  0  0
 34 35  1  0  0  0  0
 37 36  1  0  0  0  0
 37 38  1  0  0  0  0
 38 39  1  0  0  0  0
 40 39  1  0  0  0  0
 41 45  1  0  0  0  0
 41 42  1  0  0  0  0
 42 43  1  0  0  0  0
 43 46  2  0  0  0  0
 43 40  1  0  0  0  0
 44 46  1  0  0  0  0
 45 44  1  0  0  0  0
M  END
>  <MODEL>
4

>  <REMARK>
 VINA RESULT:      -8.0      5.280     10.745
  Name = 
  11 active torsions:
  status: ('A' for Active; 'I' for Inactive)
    1  A    between atoms: N_1  and  C_36
    2  A    between atoms: C_3  and  C_40
    3  A    between atoms: C_7  and  N_18
    4  A    between atoms: C_7  and  C_37
    5  A    between atoms: C_9  and  C_44
    6  A    between atoms: N_13  and  C_30
    7  A    between atoms: C_14  and  N_18
    8  A    between atoms: C_16  and  C_30
    9  A    between atoms: C_16  and  C_46
   10  A    between atoms: C_36  and  C_37
   11  A    between atoms: C_38  and  C_46
                            x       y       z     vdW  Elec       q    Type
                         _______ _______ _______ _____ _____    ______ ____

>  <TORSDO>
F 11

$$$$
=
 OpenBabel11032420023D

 46 51  0  0  1  0  0  0  0  0999 V2000
  185.9750  178.3720  144.2290 C   0  0  0  0  0  3  0  0  0  0  0  0
  185.8110  178.1290  145.5960 C   0  0  0  0  0  0  0  0  0  0  0  0
  183.4540  178.6050  145.3750 C   0  0  0  0  0  3  0  0  0  0  0  0
  183.5950  178.8400  143.9970 C   0  0  0  0  0  0  0  0  0  0  0  0
  184.5470  178.2510  146.1660 C   0  0  0  0  0  3  0  0  0  0  0  0
  184.8910  178.7280  143.4150 C   0  0  0  0  0  0  0  0  0  0  0  0
  186.3610  178.3270  139.0100 C   0  0  0  0  0  0  0  0  0  0  0  0
  190.3610  176.2190  138.2290 C   0  0  0  0  0  2  0  0  0  0  0  0
  184.9850  178.6220  139.5440 C   0  0  0  0  0  2  0  0  0  0  0  0
  185.2390  179.0040  141.9800 C   0  0  1  0  0  3  0  0  0  0  0  0
  188.6460  177.4200  137.1680 C   0  0  0  0  0  0  0  0  0  0  0  0
  187.5530  178.2370  139.9190 C   0  0  0  0  0  0  0  0  0  0  0  0
  190.5460  176.3960  136.7490 C   0  0  0  0  0  3  0  0  0  0  0  0
  186.4200  178.2370  137.7130 N   0  0  0  0  0  0  0  0  0  0  0  0
  187.5100  177.9620  136.8630 N   0  0  0  0  0  0  0  0  0  0  0  0
  186.5660  179.7210  141.7190 C   0  0  0  0  0  2  0  0  0  0  0  0
  189.5900  177.0580  136.1780 N   0  0  0  0  0  0  0  0  0  0  0  0
  188.6930  177.3650  139.6460 C   0  0  0  0  0  3  0  0  0  0  0  0
  189.0940  176.9610  138.4560 C   0  0  0  0  0  0  0  0  0  0  0  0
  187.6080  178.8280  141.1200 C   0  0  0  0  0  3  0  0  0  0  0  0
  184.7360  178.0310  140.9230 C   0  0  0  0  0  2  0  0  0  0  0  0
  182.3600  179.1910  143.2550 C   0  0  0  0  0  0  0  0  0  0  0  0
  181.8620  178.3530  142.2120 N   0  0  0  0  0  2  0  0  0  0  0  0
  181.7030  180.2130  143.5940 O   0  0  0  0  0  0  0  0  0  0  0  0
  180.5840  178.5810  141.5500 C   0  0  0  0  0  2  0  0  0  0  0  0
  179.3890  176.6360  140.5180 C   0  0  0  0  0  1  0  0  0  0  0  0
  180.4450  177.7130  140.2960 C   0  0  1  0  0  3  0  0  0  0  0  0
  181.1080  181.0130  139.2030 C   0  0  0  0  0  2  0  0  0  0  0  0
  182.0520  177.9300  137.6870 O   0  0  0  0  0  0  0  0  0  0  0  0
  181.8930  180.2310  138.1680 C   0  0  0  0  0  2  0  0  0  0  0  0
  181.4350  178.8210  138.2480 C   0  0  0  0  0  0  0  0  0  0  0  0
  179.5080  180.1890  139.4940 S   0  0  0  0  0  0  0  0  0  0  0  0
  180.1770  178.5540  139.0260 C   0  0  2  0  0  0  0  0  0  0  0  0
  178.9360  178.5180  136.9450 O   0  0  0  0  0  1  0  0  0  0  0  0
  179.1390  177.8420  138.1510 C   0  0  0  0  0  2  0  0  0  0  0  0
  186.9200  177.7620  146.4220 N   0  0  0  0  0  2  0  0  0  0  0  0
  187.1420  178.3390  147.7400 C   0  0  0  0  0  2  0  0  0  0  0  0
  188.6120  178.2500  148.1070 C   0  0  0  0  0  2  0  0  0  0  0  0
  189.2490  177.0530  147.4300 C   0  0  0  0  0  2  0  0  0  0  0  0
  190.3200  177.5060  146.5570 N   0  0  0  0  0  2  0  0  0  0  0  0
  191.2300  177.7260  142.8390 C   0  0  0  0  0  2  0  0  0  0  0  0
  191.4880  177.7680  144.3420 C   0  0  0  0  0  2  0  0  0  0  0  0
  190.3110  177.2840  145.1460 C   0  0  0  0  0  0  0  0  0  0  0  0
  189.2360  176.3210  143.1660 C   0  0  0  0  0  2  0  0  0  0  0  0
  190.5880  176.4010  142.4690 C   0  0  0  0  0  2  0  0  0  0  0  0
  189.3560  176.5800  144.6020 N   0  0  0  0  0  0  0  0  0  0  0  0
  1  2  1  0  0  0  0
  2  5  2  0  0  0  0
  2 36  1  0  0  0  0
  3  5  1  0  0  0  0
  4  3  2  0  0  0  0
  6  4  1  0  0  0  0
  6  1  2  0  0  0  0
  7  9  1  0  0  0  0
  7 12  1  0  0  0  0
  8 19  1  0  0  0  0
  9 21  1  0  0  0  0
 10  6  1  1  0  0  0
 11 19  1  0  0  0  0
 12 20  2  0  0  0  0
 13  8  1  0  0  0  0
 14  7  2  0  0  0  0
 15 11  2  0  0  0  0
 15 14  1  0  0  0  0
 16 10  1  0  0  0  0
 17 13  2  0  0  0  0
 17 11  1  0  0  0  0
 18 12  1  0  0  0  0
 19 18  2  0  0  0  0
 20 16  1  0  0  0  0
 21 10  1  0  0  0  0
 22 24  2  0  0  0  0
 22  4  1  0  0  0  0
 23 22  1  0  0  0  0
 25 23  1  0  0  0  0
 27 26  1  1  0  0  0
 27 25  1  0  0  0  0
 28 32  1  0  0  0  0
 29 31  2  0  0  0  0
 30 31  1  0  0  0  0
 30 28  1  0  0  0  0
 31 33  1  0  0  0  0
 33 35  1  6  0  0  0
 33 32  1  0  0  0  0
 33 27  1  0  0  0  0
 34 35  1  0  0  0  0
 36 37  1  0  0  0  0
 37 38  1  0  0  0  0
 39 38  1  0  0  0  0
 40 39  1  0  0  0  0
 41 42  1  0  0  0  0
 42 43  1  0  0  0  0
 43 40  1  0  0  0  0
 44 46  1  0  0  0  0
 45 41  1  0  0  0  0
 45 44  1  0  0  0  0
 46 43  2  0  0  0  0
M  END
>  <MODEL>
5

>  <REMARK>
 VINA RESULT:      -8.0      4.857     10.518
  Name = 
  11 active torsions:
  status: ('A' for Active; 'I' for Inactive)
    1  A    between atoms: N_1  and  C_36
    2  A    between atoms: C_3  and  C_40
    3  A    between atoms: C_7  and  N_18
    4  A    between atoms: C_7  and  C_37
    5  A    between atoms: C_9  and  C_44
    6  A    between atoms: N_13  and  C_30
    7  A    between atoms: C_14  and  N_18
    8  A    between atoms: C_16  and  C_30
    9  A    between atoms: C_16  and  C_46
   10  A    between atoms: C_36  and  C_37
   11  A    between atoms: C_38  and  C_46
                            x       y       z     vdW  Elec       q    Type
                         _______ _______ _______ _____ _____    ______ ____

>  <TORSDO>
F 11

$$$$
=
 OpenBabel11032420023D

 46 51  0  0  1  0  0  0  0  0999 V2000
  191.1590  176.9100  140.7950 C   0  0  0  0  0  3  0  0  0  0  0  0
  190.6150  177.2630  142.0340 C   0  0  0  0  0  0  0  0  0  0  0  0
  188.5980  177.9820  140.9190 C   0  0  0  0  0  3  0  0  0  0  0  0
  189.1190  177.6210  139.6660 C   0  0  0  0  0  0  0  0  0  0  0  0
  189.3340  177.8030  142.0910 C   0  0  0  0  0  3  0  0  0  0  0  0
  190.4360  177.0800  139.6060 C   0  0  0  0  0  0  0  0  0  0  0  0
  192.7650  174.7290  136.3230 C   0  0  0  0  0  0  0  0  0  0  0  0
  196.1590  171.9350  137.6340 C   0  0  0  0  0  2  0  0  0  0  0  0
  191.4230  175.4090  136.2530 C   0  0  0  0  0  2  0  0  0  0  0  0
  191.1760  176.7000  138.3540 C   0  0  1  0  0  3  0  0  0  0  0  0
  195.1140  172.8380  135.7370 C   0  0  0  0  0  0  0  0  0  0  0  0
  193.6400  174.8430  137.5370 C   0  0  0  0  0  0  0  0  0  0  0  0
  196.7320  171.4710  136.3260 C   0  0  0  0  0  3  0  0  0  0  0  0
  193.1070  174.1160  135.2260 N   0  0  0  0  0  0  0  0  0  0  0  0
  194.2610  173.3680  134.9190 N   0  0  0  0  0  0  0  0  0  0  0  0
  192.6660  177.0530  138.3020 C   0  0  0  0  0  2  0  0  0  0  0  0
  196.1420  171.9760  135.2890 N   0  0  0  0  0  0  0  0  0  0  0  0
  194.5510  173.7820  137.9590 C   0  0  0  0  0  3  0  0  0  0  0  0
  195.1080  172.8780  137.1750 C   0  0  0  0  0  0  0  0  0  0  0  0
  193.5560  175.8540  138.4120 C   0  0  0  0  0  3  0  0  0  0  0  0
  190.7090  175.4670  137.5940 C   0  0  0  0  0  2  0  0  0  0  0  0
  188.2390  177.8390  138.4930 C   0  0  0  0  0  0  0  0  0  0  0  0
  187.4400  176.7820  137.9630 N   0  0  0  0  0  2  0  0  0  0  0  0
  188.1440  178.9960  137.9970 O   0  0  0  0  0  0  0  0  0  0  0  0
  186.4590  176.9810  136.9040 C   0  0  0  0  0  2  0  0  0  0  0  0
  183.9600  177.0880  137.0480 C   0  0  0  0  0  1  0  0  0  0  0  0
  185.1810  176.1820  137.1740 C   0  0  1  0  0  3  0  0  0  0  0  0
  187.4200  174.0570  135.4450 C   0  0  0  0  0  2  0  0  0  0  0  0
  185.0390  173.2150  137.9580 O   0  0  0  0  0  0  0  0  0  0  0  0
  186.8200  173.0660  136.4220 C   0  0  0  0  0  2  0  0  0  0  0  0
  185.5980  173.6950  136.9830 C   0  0  0  0  0  0  0  0  0  0  0  0
  186.1000  175.1290  134.7870 S   0  0  0  0  0  0  0  0  0  0  0  0
  185.0770  174.9190  136.2870 C   0  0  2  0  0  0  0  0  0  0  0  0
  183.5410  174.0390  134.6320 O   0  0  0  0  0  1  0  0  0  0  0  0
  183.6210  174.7190  135.8510 C   0  0  0  0  0  2  0  0  0  0  0  0
  191.3540  177.0840  143.2450 N   0  0  0  0  0  2  0  0  0  0  0  0
  191.1780  177.9420  144.4070 C   0  0  0  0  0  2  0  0  0  0  0  0
  191.2810  177.1240  145.6810 C   0  0  0  0  0  2  0  0  0  0  0  0
  189.9500  177.1150  146.4070 C   0  0  0  0  0  2  0  0  0  0  0  0
  188.8700  177.1710  145.4340 N   0  0  0  0  0  2  0  0  0  0  0  0
  185.3510  178.6210  144.9820 C   0  0  0  0  0  2  0  0  0  0  0  0
  186.5430  177.7290  144.6520 C   0  0  0  0  0  2  0  0  0  0  0  0
  187.6000  177.7550  145.7240 C   0  0  0  0  0  0  0  0  0  0  0  0
  186.0860  178.8340  147.3210 C   0  0  0  0  0  2  0  0  0  0  0  0
  184.9330  178.4020  146.4250 C   0  0  0  0  0  2  0  0  0  0  0  0
  187.3410  178.1910  146.9270 N   0  0  0  0  0  0  0  0  0  0  0  0
  1  2  1  0  0  0  0
  2  5  2  0  0  0  0
  2 36  1  0  0  0  0
  3  5  1  0  0  0  0
  4  3  2  0  0  0  0
  6  4  1  0  0  0  0
  6  1  2  0  0  0  0
  7 12  1  0  0  0  0
  9  7  1  0  0  0  0
  9 21  1  0  0  0  0
 10  6  1  1  0  0  0
 11 19  1  0  0  0  0
 12 18  1  0  0  0  0
 12 20  2  0  0  0  0
 13  8  1  0  0  0  0
 14  7  2  0  0  0  0
 15 14  1  0  0  0  0
 15 11  2  0  0  0  0
 16 10  1  0  0  0  0
 16 20  1  0  0  0  0
 17 11  1  0  0  0  0
 17 13  2  0  0  0  0
 19  8  1  0  0  0  0
 19 18  2  0  0  0  0
 21 10  1  0  0  0  0
 22  4  1  0  0  0  0
 23 22  1  0  0  0  0
 24 22  2  0  0  0  0
 25 27  1  0  0  0  0
 25 23  1  0  0  0  0
 27 26  1  6  0  0  0
 28 30  1  0  0  0  0
 30 31  1  0  0  0  0
 31 29  2  0  0  0  0
 32 28  1  0  0  0  0
 32 33  1  0  0  0  0
 33 35  1  6  0  0  0
 33 31  1  0  0  0  0
 33 27  1  0  0  0  0
 34 35  1  0  0  0  0
 36 37  1  0  0  0  0
 37 38  1  0  0  0  0
 38 39  1  0  0  0  0
 40 43  1  0  0  0  0
 40 39  1  0  0  0  0
 41 45  1  0  0  0  0
 42 41  1  0  0  0  0
 42 43  1  0  0  0  0
 43 46  2  0  0  0  0
 45 44  1  0  0  0  0
 46 44  1  0  0  0  0
M  END
>  <MODEL>
6

>  <REMARK>
 VINA RESULT:      -7.8      3.109      8.139
  Name = 
  11 active torsions:
  status: ('A' for Active; 'I' for Inactive)
    1  A    between atoms: N_1  and  C_36
    2  A    between atoms: C_3  and  C_40
    3  A    between atoms: C_7  and  N_18
    4  A    between atoms: C_7  and  C_37
    5  A    between atoms: C_9  and  C_44
    6  A    between atoms: N_13  and  C_30
    7  A    between atoms: C_14  and  N_18
    8  A    between atoms: C_16  and  C_30
    9  A    between atoms: C_16  and  C_46
   10  A    between atoms: C_36  and  C_37
   11  A    between atoms: C_38  and  C_46
                            x       y       z     vdW  Elec       q    Type
                         _______ _______ _______ _____ _____    ______ ____

>  <TORSDO>
F 11

$$$$
=
 OpenBabel11032420023D

 46 51  0  0  1  0  0  0  0  0999 V2000
  191.3460  176.8330  140.7620 C   0  0  0  0  0  3  0  0  0  0  0  0
  190.8800  177.2660  142.0070 C   0  0  0  0  0  0  0  0  0  0  0  0
  188.8500  178.0380  140.9530 C   0  0  0  0  0  3  0  0  0  0  0  0
  189.2930  177.5970  139.6950 C   0  0  0  0  0  0  0  0  0  0  0  0
  189.6310  177.8730  142.0970 C   0  0  0  0  0  3  0  0  0  0  0  0
  190.5780  176.9870  139.6000 C   0  0  0  0  0  0  0  0  0  0  0  0
  192.6830  174.3940  136.3490 C   0  0  0  0  0  0  0  0  0  0  0  0
  196.1200  171.6440  137.6410 C   0  0  0  0  0  2  0  0  0  0  0  0
  191.3470  175.0870  136.3130 C   0  0  0  0  0  2  0  0  0  0  0  0
  191.2380  176.5160  138.3360 C   0  0  1  0  0  3  0  0  0  0  0  0
  194.9730  172.4370  135.7520 C   0  0  0  0  0  0  0  0  0  0  0  0
  193.6300  174.5750  137.4990 C   0  0  0  0  0  0  0  0  0  0  0  0
  196.6100  171.0880  136.3340 C   0  0  0  0  0  3  0  0  0  0  0  0
  192.9530  173.7060  135.2770 N   0  0  0  0  0  0  0  0  0  0  0  0
  194.0790  172.9230  134.9520 N   0  0  0  0  0  0  0  0  0  0  0  0
  192.7250  176.8440  138.1720 C   0  0  0  0  0  2  0  0  0  0  0  0
  195.9650  171.5330  135.3030 N   0  0  0  0  0  0  0  0  0  0  0  0
  194.5530  173.5310  137.9370 C   0  0  0  0  0  3  0  0  0  0  0  0
  195.0540  172.5700  137.1830 C   0  0  0  0  0  0  0  0  0  0  0  0
  193.6080  175.6430  138.3090 C   0  0  0  0  0  3  0  0  0  0  0  0
  190.7140  175.2430  137.6870 C   0  0  0  0  0  2  0  0  0  0  0  0
  188.3700  177.8090  138.5540 C   0  0  0  0  0  0  0  0  0  0  0  0
  187.6380  176.7240  137.9860 N   0  0  0  0  0  2  0  0  0  0  0  0
  188.1790  178.9790  138.1220 O   0  0  0  0  0  0  0  0  0  0  0  0
  186.6180  176.9030  136.9600 C   0  0  0  0  0  2  0  0  0  0  0  0
  187.0120  174.4290  136.9470 C   0  0  0  0  0  1  0  0  0  0  0  0
  186.3250  175.5880  136.2320 C   0  0  1  0  0  3  0  0  0  0  0  0
  183.3570  176.2310  138.0480 C   0  0  0  0  0  2  0  0  0  0  0  0
  184.2280  177.2790  134.7560 O   0  0  0  0  0  0  0  0  0  0  0  0
  183.0920  177.0640  136.8090 C   0  0  0  0  0  2  0  0  0  0  0  0
  184.0650  176.6280  135.7760 C   0  0  0  0  0  0  0  0  0  0  0  0
  184.0910  174.6360  137.5560 S   0  0  0  0  0  0  0  0  0  0  0  0
  184.8100  175.3490  136.0340 C   0  0  2  0  0  0  0  0  0  0  0  0
  184.0710  173.1440  135.3540 O   0  0  0  0  0  1  0  0  0  0  0  0
  184.5940  174.3540  134.8880 C   0  0  0  0  0  2  0  0  0  0  0  0
  191.6660  177.1020  143.1910 N   0  0  0  0  0  2  0  0  0  0  0  0
  191.3760  177.8080  144.4300 C   0  0  0  0  0  2  0  0  0  0  0  0
  191.2580  176.8220  145.5770 C   0  0  0  0  0  2  0  0  0  0  0  0
  189.9480  177.0280  146.3110 C   0  0  0  0  0  2  0  0  0  0  0  0
  188.8650  177.1250  145.3460 N   0  0  0  0  0  2  0  0  0  0  0  0
  185.3480  178.6020  144.9650 C   0  0  0  0  0  2  0  0  0  0  0  0
  186.5360  177.7200  144.5970 C   0  0  0  0  0  2  0  0  0  0  0  0
  187.5980  177.7010  145.6650 C   0  0  0  0  0  0  0  0  0  0  0  0
  186.0930  178.7220  147.3080 C   0  0  0  0  0  2  0  0  0  0  0  0
  184.9350  178.3290  146.4010 C   0  0  0  0  0  2  0  0  0  0  0  0
  187.3450  178.0910  146.8840 N   0  0  0  0  0  0  0  0  0  0  0  0
  1  2  1  0  0  0  0
  2  5  2  0  0  0  0
  2 36  1  0  0  0  0
  3  5  1  0  0  0  0
  4  3  2  0  0  0  0
  6  4  1  0  0  0  0
  6  1  2  0  0  0  0
  7 12  1  0  0  0  0
  9  7  1  0  0  0  0
  9 21  1  0  0  0  0
 10  6  1  1  0  0  0
 11 19  1  0  0  0  0
 12 18  1  0  0  0  0
 12 20  2  0  0  0  0
 13  8  1  0  0  0  0
 14  7  2  0  0  0  0
 15 14  1  0  0  0  0
 15 11  2  0  0  0  0
 16 20  1  0  0  0  0
 16 10  1  0  0  0  0
 17 11  1  0  0  0  0
 17 13  2  0  0  0  0
 19  8  1  0  0  0  0
 19 18  2  0  0  0  0
 21 10  1  0  0  0  0
 22  4  1  0  0  0  0
 23 22  1  0  0  0  0
 24 22  2  0  0  0  0
 25 23  1  0  0  0  0
 27 26  1  1  0  0  0
 27 25  1  0  0  0  0
 29 31  2  0  0  0  0
 30 28  1  0  0  0  0
 31 33  1  0  0  0  0
 31 30  1  0  0  0  0
 32 28  1  0  0  0  0
 33 35  1  6  0  0  0
 33 27  1  0  0  0  0
 33 32  1  0  0  0  0
 35 34  1  0  0  0  0
 36 37  1  0  0  0  0
 37 38  1  0  0  0  0
 38 39  1  0  0  0  0
 40 43  1  0  0  0  0
 40 39  1  0  0  0  0
 41 45  1  0  0  0  0
 42 41  1  0  0  0  0
 42 43  1  0  0  0  0
 43 46  2  0  0  0  0
 45 44  1  0  0  0  0
 46 44  1  0  0  0  0
M  END
>  <MODEL>
7

>  <REMARK>
 VINA RESULT:      -7.8      3.277      8.349
  Name = 
  11 active torsions:
  status: ('A' for Active; 'I' for Inactive)
    1  A    between atoms: N_1  and  C_36
    2  A    between atoms: C_3  and  C_40
    3  A    between atoms: C_7  and  N_18
    4  A    between atoms: C_7  and  C_37
    5  A    between atoms: C_9  and  C_44
    6  A    between atoms: N_13  and  C_30
    7  A    between atoms: C_14  and  N_18
    8  A    between atoms: C_16  and  C_30
    9  A    between atoms: C_16  and  C_46
   10  A    between atoms: C_36  and  C_37
   11  A    between atoms: C_38  and  C_46
                            x       y       z     vdW  Elec       q    Type
                         _______ _______ _______ _____ _____    ______ ____

>  <TORSDO>
F 11

$$$$
=
 OpenBabel11032420023D

 46 51  0  0  1  0  0  0  0  0999 V2000
  183.7830  178.0880  141.3870 C   0  0  0  0  0  3  0  0  0  0  0  0
  184.5480  178.6430  142.4170 C   0  0  0  0  0  0  0  0  0  0  0  0
  186.4030  178.8690  140.8870 C   0  0  0  0  0  3  0  0  0  0  0  0
  185.6470  178.3260  139.8350 C   0  0  0  0  0  0  0  0  0  0  0  0
  185.8610  179.0290  142.1630 C   0  0  0  0  0  3  0  0  0  0  0  0
  184.3070  177.9190  140.0980 C   0  0  0  0  0  0  0  0  0  0  0  0
  181.7940  174.8030  137.7100 C   0  0  0  0  0  0  0  0  0  0  0  0
  183.8040  170.8710  136.4670 C   0  0  0  0  0  2  0  0  0  0  0  0
  181.3400  175.9730  138.5430 C   0  0  0  0  0  2  0  0  0  0  0  0
  183.3780  177.2630  139.1170 C   0  0  1  0  0  3  0  0  0  0  0  0
  181.8270  172.1130  136.2270 C   0  0  0  0  0  0  0  0  0  0  0  0
  183.2480  174.5550  137.4310 C   0  0  0  0  0  0  0  0  0  0  0  0
  182.7470  170.2060  135.6330 C   0  0  0  0  0  3  0  0  0  0  0  0
  180.8200  174.0980  137.2100 N   0  0  0  0  0  0  0  0  0  0  0  0
  180.8480  172.9410  136.4060 N   0  0  0  0  0  0  0  0  0  0  0  0
  183.9410  176.9740  137.7220 C   0  0  0  0  0  2  0  0  0  0  0  0
  181.6620  170.9030  135.5130 N   0  0  0  0  0  0  0  0  0  0  0  0
  183.8010  173.2160  137.2440 C   0  0  0  0  0  3  0  0  0  0  0  0
  183.1460  172.1600  136.8010 C   0  0  0  0  0  0  0  0  0  0  0  0
  184.1800  175.5170  137.4760 C   0  0  0  0  0  3  0  0  0  0  0  0
  182.3090  176.3250  139.6610 C   0  0  0  0  0  2  0  0  0  0  0  0
  186.3210  178.2220  138.5190 C   0  0  0  0  0  0  0  0  0  0  0  0
  187.2740  177.1920  138.2570 N   0  0  0  0  0  2  0  0  0  0  0  0
  185.9990  179.0170  137.5930 O   0  0  0  0  0  0  0  0  0  0  0  0
  187.8580  176.9640  136.9420 C   0  0  0  0  0  2  0  0  0  0  0  0
  189.6890  178.3210  137.9830 C   0  0  0  0  0  1  0  0  0  0  0  0
  189.3620  177.2550  136.9430 C   0  0  1  0  0  3  0  0  0  0  0  0
  192.7830  176.3780  136.7280 C   0  0  0  0  0  2  0  0  0  0  0  0
  190.5550  176.0030  139.4820 O   0  0  0  0  0  0  0  0  0  0  0  0
  192.5220  176.0580  138.1870 C   0  0  0  0  0  2  0  0  0  0  0  0
  191.0490  176.0180  138.3660 C   0  0  0  0  0  0  0  0  0  0  0  0
  191.3750  175.8020  135.7230 S   0  0  0  0  0  0  0  0  0  0  0  0
  190.2090  175.9730  137.1210 C   0  0  2  0  0  0  0  0  0  0  0  0
  189.9970  173.5760  137.4080 O   0  0  0  0  0  1  0  0  0  0  0  0
  189.2870  174.7470  137.1310 C   0  0  0  0  0  2  0  0  0  0  0  0
  184.0080  178.8180  143.7300 N   0  0  0  0  0  2  0  0  0  0  0  0
  184.7800  179.3810  144.8280 C   0  0  0  0  0  2  0  0  0  0  0  0
  185.0180  178.3270  145.8940 C   0  0  0  0  0  2  0  0  0  0  0  0
  186.4980  178.0210  146.0060 C   0  0  0  0  0  2  0  0  0  0  0  0
  186.8890  177.1260  144.9280 N   0  0  0  0  0  2  0  0  0  0  0  0
  189.9700  176.0890  142.8970 C   0  0  0  0  0  2  0  0  0  0  0  0
  188.4830  176.1850  143.2220 C   0  0  0  0  0  2  0  0  0  0  0  0
  188.1970  177.1320  144.3570 C   0  0  0  0  0  0  0  0  0  0  0  0
  190.4500  178.0920  144.2450 C   0  0  0  0  0  2  0  0  0  0  0  0
  190.5740  177.4820  142.8550 C   0  0  0  0  0  2  0  0  0  0  0  0
  189.0740  178.0190  144.7420 N   0  0  0  0  0  0  0  0  0  0  0  0
  1  2  1  0  0  0  0
  2 36  1  0  0  0  0
  3  5  1  0  0  0  0
  4  6  1  0  0  0  0
  4  3  2  0  0  0  0
  5  2  2  0  0  0  0
  6  1  2  0  0  0  0
  7  9  1  0  0  0  0
  8 19  1  0  0  0  0
  9 21  1  0  0  0  0
 10 21  1  0  0  0  0
 10  6  1  1  0  0  0
 11 15  2  0  0  0  0
 11 19  1  0  0  0  0
 12 20  2  0  0  0  0
 12  7  1  0  0  0  0
 13  8  1  0  0  0  0
 14  7  2  0  0  0  0
 15 14  1  0  0  0  0
 16 10  1  0  0  0  0
 17 13  2  0  0  0  0
 17 11  1  0  0  0  0
 18 12  1  0  0  0  0
 19 18  2  0  0  0  0
 20 16  1  0  0  0  0
 22  4  1  0  0  0  0
 23 22  1  0  0  0  0
 24 22  2  0  0  0  0
 25 27  1  0  0  0  0
 25 23  1  0  0  0  0
 27 33  1  0  0  0  0
 27 26  1  1  0  0  0
 28 30  1  0  0  0  0
 30 31  1  0  0  0  0
 31 29  2  0  0  0  0
 32 28  1  0  0  0  0
 32 33  1  0  0  0  0
 33 35  1  1  0  0  0
 33 31  1  0  0  0  0
 35 34  1  0  0  0  0
 36 37  1  0  0  0  0
 37 38  1  0  0  0  0
 38 39  1  0  0  0  0
 40 39  1  0  0  0  0
 41 42  1  0  0  0  0
 42 43  1  0  0  0  0
 43 46  2  0  0  0  0
 43 40  1  0  0  0  0
 44 46  1  0  0  0  0
 45 41  1  0  0  0  0
 45 44  1  0  0  0  0
M  END
>  <MODEL>
8

>  <REMARK>
 VINA RESULT:      -7.3      3.178      7.873
  Name = 
  11 active torsions:
  status: ('A' for Active; 'I' for Inactive)
    1  A    between atoms: N_1  and  C_36
    2  A    between atoms: C_3  and  C_40
    3  A    between atoms: C_7  and  N_18
    4  A    between atoms: C_7  and  C_37
    5  A    between atoms: C_9  and  C_44
    6  A    between atoms: N_13  and  C_30
    7  A    between atoms: C_14  and  N_18
    8  A    between atoms: C_16  and  C_30
    9  A    between atoms: C_16  and  C_46
   10  A    between atoms: C_36  and  C_37
   11  A    between atoms: C_38  and  C_46
                            x       y       z     vdW  Elec       q    Type
                         _______ _______ _______ _____ _____    ______ ____

>  <TORSDO>
F 11

$$$$
=
 OpenBabel11032420023D

 46 51  0  0  1  0  0  0  0  0999 V2000
  190.2020  175.8690  137.1860 C   0  0  0  0  0  3  0  0  0  0  0  0
  189.8730  175.1660  136.0220 C   0  0  0  0  0  0  0  0  0  0  0  0
  187.8160  176.4210  135.8720 C   0  0  0  0  0  3  0  0  0  0  0  0
  188.1340  177.1480  137.0320 C   0  0  0  0  0  0  0  0  0  0  0  0
  188.6760  175.4440  135.3700 C   0  0  0  0  0  3  0  0  0  0  0  0
  189.3540  176.8550  137.7070 C   0  0  0  0  0  0  0  0  0  0  0  0
  190.2300  177.7380  142.2000 C   0  0  0  0  0  0  0  0  0  0  0  0
  186.8490  177.1300  145.2410 C   0  0  0  0  0  2  0  0  0  0  0  0
  191.1850  177.4970  141.0600 C   0  0  0  0  0  2  0  0  0  0  0  0
  189.8230  177.4830  138.9890 C   0  0  1  0  0  3  0  0  0  0  0  0
  189.0480  177.9250  145.0280 C   0  0  0  0  0  0  0  0  0  0  0  0
  188.7500  177.8500  141.9730 C   0  0  0  0  0  0  0  0  0  0  0  0
  187.4610  177.6240  146.5210 C   0  0  0  0  0  3  0  0  0  0  0  0
  190.8100  177.9100  143.3520 N   0  0  0  0  0  0  0  0  0  0  0  0
  190.2600  178.1410  144.6280 N   0  0  0  0  0  0  0  0  0  0  0  0
  188.9550  178.6060  139.5640 C   0  0  0  0  0  2  0  0  0  0  0  0
  188.6750  178.0570  146.3870 N   0  0  0  0  0  0  0  0  0  0  0  0
  187.7630  177.4330  142.9660 C   0  0  0  0  0  3  0  0  0  0  0  0
  187.9430  177.3960  144.2730 C   0  0  0  0  0  0  0  0  0  0  0  0
  188.2100  178.1990  140.7970 C   0  0  0  0  0  3  0  0  0  0  0  0
  190.6030  176.6150  139.9660 C   0  0  0  0  0  2  0  0  0  0  0  0
  187.1530  178.1750  137.4610 C   0  0  0  0  0  0  0  0  0  0  0  0
  186.0010  177.8210  138.2240 N   0  0  0  0  0  2  0  0  0  0  0  0
  187.3760  179.3890  137.2020 O   0  0  0  0  0  0  0  0  0  0  0  0
  185.0850  178.8060  138.7860 C   0  0  0  0  0  2  0  0  0  0  0  0
  184.7130  178.9350  141.2600 C   0  0  0  0  0  1  0  0  0  0  0  0
  184.3050  178.2290  139.9700 C   0  0  1  0  0  3  0  0  0  0  0  0
  182.1240  178.2830  137.1850 C   0  0  0  0  0  2  0  0  0  0  0  0
  182.2810  175.9220  139.8490 O   0  0  0  0  0  0  0  0  0  0  0  0
  181.7140  176.9650  137.8130 C   0  0  0  0  0  2  0  0  0  0  0  0
  182.2660  176.9510  139.1920 C   0  0  0  0  0  0  0  0  0  0  0  0
  182.3590  179.5280  138.4950 S   0  0  0  0  0  0  0  0  0  0  0  0
  182.7760  178.2540  139.7380 C   0  0  2  0  0  0  0  0  0  0  0  0
  180.8220  179.2020  140.8110 O   0  0  0  0  0  1  0  0  0  0  0  0
  182.0650  178.6100  141.0490 C   0  0  0  0  0  2  0  0  0  0  0  0
  190.7440  174.1640  135.4910 N   0  0  0  0  0  2  0  0  0  0  0  0
  192.1670  174.1200  135.7930 C   0  0  0  0  0  2  0  0  0  0  0  0
  192.9430  174.9320  134.7710 C   0  0  0  0  0  2  0  0  0  0  0  0
  193.7660  175.9980  135.4660 C   0  0  0  0  0  2  0  0  0  0  0  0
  195.1680  175.6140  135.4470 N   0  0  0  0  0  2  0  0  0  0  0  0
  197.8110  173.9070  137.6380 C   0  0  0  0  0  2  0  0  0  0  0  0
  197.2970  174.7340  136.4640 C   0  0  0  0  0  2  0  0  0  0  0  0
  195.8330  175.0670  136.5860 C   0  0  0  0  0  0  0  0  0  0  0  0
  195.7830  174.3990  138.9440 C   0  0  0  0  0  2  0  0  0  0  0  0
  197.3020  174.4990  138.9410 C   0  0  0  0  0  2  0  0  0  0  0  0
  195.2050  174.9720  137.7260 N   0  0  0  0  0  0  0  0  0  0  0  0
  1  6  1  0  0  0  0
  2  1  2  0  0  0  0
  3  4  1  0  0  0  0
  4 22  1  0  0  0  0
  4  6  2  0  0  0  0
  5  3  2  0  0  0  0
  5  2  1  0  0  0  0
  7 14  2  0  0  0  0
  8 13  1  0  0  0  0
  9  7  1  0  0  0  0
 10  6  1  1  0  0  0
 10 16  1  0  0  0  0
 10 21  1  0  0  0  0
 11 17  1  0  0  0  0
 12  7  1  0  0  0  0
 12 18  1  0  0  0  0
 14 15  1  0  0  0  0
 15 11  2  0  0  0  0
 16 20  1  0  0  0  0
 17 13  2  0  0  0  0
 18 19  2  0  0  0  0
 19 11  1  0  0  0  0
 19  8  1  0  0  0  0
 20 12  2  0  0  0  0
 21  9  1  0  0  0  0
 22 23  1  0  0  0  0
 23 25  1  0  0  0  0
 24 22  2  0  0  0  0
 25 27  1  0  0  0  0
 27 26  1  1  0  0  0
 28 30  1  0  0  0  0
 28 32  1  0  0  0  0
 30 31  1  0  0  0  0
 31 33  1  0  0  0  0
 31 29  2  0  0  0  0
 32 33  1  0  0  0  0
 33 27  1  0  0  0  0
 33 35  1  1  0  0  0
 34 35  1  0  0  0  0
 36 37  1  0  0  0  0
 36  2  1  0  0  0  0
 38 39  1  0  0  0  0
 38 37  1  0  0  0  0
 40 39  1  0  0  0  0
 40 43  1  0  0  0  0
 41 45  1  0  0  0  0
 42 43  1  0  0  0  0
 42 41  1  0  0  0  0
 43 46  2  0  0  0  0
 45 44  1  0  0  0  0
 46 44  1  0  0  0  0
M  END
>  <MODEL>
9

>  <REMARK>
 VINA RESULT:      -7.3      3.678      9.128
  Name = 
  11 active torsions:
  status: ('A' for Active; 'I' for Inactive)
    1  A    between atoms: N_1  and  C_36
    2  A    between atoms: C_3  and  C_40
    3  A    between atoms: C_7  and  N_18
    4  A    between atoms: C_7  and  C_37
    5  A    between atoms: C_9  and  C_44
    6  A    between atoms: N_13  and  C_30
    7  A    between atoms: C_14  and  N_18
    8  A    between atoms: C_16  and  C_30
    9  A    between atoms: C_16  and  C_46
   10  A    between atoms: C_36  and  C_37
   11  A    between atoms: C_38  and  C_46
                            x       y       z     vdW  Elec       q    Type
                         _______ _______ _______ _____ _____    ______ ____

>  <TORSDO>
F 11

$$$$
