=
 OpenBabel11042413313D

 41 44  0  0  1  0  0  0  0  0999 V2000
  189.2500  177.2790  144.7000 C   0  0  0  0  0  0  0  0  0  0  0  0
  186.3210  178.0840  144.4080 C   0  0  0  0  0  0  0  0  0  0  0  0
  187.0250  177.4380  143.4610 C   0  0  0  0  0  3  0  0  0  0  0  0
  188.8370  177.0370  146.0810 C   0  0  0  0  0  0  0  0  0  0  0  0
  189.6470  176.5570  146.9170 O   0  0  0  0  0  0  0  0  0  0  0  0
  190.3480  178.0100  144.4700 C   0  0  0  0  0  3  0  0  0  0  0  0
  184.5090  179.2580  145.4450 C   0  0  0  0  0  2  0  0  0  0  0  0
  188.3350  176.7140  143.6420 C   0  0  1  0  0  3  0  0  0  0  0  0
  185.4630  178.7790  146.5340 C   0  0  0  0  0  0  0  0  0  0  0  0
  186.7510  178.3960  145.8080 C   0  0  1  0  0  3  0  0  0  0  0  0
  185.7310  179.9060  147.5100 C   0  0  0  0  0  1  0  0  0  0  0  0
  184.9640  178.6370  144.1260 C   0  0  1  0  0  3  0  0  0  0  0  0
  184.8230  177.6090  147.2690 C   0  0  0  0  0  1  0  0  0  0  0  0
  187.5000  177.3330  146.4750 N   0  0  0  0  0  2  0  0  0  0  0  0
  185.0260  179.7090  143.0440 C   0  0  0  0  0  2  0  0  0  0  0  0
  185.4000  179.3030  140.5920 N   0  0  0  0  0  0  0  0  0  0  0  0
  183.7500  177.8040  140.1490 N   0  0  0  0  0  0  0  0  0  0  0  0
  185.4040  178.4610  138.3050 C   0  0  0  0  0  1  0  0  0  0  0  0
  184.6510  179.1480  141.7570 N   0  0  0  0  0  0  0  0  0  0  0  0
  184.8730  178.5520  139.6910 C   0  0  0  0  0  0  0  0  0  0  0  0
  183.5920  178.1780  141.5490 C   0  0  0  0  0  3  0  0  0  0  0  0
  188.9630  176.4920  142.4130 O   0  0  0  0  0  0  0  0  0  0  0  0
  188.3410  177.3730  141.5270 C   0  0  0  0  0  2  0  0  0  0  0  0
  188.7760  177.0520  140.1120 C   0  0  0  0  0  2  0  0  0  0  0  0
  189.1610  178.3330  139.4020 C   0  0  0  0  0  2  0  0  0  0  0  0
  189.2520  178.0820  137.9110 C   0  0  0  0  0  2  0  0  0  0  0  0
  189.6430  176.7030  137.6790 N   0  0  0  0  0  2  0  0  0  0  0  0
  190.9960  176.7160  137.1440 C   0  0  0  0  0  2  0  0  0  0  0  0
  191.9290  176.2400  138.1520 N   0  0  0  0  0  2  0  0  0  0  0  0
  193.2230  176.1310  137.5030 C   0  0  0  0  0  2  0  0  0  0  0  0
  196.0490  174.4990  137.2730 C   0  0  0  0  0  2  0  0  0  0  0  0
  194.7390  174.3820  138.0620 C   0  0  0  0  0  2  0  0  0  0  0  0
  195.9340  175.5650  136.2880 N   0  0  0  0  0  0  0  0  0  0  0  0
  194.9920  175.1420  135.2510 C   0  0  0  0  0  2  0  0  0  0  0  0
  197.2330  175.6910  135.6530 C   0  0  0  0  0  1  0  0  0  0  0  0
  193.7200  174.4900  135.8330 C   0  0  0  0  0  2  0  0  0  0  0  0
  193.5430  174.7290  137.2750 N   0  0  0  0  0  0  0  0  0  0  0  0
  190.8600  178.3780  143.1150 C   0  0  0  0  0  2  0  0  0  0  0  0
  191.9640  176.3350  143.4210 C   0  0  0  0  0  1  0  0  0  0  0  0
  192.1560  177.4790  141.4010 C   0  0  0  0  0  1  0  0  0  0  0  0
  192.0940  177.6620  142.8410 N   0  0  0  0  0  0  0  0  0  0  0  0
  1  4  1  0  0  0  0
  3  8  1  0  0  0  0
  3  2  2  0  0  0  0
  4 14  1  0  0  0  0
  4  5  2  0  0  0  0
  6  1  2  0  0  0  0
  7  9  1  0  0  0  0
  8 22  1  6  0  0  0
  8  1  1  0  0  0  0
  9 13  1  0  0  0  0
  9 11  1  0  0  0  0
 10  2  1  6  0  0  0
 10 14  1  0  0  0  0
 10  9  1  0  0  0  0
 12 15  1  6  0  0  0
 12  2  1  0  0  0  0
 12  7  1  0  0  0  0
 16 19  1  0  0  0  0
 17 21  2  0  0  0  0
 18 20  1  0  0  0  0
 19 15  1  0  0  0  0
 20 17  1  0  0  0  0
 20 16  2  0  0  0  0
 21 19  1  0  0  0  0
 23 22  1  0  0  0  0
 24 23  1  0  0  0  0
 25 24  1  0  0  0  0
 26 25  1  0  0  0  0
 27 26  1  0  0  0  0
 28 27  1  0  0  0  0
 28 29  1  0  0  0  0
 30 29  1  0  0  0  0
 31 32  1  0  0  0  0
 33 31  1  0  0  0  0
 34 36  1  0  0  0  0
 34 33  1  0  0  0  0
 35 33  1  0  0  0  0
 36 37  1  0  0  0  0
 37 30  1  0  0  0  0
 37 32  1  0  0  0  0
 38  6  1  0  0  0  0
 40 41  1  0  0  0  0
 41 38  1  0  0  0  0
 41 39  1  0  0  0  0
M  END
>  <MODEL>
1

>  <REMARK>
 VINA RESULT:      -7.0      0.000      0.000
  Name = 
  14 active torsions:
  status: ('A' for Active; 'I' for Inactive)
    1  A    between atoms: N_3  and  C_17
    2  A    between atoms: N_3  and  C_32
    3  A    between atoms: C_4  and  N_30
    4  A    between atoms: C_4  and  C_35
    5  A    between atoms: C_15  and  C_26
    6  A    between atoms: C_17  and  N_37
    7  A    between atoms: C_19  and  O_20
    8  A    between atoms: O_20  and  C_21
    9  A    between atoms: C_21  and  C_22
   10  A    between atoms: C_22  and  C_28
   11  A    between atoms: N_25  and  C_32
   12  A    between atoms: N_25  and  C_39
   13  A    between atoms: C_26  and  N_40
   14  A    between atoms: C_28  and  C_39
                            x       y       z     vdW  Elec       q    Type
                         _______ _______ _______ _____ _____    ______ ____

>  <TORSDO>
F 14

$$$$
=
 OpenBabel11042413313D

 41 44  0  0  1  0  0  0  0  0999 V2000
  189.2460  177.2720  144.6940 C   0  0  0  0  0  0  0  0  0  0  0  0
  186.3170  178.0870  144.4210 C   0  0  0  0  0  0  0  0  0  0  0  0
  187.0100  177.4280  143.4740 C   0  0  0  0  0  3  0  0  0  0  0  0
  188.8450  177.0460  146.0820 C   0  0  0  0  0  0  0  0  0  0  0  0
  189.6600  176.5710  146.9150 O   0  0  0  0  0  0  0  0  0  0  0  0
  190.3450  177.9960  144.4460 C   0  0  0  0  0  3  0  0  0  0  0  0
  184.5200  179.2780  145.4640 C   0  0  0  0  0  2  0  0  0  0  0  0
  188.3190  176.7000  143.6510 C   0  0  1  0  0  3  0  0  0  0  0  0
  185.4820  178.8060  146.5480 C   0  0  0  0  0  0  0  0  0  0  0  0
  186.7620  178.4110  145.8140 C   0  0  1  0  0  3  0  0  0  0  0  0
  185.7650  179.9420  147.5100 C   0  0  0  0  0  1  0  0  0  0  0  0
  184.9610  178.6420  144.1470 C   0  0  1  0  0  3  0  0  0  0  0  0
  184.8450  177.6460  147.3010 C   0  0  0  0  0  1  0  0  0  0  0  0
  187.5130  177.3510  146.4850 N   0  0  0  0  0  2  0  0  0  0  0  0
  185.0170  179.7040  143.0540 C   0  0  0  0  0  2  0  0  0  0  0  0
  185.2510  179.3120  140.5820 N   0  0  0  0  0  0  0  0  0  0  0  0
  183.5890  177.8030  140.2270 N   0  0  0  0  0  0  0  0  0  0  0  0
  185.1290  178.4820  138.2940 C   0  0  0  0  0  1  0  0  0  0  0  0
  184.5720  179.1460  141.7870 N   0  0  0  0  0  0  0  0  0  0  0  0
  184.6780  178.5620  139.7080 C   0  0  0  0  0  0  0  0  0  0  0  0
  183.5100  178.1690  141.6360 C   0  0  0  0  0  3  0  0  0  0  0  0
  188.9340  176.4640  142.4180 O   0  0  0  0  0  0  0  0  0  0  0  0
  188.2830  177.3120  141.5220 C   0  0  0  0  0  2  0  0  0  0  0  0
  188.9500  177.2180  140.1660 C   0  0  0  0  0  2  0  0  0  0  0  0
  188.6590  178.4750  139.3740 C   0  0  0  0  0  2  0  0  0  0  0  0
  189.4220  178.4430  138.0650 C   0  0  0  0  0  2  0  0  0  0  0  0
  188.4960  178.1960  136.9750 N   0  0  0  0  0  2  0  0  0  0  0  0
  189.0470  177.1180  136.1670 C   0  0  0  0  0  2  0  0  0  0  0  0
  188.7870  175.8390  136.8070 N   0  0  0  0  0  2  0  0  0  0  0  0
  187.3550  175.7720  137.0350 C   0  0  0  0  0  2  0  0  0  0  0  0
  184.2500  175.5130  136.0360 C   0  0  0  0  0  2  0  0  0  0  0  0
  185.6150  175.8330  135.4120 C   0  0  0  0  0  2  0  0  0  0  0  0
  184.4290  175.1100  137.4240 N   0  0  0  0  0  0  0  0  0  0  0  0
  185.0900  173.8040  137.4490 C   0  0  0  0  0  2  0  0  0  0  0  0
  183.1020  174.9240  137.9810 C   0  0  0  0  0  1  0  0  0  0  0  0
  186.2730  173.7160  136.4620 C   0  0  0  0  0  2  0  0  0  0  0  0
  186.7180  175.0260  135.9590 N   0  0  0  0  0  0  0  0  0  0  0  0
  190.8460  178.3480  143.0840 C   0  0  0  0  0  2  0  0  0  0  0  0
  191.9550  176.3100  143.4010 C   0  0  0  0  0  1  0  0  0  0  0  0
  192.1350  177.4380  141.3710 C   0  0  0  0  0  1  0  0  0  0  0  0
  192.0790  177.6320  142.8090 N   0  0  0  0  0  0  0  0  0  0  0  0
  1  4  1  0  0  0  0
  3  8  1  0  0  0  0
  3  2  2  0  0  0  0
  4 14  1  0  0  0  0
  4  5  2  0  0  0  0
  6  1  2  0  0  0  0
  7  9  1  0  0  0  0
  8 22  1  6  0  0  0
  8  1  1  0  0  0  0
  9 13  1  0  0  0  0
  9 11  1  0  0  0  0
 10  2  1  6  0  0  0
 10 14  1  0  0  0  0
 10  9  1  0  0  0  0
 12 15  1  6  0  0  0
 12  2  1  0  0  0  0
 12  7  1  0  0  0  0
 16 19  1  0  0  0  0
 17 21  2  0  0  0  0
 18 20  1  0  0  0  0
 19 15  1  0  0  0  0
 20 17  1  0  0  0  0
 20 16  2  0  0  0  0
 21 19  1  0  0  0  0
 23 22  1  0  0  0  0
 24 23  1  0  0  0  0
 25 24  1  0  0  0  0
 26 25  1  0  0  0  0
 27 26  1  0  0  0  0
 28 29  1  0  0  0  0
 28 27  1  0  0  0  0
 29 30  1  0  0  0  0
 31 33  1  0  0  0  0
 32 37  1  0  0  0  0
 32 31  1  0  0  0  0
 33 34  1  0  0  0  0
 33 35  1  0  0  0  0
 36 34  1  0  0  0  0
 37 36  1  0  0  0  0
 37 30  1  0  0  0  0
 38  6  1  0  0  0  0
 40 41  1  0  0  0  0
 41 38  1  0  0  0  0
 41 39  1  0  0  0  0
M  END
>  <MODEL>
2

>  <REMARK>
 VINA RESULT:      -7.0      2.757      4.525
  Name = 
  14 active torsions:
  status: ('A' for Active; 'I' for Inactive)
    1  A    between atoms: N_3  and  C_17
    2  A    between atoms: N_3  and  C_32
    3  A    between atoms: C_4  and  N_30
    4  A    between atoms: C_4  and  C_35
    5  A    between atoms: C_15  and  C_26
    6  A    between atoms: C_17  and  N_37
    7  A    between atoms: C_19  and  O_20
    8  A    between atoms: O_20  and  C_21
    9  A    between atoms: C_21  and  C_22
   10  A    between atoms: C_22  and  C_28
   11  A    between atoms: N_25  and  C_32
   12  A    between atoms: N_25  and  C_39
   13  A    between atoms: C_26  and  N_40
   14  A    between atoms: C_28  and  C_39
                            x       y       z     vdW  Elec       q    Type
                         _______ _______ _______ _____ _____    ______ ____

>  <TORSDO>
F 14

$$$$
=
 OpenBabel11042413313D

 41 44  0  0  1  0  0  0  0  0999 V2000
  189.3040  177.2600  144.7630 C   0  0  0  0  0  0  0  0  0  0  0  0
  186.3540  177.9920  144.4870 C   0  0  0  0  0  0  0  0  0  0  0  0
  187.0560  177.3200  143.5560 C   0  0  0  0  0  3  0  0  0  0  0  0
  188.9190  177.0700  146.1600 C   0  0  0  0  0  0  0  0  0  0  0  0
  189.7520  176.6430  147.0020 O   0  0  0  0  0  0  0  0  0  0  0  0
  190.3820  178.0030  144.4830 C   0  0  0  0  0  3  0  0  0  0  0  0
  184.5340  179.1710  145.5050 C   0  0  0  0  0  2  0  0  0  0  0  0
  188.3840  176.6320  143.7460 C   0  0  1  0  0  3  0  0  0  0  0  0
  185.5160  178.7600  146.5960 C   0  0  0  0  0  0  0  0  0  0  0  0
  186.8000  178.3730  145.8650 C   0  0  1  0  0  3  0  0  0  0  0  0
  185.7760  179.9330  147.5180 C   0  0  0  0  0  1  0  0  0  0  0  0
  184.9810  178.5040  144.2050 C   0  0  1  0  0  3  0  0  0  0  0  0
  184.9130  177.6090  147.3920 C   0  0  0  0  0  1  0  0  0  0  0  0
  187.5820  177.3550  146.5640 N   0  0  0  0  0  2  0  0  0  0  0  0
  185.0030  179.5300  143.0780 C   0  0  0  0  0  2  0  0  0  0  0  0
  183.0660  178.5640  141.8000 N   0  0  0  0  0  0  0  0  0  0  0  0
  183.9310  178.4930  139.6990 N   0  0  0  0  0  0  0  0  0  0  0  0
  181.4970  177.8010  140.0990 C   0  0  0  0  0  1  0  0  0  0  0  0
  184.3960  178.9740  141.8800 N   0  0  0  0  0  0  0  0  0  0  0  0
  182.8230  178.2820  140.5690 C   0  0  0  0  0  0  0  0  0  0  0  0
  185.0020  178.9780  140.5620 C   0  0  0  0  0  3  0  0  0  0  0  0
  188.9960  176.3710  142.5170 O   0  0  0  0  0  0  0  0  0  0  0  0
  188.3290  177.1860  141.6020 C   0  0  0  0  0  2  0  0  0  0  0  0
  189.0340  177.1200  140.2630 C   0  0  0  0  0  2  0  0  0  0  0  0
  188.7390  178.3800  139.4770 C   0  0  0  0  0  2  0  0  0  0  0  0
  187.7650  178.0680  138.3590 C   0  0  0  0  0  2  0  0  0  0  0  0
  188.0730  178.8970  137.2070 N   0  0  0  0  0  2  0  0  0  0  0  0
  187.2430  178.4390  136.1040 C   0  0  0  0  0  2  0  0  0  0  0  0
  187.3500  176.9960  135.9710 N   0  0  0  0  0  2  0  0  0  0  0  0
  188.4290  176.7430  135.0340 C   0  0  0  0  0  2  0  0  0  0  0  0
  190.0290  175.1350  137.3910 C   0  0  0  0  0  2  0  0  0  0  0  0
  188.7460  174.9520  136.5700 C   0  0  0  0  0  2  0  0  0  0  0  0
  190.7730  176.2800  136.8880 N   0  0  0  0  0  0  0  0  0  0  0  0
  191.3030  175.9480  135.5650 C   0  0  0  0  0  2  0  0  0  0  0  0
  191.9130  176.4590  137.7680 C   0  0  0  0  0  1  0  0  0  0  0  0
  190.2630  175.2490  134.6650 C   0  0  0  0  0  2  0  0  0  0  0  0
  188.8820  175.3650  135.1630 N   0  0  0  0  0  0  0  0  0  0  0  0
  190.8640  178.3230  143.1050 C   0  0  0  0  0  2  0  0  0  0  0  0
  191.9630  176.2730  143.3840 C   0  0  0  0  0  1  0  0  0  0  0  0
  192.1910  177.4640  141.3950 C   0  0  0  0  0  1  0  0  0  0  0  0
  192.1030  177.6130  142.8370 N   0  0  0  0  0  0  0  0  0  0  0  0
  1  4  1  0  0  0  0
  3  8  1  0  0  0  0
  3  2  2  0  0  0  0
  4 14  1  0  0  0  0
  4  5  2  0  0  0  0
  6  1  2  0  0  0  0
  7  9  1  0  0  0  0
  8 22  1  6  0  0  0
  8  1  1  0  0  0  0
  9 13  1  0  0  0  0
  9 11  1  0  0  0  0
 10  2  1  6  0  0  0
 10 14  1  0  0  0  0
 10  9  1  0  0  0  0
 12 15  1  6  0  0  0
 12  2  1  0  0  0  0
 12  7  1  0  0  0  0
 16 19  1  0  0  0  0
 17 21  2  0  0  0  0
 17 20  1  0  0  0  0
 18 20  1  0  0  0  0
 19 15  1  0  0  0  0
 20 16  2  0  0  0  0
 21 19  1  0  0  0  0
 23 22  1  0  0  0  0
 24 23  1  0  0  0  0
 25 24  1  0  0  0  0
 26 25  1  0  0  0  0
 27 26  1  0  0  0  0
 28 27  1  0  0  0  0
 29 28  1  0  0  0  0
 30 37  1  0  0  0  0
 30 29  1  0  0  0  0
 32 31  1  0  0  0  0
 33 31  1  0  0  0  0
 33 35  1  0  0  0  0
 34 33  1  0  0  0  0
 36 37  1  0  0  0  0
 36 34  1  0  0  0  0
 37 32  1  0  0  0  0
 38  6  1  0  0  0  0
 40 41  1  0  0  0  0
 41 38  1  0  0  0  0
 41 39  1  0  0  0  0
M  END
>  <MODEL>
3

>  <REMARK>
 VINA RESULT:      -6.9      1.912      2.754
  Name = 
  14 active torsions:
  status: ('A' for Active; 'I' for Inactive)
    1  A    between atoms: N_3  and  C_17
    2  A    between atoms: N_3  and  C_32
    3  A    between atoms: C_4  and  N_30
    4  A    between atoms: C_4  and  C_35
    5  A    between atoms: C_15  and  C_26
    6  A    between atoms: C_17  and  N_37
    7  A    between atoms: C_19  and  O_20
    8  A    between atoms: O_20  and  C_21
    9  A    between atoms: C_21  and  C_22
   10  A    between atoms: C_22  and  C_28
   11  A    between atoms: N_25  and  C_32
   12  A    between atoms: N_25  and  C_39
   13  A    between atoms: C_26  and  N_40
   14  A    between atoms: C_28  and  C_39
                            x       y       z     vdW  Elec       q    Type
                         _______ _______ _______ _____ _____    ______ ____

>  <TORSDO>
F 14

$$$$
=
 OpenBabel11042413313D

 41 44  0  0  1  0  0  0  0  0999 V2000
  181.4550  177.3440  139.4530 C   0  0  0  0  0  0  0  0  0  0  0  0
  183.9790  176.4810  137.9700 C   0  0  0  0  0  0  0  0  0  0  0  0
  183.9680  177.3380  139.0080 C   0  0  0  0  0  3  0  0  0  0  0  0
  181.0770  175.9530  139.2070 C   0  0  0  0  0  0  0  0  0  0  0  0
  179.9970  175.4930  139.6610 O   0  0  0  0  0  0  0  0  0  0  0  0
  180.5890  178.3160  139.1410 C   0  0  0  0  0  3  0  0  0  0  0  0
  184.8140  175.2190  136.1140 C   0  0  0  0  0  2  0  0  0  0  0  0
  182.8480  177.5500  139.9950 C   0  0  1  0  0  3  0  0  0  0  0  0
  183.4770  174.6250  136.5410 C   0  0  0  0  0  0  0  0  0  0  0  0
  182.8320  175.6780  137.4400 C   0  0  1  0  0  3  0  0  0  0  0  0
  182.6120  174.3830  135.3210 C   0  0  0  0  0  1  0  0  0  0  0  0
  185.2090  176.2650  137.1540 C   0  0  1  0  0  3  0  0  0  0  0  0
  183.7300  173.3050  137.2570 C   0  0  0  0  0  1  0  0  0  0  0  0
  181.9520  175.1110  138.4600 N   0  0  0  0  0  2  0  0  0  0  0  0
  185.6350  177.5520  136.4580 C   0  0  0  0  0  2  0  0  0  0  0  0
  187.4960  177.4810  138.1450 N   0  0  0  0  0  0  0  0  0  0  0  0
  188.8040  179.1900  137.4140 N   0  0  0  0  0  0  0  0  0  0  0  0
  189.5660  177.7620  139.4010 C   0  0  0  0  0  1  0  0  0  0  0  0
  186.8370  178.0870  137.0770 N   0  0  0  0  0  0  0  0  0  0  0  0
  188.5960  178.1220  138.3330 C   0  0  0  0  0  0  0  0  0  0  0  0
  187.6350  179.1740  136.5430 C   0  0  0  0  0  3  0  0  0  0  0  0
  183.0100  178.7510  140.6910 O   0  0  0  0  0  0  0  0  0  0  0  0
  184.3400  178.7440  141.1160 C   0  0  0  0  0  2  0  0  0  0  0  0
  184.4130  178.1910  142.5240 C   0  0  0  0  0  2  0  0  0  0  0  0
  183.2750  178.7590  143.3460 C   0  0  0  0  0  2  0  0  0  0  0  0
  183.8060  179.2620  144.6740 C   0  0  0  0  0  2  0  0  0  0  0  0
  185.0830  178.6290  144.9510 N   0  0  0  0  0  2  0  0  0  0  0  0
  185.2720  178.6360  146.3930 C   0  0  0  0  0  2  0  0  0  0  0  0
  186.4800  177.9050  146.7370 N   0  0  0  0  0  2  0  0  0  0  0  0
  187.4260  178.1350  145.6610 C   0  0  0  0  0  2  0  0  0  0  0  0
  190.6280  177.5070  145.4240 C   0  0  0  0  0  2  0  0  0  0  0  0
  189.4220  176.9510  146.1920 C   0  0  0  0  0  2  0  0  0  0  0  0
  190.1790  178.5080  144.4670 N   0  0  0  0  0  0  0  0  0  0  0  0
  189.4270  177.8350  143.4060 C   0  0  0  0  0  2  0  0  0  0  0  0
  191.3700  179.0640  143.8520 C   0  0  0  0  0  1  0  0  0  0  0  0
  188.4310  176.7910  143.9540 C   0  0  0  0  0  2  0  0  0  0  0  0
  188.1810  176.9180  145.3990 N   0  0  0  0  0  0  0  0  0  0  0  0
  180.8570  179.7790  139.2920 C   0  0  0  0  0  2  0  0  0  0  0  0
  180.7390  181.8920  138.2880 C   0  0  0  0  0  1  0  0  0  0  0  0
  181.1560  180.0020  136.9920 C   0  0  0  0  0  1  0  0  0  0  0  0
  180.3820  180.4920  138.1190 N   0  0  0  0  0  0  0  0  0  0  0  0
  1  8  1  0  0  0  0
  2  3  2  0  0  0  0
  3  8  1  0  0  0  0
  4  1  1  0  0  0  0
  4  5  2  0  0  0  0
  6 38  1  0  0  0  0
  6  1  2  0  0  0  0
  7  9  1  0  0  0  0
  7 12  1  0  0  0  0
  8 22  1  6  0  0  0
  9 13  1  0  0  0  0
  9 10  1  0  0  0  0
 10  2  1  1  0  0  0
 10 14  1  0  0  0  0
 11  9  1  0  0  0  0
 12 15  1  6  0  0  0
 12  2  1  0  0  0  0
 14  4  1  0  0  0  0
 15 19  1  0  0  0  0
 16 20  2  0  0  0  0
 17 20  1  0  0  0  0
 19 16  1  0  0  0  0
 20 18  1  0  0  0  0
 21 19  1  0  0  0  0
 21 17  2  0  0  0  0
 22 23  1  0  0  0  0
 23 24  1  0  0  0  0
 24 25  1  0  0  0  0
 25 26  1  0  0  0  0
 26 27  1  0  0  0  0
 27 28  1  0  0  0  0
 28 29  1  0  0  0  0
 30 29  1  0  0  0  0
 31 32  1  0  0  0  0
 33 31  1  0  0  0  0
 34 36  1  0  0  0  0
 34 33  1  0  0  0  0
 35 33  1  0  0  0  0
 36 37  1  0  0  0  0
 37 30  1  0  0  0  0
 37 32  1  0  0  0  0
 40 41  1  0  0  0  0
 41 39  1  0  0  0  0
 41 38  1  0  0  0  0
M  END
>  <MODEL>
4

>  <REMARK>
 VINA RESULT:      -6.7      4.008      9.295
  Name = 
  14 active torsions:
  status: ('A' for Active; 'I' for Inactive)
    1  A    between atoms: N_3  and  C_17
    2  A    between atoms: N_3  and  C_32
    3  A    between atoms: C_4  and  N_30
    4  A    between atoms: C_4  and  C_35
    5  A    between atoms: C_15  and  C_26
    6  A    between atoms: C_17  and  N_37
    7  A    between atoms: C_19  and  O_20
    8  A    between atoms: O_20  and  C_21
    9  A    between atoms: C_21  and  C_22
   10  A    between atoms: C_22  and  C_28
   11  A    between atoms: N_25  and  C_32
   12  A    between atoms: N_25  and  C_39
   13  A    between atoms: C_26  and  N_40
   14  A    between atoms: C_28  and  C_39
                            x       y       z     vdW  Elec       q    Type
                         _______ _______ _______ _____ _____    ______ ____

>  <TORSDO>
F 14

$$$$
=
 OpenBabel11042413313D

 41 44  0  0  1  0  0  0  0  0999 V2000
  184.3800  177.0580  137.1480 C   0  0  0  0  0  0  0  0  0  0  0  0
  183.9660  178.2890  139.9090 C   0  0  0  0  0  0  0  0  0  0  0  0
  185.1490  178.2490  139.2690 C   0  0  0  0  0  3  0  0  0  0  0  0
  183.0540  177.6290  136.9160 C   0  0  0  0  0  0  0  0  0  0  0  0
  182.5120  177.5520  135.7820 O   0  0  0  0  0  0  0  0  0  0  0  0
  184.6000  175.7770  136.8240 C   0  0  0  0  0  3  0  0  0  0  0  0
  182.3800  178.6430  141.6690 C   0  0  0  0  0  2  0  0  0  0  0  0
  185.3770  177.9800  137.8030 C   0  0  1  0  0  3  0  0  0  0  0  0
  181.6220  178.4950  140.3540 C   0  0  0  0  0  0  0  0  0  0  0  0
  182.6250  177.9000  139.3690 C   0  0  1  0  0  3  0  0  0  0  0  0
  180.4540  177.5490  140.5420 C   0  0  0  0  0  1  0  0  0  0  0  0
  183.8700  178.7090  141.3370 C   0  0  1  0  0  3  0  0  0  0  0  0
  181.1060  179.8630  139.9270 C   0  0  0  0  0  1  0  0  0  0  0  0
  182.3810  178.2920  137.9820 N   0  0  0  0  0  2  0  0  0  0  0  0
  184.6430  177.7550  142.2400 C   0  0  0  0  0  2  0  0  0  0  0  0
  185.6750  177.8590  144.5300 N   0  0  0  0  0  0  0  0  0  0  0  0
  184.7220  179.7550  145.3440 N   0  0  0  0  0  0  0  0  0  0  0  0
  186.4640  178.5000  146.7440 C   0  0  0  0  0  1  0  0  0  0  0  0
  184.7660  178.3140  143.5760 N   0  0  0  0  0  0  0  0  0  0  0  0
  185.6290  178.6710  145.5260 C   0  0  0  0  0  0  0  0  0  0  0  0
  184.1390  179.5430  144.0240 C   0  0  0  0  0  3  0  0  0  0  0  0
  186.7090  177.6400  137.5530 O   0  0  0  0  0  0  0  0  0  0  0  0
  187.2410  178.7370  136.8750 C   0  0  0  0  0  2  0  0  0  0  0  0
  188.6960  178.9070  137.2570 C   0  0  0  0  0  2  0  0  0  0  0  0
  189.4770  177.6860  136.8170 C   0  0  0  0  0  2  0  0  0  0  0  0
  190.2590  177.1300  137.9900 C   0  0  0  0  0  2  0  0  0  0  0  0
  189.3530  176.8880  139.0990 N   0  0  0  0  0  2  0  0  0  0  0  0
  189.9790  177.4210  140.3000 C   0  0  0  0  0  2  0  0  0  0  0  0
  188.9890  177.5520  141.3560 N   0  0  0  0  0  2  0  0  0  0  0  0
  189.5180  176.8510  142.5110 C   0  0  0  0  0  2  0  0  0  0  0  0
  191.4390  176.4450  145.1280 C   0  0  0  0  0  2  0  0  0  0  0  0
  191.5920  176.4310  143.6020 C   0  0  0  0  0  2  0  0  0  0  0  0
  190.0910  176.8650  145.4810 N   0  0  0  0  0  0  0  0  0  0  0  0
  189.9420  178.2820  145.1470 C   0  0  0  0  0  2  0  0  0  0  0  0
  189.9820  176.7570  146.9240 C   0  0  0  0  0  1  0  0  0  0  0  0
  190.5190  178.6320  143.7590 C   0  0  0  0  0  2  0  0  0  0  0  0
  190.7810  177.4520  142.9180 N   0  0  0  0  0  0  0  0  0  0  0  0
  185.8850  175.0490  137.0490 C   0  0  0  0  0  2  0  0  0  0  0  0
  185.0370  173.9560  135.1580 C   0  0  0  0  0  1  0  0  0  0  0  0
  186.9430  175.2840  134.9870 C   0  0  0  0  0  1  0  0  0  0  0  0
  186.2640  174.3300  135.8450 N   0  0  0  0  0  0  0  0  0  0  0  0
  1  8  1  0  0  0  0
  2 12  1  0  0  0  0
  3  2  2  0  0  0  0
  4  1  1  0  0  0  0
  4 14  1  0  0  0  0
  5  4  2  0  0  0  0
  6 38  1  0  0  0  0
  6  1  2  0  0  0  0
  8 22  1  1  0  0  0
  8  3  1  0  0  0  0
  9 11  1  0  0  0  0
  9  7  1  0  0  0  0
 10 14  1  6  0  0  0
 10  2  1  0  0  0  0
 10  9  1  0  0  0  0
 12  7  1  0  0  0  0
 12 15  1  1  0  0  0
 13  9  1  0  0  0  0
 15 19  1  0  0  0  0
 16 20  2  0  0  0  0
 17 20  1  0  0  0  0
 19 21  1  0  0  0  0
 19 16  1  0  0  0  0
 20 18  1  0  0  0  0
 21 17  2  0  0  0  0
 23 24  1  0  0  0  0
 23 22  1  0  0  0  0
 25 24  1  0  0  0  0
 25 26  1  0  0  0  0
 26 27  1  0  0  0  0
 27 28  1  0  0  0  0
 28 29  1  0  0  0  0
 29 30  1  0  0  0  0
 30 37  1  0  0  0  0
 31 33  1  0  0  0  0
 32 31  1  0  0  0  0
 33 35  1  0  0  0  0
 34 33  1  0  0  0  0
 36 34  1  0  0  0  0
 37 32  1  0  0  0  0
 37 36  1  0  0  0  0
 39 41  1  0  0  0  0
 40 41  1  0  0  0  0
 41 38  1  0  0  0  0
M  END
>  <MODEL>
5

>  <REMARK>
 VINA RESULT:      -6.6      3.444      7.561
  Name = 
  14 active torsions:
  status: ('A' for Active; 'I' for Inactive)
    1  A    between atoms: N_3  and  C_17
    2  A    between atoms: N_3  and  C_32
    3  A    between atoms: C_4  and  N_30
    4  A    between atoms: C_4  and  C_35
    5  A    between atoms: C_15  and  C_26
    6  A    between atoms: C_17  and  N_37
    7  A    between atoms: C_19  and  O_20
    8  A    between atoms: O_20  and  C_21
    9  A    between atoms: C_21  and  C_22
   10  A    between atoms: C_22  and  C_28
   11  A    between atoms: N_25  and  C_32
   12  A    between atoms: N_25  and  C_39
   13  A    between atoms: C_26  and  N_40
   14  A    between atoms: C_28  and  C_39
                            x       y       z     vdW  Elec       q    Type
                         _______ _______ _______ _____ _____    ______ ____

>  <TORSDO>
F 14

$$$$
=
 OpenBabel11042413313D

 41 44  0  0  1  0  0  0  0  0999 V2000
  190.2640  177.1850  140.8410 C   0  0  0  0  0  0  0  0  0  0  0  0
  188.8730  176.5310  138.2040 C   0  0  0  0  0  0  0  0  0  0  0  0
  188.3650  177.3480  139.1450 C   0  0  0  0  0  3  0  0  0  0  0  0
  191.4540  177.1350  139.9940 C   0  0  0  0  0  0  0  0  0  0  0  0
  192.5890  177.4050  140.4670 O   0  0  0  0  0  0  0  0  0  0  0  0
  190.2540  176.4940  141.9890 C   0  0  0  0  0  3  0  0  0  0  0  0
  188.9950  175.2060  136.2120 C   0  0  0  0  0  2  0  0  0  0  0  0
  189.1100  177.9850  140.2900 C   0  0  1  0  0  3  0  0  0  0  0  0
  190.4090  175.4180  136.7410 C   0  0  0  0  0  0  0  0  0  0  0  0
  190.2380  175.9160  138.1750 C   0  0  1  0  0  3  0  0  0  0  0  0
  191.1590  174.1020  136.7340 C   0  0  0  0  0  1  0  0  0  0  0  0
  188.0570  176.0840  137.0390 C   0  0  1  0  0  3  0  0  0  0  0  0
  191.1250  176.4190  135.8440 C   0  0  0  0  0  1  0  0  0  0  0  0
  191.3200  176.7940  138.6170 N   0  0  0  0  0  2  0  0  0  0  0  0
  186.8540  175.2670  137.4970 C   0  0  0  0  0  2  0  0  0  0  0  0
  184.4740  175.1900  136.6940 N   0  0  0  0  0  0  0  0  0  0  0  0
  183.9280  177.3950  136.7550 N   0  0  0  0  0  0  0  0  0  0  0  0
  182.1550  175.6610  136.1120 C   0  0  0  0  0  1  0  0  0  0  0  0
  185.6200  175.8950  137.0540 N   0  0  0  0  0  0  0  0  0  0  0  0
  183.5330  176.0480  136.5140 C   0  0  0  0  0  0  0  0  0  0  0  0
  185.3330  177.3140  137.1380 C   0  0  0  0  0  3  0  0  0  0  0  0
  188.2270  178.4490  141.2700 O   0  0  0  0  0  0  0  0  0  0  0  0
  187.0010  178.5820  140.6150 C   0  0  0  0  0  2  0  0  0  0  0  0
  185.9330  178.9550  141.6220 C   0  0  0  0  0  2  0  0  0  0  0  0
  185.9830  177.9890  142.7880 C   0  0  0  0  0  2  0  0  0  0  0  0
  185.1310  178.5170  143.9240 C   0  0  0  0  0  2  0  0  0  0  0  0
  183.9510  179.1640  143.3790 N   0  0  0  0  0  2  0  0  0  0  0  0
  182.8460  178.9010  144.2890 C   0  0  0  0  0  2  0  0  0  0  0  0
  181.5960  178.8630  143.5500 N   0  0  0  0  0  2  0  0  0  0  0  0
  181.9440  178.8850  142.1410 C   0  0  0  0  0  2  0  0  0  0  0  0
  179.5360  177.1440  140.7740 C   0  0  0  0  0  2  0  0  0  0  0  0
  179.6640  178.3580  141.7020 C   0  0  0  0  0  2  0  0  0  0  0  0
  180.8540  176.7490  140.2980 N   0  0  0  0  0  0  0  0  0  0  0  0
  181.3480  177.7800  139.3850 C   0  0  0  0  0  2  0  0  0  0  0  0
  180.6740  175.5410  139.5150 C   0  0  0  0  0  1  0  0  0  0  0  0
  181.1170  179.2100  139.9180 C   0  0  0  0  0  2  0  0  0  0  0  0
  180.7790  179.2550  141.3510 N   0  0  0  0  0  0  0  0  0  0  0  0
  189.0940  176.4130  142.9270 C   0  0  0  0  0  2  0  0  0  0  0  0
  191.0080  176.5550  144.2710 C   0  0  0  0  0  1  0  0  0  0  0  0
  189.1550  177.8920  144.7250 C   0  0  0  0  0  1  0  0  0  0  0  0
  189.5540  176.5630  144.2970 N   0  0  0  0  0  0  0  0  0  0  0  0
  1  6  2  0  0  0  0
  2  3  2  0  0  0  0
  3  8  1  0  0  0  0
  4  5  2  0  0  0  0
  4  1  1  0  0  0  0
  6 38  1  0  0  0  0
  7  9  1  0  0  0  0
  7 12  1  0  0  0  0
  8  1  1  0  0  0  0
  8 22  1  1  0  0  0
  9 10  1  0  0  0  0
 10  2  1  6  0  0  0
 10 14  1  0  0  0  0
 11  9  1  0  0  0  0
 12 15  1  1  0  0  0
 12  2  1  0  0  0  0
 13  9  1  0  0  0  0
 14  4  1  0  0  0  0
 16 19  1  0  0  0  0
 17 21  2  0  0  0  0
 18 20  1  0  0  0  0
 19 21  1  0  0  0  0
 19 15  1  0  0  0  0
 20 16  2  0  0  0  0
 20 17  1  0  0  0  0
 23 22  1  0  0  0  0
 23 24  1  0  0  0  0
 24 25  1  0  0  0  0
 25 26  1  0  0  0  0
 27 26  1  0  0  0  0
 27 28  1  0  0  0  0
 29 28  1  0  0  0  0
 30 29  1  0  0  0  0
 31 32  1  0  0  0  0
 33 31  1  0  0  0  0
 34 36  1  0  0  0  0
 34 33  1  0  0  0  0
 35 33  1  0  0  0  0
 36 37  1  0  0  0  0
 37 32  1  0  0  0  0
 37 30  1  0  0  0  0
 38 41  1  0  0  0  0
 39 41  1  0  0  0  0
 41 40  1  0  0  0  0
M  END
>  <MODEL>
6

>  <REMARK>
 VINA RESULT:      -6.6      2.802      9.294
  Name = 
  14 active torsions:
  status: ('A' for Active; 'I' for Inactive)
    1  A    between atoms: N_3  and  C_17
    2  A    between atoms: N_3  and  C_32
    3  A    between atoms: C_4  and  N_30
    4  A    between atoms: C_4  and  C_35
    5  A    between atoms: C_15  and  C_26
    6  A    between atoms: C_17  and  N_37
    7  A    between atoms: C_19  and  O_20
    8  A    between atoms: O_20  and  C_21
    9  A    between atoms: C_21  and  C_22
   10  A    between atoms: C_22  and  C_28
   11  A    between atoms: N_25  and  C_32
   12  A    between atoms: N_25  and  C_39
   13  A    between atoms: C_26  and  N_40
   14  A    between atoms: C_28  and  C_39
                            x       y       z     vdW  Elec       q    Type
                         _______ _______ _______ _____ _____    ______ ____

>  <TORSDO>
F 14

$$$$
=
 OpenBabel11042413313D

 41 44  0  0  1  0  0  0  0  0999 V2000
  183.8360  178.7310  141.9900 C   0  0  0  0  0  0  0  0  0  0  0  0
  186.3900  178.2210  143.5800 C   0  0  0  0  0  0  0  0  0  0  0  0
  186.3660  178.5810  142.2830 C   0  0  0  0  0  3  0  0  0  0  0  0
  183.3920  179.2900  143.2650 C   0  0  0  0  0  0  0  0  0  0  0  0
  182.2610  179.8320  143.3680 O   0  0  0  0  0  0  0  0  0  0  0  0
  183.0490  177.8480  141.3590 C   0  0  0  0  0  3  0  0  0  0  0  0
  187.2610  177.4930  145.6890 C   0  0  0  0  0  2  0  0  0  0  0  0
  185.2020  179.1730  141.5290 C   0  0  1  0  0  3  0  0  0  0  0  0
  185.8670  178.0690  145.9130 C   0  0  0  0  0  0  0  0  0  0  0  0
  185.2320  178.1490  144.5260 C   0  0  1  0  0  3  0  0  0  0  0  0
  185.0650  177.1370  146.7980 C   0  0  0  0  0  1  0  0  0  0  0  0
  187.6530  177.7810  144.2410 C   0  0  1  0  0  3  0  0  0  0  0  0
  185.9980  179.4280  146.5880 C   0  0  0  0  0  1  0  0  0  0  0  0
  184.2590  179.2320  144.3950 N   0  0  0  0  0  2  0  0  0  0  0  0
  188.1960  176.5140  143.5910 C   0  0  0  0  0  2  0  0  0  0  0  0
  189.8130  176.9020  141.7060 N   0  0  0  0  0  0  0  0  0  0  0  0
  191.7050  177.4060  142.8610 N   0  0  0  0  0  0  0  0  0  0  0  0
  191.7090  177.5050  140.3000 C   0  0  0  0  0  1  0  0  0  0  0  0
  189.5290  176.7510  143.0620 N   0  0  0  0  0  0  0  0  0  0  0  0
  191.0450  177.2560  141.6060 C   0  0  0  0  0  0  0  0  0  0  0  0
  190.6930  177.0860  143.8610 C   0  0  0  0  0  3  0  0  0  0  0  0
  185.3920  179.0710  140.1480 O   0  0  0  0  0  0  0  0  0  0  0  0
  186.7080  178.6290  139.9970 C   0  0  0  0  0  2  0  0  0  0  0  0
  186.9480  178.2520  138.5500 C   0  0  0  0  0  2  0  0  0  0  0  0
  188.2690  177.5210  138.4340 C   0  0  0  0  0  2  0  0  0  0  0  0
  189.0900  178.1250  137.3130 C   0  0  0  0  0  2  0  0  0  0  0  0
  189.7330  177.0610  136.5620 N   0  0  0  0  0  2  0  0  0  0  0  0
  189.7740  175.8850  137.4170 C   0  0  0  0  0  2  0  0  0  0  0  0
  190.1660  174.7220  136.6390 N   0  0  0  0  0  2  0  0  0  0  0  0
  191.4690  174.3120  137.1300 C   0  0  0  0  0  2  0  0  0  0  0  0
  194.5380  173.3130  136.6000 C   0  0  0  0  0  2  0  0  0  0  0  0
  193.2710  173.5560  135.7710 C   0  0  0  0  0  2  0  0  0  0  0  0
  194.3220  173.7620  137.9670 N   0  0  0  0  0  0  0  0  0  0  0  0
  194.2330  175.2230  137.9700 C   0  0  0  0  0  2  0  0  0  0  0  0
  195.5140  173.4100  138.7180 C   0  0  0  0  0  1  0  0  0  0  0  0
  193.3450  175.7670  136.8300 C   0  0  0  0  0  2  0  0  0  0  0  0
  192.5030  174.7380  136.1980 N   0  0  0  0  0  0  0  0  0  0  0  0
  183.3940  177.1610  140.0780 C   0  0  0  0  0  2  0  0  0  0  0  0
  181.1230  176.6420  139.8330 C   0  0  0  0  0  1  0  0  0  0  0  0
  182.7140  175.6070  138.4820 C   0  0  0  0  0  1  0  0  0  0  0  0
  182.4610  176.0740  139.8340 N   0  0  0  0  0  0  0  0  0  0  0  0
  1  4  1  0  0  0  0
  2 12  1  0  0  0  0
  3  2  2  0  0  0  0
  4  5  2  0  0  0  0
  4 14  1  0  0  0  0
  6  1  2  0  0  0  0
  7  9  1  0  0  0  0
  8 22  1  6  0  0  0
  8  1  1  0  0  0  0
  8  3  1  0  0  0  0
  9 13  1  0  0  0  0
  9 11  1  0  0  0  0
 10  2  1  6  0  0  0
 10  9  1  0  0  0  0
 12 15  1  6  0  0  0
 12  7  1  0  0  0  0
 14 10  1  0  0  0  0
 16 19  1  0  0  0  0
 17 21  2  0  0  0  0
 18 20  1  0  0  0  0
 19 15  1  0  0  0  0
 19 21  1  0  0  0  0
 20 16  2  0  0  0  0
 20 17  1  0  0  0  0
 23 22  1  0  0  0  0
 24 23  1  0  0  0  0
 25 24  1  0  0  0  0
 26 25  1  0  0  0  0
 27 26  1  0  0  0  0
 27 28  1  0  0  0  0
 29 30  1  0  0  0  0
 29 28  1  0  0  0  0
 31 33  1  0  0  0  0
 32 37  1  0  0  0  0
 32 31  1  0  0  0  0
 33 34  1  0  0  0  0
 33 35  1  0  0  0  0
 36 34  1  0  0  0  0
 37 36  1  0  0  0  0
 37 30  1  0  0  0  0
 38  6  1  0  0  0  0
 39 41  1  0  0  0  0
 40 41  1  0  0  0  0
 41 38  1  0  0  0  0
M  END
>  <MODEL>
7

>  <REMARK>
 VINA RESULT:      -6.6      2.348      5.202
  Name = 
  14 active torsions:
  status: ('A' for Active; 'I' for Inactive)
    1  A    between atoms: N_3  and  C_17
    2  A    between atoms: N_3  and  C_32
    3  A    between atoms: C_4  and  N_30
    4  A    between atoms: C_4  and  C_35
    5  A    between atoms: C_15  and  C_26
    6  A    between atoms: C_17  and  N_37
    7  A    between atoms: C_19  and  O_20
    8  A    between atoms: O_20  and  C_21
    9  A    between atoms: C_21  and  C_22
   10  A    between atoms: C_22  and  C_28
   11  A    between atoms: N_25  and  C_32
   12  A    between atoms: N_25  and  C_39
   13  A    between atoms: C_26  and  N_40
   14  A    between atoms: C_28  and  C_39
                            x       y       z     vdW  Elec       q    Type
                         _______ _______ _______ _____ _____    ______ ____

>  <TORSDO>
F 14

$$$$
=
 OpenBabel11042413313D

 41 44  0  0  1  0  0  0  0  0999 V2000
  183.8110  178.7490  141.9970 C   0  0  0  0  0  0  0  0  0  0  0  0
  186.3460  178.1830  143.6000 C   0  0  0  0  0  0  0  0  0  0  0  0
  186.3320  178.4820  142.2880 C   0  0  0  0  0  3  0  0  0  0  0  0
  183.4050  179.3900  143.2470 C   0  0  0  0  0  0  0  0  0  0  0  0
  182.3040  179.9940  143.3280 O   0  0  0  0  0  0  0  0  0  0  0  0
  182.9760  177.8800  141.4120 C   0  0  0  0  0  3  0  0  0  0  0  0
  187.1910  177.5100  145.7370 C   0  0  0  0  0  2  0  0  0  0  0  0
  185.1960  179.0970  141.5110 C   0  0  1  0  0  3  0  0  0  0  0  0
  185.8300  178.1670  145.9390 C   0  0  0  0  0  0  0  0  0  0  0  0
  185.1910  178.2160  144.5520 C   0  0  1  0  0  3  0  0  0  0  0  0
  184.9870  177.3210  146.8710 C   0  0  0  0  0  1  0  0  0  0  0  0
  187.5880  177.7090  144.2760 C   0  0  1  0  0  3  0  0  0  0  0  0
  186.0360  179.5470  146.5490 C   0  0  0  0  0  1  0  0  0  0  0  0
  184.2750  179.3400  144.3740 N   0  0  0  0  0  2  0  0  0  0  0  0
  188.0610  176.3860  143.6840 C   0  0  0  0  0  2  0  0  0  0  0  0
  189.6810  176.9140  141.8360 N   0  0  0  0  0  0  0  0  0  0  0  0
  191.6510  176.8770  142.9690 N   0  0  0  0  0  0  0  0  0  0  0  0
  191.6200  177.5090  140.4860 C   0  0  0  0  0  1  0  0  0  0  0  0
  189.4040  176.5270  143.1450 N   0  0  0  0  0  0  0  0  0  0  0  0
  190.9520  177.0930  141.7470 C   0  0  0  0  0  0  0  0  0  0  0  0
  190.6220  176.5090  143.9340 C   0  0  0  0  0  3  0  0  0  0  0  0
  185.3720  178.9210  140.1350 O   0  0  0  0  0  0  0  0  0  0  0  0
  186.6880  178.4780  139.9950 C   0  0  0  0  0  2  0  0  0  0  0  0
  186.9440  178.1180  138.5460 C   0  0  0  0  0  2  0  0  0  0  0  0
  188.2720  177.3980  138.4350 C   0  0  0  0  0  2  0  0  0  0  0  0
  188.1240  176.1930  137.5280 C   0  0  0  0  0  2  0  0  0  0  0  0
  187.0330  176.4230  136.5970 N   0  0  0  0  0  2  0  0  0  0  0  0
  187.3200  175.6640  135.3900 C   0  0  0  0  0  2  0  0  0  0  0  0
  187.6480  174.2910  135.7360 N   0  0  0  0  0  2  0  0  0  0  0  0
  186.5240  173.4750  135.3130 C   0  0  0  0  0  2  0  0  0  0  0  0
  183.8310  171.8690  136.2440 C   0  0  0  0  0  2  0  0  0  0  0  0
  185.2450  171.5190  135.7650 C   0  0  0  0  0  2  0  0  0  0  0  0
  183.7200  173.3070  136.4340 N   0  0  0  0  0  0  0  0  0  0  0  0
  184.5360  173.6900  137.5880 C   0  0  0  0  0  2  0  0  0  0  0  0
  182.3380  173.5800  136.7850 C   0  0  0  0  0  1  0  0  0  0  0  0
  185.9250  173.0170  137.5850 C   0  0  0  0  0  2  0  0  0  0  0  0
  186.2860  172.4210  136.2880 N   0  0  0  0  0  0  0  0  0  0  0  0
  183.2770  177.1170  140.1640 C   0  0  0  0  0  2  0  0  0  0  0  0
  182.6900  177.2210  137.8980 C   0  0  0  0  0  1  0  0  0  0  0  0
  181.4140  175.9570  139.3820 C   0  0  0  0  0  1  0  0  0  0  0  0
  182.1510  177.2010  139.2490 N   0  0  0  0  0  0  0  0  0  0  0  0
  1  4  1  0  0  0  0
  2 12  1  0  0  0  0
  3  2  2  0  0  0  0
  4  5  2  0  0  0  0
  4 14  1  0  0  0  0
  6  1  2  0  0  0  0
  7  9  1  0  0  0  0
  8 22  1  6  0  0  0
  8  1  1  0  0  0  0
  8  3  1  0  0  0  0
  9 13  1  0  0  0  0
  9 11  1  0  0  0  0
 10  2  1  6  0  0  0
 10  9  1  0  0  0  0
 12 15  1  6  0  0  0
 12  7  1  0  0  0  0
 14 10  1  0  0  0  0
 16 19  1  0  0  0  0
 17 21  2  0  0  0  0
 18 20  1  0  0  0  0
 19 15  1  0  0  0  0
 19 21  1  0  0  0  0
 20 16  2  0  0  0  0
 20 17  1  0  0  0  0
 23 22  1  0  0  0  0
 24 23  1  0  0  0  0
 25 24  1  0  0  0  0
 26 25  1  0  0  0  0
 27 26  1  0  0  0  0
 28 29  1  0  0  0  0
 28 27  1  0  0  0  0
 30 29  1  0  0  0  0
 30 37  1  0  0  0  0
 31 33  1  0  0  0  0
 32 31  1  0  0  0  0
 32 37  1  0  0  0  0
 33 35  1  0  0  0  0
 33 34  1  0  0  0  0
 36 34  1  0  0  0  0
 37 36  1  0  0  0  0
 38  6  1  0  0  0  0
 39 41  1  0  0  0  0
 41 40  1  0  0  0  0
 41 38  1  0  0  0  0
M  END
>  <MODEL>
8

>  <REMARK>
 VINA RESULT:      -6.5      3.613      7.082
  Name = 
  14 active torsions:
  status: ('A' for Active; 'I' for Inactive)
    1  A    between atoms: N_3  and  C_17
    2  A    between atoms: N_3  and  C_32
    3  A    between atoms: C_4  and  N_30
    4  A    between atoms: C_4  and  C_35
    5  A    between atoms: C_15  and  C_26
    6  A    between atoms: C_17  and  N_37
    7  A    between atoms: C_19  and  O_20
    8  A    between atoms: O_20  and  C_21
    9  A    between atoms: C_21  and  C_22
   10  A    between atoms: C_22  and  C_28
   11  A    between atoms: N_25  and  C_32
   12  A    between atoms: N_25  and  C_39
   13  A    between atoms: C_26  and  N_40
   14  A    between atoms: C_28  and  C_39
                            x       y       z     vdW  Elec       q    Type
                         _______ _______ _______ _____ _____    ______ ____

>  <TORSDO>
F 14

$$$$
=
 OpenBabel11042413313D

 41 44  0  0  1  0  0  0  0  0999 V2000
  181.4020  177.4010  138.7800 C   0  0  0  0  0  0  0  0  0  0  0  0
  182.6230  178.6100  141.3020 C   0  0  0  0  0  0  0  0  0  0  0  0
  183.2410  178.5710  140.1060 C   0  0  0  0  0  3  0  0  0  0  0  0
  180.1800  177.9780  139.3370 C   0  0  0  0  0  0  0  0  0  0  0  0
  179.0940  177.9130  138.7040 O   0  0  0  0  0  0  0  0  0  0  0  0
  181.3920  176.1220  138.3820 C   0  0  0  0  0  3  0  0  0  0  0  0
  182.3050  178.9530  143.6500 C   0  0  0  0  0  2  0  0  0  0  0  0
  182.6020  178.3140  138.7650 C   0  0  1  0  0  3  0  0  0  0  0  0
  180.9370  178.8200  142.9900 C   0  0  0  0  0  0  0  0  0  0  0  0
  181.2080  178.2300  141.6080 C   0  0  1  0  0  3  0  0  0  0  0  0
  180.0700  177.8760  143.7970 C   0  0  0  0  0  1  0  0  0  0  0  0
  183.3500  179.0170  142.5390 C   0  0  1  0  0  3  0  0  0  0  0  0
  180.2810  180.1930  142.9330 C   0  0  0  0  0  1  0  0  0  0  0  0
  180.2290  178.6350  140.6010 N   0  0  0  0  0  2  0  0  0  0  0  0
  184.4900  178.0520  142.8450 C   0  0  0  0  0  2  0  0  0  0  0  0
  186.0440  177.5620  144.7590 N   0  0  0  0  0  0  0  0  0  0  0  0
  185.6870  179.3800  146.0770 N   0  0  0  0  0  0  0  0  0  0  0  0
  187.4480  177.6440  146.7480 C   0  0  0  0  0  1  0  0  0  0  0  0
  185.0340  178.3180  144.1670 N   0  0  0  0  0  0  0  0  0  0  0  0
  186.3920  178.1640  145.8410 C   0  0  0  0  0  0  0  0  0  0  0  0
  184.7750  179.5130  144.9470 C   0  0  0  0  0  3  0  0  0  0  0  0
  183.5600  177.9710  137.8080 O   0  0  0  0  0  0  0  0  0  0  0  0
  184.7890  178.2040  138.4280 C   0  0  0  0  0  2  0  0  0  0  0  0
  185.8840  177.5020  137.6530 C   0  0  0  0  0  2  0  0  0  0  0  0
  186.7430  178.5330  136.9510 C   0  0  0  0  0  2  0  0  0  0  0  0
  188.1990  178.1210  137.0260 C   0  0  0  0  0  2  0  0  0  0  0  0
  188.4380  177.4270  138.2790 N   0  0  0  0  0  2  0  0  0  0  0  0
  188.9960  178.3920  139.2140 C   0  0  0  0  0  2  0  0  0  0  0  0
  188.0680  178.6120  140.3100 N   0  0  0  0  0  2  0  0  0  0  0  0
  188.8050  178.3600  141.5350 C   0  0  0  0  0  2  0  0  0  0  0  0
  189.5980  176.3900  144.0240 C   0  0  0  0  0  2  0  0  0  0  0  0
  188.6180  176.3800  142.8440 C   0  0  0  0  0  2  0  0  0  0  0  0
  190.4770  177.5460  143.9200 N   0  0  0  0  0  0  0  0  0  0  0  0
  191.3740  177.3490  142.7800 C   0  0  0  0  0  2  0  0  0  0  0  0
  191.3040  177.5530  145.1130 C   0  0  0  0  0  1  0  0  0  0  0  0
  190.6400  176.8240  141.5280 C   0  0  0  0  0  2  0  0  0  0  0  0
  189.1760  176.9540  141.6080 N   0  0  0  0  0  0  0  0  0  0  0  0
  182.5750  175.3870  137.8410 C   0  0  0  0  0  2  0  0  0  0  0  0
  183.4520  174.4880  135.8630 C   0  0  0  0  0  1  0  0  0  0  0  0
  181.6980  173.4170  136.9610 C   0  0  0  0  0  1  0  0  0  0  0  0
  182.2190  174.7230  136.5990 N   0  0  0  0  0  0  0  0  0  0  0  0
  1  4  1  0  0  0  0
  2 10  1  0  0  0  0
  2 12  1  0  0  0  0
  3  2  2  0  0  0  0
  4 14  1  0  0  0  0
  5  4  2  0  0  0  0
  6  1  2  0  0  0  0
  8 22  1  6  0  0  0
  8  1  1  0  0  0  0
  8  3  1  0  0  0  0
  9  7  1  0  0  0  0
  9 11  1  0  0  0  0
 10 14  1  6  0  0  0
 10  9  1  0  0  0  0
 12 15  1  1  0  0  0
 12  7  1  0  0  0  0
 13  9  1  0  0  0  0
 15 19  1  0  0  0  0
 16 20  2  0  0  0  0
 19 16  1  0  0  0  0
 19 21  1  0  0  0  0
 20 17  1  0  0  0  0
 20 18  1  0  0  0  0
 21 17  2  0  0  0  0
 22 23  1  0  0  0  0
 24 23  1  0  0  0  0
 25 26  1  0  0  0  0
 25 24  1  0  0  0  0
 26 27  1  0  0  0  0
 27 28  1  0  0  0  0
 28 29  1  0  0  0  0
 29 30  1  0  0  0  0
 30 37  1  0  0  0  0
 32 31  1  0  0  0  0
 33 31  1  0  0  0  0
 33 35  1  0  0  0  0
 34 33  1  0  0  0  0
 36 37  1  0  0  0  0
 36 34  1  0  0  0  0
 37 32  1  0  0  0  0
 38  6  1  0  0  0  0
 39 41  1  0  0  0  0
 41 40  1  0  0  0  0
 41 38  1  0  0  0  0
M  END
>  <MODEL>
9

>  <REMARK>
 VINA RESULT:      -6.5      4.054      7.594
  Name = 
  14 active torsions:
  status: ('A' for Active; 'I' for Inactive)
    1  A    between atoms: N_3  and  C_17
    2  A    between atoms: N_3  and  C_32
    3  A    between atoms: C_4  and  N_30
    4  A    between atoms: C_4  and  C_35
    5  A    between atoms: C_15  and  C_26
    6  A    between atoms: C_17  and  N_37
    7  A    between atoms: C_19  and  O_20
    8  A    between atoms: O_20  and  C_21
    9  A    between atoms: C_21  and  C_22
   10  A    between atoms: C_22  and  C_28
   11  A    between atoms: N_25  and  C_32
   12  A    between atoms: N_25  and  C_39
   13  A    between atoms: C_26  and  N_40
   14  A    between atoms: C_28  and  C_39
                            x       y       z     vdW  Elec       q    Type
                         _______ _______ _______ _____ _____    ______ ____

>  <TORSDO>
F 14

$$$$
