=
 OpenBabel11032420103D

 36 39  0  0  0  0  0  0  0  0999 V2000
  190.2530  177.0930  142.2260 C   0  0  0  0  0  3  0  0  0  0  0  0
  190.1170  177.3160  140.9170 C   0  0  0  0  0  0  0  0  0  0  0  0
  193.5210  176.9400  139.2760 C   0  0  0  0  0  3  0  0  0  0  0  0
  191.8790  175.7620  137.9500 C   0  0  0  0  0  3  0  0  0  0  0  0
  191.1880  176.9220  139.9730 C   0  0  0  0  0  0  0  0  0  0  0  0
  192.5210  177.3190  140.1760 C   0  0  0  0  0  3  0  0  0  0  0  0
  193.2080  176.1600  138.1600 C   0  0  0  0  0  0  0  0  0  0  0  0
  190.8800  176.1410  138.8500 C   0  0  0  0  0  3  0  0  0  0  0  0
  194.2310  175.7930  137.2810 O   0  0  0  0  0  0  0  0  0  0  0  0
  195.0540  173.7830  138.2940 C   0  0  0  0  0  1  0  0  0  0  0  0
  194.5660  174.4370  137.0190 C   0  0  0  0  0  2  0  0  0  0  0  0
  185.4970  179.0660  142.1620 C   0  0  0  0  0  3  0  0  0  0  0  0
  187.5210  178.5050  140.6260 C   0  0  0  0  0  0  0  0  0  0  0  0
  188.1610  178.4890  139.3960 C   0  0  0  0  0  2  0  0  0  0  0  0
  186.5070  178.7870  141.3910 C   0  0  0  0  0  0  0  0  0  0  0  0
  188.9260  177.9350  140.4200 N   0  0  0  0  0  0  0  0  0  0  0  0
  184.5420  177.9930  142.5550 C   0  0  0  0  0  2  0  0  0  0  0  0
  180.3640  178.9960  140.2220 O   0  0  0  0  0  0  0  0  0  0  0  0
  181.0450  179.2120  143.6950 C   0  0  0  0  0  3  0  0  0  0  0  0
  182.4420  178.4660  141.2830 C   0  0  0  0  0  0  0  0  0  0  0  0
  182.5400  179.0600  143.7180 C   0  0  0  0  0  2  0  0  0  0  0  0
  180.3480  179.1680  142.5650 C   0  0  0  0  0  3  0  0  0  0  0  0
  181.0190  178.8900  141.2930 C   0  0  0  0  0  0  0  0  0  0  0  0
  183.1330  178.4850  142.4500 C   0  0  0  0  0  0  0  0  0  0  0  0
  183.0370  177.9770  140.0090 C   0  0  0  0  0  0  0  0  0  0  0  0
  183.6410  178.8770  139.0830 N   0  0  0  0  0  1  0  0  0  0  0  0
  182.9730  176.7550  139.7130 O   0  0  0  0  0  0  0  0  0  0  0  0
  190.4070  176.7020  145.0200 O   0  0  0  0  0  0  0  0  0  0  0  0
  189.3590  177.2330  144.5590 C   0  0  0  0  0  0  0  0  0  0  0  0
  189.2300  177.4560  143.1530 N   0  0  0  0  0  2  0  0  0  0  0  0
  186.9630  177.7980  144.9710 C   0  0  0  0  0  3  0  0  0  0  0  0
  188.5070  177.7980  146.8330 C   0  0  0  0  0  3  0  0  0  0  0  0
  186.1760  178.3440  147.1950 C   0  0  0  0  0  3  0  0  0  0  0  0
  188.2620  177.6140  145.4660 C   0  0  0  0  0  0  0  0  0  0  0  0
  187.4670  178.1620  147.6950 C   0  0  0  0  0  3  0  0  0  0  0  0
  185.9240  178.1630  145.8330 C   0  0  0  0  0  3  0  0  0  0  0  0
  1 30  1  0  0  0  0
  2  1  2  0  0  0  0
  3  6  1  0  0  0  0
  4  7  1  0  0  0  0
  4  8  2  0  0  0  0
  5  6  2  0  0  0  0
  5  2  1  0  0  0  0
  7  3  2  0  0  0  0
  8  5  1  0  0  0  0
  9  7  1  0  0  0  0
 11  9  1  0  0  0  0
 11 10  1  0  0  0  0
 12 17  1  0  0  0  0
 13 15  2  0  0  0  0
 14 16  1  0  0  0  0
 14 13  1  0  0  0  0
 15 12  2  0  0  0  0
 16 13  1  0  0  0  0
 16  2  1  0  0  0  0
 18 23  2  0  0  0  0
 19 21  1  0  0  0  0
 20 23  1  0  0  0  0
 20 24  2  0  0  0  0
 22 19  2  0  0  0  0
 23 22  1  0  0  0  0
 24 17  1  0  0  0  0
 24 21  1  0  0  0  0
 25 20  1  0  0  0  0
 26 25  1  0  0  0  0
 27 25  2  0  0  0  0
 29 28  2  0  0  0  0
 29 34  1  0  0  0  0
 30 29  1  0  0  0  0
 31 34  2  0  0  0  0
 31 36  1  0  0  0  0
 32 35  2  0  0  0  0
 33 35  1  0  0  0  0
 34 32  1  0  0  0  0
 36 33  2  0  0  0  0
M  END
>  <MODEL>
1

>  <REMARK>
 VINA RESULT:      -8.9      0.000      0.000
  Name = 
  9 active torsions:
  status: ('A' for Active; 'I' for Inactive)
    1  A    between atoms: C_3  and  C_33
    2  A    between atoms: C_7  and  C_12
    3  A    between atoms: C_13  and  N_30
    4  A    between atoms: C_14  and  O_15
    5  A    between atoms: O_15  and  C_22
    6  A    between atoms: C_16  and  C_31
    7  A    between atoms: C_19  and  C_24
    8  A    between atoms: C_31  and  N_32
    9  A    between atoms: C_33  and  C_34
                            x       y       z     vdW  Elec       q    Type
                         _______ _______ _______ _____ _____    ______ ____

>  <TORSDO>
F 9

$$$$
=
 OpenBabel11032420103D

 36 39  0  0  0  0  0  0  0  0999 V2000
  189.8990  177.0100  137.8350 C   0  0  0  0  0  3  0  0  0  0  0  0
  189.8520  177.4330  139.0990 C   0  0  0  0  0  0  0  0  0  0  0  0
  187.2730  178.6960  141.5850 C   0  0  0  0  0  3  0  0  0  0  0  0
  186.2290  178.4800  139.4160 C   0  0  0  0  0  3  0  0  0  0  0  0
  188.5780  177.9110  139.6850 C   0  0  0  0  0  0  0  0  0  0  0  0
  188.4820  178.2470  141.0460 C   0  0  0  0  0  3  0  0  0  0  0  0
  186.1410  178.8170  140.7750 C   0  0  0  0  0  0  0  0  0  0  0  0
  187.4380  178.0320  138.8780 C   0  0  0  0  0  3  0  0  0  0  0  0
  184.9480  179.2730  141.3420 O   0  0  0  0  0  0  0  0  0  0  0  0
  183.9770  178.4210  143.3620 C   0  0  0  0  0  1  0  0  0  0  0  0
  184.8080  179.5210  142.7340 C   0  0  0  0  0  2  0  0  0  0  0  0
  191.6960  176.8510  143.8130 C   0  0  0  0  0  3  0  0  0  0  0  0
  191.7510  177.2690  141.2450 C   0  0  0  0  0  0  0  0  0  0  0  0
  192.4200  177.5160  140.0570 C   0  0  0  0  0  2  0  0  0  0  0  0
  191.7270  177.0600  142.5290 C   0  0  0  0  0  0  0  0  0  0  0  0
  191.0390  177.4190  139.8990 N   0  0  0  0  0  0  0  0  0  0  0  0
  191.3200  177.9560  144.7380 C   0  0  0  0  0  2  0  0  0  0  0  0
  188.4570  176.3860  148.3770 O   0  0  0  0  0  0  0  0  0  0  0  0
  187.4930  177.9580  145.3480 C   0  0  0  0  0  3  0  0  0  0  0  0
  189.9340  177.1400  146.6530 C   0  0  0  0  0  0  0  0  0  0  0  0
  188.7760  177.9160  144.5670 C   0  0  0  0  0  2  0  0  0  0  0  0
  187.4030  177.4810  146.5850 C   0  0  0  0  0  3  0  0  0  0  0  0
  188.5920  176.9620  147.2650 C   0  0  0  0  0  0  0  0  0  0  0  0
  190.0120  177.6570  145.4010 C   0  0  0  0  0  0  0  0  0  0  0  0
  191.1410  176.8060  147.4570 C   0  0  0  0  0  0  0  0  0  0  0  0
  191.8210  175.5650  147.2870 N   0  0  0  0  0  1  0  0  0  0  0  0
  191.5520  177.6070  148.3370 O   0  0  0  0  0  0  0  0  0  0  0  0
  190.7510  174.3160  137.8690 O   0  0  0  0  0  0  0  0  0  0  0  0
  191.4980  175.1610  137.3000 C   0  0  0  0  0  0  0  0  0  0  0  0
  191.1130  176.5360  137.2530 N   0  0  0  0  0  2  0  0  0  0  0  0
  193.0690  173.3700  136.5560 C   0  0  0  0  0  3  0  0  0  0  0  0
  193.7010  175.6850  136.2570 C   0  0  0  0  0  3  0  0  0  0  0  0
  195.2010  173.9210  135.5500 C   0  0  0  0  0  3  0  0  0  0  0  0
  192.7710  174.7330  136.6960 C   0  0  0  0  0  0  0  0  0  0  0  0
  194.9120  175.2810  135.6860 C   0  0  0  0  0  3  0  0  0  0  0  0
  194.2800  172.9650  135.9860 C   0  0  0  0  0  3  0  0  0  0  0  0
  1  2  2  0  0  0  0
  2  5  1  0  0  0  0
  2 16  1  0  0  0  0
  4  7  1  0  0  0  0
  5  6  2  0  0  0  0
  6  3  1  0  0  0  0
  7  9  1  0  0  0  0
  7  3  2  0  0  0  0
  8  4  2  0  0  0  0
  8  5  1  0  0  0  0
  9 11  1  0  0  0  0
 11 10  1  0  0  0  0
 12 17  1  0  0  0  0
 13 15  2  0  0  0  0
 14 13  1  0  0  0  0
 15 12  2  0  0  0  0
 16 14  1  0  0  0  0
 16 13  1  0  0  0  0
 17 24  1  0  0  0  0
 19 22  2  0  0  0  0
 20 23  1  0  0  0  0
 20 25  1  0  0  0  0
 21 19  1  0  0  0  0
 21 24  1  0  0  0  0
 22 23  1  0  0  0  0
 23 18  2  0  0  0  0
 24 20  2  0  0  0  0
 25 27  2  0  0  0  0
 26 25  1  0  0  0  0
 29 28  2  0  0  0  0
 30 29  1  0  0  0  0
 30  1  1  0  0  0  0
 31 34  1  0  0  0  0
 32 34  2  0  0  0  0
 33 35  2  0  0  0  0
 33 36  1  0  0  0  0
 34 29  1  0  0  0  0
 35 32  1  0  0  0  0
 36 31  2  0  0  0  0
M  END
>  <MODEL>
2

>  <REMARK>
 VINA RESULT:      -8.6      2.573      9.055
  Name = 
  9 active torsions:
  status: ('A' for Active; 'I' for Inactive)
    1  A    between atoms: C_3  and  C_33
    2  A    between atoms: C_7  and  C_12
    3  A    between atoms: C_13  and  N_30
    4  A    between atoms: C_14  and  O_15
    5  A    between atoms: O_15  and  C_22
    6  A    between atoms: C_16  and  C_31
    7  A    between atoms: C_19  and  C_24
    8  A    between atoms: C_31  and  N_32
    9  A    between atoms: C_33  and  C_34
                            x       y       z     vdW  Elec       q    Type
                         _______ _______ _______ _____ _____    ______ ____

>  <TORSDO>
F 9

$$$$
=
 OpenBabel11032420103D

 36 39  0  0  0  0  0  0  0  0999 V2000
  190.9420  176.7860  140.7890 C   0  0  0  0  0  3  0  0  0  0  0  0
  190.5280  177.0690  139.5520 C   0  0  0  0  0  0  0  0  0  0  0  0
  191.4070  175.7260  136.1100 C   0  0  0  0  0  3  0  0  0  0  0  0
  193.4500  176.1860  137.3140 C   0  0  0  0  0  3  0  0  0  0  0  0
  191.3040  176.6090  138.3760 C   0  0  0  0  0  0  0  0  0  0  0  0
  190.6610  176.1570  137.2110 C   0  0  0  0  0  3  0  0  0  0  0  0
  192.8030  175.7380  136.1530 C   0  0  0  0  0  0  0  0  0  0  0  0
  192.7050  176.6170  138.4150 C   0  0  0  0  0  3  0  0  0  0  0  0
  193.5200  175.3050  135.0350 O   0  0  0  0  0  0  0  0  0  0  0  0
  195.5340  174.0050  135.0680 C   0  0  0  0  0  1  0  0  0  0  0  0
  194.9360  175.3910  134.9520 C   0  0  0  0  0  2  0  0  0  0  0  0
  186.3110  178.8370  141.7990 C   0  0  0  0  0  3  0  0  0  0  0  0
  188.0160  178.4180  139.8780 C   0  0  0  0  0  0  0  0  0  0  0  0
  188.4480  178.5600  138.5680 C   0  0  0  0  0  2  0  0  0  0  0  0
  187.1620  178.6290  140.8360 C   0  0  0  0  0  0  0  0  0  0  0  0
  189.3230  177.8160  139.3580 N   0  0  0  0  0  0  0  0  0  0  0  0
  185.3530  177.7650  142.1880 C   0  0  0  0  0  2  0  0  0  0  0  0
  180.8880  179.4090  141.0640 O   0  0  0  0  0  0  0  0  0  0  0  0
  182.3210  178.9730  144.2780 C   0  0  0  0  0  3  0  0  0  0  0  0
  183.0840  178.5780  141.5230 C   0  0  0  0  0  0  0  0  0  0  0  0
  183.7640  178.7310  143.9330 C   0  0  0  0  0  2  0  0  0  0  0  0
  181.3950  179.1700  143.3460 C   0  0  0  0  0  3  0  0  0  0  0  0
  181.7450  179.0790  141.9260 C   0  0  0  0  0  0  0  0  0  0  0  0
  184.0090  178.3520  142.4880 C   0  0  0  0  0  0  0  0  0  0  0  0
  183.3380  178.2850  140.0860 C   0  0  0  0  0  0  0  0  0  0  0  0
  183.1330  176.9800  139.5510 N   0  0  0  0  0  1  0  0  0  0  0  0
  183.7830  179.1870  139.3290 O   0  0  0  0  0  0  0  0  0  0  0  0
  190.3270  175.1390  143.0010 O   0  0  0  0  0  0  0  0  0  0  0  0
  189.9210  176.3340  143.0280 C   0  0  0  0  0  0  0  0  0  0  0  0
  190.2060  177.2100  141.9350 N   0  0  0  0  0  2  0  0  0  0  0  0
  187.7420  176.7300  144.1800 C   0  0  0  0  0  3  0  0  0  0  0  0
  189.7910  177.3920  145.2820 C   0  0  0  0  0  3  0  0  0  0  0  0
  187.6590  177.7640  146.3680 C   0  0  0  0  0  3  0  0  0  0  0  0
  189.1410  176.8240  144.1780 C   0  0  0  0  0  0  0  0  0  0  0  0
  189.0520  177.8610  146.3730 C   0  0  0  0  0  3  0  0  0  0  0  0
  187.0040  177.1990  145.2710 C   0  0  0  0  0  3  0  0  0  0  0  0
  1 30  1  0  0  0  0
  2  1  2  0  0  0  0
  3  7  2  0  0  0  0
  3  6  1  0  0  0  0
  4  8  2  0  0  0  0
  5  8  1  0  0  0  0
  5  2  1  0  0  0  0
  6  5  2  0  0  0  0
  7  4  1  0  0  0  0
  9  7  1  0  0  0  0
 11  9  1  0  0  0  0
 11 10  1  0  0  0  0
 12 17  1  0  0  0  0
 13 15  2  0  0  0  0
 14 16  1  0  0  0  0
 14 13  1  0  0  0  0
 15 12  2  0  0  0  0
 16  2  1  0  0  0  0
 16 13  1  0  0  0  0
 17 24  1  0  0  0  0
 18 23  2  0  0  0  0
 20 23  1  0  0  0  0
 20 24  2  0  0  0  0
 21 19  1  0  0  0  0
 22 19  2  0  0  0  0
 23 22  1  0  0  0  0
 24 21  1  0  0  0  0
 25 20  1  0  0  0  0
 26 25  1  0  0  0  0
 27 25  2  0  0  0  0
 28 29  2  0  0  0  0
 29 34  1  0  0  0  0
 30 29  1  0  0  0  0
 31 36  1  0  0  0  0
 32 35  2  0  0  0  0
 33 35  1  0  0  0  0
 34 31  2  0  0  0  0
 34 32  1  0  0  0  0
 36 33  2  0  0  0  0
M  END
>  <MODEL>
3

>  <REMARK>
 VINA RESULT:      -8.5      1.380      1.879
  Name = 
  9 active torsions:
  status: ('A' for Active; 'I' for Inactive)
    1  A    between atoms: C_3  and  C_33
    2  A    between atoms: C_7  and  C_12
    3  A    between atoms: C_13  and  N_30
    4  A    between atoms: C_14  and  O_15
    5  A    between atoms: O_15  and  C_22
    6  A    between atoms: C_16  and  C_31
    7  A    between atoms: C_19  and  C_24
    8  A    between atoms: C_31  and  N_32
    9  A    between atoms: C_33  and  C_34
                            x       y       z     vdW  Elec       q    Type
                         _______ _______ _______ _____ _____    ______ ____

>  <TORSDO>
F 9

$$$$
=
 OpenBabel11032420103D

 36 39  0  0  0  0  0  0  0  0999 V2000
  188.9190  175.4530  137.1880 C   0  0  0  0  0  3  0  0  0  0  0  0
  189.7680  176.1320  137.9620 C   0  0  0  0  0  0  0  0  0  0  0  0
  193.5240  176.3980  138.4510 C   0  0  0  0  0  3  0  0  0  0  0  0
  193.0200  174.2800  137.4030 C   0  0  0  0  0  3  0  0  0  0  0  0
  191.2140  175.8130  137.9520 C   0  0  0  0  0  0  0  0  0  0  0  0
  192.1630  176.7130  138.4670 C   0  0  0  0  0  3  0  0  0  0  0  0
  193.9620  175.1820  137.9210 C   0  0  0  0  0  0  0  0  0  0  0  0
  191.6600  174.5950  137.4190 C   0  0  0  0  0  3  0  0  0  0  0  0
  195.3290  174.8940  137.9230 O   0  0  0  0  0  0  0  0  0  0  0  0
  196.5700  174.8170  139.9730 C   0  0  0  0  0  1  0  0  0  0  0  0
  195.9250  174.0120  138.8640 C   0  0  0  0  0  2  0  0  0  0  0  0
  188.6710  177.4640  142.7560 C   0  0  0  0  0  3  0  0  0  0  0  0
  188.9040  177.7380  140.1780 C   0  0  0  0  0  0  0  0  0  0  0  0
  188.7960  178.4730  139.0080 C   0  0  0  0  0  2  0  0  0  0  0  0
  188.7860  177.6040  141.4670 C   0  0  0  0  0  0  0  0  0  0  0  0
  189.2790  177.1820  138.8030 N   0  0  0  0  0  0  0  0  0  0  0  0
  187.5050  176.7310  143.3230 C   0  0  0  0  0  2  0  0  0  0  0  0
  184.1650  179.9280  144.9140 O   0  0  0  0  0  0  0  0  0  0  0  0
  186.5020  178.0630  146.8210 C   0  0  0  0  0  3  0  0  0  0  0  0
  185.7580  178.3660  144.0480 C   0  0  0  0  0  0  0  0  0  0  0  0
  187.3990  177.5180  145.7460 C   0  0  0  0  0  2  0  0  0  0  0  0
  185.4480  178.8230  146.5430 C   0  0  0  0  0  3  0  0  0  0  0  0
  185.0770  179.0930  145.1510 C   0  0  0  0  0  0  0  0  0  0  0  0
  186.8130  177.5690  144.3510 C   0  0  0  0  0  0  0  0  0  0  0  0
  185.2180  178.4890  142.6670 C   0  0  0  0  0  0  0  0  0  0  0  0
  185.7130  179.4770  141.7670 N   0  0  0  0  0  1  0  0  0  0  0  0
  184.2780  177.7420  142.2890 O   0  0  0  0  0  0  0  0  0  0  0  0
  187.6840  177.2780  135.4190 O   0  0  0  0  0  0  0  0  0  0  0  0
  186.9500  176.6840  136.2570 C   0  0  0  0  0  0  0  0  0  0  0  0
  187.5240  175.7500  137.1730 N   0  0  0  0  0  2  0  0  0  0  0  0
  184.8900  177.3430  137.5020 C   0  0  0  0  0  3  0  0  0  0  0  0
  184.7260  176.8460  135.1400 C   0  0  0  0  0  3  0  0  0  0  0  0
  182.7480  177.4860  136.3820 C   0  0  0  0  0  3  0  0  0  0  0  0
  185.5040  176.9620  136.3000 C   0  0  0  0  0  0  0  0  0  0  0  0
  183.3530  177.1070  135.1810 C   0  0  0  0  0  3  0  0  0  0  0  0
  183.5160  177.6040  137.5420 C   0  0  0  0  0  3  0  0  0  0  0  0
  1  2  2  0  0  0  0
  2 16  1  0  0  0  0
  3  6  1  0  0  0  0
  4  8  2  0  0  0  0
  4  7  1  0  0  0  0
  5  2  1  0  0  0  0
  5  6  2  0  0  0  0
  7  9  1  0  0  0  0
  7  3  2  0  0  0  0
  8  5  1  0  0  0  0
  9 11  1  0  0  0  0
 11 10  1  0  0  0  0
 12 17  1  0  0  0  0
 13 15  2  0  0  0  0
 14 13  1  0  0  0  0
 15 12  2  0  0  0  0
 16 14  1  0  0  0  0
 16 13  1  0  0  0  0
 17 24  1  0  0  0  0
 18 23  2  0  0  0  0
 20 24  2  0  0  0  0
 20 23  1  0  0  0  0
 21 19  1  0  0  0  0
 22 19  2  0  0  0  0
 23 22  1  0  0  0  0
 24 21  1  0  0  0  0
 25 20  1  0  0  0  0
 26 25  1  0  0  0  0
 27 25  2  0  0  0  0
 28 29  2  0  0  0  0
 29 34  1  0  0  0  0
 29 30  1  0  0  0  0
 30  1  1  0  0  0  0
 31 36  1  0  0  0  0
 32 35  2  0  0  0  0
 32 34  1  0  0  0  0
 33 36  2  0  0  0  0
 34 31  2  0  0  0  0
 35 33  1  0  0  0  0
M  END
>  <MODEL>
4

>  <REMARK>
 VINA RESULT:      -8.5      2.798      5.922
  Name = 
  9 active torsions:
  status: ('A' for Active; 'I' for Inactive)
    1  A    between atoms: C_3  and  C_33
    2  A    between atoms: C_7  and  C_12
    3  A    between atoms: C_13  and  N_30
    4  A    between atoms: C_14  and  O_15
    5  A    between atoms: O_15  and  C_22
    6  A    between atoms: C_16  and  C_31
    7  A    between atoms: C_19  and  C_24
    8  A    between atoms: C_31  and  N_32
    9  A    between atoms: C_33  and  C_34
                            x       y       z     vdW  Elec       q    Type
                         _______ _______ _______ _____ _____    ______ ____

>  <TORSDO>
F 9

$$$$
=
 OpenBabel11032420103D

 36 39  0  0  0  0  0  0  0  0999 V2000
  184.8240  179.2720  138.3780 C   0  0  0  0  0  3  0  0  0  0  0  0
  183.6470  179.1570  138.9960 C   0  0  0  0  0  0  0  0  0  0  0  0
  181.0860  181.8310  138.1480 C   0  0  0  0  0  3  0  0  0  0  0  0
  180.3620  179.7280  137.2050 C   0  0  0  0  0  3  0  0  0  0  0  0
  182.4450  179.8340  138.4550 C   0  0  0  0  0  0  0  0  0  0  0  0
  182.2250  181.2060  138.6640 C   0  0  0  0  0  3  0  0  0  0  0  0
  180.1490  181.0990  137.4150 C   0  0  0  0  0  0  0  0  0  0  0  0
  181.5000  179.1040  137.7210 C   0  0  0  0  0  3  0  0  0  0  0  0
  179.0230  181.7520  136.9090 O   0  0  0  0  0  0  0  0  0  0  0  0
  179.8230  182.5560  134.7960 C   0  0  0  0  0  1  0  0  0  0  0  0
  179.1140  182.9090  136.0870 C   0  0  0  0  0  2  0  0  0  0  0  0
  185.5300  178.3940  143.6690 C   0  0  0  0  0  3  0  0  0  0  0  0
  183.9870  178.0150  141.6060 C   0  0  0  0  0  0  0  0  0  0  0  0
  182.9570  177.3620  140.9490 C   0  0  0  0  0  2  0  0  0  0  0  0
  184.7570  178.2020  142.6390 C   0  0  0  0  0  0  0  0  0  0  0  0
  183.5410  178.3710  140.1870 N   0  0  0  0  0  0  0  0  0  0  0  0
  186.9170  177.8540  143.6680 C   0  0  0  0  0  2  0  0  0  0  0  0
  190.3530  177.1800  147.0800 O   0  0  0  0  0  0  0  0  0  0  0  0
  186.9600  178.1030  147.5350 C   0  0  0  0  0  3  0  0  0  0  0  0
  188.7400  177.5060  145.3430 C   0  0  0  0  0  0  0  0  0  0  0  0
  186.3960  177.8570  146.1630 C   0  0  0  0  0  2  0  0  0  0  0  0
  188.2420  177.9030  147.8170 C   0  0  0  0  0  3  0  0  0  0  0  0
  189.1770  177.5020  146.7630 C   0  0  0  0  0  0  0  0  0  0  0  0
  187.4340  177.7430  145.0670 C   0  0  0  0  0  0  0  0  0  0  0  0
  189.7610  177.3120  144.2770 C   0  0  0  0  0  0  0  0  0  0  0  0
  190.5610  178.3970  143.8150 N   0  0  0  0  0  1  0  0  0  0  0  0
  189.8990  176.1840  143.7360 O   0  0  0  0  0  0  0  0  0  0  0  0
  187.2420  178.9960  136.9420 O   0  0  0  0  0  0  0  0  0  0  0  0
  187.1910  178.5080  138.1060 C   0  0  0  0  0  0  0  0  0  0  0  0
  185.9920  178.6210  138.8750 N   0  0  0  0  0  2  0  0  0  0  0  0
  188.7390  178.0180  140.0000 C   0  0  0  0  0  3  0  0  0  0  0  0
  189.1100  176.9330  137.8700 C   0  0  0  0  0  3  0  0  0  0  0  0
  190.5940  176.4840  139.7300 C   0  0  0  0  0  3  0  0  0  0  0  0
  188.3610  177.8100  138.6660 C   0  0  0  0  0  0  0  0  0  0  0  0
  190.2220  176.2720  138.4010 C   0  0  0  0  0  3  0  0  0  0  0  0
  189.8530  177.3570  140.5300 C   0  0  0  0  0  3  0  0  0  0  0  0
  1 30  1  0  0  0  0
  1  2  2  0  0  0  0
  2 16  1  0  0  0  0
  3  6  1  0  0  0  0
  4  7  1  0  0  0  0
  4  8  2  0  0  0  0
  5  6  2  0  0  0  0
  5  2  1  0  0  0  0
  7  3  2  0  0  0  0
  8  5  1  0  0  0  0
  9  7  1  0  0  0  0
 10 11  1  0  0  0  0
 11  9  1  0  0  0  0
 13 15  2  0  0  0  0
 14 13  1  0  0  0  0
 15 12  2  0  0  0  0
 16 14  1  0  0  0  0
 16 13  1  0  0  0  0
 17 12  1  0  0  0  0
 17 24  1  0  0  0  0
 19 22  2  0  0  0  0
 20 23  1  0  0  0  0
 21 19  1  0  0  0  0
 23 18  2  0  0  0  0
 23 22  1  0  0  0  0
 24 20  2  0  0  0  0
 24 21  1  0  0  0  0
 25 20  1  0  0  0  0
 26 25  1  0  0  0  0
 27 25  2  0  0  0  0
 28 29  2  0  0  0  0
 29 34  1  0  0  0  0
 29 30  1  0  0  0  0
 31 36  1  0  0  0  0
 32 35  2  0  0  0  0
 32 34  1  0  0  0  0
 33 36  2  0  0  0  0
 34 31  2  0  0  0  0
 35 33  1  0  0  0  0
M  END
>  <MODEL>
5

>  <REMARK>
 VINA RESULT:      -8.4      2.826      9.352
  Name = 
  9 active torsions:
  status: ('A' for Active; 'I' for Inactive)
    1  A    between atoms: C_3  and  C_33
    2  A    between atoms: C_7  and  C_12
    3  A    between atoms: C_13  and  N_30
    4  A    between atoms: C_14  and  O_15
    5  A    between atoms: O_15  and  C_22
    6  A    between atoms: C_16  and  C_31
    7  A    between atoms: C_19  and  C_24
    8  A    between atoms: C_31  and  N_32
    9  A    between atoms: C_33  and  C_34
                            x       y       z     vdW  Elec       q    Type
                         _______ _______ _______ _____ _____    ______ ____

>  <TORSDO>
F 9

$$$$
=
 OpenBabel11032420103D

 36 39  0  0  0  0  0  0  0  0999 V2000
  188.6150  175.6550  137.3370 C   0  0  0  0  0  3  0  0  0  0  0  0
  189.5080  176.2640  138.1190 C   0  0  0  0  0  0  0  0  0  0  0  0
  192.7320  174.4070  137.3570 C   0  0  0  0  0  3  0  0  0  0  0  0
  193.2710  176.4910  138.4550 C   0  0  0  0  0  3  0  0  0  0  0  0
  190.9470  175.9210  138.0260 C   0  0  0  0  0  0  0  0  0  0  0  0
  191.3720  174.7180  137.4370 C   0  0  0  0  0  3  0  0  0  0  0  0
  193.6890  175.2900  137.8630 C   0  0  0  0  0  0  0  0  0  0  0  0
  191.9120  176.8010  138.5350 C   0  0  0  0  0  3  0  0  0  0  0  0
  195.0420  174.9530  137.7650 O   0  0  0  0  0  0  0  0  0  0  0  0
  196.3850  174.7070  139.7350 C   0  0  0  0  0  1  0  0  0  0  0  0
  195.6560  173.9940  138.6150 C   0  0  0  0  0  2  0  0  0  0  0  0
  188.9740  177.4060  143.0560 C   0  0  0  0  0  3  0  0  0  0  0  0
  188.8530  177.7590  140.4790 C   0  0  0  0  0  0  0  0  0  0  0  0
  188.5530  178.5160  139.3580 C   0  0  0  0  0  2  0  0  0  0  0  0
  188.9120  177.5860  141.7680 C   0  0  0  0  0  0  0  0  0  0  0  0
  189.0760  177.2610  139.0500 N   0  0  0  0  0  0  0  0  0  0  0  0
  187.9340  176.5920  143.7430 C   0  0  0  0  0  2  0  0  0  0  0  0
  185.7000  179.2800  147.1620 O   0  0  0  0  0  0  0  0  0  0  0  0
  184.8300  178.9110  143.7450 C   0  0  0  0  0  3  0  0  0  0  0  0
  186.8660  177.9510  145.5500 C   0  0  0  0  0  0  0  0  0  0  0  0
  185.7050  177.7610  143.3340 C   0  0  0  0  0  2  0  0  0  0  0  0
  184.8490  179.4100  144.9760 C   0  0  0  0  0  3  0  0  0  0  0  0
  185.7970  178.8940  145.9670 C   0  0  0  0  0  0  0  0  0  0  0  0
  186.8520  177.4750  144.2800 C   0  0  0  0  0  0  0  0  0  0  0  0
  187.9450  177.6150  146.5190 C   0  0  0  0  0  0  0  0  0  0  0  0
  189.2620  178.1400  146.3680 N   0  0  0  0  0  1  0  0  0  0  0  0
  187.7140  176.8210  147.4680 O   0  0  0  0  0  0  0  0  0  0  0  0
  187.3380  177.5900  135.7210 O   0  0  0  0  0  0  0  0  0  0  0  0
  186.6310  176.9660  136.5610 C   0  0  0  0  0  0  0  0  0  0  0  0
  187.2260  175.9760  137.4020 N   0  0  0  0  0  2  0  0  0  0  0  0
  184.3190  177.0070  135.6210 C   0  0  0  0  0  3  0  0  0  0  0  0
  184.6870  177.8200  137.8690 C   0  0  0  0  0  3  0  0  0  0  0  0
  182.4580  177.8470  136.9220 C   0  0  0  0  0  3  0  0  0  0  0  0
  185.1940  177.2670  136.6850 C   0  0  0  0  0  0  0  0  0  0  0  0
  183.3230  178.1090  137.9870 C   0  0  0  0  0  3  0  0  0  0  0  0
  182.9560  177.2960  135.7380 C   0  0  0  0  0  3  0  0  0  0  0  0
  1 30  1  0  0  0  0
  1  2  2  0  0  0  0
  2 16  1  0  0  0  0
  3  6  2  0  0  0  0
  3  7  1  0  0  0  0
  4  8  1  0  0  0  0
  5  2  1  0  0  0  0
  5  8  2  0  0  0  0
  6  5  1  0  0  0  0
  7  4  2  0  0  0  0
  9  7  1  0  0  0  0
  9 11  1  0  0  0  0
 11 10  1  0  0  0  0
 12 17  1  0  0  0  0
 13 15  2  0  0  0  0
 14 13  1  0  0  0  0
 15 12  2  0  0  0  0
 16 14  1  0  0  0  0
 16 13  1  0  0  0  0
 17 24  1  0  0  0  0
 19 22  2  0  0  0  0
 20 23  1  0  0  0  0
 20 25  1  0  0  0  0
 21 19  1  0  0  0  0
 21 24  1  0  0  0  0
 22 23  1  0  0  0  0
 23 18  2  0  0  0  0
 24 20  2  0  0  0  0
 25 27  2  0  0  0  0
 26 25  1  0  0  0  0
 28 29  2  0  0  0  0
 29 34  1  0  0  0  0
 29 30  1  0  0  0  0
 31 36  2  0  0  0  0
 31 34  1  0  0  0  0
 32 35  1  0  0  0  0
 33 35  2  0  0  0  0
 34 32  2  0  0  0  0
 36 33  1  0  0  0  0
M  END
>  <MODEL>
6

>  <REMARK>
 VINA RESULT:      -8.4      2.764      6.277
  Name = 
  9 active torsions:
  status: ('A' for Active; 'I' for Inactive)
    1  A    between atoms: C_3  and  C_33
    2  A    between atoms: C_7  and  C_12
    3  A    between atoms: C_13  and  N_30
    4  A    between atoms: C_14  and  O_15
    5  A    between atoms: O_15  and  C_22
    6  A    between atoms: C_16  and  C_31
    7  A    between atoms: C_19  and  C_24
    8  A    between atoms: C_31  and  N_32
    9  A    between atoms: C_33  and  C_34
                            x       y       z     vdW  Elec       q    Type
                         _______ _______ _______ _____ _____    ______ ____

>  <TORSDO>
F 9

$$$$
=
 OpenBabel11032420103D

 36 39  0  0  0  0  0  0  0  0999 V2000
  190.7820  176.7500  140.9760 C   0  0  0  0  0  3  0  0  0  0  0  0
  190.4270  177.0150  139.7180 C   0  0  0  0  0  0  0  0  0  0  0  0
  191.6420  175.8480  136.3140 C   0  0  0  0  0  3  0  0  0  0  0  0
  193.5570  176.3880  137.6850 C   0  0  0  0  0  3  0  0  0  0  0  0
  191.3150  176.6440  138.5920 C   0  0  0  0  0  0  0  0  0  0  0  0
  190.7910  176.1950  137.3670 C   0  0  0  0  0  3  0  0  0  0  0  0
  193.0270  175.9430  136.4640 C   0  0  0  0  0  0  0  0  0  0  0  0
  192.7070  176.7350  138.7370 C   0  0  0  0  0  3  0  0  0  0  0  0
  193.8510  175.5920  135.3920 O   0  0  0  0  0  0  0  0  0  0  0  0
  195.9980  174.5420  135.5800 C   0  0  0  0  0  1  0  0  0  0  0  0
  195.2490  175.8450  135.3860 C   0  0  0  0  0  2  0  0  0  0  0  0
  186.1910  178.9220  141.8110 C   0  0  0  0  0  3  0  0  0  0  0  0
  187.8540  178.2710  139.9170 C   0  0  0  0  0  0  0  0  0  0  0  0
  188.2340  178.2110  138.5860 C   0  0  0  0  0  2  0  0  0  0  0  0
  187.0200  178.5980  140.8620 C   0  0  0  0  0  0  0  0  0  0  0  0
  189.1750  177.6570  139.4520 N   0  0  0  0  0  0  0  0  0  0  0  0
  185.3090  177.8850  142.4140 C   0  0  0  0  0  2  0  0  0  0  0  0
  181.0020  179.9120  143.5300 O   0  0  0  0  0  0  0  0  0  0  0  0
  181.9480  178.2820  140.5270 C   0  0  0  0  0  3  0  0  0  0  0  0
  183.1470  178.9610  143.0630 C   0  0  0  0  0  0  0  0  0  0  0  0
  183.2520  177.6510  140.9260 C   0  0  0  0  0  2  0  0  0  0  0  0
  181.2380  179.0280  141.3660 C   0  0  0  0  0  3  0  0  0  0  0  0
  181.7520  179.3260  142.7050 C   0  0  0  0  0  0  0  0  0  0  0  0
  183.8710  178.2260  142.1820 C   0  0  0  0  0  0  0  0  0  0  0  0
  183.7170  179.4670  144.3410 C   0  0  0  0  0  0  0  0  0  0  0  0
  183.4310  178.8270  145.5820 N   0  0  0  0  0  1  0  0  0  0  0  0
  184.4300  180.5050  144.3440 O   0  0  0  0  0  0  0  0  0  0  0  0
  191.3790  176.2110  143.6850 O   0  0  0  0  0  0  0  0  0  0  0  0
  190.2880  176.7920  143.4290 C   0  0  0  0  0  0  0  0  0  0  0  0
  189.9380  177.0900  142.0760 N   0  0  0  0  0  2  0  0  0  0  0  0
  187.9820  177.1420  144.3150 C   0  0  0  0  0  3  0  0  0  0  0  0
  189.8710  177.5120  145.7790 C   0  0  0  0  0  3  0  0  0  0  0  0
  187.6190  177.8450  146.6040 C   0  0  0  0  0  3  0  0  0  0  0  0
  189.3690  177.1520  144.5220 C   0  0  0  0  0  0  0  0  0  0  0  0
  188.9990  177.8570  146.8170 C   0  0  0  0  0  3  0  0  0  0  0  0
  187.1100  177.4880  145.3530 C   0  0  0  0  0  3  0  0  0  0  0  0
  1 30  1  0  0  0  0
  2  1  2  0  0  0  0
  3  7  2  0  0  0  0
  3  6  1  0  0  0  0
  4  8  2  0  0  0  0
  5  8  1  0  0  0  0
  5  2  1  0  0  0  0
  6  5  2  0  0  0  0
  7  4  1  0  0  0  0
  9  7  1  0  0  0  0
 11  9  1  0  0  0  0
 11 10  1  0  0  0  0
 12 17  1  0  0  0  0
 13 15  2  0  0  0  0
 14 16  1  0  0  0  0
 14 13  1  0  0  0  0
 15 12  2  0  0  0  0
 16  2  1  0  0  0  0
 16 13  1  0  0  0  0
 19 21  1  0  0  0  0
 19 22  2  0  0  0  0
 20 25  1  0  0  0  0
 21 24  1  0  0  0  0
 22 23  1  0  0  0  0
 23 20  1  0  0  0  0
 23 18  2  0  0  0  0
 24 17  1  0  0  0  0
 24 20  2  0  0  0  0
 25 27  2  0  0  0  0
 25 26  1  0  0  0  0
 29 28  2  0  0  0  0
 29 34  1  0  0  0  0
 30 29  1  0  0  0  0
 31 34  2  0  0  0  0
 31 36  1  0  0  0  0
 32 35  2  0  0  0  0
 33 35  1  0  0  0  0
 34 32  1  0  0  0  0
 36 33  2  0  0  0  0
M  END
>  <MODEL>
7

>  <REMARK>
 VINA RESULT:      -8.2      1.931      2.531
  Name = 
  9 active torsions:
  status: ('A' for Active; 'I' for Inactive)
    1  A    between atoms: C_3  and  C_33
    2  A    between atoms: C_7  and  C_12
    3  A    between atoms: C_13  and  N_30
    4  A    between atoms: C_14  and  O_15
    5  A    between atoms: O_15  and  C_22
    6  A    between atoms: C_16  and  C_31
    7  A    between atoms: C_19  and  C_24
    8  A    between atoms: C_31  and  N_32
    9  A    between atoms: C_33  and  C_34
                            x       y       z     vdW  Elec       q    Type
                         _______ _______ _______ _____ _____    ______ ____

>  <TORSDO>
F 9

$$$$
=
 OpenBabel11032420103D

 36 39  0  0  0  0  0  0  0  0999 V2000
  185.6820  177.8770  144.0260 C   0  0  0  0  0  3  0  0  0  0  0  0
  185.2990  178.2580  142.8050 C   0  0  0  0  0  0  0  0  0  0  0  0
  181.9950  178.6670  140.9790 C   0  0  0  0  0  3  0  0  0  0  0  0
  181.6900  179.2850  143.2960 C   0  0  0  0  0  3  0  0  0  0  0  0
  183.8750  178.5510  142.5210 C   0  0  0  0  0  0  0  0  0  0  0  0
  183.3400  178.3870  141.2320 C   0  0  0  0  0  3  0  0  0  0  0  0
  181.1610  179.1160  142.0070 C   0  0  0  0  0  0  0  0  0  0  0  0
  183.0350  179.0040  143.5480 C   0  0  0  0  0  3  0  0  0  0  0  0
  179.8200  179.3840  141.7230 O   0  0  0  0  0  0  0  0  0  0  0  0
  179.3760  181.2700  140.3100 C   0  0  0  0  0  1  0  0  0  0  0  0
  179.2880  180.7030  141.7120 C   0  0  0  0  0  2  0  0  0  0  0  0
  186.0600  178.1170  137.7690 C   0  0  0  0  0  3  0  0  0  0  0  0
  186.6680  178.3860  140.2860 C   0  0  0  0  0  0  0  0  0  0  0  0
  187.5670  178.6340  141.3110 C   0  0  0  0  0  2  0  0  0  0  0  0
  186.3670  178.2520  139.0270 C   0  0  0  0  0  0  0  0  0  0  0  0
  186.2720  178.3910  141.7640 N   0  0  0  0  0  0  0  0  0  0  0  0
  185.9050  176.7560  137.1840 C   0  0  0  0  0  2  0  0  0  0  0  0
  182.2530  173.5060  137.1310 O   0  0  0  0  0  0  0  0  0  0  0  0
  182.0800  176.9910  137.7620 C   0  0  0  0  0  3  0  0  0  0  0  0
  184.1030  175.0240  137.1540 C   0  0  0  0  0  0  0  0  0  0  0  0
  183.4540  177.4390  137.3490 C   0  0  0  0  0  2  0  0  0  0  0  0
  181.7070  175.7170  137.7090 C   0  0  0  0  0  3  0  0  0  0  0  0
  182.6650  174.6820  137.3120 C   0  0  0  0  0  0  0  0  0  0  0  0
  184.4730  176.3250  137.2420 C   0  0  0  0  0  0  0  0  0  0  0  0
  185.0860  173.9220  136.9690 C   0  0  0  0  0  0  0  0  0  0  0  0
  185.5300  173.5390  135.6700 N   0  0  0  0  0  1  0  0  0  0  0  0
  185.5080  173.2810  137.9670 O   0  0  0  0  0  0  0  0  0  0  0  0
  186.7560  177.7240  146.6350 O   0  0  0  0  0  0  0  0  0  0  0  0
  187.5410  177.5350  145.6640 C   0  0  0  0  0  0  0  0  0  0  0  0
  187.0490  177.5990  144.3240 N   0  0  0  0  0  2  0  0  0  0  0  0
  189.8800  177.2370  144.8470 C   0  0  0  0  0  3  0  0  0  0  0  0
  189.4260  177.0160  147.2120 C   0  0  0  0  0  3  0  0  0  0  0  0
  191.6830  176.7310  146.3820 C   0  0  0  0  0  3  0  0  0  0  0  0
  188.9670  177.2600  145.9110 C   0  0  0  0  0  0  0  0  0  0  0  0
  190.7790  176.7520  147.4470 C   0  0  0  0  0  3  0  0  0  0  0  0
  191.2340  176.9720  145.0820 C   0  0  0  0  0  3  0  0  0  0  0  0
  1 30  1  0  0  0  0
  2  1  2  0  0  0  0
  3  6  2  0  0  0  0
  3  7  1  0  0  0  0
  4  8  1  0  0  0  0
  5  2  1  0  0  0  0
  5  8  2  0  0  0  0
  6  5  1  0  0  0  0
  7  4  2  0  0  0  0
  9  7  1  0  0  0  0
 10 11  1  0  0  0  0
 11  9  1  0  0  0  0
 12 15  2  0  0  0  0
 13 14  1  0  0  0  0
 13 16  1  0  0  0  0
 14 16  1  0  0  0  0
 15 13  2  0  0  0  0
 16  2  1  0  0  0  0
 17 24  1  0  0  0  0
 17 12  1  0  0  0  0
 18 23  2  0  0  0  0
 20 24  2  0  0  0  0
 20 23  1  0  0  0  0
 21 19  1  0  0  0  0
 22 19  2  0  0  0  0
 23 22  1  0  0  0  0
 24 21  1  0  0  0  0
 25 20  1  0  0  0  0
 25 27  2  0  0  0  0
 26 25  1  0  0  0  0
 29 34  1  0  0  0  0
 29 28  2  0  0  0  0
 30 29  1  0  0  0  0
 31 36  2  0  0  0  0
 31 34  1  0  0  0  0
 32 35  1  0  0  0  0
 33 35  2  0  0  0  0
 34 32  2  0  0  0  0
 36 33  1  0  0  0  0
M  END
>  <MODEL>
8

>  <REMARK>
 VINA RESULT:      -8.2      3.854      7.705
  Name = 
  9 active torsions:
  status: ('A' for Active; 'I' for Inactive)
    1  A    between atoms: C_3  and  C_33
    2  A    between atoms: C_7  and  C_12
    3  A    between atoms: C_13  and  N_30
    4  A    between atoms: C_14  and  O_15
    5  A    between atoms: O_15  and  C_22
    6  A    between atoms: C_16  and  C_31
    7  A    between atoms: C_19  and  C_24
    8  A    between atoms: C_31  and  N_32
    9  A    between atoms: C_33  and  C_34
                            x       y       z     vdW  Elec       q    Type
                         _______ _______ _______ _____ _____    ______ ____

>  <TORSDO>
F 9

$$$$
=
 OpenBabel11032420103D

 36 39  0  0  0  0  0  0  0  0999 V2000
  182.6620  177.9560  136.8400 C   0  0  0  0  0  3  0  0  0  0  0  0
  182.0440  178.5520  137.8620 C   0  0  0  0  0  0  0  0  0  0  0  0
  180.1550  181.4480  136.2900 C   0  0  0  0  0  3  0  0  0  0  0  0
  180.7030  182.0190  138.5740 C   0  0  0  0  0  3  0  0  0  0  0  0
  181.3760  179.8610  137.6760 C   0  0  0  0  0  0  0  0  0  0  0  0
  180.7820  180.2090  136.4510 C   0  0  0  0  0  3  0  0  0  0  0  0
  180.1100  182.3590  137.3480 C   0  0  0  0  0  0  0  0  0  0  0  0
  181.3290  180.7810  138.7340 C   0  0  0  0  0  3  0  0  0  0  0  0
  179.4730  183.5880  137.1580 O   0  0  0  0  0  0  0  0  0  0  0  0
  181.1640  184.9610  136.1560 C   0  0  0  0  0  1  0  0  0  0  0  0
  180.1530  184.8300  137.2770 C   0  0  0  0  0  2  0  0  0  0  0  0
  183.8940  178.6820  142.6070 C   0  0  0  0  0  3  0  0  0  0  0  0
  182.4760  177.8190  140.6030 C   0  0  0  0  0  0  0  0  0  0  0  0
  181.5660  176.9440  140.0300 C   0  0  0  0  0  2  0  0  0  0  0  0
  183.1840  178.2480  141.6070 C   0  0  0  0  0  0  0  0  0  0  0  0
  182.0210  177.9200  139.1460 N   0  0  0  0  0  0  0  0  0  0  0  0
  185.3440  178.3530  142.6880 C   0  0  0  0  0  2  0  0  0  0  0  0
  188.4030  177.1380  146.3030 O   0  0  0  0  0  0  0  0  0  0  0  0
  185.3030  178.8440  146.5310 C   0  0  0  0  0  3  0  0  0  0  0  0
  186.9740  177.7080  144.4710 C   0  0  0  0  0  0  0  0  0  0  0  0
  184.7480  178.6430  145.1490 C   0  0  0  0  0  2  0  0  0  0  0  0
  186.4930  178.3740  146.8890 C   0  0  0  0  0  3  0  0  0  0  0  0
  187.3470  177.7000  145.9090 C   0  0  0  0  0  0  0  0  0  0  0  0
  185.7700  178.2210  144.1160 C   0  0  0  0  0  0  0  0  0  0  0  0
  187.9600  177.2150  143.4710 C   0  0  0  0  0  0  0  0  0  0  0  0
  188.8480  178.1090  142.8050 N   0  0  0  0  0  1  0  0  0  0  0  0
  187.9900  175.9930  143.1670 O   0  0  0  0  0  0  0  0  0  0  0  0
  185.4470  177.5320  136.6170 O   0  0  0  0  0  0  0  0  0  0  0  0
  184.7180  176.5320  136.8680 C   0  0  0  0  0  0  0  0  0  0  0  0
  183.3040  176.6910  136.9930 N   0  0  0  0  0  2  0  0  0  0  0  0
  184.5530  174.1160  137.4730 C   0  0  0  0  0  3  0  0  0  0  0  0
  186.6760  174.9950  136.7170 C   0  0  0  0  0  3  0  0  0  0  0  0
  186.4790  172.6570  137.3150 C   0  0  0  0  0  3  0  0  0  0  0  0
  185.3230  175.1970  137.0200 C   0  0  0  0  0  0  0  0  0  0  0  0
  187.2530  173.7290  136.8640 C   0  0  0  0  0  3  0  0  0  0  0  0
  185.1300  172.8500  137.6200 C   0  0  0  0  0  3  0  0  0  0  0  0
  1 30  1  0  0  0  0
  1  2  2  0  0  0  0
  2 16  1  0  0  0  0
  3  6  2  0  0  0  0
  3  7  1  0  0  0  0
  4  8  1  0  0  0  0
  5  2  1  0  0  0  0
  5  8  2  0  0  0  0
  6  5  1  0  0  0  0
  7  4  2  0  0  0  0
  9 11  1  0  0  0  0
  9  7  1  0  0  0  0
 10 11  1  0  0  0  0
 12 17  1  0  0  0  0
 13 15  2  0  0  0  0
 14 13  1  0  0  0  0
 15 12  2  0  0  0  0
 16 14  1  0  0  0  0
 16 13  1  0  0  0  0
 17 24  1  0  0  0  0
 19 22  2  0  0  0  0
 20 23  1  0  0  0  0
 21 19  1  0  0  0  0
 23 18  2  0  0  0  0
 23 22  1  0  0  0  0
 24 20  2  0  0  0  0
 24 21  1  0  0  0  0
 25 20  1  0  0  0  0
 26 25  1  0  0  0  0
 27 25  2  0  0  0  0
 28 29  2  0  0  0  0
 29 30  1  0  0  0  0
 29 34  1  0  0  0  0
 31 36  1  0  0  0  0
 32 35  2  0  0  0  0
 32 34  1  0  0  0  0
 33 36  2  0  0  0  0
 34 31  2  0  0  0  0
 35 33  1  0  0  0  0
M  END
>  <MODEL>
9

>  <REMARK>
 VINA RESULT:      -8.2      3.866      9.842
  Name = 
  9 active torsions:
  status: ('A' for Active; 'I' for Inactive)
    1  A    between atoms: C_3  and  C_33
    2  A    between atoms: C_7  and  C_12
    3  A    between atoms: C_13  and  N_30
    4  A    between atoms: C_14  and  O_15
    5  A    between atoms: O_15  and  C_22
    6  A    between atoms: C_16  and  C_31
    7  A    between atoms: C_19  and  C_24
    8  A    between atoms: C_31  and  N_32
    9  A    between atoms: C_33  and  C_34
                            x       y       z     vdW  Elec       q    Type
                         _______ _______ _______ _____ _____    ______ ____

>  <TORSDO>
F 9

$$$$
