=
 OpenBabel11032419483D

 27 28  0  0  1  0  0  0  0  0999 V2000
  186.3570  177.7510  142.2380 N   0  0  0  0  0  2  0  0  0  0  0  0
  182.8670  178.9940  142.8500 C   0  0  0  0  0  0  0  0  0  0  0  0
  182.8830  179.1230  144.2410 C   0  0  0  0  0  3  0  0  0  0  0  0
  181.7330  179.3330  142.1860 F   0  0  0  0  0  0  0  0  0  0  0  0
  185.1740  178.3740  144.2970 C   0  0  0  0  0  3  0  0  0  0  0  0
  185.1840  178.2430  142.9000 C   0  0  0  0  0  0  0  0  0  0  0  0
  184.0170  178.5570  142.1570 C   0  0  0  0  0  0  0  0  0  0  0  0
  184.0320  178.8140  144.9630 C   0  0  0  0  0  3  0  0  0  0  0  0
  183.4220  177.4010  140.1350 N   0  0  0  0  0  2  0  0  0  0  0  0
  183.9890  178.4310  140.6770 C   0  0  0  0  0  0  0  0  0  0  0  0
  184.1640  180.2330  139.0440 N   0  0  0  0  0  0  0  0  0  0  0  0
  184.6820  179.4050  139.8720 N   0  0  0  0  0  0  0  0  0  0  0  0
  182.7900  180.3610  138.7860 C   0  0  0  0  0  0  0  0  0  0  0  0
  181.6100  180.4790  138.5610 C   0  0  0  0  0  3  0  0  0  0  0  0
  187.7160  177.9650  142.7250 C   0  0  2  0  0  3  0  0  0  0  0  0
  189.9130  177.9310  141.7760 O   0  0  0  0  0  0  0  0  0  0  0  0
  189.0610  178.5760  139.1440 C   0  0  0  0  0  1  0  0  0  0  0  0
  188.6770  178.0950  141.5870 C   0  0  0  0  0  0  0  0  0  0  0  0
  188.1810  178.4280  140.2910 N   0  0  0  0  0  2  0  0  0  0  0  0
  188.1220  176.8510  143.6390 C   0  0  0  0  0  0  0  0  0  0  0  0
  188.0140  175.6540  143.2590 O   0  0  0  0  0  0  0  0  0  0  0  0
  189.1330  178.1620  148.7140 C   0  0  0  0  0  1  0  0  0  0  0  0
  187.7840  177.6780  146.3020 S   0  0  0  0  0  0  0  0  0  0  0  0
  190.2620  177.3740  146.6290 N   0  0  0  0  0  0  0  0  0  0  0  0
  188.6690  177.1480  144.9710 C   0  0  0  0  0  0  0  0  0  0  0  0
  190.0070  177.0390  145.3350 C   0  0  0  0  0  3  0  0  0  0  0  0
  189.1430  177.7450  147.2870 C   0  0  0  0  0  0  0  0  0  0  0  0
  1 15  1  0  0  0  0
  1  6  1  0  0  0  0
  2  3  1  0  0  0  0
  3  8  2  0  0  0  0
  4  2  1  0  0  0  0
  5  8  1  0  0  0  0
  6  5  2  0  0  0  0
  7  2  2  0  0  0  0
  7  6  1  0  0  0  0
  9 10  2  0  0  0  0
 10  7  1  0  0  0  0
 11 12  2  0  0  0  0
 12 10  1  0  0  0  0
 13 11  1  0  0  0  0
 14 13  3  0  0  0  0
 15 18  1  6  0  0  0
 15 20  1  0  0  0  0
 17 19  1  0  0  0  0
 18 16  2  0  0  0  0
 19 18  1  0  0  0  0
 20 25  1  0  0  0  0
 21 20  2  0  0  0  0
 23 27  1  0  0  0  0
 24 27  2  0  0  0  0
 25 26  2  0  0  0  0
 25 23  1  0  0  0  0
 26 24  1  0  0  0  0
 27 22  1  0  0  0  0
M  END
>  <MODEL>
1

>  <REMARK>
 VINA RESULT:      -7.9      0.000      0.000
  Name = 
  8 active torsions:
  status: ('A' for Active; 'I' for Inactive)
    1  A    between atoms: C_2  and  N_6
    2  A    between atoms: C_2  and  C_8
    3  A    between atoms: C_2  and  C_22
    4  A    between atoms: N_6  and  C_19
    5  A    between atoms: C_8  and  C_13
    6  A    between atoms: C_10  and  N_16
    7  A    between atoms: C_20  and  C_27
    8  A    between atoms: N_24  and  C_27
                            x       y       z     vdW  Elec       q    Type
                         _______ _______ _______ _____ _____    ______ ____

>  <TORSDO>
F 8

$$$$
=
 OpenBabel11032419483D

 27 28  0  0  1  0  0  0  0  0999 V2000
  189.0790  178.2780  141.2900 N   0  0  0  0  0  2  0  0  0  0  0  0
  188.2430  177.5680  144.8810 C   0  0  0  0  0  0  0  0  0  0  0  0
  186.8480  177.5410  144.8170 C   0  0  0  0  0  3  0  0  0  0  0  0
  188.8360  177.3360  146.0800 F   0  0  0  0  0  0  0  0  0  0  0  0
  186.9360  177.9750  142.4470 C   0  0  0  0  0  3  0  0  0  0  0  0
  188.3380  177.9990  142.4860 C   0  0  0  0  0  0  0  0  0  0  0  0
  189.0100  177.7920  143.7170 C   0  0  0  0  0  0  0  0  0  0  0  0
  186.1950  177.7440  143.6040 C   0  0  0  0  0  3  0  0  0  0  0  0
  191.1080  178.9320  143.9960 N   0  0  0  0  0  2  0  0  0  0  0  0
  190.4930  177.8110  143.7980 C   0  0  0  0  0  0  0  0  0  0  0  0
  191.8070  175.8540  144.4200 N   0  0  0  0  0  0  0  0  0  0  0  0
  191.2290  176.5950  143.5520 N   0  0  0  0  0  0  0  0  0  0  0  0
  191.8060  176.0830  145.8060 C   0  0  0  0  0  0  0  0  0  0  0  0
  191.8100  176.2730  146.9980 C   0  0  0  0  0  3  0  0  0  0  0  0
  189.0730  177.4190  140.1110 C   0  0  2  0  0  3  0  0  0  0  0  0
  190.6070  175.8520  139.1500 O   0  0  0  0  0  0  0  0  0  0  0  0
  192.9410  177.2010  140.0460 C   0  0  0  0  0  1  0  0  0  0  0  0
  190.4500  176.9150  139.8100 C   0  0  0  0  0  0  0  0  0  0  0  0
  191.5790  177.6390  140.2980 N   0  0  0  0  0  2  0  0  0  0  0  0
  188.5080  178.1530  138.9350 C   0  0  0  0  0  0  0  0  0  0  0  0
  189.0220  179.2440  138.5680 O   0  0  0  0  0  0  0  0  0  0  0  0
  183.8430  176.9000  136.6640 C   0  0  0  0  0  1  0  0  0  0  0  0
  185.7990  178.2050  138.1920 S   0  0  0  0  0  0  0  0  0  0  0  0
  186.2230  176.1540  136.7950 N   0  0  0  0  0  0  0  0  0  0  0  0
  187.3690  177.5950  138.1920 C   0  0  0  0  0  0  0  0  0  0  0  0
  187.4140  176.4710  137.3720 C   0  0  0  0  0  3  0  0  0  0  0  0
  185.2430  177.0120  137.1490 C   0  0  0  0  0  0  0  0  0  0  0  0
  1  6  1  0  0  0  0
  2  4  1  0  0  0  0
  3  2  1  0  0  0  0
  5  6  2  0  0  0  0
  5  8  1  0  0  0  0
  6  7  1  0  0  0  0
  7 10  1  0  0  0  0
  7  2  2  0  0  0  0
  8  3  2  0  0  0  0
 10  9  2  0  0  0  0
 11 13  1  0  0  0  0
 12 10  1  0  0  0  0
 12 11  2  0  0  0  0
 13 14  3  0  0  0  0
 15 20  1  6  0  0  0
 15  1  1  0  0  0  0
 16 18  2  0  0  0  0
 17 19  1  0  0  0  0
 18 15  1  0  0  0  0
 18 19  1  0  0  0  0
 21 20  2  0  0  0  0
 22 27  1  0  0  0  0
 23 25  1  0  0  0  0
 24 27  2  0  0  0  0
 24 26  1  0  0  0  0
 25 20  1  0  0  0  0
 26 25  2  0  0  0  0
 27 23  1  0  0  0  0
M  END
>  <MODEL>
2

>  <REMARK>
 VINA RESULT:      -7.8      3.789      7.552
  Name = 
  8 active torsions:
  status: ('A' for Active; 'I' for Inactive)
    1  A    between atoms: C_2  and  N_6
    2  A    between atoms: C_2  and  C_8
    3  A    between atoms: C_2  and  C_22
    4  A    between atoms: N_6  and  C_19
    5  A    between atoms: C_8  and  C_13
    6  A    between atoms: C_10  and  N_16
    7  A    between atoms: C_20  and  C_27
    8  A    between atoms: N_24  and  C_27
                            x       y       z     vdW  Elec       q    Type
                         _______ _______ _______ _____ _____    ______ ____

>  <TORSDO>
F 8

$$$$
=
 OpenBabel11032419483D

 27 28  0  0  1  0  0  0  0  0999 V2000
  188.3400  178.5500  140.7400 N   0  0  0  0  0  2  0  0  0  0  0  0
  186.3540  177.7380  143.8210 C   0  0  0  0  0  0  0  0  0  0  0  0
  185.1140  178.2790  143.4750 C   0  0  0  0  0  3  0  0  0  0  0  0
  186.4740  177.1240  145.0260 F   0  0  0  0  0  0  0  0  0  0  0  0
  185.9970  178.9680  141.3390 C   0  0  0  0  0  3  0  0  0  0  0  0
  187.2500  178.4260  141.6630 C   0  0  0  0  0  0  0  0  0  0  0  0
  187.4400  177.7980  142.9200 C   0  0  0  0  0  0  0  0  0  0  0  0
  184.9350  178.8920  142.2380 C   0  0  0  0  0  3  0  0  0  0  0  0
  188.9180  175.9290  143.2430 N   0  0  0  0  0  2  0  0  0  0  0  0
  188.7510  177.2120  143.2990 C   0  0  0  0  0  0  0  0  0  0  0  0
  190.1020  178.2390  145.0500 N   0  0  0  0  0  0  0  0  0  0  0  0
  189.7840  178.0720  143.8220 N   0  0  0  0  0  0  0  0  0  0  0  0
  189.5020  177.5780  146.1350 C   0  0  0  0  0  0  0  0  0  0  0  0
  188.9930  177.0150  147.0720 C   0  0  0  0  0  3  0  0  0  0  0  0
  188.6030  177.6040  139.6600 C   0  0  2  0  0  3  0  0  0  0  0  0
  190.8420  177.6200  140.5090 O   0  0  0  0  0  0  0  0  0  0  0  0
  191.9630  176.2480  138.2890 C   0  0  0  0  0  1  0  0  0  0  0  0
  190.0610  177.2770  139.5800 C   0  0  0  0  0  0  0  0  0  0  0  0
  190.5580  176.5910  138.4310 N   0  0  0  0  0  2  0  0  0  0  0  0
  188.1090  178.1500  138.3570 C   0  0  0  0  0  0  0  0  0  0  0  0
  188.6380  179.1860  137.8680 O   0  0  0  0  0  0  0  0  0  0  0  0
  184.9120  175.0380  135.4280 C   0  0  0  0  0  1  0  0  0  0  0  0
  187.1870  176.0880  136.6880 S   0  0  0  0  0  0  0  0  0  0  0  0
  184.8800  177.0780  136.8690 N   0  0  0  0  0  0  0  0  0  0  0  0
  187.0240  177.4720  137.6340 C   0  0  0  0  0  0  0  0  0  0  0  0
  185.6920  177.8730  137.6170 C   0  0  0  0  0  3  0  0  0  0  0  0
  185.5540  176.0580  136.2980 C   0  0  0  0  0  0  0  0  0  0  0  0
  1  6  1  0  0  0  0
  2  4  1  0  0  0  0
  3  2  1  0  0  0  0
  5  6  2  0  0  0  0
  5  8  1  0  0  0  0
  6  7  1  0  0  0  0
  7 10  1  0  0  0  0
  7  2  2  0  0  0  0
  8  3  2  0  0  0  0
  9 10  2  0  0  0  0
 10 12  1  0  0  0  0
 11 13  1  0  0  0  0
 12 11  2  0  0  0  0
 13 14  3  0  0  0  0
 15 20  1  6  0  0  0
 15  1  1  0  0  0  0
 17 19  1  0  0  0  0
 18 15  1  0  0  0  0
 18 16  2  0  0  0  0
 19 18  1  0  0  0  0
 21 20  2  0  0  0  0
 22 27  1  0  0  0  0
 23 25  1  0  0  0  0
 24 26  1  0  0  0  0
 25 20  1  0  0  0  0
 26 25  2  0  0  0  0
 27 23  1  0  0  0  0
 27 24  2  0  0  0  0
M  END
>  <MODEL>
3

>  <REMARK>
 VINA RESULT:      -7.4      3.435      7.074
  Name = 
  8 active torsions:
  status: ('A' for Active; 'I' for Inactive)
    1  A    between atoms: C_2  and  N_6
    2  A    between atoms: C_2  and  C_8
    3  A    between atoms: C_2  and  C_22
    4  A    between atoms: N_6  and  C_19
    5  A    between atoms: C_8  and  C_13
    6  A    between atoms: C_10  and  N_16
    7  A    between atoms: C_20  and  C_27
    8  A    between atoms: N_24  and  C_27
                            x       y       z     vdW  Elec       q    Type
                         _______ _______ _______ _____ _____    ______ ____

>  <TORSDO>
F 8

$$$$
=
 OpenBabel11032419483D

 27 28  0  0  1  0  0  0  0  0999 V2000
  186.2150  179.0950  141.5860 N   0  0  0  0  0  2  0  0  0  0  0  0
  186.2270  177.8270  145.1200 C   0  0  0  0  0  0  0  0  0  0  0  0
  185.0530  178.4080  145.6040 C   0  0  0  0  0  3  0  0  0  0  0  0
  186.9490  177.0430  145.9610 F   0  0  0  0  0  0  0  0  0  0  0  0
  184.6460  179.4090  143.4480 C   0  0  0  0  0  3  0  0  0  0  0  0
  185.8190  178.8310  142.9390 C   0  0  0  0  0  0  0  0  0  0  0  0
  186.6270  178.0250  143.7810 C   0  0  0  0  0  0  0  0  0  0  0  0
  184.2640  179.1970  144.7710 C   0  0  0  0  0  3  0  0  0  0  0  0
  187.9150  176.1140  143.0960 N   0  0  0  0  0  2  0  0  0  0  0  0
  187.8750  177.3950  143.2780 C   0  0  0  0  0  0  0  0  0  0  0  0
  190.0190  178.3590  143.9260 N   0  0  0  0  0  0  0  0  0  0  0  0
  189.0530  178.2070  143.1000 N   0  0  0  0  0  0  0  0  0  0  0  0
  190.1170  177.7260  145.1760 C   0  0  0  0  0  0  0  0  0  0  0  0
  190.2060  177.1890  146.2530 C   0  0  0  0  0  3  0  0  0  0  0  0
  185.7180  178.3520  140.4330 C   0  0  2  0  0  3  0  0  0  0  0  0
  186.4440  177.8970  138.1980 O   0  0  0  0  0  0  0  0  0  0  0  0
  189.1670  178.5440  138.6800 C   0  0  0  0  0  1  0  0  0  0  0  0
  186.7570  178.2720  139.3600 C   0  0  0  0  0  0  0  0  0  0  0  0
  188.1090  178.6050  139.6740 N   0  0  0  0  0  2  0  0  0  0  0  0
  184.4620  178.9770  139.9120 C   0  0  0  0  0  0  0  0  0  0  0  0
  184.5060  180.1140  139.3670 O   0  0  0  0  0  0  0  0  0  0  0  0
  180.2540  175.7060  139.6390 C   0  0  0  0  0  1  0  0  0  0  0  0
  182.8000  176.8140  139.2440 S   0  0  0  0  0  0  0  0  0  0  0  0
  181.0120  177.8430  140.6860 N   0  0  0  0  0  0  0  0  0  0  0  0
  183.1810  178.2640  140.0120 C   0  0  0  0  0  0  0  0  0  0  0  0
  182.0830  178.6790  140.7590 C   0  0  0  0  0  3  0  0  0  0  0  0
  181.2520  176.7760  139.8950 C   0  0  0  0  0  0  0  0  0  0  0  0
  1  6  1  0  0  0  0
  2  3  1  0  0  0  0
  2  4  1  0  0  0  0
  5  8  1  0  0  0  0
  6  5  2  0  0  0  0
  6  7  1  0  0  0  0
  7  2  2  0  0  0  0
  8  3  2  0  0  0  0
  9 10  2  0  0  0  0
 10  7  1  0  0  0  0
 11 13  1  0  0  0  0
 12 10  1  0  0  0  0
 12 11  2  0  0  0  0
 13 14  3  0  0  0  0
 15 18  1  6  0  0  0
 15  1  1  0  0  0  0
 16 18  2  0  0  0  0
 17 19  1  0  0  0  0
 18 19  1  0  0  0  0
 20 25  1  0  0  0  0
 20 15  1  0  0  0  0
 21 20  2  0  0  0  0
 22 27  1  0  0  0  0
 23 27  1  0  0  0  0
 23 25  1  0  0  0  0
 24 26  1  0  0  0  0
 25 26  2  0  0  0  0
 27 24  2  0  0  0  0
M  END
>  <MODEL>
4

>  <REMARK>
 VINA RESULT:      -7.3      3.203      6.735
  Name = 
  8 active torsions:
  status: ('A' for Active; 'I' for Inactive)
    1  A    between atoms: C_2  and  N_6
    2  A    between atoms: C_2  and  C_8
    3  A    between atoms: C_2  and  C_22
    4  A    between atoms: N_6  and  C_19
    5  A    between atoms: C_8  and  C_13
    6  A    between atoms: C_10  and  N_16
    7  A    between atoms: C_20  and  C_27
    8  A    between atoms: N_24  and  C_27
                            x       y       z     vdW  Elec       q    Type
                         _______ _______ _______ _____ _____    ______ ____

>  <TORSDO>
F 8

$$$$
=
 OpenBabel11032419483D

 27 28  0  0  1  0  0  0  0  0999 V2000
  187.8150  177.5070  142.4450 N   0  0  0  0  0  2  0  0  0  0  0  0
  188.6550  177.8020  146.0930 C   0  0  0  0  0  0  0  0  0  0  0  0
  187.3820  177.6860  146.6570 C   0  0  0  0  0  3  0  0  0  0  0  0
  189.7160  177.9510  146.9260 F   0  0  0  0  0  0  0  0  0  0  0  0
  186.4180  177.4340  144.4620 C   0  0  0  0  0  3  0  0  0  0  0  0
  187.6870  177.5410  143.8730 C   0  0  0  0  0  0  0  0  0  0  0  0
  188.8280  177.7260  144.6940 C   0  0  0  0  0  0  0  0  0  0  0  0
  186.2660  177.5030  145.8460 C   0  0  0  0  0  3  0  0  0  0  0  0
  190.7250  179.0140  143.9680 N   0  0  0  0  0  2  0  0  0  0  0  0
  190.1880  177.8440  144.1080 C   0  0  0  0  0  0  0  0  0  0  0  0
  191.5640  175.8380  144.2740 N   0  0  0  0  0  0  0  0  0  0  0  0
  190.8460  176.6620  143.6080 N   0  0  0  0  0  0  0  0  0  0  0  0
  191.8240  175.9250  145.6510 C   0  0  0  0  0  0  0  0  0  0  0  0
  192.0560  176.0030  146.8330 C   0  0  0  0  0  3  0  0  0  0  0  0
  187.4470  178.6140  141.5690 C   0  0  2  0  0  3  0  0  0  0  0  0
  185.6930  180.1280  142.1730 O   0  0  0  0  0  0  0  0  0  0  0  0
  183.5860  178.3070  141.6140 C   0  0  0  0  0  1  0  0  0  0  0  0
  186.0080  178.9830  141.7490 C   0  0  0  0  0  0  0  0  0  0  0  0
  185.0000  178.0160  141.4560 N   0  0  0  0  0  2  0  0  0  0  0  0
  187.7320  178.2660  140.1410 C   0  0  0  0  0  0  0  0  0  0  0  0
  186.8770  178.5210  139.2500 O   0  0  0  0  0  0  0  0  0  0  0  0
  191.8460  175.6090  138.0190 C   0  0  0  0  0  1  0  0  0  0  0  0
  189.2710  176.6330  138.4520 S   0  0  0  0  0  0  0  0  0  0  0  0
  191.2590  177.1280  139.9140 N   0  0  0  0  0  0  0  0  0  0  0  0
  189.0130  177.6480  139.7710 C   0  0  0  0  0  0  0  0  0  0  0  0
  190.2130  177.8070  140.4570 C   0  0  0  0  0  3  0  0  0  0  0  0
  190.9000  176.4390  138.8100 C   0  0  0  0  0  0  0  0  0  0  0  0
  1  6  1  0  0  0  0
  2  3  1  0  0  0  0
  2  4  1  0  0  0  0
  5  8  1  0  0  0  0
  6  5  2  0  0  0  0
  6  7  1  0  0  0  0
  7  2  2  0  0  0  0
  8  3  2  0  0  0  0
  9 10  2  0  0  0  0
 10  7  1  0  0  0  0
 11 13  1  0  0  0  0
 12 10  1  0  0  0  0
 12 11  2  0  0  0  0
 13 14  3  0  0  0  0
 15 20  1  6  0  0  0
 15 18  1  0  0  0  0
 15  1  1  0  0  0  0
 18 16  2  0  0  0  0
 19 17  1  0  0  0  0
 19 18  1  0  0  0  0
 21 20  2  0  0  0  0
 22 27  1  0  0  0  0
 23 27  1  0  0  0  0
 23 25  1  0  0  0  0
 24 26  1  0  0  0  0
 25 20  1  0  0  0  0
 25 26  2  0  0  0  0
 27 24  2  0  0  0  0
M  END
>  <MODEL>
5

>  <REMARK>
 VINA RESULT:      -7.1      3.360      7.013
  Name = 
  8 active torsions:
  status: ('A' for Active; 'I' for Inactive)
    1  A    between atoms: C_2  and  N_6
    2  A    between atoms: C_2  and  C_8
    3  A    between atoms: C_2  and  C_22
    4  A    between atoms: N_6  and  C_19
    5  A    between atoms: C_8  and  C_13
    6  A    between atoms: C_10  and  N_16
    7  A    between atoms: C_20  and  C_27
    8  A    between atoms: N_24  and  C_27
                            x       y       z     vdW  Elec       q    Type
                         _______ _______ _______ _____ _____    ______ ____

>  <TORSDO>
F 8

$$$$
=
 OpenBabel11032419483D

 27 28  0  0  1  0  0  0  0  0999 V2000
  187.7440  177.3110  141.8090 N   0  0  0  0  0  2  0  0  0  0  0  0
  184.9850  178.6840  143.9550 C   0  0  0  0  0  0  0  0  0  0  0  0
  185.5140  178.4550  145.2270 C   0  0  0  0  0  3  0  0  0  0  0  0
  183.7720  179.2860  143.8620 F   0  0  0  0  0  0  0  0  0  0  0  0
  187.4990  177.5030  144.2440 C   0  0  0  0  0  3  0  0  0  0  0  0
  186.9910  177.7290  142.9560 C   0  0  0  0  0  0  0  0  0  0  0  0
  185.7160  178.3300  142.8000 C   0  0  0  0  0  0  0  0  0  0  0  0
  186.7670  177.8670  145.3730 C   0  0  0  0  0  3  0  0  0  0  0  0
  185.2830  179.7530  140.9110 N   0  0  0  0  0  2  0  0  0  0  0  0
  185.1440  178.5850  141.4530 C   0  0  0  0  0  0  0  0  0  0  0  0
  183.0800  177.5210  140.7100 N   0  0  0  0  0  0  0  0  0  0  0  0
  184.3550  177.5610  140.8150 N   0  0  0  0  0  0  0  0  0  0  0  0
  182.2010  178.5060  141.1870 C   0  0  0  0  0  0  0  0  0  0  0  0
  181.4470  179.3500  141.6060 C   0  0  0  0  0  3  0  0  0  0  0  0
  188.8200  178.0950  141.2140 C   0  0  2  0  0  3  0  0  0  0  0  0
  189.0560  179.3330  139.1770 O   0  0  0  0  0  0  0  0  0  0  0  0
  187.4800  177.5570  137.6190 C   0  0  0  0  0  1  0  0  0  0  0  0
  188.5720  178.3220  139.7560 C   0  0  0  0  0  0  0  0  0  0  0  0
  187.7640  177.3930  139.0340 N   0  0  0  0  0  2  0  0  0  0  0  0
  190.1380  177.4200  141.4290 C   0  0  0  0  0  0  0  0  0  0  0  0
  190.7780  176.9610  140.4440 O   0  0  0  0  0  0  0  0  0  0  0  0
  192.0560  176.0000  146.2030 C   0  0  0  0  0  1  0  0  0  0  0  0
  190.9670  175.8720  143.6220 S   0  0  0  0  0  0  0  0  0  0  0  0
  191.5860  178.0100  144.7970 N   0  0  0  0  0  0  0  0  0  0  0  0
  190.7000  177.3080  142.7820 C   0  0  0  0  0  0  0  0  0  0  0  0
  191.0980  178.3750  143.5810 C   0  0  0  0  0  3  0  0  0  0  0  0
  191.5780  176.6710  144.9670 C   0  0  0  0  0  0  0  0  0  0  0  0
  1  6  1  0  0  0  0
  2  3  1  0  0  0  0
  3  8  2  0  0  0  0
  4  2  1  0  0  0  0
  5  8  1  0  0  0  0
  6  5  2  0  0  0  0
  7  6  1  0  0  0  0
  7  2  2  0  0  0  0
  9 10  2  0  0  0  0
 10  7  1  0  0  0  0
 11 12  2  0  0  0  0
 11 13  1  0  0  0  0
 12 10  1  0  0  0  0
 13 14  3  0  0  0  0
 15 18  1  6  0  0  0
 15 20  1  0  0  0  0
 15  1  1  0  0  0  0
 16 18  2  0  0  0  0
 17 19  1  0  0  0  0
 19 18  1  0  0  0  0
 20 25  1  0  0  0  0
 21 20  2  0  0  0  0
 23 27  1  0  0  0  0
 24 27  2  0  0  0  0
 25 26  2  0  0  0  0
 25 23  1  0  0  0  0
 26 24  1  0  0  0  0
 27 22  1  0  0  0  0
M  END
>  <MODEL>
6

>  <REMARK>
 VINA RESULT:      -7.1      2.228      2.835
  Name = 
  8 active torsions:
  status: ('A' for Active; 'I' for Inactive)
    1  A    between atoms: C_2  and  N_6
    2  A    between atoms: C_2  and  C_8
    3  A    between atoms: C_2  and  C_22
    4  A    between atoms: N_6  and  C_19
    5  A    between atoms: C_8  and  C_13
    6  A    between atoms: C_10  and  N_16
    7  A    between atoms: C_20  and  C_27
    8  A    between atoms: N_24  and  C_27
                            x       y       z     vdW  Elec       q    Type
                         _______ _______ _______ _____ _____    ______ ____

>  <TORSDO>
F 8

$$$$
=
 OpenBabel11032419483D

 27 28  0  0  1  0  0  0  0  0999 V2000
  189.5160  176.8170  140.4600 N   0  0  0  0  0  2  0  0  0  0  0  0
  189.6520  177.3810  136.7500 C   0  0  0  0  0  0  0  0  0  0  0  0
  188.5470  178.2180  136.5790 C   0  0  0  0  0  3  0  0  0  0  0  0
  190.3900  177.0600  135.6570 F   0  0  0  0  0  0  0  0  0  0  0  0
  188.1070  178.1430  138.9490 C   0  0  0  0  0  3  0  0  0  0  0  0
  189.2160  177.3060  139.1450 C   0  0  0  0  0  0  0  0  0  0  0  0
  190.0070  176.9160  138.0350 C   0  0  0  0  0  0  0  0  0  0  0  0
  187.7760  178.5990  137.6740 C   0  0  0  0  0  3  0  0  0  0  0  0
  191.0610  174.7550  138.0340 N   0  0  0  0  0  2  0  0  0  0  0  0
  191.1890  176.0320  138.2030 C   0  0  0  0  0  0  0  0  0  0  0  0
  193.5120  176.7350  137.9720 N   0  0  0  0  0  0  0  0  0  0  0  0
  192.4370  176.5990  138.6520 N   0  0  0  0  0  0  0  0  0  0  0  0
  193.6650  176.3720  136.6240 C   0  0  0  0  0  0  0  0  0  0  0  0
  193.8060  176.0580  135.4680 C   0  0  0  0  0  3  0  0  0  0  0  0
  189.2960  177.5820  141.6820 C   0  0  2  0  0  3  0  0  0  0  0  0
  191.6810  177.4870  141.8660 O   0  0  0  0  0  0  0  0  0  0  0  0
  191.8030  178.9210  144.3140 C   0  0  0  0  0  1  0  0  0  0  0  0
  190.5930  177.8820  142.3650 C   0  0  0  0  0  0  0  0  0  0  0  0
  190.5810  178.6020  143.5980 N   0  0  0  0  0  2  0  0  0  0  0  0
  188.3700  176.8450  142.5990 C   0  0  0  0  0  0  0  0  0  0  0  0
  188.6260  175.6540  142.9260 O   0  0  0  0  0  0  0  0  0  0  0  0
  184.3520  178.8830  145.4600 C   0  0  0  0  0  1  0  0  0  0  0  0
  186.6960  177.5160  144.7520 S   0  0  0  0  0  0  0  0  0  0  0  0
  185.2320  178.7580  143.1250 N   0  0  0  0  0  0  0  0  0  0  0  0
  187.1760  177.5110  143.1380 C   0  0  0  0  0  0  0  0  0  0  0  0
  186.2550  178.2410  142.3930 C   0  0  0  0  0  3  0  0  0  0  0  0
  185.3350  178.4470  144.4350 C   0  0  0  0  0  0  0  0  0  0  0  0
  2  7  1  0  0  0  0
  3  2  2  0  0  0  0
  3  8  1  0  0  0  0
  4  2  1  0  0  0  0
  5  6  1  0  0  0  0
  6  1  1  0  0  0  0
  7 10  1  0  0  0  0
  7  6  2  0  0  0  0
  8  5  2  0  0  0  0
  9 10  2  0  0  0  0
 10 12  1  0  0  0  0
 11 12  2  0  0  0  0
 13 11  1  0  0  0  0
 14 13  3  0  0  0  0
 15  1  1  6  0  0  0
 15 18  1  0  0  0  0
 15 20  1  0  0  0  0
 16 18  2  0  0  0  0
 18 19  1  0  0  0  0
 19 17  1  0  0  0  0
 20 21  2  0  0  0  0
 20 25  1  0  0  0  0
 24 27  2  0  0  0  0
 25 23  1  0  0  0  0
 26 24  1  0  0  0  0
 26 25  2  0  0  0  0
 27 23  1  0  0  0  0
 27 22  1  0  0  0  0
M  END
>  <MODEL>
7

>  <REMARK>
 VINA RESULT:      -6.9      3.677      6.992
  Name = 
  8 active torsions:
  status: ('A' for Active; 'I' for Inactive)
    1  A    between atoms: C_2  and  N_6
    2  A    between atoms: C_2  and  C_8
    3  A    between atoms: C_2  and  C_22
    4  A    between atoms: N_6  and  C_19
    5  A    between atoms: C_8  and  C_13
    6  A    between atoms: C_10  and  N_16
    7  A    between atoms: C_20  and  C_27
    8  A    between atoms: N_24  and  C_27
                            x       y       z     vdW  Elec       q    Type
                         _______ _______ _______ _____ _____    ______ ____

>  <TORSDO>
F 8

$$$$
=
 OpenBabel11032419483D

 27 28  0  0  1  0  0  0  0  0999 V2000
  184.8000  178.1510  141.5100 N   0  0  0  0  0  2  0  0  0  0  0  0
  186.3460  178.2660  144.9300 C   0  0  0  0  0  0  0  0  0  0  0  0
  185.2360  178.6180  145.7000 C   0  0  0  0  0  3  0  0  0  0  0  0
  187.5310  178.0690  145.5620 F   0  0  0  0  0  0  0  0  0  0  0  0
  183.8550  178.6370  143.7230 C   0  0  0  0  0  3  0  0  0  0  0  0
  184.9560  178.2780  142.9300 C   0  0  0  0  0  0  0  0  0  0  0  0
  186.2240  178.0860  143.5350 C   0  0  0  0  0  0  0  0  0  0  0  0
  183.9930  178.8030  145.1000 C   0  0  0  0  0  3  0  0  0  0  0  0
  187.8870  178.5370  141.8580 N   0  0  0  0  0  2  0  0  0  0  0  0
  187.4120  177.7050  142.7290 C   0  0  0  0  0  0  0  0  0  0  0  0
  189.0870  176.0470  143.3540 N   0  0  0  0  0  0  0  0  0  0  0  0
  187.9540  176.3750  142.8550 N   0  0  0  0  0  0  0  0  0  0  0  0
  190.0160  176.9440  143.9050 C   0  0  0  0  0  0  0  0  0  0  0  0
  190.8200  177.7140  144.3710 C   0  0  0  0  0  3  0  0  0  0  0  0
  183.7820  178.8550  140.7370 C   0  0  2  0  0  3  0  0  0  0  0  0
  182.7020  176.7360  140.4600 O   0  0  0  0  0  0  0  0  0  0  0  0
  180.0950  177.8200  140.1530 C   0  0  0  0  0  1  0  0  0  0  0  0
  182.5800  177.9900  140.5230 C   0  0  0  0  0  0  0  0  0  0  0  0
  181.3000  178.6020  140.3690 N   0  0  0  0  0  2  0  0  0  0  0  0
  184.3460  179.3150  139.4300 C   0  0  0  0  0  0  0  0  0  0  0  0
  184.1830  180.5100  139.0600 O   0  0  0  0  0  0  0  0  0  0  0  0
  186.1900  175.6570  136.0080 C   0  0  0  0  0  1  0  0  0  0  0  0
  184.4540  177.3060  137.4700 S   0  0  0  0  0  0  0  0  0  0  0  0
  186.9610  177.3220  137.7040 N   0  0  0  0  0  0  0  0  0  0  0  0
  185.1090  178.3860  138.5840 C   0  0  0  0  0  0  0  0  0  0  0  0
  186.4940  178.2550  138.5760 C   0  0  0  0  0  3  0  0  0  0  0  0
  185.9630  176.7170  137.0240 C   0  0  0  0  0  0  0  0  0  0  0  0
  1  6  1  0  0  0  0
  2  4  1  0  0  0  0
  2  3  1  0  0  0  0
  5  8  1  0  0  0  0
  6  7  1  0  0  0  0
  6  5  2  0  0  0  0
  7  2  2  0  0  0  0
  8  3  2  0  0  0  0
  9 10  2  0  0  0  0
 10 12  1  0  0  0  0
 10  7  1  0  0  0  0
 11 13  1  0  0  0  0
 12 11  2  0  0  0  0
 13 14  3  0  0  0  0
 15 20  1  6  0  0  0
 15  1  1  0  0  0  0
 16 18  2  0  0  0  0
 17 19  1  0  0  0  0
 18 15  1  0  0  0  0
 19 18  1  0  0  0  0
 21 20  2  0  0  0  0
 22 27  1  0  0  0  0
 23 25  1  0  0  0  0
 24 26  1  0  0  0  0
 25 20  1  0  0  0  0
 26 25  2  0  0  0  0
 27 23  1  0  0  0  0
 27 24  2  0  0  0  0
M  END
>  <MODEL>
8

>  <REMARK>
 VINA RESULT:      -6.8      3.560      7.082
  Name = 
  8 active torsions:
  status: ('A' for Active; 'I' for Inactive)
    1  A    between atoms: C_2  and  N_6
    2  A    between atoms: C_2  and  C_8
    3  A    between atoms: C_2  and  C_22
    4  A    between atoms: N_6  and  C_19
    5  A    between atoms: C_8  and  C_13
    6  A    between atoms: C_10  and  N_16
    7  A    between atoms: C_20  and  C_27
    8  A    between atoms: N_24  and  C_27
                            x       y       z     vdW  Elec       q    Type
                         _______ _______ _______ _____ _____    ______ ____

>  <TORSDO>
F 8

$$$$
=
 OpenBabel11032419483D

 27 28  0  0  1  0  0  0  0  0999 V2000
  186.1370  178.0010  142.6620 N   0  0  0  0  0  2  0  0  0  0  0  0
  187.5960  177.7830  146.1150 C   0  0  0  0  0  0  0  0  0  0  0  0
  186.4910  178.1530  146.8830 C   0  0  0  0  0  3  0  0  0  0  0  0
  188.7490  177.4650  146.7580 F   0  0  0  0  0  0  0  0  0  0  0  0
  185.1670  178.3970  144.8820 C   0  0  0  0  0  3  0  0  0  0  0  0
  186.2630  178.0210  144.0910 C   0  0  0  0  0  0  0  0  0  0  0  0
  187.5000  177.7060  144.7080 C   0  0  0  0  0  0  0  0  0  0  0  0
  185.2790  178.4600  146.2700 C   0  0  0  0  0  3  0  0  0  0  0  0
  188.7650  176.0930  143.4510 N   0  0  0  0  0  2  0  0  0  0  0  0
  188.6820  177.3030  143.9040 C   0  0  0  0  0  0  0  0  0  0  0  0
  190.9210  178.1930  144.2800 N   0  0  0  0  0  0  0  0  0  0  0  0
  189.7670  178.2360  143.7280 N   0  0  0  0  0  0  0  0  0  0  0  0
  191.3560  177.1890  145.1600 C   0  0  0  0  0  0  0  0  0  0  0  0
  191.7360  176.3230  145.9100 C   0  0  0  0  0  3  0  0  0  0  0  0
  185.2750  178.9060  141.9090 C   0  0  2  0  0  3  0  0  0  0  0  0
  183.4990  177.4160  141.3090 O   0  0  0  0  0  0  0  0  0  0  0  0
  181.5000  178.8020  142.7750 C   0  0  0  0  0  1  0  0  0  0  0  0
  183.8520  178.4440  141.9480 C   0  0  0  0  0  0  0  0  0  0  0  0
  182.8970  179.1930  142.7000 N   0  0  0  0  0  2  0  0  0  0  0  0
  185.7550  179.0280  140.4970 C   0  0  0  0  0  0  0  0  0  0  0  0
  185.0600  179.6520  139.6480 O   0  0  0  0  0  0  0  0  0  0  0  0
  189.9030  176.5250  138.2580 C   0  0  0  0  0  1  0  0  0  0  0  0
  187.3150  177.4930  138.7360 S   0  0  0  0  0  0  0  0  0  0  0  0
  189.2970  177.9490  140.2190 N   0  0  0  0  0  0  0  0  0  0  0  0
  187.0440  178.4450  140.0990 C   0  0  0  0  0  0  0  0  0  0  0  0
  188.2420  178.5890  140.7920 C   0  0  0  0  0  3  0  0  0  0  0  0
  188.9460  177.3050  139.0860 C   0  0  0  0  0  0  0  0  0  0  0  0
  1  6  1  0  0  0  0
  2  4  1  0  0  0  0
  2  3  1  0  0  0  0
  5  8  1  0  0  0  0
  6  7  1  0  0  0  0
  6  5  2  0  0  0  0
  7  2  2  0  0  0  0
  8  3  2  0  0  0  0
  9 10  2  0  0  0  0
 10  7  1  0  0  0  0
 11 13  1  0  0  0  0
 12 10  1  0  0  0  0
 12 11  2  0  0  0  0
 13 14  3  0  0  0  0
 15 20  1  6  0  0  0
 15 18  1  0  0  0  0
 15  1  1  0  0  0  0
 16 18  2  0  0  0  0
 18 19  1  0  0  0  0
 19 17  1  0  0  0  0
 21 20  2  0  0  0  0
 22 27  1  0  0  0  0
 23 27  1  0  0  0  0
 23 25  1  0  0  0  0
 24 26  1  0  0  0  0
 25 20  1  0  0  0  0
 25 26  2  0  0  0  0
 27 24  2  0  0  0  0
M  END
>  <MODEL>
9

>  <REMARK>
 VINA RESULT:      -6.8      3.347      6.713
  Name = 
  8 active torsions:
  status: ('A' for Active; 'I' for Inactive)
    1  A    between atoms: C_2  and  N_6
    2  A    between atoms: C_2  and  C_8
    3  A    between atoms: C_2  and  C_22
    4  A    between atoms: N_6  and  C_19
    5  A    between atoms: C_8  and  C_13
    6  A    between atoms: C_10  and  N_16
    7  A    between atoms: C_20  and  C_27
    8  A    between atoms: N_24  and  C_27
                            x       y       z     vdW  Elec       q    Type
                         _______ _______ _______ _____ _____    ______ ____

>  <TORSDO>
F 8

$$$$
