=
 OpenBabel11042412473D

 59 67  0  0  1  0  0  0  0  0999 V2000
  191.0010  176.2110  143.8260 C   0  0  0  0  0  0  0  0  0  0  0  0
  188.6280  178.1180  146.5700 C   0  0  0  0  0  0  0  0  0  0  0  0
  186.7190  177.8470  143.4630 C   0  0  2  0  0  3  0  0  0  0  0  0
  188.1660  177.8910  145.2820 C   0  0  0  0  0  0  0  0  0  0  0  0
  190.8200  175.6600  142.4640 C   0  0  0  0  0  1  0  0  0  0  0  0
  184.4680  178.6340  145.6470 C   0  0  2  0  0  3  0  0  0  0  0  0
  190.8100  177.4150  145.7750 C   0  0  0  0  0  0  0  0  0  0  0  0
  185.9500  178.4800  145.9190 C   0  0  0  0  0  0  0  0  0  0  0  0
  183.7220  177.5250  146.3770 C   0  0  0  0  0  1  0  0  0  0  0  0
  184.9030  179.6670  143.3780 C   0  0  0  0  0  2  0  0  0  0  0  0
  187.7220  178.5140  147.5080 N   0  0  0  0  0  0  0  0  0  0  0  0
  188.8900  177.5420  144.2440 C   0  0  0  0  0  0  0  0  0  0  0  0
  186.2100  179.1130  142.7600 C   0  0  2  0  0  3  0  0  0  0  0  0
  186.4270  178.6880  147.1910 N   0  0  0  0  0  0  0  0  0  0  0  0
  184.0950  178.6220  144.1550 C   0  0  2  0  0  3  0  0  0  0  0  0
  190.3920  177.4870  144.3250 C   0  0  0  0  0  0  0  0  0  0  0  0
  191.6240  176.3810  145.9170 C   0  0  0  0  0  0  0  0  0  0  0  0
  186.8670  178.0640  144.9470 C   0  0  0  0  0  0  0  0  0  0  0  0
  188.0990  177.5390  143.0530 N   0  0  0  0  0  2  0  0  0  0  0  0
  191.7300  175.6230  144.7200 N   0  0  0  0  0  2  0  0  0  0  0  0
  192.0000  175.8490  147.1850 N   0  0  0  0  0  1  0  0  0  0  0  0
  189.9200  177.8970  146.8700 C   0  0  0  0  0  3  0  0  0  0  0  0
  182.6840  178.8690  143.9950 N   0  0  0  0  0  0  0  0  0  0  0  0
  182.1920  179.0750  142.8270 C   0  0  0  0  0  3  0  0  0  0  0  0
  180.7310  179.3140  142.6560 C   0  0  0  0  0  2  0  0  0  0  0  0
  180.4700  179.7890  141.3460 O   0  0  0  0  0  0  0  0  0  0  0  0
  180.5900  177.7660  140.2360 N   0  0  0  0  0  0  0  0  0  0  0  0
  181.4260  181.1510  138.6690 C   0  0  0  0  0  2  0  0  0  0  0  0
  181.5880  175.1960  137.0230 C   0  0  0  0  0  3  0  0  0  0  0  0
  180.0460  180.6350  138.2870 C   0  0  0  0  0  2  0  0  0  0  0  0
  181.0250  174.6730  138.1950 C   0  0  0  0  0  3  0  0  0  0  0  0
  181.4040  177.4300  137.9420 C   0  0  0  0  0  0  0  0  0  0  0  0
  180.6820  175.5190  139.2520 C   0  0  0  0  0  3  0  0  0  0  0  0
  180.8740  176.8990  139.1290 C   0  0  0  0  0  0  0  0  0  0  0  0
  180.6990  179.0590  140.1720 C   0  0  0  0  0  0  0  0  0  0  0  0
  181.0850  179.6870  138.8350 C   0  0  0  0  0  0  0  0  0  0  0  0
  181.7770  176.5780  136.8960 C   0  0  0  0  0  3  0  0  0  0  0  0
  181.5760  178.8100  137.8240 O   0  0  0  0  0  0  0  0  0  0  0  0
  186.0590  178.8220  141.3820 O   0  0  0  0  0  0  0  0  0  0  0  0
  184.5860  179.9150  139.9160 O   0  0  0  0  0  0  0  0  0  0  0  0
  184.5050  178.5480  139.5730 C   0  0  2  0  0  3  0  0  0  0  0  0
  184.7120  178.9940  140.9810 C   0  0  1  0  0  3  0  0  0  0  0  0
  185.6930  178.1670  138.9330 O   0  0  0  0  0  0  0  0  0  0  0  0
  185.2660  177.5070  137.7820 C   0  0  0  0  0  2  0  0  0  0  0  0
  186.2770  177.6970  136.6660 C   0  0  0  0  0  2  0  0  0  0  0  0
  186.9340  176.3630  136.3070 C   0  0  2  0  0  3  0  0  0  0  0  0
  184.8290  175.5060  135.1600 C   0  0  0  0  0  1  0  0  0  0  0  0
  185.9540  175.1920  136.1380 C   0  0  2  0  0  3  0  0  0  0  0  0
  185.5130  174.6340  137.3770 O   0  0  0  0  0  0  0  0  0  0  0  0
  184.3580  172.5720  137.2410 C   0  0  0  0  0  2  0  0  0  0  0  0
  185.4450  173.2550  137.5800 C   0  0  0  0  0  3  0  0  0  0  0  0
  188.1000  175.9970  137.2410 C   0  0  2  0  0  3  0  0  0  0  0  0
  188.9460  177.0120  139.4070 C   0  0  0  0  0  1  0  0  0  0  0  0
  188.8200  177.2000  137.9020 C   0  0  0  0  0  3  0  0  0  0  0  0
  190.1750  177.5130  137.2860 C   0  0  0  0  0  1  0  0  0  0  0  0
  188.9910  174.9380  136.6460 C   0  0  0  0  0  0  0  0  0  0  0  0
  189.0260  174.8040  135.3910 O   0  0  0  0  0  0  0  0  0  0  0  0
  189.7940  174.1360  137.4580 O   0  0  0  0  0  0  0  0  0  0  0  0
  191.0920  173.7270  137.0470 C   0  0  0  0  0  1  0  0  0  0  0  0
  1 16  2  0  0  0  0
  1 20  1  0  0  0  0
  2 22  2  0  0  0  0
  2 11  1  0  0  0  0
  3 19  1  6  0  0  0
  3 18  1  0  0  0  0
  4  2  1  0  0  0  0
  5  1  1  0  0  0  0
  6  8  1  0  0  0  0
  6  9  1  1  0  0  0
  7 17  2  0  0  0  0
  7 22  1  0  0  0  0
  8 14  1  0  0  0  0
 10 15  1  0  0  0  0
 12 16  1  0  0  0  0
 12  4  2  0  0  0  0
 13 39  1  6  0  0  0
 13 10  1  0  0  0  0
 13  3  1  0  0  0  0
 14 11  2  0  0  0  0
 15 23  1  1  0  0  0
 15  6  1  0  0  0  0
 16  7  1  0  0  0  0
 17 21  1  0  0  0  0
 18  4  1  0  0  0  0
 18  8  2  0  0  0  0
 19 12  1  0  0  0  0
 20 17  1  0  0  0  0
 24 23  2  0  0  0  0
 25 24  1  0  0  0  0
 26 25  1  0  0  0  0
 28 36  1  0  0  0  0
 29 31  1  0  0  0  0
 30 28  1  0  0  0  0
 30 36  1  0  0  0  0
 31 33  2  0  0  0  0
 32 34  2  0  0  0  0
 34 33  1  0  0  0  0
 34 27  1  0  0  0  0
 35 27  2  0  0  0  0
 35 26  1  0  0  0  0
 36 35  1  0  0  0  0
 37 29  2  0  0  0  0
 37 32  1  0  0  0  0
 38 32  1  0  0  0  0
 38 36  1  0  0  0  0
 40 42  1  0  0  0  0
 41 43  1  6  0  0  0
 41 40  1  0  0  0  0
 41 42  1  0  0  0  0
 42 39  1  6  0  0  0
 44 43  1  0  0  0  0
 45 44  1  0  0  0  0
 46 45  1  1  0  0  0
 46 52  1  0  0  0  0
 48 47  1  1  0  0  0
 48 46  1  0  0  0  0
 48 49  1  0  0  0  0
 49 51  1  0  0  0  0
 50 51  2  0  0  0  0
 52 56  1  6  0  0  0
 52 54  1  0  0  0  0
 54 53  1  0  0  0  0
 55 54  1  0  0  0  0
 56 58  1  0  0  0  0
 57 56  2  0  0  0  0
 59 58  1  0  0  0  0
M  END
>  <MODEL>
1

>  <REMARK>
 VINA RESULT:      -7.5      0.000      0.000
  Name = 
  17 active torsions:
  status: ('A' for Active; 'I' for Inactive)
    1  A    between atoms: O_3  and  C_44
    2  A    between atoms: C_4  and  O_26
    3  A    between atoms: C_4  and  C_35
    4  A    between atoms: O_7  and  C_13
    5  A    between atoms: O_7  and  C_57
    6  A    between atoms: C_13  and  C_27
    7  A    between atoms: C_14  and  C_27
    8  A    between atoms: C_14  and  C_44
    9  A    between atoms: C_14  and  C_53
   10  A    between atoms: C_16  and  O_26
   11  A    between atoms: C_18  and  O_50
   12  A    between atoms: C_27  and  C_35
   13  A    between atoms: O_31  and  C_38
   14  A    between atoms: O_31  and  C_51
   15  A    between atoms: C_36  and  O_50
   16  A    between atoms: N_42  and  C_43
   17  A    between atoms: C_51  and  C_54
                            x       y       z     vdW  Elec       q    Type
                         _______ _______ _______ _____ _____    ______ ____

>  <TORSDO>
F 17

$$$$
=
 OpenBabel11042412473D

 59 67  0  0  1  0  0  0  0  0999 V2000
  190.8960  176.2170  143.4860 C   0  0  0  0  0  0  0  0  0  0  0  0
  188.7310  178.1290  146.3930 C   0  0  0  0  0  0  0  0  0  0  0  0
  186.5890  177.8260  143.4450 C   0  0  2  0  0  3  0  0  0  0  0  0
  188.1720  177.8910  145.1450 C   0  0  0  0  0  0  0  0  0  0  0  0
  190.6140  175.6550  142.1450 C   0  0  0  0  0  1  0  0  0  0  0  0
  184.5090  178.6150  145.7900 C   0  0  2  0  0  3  0  0  0  0  0  0
  190.8490  177.4330  145.4360 C   0  0  0  0  0  0  0  0  0  0  0  0
  186.0080  178.4710  145.9480 C   0  0  0  0  0  0  0  0  0  0  0  0
  183.8280  177.5060  146.5840 C   0  0  0  0  0  1  0  0  0  0  0  0
  184.7600  179.6340  143.4880 C   0  0  0  0  0  2  0  0  0  0  0  0
  187.8970  178.5260  147.3950 N   0  0  0  0  0  0  0  0  0  0  0  0
  188.8150  177.5380  144.0570 C   0  0  0  0  0  0  0  0  0  0  0  0
  186.0180  179.0830  142.7750 C   0  0  2  0  0  3  0  0  0  0  0  0
  186.5810  178.6910  147.1790 N   0  0  0  0  0  0  0  0  0  0  0  0
  184.0210  178.5900  144.3320 C   0  0  2  0  0  3  0  0  0  0  0  0
  190.3190  177.4930  144.0220 C   0  0  0  0  0  0  0  0  0  0  0  0
  191.6780  176.4050  145.5210 C   0  0  0  0  0  0  0  0  0  0  0  0
  186.8490  178.0540  144.9110 C   0  0  0  0  0  0  0  0  0  0  0  0
  187.9340  177.5220  142.9310 N   0  0  0  0  0  2  0  0  0  0  0  0
  191.6960  175.6390  144.3240 N   0  0  0  0  0  2  0  0  0  0  0  0
  192.1540  175.8840  146.7590 N   0  0  0  0  0  1  0  0  0  0  0  0
  190.0430  177.9180  146.5930 C   0  0  0  0  0  3  0  0  0  0  0  0
  182.6000  178.8280  144.2800 N   0  0  0  0  0  0  0  0  0  0  0  0
  181.9660  178.7180  143.1690 C   0  0  0  0  0  3  0  0  0  0  0  0
  180.4950  178.9460  143.1150 C   0  0  0  0  0  2  0  0  0  0  0  0
  179.9390  178.2470  142.0130 O   0  0  0  0  0  0  0  0  0  0  0  0
  180.3800  179.8010  140.3610 N   0  0  0  0  0  0  0  0  0  0  0  0
  179.8240  176.0710  139.7370 C   0  0  0  0  0  2  0  0  0  0  0  0
  180.7540  181.1710  136.3730 C   0  0  0  0  0  3  0  0  0  0  0  0
  181.2920  176.4720  139.7170 C   0  0  0  0  0  2  0  0  0  0  0  0
  180.9330  182.0590  137.4420 C   0  0  0  0  0  3  0  0  0  0  0  0
  180.4190  179.3580  137.9440 C   0  0  0  0  0  0  0  0  0  0  0  0
  180.8240  181.6070  138.7590 C   0  0  0  0  0  3  0  0  0  0  0  0
  180.5630  180.2570  139.0130 C   0  0  0  0  0  0  0  0  0  0  0  0
  180.1840  178.5540  140.6680 C   0  0  0  0  0  0  0  0  0  0  0  0
  180.2170  177.5190  139.5470 C   0  0  0  0  0  0  0  0  0  0  0  0
  180.4970  179.8170  136.6240 C   0  0  0  0  0  3  0  0  0  0  0  0
  180.1750  178.0100  138.2090 O   0  0  0  0  0  0  0  0  0  0  0  0
  185.7630  178.7820  141.4140 O   0  0  0  0  0  0  0  0  0  0  0  0
  184.6520  180.0170  139.7560 O   0  0  0  0  0  0  0  0  0  0  0  0
  184.0550  178.7380  139.7290 C   0  0  2  0  0  3  0  0  0  0  0  0
  184.5370  179.3540  140.9980 C   0  0  1  0  0  3  0  0  0  0  0  0
  184.9630  177.8220  139.1790 O   0  0  0  0  0  0  0  0  0  0  0  0
  184.9170  178.0760  137.8080 C   0  0  0  0  0  2  0  0  0  0  0  0
  184.4640  176.8330  137.0630 C   0  0  0  0  0  2  0  0  0  0  0  0
  185.5360  175.7450  137.1390 C   0  0  2  0  0  3  0  0  0  0  0  0
  187.3030  175.9030  135.3120 C   0  0  0  0  0  1  0  0  0  0  0  0
  186.9510  176.2140  136.7620 C   0  0  2  0  0  3  0  0  0  0  0  0
  187.9510  175.8220  137.7030 O   0  0  0  0  0  0  0  0  0  0  0  0
  188.5430  178.0570  138.2100 C   0  0  0  0  0  2  0  0  0  0  0  0
  188.6540  176.7590  138.4620 C   0  0  0  0  0  3  0  0  0  0  0  0
  185.1460  174.4610  136.3890 C   0  0  2  0  0  3  0  0  0  0  0  0
  183.5050  173.5320  134.6910 C   0  0  0  0  0  1  0  0  0  0  0  0
  183.6630  174.3820  135.9430 C   0  0  0  0  0  3  0  0  0  0  0  0
  182.7230  173.9010  137.0380 C   0  0  0  0  0  1  0  0  0  0  0  0
  185.7060  173.2280  137.0470 C   0  0  0  0  0  0  0  0  0  0  0  0
  185.4100  172.9890  138.2500 O   0  0  0  0  0  0  0  0  0  0  0  0
  186.5140  172.3390  136.3360 O   0  0  0  0  0  0  0  0  0  0  0  0
  187.9130  172.2530  136.5740 C   0  0  0  0  0  1  0  0  0  0  0  0
  1 16  2  0  0  0  0
  1 20  1  0  0  0  0
  2 22  2  0  0  0  0
  2 11  1  0  0  0  0
  3 19  1  6  0  0  0
  3 18  1  0  0  0  0
  4  2  1  0  0  0  0
  5  1  1  0  0  0  0
  6  8  1  0  0  0  0
  6  9  1  1  0  0  0
  7 17  2  0  0  0  0
  7 22  1  0  0  0  0
  8 14  1  0  0  0  0
 10 15  1  0  0  0  0
 12  4  2  0  0  0  0
 13 39  1  6  0  0  0
 13  3  1  0  0  0  0
 13 10  1  0  0  0  0
 14 11  2  0  0  0  0
 15 23  1  1  0  0  0
 15  6  1  0  0  0  0
 16 12  1  0  0  0  0
 16  7  1  0  0  0  0
 17 21  1  0  0  0  0
 18  4  1  0  0  0  0
 18  8  2  0  0  0  0
 19 12  1  0  0  0  0
 20 17  1  0  0  0  0
 24 23  2  0  0  0  0
 25 24  1  0  0  0  0
 26 25  1  0  0  0  0
 27 35  2  0  0  0  0
 29 37  2  0  0  0  0
 29 31  1  0  0  0  0
 30 28  1  0  0  0  0
 31 33  2  0  0  0  0
 32 38  1  0  0  0  0
 32 34  2  0  0  0  0
 33 34  1  0  0  0  0
 34 27  1  0  0  0  0
 35 26  1  0  0  0  0
 36 30  1  0  0  0  0
 36 28  1  0  0  0  0
 36 35  1  0  0  0  0
 37 32  1  0  0  0  0
 38 36  1  0  0  0  0
 40 42  1  0  0  0  0
 41 43  1  6  0  0  0
 41 40  1  0  0  0  0
 41 42  1  0  0  0  0
 42 39  1  6  0  0  0
 44 43  1  0  0  0  0
 45 44  1  0  0  0  0
 46 45  1  6  0  0  0
 48 47  1  6  0  0  0
 48 46  1  0  0  0  0
 48 49  1  0  0  0  0
 49 51  1  0  0  0  0
 50 51  2  0  0  0  0
 52 54  1  1  0  0  0
 52 56  1  0  0  0  0
 52 46  1  0  0  0  0
 53 54  1  0  0  0  0
 54 55  1  0  0  0  0
 56 57  2  0  0  0  0
 58 59  1  0  0  0  0
 58 56  1  0  0  0  0
M  END
>  <MODEL>
2

>  <REMARK>
 VINA RESULT:      -7.4      1.234      3.117
  Name = 
  17 active torsions:
  status: ('A' for Active; 'I' for Inactive)
    1  A    between atoms: O_3  and  C_44
    2  A    between atoms: C_4  and  O_26
    3  A    between atoms: C_4  and  C_35
    4  A    between atoms: O_7  and  C_13
    5  A    between atoms: O_7  and  C_57
    6  A    between atoms: C_13  and  C_27
    7  A    between atoms: C_14  and  C_27
    8  A    between atoms: C_14  and  C_44
    9  A    between atoms: C_14  and  C_53
   10  A    between atoms: C_16  and  O_26
   11  A    between atoms: C_18  and  O_50
   12  A    between atoms: C_27  and  C_35
   13  A    between atoms: O_31  and  C_38
   14  A    between atoms: O_31  and  C_51
   15  A    between atoms: C_36  and  O_50
   16  A    between atoms: N_42  and  C_43
   17  A    between atoms: C_51  and  C_54
                            x       y       z     vdW  Elec       q    Type
                         _______ _______ _______ _____ _____    ______ ____

>  <TORSDO>
F 17

$$$$
=
 OpenBabel11042412473D

 59 67  0  0  1  0  0  0  0  0999 V2000
  191.0580  176.2800  143.8680 C   0  0  0  0  0  0  0  0  0  0  0  0
  188.7070  177.9750  146.7650 C   0  0  0  0  0  0  0  0  0  0  0  0
  186.7860  177.9670  143.6530 C   0  0  2  0  0  3  0  0  0  0  0  0
  188.2390  177.8560  145.4640 C   0  0  0  0  0  0  0  0  0  0  0  0
  190.8690  175.8410  142.4670 C   0  0  0  0  0  1  0  0  0  0  0  0
  184.5480  178.5910  145.9010 C   0  0  2  0  0  3  0  0  0  0  0  0
  190.8820  177.3240  145.9080 C   0  0  0  0  0  0  0  0  0  0  0  0
  186.0290  178.4050  146.1540 C   0  0  0  0  0  0  0  0  0  0  0  0
  183.7960  177.4310  146.5420 C   0  0  0  0  0  1  0  0  0  0  0  0
  184.9820  179.7990  143.7210 C   0  0  0  0  0  2  0  0  0  0  0  0
  187.8060  178.3000  147.7350 N   0  0  0  0  0  0  0  0  0  0  0  0
  188.9570  177.5860  144.3980 C   0  0  0  0  0  0  0  0  0  0  0  0
  186.2830  179.2880  143.0560 C   0  0  2  0  0  3  0  0  0  0  0  0
  186.5110  178.5070  147.4380 N   0  0  0  0  0  0  0  0  0  0  0  0
  184.1700  178.7000  144.4150 C   0  0  2  0  0  3  0  0  0  0  0  0
  190.4590  177.5150  144.4700 C   0  0  0  0  0  0  0  0  0  0  0  0
  191.6890  176.2770  145.9630 C   0  0  0  0  0  0  0  0  0  0  0  0
  186.9400  178.0630  145.1490 C   0  0  0  0  0  0  0  0  0  0  0  0
  188.1620  177.6830  143.2140 N   0  0  0  0  0  2  0  0  0  0  0  0
  191.7860  175.6160  144.7090 N   0  0  0  0  0  2  0  0  0  0  0  0
  192.0650  175.6420  147.1830 N   0  0  0  0  0  1  0  0  0  0  0  0
  189.9970  177.7230  147.0410 C   0  0  0  0  0  3  0  0  0  0  0  0
  182.7590  178.9680  144.2800 N   0  0  0  0  0  0  0  0  0  0  0  0
  182.2350  179.1020  143.1150 C   0  0  0  0  0  3  0  0  0  0  0  0
  180.7740  179.3620  142.9720 C   0  0  0  0  0  2  0  0  0  0  0  0
  180.4570  179.5900  141.6090 O   0  0  0  0  0  0  0  0  0  0  0  0
  179.9790  177.4090  141.0130 N   0  0  0  0  0  0  0  0  0  0  0  0
  181.3530  180.0570  138.6230 C   0  0  0  0  0  2  0  0  0  0  0  0
  179.9640  174.0380  138.4530 C   0  0  0  0  0  3  0  0  0  0  0  0
  179.8560  179.8300  138.4730 C   0  0  0  0  0  2  0  0  0  0  0  0
  179.4480  173.9380  139.7530 C   0  0  0  0  0  3  0  0  0  0  0  0
  180.4040  176.3920  138.8170 C   0  0  0  0  0  0  0  0  0  0  0  0
  179.4390  175.0510  140.5960 C   0  0  0  0  0  3  0  0  0  0  0  0
  179.9200  176.2800  140.1310 C   0  0  0  0  0  0  0  0  0  0  0  0
  180.3680  178.5890  140.6330 C   0  0  0  0  0  0  0  0  0  0  0  0
  180.7150  178.7950  139.1610 C   0  0  0  0  0  0  0  0  0  0  0  0
  180.4420  175.2680  137.9850 C   0  0  0  0  0  3  0  0  0  0  0  0
  180.8660  177.6260  138.3590 O   0  0  0  0  0  0  0  0  0  0  0  0
  186.1260  179.1100  141.6590 O   0  0  0  0  0  0  0  0  0  0  0  0
  184.0200  179.4400  140.6740 O   0  0  0  0  0  0  0  0  0  0  0  0
  184.6410  178.4360  139.8980 C   0  0  2  0  0  3  0  0  0  0  0  0
  184.8620  178.5420  141.3680 C   0  0  1  0  0  3  0  0  0  0  0  0
  185.6700  179.0160  139.1410 O   0  0  0  0  0  0  0  0  0  0  0  0
  185.8530  178.1320  138.0780 C   0  0  0  0  0  2  0  0  0  0  0  0
  187.3090  178.1260  137.6500 C   0  0  0  0  0  2  0  0  0  0  0  0
  187.9620  176.7860  137.9960 C   0  0  2  0  0  3  0  0  0  0  0  0
  189.2470  177.9170  139.8820 C   0  0  0  0  0  1  0  0  0  0  0  0
  189.2980  176.9010  138.7470 C   0  0  2  0  0  3  0  0  0  0  0  0
  190.4260  177.0440  137.8840 O   0  0  0  0  0  0  0  0  0  0  0  0
  192.3620  175.7770  137.3830 C   0  0  0  0  0  2  0  0  0  0  0  0
  191.6840  176.5450  138.2270 C   0  0  0  0  0  3  0  0  0  0  0  0
  188.0690  175.8390  136.7900 C   0  0  2  0  0  3  0  0  0  0  0  0
  189.2790  176.2270  134.5940 C   0  0  0  0  0  1  0  0  0  0  0  0
  188.0270  176.5290  135.4020 C   0  0  0  0  0  3  0  0  0  0  0  0
  186.7780  176.2010  134.5970 C   0  0  0  0  0  1  0  0  0  0  0  0
  187.2010  174.6180  136.9500 C   0  0  0  0  0  0  0  0  0  0  0  0
  186.0260  174.7570  137.3890 O   0  0  0  0  0  0  0  0  0  0  0  0
  187.6680  173.3540  136.5880 O   0  0  0  0  0  0  0  0  0  0  0  0
  187.0740  172.6190  135.5250 C   0  0  0  0  0  1  0  0  0  0  0  0
  1 16  2  0  0  0  0
  1 20  1  0  0  0  0
  2 22  2  0  0  0  0
  2 11  1  0  0  0  0
  3 19  1  6  0  0  0
  3 18  1  0  0  0  0
  4  2  1  0  0  0  0
  5  1  1  0  0  0  0
  6  8  1  0  0  0  0
  6  9  1  6  0  0  0
  7 17  2  0  0  0  0
  7 22  1  0  0  0  0
  8 14  1  0  0  0  0
 10 15  1  0  0  0  0
 12 16  1  0  0  0  0
 12  4  2  0  0  0  0
 13 39  1  6  0  0  0
 13  3  1  0  0  0  0
 13 10  1  0  0  0  0
 14 11  2  0  0  0  0
 15 23  1  1  0  0  0
 15  6  1  0  0  0  0
 16  7  1  0  0  0  0
 17 21  1  0  0  0  0
 18  4  1  0  0  0  0
 18  8  2  0  0  0  0
 19 12  1  0  0  0  0
 20 17  1  0  0  0  0
 24 23  2  0  0  0  0
 25 24  1  0  0  0  0
 26 25  1  0  0  0  0
 28 36  1  0  0  0  0
 29 31  1  0  0  0  0
 30 28  1  0  0  0  0
 30 36  1  0  0  0  0
 31 33  2  0  0  0  0
 32 34  2  0  0  0  0
 34 33  1  0  0  0  0
 34 27  1  0  0  0  0
 35 27  2  0  0  0  0
 35 26  1  0  0  0  0
 36 35  1  0  0  0  0
 37 29  2  0  0  0  0
 37 32  1  0  0  0  0
 38 32  1  0  0  0  0
 38 36  1  0  0  0  0
 40 42  1  0  0  0  0
 41 43  1  6  0  0  0
 41 40  1  0  0  0  0
 41 42  1  0  0  0  0
 42 39  1  6  0  0  0
 44 43  1  0  0  0  0
 45 44  1  0  0  0  0
 46 45  1  6  0  0  0
 46 48  1  0  0  0  0
 48 47  1  1  0  0  0
 49 51  1  0  0  0  0
 49 48  1  0  0  0  0
 50 51  2  0  0  0  0
 52 54  1  6  0  0  0
 52 56  1  0  0  0  0
 52 46  1  0  0  0  0
 53 54  1  0  0  0  0
 55 54  1  0  0  0  0
 56 57  2  0  0  0  0
 58 56  1  0  0  0  0
 59 58  1  0  0  0  0
M  END
>  <MODEL>
3

>  <REMARK>
 VINA RESULT:      -7.4      1.121      2.471
  Name = 
  17 active torsions:
  status: ('A' for Active; 'I' for Inactive)
    1  A    between atoms: O_3  and  C_44
    2  A    between atoms: C_4  and  O_26
    3  A    between atoms: C_4  and  C_35
    4  A    between atoms: O_7  and  C_13
    5  A    between atoms: O_7  and  C_57
    6  A    between atoms: C_13  and  C_27
    7  A    between atoms: C_14  and  C_27
    8  A    between atoms: C_14  and  C_44
    9  A    between atoms: C_14  and  C_53
   10  A    between atoms: C_16  and  O_26
   11  A    between atoms: C_18  and  O_50
   12  A    between atoms: C_27  and  C_35
   13  A    between atoms: O_31  and  C_38
   14  A    between atoms: O_31  and  C_51
   15  A    between atoms: C_36  and  O_50
   16  A    between atoms: N_42  and  C_43
   17  A    between atoms: C_51  and  C_54
                            x       y       z     vdW  Elec       q    Type
                         _______ _______ _______ _____ _____    ______ ____

>  <TORSDO>
F 17

$$$$
=
 OpenBabel11042412473D

 59 67  0  0  1  0  0  0  0  0999 V2000
  191.9850  172.8090  135.2940 C   0  0  0  0  0  0  0  0  0  0  0  0
  193.4740  175.6750  137.8170 C   0  0  0  0  0  0  0  0  0  0  0  0
  189.8280  175.9480  137.8710 C   0  0  2  0  0  3  0  0  0  0  0  0
  192.1060  175.5550  137.6230 C   0  0  0  0  0  0  0  0  0  0  0  0
  190.6440  172.2770  134.9620 C   0  0  0  0  0  1  0  0  0  0  0  0
  190.7370  177.6980  140.4330 C   0  0  2  0  0  3  0  0  0  0  0  0
  193.7440  174.1260  135.9680 C   0  0  0  0  0  0  0  0  0  0  0  0
  191.6670  177.0000  139.4620 C   0  0  0  0  0  0  0  0  0  0  0  0
  190.8560  177.0180  141.7920 C   0  0  0  0  0  1  0  0  0  0  0  0
  189.1270  178.3180  138.5820 C   0  0  0  0  0  2  0  0  0  0  0  0
  193.9020  176.4560  138.8490 N   0  0  0  0  0  0  0  0  0  0  0  0
  191.5090  174.8800  136.6680 C   0  0  0  0  0  0  0  0  0  0  0  0
  189.1480  177.2590  137.4540 C   0  0  2  0  0  3  0  0  0  0  0  0
  193.0270  177.0960  139.6440 N   0  0  0  0  0  0  0  0  0  0  0  0
  189.2660  177.7260  139.9890 C   0  0  2  0  0  3  0  0  0  0  0  0
  192.2970  174.2530  135.5490 C   0  0  2  0  0  3  0  0  0  0  0  0
  194.1170  172.8710  135.7820 C   0  0  0  0  0  0  0  0  0  0  0  0
  191.2130  176.1940  138.4130 C   0  0  0  0  0  0  0  0  0  0  0  0
  190.0970  175.1000  136.6980 N   0  0  0  0  0  2  0  0  0  0  0  0
  193.0290  172.0480  135.3830 N   0  0  0  0  0  0  0  0  0  0  0  0
  195.3220  172.3250  136.3140 N   0  0  0  0  0  1  0  0  0  0  0  0
  194.3260  174.9930  137.0340 C   0  0  0  0  0  3  0  0  0  0  0  0
  188.4790  178.4890  140.9260 N   0  0  0  0  0  0  0  0  0  0  0  0
  187.2670  178.1500  141.1800 C   0  0  0  0  0  3  0  0  0  0  0  0
  186.4570  178.9260  142.1610 C   0  0  0  0  0  2  0  0  0  0  0  0
  186.1040  178.0980  143.2560 O   0  0  0  0  0  0  0  0  0  0  0  0
  188.1440  177.6410  144.2430 N   0  0  0  0  0  0  0  0  0  0  0  0
  184.8750  178.1520  146.1580 C   0  0  0  0  0  2  0  0  0  0  0  0
  190.7290  176.6470  147.4430 C   0  0  0  0  0  3  0  0  0  0  0  0
  185.7800  179.3760  146.1750 C   0  0  0  0  0  2  0  0  0  0  0  0
  191.2360  176.7790  146.1430 C   0  0  0  0  0  3  0  0  0  0  0  0
  188.5290  177.2640  146.6400 C   0  0  0  0  0  0  0  0  0  0  0  0
  190.3890  177.1200  145.0870 C   0  0  0  0  0  3  0  0  0  0  0  0
  189.0330  177.3600  145.3330 C   0  0  0  0  0  0  0  0  0  0  0  0
  186.8850  177.9210  144.4060 C   0  0  0  0  0  0  0  0  0  0  0  0
  186.3460  178.0180  145.8310 C   0  0  0  0  0  0  0  0  0  0  0  0
  189.3730  176.8900  147.6920 C   0  0  0  0  0  3  0  0  0  0  0  0
  187.1780  177.5200  146.8760 O   0  0  0  0  0  0  0  0  0  0  0  0
  187.8430  176.9530  136.9950 O   0  0  0  0  0  0  0  0  0  0  0  0
  186.9080  174.8120  137.2360 O   0  0  0  0  0  0  0  0  0  0  0  0
  186.4230  175.2930  136.0000 C   0  0  2  0  0  3  0  0  0  0  0  0
  187.7890  175.6300  136.4920 C   0  0  1  0  0  3  0  0  0  0  0  0
  185.4830  176.3050  136.2420 O   0  0  0  0  0  0  0  0  0  0  0  0
  184.5720  175.7220  137.1230 C   0  0  0  0  0  2  0  0  0  0  0  0
  183.3430  176.6030  137.2600 C   0  0  0  0  0  2  0  0  0  0  0  0
  182.7160  176.4320  138.6450 C   0  0  2  0  0  3  0  0  0  0  0  0
  180.9590  175.0070  137.4760 C   0  0  0  0  0  1  0  0  0  0  0  0
  181.7360  175.2540  138.7630 C   0  0  2  0  0  3  0  0  0  0  0  0
  180.9230  175.3050  139.9360 O   0  0  0  0  0  0  0  0  0  0  0  0
  178.9310  174.4720  140.9060 C   0  0  0  0  0  2  0  0  0  0  0  0
  179.5490  175.0620  139.8900 C   0  0  0  0  0  3  0  0  0  0  0  0
  182.1080  177.7330  139.1950 C   0  0  2  0  0  3  0  0  0  0  0  0
  180.7850  179.4750  137.9090 C   0  0  0  0  0  1  0  0  0  0  0  0
  182.1740  178.9500  138.2360 C   0  0  0  0  0  3  0  0  0  0  0  0
  183.0660  180.0740  138.7410 C   0  0  0  0  0  1  0  0  0  0  0  0
  182.5160  177.9900  140.6210 C   0  0  0  0  0  0  0  0  0  0  0  0
  183.6620  177.6270  141.0040 O   0  0  0  0  0  0  0  0  0  0  0  0
  181.6600  178.6500  141.5050 O   0  0  0  0  0  0  0  0  0  0  0  0
  180.2470  178.5640  141.3740 C   0  0  0  0  0  1  0  0  0  0  0  0
  1 20  2  0  0  0  0
  2 11  1  0  0  0  0
  3 19  1  6  0  0  0
  3 18  1  0  0  0  0
  4  2  1  0  0  0  0
  4 18  1  0  0  0  0
  5  1  1  0  0  0  0
  6  9  1  1  0  0  0
  7 22  1  0  0  0  0
  8 14  1  0  0  0  0
  8  6  1  0  0  0  0
 10 15  1  0  0  0  0
 11 14  2  0  0  0  0
 12 19  1  0  0  0  0
 12  4  2  0  0  0  0
 13 39  1  1  0  0  0
 13  3  1  0  0  0  0
 13 10  1  0  0  0  0
 15  6  1  0  0  0  0
 15 23  1  1  0  0  0
 16  1  1  1  0  0  0
 16  7  1  0  0  0  0
 16 12  1  0  0  0  0
 17  7  2  0  0  0  0
 17 21  1  0  0  0  0
 18  8  2  0  0  0  0
 20 17  1  0  0  0  0
 22  2  2  0  0  0  0
 23 24  2  0  0  0  0
 24 25  1  0  0  0  0
 25 26  1  0  0  0  0
 26 35  1  0  0  0  0
 27 35  2  0  0  0  0
 27 34  1  0  0  0  0
 28 30  1  0  0  0  0
 29 37  1  0  0  0  0
 31 29  2  0  0  0  0
 32 38  1  0  0  0  0
 32 37  2  0  0  0  0
 33 34  2  0  0  0  0
 33 31  1  0  0  0  0
 34 32  1  0  0  0  0
 35 36  1  0  0  0  0
 36 28  1  0  0  0  0
 36 30  1  0  0  0  0
 36 38  1  0  0  0  0
 41 43  1  1  0  0  0
 41 42  1  0  0  0  0
 41 40  1  0  0  0  0
 42 39  1  1  0  0  0
 42 40  1  0  0  0  0
 43 44  1  0  0  0  0
 44 45  1  0  0  0  0
 46 45  1  6  0  0  0
 46 48  1  0  0  0  0
 46 52  1  0  0  0  0
 48 47  1  6  0  0  0
 48 49  1  0  0  0  0
 51 49  1  0  0  0  0
 51 50  2  0  0  0  0
 52 54  1  6  0  0  0
 52 56  1  0  0  0  0
 53 54  1  0  0  0  0
 54 55  1  0  0  0  0
 56 57  2  0  0  0  0
 56 58  1  0  0  0  0
 59 58  1  0  0  0  0
M  END
>  <MODEL>
4

>  <REMARK>
 VINA RESULT:      -7.4      3.026      8.579
  Name = 
  17 active torsions:
  status: ('A' for Active; 'I' for Inactive)
    1  A    between atoms: O_3  and  C_44
    2  A    between atoms: C_4  and  O_26
    3  A    between atoms: C_4  and  C_35
    4  A    between atoms: O_7  and  C_13
    5  A    between atoms: O_7  and  C_57
    6  A    between atoms: C_13  and  C_27
    7  A    between atoms: C_14  and  C_27
    8  A    between atoms: C_14  and  C_44
    9  A    between atoms: C_14  and  C_53
   10  A    between atoms: C_16  and  O_26
   11  A    between atoms: C_18  and  O_50
   12  A    between atoms: C_27  and  C_35
   13  A    between atoms: O_31  and  C_38
   14  A    between atoms: O_31  and  C_51
   15  A    between atoms: C_36  and  O_50
   16  A    between atoms: N_42  and  C_43
   17  A    between atoms: C_51  and  C_54
                            x       y       z     vdW  Elec       q    Type
                         _______ _______ _______ _____ _____    ______ ____

>  <TORSDO>
F 17

$$$$
=
 OpenBabel11042412473D

 59 67  0  0  1  0  0  0  0  0999 V2000
  184.6500  178.8020  144.4480 C   0  0  0  0  0  0  0  0  0  0  0  0
  188.2470  177.3520  145.7720 C   0  0  0  0  0  0  0  0  0  0  0  0
  188.5790  178.0160  142.1910 C   0  0  2  0  0  3  0  0  0  0  0  0
  188.0730  177.6770  144.4340 C   0  0  0  0  0  0  0  0  0  0  0  0
  184.1390  179.3930  143.1900 C   0  0  0  0  0  1  0  0  0  0  0  0
  191.6410  177.6480  143.1610 C   0  0  2  0  0  3  0  0  0  0  0  0
  185.8500  177.6360  146.0230 C   0  0  0  0  0  0  0  0  0  0  0  0
  190.4130  177.5150  144.0370 C   0  0  0  0  0  0  0  0  0  0  0  0
  192.4290  178.8720  143.6130 C   0  0  0  0  0  1  0  0  0  0  0  0
  190.4630  176.5770  141.1940 C   0  0  0  0  0  2  0  0  0  0  0  0
  189.5190  177.1270  146.2090 N   0  0  0  0  0  0  0  0  0  0  0  0
  186.9290  177.8940  143.8270 C   0  0  0  0  0  0  0  0  0  0  0  0
  188.9460  176.8790  141.2280 C   0  0  2  0  0  3  0  0  0  0  0  0
  190.5650  177.2060  145.3680 N   0  0  0  0  0  0  0  0  0  0  0  0
  191.3370  177.7480  141.6570 C   0  0  2  0  0  3  0  0  0  0  0  0
  185.6180  177.6600  144.5300 C   0  0  0  0  0  0  0  0  0  0  0  0
  185.0130  178.4940  146.5830 C   0  0  0  0  0  0  0  0  0  0  0  0
  189.1150  177.7590  143.5760 C   0  0  0  0  0  0  0  0  0  0  0  0
  187.1260  178.0610  142.4210 N   0  0  0  0  0  2  0  0  0  0  0  0
  184.2830  179.2320  145.6120 N   0  0  0  0  0  2  0  0  0  0  0  0
  185.1290  178.9310  147.9350 N   0  0  0  0  0  1  0  0  0  0  0  0
  187.1890  177.3200  146.5990 C   0  0  0  0  0  3  0  0  0  0  0  0
  192.5660  177.7770  140.9030 N   0  0  0  0  0  0  0  0  0  0  0  0
  192.6750  177.0970  139.8200 C   0  0  0  0  0  3  0  0  0  0  0  0
  193.9380  177.1370  139.0290 C   0  0  0  0  0  2  0  0  0  0  0  0
  193.7070  176.6290  137.7260 O   0  0  0  0  0  0  0  0  0  0  0  0
  194.6490  174.5200  137.7800 N   0  0  0  0  0  0  0  0  0  0  0  0
  191.4160  175.4040  135.9410 C   0  0  0  0  0  2  0  0  0  0  0  0
  195.0640  170.4640  136.6430 C   0  0  0  0  0  3  0  0  0  0  0  0
  191.1790  174.7140  137.2770 C   0  0  0  0  0  2  0  0  0  0  0  0
  195.9680  171.0380  137.5470 C   0  0  0  0  0  3  0  0  0  0  0  0
  193.8320  172.5480  136.5640 C   0  0  0  0  0  0  0  0  0  0  0  0
  195.8260  172.3720  137.9350 C   0  0  0  0  0  3  0  0  0  0  0  0
  194.7600  173.1310  137.4410 C   0  0  0  0  0  0  0  0  0  0  0  0
  193.6580  175.2690  137.3960 C   0  0  0  0  0  0  0  0  0  0  0  0
  192.5280  174.6190  136.6030 C   0  0  0  0  0  0  0  0  0  0  0  0
  193.9930  171.2210  136.1500 C   0  0  0  0  0  3  0  0  0  0  0  0
  192.7630  173.3100  136.0900 O   0  0  0  0  0  0  0  0  0  0  0  0
  188.4450  177.2090  139.9450 O   0  0  0  0  0  0  0  0  0  0  0  0
  189.5850  177.8390  137.9920 O   0  0  0  0  0  0  0  0  0  0  0  0
  188.5750  178.8110  138.1630 C   0  0  2  0  0  3  0  0  0  0  0  0
  189.2660  178.1820  139.3250 C   0  0  1  0  0  3  0  0  0  0  0  0
  187.3310  178.2300  137.8780 O   0  0  0  0  0  0  0  0  0  0  0  0
  187.2320  178.2990  136.4880 C   0  0  0  0  0  2  0  0  0  0  0  0
  186.0390  177.4900  136.0100 C   0  0  0  0  0  2  0  0  0  0  0  0
  185.5010  176.6140  137.1430 C   0  0  2  0  0  3  0  0  0  0  0  0
  186.6910  174.8140  135.7910 C   0  0  0  0  0  1  0  0  0  0  0  0
  185.7920  175.1130  136.9840 C   0  0  2  0  0  3  0  0  0  0  0  0
  184.6230  174.2950  137.0550 O   0  0  0  0  0  0  0  0  0  0  0  0
  184.5570  171.9410  136.8210 C   0  0  0  0  0  2  0  0  0  0  0  0
  184.6560  173.0100  137.6000 C   0  0  0  0  0  3  0  0  0  0  0  0
  184.0170  176.8740  137.4530 C   0  0  2  0  0  3  0  0  0  0  0  0
  182.7760  176.4630  135.2780 C   0  0  0  0  0  1  0  0  0  0  0  0
  183.2030  177.5090  136.2970 C   0  0  0  0  0  3  0  0  0  0  0  0
  182.0030  178.3160  136.7700 C   0  0  0  0  0  1  0  0  0  0  0  0
  183.8220  177.4850  138.8150 C   0  0  0  0  0  0  0  0  0  0  0  0
  184.3730  178.5910  139.0740 O   0  0  0  0  0  0  0  0  0  0  0  0
  183.0180  176.8640  139.7720 O   0  0  0  0  0  0  0  0  0  0  0  0
  182.2420  175.7150  139.4580 C   0  0  0  0  0  1  0  0  0  0  0  0
  1 16  2  0  0  0  0
  1 20  1  0  0  0  0
  2 11  1  0  0  0  0
  2 22  2  0  0  0  0
  3 19  1  1  0  0  0
  3 18  1  0  0  0  0
  4  2  1  0  0  0  0
  5  1  1  0  0  0  0
  6  9  1  1  0  0  0
  6  8  1  0  0  0  0
  7 17  2  0  0  0  0
  7 22  1  0  0  0  0
  8 14  1  0  0  0  0
 10 13  1  0  0  0  0
 10 15  1  0  0  0  0
 12  4  2  0  0  0  0
 12 16  1  0  0  0  0
 13 39  1  6  0  0  0
 13  3  1  0  0  0  0
 14 11  2  0  0  0  0
 15 23  1  6  0  0  0
 15  6  1  0  0  0  0
 16  7  1  0  0  0  0
 17 21  1  0  0  0  0
 18  8  2  0  0  0  0
 18  4  1  0  0  0  0
 19 12  1  0  0  0  0
 20 17  1  0  0  0  0
 24 23  2  0  0  0  0
 25 24  1  0  0  0  0
 26 25  1  0  0  0  0
 28 36  1  0  0  0  0
 28 30  1  0  0  0  0
 29 31  1  0  0  0  0
 31 33  2  0  0  0  0
 32 34  2  0  0  0  0
 34 27  1  0  0  0  0
 34 33  1  0  0  0  0
 35 26  1  0  0  0  0
 35 27  2  0  0  0  0
 36 30  1  0  0  0  0
 36 35  1  0  0  0  0
 37 32  1  0  0  0  0
 37 29  2  0  0  0  0
 38 32  1  0  0  0  0
 38 36  1  0  0  0  0
 40 41  1  0  0  0  0
 40 42  1  0  0  0  0
 41 43  1  1  0  0  0
 41 42  1  0  0  0  0
 42 39  1  1  0  0  0
 44 43  1  0  0  0  0
 45 44  1  0  0  0  0
 46 45  1  6  0  0  0
 46 52  1  0  0  0  0
 48 47  1  6  0  0  0
 48 49  1  0  0  0  0
 48 46  1  0  0  0  0
 49 51  1  0  0  0  0
 50 51  2  0  0  0  0
 52 54  1  6  0  0  0
 52 56  1  0  0  0  0
 53 54  1  0  0  0  0
 54 55  1  0  0  0  0
 56 57  2  0  0  0  0
 56 58  1  0  0  0  0
 59 58  1  0  0  0  0
M  END
>  <MODEL>
5

>  <REMARK>
 VINA RESULT:      -7.3      2.606      8.323
  Name = 
  17 active torsions:
  status: ('A' for Active; 'I' for Inactive)
    1  A    between atoms: O_3  and  C_44
    2  A    between atoms: C_4  and  O_26
    3  A    between atoms: C_4  and  C_35
    4  A    between atoms: O_7  and  C_13
    5  A    between atoms: O_7  and  C_57
    6  A    between atoms: C_13  and  C_27
    7  A    between atoms: C_14  and  C_27
    8  A    between atoms: C_14  and  C_44
    9  A    between atoms: C_14  and  C_53
   10  A    between atoms: C_16  and  O_26
   11  A    between atoms: C_18  and  O_50
   12  A    between atoms: C_27  and  C_35
   13  A    between atoms: O_31  and  C_38
   14  A    between atoms: O_31  and  C_51
   15  A    between atoms: C_36  and  O_50
   16  A    between atoms: N_42  and  C_43
   17  A    between atoms: C_51  and  C_54
                            x       y       z     vdW  Elec       q    Type
                         _______ _______ _______ _____ _____    ______ ____

>  <TORSDO>
F 17

$$$$
=
 OpenBabel11042412473D

 59 67  0  0  1  0  0  0  0  0999 V2000
  184.7600  178.8750  144.3550 C   0  0  0  0  0  0  0  0  0  0  0  0
  188.3460  177.3720  145.6500 C   0  0  0  0  0  0  0  0  0  0  0  0
  188.6200  177.9210  142.0450 C   0  0  2  0  0  3  0  0  0  0  0  0
  188.1520  177.6610  144.3070 C   0  0  0  0  0  0  0  0  0  0  0  0
  184.2390  179.4420  143.0900 C   0  0  0  0  0  1  0  0  0  0  0  0
  191.6910  177.5020  142.9640 C   0  0  2  0  0  3  0  0  0  0  0  0
  185.9620  177.7250  145.9400 C   0  0  0  0  0  0  0  0  0  0  0  0
  190.4780  177.4260  143.8680 C   0  0  0  0  0  0  0  0  0  0  0  0
  192.5200  178.7170  143.3630 C   0  0  0  0  0  1  0  0  0  0  0  0
  190.4460  176.4040  141.0550 C   0  0  0  0  0  2  0  0  0  0  0  0
  189.6200  177.1260  146.0680 N   0  0  0  0  0  0  0  0  0  0  0  0
  187.0010  177.8900  143.7170 C   0  0  0  0  0  0  0  0  0  0  0  0
  188.9370  176.7460  141.1100 C   0  0  2  0  0  3  0  0  0  0  0  0
  190.6500  177.1530  145.2050 N   0  0  0  0  0  0  0  0  0  0  0  0
  191.3580  177.5650  141.4650 C   0  0  2  0  0  3  0  0  0  0  0  0
  185.7000  177.7110  144.4520 C   0  0  0  0  0  0  0  0  0  0  0  0
  185.1590  178.6210  146.4910 C   0  0  0  0  0  0  0  0  0  0  0  0
  189.1780  177.6900  143.4260 C   0  0  0  0  0  0  0  0  0  0  0  0
  187.1730  178.0100  142.3020 N   0  0  0  0  0  2  0  0  0  0  0  0
  184.4280  179.3480  145.5130 N   0  0  0  0  0  2  0  0  0  0  0  0
  185.3140  179.0940  147.8260 N   0  0  0  0  0  1  0  0  0  0  0  0
  187.3040  177.3910  146.4990 C   0  0  0  0  0  3  0  0  0  0  0  0
  192.5720  177.5390  140.6860 N   0  0  0  0  0  0  0  0  0  0  0  0
  192.6210  176.8760  139.5870 C   0  0  0  0  0  3  0  0  0  0  0  0
  193.8680  176.8620  138.7710 C   0  0  0  0  0  2  0  0  0  0  0  0
  193.5410  176.7880  137.3940 O   0  0  0  0  0  0  0  0  0  0  0  0
  191.6150  176.2020  136.2600 N   0  0  0  0  0  0  0  0  0  0  0  0
  194.1840  173.7090  137.6030 C   0  0  0  0  0  2  0  0  0  0  0  0
  188.6900  173.5240  134.7780 C   0  0  0  0  0  3  0  0  0  0  0  0
  194.3120  173.9580  136.1070 C   0  0  0  0  0  2  0  0  0  0  0  0
  188.5380  174.9060  134.5950 C   0  0  0  0  0  3  0  0  0  0  0  0
  190.8230  173.9100  135.8600 C   0  0  0  0  0  0  0  0  0  0  0  0
  189.5070  175.7910  135.0710 C   0  0  0  0  0  3  0  0  0  0  0  0
  190.6500  175.2950  135.7080 C   0  0  0  0  0  0  0  0  0  0  0  0
  192.7200  175.8090  136.8200 C   0  0  0  0  0  0  0  0  0  0  0  0
  193.0340  174.3150  136.8290 C   0  0  0  0  0  0  0  0  0  0  0  0
  189.8350  173.0260  135.4120 C   0  0  0  0  0  3  0  0  0  0  0  0
  191.9740  173.4260  136.4820 O   0  0  0  0  0  0  0  0  0  0  0  0
  188.4190  177.0510  139.8270 O   0  0  0  0  0  0  0  0  0  0  0  0
  189.6820  178.0780  138.1350 O   0  0  0  0  0  0  0  0  0  0  0  0
  188.3870  178.6300  138.0200 C   0  0  2  0  0  3  0  0  0  0  0  0
  188.9700  178.2620  139.3420 C   0  0  1  0  0  3  0  0  0  0  0  0
  187.5210  177.6540  137.5060 O   0  0  0  0  0  0  0  0  0  0  0  0
  186.9540  178.2570  136.3830 C   0  0  0  0  0  2  0  0  0  0  0  0
  185.7600  177.4490  135.9050 C   0  0  0  0  0  2  0  0  0  0  0  0
  185.0820  176.7500  137.0850 C   0  0  2  0  0  3  0  0  0  0  0  0
  186.0430  174.3970  137.2350 C   0  0  0  0  0  1  0  0  0  0  0  0
  184.8300  175.2480  136.8800 C   0  0  2  0  0  3  0  0  0  0  0  0
  184.2480  174.9360  135.6140 O   0  0  0  0  0  0  0  0  0  0  0  0
  182.8770  173.1800  136.4150 C   0  0  0  0  0  2  0  0  0  0  0  0
  183.5150  173.7650  135.4090 C   0  0  0  0  0  3  0  0  0  0  0  0
  183.8170  177.4770  137.5690 C   0  0  2  0  0  3  0  0  0  0  0  0
  182.7600  179.4770  138.7170 C   0  0  0  0  0  1  0  0  0  0  0  0
  184.0680  178.7970  138.3410 C   0  0  0  0  0  3  0  0  0  0  0  0
  184.9540  178.6270  139.5660 C   0  0  0  0  0  1  0  0  0  0  0  0
  182.8190  176.5290  138.1820 C   0  0  0  0  0  0  0  0  0  0  0  0
  183.0790  176.0100  139.3030 O   0  0  0  0  0  0  0  0  0  0  0  0
  181.6090  176.2510  137.5460 O   0  0  0  0  0  0  0  0  0  0  0  0
  180.6040  175.4630  138.1730 C   0  0  0  0  0  1  0  0  0  0  0  0
  1 16  2  0  0  0  0
  1 20  1  0  0  0  0
  2 11  1  0  0  0  0
  2 22  2  0  0  0  0
  3 19  1  1  0  0  0
  3 18  1  0  0  0  0
  4  2  1  0  0  0  0
  5  1  1  0  0  0  0
  6  9  1  1  0  0  0
  6  8  1  0  0  0  0
  7 17  2  0  0  0  0
  7 22  1  0  0  0  0
  8 14  1  0  0  0  0
 10 13  1  0  0  0  0
 10 15  1  0  0  0  0
 12  4  2  0  0  0  0
 12 16  1  0  0  0  0
 13 39  1  6  0  0  0
 13  3  1  0  0  0  0
 14 11  2  0  0  0  0
 15 23  1  6  0  0  0
 15  6  1  0  0  0  0
 16  7  1  0  0  0  0
 17 21  1  0  0  0  0
 18  8  2  0  0  0  0
 18  4  1  0  0  0  0
 19 12  1  0  0  0  0
 20 17  1  0  0  0  0
 24 23  2  0  0  0  0
 25 24  1  0  0  0  0
 26 25  1  0  0  0  0
 27 35  2  0  0  0  0
 29 37  1  0  0  0  0
 30 36  1  0  0  0  0
 30 28  1  0  0  0  0
 31 29  2  0  0  0  0
 31 33  1  0  0  0  0
 32 38  1  0  0  0  0
 33 34  2  0  0  0  0
 34 32  1  0  0  0  0
 34 27  1  0  0  0  0
 35 36  1  0  0  0  0
 35 26  1  0  0  0  0
 36 28  1  0  0  0  0
 37 32  2  0  0  0  0
 38 36  1  0  0  0  0
 40 42  1  0  0  0  0
 41 43  1  6  0  0  0
 41 40  1  0  0  0  0
 41 42  1  0  0  0  0
 42 39  1  6  0  0  0
 44 43  1  0  0  0  0
 45 44  1  0  0  0  0
 46 45  1  6  0  0  0
 46 52  1  0  0  0  0
 48 46  1  0  0  0  0
 48 47  1  6  0  0  0
 49 48  1  0  0  0  0
 51 49  1  0  0  0  0
 51 50  2  0  0  0  0
 52 56  1  1  0  0  0
 52 54  1  0  0  0  0
 54 53  1  0  0  0  0
 54 55  1  0  0  0  0
 56 57  2  0  0  0  0
 58 59  1  0  0  0  0
 58 56  1  0  0  0  0
M  END
>  <MODEL>
6

>  <REMARK>
 VINA RESULT:      -7.2      2.364      7.640
  Name = 
  17 active torsions:
  status: ('A' for Active; 'I' for Inactive)
    1  A    between atoms: O_3  and  C_44
    2  A    between atoms: C_4  and  O_26
    3  A    between atoms: C_4  and  C_35
    4  A    between atoms: O_7  and  C_13
    5  A    between atoms: O_7  and  C_57
    6  A    between atoms: C_13  and  C_27
    7  A    between atoms: C_14  and  C_27
    8  A    between atoms: C_14  and  C_44
    9  A    between atoms: C_14  and  C_53
   10  A    between atoms: C_16  and  O_26
   11  A    between atoms: C_18  and  O_50
   12  A    between atoms: C_27  and  C_35
   13  A    between atoms: O_31  and  C_38
   14  A    between atoms: O_31  and  C_51
   15  A    between atoms: C_36  and  O_50
   16  A    between atoms: N_42  and  C_43
   17  A    between atoms: C_51  and  C_54
                            x       y       z     vdW  Elec       q    Type
                         _______ _______ _______ _____ _____    ______ ____

>  <TORSDO>
F 17

$$$$
=
 OpenBabel11042412473D

 59 67  0  0  1  0  0  0  0  0999 V2000
  190.8900  176.3920  143.6170 C   0  0  0  0  0  0  0  0  0  0  0  0
  188.7390  177.9450  146.7400 C   0  0  0  0  0  0  0  0  0  0  0  0
  186.6050  178.0530  143.7730 C   0  0  2  0  0  3  0  0  0  0  0  0
  188.1820  177.8760  145.4710 C   0  0  0  0  0  0  0  0  0  0  0  0
  190.6060  176.0110  142.2140 C   0  0  0  0  0  1  0  0  0  0  0  0
  184.5270  178.5630  146.1960 C   0  0  2  0  0  3  0  0  0  0  0  0
  190.8520  177.3470  145.7070 C   0  0  0  0  0  0  0  0  0  0  0  0
  186.0240  178.3790  146.3370 C   0  0  0  0  0  0  0  0  0  0  0  0
  183.8280  177.3710  146.8390 C   0  0  0  0  0  1  0  0  0  0  0  0
  184.8020  179.8660  144.0450 C   0  0  0  0  0  2  0  0  0  0  0  0
  187.9070  178.2210  147.7840 N   0  0  0  0  0  0  0  0  0  0  0  0
  188.8250  177.6570  144.3480 C   0  0  0  0  0  0  0  0  0  0  0  0
  186.0550  179.3940  143.2690 C   0  0  2  0  0  3  0  0  0  0  0  0
  186.5940  178.4300  147.5870 N   0  0  0  0  0  0  0  0  0  0  0  0
  184.0450  178.7320  144.7460 C   0  0  2  0  0  3  0  0  0  0  0  0
  190.3290  177.5960  144.3110 C   0  0  0  0  0  0  0  0  0  0  0  0
  191.6660  176.3050  145.6600 C   0  0  0  0  0  0  0  0  0  0  0  0
  186.8630  178.0870  145.2570 C   0  0  0  0  0  0  0  0  0  0  0  0
  187.9490  177.7990  143.2270 N   0  0  0  0  0  2  0  0  0  0  0  0
  191.6790  175.6990  144.3750 N   0  0  0  0  0  2  0  0  0  0  0  0
  192.1300  175.6230  146.8220 N   0  0  0  0  0  1  0  0  0  0  0  0
  190.0480  177.6910  146.9140 C   0  0  0  0  0  3  0  0  0  0  0  0
  182.6270  178.9950  144.7210 N   0  0  0  0  0  0  0  0  0  0  0  0
  181.9050  178.5560  143.7550 C   0  0  0  0  0  3  0  0  0  0  0  0
  180.4370  178.8110  143.7350 C   0  0  0  0  0  2  0  0  0  0  0  0
  179.8340  178.0700  142.6870 O   0  0  0  0  0  0  0  0  0  0  0  0
  180.3100  179.5580  140.9850 N   0  0  0  0  0  0  0  0  0  0  0  0
  179.2530  175.9230  140.4550 C   0  0  0  0  0  2  0  0  0  0  0  0
  180.4900  180.8710  136.9640 C   0  0  0  0  0  3  0  0  0  0  0  0
  180.7510  176.1420  140.3000 C   0  0  0  0  0  2  0  0  0  0  0  0
  180.8700  181.7310  138.0040 C   0  0  0  0  0  3  0  0  0  0  0  0
  180.0790  179.1130  138.5790 C   0  0  0  0  0  0  0  0  0  0  0  0
  180.8250  181.2960  139.3300 C   0  0  0  0  0  3  0  0  0  0  0  0
  180.4260  179.9880  139.6210 C   0  0  0  0  0  0  0  0  0  0  0  0
  179.9930  178.3440  141.3230 C   0  0  0  0  0  0  0  0  0  0  0  0
  179.8000  177.3130  140.2140 C   0  0  0  0  0  0  0  0  0  0  0  0
  180.0940  179.5590  137.2530 C   0  0  0  0  0  3  0  0  0  0  0  0
  179.6980  177.8040  138.8800 O   0  0  0  0  0  0  0  0  0  0  0  0
  185.8010  179.2730  141.8810 O   0  0  0  0  0  0  0  0  0  0  0  0
  183.5810  178.8440  141.2480 O   0  0  0  0  0  0  0  0  0  0  0  0
  184.3740  178.2990  140.2150 C   0  0  2  0  0  3  0  0  0  0  0  0
  184.8180  178.2840  141.6380 C   0  0  1  0  0  3  0  0  0  0  0  0
  184.9370  179.3470  139.4710 O   0  0  0  0  0  0  0  0  0  0  0  0
  184.6950  178.9930  138.1440 C   0  0  0  0  0  2  0  0  0  0  0  0
  184.9420  177.5070  137.9480 C   0  0  0  0  0  2  0  0  0  0  0  0
  185.9490  177.2780  136.8200 C   0  0  2  0  0  3  0  0  0  0  0  0
  184.5590  176.7240  134.7590 C   0  0  0  0  0  1  0  0  0  0  0  0
  185.5370  176.2000  135.8040 C   0  0  2  0  0  3  0  0  0  0  0  0
  185.1420  174.9690  136.4090 O   0  0  0  0  0  0  0  0  0  0  0  0
  186.1540  173.0120  137.2740 C   0  0  0  0  0  2  0  0  0  0  0  0
  185.8790  173.7950  136.2390 C   0  0  0  0  0  3  0  0  0  0  0  0
  187.3840  177.0600  137.3270 C   0  0  2  0  0  3  0  0  0  0  0  0
  188.3250  177.5460  139.6330 C   0  0  0  0  0  1  0  0  0  0  0  0
  187.9140  178.1470  138.2970 C   0  0  0  0  0  3  0  0  0  0  0  0
  189.0440  178.9830  137.7150 C   0  0  0  0  0  1  0  0  0  0  0  0
  188.3190  176.6450  136.2220 C   0  0  0  0  0  0  0  0  0  0  0  0
  188.2710  177.2570  135.1190 O   0  0  0  0  0  0  0  0  0  0  0  0
  189.2510  175.6240  136.4150 O   0  0  0  0  0  0  0  0  0  0  0  0
  189.5140  174.6580  135.4060 C   0  0  0  0  0  1  0  0  0  0  0  0
  1 16  2  0  0  0  0
  1 20  1  0  0  0  0
  2 22  2  0  0  0  0
  2 11  1  0  0  0  0
  3 19  1  6  0  0  0
  3 18  1  0  0  0  0
  4  2  1  0  0  0  0
  5  1  1  0  0  0  0
  6  8  1  0  0  0  0
  6  9  1  6  0  0  0
  7 22  1  0  0  0  0
  8 14  1  0  0  0  0
 10 15  1  0  0  0  0
 12  4  2  0  0  0  0
 13 39  1  6  0  0  0
 13  3  1  0  0  0  0
 13 10  1  0  0  0  0
 14 11  2  0  0  0  0
 15 23  1  1  0  0  0
 15  6  1  0  0  0  0
 16 12  1  0  0  0  0
 16  7  1  0  0  0  0
 17  7  2  0  0  0  0
 17 21  1  0  0  0  0
 18  4  1  0  0  0  0
 18  8  2  0  0  0  0
 19 12  1  0  0  0  0
 20 17  1  0  0  0  0
 24 23  2  0  0  0  0
 25 24  1  0  0  0  0
 26 25  1  0  0  0  0
 27 35  2  0  0  0  0
 29 37  2  0  0  0  0
 29 31  1  0  0  0  0
 30 28  1  0  0  0  0
 31 33  2  0  0  0  0
 32 38  1  0  0  0  0
 32 34  2  0  0  0  0
 33 34  1  0  0  0  0
 34 27  1  0  0  0  0
 35 26  1  0  0  0  0
 36 30  1  0  0  0  0
 36 28  1  0  0  0  0
 36 35  1  0  0  0  0
 37 32  1  0  0  0  0
 38 36  1  0  0  0  0
 40 42  1  0  0  0  0
 41 43  1  6  0  0  0
 41 40  1  0  0  0  0
 41 42  1  0  0  0  0
 42 39  1  6  0  0  0
 44 43  1  0  0  0  0
 45 44  1  0  0  0  0
 46 52  1  0  0  0  0
 46 45  1  1  0  0  0
 48 47  1  1  0  0  0
 48 49  1  0  0  0  0
 48 46  1  0  0  0  0
 51 49  1  0  0  0  0
 51 50  2  0  0  0  0
 52 56  1  6  0  0  0
 52 54  1  0  0  0  0
 54 53  1  0  0  0  0
 55 54  1  0  0  0  0
 56 58  1  0  0  0  0
 57 56  2  0  0  0  0
 59 58  1  0  0  0  0
M  END
>  <MODEL>
7

>  <REMARK>
 VINA RESULT:      -7.1      1.316      2.219
  Name = 
  17 active torsions:
  status: ('A' for Active; 'I' for Inactive)
    1  A    between atoms: O_3  and  C_44
    2  A    between atoms: C_4  and  O_26
    3  A    between atoms: C_4  and  C_35
    4  A    between atoms: O_7  and  C_13
    5  A    between atoms: O_7  and  C_57
    6  A    between atoms: C_13  and  C_27
    7  A    between atoms: C_14  and  C_27
    8  A    between atoms: C_14  and  C_44
    9  A    between atoms: C_14  and  C_53
   10  A    between atoms: C_16  and  O_26
   11  A    between atoms: C_18  and  O_50
   12  A    between atoms: C_27  and  C_35
   13  A    between atoms: O_31  and  C_38
   14  A    between atoms: O_31  and  C_51
   15  A    between atoms: C_36  and  O_50
   16  A    between atoms: N_42  and  C_43
   17  A    between atoms: C_51  and  C_54
                            x       y       z     vdW  Elec       q    Type
                         _______ _______ _______ _____ _____    ______ ____

>  <TORSDO>
F 17

$$$$
=
 OpenBabel11042412473D

 59 67  0  0  1  0  0  0  0  0999 V2000
  191.8140  171.6880  135.0190 C   0  0  0  0  0  0  0  0  0  0  0  0
  193.5210  174.7500  137.1420 C   0  0  0  0  0  0  0  0  0  0  0  0
  189.9090  175.3190  137.1000 C   0  0  2  0  0  3  0  0  0  0  0  0
  192.1480  174.7140  136.9450 C   0  0  0  0  0  0  0  0  0  0  0  0
  190.4360  171.2230  134.7440 C   0  0  0  0  0  1  0  0  0  0  0  0
  190.9470  177.3320  139.4070 C   0  0  2  0  0  3  0  0  0  0  0  0
  193.6710  172.9410  135.5310 C   0  0  0  0  0  0  0  0  0  0  0  0
  191.8210  176.4330  138.5570 C   0  0  0  0  0  0  0  0  0  0  0  0
  191.0040  176.8420  140.8490 C   0  0  0  0  0  1  0  0  0  0  0  0
  189.4010  177.8140  137.4630 C   0  0  0  0  0  2  0  0  0  0  0  0
  194.0060  175.6310  138.0620 N   0  0  0  0  0  0  0  0  0  0  0  0
  191.5030  173.9620  136.0830 C   0  0  0  0  0  0  0  0  0  0  0  0
  189.3400  176.6090  136.4930 C   0  0  2  0  0  3  0  0  0  0  0  0
  193.1830  176.4440  138.7450 N   0  0  0  0  0  0  0  0  0  0  0  0
  189.4840  177.4150  138.9400 C   0  0  2  0  0  3  0  0  0  0  0  0
  192.2420  173.1240  135.0750 C   0  0  0  0  0  0  0  0  0  0  0  0
  193.9420  171.6460  135.5270 C   0  0  0  0  0  0  0  0  0  0  0  0
  191.3070  175.5270  137.6240 C   0  0  0  0  0  0  0  0  0  0  0  0
  190.1130  174.2970  136.0600 N   0  0  0  0  0  2  0  0  0  0  0  0
  192.7920  170.8660  135.2300 N   0  0  0  0  0  2  0  0  0  0  0  0
  195.0960  171.0860  136.1480 N   0  0  0  0  0  1  0  0  0  0  0  0
  194.3180  173.8980  136.4740 C   0  0  0  0  0  3  0  0  0  0  0  0
  188.7580  178.3630  139.7500 N   0  0  0  0  0  0  0  0  0  0  0  0
  187.7570  177.9770  140.4550 C   0  0  0  0  0  3  0  0  0  0  0  0
  187.0150  178.9500  141.3060 C   0  0  0  0  0  2  0  0  0  0  0  0
  186.1800  178.2550  142.2160 O   0  0  0  0  0  0  0  0  0  0  0  0
  187.5540  177.9750  144.0530 N   0  0  0  0  0  0  0  0  0  0  0  0
  183.7840  178.5820  144.2380 C   0  0  0  0  0  2  0  0  0  0  0  0
  188.4160  177.4190  148.1600 C   0  0  0  0  0  3  0  0  0  0  0  0
  184.6090  179.8300  144.5200 C   0  0  0  0  0  2  0  0  0  0  0  0
  189.4530  177.4260  147.2170 C   0  0  0  0  0  3  0  0  0  0  0  0
  186.8190  177.8720  146.3950 C   0  0  0  0  0  0  0  0  0  0  0  0
  189.1740  177.6230  145.8630 C   0  0  0  0  0  3  0  0  0  0  0  0
  187.8560  177.8430  145.4490 C   0  0  0  0  0  0  0  0  0  0  0  0
  186.3600  178.2290  143.6050 C   0  0  0  0  0  0  0  0  0  0  0  0
  185.2430  178.4620  144.6180 C   0  0  0  0  0  0  0  0  0  0  0  0
  187.0960  177.6430  147.7480 C   0  0  0  0  0  3  0  0  0  0  0  0
  185.5100  178.1080  145.9730 O   0  0  0  0  0  0  0  0  0  0  0  0
  188.0170  176.3470  136.0610 O   0  0  0  0  0  0  0  0  0  0  0  0
  186.1780  177.7990  136.2160 O   0  0  0  0  0  0  0  0  0  0  0  0
  185.6870  176.5340  136.6090 C   0  0  2  0  0  3  0  0  0  0  0  0
  187.0790  176.9690  136.9210 C   0  0  1  0  0  3  0  0  0  0  0  0
  185.6060  175.7070  135.4800 O   0  0  0  0  0  0  0  0  0  0  0  0
  184.3370  175.9600  134.9600 C   0  0  0  0  0  2  0  0  0  0  0  0
  183.5090  174.6880  134.9630 C   0  0  0  0  0  2  0  0  0  0  0  0
  183.3440  174.1630  136.3900 C   0  0  2  0  0  3  0  0  0  0  0  0
  183.0410  171.7730  137.2160 C   0  0  0  0  0  1  0  0  0  0  0  0
  184.0130  172.8040  136.6530 C   0  0  2  0  0  3  0  0  0  0  0  0
  185.2420  172.9030  137.3730 O   0  0  0  0  0  0  0  0  0  0  0  0
  186.8310  171.9840  135.8790 C   0  0  0  0  0  2  0  0  0  0  0  0
  186.4750  172.9470  136.7200 C   0  0  0  0  0  3  0  0  0  0  0  0
  181.8840  174.1800  136.8730 C   0  0  2  0  0  3  0  0  0  0  0  0
  179.7900  172.9150  136.2010 C   0  0  0  0  0  1  0  0  0  0  0  0
  180.8210  173.9470  135.7700 C   0  0  0  0  0  3  0  0  0  0  0  0
  180.1370  175.2240  135.3050 C   0  0  0  0  0  1  0  0  0  0  0  0
  181.6160  175.3160  137.8240 C   0  0  0  0  0  0  0  0  0  0  0  0
  181.1180  175.0610  138.9560 O   0  0  0  0  0  0  0  0  0  0  0  0
  181.9400  176.6300  137.4820 O   0  0  0  0  0  0  0  0  0  0  0  0
  180.9690  177.6680  137.5180 C   0  0  0  0  0  1  0  0  0  0  0  0
  1 16  2  0  0  0  0
  1 20  1  0  0  0  0
  2 11  1  0  0  0  0
  3 19  1  6  0  0  0
  3 18  1  0  0  0  0
  4  2  1  0  0  0  0
  4 18  1  0  0  0  0
  5  1  1  0  0  0  0
  6  9  1  1  0  0  0
  7 22  1  0  0  0  0
  8 14  1  0  0  0  0
  8  6  1  0  0  0  0
 10 15  1  0  0  0  0
 11 14  2  0  0  0  0
 12  4  2  0  0  0  0
 13 39  1  1  0  0  0
 13  3  1  0  0  0  0
 13 10  1  0  0  0  0
 15  6  1  0  0  0  0
 15 23  1  1  0  0  0
 16  7  1  0  0  0  0
 16 12  1  0  0  0  0
 17  7  2  0  0  0  0
 17 21  1  0  0  0  0
 18  8  2  0  0  0  0
 19 12  1  0  0  0  0
 20 17  1  0  0  0  0
 22  2  2  0  0  0  0
 23 24  2  0  0  0  0
 24 25  1  0  0  0  0
 25 26  1  0  0  0  0
 26 35  1  0  0  0  0
 27 34  1  0  0  0  0
 28 30  1  0  0  0  0
 28 36  1  0  0  0  0
 30 36  1  0  0  0  0
 31 29  2  0  0  0  0
 32 37  2  0  0  0  0
 33 31  1  0  0  0  0
 34 33  2  0  0  0  0
 34 32  1  0  0  0  0
 35 27  2  0  0  0  0
 35 36  1  0  0  0  0
 36 38  1  0  0  0  0
 37 29  1  0  0  0  0
 38 32  1  0  0  0  0
 40 41  1  0  0  0  0
 40 42  1  0  0  0  0
 41 43  1  6  0  0  0
 41 42  1  0  0  0  0
 42 39  1  6  0  0  0
 44 45  1  0  0  0  0
 44 43  1  0  0  0  0
 46 45  1  6  0  0  0
 46 48  1  0  0  0  0
 46 52  1  0  0  0  0
 48 47  1  1  0  0  0
 48 49  1  0  0  0  0
 50 51  2  0  0  0  0
 51 49  1  0  0  0  0
 52 54  1  6  0  0  0
 52 56  1  0  0  0  0
 54 53  1  0  0  0  0
 55 54  1  0  0  0  0
 56 57  2  0  0  0  0
 58 59  1  0  0  0  0
 58 56  1  0  0  0  0
M  END
>  <MODEL>
8

>  <REMARK>
 VINA RESULT:      -6.9      3.191      8.579
  Name = 
  17 active torsions:
  status: ('A' for Active; 'I' for Inactive)
    1  A    between atoms: O_3  and  C_44
    2  A    between atoms: C_4  and  O_26
    3  A    between atoms: C_4  and  C_35
    4  A    between atoms: O_7  and  C_13
    5  A    between atoms: O_7  and  C_57
    6  A    between atoms: C_13  and  C_27
    7  A    between atoms: C_14  and  C_27
    8  A    between atoms: C_14  and  C_44
    9  A    between atoms: C_14  and  C_53
   10  A    between atoms: C_16  and  O_26
   11  A    between atoms: C_18  and  O_50
   12  A    between atoms: C_27  and  C_35
   13  A    between atoms: O_31  and  C_38
   14  A    between atoms: O_31  and  C_51
   15  A    between atoms: C_36  and  O_50
   16  A    between atoms: N_42  and  C_43
   17  A    between atoms: C_51  and  C_54
                            x       y       z     vdW  Elec       q    Type
                         _______ _______ _______ _____ _____    ______ ____

>  <TORSDO>
F 17

$$$$
=
 OpenBabel11042412473D

 59 67  0  0  1  0  0  0  0  0999 V2000
  184.6970  178.7940  144.3850 C   0  0  0  0  0  0  0  0  0  0  0  0
  188.3110  177.4990  145.8190 C   0  0  0  0  0  0  0  0  0  0  0  0
  188.6470  177.9130  142.2010 C   0  0  2  0  0  3  0  0  0  0  0  0
  188.1370  177.7260  144.4610 C   0  0  0  0  0  0  0  0  0  0  0  0
  184.1820  179.2860  143.0860 C   0  0  0  0  0  1  0  0  0  0  0  0
  191.7100  177.6640  143.2040 C   0  0  2  0  0  3  0  0  0  0  0  0
  185.9090  177.7610  146.0420 C   0  0  0  0  0  0  0  0  0  0  0  0
  190.4810  177.5730  144.0830 C   0  0  0  0  0  0  0  0  0  0  0  0
  192.4770  178.9290  143.5700 C   0  0  0  0  0  1  0  0  0  0  0  0
  190.5580  176.4380  141.3140 C   0  0  0  0  0  2  0  0  0  0  0  0
  189.5840  177.3250  146.2740 N   0  0  0  0  0  0  0  0  0  0  0  0
  186.9920  177.8810  143.8370 C   0  0  0  0  0  0  0  0  0  0  0  0
  189.0350  176.7160  141.3220 C   0  0  2  0  0  3  0  0  0  0  0  0
  190.6320  177.3620  145.4330 N   0  0  0  0  0  0  0  0  0  0  0  0
  191.4110  177.6520  141.6960 C   0  0  2  0  0  3  0  0  0  0  0  0
  185.6820  177.6760  144.5500 C   0  0  0  0  0  0  0  0  0  0  0  0
  185.0560  178.6430  146.5380 C   0  0  0  0  0  0  0  0  0  0  0  0
  189.1810  177.7630  143.6030 C   0  0  0  0  0  0  0  0  0  0  0  0
  187.1920  177.9510  142.4230 N   0  0  0  0  0  2  0  0  0  0  0  0
  184.3180  179.2980  145.5150 N   0  0  0  0  0  2  0  0  0  0  0  0
  185.1590  179.1760  147.8550 N   0  0  0  0  0  1  0  0  0  0  0  0
  187.2500  177.5080  146.6430 C   0  0  0  0  0  3  0  0  0  0  0  0
  192.6420  177.6470  140.9450 N   0  0  0  0  0  0  0  0  0  0  0  0
  192.6790  177.1410  139.7660 C   0  0  0  0  0  3  0  0  0  0  0  0
  193.9450  177.1490  138.9810 C   0  0  0  0  0  2  0  0  0  0  0  0
  193.7070  176.6490  137.6760 O   0  0  0  0  0  0  0  0  0  0  0  0
  194.5470  174.4970  137.7360 N   0  0  0  0  0  0  0  0  0  0  0  0
  191.3600  175.5300  135.8950 C   0  0  0  0  0  2  0  0  0  0  0  0
  194.7680  170.4230  136.6080 C   0  0  0  0  0  3  0  0  0  0  0  0
  191.0910  174.8560  137.2320 C   0  0  0  0  0  2  0  0  0  0  0  0
  195.6990  170.9560  137.5100 C   0  0  0  0  0  3  0  0  0  0  0  0
  193.6360  172.5640  136.5240 C   0  0  0  0  0  0  0  0  0  0  0  0
  195.6200  172.2960  137.8950 C   0  0  0  0  0  3  0  0  0  0  0  0
  194.5920  173.1040  137.4000 C   0  0  0  0  0  0  0  0  0  0  0  0
  193.5930  175.2910  137.3500 C   0  0  0  0  0  0  0  0  0  0  0  0
  192.4330  174.6950  136.5580 C   0  0  0  0  0  0  0  0  0  0  0  0
  193.7340  171.2290  136.1140 C   0  0  0  0  0  3  0  0  0  0  0  0
  192.6050  173.3740  136.0490 O   0  0  0  0  0  0  0  0  0  0  0  0
  188.5350  176.9470  140.0170 O   0  0  0  0  0  0  0  0  0  0  0  0
  189.6400  177.9800  138.2220 O   0  0  0  0  0  0  0  0  0  0  0  0
  188.3460  178.5440  138.2360 C   0  0  2  0  0  3  0  0  0  0  0  0
  189.0490  178.1570  139.4930 C   0  0  1  0  0  3  0  0  0  0  0  0
  187.4240  177.5820  137.7990 O   0  0  0  0  0  0  0  0  0  0  0  0
  186.3370  178.3300  137.3470 C   0  0  0  0  0  2  0  0  0  0  0  0
  185.1120  178.0300  138.1910 C   0  0  0  0  0  2  0  0  0  0  0  0
  184.1070  177.1940  137.3960 C   0  0  2  0  0  3  0  0  0  0  0  0
  182.3320  177.8540  135.6940 C   0  0  0  0  0  1  0  0  0  0  0  0
  182.7510  177.8770  137.1590 C   0  0  2  0  0  3  0  0  0  0  0  0
  182.6430  179.1590  137.7780 O   0  0  0  0  0  0  0  0  0  0  0  0
  180.3660  178.8790  138.3600 C   0  0  0  0  0  2  0  0  0  0  0  0
  181.4150  179.6760  138.1930 C   0  0  0  0  0  3  0  0  0  0  0  0
  183.9350  175.7700  137.9510 C   0  0  2  0  0  3  0  0  0  0  0  0
  185.4600  174.9370  136.1020 C   0  0  0  0  0  1  0  0  0  0  0  0
  184.2320  174.6290  136.9450 C   0  0  0  0  0  3  0  0  0  0  0  0
  184.3610  173.2600  137.5980 C   0  0  0  0  0  1  0  0  0  0  0  0
  182.6750  175.6270  138.7640 C   0  0  0  0  0  0  0  0  0  0  0  0
  182.6570  176.0710  139.9450 O   0  0  0  0  0  0  0  0  0  0  0  0
  181.5300  175.0460  138.2160 O   0  0  0  0  0  0  0  0  0  0  0  0
  180.2660  175.1460  138.8600 C   0  0  0  0  0  1  0  0  0  0  0  0
  1 16  2  0  0  0  0
  1 20  1  0  0  0  0
  2 11  1  0  0  0  0
  2 22  2  0  0  0  0
  3 19  1  1  0  0  0
  3 18  1  0  0  0  0
  4  2  1  0  0  0  0
  5  1  1  0  0  0  0
  6  9  1  1  0  0  0
  6  8  1  0  0  0  0
  7 17  2  0  0  0  0
  7 22  1  0  0  0  0
  8 14  1  0  0  0  0
 10 13  1  0  0  0  0
 10 15  1  0  0  0  0
 12  4  2  0  0  0  0
 12 16  1  0  0  0  0
 13 39  1  6  0  0  0
 13  3  1  0  0  0  0
 14 11  2  0  0  0  0
 15 23  1  6  0  0  0
 15  6  1  0  0  0  0
 16  7  1  0  0  0  0
 17 21  1  0  0  0  0
 18  8  2  0  0  0  0
 18  4  1  0  0  0  0
 19 12  1  0  0  0  0
 20 17  1  0  0  0  0
 24 23  2  0  0  0  0
 25 24  1  0  0  0  0
 26 25  1  0  0  0  0
 28 36  1  0  0  0  0
 28 30  1  0  0  0  0
 29 31  1  0  0  0  0
 31 33  2  0  0  0  0
 32 34  2  0  0  0  0
 34 27  1  0  0  0  0
 34 33  1  0  0  0  0
 35 26  1  0  0  0  0
 35 27  2  0  0  0  0
 36 30  1  0  0  0  0
 36 35  1  0  0  0  0
 37 32  1  0  0  0  0
 37 29  2  0  0  0  0
 38 32  1  0  0  0  0
 38 36  1  0  0  0  0
 40 41  1  0  0  0  0
 40 42  1  0  0  0  0
 41 43  1  6  0  0  0
 41 42  1  0  0  0  0
 42 39  1  6  0  0  0
 44 43  1  0  0  0  0
 44 45  1  0  0  0  0
 46 52  1  0  0  0  0
 46 45  1  1  0  0  0
 48 47  1  6  0  0  0
 48 46  1  0  0  0  0
 48 49  1  0  0  0  0
 49 51  1  0  0  0  0
 51 50  2  0  0  0  0
 52 54  1  6  0  0  0
 52 56  1  0  0  0  0
 53 54  1  0  0  0  0
 54 55  1  0  0  0  0
 56 57  2  0  0  0  0
 58 56  1  0  0  0  0
 58 59  1  0  0  0  0
M  END
>  <MODEL>
9

>  <REMARK>
 VINA RESULT:      -6.8      2.637      8.463
  Name = 
  17 active torsions:
  status: ('A' for Active; 'I' for Inactive)
    1  A    between atoms: O_3  and  C_44
    2  A    between atoms: C_4  and  O_26
    3  A    between atoms: C_4  and  C_35
    4  A    between atoms: O_7  and  C_13
    5  A    between atoms: O_7  and  C_57
    6  A    between atoms: C_13  and  C_27
    7  A    between atoms: C_14  and  C_27
    8  A    between atoms: C_14  and  C_44
    9  A    between atoms: C_14  and  C_53
   10  A    between atoms: C_16  and  O_26
   11  A    between atoms: C_18  and  O_50
   12  A    between atoms: C_27  and  C_35
   13  A    between atoms: O_31  and  C_38
   14  A    between atoms: O_31  and  C_51
   15  A    between atoms: C_36  and  O_50
   16  A    between atoms: N_42  and  C_43
   17  A    between atoms: C_51  and  C_54
                            x       y       z     vdW  Elec       q    Type
                         _______ _______ _______ _____ _____    ______ ____

>  <TORSDO>
F 17

$$$$
