=
 OpenBabel11032419383D

 49 54  0  0  1  0  0  0  0  0999 V2000
  184.7060  178.6600  143.6380 C   0  0  0  0  0  2  0  0  0  0  0  0
  189.1640  177.2390  141.1470 C   0  0  0  0  0  0  0  0  0  0  0  0
  186.7180  178.2890  141.9960 C   0  0  0  0  0  0  0  0  0  0  0  0
  188.5410  178.2740  140.4540 C   0  0  0  0  0  3  0  0  0  0  0  0
  185.3310  178.8500  142.2590 C   0  0  1  0  0  3  0  0  0  0  0  0
  186.0770  178.1210  145.6180 C   0  0  1  0  0  3  0  0  0  0  0  0
  186.8120  176.7290  144.0320 C   0  0  0  0  0  2  0  0  0  0  0  0
  185.5460  179.2630  144.7500 C   0  0  0  0  0  2  0  0  0  0  0  0
  187.3330  177.2450  142.7330 C   0  0  0  0  0  0  0  0  0  0  0  0
  187.2390  177.5800  145.0570 O   0  0  0  0  0  0  0  0  0  0  0  0
  188.5600  176.7420  142.2980 C   0  0  0  0  0  3  0  0  0  0  0  0
  187.3510  178.7610  140.8850 N   0  0  0  0  0  0  0  0  0  0  0  0
  183.3770  177.5190  141.3850 C   0  0  0  0  0  3  0  0  0  0  0  0
  184.3830  178.3830  141.2000 C   0  0  0  0  0  0  0  0  0  0  0  0
  183.1010  178.2230  139.3430 C   0  0  0  0  0  0  0  0  0  0  0  0
  181.0380  178.9240  137.4810 Cl  0  0  0  0  0  0  0  0  0  0  0  0
  183.2110  180.2810  138.5070 C   0  0  0  0  0  3  0  0  0  0  0  0
  184.2660  180.1360  139.4760 N   0  0  0  0  0  0  0  0  0  0  0  0
  182.5250  177.4740  140.2250 N   0  0  0  0  0  0  0  0  0  0  0  0
  184.2190  178.9050  139.8580 C   0  0  0  0  0  0  0  0  0  0  0  0
  182.4820  179.1650  138.4380 C   0  0  0  0  0  0  0  0  0  0  0  0
  186.3820  178.6250  147.0190 C   0  0  0  0  0  2  0  0  0  0  0  0
  187.2260  177.6030  147.7690 C   0  0  0  0  0  2  0  0  0  0  0  0
  188.5890  178.1800  148.1180 C   0  0  0  0  0  2  0  0  0  0  0  0
  190.8980  177.9640  145.1140 C   0  0  0  0  0  0  0  0  0  0  0  0
  190.3930  176.5530  147.4810 C   0  0  0  0  0  3  0  0  0  0  0  0
  191.6430  176.8190  145.4180 C   0  0  0  0  0  3  0  0  0  0  0  0
  191.1670  178.7190  143.8590 C   0  0  0  0  0  1  0  0  0  0  0  0
  189.6450  177.6980  147.1760 C   0  0  0  0  0  0  0  0  0  0  0  0
  189.9020  178.4040  145.9930 C   0  0  0  0  0  3  0  0  0  0  0  0
  191.3900  176.1130  146.6000 C   0  0  0  0  0  3  0  0  0  0  0  0
  190.4170  176.6960  140.7130 N   0  0  0  0  0  2  0  0  0  0  0  0
  191.5910  177.5160  140.4530 C   0  0  0  0  0  2  0  0  0  0  0  0
  192.3030  177.0260  139.2400 C   0  0  0  0  0  0  0  0  0  0  0  0
  193.5630  177.0540  139.2060 O   0  0  0  0  0  0  0  0  0  0  0  0
  191.5540  176.5160  138.1280 N   0  0  0  0  0  2  0  0  0  0  0  0
  192.1850  176.0010  136.9220 C   0  0  0  0  0  2  0  0  0  0  0  0
  192.1370  174.4810  136.9190 C   0  0  0  0  0  2  0  0  0  0  0  0
  190.9700  174.0190  137.6500 N   0  0  0  0  0  2  0  0  0  0  0  0
  189.9560  173.6480  136.6710 C   0  0  0  0  0  2  0  0  0  0  0  0
  188.8060  174.5260  136.7890 N   0  0  0  0  0  2  0  0  0  0  0  0
  188.2300  175.1350  135.6300 C   0  0  0  0  0  3  0  0  0  0  0  0
  186.9230  175.3870  135.5470 C   0  0  0  0  0  3  0  0  0  0  0  0
  185.9700  175.0720  136.6570 C   0  0  0  0  0  2  0  0  0  0  0  0
  183.8060  174.6050  138.0790 O   0  0  0  0  0  1  0  0  0  0  0  0
  184.2750  173.4820  137.3890 C   0  0  2  0  0  0  0  0  0  0  0  0
  183.2690  172.4890  136.8450 C   0  0  0  0  0  1  0  0  0  0  0  0
  185.6090  173.0160  137.7190 C   0  0  0  0  0  2  0  0  0  0  0  0
  185.3890  173.7490  136.4520 N   0  0  0  0  0  0  0  0  0  0  0  0
  1  8  1  0  0  0  0
  2 11  1  0  0  0  0
  3  5  1  0  0  0  0
  3  9  1  0  0  0  0
  4 12  1  0  0  0  0
  4  2  2  0  0  0  0
  5 14  1  6  0  0  0
  5  1  1  0  0  0  0
  6 22  1  1  0  0  0
  7 10  1  0  0  0  0
  8  6  1  0  0  0  0
  9  7  1  0  0  0  0
 10  6  1  0  0  0  0
 11  9  2  0  0  0  0
 12  3  2  0  0  0  0
 14 13  1  0  0  0  0
 15 20  1  0  0  0  0
 15 19  1  0  0  0  0
 16 21  1  0  0  0  0
 17 18  2  0  0  0  0
 18 20  1  0  0  0  0
 19 13  2  0  0  0  0
 20 14  2  0  0  0  0
 21 17  1  0  0  0  0
 21 15  2  0  0  0  0
 22 23  1  0  0  0  0
 23 24  1  0  0  0  0
 25 27  2  0  0  0  0
 25 30  1  0  0  0  0
 27 31  1  0  0  0  0
 28 25  1  0  0  0  0
 29 26  1  0  0  0  0
 29 24  1  0  0  0  0
 30 29  2  0  0  0  0
 31 26  2  0  0  0  0
 32  2  1  0  0  0  0
 33 32  1  0  0  0  0
 34 33  1  0  0  0  0
 35 34  2  0  0  0  0
 36 34  1  0  0  0  0
 37 36  1  0  0  0  0
 38 37  1  0  0  0  0
 38 39  1  0  0  0  0
 40 41  1  0  0  0  0
 40 39  1  0  0  0  0
 42 41  1  0  0  0  0
 43 42  2  0  0  0  0
 43 44  1  0  0  0  0
 46 47  1  6  0  0  0
 46 48  1  0  0  0  0
 46 45  1  0  0  0  0
 49 44  1  0  0  0  0
 49 46  1  0  0  0  0
 49 48  1  0  0  0  0
M  END
>  <MODEL>
1

>  <REMARK>
 VINA RESULT:      -8.4      0.000      0.000
  Name = 
  16 active torsions:
  status: ('A' for Active; 'I' for Inactive)
    1  A    between atoms: C_1  and  C_26
    2  A    between atoms: C_1  and  C_41
    3  A    between atoms: C_3  and  N_49
    4  A    between atoms: N_4  and  C_32
    5  A    between atoms: N_4  and  C_47
    6  A    between atoms: C_9  and  C_14
    7  A    between atoms: N_17  and  C_27
    8  A    between atoms: N_17  and  C_47
    9  A    between atoms: C_19  and  C_38
   10  A    between atoms: N_21  and  C_28
   11  A    between atoms: C_22  and  C_42
   12  A    between atoms: C_28  and  C_32
   13  A    between atoms: C_29  and  C_34
   14  A    between atoms: C_29  and  N_45
   15  A    between atoms: C_38  and  N_49
   16  A    between atoms: C_41  and  C_42
                            x       y       z     vdW  Elec       q    Type
                         _______ _______ _______ _____ _____    ______ ____

>  <TORSDO>
F 16

$$$$
=
 OpenBabel11032419383D

 49 54  0  0  1  0  0  0  0  0999 V2000
  191.5190  176.6520  138.9050 C   0  0  0  0  0  2  0  0  0  0  0  0
  187.8760  173.7890  136.3310 C   0  0  0  0  0  0  0  0  0  0  0  0
  190.1260  174.8520  137.6020 C   0  0  0  0  0  0  0  0  0  0  0  0
  188.9830  172.9960  136.6260 C   0  0  0  0  0  3  0  0  0  0  0  0
  191.4590  175.3260  138.1520 C   0  0  1  0  0  3  0  0  0  0  0  0
  189.4940  177.6910  139.8590 C   0  0  1  0  0  3  0  0  0  0  0  0
  188.8960  177.0980  137.7900 C   0  0  0  0  0  2  0  0  0  0  0  0
  190.6090  176.6770  140.1200 C   0  0  0  0  0  2  0  0  0  0  0  0
  189.0090  175.6830  137.3300 C   0  0  0  0  0  0  0  0  0  0  0  0
  188.4620  177.1050  139.1200 O   0  0  0  0  0  0  0  0  0  0  0  0
  187.8910  175.1300  136.7040 C   0  0  0  0  0  3  0  0  0  0  0  0
  190.0640  173.5400  137.2380 N   0  0  0  0  0  0  0  0  0  0  0  0
  192.5410  176.1460  136.0270 C   0  0  0  0  0  3  0  0  0  0  0  0
  192.4930  175.3070  137.0710 C   0  0  0  0  0  0  0  0  0  0  0  0
  194.3970  175.0160  135.8840 C   0  0  0  0  0  0  0  0  0  0  0  0
  197.1600  175.3350  135.1900 Cl  0  0  0  0  0  0  0  0  0  0  0  0
  195.8620  174.4550  137.4610 C   0  0  0  0  0  3  0  0  0  0  0  0
  194.5390  174.3110  138.0100 N   0  0  0  0  0  0  0  0  0  0  0  0
  193.7860  176.0040  135.3170 N   0  0  0  0  0  0  0  0  0  0  0  0
  193.7300  174.5540  137.0340 C   0  0  0  0  0  0  0  0  0  0  0  0
  195.8020  174.9080  136.2070 C   0  0  0  0  0  0  0  0  0  0  0  0
  188.9390  178.2100  141.1750 C   0  0  0  0  0  2  0  0  0  0  0  0
  188.9780  177.1100  142.2280 C   0  0  0  0  0  2  0  0  0  0  0  0
  187.6070  176.9140  142.8560 C   0  0  0  0  0  2  0  0  0  0  0  0
  186.4290  178.0000  146.2960 C   0  0  0  0  0  0  0  0  0  0  0  0
  188.7990  177.1740  145.0520 C   0  0  0  0  0  3  0  0  0  0  0  0
  187.6130  177.9070  147.0370 C   0  0  0  0  0  3  0  0  0  0  0  0
  185.1670  178.4340  146.9560 C   0  0  0  0  0  1  0  0  0  0  0  0
  187.6150  177.2680  144.3080 C   0  0  0  0  0  0  0  0  0  0  0  0
  186.4300  177.6790  144.9340 C   0  0  0  0  0  3  0  0  0  0  0  0
  188.7970  177.4950  146.4160 C   0  0  0  0  0  3  0  0  0  0  0  0
  186.7210  173.2480  135.6770 N   0  0  0  0  0  2  0  0  0  0  0  0
  185.4130  173.8850  135.7180 C   0  0  0  0  0  2  0  0  0  0  0  0
  184.5100  173.1480  136.6450 C   0  0  0  0  0  0  0  0  0  0  0  0
  184.8580  172.9760  137.8440 O   0  0  0  0  0  0  0  0  0  0  0  0
  183.2500  172.6510  136.1720 N   0  0  0  0  0  2  0  0  0  0  0  0
  182.3100  171.9440  137.0280 C   0  0  0  0  0  2  0  0  0  0  0  0
  180.9160  172.5260  136.8630 C   0  0  0  0  0  2  0  0  0  0  0  0
  180.6780  173.5400  137.8760 N   0  0  0  0  0  2  0  0  0  0  0  0
  180.5940  174.8280  137.1990 C   0  0  0  0  0  2  0  0  0  0  0  0
  181.6960  175.6780  137.6100 N   0  0  0  0  0  2  0  0  0  0  0  0
  182.5630  176.2720  136.6400 C   0  0  0  0  0  3  0  0  0  0  0  0
  183.1250  177.4660  136.8380 C   0  0  0  0  0  3  0  0  0  0  0  0
  182.9090  178.2590  138.0870 C   0  0  0  0  0  2  0  0  0  0  0  0
  184.1530  180.3410  139.1090 O   0  0  0  0  0  1  0  0  0  0  0  0
  184.7080  179.1150  139.4910 C   0  0  2  0  0  0  0  0  0  0  0  0
  185.2890  178.9820  140.8830 C   0  0  0  0  0  1  0  0  0  0  0  0
  185.2250  178.2680  138.4340 C   0  0  0  0  0  2  0  0  0  0  0  0
  183.9350  177.9250  139.0710 N   0  0  0  0  0  0  0  0  0  0  0  0
  1  8  1  0  0  0  0
  2  4  2  0  0  0  0
  2 11  1  0  0  0  0
  3  5  1  0  0  0  0
  4 12  1  0  0  0  0
  5 14  1  6  0  0  0
  5  1  1  0  0  0  0
  6  8  1  0  0  0  0
  6 22  1  1  0  0  0
  7 10  1  0  0  0  0
  9  3  1  0  0  0  0
  9  7  1  0  0  0  0
 10  6  1  0  0  0  0
 11  9  2  0  0  0  0
 12  3  2  0  0  0  0
 13 14  1  0  0  0  0
 15 21  2  0  0  0  0
 15 20  1  0  0  0  0
 16 21  1  0  0  0  0
 17 18  2  0  0  0  0
 19 15  1  0  0  0  0
 19 13  2  0  0  0  0
 20 14  2  0  0  0  0
 20 18  1  0  0  0  0
 21 17  1  0  0  0  0
 22 23  1  0  0  0  0
 23 24  1  0  0  0  0
 24 29  1  0  0  0  0
 25 28  1  0  0  0  0
 25 27  1  0  0  0  0
 26 31  1  0  0  0  0
 29 30  1  0  0  0  0
 29 26  2  0  0  0  0
 30 25  2  0  0  0  0
 31 27  2  0  0  0  0
 32 33  1  0  0  0  0
 32  2  1  0  0  0  0
 33 34  1  0  0  0  0
 34 35  2  0  0  0  0
 36 34  1  0  0  0  0
 36 37  1  0  0  0  0
 38 37  1  0  0  0  0
 38 39  1  0  0  0  0
 40 41  1  0  0  0  0
 40 39  1  0  0  0  0
 42 43  2  0  0  0  0
 42 41  1  0  0  0  0
 43 44  1  0  0  0  0
 44 49  1  0  0  0  0
 45 46  1  0  0  0  0
 46 47  1  1  0  0  0
 48 49  1  0  0  0  0
 48 46  1  0  0  0  0
 49 46  1  0  0  0  0
M  END
>  <MODEL>
2

>  <REMARK>
 VINA RESULT:      -7.8      3.316      8.307
  Name = 
  16 active torsions:
  status: ('A' for Active; 'I' for Inactive)
    1  A    between atoms: C_1  and  C_26
    2  A    between atoms: C_1  and  C_41
    3  A    between atoms: C_3  and  N_49
    4  A    between atoms: N_4  and  C_32
    5  A    between atoms: N_4  and  C_47
    6  A    between atoms: C_9  and  C_14
    7  A    between atoms: N_17  and  C_27
    8  A    between atoms: N_17  and  C_47
    9  A    between atoms: C_19  and  C_38
   10  A    between atoms: N_21  and  C_28
   11  A    between atoms: C_22  and  C_42
   12  A    between atoms: C_28  and  C_32
   13  A    between atoms: C_29  and  C_34
   14  A    between atoms: C_29  and  N_45
   15  A    between atoms: C_38  and  N_49
   16  A    between atoms: C_41  and  C_42
                            x       y       z     vdW  Elec       q    Type
                         _______ _______ _______ _____ _____    ______ ____

>  <TORSDO>
F 16

$$$$
=
 OpenBabel11032419383D

 49 54  0  0  1  0  0  0  0  0999 V2000
  183.9020  177.0240  136.4830 C   0  0  0  0  0  2  0  0  0  0  0  0
  183.8950  178.5490  141.5590 C   0  0  0  0  0  0  0  0  0  0  0  0
  184.3890  178.0180  138.8610 C   0  0  0  0  0  0  0  0  0  0  0  0
  184.9180  179.1960  140.8700 C   0  0  0  0  0  3  0  0  0  0  0  0
  184.8570  177.7220  137.4470 C   0  0  1  0  0  3  0  0  0  0  0  0
  181.4650  176.9900  136.8740 C   0  0  1  0  0  3  0  0  0  0  0  0
  182.3560  176.4500  138.8500 C   0  0  0  0  0  2  0  0  0  0  0  0
  182.6130  177.8000  136.2710 C   0  0  0  0  0  2  0  0  0  0  0  0
  183.3300  177.3520  139.5300 C   0  0  0  0  0  0  0  0  0  0  0  0
  181.3640  177.2300  138.2480 O   0  0  0  0  0  0  0  0  0  0  0  0
  183.0920  177.6410  140.8750 C   0  0  0  0  0  3  0  0  0  0  0  0
  185.1390  178.9150  139.5620 N   0  0  0  0  0  0  0  0  0  0  0  0
  186.3850  175.7680  136.9950 C   0  0  0  0  0  3  0  0  0  0  0  0
  186.1640  176.9950  137.4850 C   0  0  0  0  0  0  0  0  0  0  0  0
  188.3650  176.4750  137.5630 C   0  0  0  0  0  0  0  0  0  0  0  0
  191.0980  176.3930  136.7040 Cl  0  0  0  0  0  0  0  0  0  0  0  0
  189.3340  178.4490  137.2290 C   0  0  0  0  0  3  0  0  0  0  0  0
  187.9550  178.6820  137.5710 N   0  0  0  0  0  0  0  0  0  0  0  0
  187.7940  175.4710  136.9830 N   0  0  0  0  0  0  0  0  0  0  0  0
  187.4650  177.5200  137.8460 C   0  0  0  0  0  0  0  0  0  0  0  0
  189.5900  177.1400  137.1830 C   0  0  0  0  0  0  0  0  0  0  0  0
  180.1530  177.3580  136.2000 C   0  0  0  0  0  2  0  0  0  0  0  0
  179.5430  178.5770  136.8790 C   0  0  0  0  0  2  0  0  0  0  0  0
  179.4530  179.7460  135.9110 C   0  0  0  0  0  2  0  0  0  0  0  0
  180.7690  183.2920  136.2230 C   0  0  0  0  0  0  0  0  0  0  0  0
  180.7730  180.9130  137.7020 C   0  0  0  0  0  3  0  0  0  0  0  0
  181.4020  183.2440  137.4700 C   0  0  0  0  0  3  0  0  0  0  0  0
  180.7610  184.5560  135.4380 C   0  0  0  0  0  1  0  0  0  0  0  0
  180.1410  180.9590  136.4520 C   0  0  0  0  0  0  0  0  0  0  0  0
  180.1370  182.1510  135.7160 C   0  0  0  0  0  3  0  0  0  0  0  0
  181.4050  182.0560  138.2090 C   0  0  0  0  0  3  0  0  0  0  0  0
  183.6400  178.8170  142.9440 N   0  0  0  0  0  2  0  0  0  0  0  0
  184.5810  179.5190  143.8040 C   0  0  0  0  0  2  0  0  0  0  0  0
  185.5060  178.5500  144.4560 C   0  0  0  0  0  0  0  0  0  0  0  0
  186.0040  177.6130  143.7750 O   0  0  0  0  0  0  0  0  0  0  0  0
  185.8320  178.6960  145.8450 N   0  0  0  0  0  2  0  0  0  0  0  0
  186.7450  177.8010  146.5390 C   0  0  0  0  0  2  0  0  0  0  0  0
  187.2030  178.4330  147.8440 C   0  0  0  0  0  2  0  0  0  0  0  0
  188.2440  177.6210  148.4510 N   0  0  0  0  0  2  0  0  0  0  0  0
  188.9790  176.9710  147.3730 C   0  0  0  0  0  2  0  0  0  0  0  0
  190.4000  177.2340  147.5120 N   0  0  0  0  0  2  0  0  0  0  0  0
  191.3660  176.2950  147.0310 C   0  0  0  0  0  3  0  0  0  0  0  0
  191.7660  176.2890  145.7590 C   0  0  0  0  0  3  0  0  0  0  0  0
  191.2530  177.2670  144.7500 C   0  0  0  0  0  2  0  0  0  0  0  0
  189.6150  178.1750  142.9000 O   0  0  0  0  0  1  0  0  0  0  0  0
  190.4990  177.1970  142.4330 C   0  0  2  0  0  0  0  0  0  0  0  0
  191.0190  177.3030  141.0150 C   0  0  0  0  0  1  0  0  0  0  0  0
  190.4190  175.8870  143.0510 C   0  0  0  0  0  2  0  0  0  0  0  0
  191.5410  176.7860  143.4010 N   0  0  0  0  0  0  0  0  0  0  0  0
  1  5  1  0  0  0  0
  2 32  1  0  0  0  0
  3  9  1  0  0  0  0
  3 12  2  0  0  0  0
  4  2  2  0  0  0  0
  5 14  1  1  0  0  0
  5  3  1  0  0  0  0
  6 22  1  6  0  0  0
  6 10  1  0  0  0  0
  7  9  1  0  0  0  0
  8  1  1  0  0  0  0
  8  6  1  0  0  0  0
  9 11  2  0  0  0  0
 10  7  1  0  0  0  0
 11  2  1  0  0  0  0
 12  4  1  0  0  0  0
 13 14  1  0  0  0  0
 14 20  2  0  0  0  0
 15 20  1  0  0  0  0
 16 21  1  0  0  0  0
 17 18  2  0  0  0  0
 18 20  1  0  0  0  0
 19 13  2  0  0  0  0
 19 15  1  0  0  0  0
 21 17  1  0  0  0  0
 21 15  2  0  0  0  0
 22 23  1  0  0  0  0
 24 29  1  0  0  0  0
 24 23  1  0  0  0  0
 25 27  1  0  0  0  0
 26 31  1  0  0  0  0
 27 31  2  0  0  0  0
 28 25  1  0  0  0  0
 29 26  2  0  0  0  0
 30 25  2  0  0  0  0
 30 29  1  0  0  0  0
 32 33  1  0  0  0  0
 33 34  1  0  0  0  0
 34 36  1  0  0  0  0
 35 34  2  0  0  0  0
 36 37  1  0  0  0  0
 37 38  1  0  0  0  0
 38 39  1  0  0  0  0
 40 41  1  0  0  0  0
 40 39  1  0  0  0  0
 42 41  1  0  0  0  0
 43 42  2  0  0  0  0
 44 43  1  0  0  0  0
 46 47  1  6  0  0  0
 46 45  1  0  0  0  0
 46 48  1  0  0  0  0
 46 49  1  0  0  0  0
 48 49  1  0  0  0  0
 49 44  1  0  0  0  0
M  END
>  <MODEL>
3

>  <REMARK>
 VINA RESULT:      -7.8      3.343      9.841
  Name = 
  16 active torsions:
  status: ('A' for Active; 'I' for Inactive)
    1  A    between atoms: C_1  and  C_26
    2  A    between atoms: C_1  and  C_41
    3  A    between atoms: C_3  and  N_49
    4  A    between atoms: N_4  and  C_32
    5  A    between atoms: N_4  and  C_47
    6  A    between atoms: C_9  and  C_14
    7  A    between atoms: N_17  and  C_27
    8  A    between atoms: N_17  and  C_47
    9  A    between atoms: C_19  and  C_38
   10  A    between atoms: N_21  and  C_28
   11  A    between atoms: C_22  and  C_42
   12  A    between atoms: C_28  and  C_32
   13  A    between atoms: C_29  and  C_34
   14  A    between atoms: C_29  and  N_45
   15  A    between atoms: C_38  and  N_49
   16  A    between atoms: C_41  and  C_42
                            x       y       z     vdW  Elec       q    Type
                         _______ _______ _______ _____ _____    ______ ____

>  <TORSDO>
F 16

$$$$
=
 OpenBabel11032419383D

 49 54  0  0  1  0  0  0  0  0999 V2000
  190.2490  176.6680  136.8130 C   0  0  0  0  0  2  0  0  0  0  0  0
  191.2630  177.2890  141.9780 C   0  0  0  0  0  0  0  0  0  0  0  0
  191.2860  177.0040  139.1990 C   0  0  0  0  0  0  0  0  0  0  0  0
  192.4140  177.5400  141.2340 C   0  0  0  0  0  3  0  0  0  0  0  0
  191.4780  176.7490  137.7140 C   0  0  1  0  0  3  0  0  0  0  0  0
  188.0720  177.6050  137.5050 C   0  0  1  0  0  3  0  0  0  0  0  0
  188.7790  176.4560  139.2860 C   0  0  0  0  0  2  0  0  0  0  0  0
  189.4130  177.9360  136.8480 C   0  0  0  0  0  2  0  0  0  0  0  0
  190.0930  176.7550  139.9260 C   0  0  0  0  0  0  0  0  0  0  0  0
  188.1830  177.6610  138.8980 O   0  0  0  0  0  0  0  0  0  0  0  0
  190.1000  176.9140  141.3120 C   0  0  0  0  0  3  0  0  0  0  0  0
  192.3980  177.3880  139.8870 N   0  0  0  0  0  0  0  0  0  0  0  0
  191.8940  174.2950  137.3160 C   0  0  0  0  0  3  0  0  0  0  0  0
  192.3390  175.5430  137.5110 C   0  0  0  0  0  0  0  0  0  0  0  0
  194.0440  174.1470  136.9960 C   0  0  0  0  0  0  0  0  0  0  0  0
  195.9700  172.8180  135.3410 Cl  0  0  0  0  0  0  0  0  0  0  0  0
  195.4190  175.4720  135.8560 C   0  0  0  0  0  3  0  0  0  0  0  0
  194.4770  176.3050  136.5580 N   0  0  0  0  0  0  0  0  0  0  0  0
  192.9730  173.4270  136.9210 N   0  0  0  0  0  0  0  0  0  0  0  0
  193.7680  175.4990  137.2740 C   0  0  0  0  0  0  0  0  0  0  0  0
  195.1560  174.1830  136.0740 C   0  0  0  0  0  0  0  0  0  0  0  0
  187.0060  178.5850  137.0450 C   0  0  0  0  0  2  0  0  0  0  0  0
  185.7570  177.8300  136.6090 C   0  0  0  0  0  2  0  0  0  0  0  0
  186.1190  176.6640  135.7030 C   0  0  0  0  0  2  0  0  0  0  0  0
  186.7130  173.1610  137.0360 C   0  0  0  0  0  0  0  0  0  0  0  0
  184.6830  175.0910  137.0340 C   0  0  0  0  0  3  0  0  0  0  0  0
  185.5000  172.9010  137.6830 C   0  0  0  0  0  3  0  0  0  0  0  0
  187.7960  172.1390  137.0400 C   0  0  0  0  0  1  0  0  0  0  0  0
  185.8970  175.3520  136.3840 C   0  0  0  0  0  0  0  0  0  0  0  0
  186.9120  174.3860  136.3890 C   0  0  0  0  0  3  0  0  0  0  0  0
  184.4850  173.8640  137.6810 C   0  0  0  0  0  3  0  0  0  0  0  0
  191.2490  177.4320  143.4040 N   0  0  0  0  0  2  0  0  0  0  0  0
  191.7000  176.3880  144.3130 C   0  0  0  0  0  2  0  0  0  0  0  0
  191.2300  176.6730  145.6970 C   0  0  0  0  0  0  0  0  0  0  0  0
  192.0750  176.9120  146.6020 O   0  0  0  0  0  0  0  0  0  0  0  0
  189.8260  176.6850  145.9890 N   0  0  0  0  0  2  0  0  0  0  0  0
  189.2970  176.9780  147.3120 C   0  0  0  0  0  2  0  0  0  0  0  0
  188.2340  178.0600  147.2200 C   0  0  0  0  0  2  0  0  0  0  0  0
  187.0650  177.5510  146.5230 N   0  0  0  0  0  2  0  0  0  0  0  0
  187.2000  177.9120  145.1180 C   0  0  0  0  0  2  0  0  0  0  0  0
  185.9160  177.7960  144.4500 N   0  0  0  0  0  2  0  0  0  0  0  0
  184.8840  178.7590  144.6800 C   0  0  0  0  0  3  0  0  0  0  0  0
  183.9780  179.0530  143.7450 C   0  0  0  0  0  3  0  0  0  0  0  0
  183.9610  178.3910  142.4040 C   0  0  0  0  0  2  0  0  0  0  0  0
  183.4940  177.5390  139.9580 O   0  0  0  0  0  1  0  0  0  0  0  0
  184.1100  178.7940  140.0050 C   0  0  2  0  0  0  0  0  0  0  0  0
  183.7490  179.8210  138.9530 C   0  0  0  0  0  1  0  0  0  0  0  0
  185.4170  178.8640  140.6310 C   0  0  0  0  0  2  0  0  0  0  0  0
  184.2350  179.3750  141.3600 N   0  0  0  0  0  0  0  0  0  0  0  0
  1  8  1  0  0  0  0
  1  5  1  0  0  0  0
  2 32  1  0  0  0  0
  3 12  2  0  0  0  0
  3  9  1  0  0  0  0
  4  2  2  0  0  0  0
  5 14  1  1  0  0  0
  5  3  1  0  0  0  0
  6 22  1  6  0  0  0
  6 10  1  0  0  0  0
  7  9  1  0  0  0  0
  8  6  1  0  0  0  0
  9 11  2  0  0  0  0
 10  7  1  0  0  0  0
 11  2  1  0  0  0  0
 12  4  1  0  0  0  0
 13 14  1  0  0  0  0
 15 20  1  0  0  0  0
 16 21  1  0  0  0  0
 17 21  1  0  0  0  0
 17 18  2  0  0  0  0
 18 20  1  0  0  0  0
 19 15  1  0  0  0  0
 19 13  2  0  0  0  0
 20 14  2  0  0  0  0
 21 15  2  0  0  0  0
 23 22  1  0  0  0  0
 24 29  1  0  0  0  0
 24 23  1  0  0  0  0
 25 28  1  0  0  0  0
 25 27  1  0  0  0  0
 26 31  1  0  0  0  0
 29 30  1  0  0  0  0
 29 26  2  0  0  0  0
 30 25  2  0  0  0  0
 31 27  2  0  0  0  0
 32 33  1  0  0  0  0
 33 34  1  0  0  0  0
 34 36  1  0  0  0  0
 34 35  2  0  0  0  0
 36 37  1  0  0  0  0
 38 37  1  0  0  0  0
 39 38  1  0  0  0  0
 40 39  1  0  0  0  0
 41 42  1  0  0  0  0
 41 40  1  0  0  0  0
 43 42  2  0  0  0  0
 44 43  1  0  0  0  0
 45 46  1  0  0  0  0
 46 47  1  6  0  0  0
 46 48  1  0  0  0  0
 46 49  1  0  0  0  0
 48 49  1  0  0  0  0
 49 44  1  0  0  0  0
M  END
>  <MODEL>
4

>  <REMARK>
 VINA RESULT:      -7.2      3.365      9.261
  Name = 
  16 active torsions:
  status: ('A' for Active; 'I' for Inactive)
    1  A    between atoms: C_1  and  C_26
    2  A    between atoms: C_1  and  C_41
    3  A    between atoms: C_3  and  N_49
    4  A    between atoms: N_4  and  C_32
    5  A    between atoms: N_4  and  C_47
    6  A    between atoms: C_9  and  C_14
    7  A    between atoms: N_17  and  C_27
    8  A    between atoms: N_17  and  C_47
    9  A    between atoms: C_19  and  C_38
   10  A    between atoms: N_21  and  C_28
   11  A    between atoms: C_22  and  C_42
   12  A    between atoms: C_28  and  C_32
   13  A    between atoms: C_29  and  C_34
   14  A    between atoms: C_29  and  N_45
   15  A    between atoms: C_38  and  N_49
   16  A    between atoms: C_41  and  C_42
                            x       y       z     vdW  Elec       q    Type
                         _______ _______ _______ _____ _____    ______ ____

>  <TORSDO>
F 16

$$$$
=
 OpenBabel11032419383D

 49 54  0  0  1  0  0  0  0  0999 V2000
  191.3350  176.7670  139.8590 C   0  0  0  0  0  2  0  0  0  0  0  0
  187.3270  176.3300  136.4180 C   0  0  0  0  0  0  0  0  0  0  0  0
  189.6250  176.0900  137.9880 C   0  0  0  0  0  0  0  0  0  0  0  0
  188.0980  175.1700  136.4010 C   0  0  0  0  0  3  0  0  0  0  0  0
  190.9650  175.8810  138.6720 C   0  0  1  0  0  3  0  0  0  0  0  0
  189.6230  178.0100  141.1300 C   0  0  1  0  0  3  0  0  0  0  0  0
  189.1230  178.4010  138.9870 C   0  0  0  0  0  2  0  0  0  0  0  0
  190.3380  176.6640  141.0000 C   0  0  0  0  0  2  0  0  0  0  0  0
  188.8550  177.2800  138.0410 C   0  0  0  0  0  0  0  0  0  0  0  0
  188.5570  178.0870  140.2280 O   0  0  0  0  0  0  0  0  0  0  0  0
  187.7030  177.3750  137.2570 C   0  0  0  0  0  3  0  0  0  0  0  0
  189.2120  175.0820  137.1690 N   0  0  0  0  0  0  0  0  0  0  0  0
  193.0920  176.7620  137.6440 C   0  0  0  0  0  3  0  0  0  0  0  0
  192.0640  175.9030  137.6580 C   0  0  0  0  0  0  0  0  0  0  0  0
  193.5750  175.3340  136.0720 C   0  0  0  0  0  0  0  0  0  0  0  0
  195.8050  173.9570  134.9120 Cl  0  0  0  0  0  0  0  0  0  0  0  0
  193.4410  173.1140  136.0590 C   0  0  0  0  0  3  0  0  0  0  0  0
  192.2850  173.6260  136.7480 N   0  0  0  0  0  0  0  0  0  0  0  0
  194.0820  176.3550  136.6810 N   0  0  0  0  0  0  0  0  0  0  0  0
  192.3610  174.9100  136.6450 C   0  0  0  0  0  0  0  0  0  0  0  0
  194.2400  174.1130  135.6800 C   0  0  0  0  0  0  0  0  0  0  0  0
  189.0990  178.1910  142.5450 C   0  0  0  0  0  2  0  0  0  0  0  0
  188.0410  177.1390  142.8480 C   0  0  0  0  0  2  0  0  0  0  0  0
  187.9140  176.9160  144.3470 C   0  0  0  0  0  2  0  0  0  0  0  0
  184.5310  178.6210  144.5620 C   0  0  0  0  0  0  0  0  0  0  0  0
  186.6040  177.8440  146.2780 C   0  0  0  0  0  3  0  0  0  0  0  0
  184.4290  178.8630  145.9370 C   0  0  0  0  0  3  0  0  0  0  0  0
  183.4290  179.0290  143.6490 C   0  0  0  0  0  1  0  0  0  0  0  0
  186.7080  177.6020  144.9020 C   0  0  0  0  0  0  0  0  0  0  0  0
  185.6680  177.9900  144.0460 C   0  0  0  0  0  3  0  0  0  0  0  0
  185.4650  178.4760  146.7950 C   0  0  0  0  0  3  0  0  0  0  0  0
  186.1480  176.4580  135.6120 N   0  0  0  0  0  2  0  0  0  0  0  0
  184.9560  177.1660  136.0540 C   0  0  0  0  0  2  0  0  0  0  0  0
  183.9900  176.2140  136.6700 C   0  0  0  0  0  0  0  0  0  0  0  0
  184.3380  175.0180  136.8680 O   0  0  0  0  0  0  0  0  0  0  0  0
  182.6800  176.6640  137.0430 N   0  0  0  0  0  2  0  0  0  0  0  0
  181.6960  175.7950  137.6690 C   0  0  0  0  0  2  0  0  0  0  0  0
  180.3070  176.1180  137.1420 C   0  0  0  0  0  2  0  0  0  0  0  0
  179.4610  176.5880  138.2260 N   0  0  0  0  0  2  0  0  0  0  0  0
  180.0700  176.1550  139.4780 C   0  0  0  0  0  2  0  0  0  0  0  0
  179.9670  177.2090  140.4710 N   0  0  0  0  0  2  0  0  0  0  0  0
  181.1190  177.9620  140.8590 C   0  0  0  0  0  3  0  0  0  0  0  0
  181.2390  179.2590  140.5710 C   0  0  0  0  0  3  0  0  0  0  0  0
  180.1780  180.0230  139.8430 C   0  0  0  0  0  2  0  0  0  0  0  0
  179.8100  180.0160  137.2380 O   0  0  0  0  0  1  0  0  0  0  0  0
  180.6760  181.0220  137.6770 C   0  0  2  0  0  0  0  0  0  0  0  0
  180.6670  182.3550  136.9580 C   0  0  0  0  0  1  0  0  0  0  0  0
  181.8890  180.6000  138.3510 C   0  0  0  0  0  2  0  0  0  0  0  0
  180.7740  181.1600  139.1470 N   0  0  0  0  0  0  0  0  0  0  0  0
  1  8  1  0  0  0  0
  2 11  1  0  0  0  0
  3  9  1  0  0  0  0
  3  5  1  0  0  0  0
  4  2  2  0  0  0  0
  4 12  1  0  0  0  0
  5 14  1  6  0  0  0
  5  1  1  0  0  0  0
  6 22  1  1  0  0  0
  7 10  1  0  0  0  0
  8  6  1  0  0  0  0
  9  7  1  0  0  0  0
 10  6  1  0  0  0  0
 11  9  2  0  0  0  0
 12  3  2  0  0  0  0
 13 14  1  0  0  0  0
 15 20  1  0  0  0  0
 15 19  1  0  0  0  0
 16 21  1  0  0  0  0
 17 18  2  0  0  0  0
 19 13  2  0  0  0  0
 20 18  1  0  0  0  0
 20 14  2  0  0  0  0
 21 17  1  0  0  0  0
 21 15  2  0  0  0  0
 22 23  1  0  0  0  0
 23 24  1  0  0  0  0
 24 29  1  0  0  0  0
 25 27  1  0  0  0  0
 26 31  1  0  0  0  0
 27 31  2  0  0  0  0
 28 25  1  0  0  0  0
 29 26  2  0  0  0  0
 30 25  2  0  0  0  0
 30 29  1  0  0  0  0
 32 33  1  0  0  0  0
 32  2  1  0  0  0  0
 33 34  1  0  0  0  0
 34 35  2  0  0  0  0
 34 36  1  0  0  0  0
 36 37  1  0  0  0  0
 38 37  1  0  0  0  0
 38 39  1  0  0  0  0
 39 40  1  0  0  0  0
 40 41  1  0  0  0  0
 41 42  1  0  0  0  0
 43 42  2  0  0  0  0
 44 43  1  0  0  0  0
 45 46  1  0  0  0  0
 46 47  1  6  0  0  0
 46 48  1  0  0  0  0
 46 49  1  0  0  0  0
 48 49  1  0  0  0  0
 49 44  1  0  0  0  0
M  END
>  <MODEL>
5

>  <REMARK>
 VINA RESULT:      -6.9      3.456      8.513
  Name = 
  16 active torsions:
  status: ('A' for Active; 'I' for Inactive)
    1  A    between atoms: C_1  and  C_26
    2  A    between atoms: C_1  and  C_41
    3  A    between atoms: C_3  and  N_49
    4  A    between atoms: N_4  and  C_32
    5  A    between atoms: N_4  and  C_47
    6  A    between atoms: C_9  and  C_14
    7  A    between atoms: N_17  and  C_27
    8  A    between atoms: N_17  and  C_47
    9  A    between atoms: C_19  and  C_38
   10  A    between atoms: N_21  and  C_28
   11  A    between atoms: C_22  and  C_42
   12  A    between atoms: C_28  and  C_32
   13  A    between atoms: C_29  and  C_34
   14  A    between atoms: C_29  and  N_45
   15  A    between atoms: C_38  and  N_49
   16  A    between atoms: C_41  and  C_42
                            x       y       z     vdW  Elec       q    Type
                         _______ _______ _______ _____ _____    ______ ____

>  <TORSDO>
F 16

$$$$
=
 OpenBabel11032419383D

 49 54  0  0  1  0  0  0  0  0999 V2000
  181.9900  178.4760  136.8600 C   0  0  0  0  0  2  0  0  0  0  0  0
  182.7940  178.6590  142.0960 C   0  0  0  0  0  0  0  0  0  0  0  0
  181.8780  178.8030  139.4600 C   0  0  0  0  0  0  0  0  0  0  0  0
  181.4710  178.9870  141.8060 C   0  0  0  0  0  3  0  0  0  0  0  0
  181.2880  179.0580  138.0840 C   0  0  1  0  0  3  0  0  0  0  0  0
  183.5900  176.6070  137.0510 C   0  0  1  0  0  3  0  0  0  0  0  0
  184.1930  178.0270  138.6670 C   0  0  0  0  0  2  0  0  0  0  0  0
  182.1080  176.9630  136.9170 C   0  0  0  0  0  2  0  0  0  0  0  0
  183.2270  178.4520  139.7210 C   0  0  0  0  0  0  0  0  0  0  0  0
  183.9890  176.6710  138.3900 O   0  0  0  0  0  0  0  0  0  0  0  0
  183.6620  178.3740  141.0460 C   0  0  0  0  0  3  0  0  0  0  0  0
  181.0550  179.0550  140.5170 N   0  0  0  0  0  0  0  0  0  0  0  0
  181.6420  181.5010  138.5960 C   0  0  0  0  0  3  0  0  0  0  0  0
  181.0580  180.5230  137.8910 C   0  0  0  0  0  0  0  0  0  0  0  0
  180.5660  182.5540  137.0230 C   0  0  0  0  0  0  0  0  0  0  0  0
  180.8050  184.8180  135.2810 Cl  0  0  0  0  0  0  0  0  0  0  0  0
  180.4190  182.1200  134.8460 C   0  0  0  0  0  3  0  0  0  0  0  0
  180.3620  180.8680  135.5550 N   0  0  0  0  0  0  0  0  0  0  0  0
  181.3820  182.7840  137.9980 N   0  0  0  0  0  0  0  0  0  0  0  0
  180.3540  181.1790  136.8080 C   0  0  0  0  0  0  0  0  0  0  0  0
  180.5770  183.1340  135.6990 C   0  0  0  0  0  0  0  0  0  0  0  0
  183.8420  175.2060  136.5170 C   0  0  0  0  0  2  0  0  0  0  0  0
  183.9180  174.2140  137.6700 C   0  0  0  0  0  2  0  0  0  0  0  0
  184.7380  172.9940  137.2800 C   0  0  0  0  0  2  0  0  0  0  0  0
  181.6970  171.0570  136.0980 C   0  0  0  0  0  0  0  0  0  0  0  0
  184.4870  170.9180  135.8890 C   0  0  0  0  0  3  0  0  0  0  0  0
  182.2930  170.0230  135.3680 C   0  0  0  0  0  3  0  0  0  0  0  0
  180.2140  171.1360  136.2070 C   0  0  0  0  0  1  0  0  0  0  0  0
  183.8910  171.9530  136.6220 C   0  0  0  0  0  0  0  0  0  0  0  0
  182.4950  172.0220  136.7230 C   0  0  0  0  0  3  0  0  0  0  0  0
  183.6870  169.9520  135.2640 C   0  0  0  0  0  3  0  0  0  0  0  0
  183.2680  178.5870  143.4470 N   0  0  0  0  0  2  0  0  0  0  0  0
  184.2730  179.4900  143.9850 C   0  0  0  0  0  2  0  0  0  0  0  0
  184.9200  178.8860  145.1830 C   0  0  0  0  0  0  0  0  0  0  0  0
  184.2400  178.7030  146.2300 O   0  0  0  0  0  0  0  0  0  0  0  0
  186.3020  178.5050  145.1350 N   0  0  0  0  0  2  0  0  0  0  0  0
  186.9900  177.8890  146.2590 C   0  0  0  0  0  2  0  0  0  0  0  0
  188.4120  177.5230  145.8620 C   0  0  0  0  0  2  0  0  0  0  0  0
  188.4020  176.7690  144.6200 N   0  0  0  0  0  2  0  0  0  0  0  0
  189.3550  177.4010  143.7160 C   0  0  0  0  0  2  0  0  0  0  0  0
  189.4290  176.6550  142.4720 N   0  0  0  0  0  2  0  0  0  0  0  0
  190.3230  177.0570  141.4310 C   0  0  0  0  0  3  0  0  0  0  0  0
  189.8770  177.5510  140.2750 C   0  0  0  0  0  3  0  0  0  0  0  0
  188.4210  177.7390  139.9880 C   0  0  0  0  0  2  0  0  0  0  0  0
  187.5240  176.4910  137.8520 O   0  0  0  0  0  1  0  0  0  0  0  0
  187.9010  177.8160  137.6080 C   0  0  2  0  0  0  0  0  0  0  0  0
  187.1180  178.6210  136.5930 C   0  0  0  0  0  1  0  0  0  0  0  0
  189.2890  178.1620  137.8540 C   0  0  0  0  0  2  0  0  0  0  0  0
  188.2520  178.5940  138.8170 N   0  0  0  0  0  0  0  0  0  0  0  0
  1  8  1  0  0  0  0
  1  5  1  0  0  0  0
  2 32  1  0  0  0  0
  3  9  2  0  0  0  0
  3 12  1  0  0  0  0
  4  2  1  0  0  0  0
  5 14  1  6  0  0  0
  5  3  1  0  0  0  0
  6 22  1  1  0  0  0
  6 10  1  0  0  0  0
  7  9  1  0  0  0  0
  8  6  1  0  0  0  0
  9 11  1  0  0  0  0
 10  7  1  0  0  0  0
 11  2  2  0  0  0  0
 12  4  2  0  0  0  0
 14 13  2  0  0  0  0
 15 19  2  0  0  0  0
 16 21  1  0  0  0  0
 17 18  1  0  0  0  0
 17 21  2  0  0  0  0
 18 20  2  0  0  0  0
 19 13  1  0  0  0  0
 20 15  1  0  0  0  0
 20 14  1  0  0  0  0
 21 15  1  0  0  0  0
 22 23  1  0  0  0  0
 24 23  1  0  0  0  0
 25 28  1  0  0  0  0
 25 30  1  0  0  0  0
 26 29  1  0  0  0  0
 27 25  2  0  0  0  0
 29 30  2  0  0  0  0
 29 24  1  0  0  0  0
 31 27  1  0  0  0  0
 31 26  2  0  0  0  0
 32 33  1  0  0  0  0
 33 34  1  0  0  0  0
 34 35  2  0  0  0  0
 36 34  1  0  0  0  0
 36 37  1  0  0  0  0
 38 37  1  0  0  0  0
 39 38  1  0  0  0  0
 40 39  1  0  0  0  0
 41 40  1  0  0  0  0
 42 41  1  0  0  0  0
 43 42  2  0  0  0  0
 44 43  1  0  0  0  0
 46 47  1  6  0  0  0
 46 45  1  0  0  0  0
 46 48  1  0  0  0  0
 46 49  1  0  0  0  0
 48 49  1  0  0  0  0
 49 44  1  0  0  0  0
M  END
>  <MODEL>
6

>  <REMARK>
 VINA RESULT:      -6.9      2.906      8.835
  Name = 
  16 active torsions:
  status: ('A' for Active; 'I' for Inactive)
    1  A    between atoms: C_1  and  C_26
    2  A    between atoms: C_1  and  C_41
    3  A    between atoms: C_3  and  N_49
    4  A    between atoms: N_4  and  C_32
    5  A    between atoms: N_4  and  C_47
    6  A    between atoms: C_9  and  C_14
    7  A    between atoms: N_17  and  C_27
    8  A    between atoms: N_17  and  C_47
    9  A    between atoms: C_19  and  C_38
   10  A    between atoms: N_21  and  C_28
   11  A    between atoms: C_22  and  C_42
   12  A    between atoms: C_28  and  C_32
   13  A    between atoms: C_29  and  C_34
   14  A    between atoms: C_29  and  N_45
   15  A    between atoms: C_38  and  N_49
   16  A    between atoms: C_41  and  C_42
                            x       y       z     vdW  Elec       q    Type
                         _______ _______ _______ _____ _____    ______ ____

>  <TORSDO>
F 16

$$$$
=
 OpenBabel11032419383D

 49 54  0  0  1  0  0  0  0  0999 V2000
  191.8030  177.0320  140.0690 C   0  0  0  0  0  2  0  0  0  0  0  0
  187.1240  177.2130  137.5840 C   0  0  0  0  0  0  0  0  0  0  0  0
  189.3740  177.5280  139.2110 C   0  0  0  0  0  0  0  0  0  0  0  0
  187.2420  178.2940  138.4550 C   0  0  0  0  0  3  0  0  0  0  0  0
  190.4630  177.7410  140.2470 C   0  0  1  0  0  3  0  0  0  0  0  0
  192.5150  176.1420  137.8800 C   0  0  1  0  0  3  0  0  0  0  0  0
  190.4010  175.4520  138.1040 C   0  0  0  0  0  2  0  0  0  0  0  0
  192.4860  177.3910  138.7610 C   0  0  0  0  0  2  0  0  0  0  0  0
  189.2910  176.4230  138.3240 C   0  0  0  0  0  0  0  0  0  0  0  0
  191.3060  176.0020  137.1890 O   0  0  0  0  0  0  0  0  0  0  0  0
  188.1640  176.2910  137.5120 C   0  0  0  0  0  3  0  0  0  0  0  0
  188.3430  178.4190  139.2370 N   0  0  0  0  0  0  0  0  0  0  0  0
  189.1750  176.4190  141.9650 C   0  0  0  0  0  3  0  0  0  0  0  0
  189.9240  177.4740  141.6160 C   0  0  0  0  0  0  0  0  0  0  0  0
  189.5980  177.4150  143.8550 C   0  0  0  0  0  0  0  0  0  0  0  0
  190.1840  176.8400  146.6010 Cl  0  0  0  0  0  0  0  0  0  0  0  0
  191.5010  178.2620  144.6370 C   0  0  0  0  0  3  0  0  0  0  0  0
  191.4160  178.5780  143.2350 N   0  0  0  0  0  0  0  0  0  0  0  0
  189.0300  176.3490  143.3960 N   0  0  0  0  0  0  0  0  0  0  0  0
  190.2590  178.1510  142.8530 C   0  0  0  0  0  0  0  0  0  0  0  0
  190.4470  177.5390  145.0190 C   0  0  0  0  0  0  0  0  0  0  0  0
  193.6570  176.2300  136.8810 C   0  0  0  0  0  2  0  0  0  0  0  0
  194.1800  174.8360  136.5630 C   0  0  0  0  0  2  0  0  0  0  0  0
  194.7360  174.1690  137.8110 C   0  0  0  0  0  2  0  0  0  0  0  0
  197.6310  171.7870  137.2190 C   0  0  0  0  0  0  0  0  0  0  0  0
  197.2000  174.5410  137.4950 C   0  0  0  0  0  3  0  0  0  0  0  0
  198.7080  172.6760  137.1310 C   0  0  0  0  0  3  0  0  0  0  0  0
  197.8560  170.3230  137.0680 C   0  0  0  0  0  1  0  0  0  0  0  0
  196.1210  173.6520  137.5850 C   0  0  0  0  0  0  0  0  0  0  0  0
  196.3390  172.2750  137.4430 C   0  0  0  0  0  3  0  0  0  0  0  0
  198.4940  174.0520  137.2700 C   0  0  0  0  0  3  0  0  0  0  0  0
  185.9700  177.0470  136.7500 N   0  0  0  0  0  2  0  0  0  0  0  0
  185.4860  175.7460  136.3140 C   0  0  0  0  0  2  0  0  0  0  0  0
  184.4150  175.2620  137.2300 C   0  0  0  0  0  0  0  0  0  0  0  0
  184.0950  174.0430  137.2200 O   0  0  0  0  0  0  0  0  0  0  0  0
  183.7670  176.1800  138.1210 N   0  0  0  0  0  2  0  0  0  0  0  0
  182.7310  175.7720  139.0570 C   0  0  0  0  0  2  0  0  0  0  0  0
  182.2070  176.9820  139.8140 C   0  0  0  0  0  2  0  0  0  0  0  0
  183.1870  178.0540  139.7770 N   0  0  0  0  0  2  0  0  0  0  0  0
  182.8240  179.0170  140.8090 C   0  0  0  0  0  2  0  0  0  0  0  0
  183.3870  178.6130  142.0850 N   0  0  0  0  0  2  0  0  0  0  0  0
  182.7510  178.9800  143.3130 C   0  0  0  0  0  3  0  0  0  0  0  0
  183.4400  179.1120  144.4470 C   0  0  0  0  0  3  0  0  0  0  0  0
  184.9200  178.9080  144.5180 C   0  0  0  0  0  2  0  0  0  0  0  0
  186.5150  177.0900  145.5570 O   0  0  0  0  0  1  0  0  0  0  0  0
  186.1590  178.1000  146.4560 C   0  0  2  0  0  0  0  0  0  0  0  0
  187.1760  178.5520  147.4830 C   0  0  0  0  0  1  0  0  0  0  0  0
  184.7480  178.2460  146.7590 C   0  0  0  0  0  2  0  0  0  0  0  0
  185.4020  179.2240  145.8600 N   0  0  0  0  0  0  0  0  0  0  0  0
  1  5  1  0  0  0  0
  2  4  1  0  0  0  0
  3 12  1  0  0  0  0
  3  5  1  0  0  0  0
  4 12  2  0  0  0  0
  5 14  1  1  0  0  0
  6 22  1  6  0  0  0
  6  8  1  0  0  0  0
  7  9  1  0  0  0  0
  8  1  1  0  0  0  0
  9  3  2  0  0  0  0
 10  6  1  0  0  0  0
 10  7  1  0  0  0  0
 11  2  2  0  0  0  0
 11  9  1  0  0  0  0
 13 19  1  0  0  0  0
 14 13  2  0  0  0  0
 14 20  1  0  0  0  0
 15 21  1  0  0  0  0
 17 21  2  0  0  0  0
 18 17  1  0  0  0  0
 19 15  2  0  0  0  0
 20 18  2  0  0  0  0
 20 15  1  0  0  0  0
 21 16  1  0  0  0  0
 23 22  1  0  0  0  0
 23 24  1  0  0  0  0
 25 30  1  0  0  0  0
 26 29  1  0  0  0  0
 27 25  2  0  0  0  0
 27 31  1  0  0  0  0
 28 25  1  0  0  0  0
 29 24  1  0  0  0  0
 30 29  2  0  0  0  0
 31 26  2  0  0  0  0
 32  2  1  0  0  0  0
 33 32  1  0  0  0  0
 33 34  1  0  0  0  0
 34 36  1  0  0  0  0
 35 34  2  0  0  0  0
 36 37  1  0  0  0  0
 37 38  1  0  0  0  0
 39 38  1  0  0  0  0
 39 40  1  0  0  0  0
 40 41  1  0  0  0  0
 41 42  1  0  0  0  0
 42 43  2  0  0  0  0
 43 44  1  0  0  0  0
 44 49  1  0  0  0  0
 45 46  1  0  0  0  0
 46 48  1  0  0  0  0
 46 47  1  1  0  0  0
 49 46  1  0  0  0  0
 49 48  1  0  0  0  0
M  END
>  <MODEL>
7

>  <REMARK>
 VINA RESULT:      -6.8      3.465      9.455
  Name = 
  16 active torsions:
  status: ('A' for Active; 'I' for Inactive)
    1  A    between atoms: C_1  and  C_26
    2  A    between atoms: C_1  and  C_41
    3  A    between atoms: C_3  and  N_49
    4  A    between atoms: N_4  and  C_32
    5  A    between atoms: N_4  and  C_47
    6  A    between atoms: C_9  and  C_14
    7  A    between atoms: N_17  and  C_27
    8  A    between atoms: N_17  and  C_47
    9  A    between atoms: C_19  and  C_38
   10  A    between atoms: N_21  and  C_28
   11  A    between atoms: C_22  and  C_42
   12  A    between atoms: C_28  and  C_32
   13  A    between atoms: C_29  and  C_34
   14  A    between atoms: C_29  and  N_45
   15  A    between atoms: C_38  and  N_49
   16  A    between atoms: C_41  and  C_42
                            x       y       z     vdW  Elec       q    Type
                         _______ _______ _______ _____ _____    ______ ____

>  <TORSDO>
F 16

$$$$
=
 OpenBabel11032419383D

 49 54  0  0  1  0  0  0  0  0999 V2000
  181.5050  177.5850  137.1870 C   0  0  0  0  0  2  0  0  0  0  0  0
  186.8030  177.4190  137.1950 C   0  0  0  0  0  0  0  0  0  0  0  0
  184.0580  177.2200  136.7110 C   0  0  0  0  0  0  0  0  0  0  0  0
  186.3140  176.9710  135.9700 C   0  0  0  0  0  3  0  0  0  0  0  0
  182.6090  176.9260  136.3650 C   0  0  1  0  0  3  0  0  0  0  0  0
  181.9330  179.5950  138.5550 C   0  0  1  0  0  3  0  0  0  0  0  0
  183.6260  178.2190  139.0360 C   0  0  0  0  0  2  0  0  0  0  0  0
  181.5740  179.1020  137.1520 C   0  0  0  0  0  2  0  0  0  0  0  0
  184.5220  177.6930  137.9650 C   0  0  0  0  0  0  0  0  0  0  0  0
  183.3170  179.5530  138.7490 O   0  0  0  0  0  0  0  0  0  0  0  0
  185.8970  177.7960  138.1830 C   0  0  0  0  0  3  0  0  0  0  0  0
  184.9770  176.8790  135.7640 N   0  0  0  0  0  0  0  0  0  0  0  0
  181.7640  174.7930  135.3200 C   0  0  0  0  0  3  0  0  0  0  0  0
  182.3880  175.4480  136.3080 C   0  0  0  0  0  0  0  0  0  0  0  0
  182.5580  173.2080  136.5850 C   0  0  0  0  0  0  0  0  0  0  0  0
  183.7420  170.6030  136.4250 Cl  0  0  0  0  0  0  0  0  0  0  0  0
  184.5600  172.9950  137.5310 C   0  0  0  0  0  3  0  0  0  0  0  0
  184.1630  174.3750  137.6350 N   0  0  0  0  0  0  0  0  0  0  0  0
  181.9350  173.3710  135.4650 N   0  0  0  0  0  0  0  0  0  0  0  0
  182.9640  174.4270  137.1610 C   0  0  0  0  0  0  0  0  0  0  0  0
  183.6350  172.2900  136.8780 C   0  0  0  0  0  0  0  0  0  0  0  0
  181.4390  181.0190  138.7520 C   0  0  0  0  0  2  0  0  0  0  0  0
  179.9160  181.0480  138.7410 C   0  0  0  0  0  2  0  0  0  0  0  0
  179.3950  181.5420  137.4010 C   0  0  0  0  0  2  0  0  0  0  0  0
  179.5610  185.2890  137.9810 C   0  0  0  0  0  0  0  0  0  0  0  0
  180.3970  183.4210  136.0680 C   0  0  0  0  0  3  0  0  0  0  0  0
  180.2650  185.7140  136.8490 C   0  0  0  0  0  3  0  0  0  0  0  0
  179.1200  186.2790  139.0020 C   0  0  0  0  0  1  0  0  0  0  0  0
  179.6910  182.9940  137.2000 C   0  0  0  0  0  0  0  0  0  0  0  0
  179.2770  183.9300  138.1580 C   0  0  0  0  0  3  0  0  0  0  0  0
  180.6820  184.7820  135.8920 C   0  0  0  0  0  3  0  0  0  0  0  0
  188.2100  177.5210  137.4480 N   0  0  0  0  0  2  0  0  0  0  0  0
  188.7910  178.5380  138.3110 C   0  0  0  0  0  2  0  0  0  0  0  0
  189.0770  177.9690  139.6580 C   0  0  0  0  0  0  0  0  0  0  0  0
  189.8900  177.0120  139.7670 O   0  0  0  0  0  0  0  0  0  0  0  0
  188.4370  178.5190  140.8180 N   0  0  0  0  0  2  0  0  0  0  0  0
  188.6880  178.0280  142.1640 C   0  0  0  0  0  2  0  0  0  0  0  0
  187.3820  177.5940  142.8110 C   0  0  0  0  0  2  0  0  0  0  0  0
  186.2760  178.3590  142.2620 N   0  0  0  0  0  2  0  0  0  0  0  0
  185.1700  178.2730  143.2060 C   0  0  0  0  0  2  0  0  0  0  0  0
  185.6800  178.1210  144.5570 N   0  0  0  0  0  0  0  0  0  0  0  0
  185.3130  179.0460  145.5850 C   0  0  0  0  0  3  0  0  0  0  0  0
  185.7200  178.8910  146.8460 C   0  0  0  0  0  2  0  0  0  0  0  0
  186.6000  177.7600  147.2740 C   0  0  0  0  0  2  0  0  0  0  0  0
  188.3140  175.9180  148.0470 O   0  0  0  0  0  1  0  0  0  0  0  0
  188.9200  177.1180  147.6620 C   0  0  2  0  0  0  0  0  0  0  0  0
  190.2650  177.0650  146.9690 C   0  0  0  0  0  1  0  0  0  0  0  0
  188.5700  178.3060  148.4180 C   0  0  0  0  0  2  0  0  0  0  0  0
  188.0010  178.1150  147.0650 N   0  0  0  0  0  0  0  0  0  0  0  0
  2 32  1  0  0  0  0
  2 11  1  0  0  0  0
  3  9  1  0  0  0  0
  4  2  2  0  0  0  0
  5 14  1  1  0  0  0
  5  3  1  0  0  0  0
  5  1  1  0  0  0  0
  6 10  1  0  0  0  0
  6 22  1  6  0  0  0
  8  1  1  0  0  0  0
  8  6  1  0  0  0  0
  9 11  2  0  0  0  0
  9  7  1  0  0  0  0
 10  7  1  0  0  0  0
 12  4  1  0  0  0  0
 12  3  2  0  0  0  0
 13 19  2  0  0  0  0
 13 14  1  0  0  0  0
 14 20  2  0  0  0  0
 15 21  2  0  0  0  0
 15 20  1  0  0  0  0
 16 21  1  0  0  0  0
 17 18  2  0  0  0  0
 19 15  1  0  0  0  0
 20 18  1  0  0  0  0
 21 17  1  0  0  0  0
 23 22  1  0  0  0  0
 24 23  1  0  0  0  0
 25 30  1  0  0  0  0
 25 28  1  0  0  0  0
 26 29  1  0  0  0  0
 27 25  2  0  0  0  0
 29 24  1  0  0  0  0
 29 30  2  0  0  0  0
 31 26  2  0  0  0  0
 31 27  1  0  0  0  0
 32 33  1  0  0  0  0
 33 34  1  0  0  0  0
 34 35  2  0  0  0  0
 34 36  1  0  0  0  0
 36 37  1  0  0  0  0
 37 38  1  0  0  0  0
 39 38  1  0  0  0  0
 39 40  1  0  0  0  0
 40 41  1  0  0  0  0
 41 42  2  0  0  0  0
 42 43  1  0  0  0  0
 43 44  1  0  0  0  0
 46 47  1  6  0  0  0
 46 45  1  0  0  0  0
 46 48  1  0  0  0  0
 49 44  1  0  0  0  0
 49 46  1  0  0  0  0
 49 48  1  0  0  0  0
M  END
>  <MODEL>
8

>  <REMARK>
 VINA RESULT:      -6.6      3.434      9.749
  Name = 
  16 active torsions:
  status: ('A' for Active; 'I' for Inactive)
    1  A    between atoms: C_1  and  C_26
    2  A    between atoms: C_1  and  C_41
    3  A    between atoms: C_3  and  N_49
    4  A    between atoms: N_4  and  C_32
    5  A    between atoms: N_4  and  C_47
    6  A    between atoms: C_9  and  C_14
    7  A    between atoms: N_17  and  C_27
    8  A    between atoms: N_17  and  C_47
    9  A    between atoms: C_19  and  C_38
   10  A    between atoms: N_21  and  C_28
   11  A    between atoms: C_22  and  C_42
   12  A    between atoms: C_28  and  C_32
   13  A    between atoms: C_29  and  C_34
   14  A    between atoms: C_29  and  N_45
   15  A    between atoms: C_38  and  N_49
   16  A    between atoms: C_41  and  C_42
                            x       y       z     vdW  Elec       q    Type
                         _______ _______ _______ _____ _____    ______ ____

>  <TORSDO>
F 16

$$$$
=
 OpenBabel11032419383D

 49 54  0  0  1  0  0  0  0  0999 V2000
  190.3450  176.0580  135.5720 C   0  0  0  0  0  2  0  0  0  0  0  0
  190.4930  177.1040  140.7660 C   0  0  0  0  0  0  0  0  0  0  0  0
  190.9750  176.5480  138.0700 C   0  0  0  0  0  0  0  0  0  0  0  0
  191.7740  177.1970  140.2250 C   0  0  0  0  0  3  0  0  0  0  0  0
  191.4000  176.1380  136.6720 C   0  0  1  0  0  3  0  0  0  0  0  0
  188.1720  177.2110  135.7760 C   0  0  1  0  0  3  0  0  0  0  0  0
  188.4530  176.1930  137.7450 C   0  0  0  0  0  2  0  0  0  0  0  0
  189.6310  177.3800  135.3490 C   0  0  0  0  0  2  0  0  0  0  0  0
  189.6570  176.4580  138.5860 C   0  0  0  0  0  0  0  0  0  0  0  0
  188.0430  177.3940  137.1570 O   0  0  0  0  0  0  0  0  0  0  0  0
  189.4360  176.7510  139.9330 C   0  0  0  0  0  3  0  0  0  0  0  0
  191.9800  176.9170  138.9140 N   0  0  0  0  0  0  0  0  0  0  0  0
  191.7830  173.6900  136.2030 C   0  0  0  0  0  3  0  0  0  0  0  0
  192.1740  174.8590  136.7280 C   0  0  0  0  0  0  0  0  0  0  0  0
  193.8250  173.3170  136.8640 C   0  0  0  0  0  0  0  0  0  0  0  0
  196.1990  171.9050  136.0990 Cl  0  0  0  0  0  0  0  0  0  0  0  0
  195.6570  174.5570  136.6360 C   0  0  0  0  0  3  0  0  0  0  0  0
  194.5580  175.4370  136.9380 N   0  0  0  0  0  0  0  0  0  0  0  0
  192.8600  172.7350  136.2290 N   0  0  0  0  0  0  0  0  0  0  0  0
  193.5460  174.6660  137.1540 C   0  0  0  0  0  0  0  0  0  0  0  0
  195.2350  173.2940  136.5520 C   0  0  0  0  0  0  0  0  0  0  0  0
  187.2930  178.2170  135.0500 C   0  0  0  0  0  2  0  0  0  0  0  0
  185.9240  177.6090  134.7760 C   0  0  0  0  0  2  0  0  0  0  0  0
  185.9450  176.1050  135.0030 C   0  0  0  0  0  2  0  0  0  0  0  0
  183.3370  176.2910  137.7540 C   0  0  0  0  0  0  0  0  0  0  0  0
  185.0170  174.3820  136.5770 C   0  0  0  0  0  3  0  0  0  0  0  0
  183.3170  174.9670  138.2060 C   0  0  0  0  0  3  0  0  0  0  0  0
  182.4430  177.3060  138.3740 C   0  0  0  0  0  1  0  0  0  0  0  0
  185.0390  175.7080  136.1240 C   0  0  0  0  0  0  0  0  0  0  0  0
  184.1960  176.6600  136.7120 C   0  0  0  0  0  3  0  0  0  0  0  0
  184.1560  174.0130  137.6200 C   0  0  0  0  0  3  0  0  0  0  0  0
  190.2430  177.3860  142.1490 N   0  0  0  0  0  2  0  0  0  0  0  0
  190.7910  178.5460  142.8350 C   0  0  0  0  0  2  0  0  0  0  0  0
  191.4170  178.1350  144.1220 C   0  0  0  0  0  0  0  0  0  0  0  0
  192.1600  178.9470  144.7390 O   0  0  0  0  0  0  0  0  0  0  0  0
  191.1640  176.8280  144.6560 N   0  0  0  0  0  2  0  0  0  0  0  0
  191.7240  176.3690  145.9180 C   0  0  0  0  0  2  0  0  0  0  0  0
  190.9950  177.0240  147.0800 C   0  0  0  0  0  2  0  0  0  0  0  0
  189.6110  176.5830  147.1100 N   0  0  0  0  0  2  0  0  0  0  0  0
  188.7810  177.7080  146.6980 C   0  0  0  0  0  2  0  0  0  0  0  0
  187.3800  177.4000  146.9200 N   0  0  0  0  0  2  0  0  0  0  0  0
  186.4130  178.4470  147.0430 C   0  0  0  0  0  3  0  0  0  0  0  0
  185.6860  178.8560  146.0020 C   0  0  0  0  0  3  0  0  0  0  0  0
  185.8110  178.2450  144.6430 C   0  0  0  0  0  2  0  0  0  0  0  0
  185.8560  179.2590  142.2150 O   0  0  0  0  0  1  0  0  0  0  0  0
  184.5670  178.9810  142.6810 C   0  0  2  0  0  0  0  0  0  0  0  0
  183.5230  178.5040  141.6930 C   0  0  0  0  0  1  0  0  0  0  0  0
  184.1310  179.6830  143.8730 C   0  0  0  0  0  2  0  0  0  0  0  0
  184.5150  178.2580  143.9710 N   0  0  0  0  0  0  0  0  0  0  0  0
  1  5  1  0  0  0  0
  2 32  1  0  0  0  0
  3  9  2  0  0  0  0
  3 12  1  0  0  0  0
  4  2  1  0  0  0  0
  5 14  1  1  0  0  0
  5  3  1  0  0  0  0
  6 22  1  6  0  0  0
  6 10  1  0  0  0  0
  7  9  1  0  0  0  0
  8  1  1  0  0  0  0
  8  6  1  0  0  0  0
  9 11  1  0  0  0  0
 10  7  1  0  0  0  0
 11  2  2  0  0  0  0
 12  4  2  0  0  0  0
 13 19  2  0  0  0  0
 13 14  1  0  0  0  0
 14 20  2  0  0  0  0
 15 20  1  0  0  0  0
 16 21  1  0  0  0  0
 17 18  2  0  0  0  0
 18 20  1  0  0  0  0
 19 15  1  0  0  0  0
 21 17  1  0  0  0  0
 21 15  2  0  0  0  0
 23 24  1  0  0  0  0
 23 22  1  0  0  0  0
 24 29  1  0  0  0  0
 25 27  1  0  0  0  0
 25 28  1  0  0  0  0
 26 31  1  0  0  0  0
 29 26  2  0  0  0  0
 29 30  1  0  0  0  0
 30 25  2  0  0  0  0
 31 27  2  0  0  0  0
 32 33  1  0  0  0  0
 33 34  1  0  0  0  0
 34 36  1  0  0  0  0
 34 35  2  0  0  0  0
 36 37  1  0  0  0  0
 37 38  1  0  0  0  0
 38 39  1  0  0  0  0
 40 41  1  0  0  0  0
 40 39  1  0  0  0  0
 41 42  1  0  0  0  0
 43 42  2  0  0  0  0
 44 43  1  0  0  0  0
 45 46  1  0  0  0  0
 46 47  1  6  0  0  0
 46 48  1  0  0  0  0
 46 49  1  0  0  0  0
 48 49  1  0  0  0  0
 49 44  1  0  0  0  0
M  END
>  <MODEL>
9

>  <REMARK>
 VINA RESULT:      -6.6      3.493      9.819
  Name = 
  16 active torsions:
  status: ('A' for Active; 'I' for Inactive)
    1  A    between atoms: C_1  and  C_26
    2  A    between atoms: C_1  and  C_41
    3  A    between atoms: C_3  and  N_49
    4  A    between atoms: N_4  and  C_32
    5  A    between atoms: N_4  and  C_47
    6  A    between atoms: C_9  and  C_14
    7  A    between atoms: N_17  and  C_27
    8  A    between atoms: N_17  and  C_47
    9  A    between atoms: C_19  and  C_38
   10  A    between atoms: N_21  and  C_28
   11  A    between atoms: C_22  and  C_42
   12  A    between atoms: C_28  and  C_32
   13  A    between atoms: C_29  and  C_34
   14  A    between atoms: C_29  and  N_45
   15  A    between atoms: C_38  and  N_49
   16  A    between atoms: C_41  and  C_42
                            x       y       z     vdW  Elec       q    Type
                         _______ _______ _______ _____ _____    ______ ____

>  <TORSDO>
F 16

$$$$
