=
 OpenBabel11042411583D

 28 30  0  0  1  0  0  0  0  0999 V2000
  182.9900  178.9380  139.1380 C   0  0  0  0  0  0  0  0  0  0  0  0
  180.9700  179.8530  137.4140 C   0  0  0  0  0  3  0  0  0  0  0  0
  181.7040  180.7630  138.1770 C   0  0  0  0  0  0  0  0  0  0  0  0
  181.2410  178.4870  137.5070 C   0  0  0  0  0  3  0  0  0  0  0  0
  182.7060  180.3050  139.0340 C   0  0  0  0  0  3  0  0  0  0  0  0
  182.2420  178.0130  138.3680 C   0  0  0  0  0  0  0  0  0  0  0  0
  182.4830  176.6030  138.4390 N   0  0  0  0  0  0  0  0  0  0  0  0
  180.7880  174.8630  138.3680 C   0  0  0  0  0  2  0  0  0  0  0  0
  181.6600  174.1020  137.4730 N   0  0  0  0  0  2  0  0  0  0  0  0
  182.3550  175.0340  136.5850 C   0  0  0  0  0  2  0  0  0  0  0  0
  181.6290  175.7630  139.2710 C   0  0  0  0  0  2  0  0  0  0  0  0
  183.2700  175.9460  137.4000 C   0  0  0  0  0  2  0  0  0  0  0  0
  184.1260  178.5480  140.0440 C   0  0  1  0  0  3  0  0  0  0  0  0
  185.3070  179.2170  139.7110 O   0  0  0  0  0  1  0  0  0  0  0  0
  181.8080  178.8080  143.0450 C   0  0  0  0  0  3  0  0  0  0  0  0
  183.7870  178.6480  141.5080 C   0  0  0  0  0  0  0  0  0  0  0  0
  184.8310  178.6990  142.4310 C   0  0  0  0  0  3  0  0  0  0  0  0
  183.7140  178.8990  144.6770 C   0  0  0  0  0  0  0  0  0  0  0  0
  182.4330  178.6990  141.8120 C   0  0  0  0  0  3  0  0  0  0  0  0
  182.3750  178.8960  144.3070 C   0  0  0  0  0  3  0  0  0  0  0  0
  184.7980  178.8090  143.8130 C   0  0  0  0  0  3  0  0  0  0  0  0
  183.9670  178.9920  145.9050 O   0  0  0  0  0  0  0  0  0  0  0  0
  181.3970  182.2170  138.1010 C   0  0  0  0  0  2  0  0  0  0  0  0
  180.8630  182.5200  136.8470 O   0  0  0  0  0  0  0  0  0  0  0  0
  180.9230  184.2110  136.7320 P   0  0  1  0  0  0  0  0  0  0  0  0
  181.0020  184.6050  135.2760 O   0  0  0  0  0  0  0  0  0  0  0  0
  179.4790  184.9100  137.4380 N   0  0  0  0  0  1  0  0  0  0  0  0
  182.2880  184.7980  137.5410 O   0  0  0  0  0  1  0  0  0  0  0  0
  1 13  1  0  0  0  0
  2  4  2  0  0  0  0
  2  3  1  0  0  0  0
  3  5  2  0  0  0  0
  4  6  1  0  0  0  0
  5  1  1  0  0  0  0
  6  7  1  0  0  0  0
  6  1  2  0  0  0  0
  7 11  1  0  0  0  0
  8 11  1  0  0  0  0
  9  8  1  0  0  0  0
 10 12  1  0  0  0  0
 10  9  1  0  0  0  0
 12  7  1  0  0  0  0
 13 14  1  1  0  0  0
 13 16  1  0  0  0  0
 15 20  2  0  0  0  0
 16 19  2  0  0  0  0
 16 17  1  0  0  0  0
 17 21  2  0  0  0  0
 18 22  2  0  0  0  0
 19 15  1  0  0  0  0
 20 18  1  0  0  0  0
 21 18  1  0  0  0  0
 23  3  1  0  0  0  0
 24 23  1  0  0  0  0
 25 26  2  6  0  0  0
 25 24  1  0  0  0  0
 25 27  1  0  0  0  0
 25 28  1  0  0  0  0
M  END
>  <MODEL>
1

>  <REMARK>
 VINA RESULT:      -7.0      0.000      0.000
  Name = 
  6 active torsions:
  status: ('A' for Active; 'I' for Inactive)
    1  A    between atoms: N_2  and  C_24
    2  A    between atoms: O_3  and  P_6
    3  A    between atoms: O_3  and  C_17
    4  A    between atoms: C_4  and  C_9
    5  A    between atoms: C_8  and  C_9
    6  A    between atoms: C_12  and  C_17
                            x       y       z     vdW  Elec       q    Type
                         _______ _______ _______ _____ _____    ______ ____

>  <TORSDO>
F 6

$$$$
=
 OpenBabel11042411583D

 28 30  0  0  1  0  0  0  0  0999 V2000
  187.0230  177.5910  144.0670 C   0  0  0  0  0  0  0  0  0  0  0  0
  184.8690  179.0770  145.0880 C   0  0  0  0  0  3  0  0  0  0  0  0
  184.7370  178.3960  143.8770 C   0  0  0  0  0  0  0  0  0  0  0  0
  186.0720  179.0190  145.7930 C   0  0  0  0  0  3  0  0  0  0  0  0
  185.8100  177.6600  143.3710 C   0  0  0  0  0  3  0  0  0  0  0  0
  187.1600  178.2860  145.2940 C   0  0  0  0  0  0  0  0  0  0  0  0
  188.3780  178.2590  146.0450 N   0  0  0  0  0  0  0  0  0  0  0  0
  189.1250  176.4480  147.4840 C   0  0  0  0  0  2  0  0  0  0  0  0
  190.4700  176.6120  146.9300 N   0  0  0  0  0  2  0  0  0  0  0  0
  190.3590  176.9510  145.5110 C   0  0  0  0  0  2  0  0  0  0  0  0
  188.3720  177.7750  147.4210 C   0  0  0  0  0  2  0  0  0  0  0  0
  189.6620  178.3000  145.3500 C   0  0  0  0  0  2  0  0  0  0  0  0
  188.0990  176.7270  143.4700 C   0  0  1  0  0  3  0  0  0  0  0  0
  187.7470  175.3740  143.4900 O   0  0  0  0  0  1  0  0  0  0  0  0
  190.4840  176.9460  140.5190 C   0  0  0  0  0  3  0  0  0  0  0  0
  188.5610  177.1930  142.1150 C   0  0  0  0  0  0  0  0  0  0  0  0
  187.7540  178.0800  141.4050 C   0  0  0  0  0  3  0  0  0  0  0  0
  189.0040  178.5460  139.2710 C   0  0  0  0  0  0  0  0  0  0  0  0
  189.7880  176.6970  141.6920 C   0  0  0  0  0  3  0  0  0  0  0  0
  190.1360  177.7620  139.4530 C   0  0  0  0  0  3  0  0  0  0  0  0
  187.9480  178.6700  140.1640 C   0  0  0  0  0  3  0  0  0  0  0  0
  188.9290  179.2010  138.2010 O   0  0  0  0  0  0  0  0  0  0  0  0
  183.4660  178.4810  143.1090 C   0  0  0  0  0  2  0  0  0  0  0  0
  182.5110  179.1760  143.8540 O   0  0  0  0  0  0  0  0  0  0  0  0
  181.0620  179.0160  142.9880 P   0  0  1  0  0  0  0  0  0  0  0  0
  181.3630  178.4390  141.6240 O   0  0  0  0  0  0  0  0  0  0  0  0
  179.9740  177.9390  143.8390 N   0  0  0  0  0  1  0  0  0  0  0  0
  180.3290  180.5300  142.8030 O   0  0  0  0  0  1  0  0  0  0  0  0
  1  6  1  0  0  0  0
  2  4  1  0  0  0  0
  3  2  2  0  0  0  0
  5  3  1  0  0  0  0
  5  1  2  0  0  0  0
  6  4  2  0  0  0  0
  6  7  1  0  0  0  0
  7 11  1  0  0  0  0
  9  8  1  0  0  0  0
 10  9  1  0  0  0  0
 11  8  1  0  0  0  0
 12 10  1  0  0  0  0
 12  7  1  0  0  0  0
 13 14  1  6  0  0  0
 13  1  1  0  0  0  0
 15 19  1  0  0  0  0
 16 13  1  0  0  0  0
 17 16  1  0  0  0  0
 18 20  1  0  0  0  0
 18 21  1  0  0  0  0
 19 16  2  0  0  0  0
 20 15  2  0  0  0  0
 21 17  2  0  0  0  0
 22 18  2  0  0  0  0
 23 24  1  0  0  0  0
 23  3  1  0  0  0  0
 25 26  2  6  0  0  0
 25 27  1  0  0  0  0
 25 24  1  0  0  0  0
 28 25  1  0  0  0  0
M  END
>  <MODEL>
2

>  <REMARK>
 VINA RESULT:      -6.9      5.463      8.547
  Name = 
  6 active torsions:
  status: ('A' for Active; 'I' for Inactive)
    1  A    between atoms: N_2  and  C_24
    2  A    between atoms: O_3  and  P_6
    3  A    between atoms: O_3  and  C_17
    4  A    between atoms: C_4  and  C_9
    5  A    between atoms: C_8  and  C_9
    6  A    between atoms: C_12  and  C_17
                            x       y       z     vdW  Elec       q    Type
                         _______ _______ _______ _____ _____    ______ ____

>  <TORSDO>
F 6

$$$$
=
 OpenBabel11042411583D

 28 30  0  0  1  0  0  0  0  0999 V2000
  186.9910  177.6970  143.9410 C   0  0  0  0  0  0  0  0  0  0  0  0
  184.6600  179.0560  144.7220 C   0  0  0  0  0  3  0  0  0  0  0  0
  184.7320  178.4570  143.4640 C   0  0  0  0  0  0  0  0  0  0  0  0
  185.7470  178.9790  145.5940 C   0  0  0  0  0  3  0  0  0  0  0  0
  185.8920  177.7830  143.0780 C   0  0  0  0  0  3  0  0  0  0  0  0
  186.9210  178.3090  145.2170 C   0  0  0  0  0  0  0  0  0  0  0  0
  188.0160  178.2610  146.1390 N   0  0  0  0  0  0  0  0  0  0  0  0
  188.4880  176.4550  147.6960 C   0  0  0  0  0  2  0  0  0  0  0  0
  189.9040  176.5710  147.3430 N   0  0  0  0  0  2  0  0  0  0  0  0
  190.0110  176.8870  145.9180 C   0  0  0  0  0  2  0  0  0  0  0  0
  187.7940  177.8020  147.5060 C   0  0  0  0  0  2  0  0  0  0  0  0
  189.3880  178.2530  145.6380 C   0  0  0  0  0  2  0  0  0  0  0  0
  188.1730  176.9020  143.4580 C   0  0  1  0  0  3  0  0  0  0  0  0
  187.9480  175.5260  143.5600 O   0  0  0  0  0  1  0  0  0  0  0  0
  190.6610  177.1120  140.5920 C   0  0  0  0  0  3  0  0  0  0  0  0
  188.6590  177.3170  142.0950 C   0  0  0  0  0  0  0  0  0  0  0  0
  187.8240  178.1010  141.3010 C   0  0  0  0  0  3  0  0  0  0  0  0
  189.1290  178.5250  139.1920 C   0  0  0  0  0  0  0  0  0  0  0  0
  189.9340  176.8850  141.7510 C   0  0  0  0  0  3  0  0  0  0  0  0
  190.3040  177.8360  139.4650 C   0  0  0  0  0  3  0  0  0  0  0  0
  188.0300  178.6280  140.0340 C   0  0  0  0  0  3  0  0  0  0  0  0
  189.0550  179.1090  138.0800 O   0  0  0  0  0  0  0  0  0  0  0  0
  183.5850  178.5620  142.5220 C   0  0  0  0  0  2  0  0  0  0  0  0
  183.7840  177.7030  141.4390 O   0  0  0  0  0  0  0  0  0  0  0  0
  183.6350  178.6770  140.0590 P   0  0  1  0  0  0  0  0  0  0  0  0
  184.6950  179.7530  140.0960 O   0  0  0  0  0  1  0  0  0  0  0  0
  183.8510  177.7070  138.6170 N   0  0  0  0  0  1  0  0  0  0  0  0
  182.1070  179.4040  140.0290 O   0  0  0  0  0  0  0  0  0  0  0  0
  1  6  1  0  0  0  0
  2  4  1  0  0  0  0
  3  2  2  0  0  0  0
  5  3  1  0  0  0  0
  5  1  2  0  0  0  0
  6  4  2  0  0  0  0
  6  7  1  0  0  0  0
  7 11  1  0  0  0  0
  9  8  1  0  0  0  0
 10  9  1  0  0  0  0
 11  8  1  0  0  0  0
 12 10  1  0  0  0  0
 12  7  1  0  0  0  0
 13 14  1  6  0  0  0
 13  1  1  0  0  0  0
 15 19  1  0  0  0  0
 16 13  1  0  0  0  0
 17 16  1  0  0  0  0
 18 20  1  0  0  0  0
 18 21  1  0  0  0  0
 19 16  2  0  0  0  0
 20 15  2  0  0  0  0
 21 17  2  0  0  0  0
 22 18  2  0  0  0  0
 23  3  1  0  0  0  0
 24 23  1  0  0  0  0
 25 27  1  6  0  0  0
 25 26  1  0  0  0  0
 25 24  1  0  0  0  0
 28 25  2  0  0  0  0
M  END
>  <MODEL>
3

>  <REMARK>
 VINA RESULT:      -6.8      4.926      8.318
  Name = 
  6 active torsions:
  status: ('A' for Active; 'I' for Inactive)
    1  A    between atoms: N_2  and  C_24
    2  A    between atoms: O_3  and  P_6
    3  A    between atoms: O_3  and  C_17
    4  A    between atoms: C_4  and  C_9
    5  A    between atoms: C_8  and  C_9
    6  A    between atoms: C_12  and  C_17
                            x       y       z     vdW  Elec       q    Type
                         _______ _______ _______ _____ _____    ______ ____

>  <TORSDO>
F 6

$$$$
=
 OpenBabel11042411583D

 28 30  0  0  1  0  0  0  0  0999 V2000
  183.9020  178.7040  141.2440 C   0  0  0  0  0  0  0  0  0  0  0  0
  184.6720  178.3360  143.9200 C   0  0  0  0  0  3  0  0  0  0  0  0
  185.6190  178.2310  142.9000 C   0  0  0  0  0  0  0  0  0  0  0  0
  183.3420  178.6250  143.6110 C   0  0  0  0  0  3  0  0  0  0  0  0
  185.2320  178.4130  141.5700 C   0  0  0  0  0  3  0  0  0  0  0  0
  182.9400  178.8050  142.2790 C   0  0  0  0  0  0  0  0  0  0  0  0
  181.5640  179.0920  142.0040 N   0  0  0  0  0  0  0  0  0  0  0  0
  179.8300  177.4510  141.5460 C   0  0  0  0  0  2  0  0  0  0  0  0
  178.9310  178.2150  142.4120 N   0  0  0  0  0  2  0  0  0  0  0  0
  179.7000  178.7580  143.5310 C   0  0  0  0  0  2  0  0  0  0  0  0
  180.8750  178.3810  140.9330 C   0  0  0  0  0  2  0  0  0  0  0  0
  180.7420  179.7490  143.0160 C   0  0  0  0  0  2  0  0  0  0  0  0
  183.5970  178.9390  139.7900 C   0  0  1  0  0  3  0  0  0  0  0  0
  184.2100  180.1010  139.3140 O   0  0  0  0  0  1  0  0  0  0  0  0
  185.3030  176.9940  137.0060 C   0  0  0  0  0  3  0  0  0  0  0  0
  183.8570  177.7390  138.9200 C   0  0  0  0  0  0  0  0  0  0  0  0
  183.0950  176.5900  139.1250 C   0  0  0  0  0  3  0  0  0  0  0  0
  183.9090  174.9440  137.4030 C   0  0  0  0  0  0  0  0  0  0  0  0
  184.8470  177.8940  137.9570 C   0  0  0  0  0  3  0  0  0  0  0  0
  184.8870  175.6930  136.7640 C   0  0  0  0  0  3  0  0  0  0  0  0
  183.1180  175.3710  138.4630 C   0  0  0  0  0  3  0  0  0  0  0  0
  183.7230  173.7730  136.9860 O   0  0  0  0  0  0  0  0  0  0  0  0
  187.0310  177.8950  143.2250 C   0  0  0  0  0  2  0  0  0  0  0  0
  187.8140  177.9870  142.0730 O   0  0  0  0  0  0  0  0  0  0  0  0
  189.2520  177.1670  142.4410 P   0  0  1  0  0  0  0  0  0  0  0  0
  188.9160  175.8720  143.1430 O   0  0  0  0  0  0  0  0  0  0  0  0
  190.1300  176.8100  140.9680 N   0  0  0  0  0  1  0  0  0  0  0  0
  190.2150  178.1170  143.4580 O   0  0  0  0  0  1  0  0  0  0  0  0
  1  5  2  0  0  0  0
  1  6  1  0  0  0  0
  3 23  1  0  0  0  0
  3  2  2  0  0  0  0
  4  2  1  0  0  0  0
  5  3  1  0  0  0  0
  6  4  2  0  0  0  0
  7  6  1  0  0  0  0
  7 12  1  0  0  0  0
  8  9  1  0  0  0  0
  9 10  1  0  0  0  0
 11  8  1  0  0  0  0
 11  7  1  0  0  0  0
 12 10  1  0  0  0  0
 13 14  1  6  0  0  0
 13  1  1  0  0  0  0
 15 19  1  0  0  0  0
 16 17  1  0  0  0  0
 16 13  1  0  0  0  0
 18 21  1  0  0  0  0
 19 16  2  0  0  0  0
 20 15  2  0  0  0  0
 20 18  1  0  0  0  0
 21 17  2  0  0  0  0
 22 18  2  0  0  0  0
 24 25  1  0  0  0  0
 24 23  1  0  0  0  0
 25 27  1  6  0  0  0
 25 26  2  0  0  0  0
 25 28  1  0  0  0  0
M  END
>  <MODEL>
4

>  <REMARK>
 VINA RESULT:      -6.7      4.163      7.685
  Name = 
  6 active torsions:
  status: ('A' for Active; 'I' for Inactive)
    1  A    between atoms: N_2  and  C_24
    2  A    between atoms: O_3  and  P_6
    3  A    between atoms: O_3  and  C_17
    4  A    between atoms: C_4  and  C_9
    5  A    between atoms: C_8  and  C_9
    6  A    between atoms: C_12  and  C_17
                            x       y       z     vdW  Elec       q    Type
                         _______ _______ _______ _____ _____    ______ ____

>  <TORSDO>
F 6

$$$$
=
 OpenBabel11042411583D

 28 30  0  0  1  0  0  0  0  0999 V2000
  183.9900  178.7440  140.8940 C   0  0  0  0  0  0  0  0  0  0  0  0
  184.5540  178.3050  143.6110 C   0  0  0  0  0  3  0  0  0  0  0  0
  185.5890  178.3170  142.6750 C   0  0  0  0  0  0  0  0  0  0  0  0
  183.2370  178.5120  143.1970 C   0  0  0  0  0  3  0  0  0  0  0  0
  185.3060  178.5330  141.3260 C   0  0  0  0  0  3  0  0  0  0  0  0
  182.9380  178.7260  141.8430 C   0  0  0  0  0  0  0  0  0  0  0  0
  181.5730  178.9270  141.4590 N   0  0  0  0  0  0  0  0  0  0  0  0
  179.8720  177.1990  141.2890 C   0  0  0  0  0  2  0  0  0  0  0  0
  178.9310  178.1140  141.9370 N   0  0  0  0  0  2  0  0  0  0  0  0
  179.6490  178.8930  142.9470 C   0  0  0  0  0  2  0  0  0  0  0  0
  180.9350  177.9950  140.5360 C   0  0  0  0  0  2  0  0  0  0  0  0
  180.7040  179.7700  142.2760 C   0  0  0  0  0  2  0  0  0  0  0  0
  183.7930  179.0260  139.4300 C   0  0  1  0  0  3  0  0  0  0  0  0
  184.2140  180.3140  139.0900 O   0  0  0  0  0  1  0  0  0  0  0  0
  183.8440  175.6810  137.6250 C   0  0  0  0  0  3  0  0  0  0  0  0
  184.3690  177.9640  138.5320 C   0  0  0  0  0  0  0  0  0  0  0  0
  185.6200  178.1830  137.9580 C   0  0  0  0  0  3  0  0  0  0  0  0
  186.1000  176.1120  136.6120 C   0  0  0  0  0  0  0  0  0  0  0  0
  183.5890  176.8260  138.3650 C   0  0  0  0  0  3  0  0  0  0  0  0
  184.9530  175.3680  136.8530 C   0  0  0  0  0  3  0  0  0  0  0  0
  186.3750  177.3750  137.1200 C   0  0  0  0  0  3  0  0  0  0  0  0
  186.9690  175.5940  135.8650 O   0  0  0  0  0  0  0  0  0  0  0  0
  186.9900  178.0670  143.1100 C   0  0  0  0  0  2  0  0  0  0  0  0
  187.8560  178.2360  142.0290 O   0  0  0  0  0  0  0  0  0  0  0  0
  189.2510  177.3580  142.4290 P   0  0  1  0  0  0  0  0  0  0  0  0
  188.8520  176.1270  143.2090 O   0  0  0  0  0  0  0  0  0  0  0  0
  190.0880  176.8680  140.9710 N   0  0  0  0  0  1  0  0  0  0  0  0
  190.2790  178.3090  143.3800 O   0  0  0  0  0  1  0  0  0  0  0  0
  1  5  2  0  0  0  0
  1  6  1  0  0  0  0
  3 23  1  0  0  0  0
  3  2  2  0  0  0  0
  4  2  1  0  0  0  0
  5  3  1  0  0  0  0
  6  4  2  0  0  0  0
  7  6  1  0  0  0  0
  7 12  1  0  0  0  0
  8  9  1  0  0  0  0
  9 10  1  0  0  0  0
 11  8  1  0  0  0  0
 11  7  1  0  0  0  0
 12 10  1  0  0  0  0
 13 14  1  6  0  0  0
 13  1  1  0  0  0  0
 15 19  1  0  0  0  0
 16 13  1  0  0  0  0
 17 16  1  0  0  0  0
 18 20  1  0  0  0  0
 18 21  1  0  0  0  0
 19 16  2  0  0  0  0
 20 15  2  0  0  0  0
 21 17  2  0  0  0  0
 22 18  2  0  0  0  0
 24 25  1  0  0  0  0
 24 23  1  0  0  0  0
 25 27  1  6  0  0  0
 25 26  2  0  0  0  0
 25 28  1  0  0  0  0
M  END
>  <MODEL>
5

>  <REMARK>
 VINA RESULT:      -6.6      4.091      7.589
  Name = 
  6 active torsions:
  status: ('A' for Active; 'I' for Inactive)
    1  A    between atoms: N_2  and  C_24
    2  A    between atoms: O_3  and  P_6
    3  A    between atoms: O_3  and  C_17
    4  A    between atoms: C_4  and  C_9
    5  A    between atoms: C_8  and  C_9
    6  A    between atoms: C_12  and  C_17
                            x       y       z     vdW  Elec       q    Type
                         _______ _______ _______ _____ _____    ______ ____

>  <TORSDO>
F 6

$$$$
=
 OpenBabel11042411583D

 28 30  0  0  1  0  0  0  0  0999 V2000
  189.1780  177.3340  141.7330 C   0  0  0  0  0  0  0  0  0  0  0  0
  186.5470  178.3170  141.6570 C   0  0  0  0  0  3  0  0  0  0  0  0
  187.1020  177.8980  142.8670 C   0  0  0  0  0  0  0  0  0  0  0  0
  187.2990  178.2490  140.4830 C   0  0  0  0  0  3  0  0  0  0  0  0
  188.4090  177.4090  142.9010 C   0  0  0  0  0  3  0  0  0  0  0  0
  188.6120  177.7550  140.5030 C   0  0  0  0  0  0  0  0  0  0  0  0
  189.3470  177.6940  139.2760 N   0  0  0  0  0  0  0  0  0  0  0  0
  188.8390  176.2600  137.3800 C   0  0  0  0  0  2  0  0  0  0  0  0
  189.1160  177.3940  136.4960 N   0  0  0  0  0  2  0  0  0  0  0  0
  188.6450  178.6210  137.1390 C   0  0  0  0  0  2  0  0  0  0  0  0
  189.6430  176.3990  138.6710 C   0  0  0  0  0  2  0  0  0  0  0  0
  189.4360  178.8740  138.4210 C   0  0  0  0  0  2  0  0  0  0  0  0
  190.5930  176.8480  141.8820 C   0  0  1  0  0  3  0  0  0  0  0  0
  191.4920  177.6470  141.1700 O   0  0  0  0  0  1  0  0  0  0  0  0
  192.0550  174.9000  144.7990 C   0  0  0  0  0  3  0  0  0  0  0  0
  191.0050  176.6310  143.3130 C   0  0  1  0  0  3  0  0  0  0  0  0
  190.7630  177.6460  144.2370 C   0  0  0  0  0  3  0  0  0  0  0  0
  191.6000  176.7490  146.4350 C   0  0  0  0  0  0  0  0  0  0  0  0
  191.5900  175.4020  143.5940 C   0  0  0  0  0  3  0  0  0  0  0  0
  192.0580  175.4960  146.0510 C   0  0  0  0  0  2  0  0  0  0  0  0
  191.0230  177.6970  145.5990 C   0  0  0  0  0  3  0  0  0  0  0  0
  191.7200  177.0540  147.6490 O   0  0  0  0  0  0  0  0  0  0  0  0
  186.2920  177.9430  144.1140 C   0  0  0  0  0  2  0  0  0  0  0  0
  184.9350  177.8550  143.7970 O   0  0  0  0  0  0  0  0  0  0  0  0
  184.1680  178.9980  144.7880 P   0  0  1  0  0  0  0  0  0  0  0  0
  182.6720  178.8070  144.6960 O   0  0  0  0  0  1  0  0  0  0  0  0
  184.6730  178.7810  146.4510 N   0  0  0  0  0  1  0  0  0  0  0  0
  184.5610  180.5620  144.2770 O   0  0  0  0  0  0  0  0  0  0  0  0
  1 13  1  0  0  0  0
  1  5  1  0  0  0  0
  2  3  1  0  0  0  0
  3  5  2  0  0  0  0
  3 23  1  0  0  0  0
  4  6  1  0  0  0  0
  4  2  2  0  0  0  0
  6  1  2  0  0  0  0
  7  6  1  0  0  0  0
  8 11  1  0  0  0  0
  9 10  1  0  0  0  0
  9  8  1  0  0  0  0
 10 12  1  0  0  0  0
 11  7  1  0  0  0  0
 12  7  1  0  0  0  0
 13 14  1  1  0  0  0
 15 20  1  0  0  0  0
 16 13  1  1  0  0  0
 16 19  1  0  0  0  0
 16 17  1  0  0  0  0
 17 21  2  0  0  0  0
 18 22  2  0  0  0  0
 19 15  2  0  0  0  0
 20 18  1  0  0  0  0
 21 18  1  0  0  0  0
 24 23  1  0  0  0  0
 24 25  1  0  0  0  0
 25 28  2  6  0  0  0
 25 27  1  0  0  0  0
 26 25  1  0  0  0  0
M  END
>  <MODEL>
6

>  <REMARK>
 VINA RESULT:      -6.5      6.432      8.369
  Name = 
  6 active torsions:
  status: ('A' for Active; 'I' for Inactive)
    1  A    between atoms: N_2  and  C_24
    2  A    between atoms: O_3  and  P_6
    3  A    between atoms: O_3  and  C_17
    4  A    between atoms: C_4  and  C_9
    5  A    between atoms: C_8  and  C_9
    6  A    between atoms: C_12  and  C_17
                            x       y       z     vdW  Elec       q    Type
                         _______ _______ _______ _____ _____    ______ ____

>  <TORSDO>
F 6

$$$$
=
 OpenBabel11042411583D

 28 30  0  0  1  0  0  0  0  0999 V2000
  189.3440  177.0230  142.6970 C   0  0  0  0  0  0  0  0  0  0  0  0
  192.0160  177.8840  142.5970 C   0  0  0  0  0  3  0  0  0  0  0  0
  191.4210  177.5910  143.8250 C   0  0  0  0  0  0  0  0  0  0  0  0
  191.2840  177.7480  141.4170 C   0  0  0  0  0  3  0  0  0  0  0  0
  190.0930  177.1650  143.8710 C   0  0  0  0  0  3  0  0  0  0  0  0
  189.9460  177.3250  141.4500 C   0  0  0  0  0  0  0  0  0  0  0  0
  189.2280  177.2060  140.2170 N   0  0  0  0  0  0  0  0  0  0  0  0
  188.8620  178.9870  138.6030 C   0  0  0  0  0  2  0  0  0  0  0  0
  189.1550  178.0290  137.5360 N   0  0  0  0  0  2  0  0  0  0  0  0
  190.2070  177.1200  137.9920 C   0  0  0  0  0  2  0  0  0  0  0  0
  188.2950  178.2540  139.8170 C   0  0  0  0  0  2  0  0  0  0  0  0
  189.7080  176.2990  139.1790 C   0  0  0  0  0  2  0  0  0  0  0  0
  187.9410  176.5030  142.8450 C   0  0  1  0  0  3  0  0  0  0  0  0
  187.9240  175.1460  143.1770 O   0  0  0  0  0  1  0  0  0  0  0  0
  185.1680  178.9640  143.6840 C   0  0  0  0  0  3  0  0  0  0  0  0
  187.0840  177.3410  143.7560 C   0  0  0  0  0  0  0  0  0  0  0  0
  187.3470  177.3190  145.1250 C   0  0  0  0  0  3  0  0  0  0  0  0
  185.6730  178.8990  146.1430 C   0  0  0  0  0  0  0  0  0  0  0  0
  186.0950  178.0920  143.1330 C   0  0  0  0  0  3  0  0  0  0  0  0
  184.9840  179.3180  145.0130 C   0  0  0  0  0  3  0  0  0  0  0  0
  186.7310  177.9990  146.1660 C   0  0  0  0  0  3  0  0  0  0  0  0
  185.3050  179.3780  147.2460 O   0  0  0  0  0  0  0  0  0  0  0  0
  192.1920  177.7630  145.0860 C   0  0  0  0  0  2  0  0  0  0  0  0
  191.3110  177.9260  146.1570 O   0  0  0  0  0  0  0  0  0  0  0  0
  191.4290  176.4930  147.0560 P   0  0  1  0  0  0  0  0  0  0  0  0
  192.0560  175.4200  146.1960 O   0  0  0  0  0  0  0  0  0  0  0  0
  192.4300  176.7540  148.4690 N   0  0  0  0  0  1  0  0  0  0  0  0
  189.8880  175.9860  147.5400 O   0  0  0  0  0  1  0  0  0  0  0  0
  1 13  1  0  0  0  0
  1  5  1  0  0  0  0
  2  3  1  0  0  0  0
  3  5  2  0  0  0  0
  3 23  1  0  0  0  0
  4  6  1  0  0  0  0
  4  2  2  0  0  0  0
  6  1  2  0  0  0  0
  7  6  1  0  0  0  0
  8 11  1  0  0  0  0
  9 10  1  0  0  0  0
  9  8  1  0  0  0  0
 10 12  1  0  0  0  0
 11  7  1  0  0  0  0
 12  7  1  0  0  0  0
 13 14  1  1  0  0  0
 13 16  1  0  0  0  0
 15 20  2  0  0  0  0
 16 17  1  0  0  0  0
 17 21  2  0  0  0  0
 18 21  1  0  0  0  0
 18 22  2  0  0  0  0
 19 15  1  0  0  0  0
 19 16  2  0  0  0  0
 20 18  1  0  0  0  0
 23 24  1  0  0  0  0
 24 25  1  0  0  0  0
 25 26  2  6  0  0  0
 25 28  1  0  0  0  0
 25 27  1  0  0  0  0
M  END
>  <MODEL>
7

>  <REMARK>
 VINA RESULT:      -6.5      7.534      9.877
  Name = 
  6 active torsions:
  status: ('A' for Active; 'I' for Inactive)
    1  A    between atoms: N_2  and  C_24
    2  A    between atoms: O_3  and  P_6
    3  A    between atoms: O_3  and  C_17
    4  A    between atoms: C_4  and  C_9
    5  A    between atoms: C_8  and  C_9
    6  A    between atoms: C_12  and  C_17
                            x       y       z     vdW  Elec       q    Type
                         _______ _______ _______ _____ _____    ______ ____

>  <TORSDO>
F 6

$$$$
=
 OpenBabel11042411583D

 28 30  0  0  1  0  0  0  0  0999 V2000
  188.3940  177.6700  140.1490 C   0  0  0  0  0  0  0  0  0  0  0  0
  185.8790  178.6260  139.3460 C   0  0  0  0  0  3  0  0  0  0  0  0
  186.2520  178.6840  140.6890 C   0  0  0  0  0  0  0  0  0  0  0  0
  186.7560  178.0940  138.4000 C   0  0  0  0  0  3  0  0  0  0  0  0
  187.5020  178.2060  141.0860 C   0  0  0  0  0  3  0  0  0  0  0  0
  188.0140  177.6070  138.7860 C   0  0  0  0  0  0  0  0  0  0  0  0
  188.8810  177.0610  137.7850 N   0  0  0  0  0  0  0  0  0  0  0  0
  188.2850  175.3570  136.1580 C   0  0  0  0  0  2  0  0  0  0  0  0
  189.0040  176.1280  135.1430 N   0  0  0  0  0  2  0  0  0  0  0  0
  188.8070  177.5540  135.4040 C   0  0  0  0  0  2  0  0  0  0  0  0
  188.8870  175.6240  137.5360 C   0  0  0  0  0  2  0  0  0  0  0  0
  189.4300  177.9290  136.7470 C   0  0  0  0  0  2  0  0  0  0  0  0
  189.7390  177.2350  140.6650 C   0  0  1  0  0  3  0  0  0  0  0  0
  190.7830  177.8780  139.9940 O   0  0  0  0  0  1  0  0  0  0  0  0
  191.4520  178.0930  143.9470 C   0  0  0  0  0  3  0  0  0  0  0  0
  189.8630  177.3190  142.1630 C   0  0  1  0  0  3  0  0  0  0  0  0
  188.8260  176.8160  142.9460 C   0  0  0  0  0  3  0  0  0  0  0  0
  189.5640  177.1740  145.3250 C   0  0  0  0  0  0  0  0  0  0  0  0
  191.0360  177.8900  142.6400 C   0  0  0  0  0  3  0  0  0  0  0  0
  190.8000  177.7760  145.1300 C   0  0  0  0  0  2  0  0  0  0  0  0
  188.6960  176.7530  144.3260 C   0  0  0  0  0  3  0  0  0  0  0  0
  189.1980  176.9950  146.5150 O   0  0  0  0  0  0  0  0  0  0  0  0
  185.3060  179.2240  141.7030 C   0  0  0  0  0  2  0  0  0  0  0  0
  184.8370  178.1860  142.5100 O   0  0  0  0  0  0  0  0  0  0  0  0
  184.5640  178.8870  144.0290 P   0  0  1  0  0  0  0  0  0  0  0  0
  184.9090  180.3560  143.9650 O   0  0  0  0  0  0  0  0  0  0  0  0
  182.8790  178.7110  144.4740 N   0  0  0  0  0  1  0  0  0  0  0  0
  185.5370  178.1380  145.1940 O   0  0  0  0  0  1  0  0  0  0  0  0
  1 13  1  0  0  0  0
  1  5  1  0  0  0  0
  2  3  1  0  0  0  0
  3  5  2  0  0  0  0
  3 23  1  0  0  0  0
  4  6  1  0  0  0  0
  4  2  2  0  0  0  0
  6  1  2  0  0  0  0
  7  6  1  0  0  0  0
  8 11  1  0  0  0  0
  9 10  1  0  0  0  0
  9  8  1  0  0  0  0
 10 12  1  0  0  0  0
 11  7  1  0  0  0  0
 12  7  1  0  0  0  0
 13 14  1  6  0  0  0
 15 20  1  0  0  0  0
 16 13  1  1  0  0  0
 16 19  1  0  0  0  0
 16 17  1  0  0  0  0
 17 21  2  0  0  0  0
 18 22  2  0  0  0  0
 19 15  2  0  0  0  0
 20 18  1  0  0  0  0
 21 18  1  0  0  0  0
 23 24  1  0  0  0  0
 24 25  1  0  0  0  0
 25 26  2  6  0  0  0
 25 27  1  0  0  0  0
 25 28  1  0  0  0  0
M  END
>  <MODEL>
8

>  <REMARK>
 VINA RESULT:      -6.5      5.603      7.269
  Name = 
  6 active torsions:
  status: ('A' for Active; 'I' for Inactive)
    1  A    between atoms: N_2  and  C_24
    2  A    between atoms: O_3  and  P_6
    3  A    between atoms: O_3  and  C_17
    4  A    between atoms: C_4  and  C_9
    5  A    between atoms: C_8  and  C_9
    6  A    between atoms: C_12  and  C_17
                            x       y       z     vdW  Elec       q    Type
                         _______ _______ _______ _____ _____    ______ ____

>  <TORSDO>
F 6

$$$$
=
 OpenBabel11042411583D

 28 30  0  0  1  0  0  0  0  0999 V2000
  190.2440  176.9230  139.3680 C   0  0  0  0  0  0  0  0  0  0  0  0
  188.4770  177.0330  137.1860 C   0  0  0  0  0  3  0  0  0  0  0  0
  188.1290  177.6300  138.3990 C   0  0  0  0  0  0  0  0  0  0  0  0
  189.7040  176.3810  137.0560 C   0  0  0  0  0  3  0  0  0  0  0  0
  189.0080  177.5720  139.4810 C   0  0  0  0  0  3  0  0  0  0  0  0
  190.5960  176.3120  138.1380 C   0  0  0  0  0  0  0  0  0  0  0  0
  191.8410  175.6270  137.9660 N   0  0  0  0  0  0  0  0  0  0  0  0
  192.3810  174.0820  136.1690 C   0  0  0  0  0  2  0  0  0  0  0  0
  193.6950  174.7180  136.0670 N   0  0  0  0  0  2  0  0  0  0  0  0
  193.5460  176.1530  136.3120 C   0  0  0  0  0  2  0  0  0  0  0  0
  191.8480  174.2160  137.5930 C   0  0  0  0  0  2  0  0  0  0  0  0
  193.0660  176.3900  137.7430 C   0  0  0  0  0  2  0  0  0  0  0  0
  191.1450  176.9640  140.5700 C   0  0  1  0  0  3  0  0  0  0  0  0
  192.2010  177.8640  140.3960 O   0  0  0  0  0  1  0  0  0  0  0  0
  190.5400  178.4900  143.9980 C   0  0  0  0  0  3  0  0  0  0  0  0
  190.4070  177.1690  141.8670 C   0  0  1  0  0  3  0  0  0  0  0  0
  189.2550  176.4210  142.1020 C   0  0  0  0  0  3  0  0  0  0  0  0
  188.4690  177.1240  144.3870 C   0  0  0  0  0  0  0  0  0  0  0  0
  190.9650  178.0950  142.7390 C   0  0  0  0  0  3  0  0  0  0  0  0
  189.4390  178.0600  144.7230 C   0  0  0  0  0  2  0  0  0  0  0  0
  188.4100  176.4020  143.2020 C   0  0  0  0  0  3  0  0  0  0  0  0
  187.5630  176.9120  145.2330 O   0  0  0  0  0  0  0  0  0  0  0  0
  186.8090  178.3000  138.5470 C   0  0  0  0  0  2  0  0  0  0  0  0
  186.5950  178.6270  139.8880 O   0  0  0  0  0  0  0  0  0  0  0  0
  184.9260  178.8910  140.0250 P   0  0  1  0  0  0  0  0  0  0  0  0
  184.5550  180.1280  139.2400 O   0  0  0  0  0  0  0  0  0  0  0  0
  184.0490  177.5180  139.3800 N   0  0  0  0  0  1  0  0  0  0  0  0
  184.5080  179.1170  141.6490 O   0  0  0  0  0  1  0  0  0  0  0  0
  1  5  1  0  0  0  0
  1 13  1  0  0  0  0
  2  3  1  0  0  0  0
  3 23  1  0  0  0  0
  3  5  2  0  0  0  0
  4  2  2  0  0  0  0
  4  6  1  0  0  0  0
  6  1  2  0  0  0  0
  7  6  1  0  0  0  0
  8 11  1  0  0  0  0
  9  8  1  0  0  0  0
  9 10  1  0  0  0  0
 10 12  1  0  0  0  0
 11  7  1  0  0  0  0
 12  7  1  0  0  0  0
 13 14  1  6  0  0  0
 15 20  1  0  0  0  0
 16 13  1  1  0  0  0
 16 17  1  0  0  0  0
 16 19  1  0  0  0  0
 17 21  2  0  0  0  0
 18 20  1  0  0  0  0
 18 22  2  0  0  0  0
 19 15  2  0  0  0  0
 21 18  1  0  0  0  0
 23 24  1  0  0  0  0
 24 25  1  0  0  0  0
 25 26  2  6  0  0  0
 25 28  1  0  0  0  0
 27 25  1  0  0  0  0
M  END
>  <MODEL>
9

>  <REMARK>
 VINA RESULT:      -6.4      6.463      8.136
  Name = 
  6 active torsions:
  status: ('A' for Active; 'I' for Inactive)
    1  A    between atoms: N_2  and  C_24
    2  A    between atoms: O_3  and  P_6
    3  A    between atoms: O_3  and  C_17
    4  A    between atoms: C_4  and  C_9
    5  A    between atoms: C_8  and  C_9
    6  A    between atoms: C_12  and  C_17
                            x       y       z     vdW  Elec       q    Type
                         _______ _______ _______ _____ _____    ______ ____

>  <TORSDO>
F 6

$$$$
