=
 OpenBabel11032419513D

 27 28  0  0  0  0  0  0  0  0999 V2000
  189.6350  177.1370  138.8660 C   0  0  0  0  0  2  0  0  0  0  0  0
  189.3080  178.6230  138.9500 C   0  0  0  0  0  2  0  0  0  0  0  0
  188.4880  179.0490  137.8190 N   0  0  0  0  0  2  0  0  0  0  0  0
  187.9610  177.8460  137.1870 C   0  0  0  0  0  2  0  0  0  0  0  0
  186.4410  177.8330  137.2130 C   0  0  0  0  0  2  0  0  0  0  0  0
  185.9380  178.9640  137.9770 N   0  0  0  0  0  2  0  0  0  0  0  0
  184.8820  178.4660  138.8370 C   0  0  0  0  0  2  0  0  0  0  0  0
  183.3740  179.2070  140.4650 C   0  0  0  0  0  1  0  0  0  0  0  0
  184.7440  179.3310  140.0000 N   0  0  0  0  0  0  0  0  0  0  0  0
  185.5790  178.7680  141.0460 C   0  0  0  0  0  2  0  0  0  0  0  0
  185.2450  179.4130  142.3800 C   0  0  0  0  0  2  0  0  0  0  0  0
  185.3070  178.3830  143.4990 C   0  0  0  0  0  2  0  0  0  0  0  0
  184.3840  178.7570  144.6510 C   0  0  0  0  0  2  0  0  0  0  0  0
  182.9450  178.8610  144.1730 C   0  0  0  0  0  1  0  0  0  0  0  0
  190.4960  176.6560  140.0320 C   0  0  0  0  0  2  0  0  0  0  0  0
  189.8210  176.8720  141.3790 C   0  0  0  0  0  2  0  0  0  0  0  0
  189.9550  177.2200  146.4870 C   0  0  0  0  0  0  0  0  0  0  0  0
  189.7820  177.4470  147.8160 N   0  0  0  0  0  0  0  0  0  0  0  0
  190.7800  176.7220  142.4670 N   0  0  0  0  0  0  0  0  0  0  0  0
  188.5780  177.8180  148.3230 C   0  0  0  0  0  3  0  0  0  0  0  0
  188.8730  177.3680  145.6030 C   0  0  0  0  0  0  0  0  0  0  0  0
  187.4780  177.9700  147.4780 C   0  0  0  0  0  3  0  0  0  0  0  0
  187.6320  177.7410  146.1110 C   0  0  0  0  0  3  0  0  0  0  0  0
  189.0190  177.1090  144.1330 C   0  0  0  0  0  2  0  0  0  0  0  0
  191.4960  176.6570  144.7360 C   0  0  0  0  0  3  0  0  0  0  0  0
  191.2470  176.8380  145.9980 N   0  0  0  0  0  0  0  0  0  0  0  0
  190.4490  176.8300  143.7180 C   0  0  0  0  0  0  0  0  0  0  0  0
  1  2  1  0  0  0  0
  1 15  1  0  0  0  0
  3  2  1  0  0  0  0
  4  5  1  0  0  0  0
  4  3  1  0  0  0  0
  5  6  1  0  0  0  0
  6  7  1  0  0  0  0
  7  9  1  0  0  0  0
  9  8  1  0  0  0  0
  9 10  1  0  0  0  0
 10 11  1  0  0  0  0
 11 12  1  0  0  0  0
 12 13  1  0  0  0  0
 14 13  1  0  0  0  0
 15 16  1  0  0  0  0
 16 19  1  0  0  0  0
 17 18  2  0  0  0  0
 18 20  1  0  0  0  0
 19 27  2  0  0  0  0
 21 23  2  0  0  0  0
 21 17  1  0  0  0  0
 22 20  2  0  0  0  0
 23 22  1  0  0  0  0
 24 21  1  0  0  0  0
 25 26  2  0  0  0  0
 26 17  1  0  0  0  0
 27 24  1  0  0  0  0
 27 25  1  0  0  0  0
M  END
>  <MODEL>
1

>  <REMARK>
 VINA RESULT:      -6.8      0.000      0.000
  Name = 
  14 active torsions:
  status: ('A' for Active; 'I' for Inactive)
    1  A    between atoms: C_1  and  C_3
    2  A    between atoms: C_1  and  N_14
    3  A    between atoms: C_3  and  N_13
    4  A    between atoms: C_5  and  C_8
    5  A    between atoms: C_5  and  C_15
    6  A    between atoms: C_6  and  N_14
    7  A    between atoms: C_6  and  C_17
    8  A    between atoms: C_7  and  N_11
    9  A    between atoms: C_7  and  C_20
   10  A    between atoms: C_9  and  N_13
   11  A    between atoms: C_9  and  N_25
   12  A    between atoms: C_15  and  C_21
   13  A    between atoms: C_17  and  C_20
   14  A    between atoms: C_21  and  N_25
                            x       y       z     vdW  Elec       q    Type
                         _______ _______ _______ _____ _____    ______ ____

>  <TORSDO>
F 14

$$$$
=
 OpenBabel11032419513D

 27 28  0  0  0  0  0  0  0  0999 V2000
  184.4410  179.0050  138.8260 C   0  0  0  0  0  2  0  0  0  0  0  0
  185.5180  178.0340  138.3570 C   0  0  0  0  0  2  0  0  0  0  0  0
  186.7830  178.7230  138.1160 N   0  0  0  0  0  2  0  0  0  0  0  0
  187.6070  177.8440  137.2950 C   0  0  0  0  0  2  0  0  0  0  0  0
  188.7420  177.2410  138.1070 C   0  0  0  0  0  2  0  0  0  0  0  0
  189.0290  178.0680  139.2690 N   0  0  0  0  0  2  0  0  0  0  0  0
  190.2460  177.5570  139.8700 C   0  0  0  0  0  2  0  0  0  0  0  0
  188.8000  178.0500  141.6420 C   0  0  0  0  0  1  0  0  0  0  0  0
  190.1630  177.6650  141.3190 N   0  0  0  0  0  0  0  0  0  0  0  0
  190.3440  176.3280  141.8540 C   0  0  0  0  0  2  0  0  0  0  0  0
  190.1240  176.3360  143.3570 C   0  0  0  0  0  2  0  0  0  0  0  0
  191.4570  176.2830  144.0910 C   0  0  0  0  0  2  0  0  0  0  0  0
  191.3650  176.9460  145.4580 C   0  0  0  0  0  2  0  0  0  0  0  0
  191.9660  176.0510  146.5300 C   0  0  0  0  0  1  0  0  0  0  0  0
  184.4500  179.2070  140.3410 C   0  0  0  0  0  2  0  0  0  0  0  0
  183.7750  178.0610  141.0820 C   0  0  0  0  0  2  0  0  0  0  0  0
  185.2430  178.5730  145.9610 C   0  0  0  0  0  0  0  0  0  0  0  0
  185.8110  178.5430  147.1970 N   0  0  0  0  0  0  0  0  0  0  0  0
  183.2280  178.5200  142.3530 N   0  0  0  0  0  0  0  0  0  0  0  0
  187.0780  178.0950  147.3860 C   0  0  0  0  0  3  0  0  0  0  0  0
  185.9720  178.1330  144.8440 C   0  0  0  0  0  0  0  0  0  0  0  0
  187.8350  177.6540  146.3010 C   0  0  0  0  0  3  0  0  0  0  0  0
  187.2750  177.6760  145.0240 C   0  0  0  0  0  3  0  0  0  0  0  0
  185.3880  178.1660  143.4630 C   0  0  0  0  0  2  0  0  0  0  0  0
  183.2780  179.0540  144.6720 C   0  0  0  0  0  3  0  0  0  0  0  0
  183.8990  179.0480  145.8120 N   0  0  0  0  0  0  0  0  0  0  0  0
  183.9280  178.5710  143.4450 C   0  0  0  0  0  0  0  0  0  0  0  0
  1 15  1  0  0  0  0
  2  1  1  0  0  0  0
  3  2  1  0  0  0  0
  4  5  1  0  0  0  0
  4  3  1  0  0  0  0
  5  6  1  0  0  0  0
  6  7  1  0  0  0  0
  7  9  1  0  0  0  0
  9  8  1  0  0  0  0
  9 10  1  0  0  0  0
 10 11  1  0  0  0  0
 11 12  1  0  0  0  0
 12 13  1  0  0  0  0
 13 14  1  0  0  0  0
 15 16  1  0  0  0  0
 16 19  1  0  0  0  0
 17 18  2  0  0  0  0
 18 20  1  0  0  0  0
 19 27  2  0  0  0  0
 21 23  2  0  0  0  0
 21 17  1  0  0  0  0
 22 20  2  0  0  0  0
 23 22  1  0  0  0  0
 24 21  1  0  0  0  0
 25 26  2  0  0  0  0
 26 17  1  0  0  0  0
 27 24  1  0  0  0  0
 27 25  1  0  0  0  0
M  END
>  <MODEL>
2

>  <REMARK>
 VINA RESULT:      -6.7      1.837      5.474
  Name = 
  14 active torsions:
  status: ('A' for Active; 'I' for Inactive)
    1  A    between atoms: C_1  and  C_3
    2  A    between atoms: C_1  and  N_14
    3  A    between atoms: C_3  and  N_13
    4  A    between atoms: C_5  and  C_8
    5  A    between atoms: C_5  and  C_15
    6  A    between atoms: C_6  and  N_14
    7  A    between atoms: C_6  and  C_17
    8  A    between atoms: C_7  and  N_11
    9  A    between atoms: C_7  and  C_20
   10  A    between atoms: C_9  and  N_13
   11  A    between atoms: C_9  and  N_25
   12  A    between atoms: C_15  and  C_21
   13  A    between atoms: C_17  and  C_20
   14  A    between atoms: C_21  and  N_25
                            x       y       z     vdW  Elec       q    Type
                         _______ _______ _______ _____ _____    ______ ____

>  <TORSDO>
F 14

$$$$
=
 OpenBabel11032419513D

 27 28  0  0  0  0  0  0  0  0999 V2000
  187.2310  177.9870  147.1560 C   0  0  0  0  0  2  0  0  0  0  0  0
  187.8700  178.1490  148.5310 C   0  0  0  0  0  2  0  0  0  0  0  0
  189.3270  178.0900  148.4460 N   0  0  0  0  0  2  0  0  0  0  0  0
  189.6630  177.3860  147.2150 C   0  0  0  0  0  2  0  0  0  0  0  0
  191.0250  176.7180  147.3190 C   0  0  0  0  0  2  0  0  0  0  0  0
  191.7550  176.8580  146.0680 N   0  0  0  0  0  2  0  0  0  0  0  0
  190.8350  177.4100  145.0930 C   0  0  0  0  0  2  0  0  0  0  0  0
  191.8520  175.5800  144.0500 C   0  0  0  0  0  1  0  0  0  0  0  0
  191.0130  176.7410  143.8120 N   0  0  0  0  0  0  0  0  0  0  0  0
  189.7140  176.2290  143.4180 C   0  0  0  0  0  2  0  0  0  0  0  0
  188.6330  177.2450  143.7460 C   0  0  0  0  0  2  0  0  0  0  0  0
  187.6650  177.3880  142.5810 C   0  0  0  0  0  2  0  0  0  0  0  0
  188.0680  178.5310  141.6600 C   0  0  0  0  0  2  0  0  0  0  0  0
  188.4780  178.0010  140.2950 C   0  0  0  0  0  1  0  0  0  0  0  0
  185.8300  178.5910  147.0830 C   0  0  0  0  0  2  0  0  0  0  0  0
  185.5140  179.1550  145.7040 C   0  0  0  0  0  2  0  0  0  0  0  0
  182.3620  178.7500  141.6880 C   0  0  0  0  0  0  0  0  0  0  0  0
  181.7220  178.7250  140.4890 N   0  0  0  0  0  0  0  0  0  0  0  0
  184.0840  179.0810  145.4310 N   0  0  0  0  0  0  0  0  0  0  0  0
  182.4060  178.7100  139.3170 C   0  0  0  0  0  3  0  0  0  0  0  0
  183.7660  178.7620  141.7330 C   0  0  0  0  0  0  0  0  0  0  0  0
  183.8010  178.7160  139.3200 C   0  0  0  0  0  3  0  0  0  0  0  0
  184.4810  178.7410  140.5370 C   0  0  0  0  0  3  0  0  0  0  0  0
  184.5110  178.7710  143.0340 C   0  0  0  0  0  2  0  0  0  0  0  0
  182.1420  178.8510  144.0750 C   0  0  0  0  0  3  0  0  0  0  0  0
  181.5960  178.7730  142.8990 N   0  0  0  0  0  0  0  0  0  0  0  0
  183.6020  178.9150  144.2380 C   0  0  0  0  0  0  0  0  0  0  0  0
  1  2  1  0  0  0  0
  3  2  1  0  0  0  0
  4  5  1  0  0  0  0
  4  3  1  0  0  0  0
  6  5  1  0  0  0  0
  7  6  1  0  0  0  0
  9  8  1  0  0  0  0
  9  7  1  0  0  0  0
 10 11  1  0  0  0  0
 10  9  1  0  0  0  0
 12 11  1  0  0  0  0
 13 12  1  0  0  0  0
 14 13  1  0  0  0  0
 15  1  1  0  0  0  0
 16 15  1  0  0  0  0
 17 21  1  0  0  0  0
 17 26  1  0  0  0  0
 18 17  2  0  0  0  0
 19 16  1  0  0  0  0
 20 22  2  0  0  0  0
 20 18  1  0  0  0  0
 21 24  1  0  0  0  0
 22 23  1  0  0  0  0
 23 21  2  0  0  0  0
 24 27  1  0  0  0  0
 25 27  1  0  0  0  0
 26 25  2  0  0  0  0
 27 19  2  0  0  0  0
M  END
>  <MODEL>
3

>  <REMARK>
 VINA RESULT:      -6.6      2.281      8.420
  Name = 
  14 active torsions:
  status: ('A' for Active; 'I' for Inactive)
    1  A    between atoms: C_1  and  C_3
    2  A    between atoms: C_1  and  N_14
    3  A    between atoms: C_3  and  N_13
    4  A    between atoms: C_5  and  C_8
    5  A    between atoms: C_5  and  C_15
    6  A    between atoms: C_6  and  N_14
    7  A    between atoms: C_6  and  C_17
    8  A    between atoms: C_7  and  N_11
    9  A    between atoms: C_7  and  C_20
   10  A    between atoms: C_9  and  N_13
   11  A    between atoms: C_9  and  N_25
   12  A    between atoms: C_15  and  C_21
   13  A    between atoms: C_17  and  C_20
   14  A    between atoms: C_21  and  N_25
                            x       y       z     vdW  Elec       q    Type
                         _______ _______ _______ _____ _____    ______ ____

>  <TORSDO>
F 14

$$$$
=
 OpenBabel11032419513D

 27 28  0  0  0  0  0  0  0  0999 V2000
  191.0700  177.7960  143.9280 C   0  0  0  0  0  2  0  0  0  0  0  0
  191.1310  176.3360  143.4950 C   0  0  0  0  0  2  0  0  0  0  0  0
  190.1820  176.0640  142.4180 N   0  0  0  0  0  2  0  0  0  0  0  0
  190.0410  177.2910  141.6430 C   0  0  0  0  0  2  0  0  0  0  0  0
  190.5890  177.1160  140.2350 C   0  0  0  0  0  2  0  0  0  0  0  0
  189.5170  177.2270  139.2570 N   0  0  0  0  0  2  0  0  0  0  0  0
  188.6610  178.3180  139.6800 C   0  0  0  0  0  2  0  0  0  0  0  0
  187.7240  177.4640  137.7140 C   0  0  0  0  0  1  0  0  0  0  0  0
  187.6020  178.5210  138.7020 N   0  0  0  0  0  0  0  0  0  0  0  0
  186.3430  178.2910  139.3870 C   0  0  0  0  0  2  0  0  0  0  0  0
  185.1820  178.6350  138.4700 C   0  0  0  0  0  2  0  0  0  0  0  0
  183.9370  178.9580  139.2850 C   0  0  0  0  0  2  0  0  0  0  0  0
  182.7910  178.0150  138.9460 C   0  0  0  0  0  2  0  0  0  0  0  0
  182.7710  176.8310  139.8990 C   0  0  0  0  0  1  0  0  0  0  0  0
  190.6670  177.9600  145.3930 C   0  0  0  0  0  2  0  0  0  0  0  0
  189.6480  176.9190  145.8340 C   0  0  0  0  0  2  0  0  0  0  0  0
  184.8760  178.7560  145.5490 C   0  0  0  0  0  0  0  0  0  0  0  0
  183.6550  179.2620  145.2280 N   0  0  0  0  0  0  0  0  0  0  0  0
  188.6450  177.5150  146.7070 N   0  0  0  0  0  0  0  0  0  0  0  0
  183.1760  179.2130  143.9590 C   0  0  0  0  0  3  0  0  0  0  0  0
  185.6730  178.1640  144.5550 C   0  0  0  0  0  0  0  0  0  0  0  0
  183.9360  178.6280  142.9450 C   0  0  0  0  0  3  0  0  0  0  0  0
  185.1910  178.1020  143.2500 C   0  0  0  0  0  3  0  0  0  0  0  0
  187.0170  177.5780  144.8720 C   0  0  0  0  0  2  0  0  0  0  0  0
  186.5170  178.4240  147.2670 C   0  0  0  0  0  3  0  0  0  0  0  0
  185.3420  178.8380  146.9020 N   0  0  0  0  0  0  0  0  0  0  0  0
  187.4530  177.8300  146.3000 C   0  0  0  0  0  0  0  0  0  0  0  0
  1 15  1  0  0  0  0
  2  1  1  0  0  0  0
  3  2  1  0  0  0  0
  4  3  1  0  0  0  0
  5  4  1  0  0  0  0
  6  7  1  0  0  0  0
  6  5  1  0  0  0  0
  8  9  1  0  0  0  0
  9 10  1  0  0  0  0
  9  7  1  0  0  0  0
 11 12  1  0  0  0  0
 11 10  1  0  0  0  0
 13 12  1  0  0  0  0
 13 14  1  0  0  0  0
 15 16  1  0  0  0  0
 16 19  1  0  0  0  0
 17 26  1  0  0  0  0
 18 17  2  0  0  0  0
 20 18  1  0  0  0  0
 21 24  1  0  0  0  0
 21 17  1  0  0  0  0
 22 23  1  0  0  0  0
 22 20  2  0  0  0  0
 23 21  2  0  0  0  0
 24 27  1  0  0  0  0
 26 25  2  0  0  0  0
 27 19  2  0  0  0  0
 27 25  1  0  0  0  0
M  END
>  <MODEL>
4

>  <REMARK>
 VINA RESULT:      -6.5      1.849      4.970
  Name = 
  14 active torsions:
  status: ('A' for Active; 'I' for Inactive)
    1  A    between atoms: C_1  and  C_3
    2  A    between atoms: C_1  and  N_14
    3  A    between atoms: C_3  and  N_13
    4  A    between atoms: C_5  and  C_8
    5  A    between atoms: C_5  and  C_15
    6  A    between atoms: C_6  and  N_14
    7  A    between atoms: C_6  and  C_17
    8  A    between atoms: C_7  and  N_11
    9  A    between atoms: C_7  and  C_20
   10  A    between atoms: C_9  and  N_13
   11  A    between atoms: C_9  and  N_25
   12  A    between atoms: C_15  and  C_21
   13  A    between atoms: C_17  and  C_20
   14  A    between atoms: C_21  and  N_25
                            x       y       z     vdW  Elec       q    Type
                         _______ _______ _______ _____ _____    ______ ____

>  <TORSDO>
F 14

$$$$
=
 OpenBabel11032419513D

 27 28  0  0  0  0  0  0  0  0999 V2000
  191.4650  177.8610  143.0590 C   0  0  0  0  0  2  0  0  0  0  0  0
  190.7600  176.6270  142.5060 C   0  0  0  0  0  2  0  0  0  0  0  0
  190.1820  176.8940  141.1910 N   0  0  0  0  0  2  0  0  0  0  0  0
  188.7590  177.1430  141.3850 C   0  0  0  0  0  2  0  0  0  0  0  0
  188.3970  178.5720  141.0100 C   0  0  0  0  0  2  0  0  0  0  0  0
  188.6100  178.7930  139.5880 N   0  0  0  0  0  2  0  0  0  0  0  0
  187.7000  177.9160  138.8760 C   0  0  0  0  0  2  0  0  0  0  0  0
  189.0420  178.9340  137.2530 C   0  0  0  0  0  1  0  0  0  0  0  0
  188.0160  177.9260  137.4550 N   0  0  0  0  0  0  0  0  0  0  0  0
  188.6370  176.6500  137.1500 C   0  0  0  0  0  2  0  0  0  0  0  0
  189.9790  176.8730  136.4750 C   0  0  0  0  0  2  0  0  0  0  0  0
  190.8180  175.6040  136.5250 C   0  0  0  0  0  2  0  0  0  0  0  0
  191.3790  175.3640  137.9200 C   0  0  0  0  0  2  0  0  0  0  0  0
  192.3460  176.4720  138.3060 C   0  0  0  0  0  1  0  0  0  0  0  0
  191.1570  178.1030  144.5350 C   0  0  0  0  0  2  0  0  0  0  0  0
  190.5050  176.8960  145.1960 C   0  0  0  0  0  2  0  0  0  0  0  0
  185.7170  178.4400  146.1540 C   0  0  0  0  0  0  0  0  0  0  0  0
  184.4390  178.9040  146.1630 N   0  0  0  0  0  0  0  0  0  0  0  0
  189.6880  177.3070  146.3310 N   0  0  0  0  0  0  0  0  0  0  0  0
  183.7040  178.9880  145.0250 C   0  0  0  0  0  3  0  0  0  0  0  0
  186.3070  178.0360  144.9450 C   0  0  0  0  0  0  0  0  0  0  0  0
  184.2540  178.5920  143.8050 C   0  0  0  0  0  3  0  0  0  0  0  0
  185.5630  178.1120  143.7700 C   0  0  0  0  0  3  0  0  0  0  0  0
  187.7080  177.5030  144.8950 C   0  0  0  0  0  2  0  0  0  0  0  0
  187.6950  177.9950  147.4360 C   0  0  0  0  0  3  0  0  0  0  0  0
  186.4550  178.3760  147.3800 N   0  0  0  0  0  0  0  0  0  0  0  0
  188.4270  177.5940  146.2250 C   0  0  0  0  0  0  0  0  0  0  0  0
  1 15  1  0  0  0  0
  2  1  1  0  0  0  0
  3  4  1  0  0  0  0
  3  2  1  0  0  0  0
  5  4  1  0  0  0  0
  6  5  1  0  0  0  0
  7  6  1  0  0  0  0
  8  9  1  0  0  0  0
  9  7  1  0  0  0  0
 10  9  1  0  0  0  0
 11 12  1  0  0  0  0
 11 10  1  0  0  0  0
 12 13  1  0  0  0  0
 13 14  1  0  0  0  0
 15 16  1  0  0  0  0
 16 19  1  0  0  0  0
 17 18  2  0  0  0  0
 17 26  1  0  0  0  0
 20 18  1  0  0  0  0
 21 17  1  0  0  0  0
 22 20  2  0  0  0  0
 23 22  1  0  0  0  0
 23 21  2  0  0  0  0
 24 21  1  0  0  0  0
 24 27  1  0  0  0  0
 26 25  2  0  0  0  0
 27 19  2  0  0  0  0
 27 25  1  0  0  0  0
M  END
>  <MODEL>
5

>  <REMARK>
 VINA RESULT:      -6.5      2.063      5.575
  Name = 
  14 active torsions:
  status: ('A' for Active; 'I' for Inactive)
    1  A    between atoms: C_1  and  C_3
    2  A    between atoms: C_1  and  N_14
    3  A    between atoms: C_3  and  N_13
    4  A    between atoms: C_5  and  C_8
    5  A    between atoms: C_5  and  C_15
    6  A    between atoms: C_6  and  N_14
    7  A    between atoms: C_6  and  C_17
    8  A    between atoms: C_7  and  N_11
    9  A    between atoms: C_7  and  C_20
   10  A    between atoms: C_9  and  N_13
   11  A    between atoms: C_9  and  N_25
   12  A    between atoms: C_15  and  C_21
   13  A    between atoms: C_17  and  C_20
   14  A    between atoms: C_21  and  N_25
                            x       y       z     vdW  Elec       q    Type
                         _______ _______ _______ _____ _____    ______ ____

>  <TORSDO>
F 14

$$$$
=
 OpenBabel11032419513D

 27 28  0  0  0  0  0  0  0  0999 V2000
  183.1350  178.7830  143.7490 C   0  0  0  0  0  2  0  0  0  0  0  0
  184.0670  178.2320  142.6770 C   0  0  0  0  0  2  0  0  0  0  0  0
  183.4760  178.3580  141.3470 N   0  0  0  0  0  2  0  0  0  0  0  0
  184.4760  178.9710  140.4830 C   0  0  0  0  0  2  0  0  0  0  0  0
  185.8160  179.0900  141.1930 C   0  0  0  0  0  2  0  0  0  0  0  0
  186.8890  178.6130  140.3330 N   0  0  0  0  0  2  0  0  0  0  0  0
  188.0280  178.3300  141.1840 C   0  0  0  0  0  2  0  0  0  0  0  0
  189.9710  177.0370  141.0310 C   0  0  0  0  0  1  0  0  0  0  0  0
  189.2040  178.0740  140.3650 N   0  0  0  0  0  0  0  0  0  0  0  0
  188.7350  177.4950  139.1200 C   0  0  0  0  0  2  0  0  0  0  0  0
  189.7700  177.7010  138.0280 C   0  0  0  0  0  2  0  0  0  0  0  0
  189.5490  176.7130  136.8910 C   0  0  0  0  0  2  0  0  0  0  0  0
  190.8460  176.0210  136.4970 C   0  0  0  0  0  2  0  0  0  0  0  0
  191.2950  175.0620  137.5880 C   0  0  0  0  0  1  0  0  0  0  0  0
  183.8130  178.9070  145.1130 C   0  0  0  0  0  2  0  0  0  0  0  0
  185.3220  178.7200  145.0280 C   0  0  0  0  0  2  0  0  0  0  0  0
  189.7130  177.0950  147.1030 C   0  0  0  0  0  0  0  0  0  0  0  0
  190.9260  176.5710  147.4250 N   0  0  0  0  0  0  0  0  0  0  0  0
  185.8840  178.4540  146.3470 N   0  0  0  0  0  0  0  0  0  0  0  0
  191.8440  176.2630  146.4730 C   0  0  0  0  0  3  0  0  0  0  0  0
  189.3860  177.3290  145.7570 C   0  0  0  0  0  0  0  0  0  0  0  0
  191.5580  176.4860  145.1260 C   0  0  0  0  0  3  0  0  0  0  0  0
  190.3210  177.0240  144.7710 C   0  0  0  0  0  3  0  0  0  0  0  0
  188.0670  177.9220  145.3610 C   0  0  0  0  0  2  0  0  0  0  0  0
  187.5810  177.8480  147.9020 C   0  0  0  0  0  3  0  0  0  0  0  0
  188.7740  177.3970  148.1420 N   0  0  0  0  0  0  0  0  0  0  0  0
  187.1150  178.0870  146.5280 C   0  0  0  0  0  0  0  0  0  0  0  0
  1 15  1  0  0  0  0
  2  1  1  0  0  0  0
  3  2  1  0  0  0  0
  4  5  1  0  0  0  0
  4  3  1  0  0  0  0
  6  7  1  0  0  0  0
  6  5  1  0  0  0  0
  9  8  1  0  0  0  0
  9  7  1  0  0  0  0
 10  9  1  0  0  0  0
 11 10  1  0  0  0  0
 12 11  1  0  0  0  0
 13 12  1  0  0  0  0
 13 14  1  0  0  0  0
 16 15  1  0  0  0  0
 16 19  1  0  0  0  0
 17 18  2  0  0  0  0
 17 26  1  0  0  0  0
 19 27  2  0  0  0  0
 20 18  1  0  0  0  0
 21 17  1  0  0  0  0
 22 20  2  0  0  0  0
 23 22  1  0  0  0  0
 23 21  2  0  0  0  0
 24 21  1  0  0  0  0
 24 27  1  0  0  0  0
 25 26  2  0  0  0  0
 27 25  1  0  0  0  0
M  END
>  <MODEL>
6

>  <REMARK>
 VINA RESULT:      -6.5      1.723      5.829
  Name = 
  14 active torsions:
  status: ('A' for Active; 'I' for Inactive)
    1  A    between atoms: C_1  and  C_3
    2  A    between atoms: C_1  and  N_14
    3  A    between atoms: C_3  and  N_13
    4  A    between atoms: C_5  and  C_8
    5  A    between atoms: C_5  and  C_15
    6  A    between atoms: C_6  and  N_14
    7  A    between atoms: C_6  and  C_17
    8  A    between atoms: C_7  and  N_11
    9  A    between atoms: C_7  and  C_20
   10  A    between atoms: C_9  and  N_13
   11  A    between atoms: C_9  and  N_25
   12  A    between atoms: C_15  and  C_21
   13  A    between atoms: C_17  and  C_20
   14  A    between atoms: C_21  and  N_25
                            x       y       z     vdW  Elec       q    Type
                         _______ _______ _______ _____ _____    ______ ____

>  <TORSDO>
F 14

$$$$
=
 OpenBabel11032419513D

 27 28  0  0  0  0  0  0  0  0999 V2000
  186.0450  178.2620  144.7300 C   0  0  0  0  0  2  0  0  0  0  0  0
  185.1740  178.6010  145.9340 C   0  0  0  0  0  2  0  0  0  0  0  0
  185.9830  178.7880  147.1350 N   0  0  0  0  0  2  0  0  0  0  0  0
  187.2960  178.2120  146.8690 C   0  0  0  0  0  2  0  0  0  0  0  0
  187.9410  177.7030  148.1490 C   0  0  0  0  0  2  0  0  0  0  0  0
  189.3840  177.8860  148.0950 N   0  0  0  0  0  2  0  0  0  0  0  0
  189.8930  176.9900  147.0750 C   0  0  0  0  0  2  0  0  0  0  0  0
  191.9090  175.8930  147.5250 C   0  0  0  0  0  1  0  0  0  0  0  0
  191.3410  177.1160  146.9860 N   0  0  0  0  0  0  0  0  0  0  0  0
  191.6780  177.1320  145.5750 C   0  0  0  0  0  2  0  0  0  0  0  0
  190.4430  177.4480  144.7490 C   0  0  0  0  0  2  0  0  0  0  0  0
  190.7180  177.2140  143.2700 C   0  0  0  0  0  2  0  0  0  0  0  0
  189.9730  175.9900  142.7530 C   0  0  0  0  0  2  0  0  0  0  0  0
  188.5280  176.0030  143.2250 C   0  0  0  0  0  1  0  0  0  0  0  0
  185.2480  178.1840  143.4290 C   0  0  0  0  0  2  0  0  0  0  0  0
  185.3240  179.4740  142.6250 C   0  0  0  0  0  2  0  0  0  0  0  0
  187.5570  177.9910  138.2610 C   0  0  0  0  0  0  0  0  0  0  0  0
  188.3630  177.6640  137.2160 N   0  0  0  0  0  0  0  0  0  0  0  0
  184.9670  179.2360  141.2310 N   0  0  0  0  0  0  0  0  0  0  0  0
  189.6940  177.4530  137.3830 C   0  0  0  0  0  3  0  0  0  0  0  0
  188.0990  178.1170  139.5510 C   0  0  0  0  0  0  0  0  0  0  0  0
  190.2680  177.5640  138.6500 C   0  0  0  0  0  3  0  0  0  0  0  0
  189.4610  177.8970  139.7370 C   0  0  0  0  0  3  0  0  0  0  0  0
  187.2410  178.4590  140.7330 C   0  0  0  0  0  2  0  0  0  0  0  0
  185.3440  178.5780  138.9750 C   0  0  0  0  0  3  0  0  0  0  0  0
  186.1600  178.2120  138.0340 N   0  0  0  0  0  0  0  0  0  0  0  0
  185.8110  178.7860  140.3540 C   0  0  0  0  0  0  0  0  0  0  0  0
  1  2  1  0  0  0  0
  2  3  1  0  0  0  0
  4  3  1  0  0  0  0
  4  5  1  0  0  0  0
  6  5  1  0  0  0  0
  7  6  1  0  0  0  0
  9  7  1  0  0  0  0
  9  8  1  0  0  0  0
 10  9  1  0  0  0  0
 11 10  1  0  0  0  0
 12 11  1  0  0  0  0
 13 14  1  0  0  0  0
 13 12  1  0  0  0  0
 15  1  1  0  0  0  0
 16 15  1  0  0  0  0
 17 21  1  0  0  0  0
 18 20  1  0  0  0  0
 18 17  2  0  0  0  0
 19 16  1  0  0  0  0
 20 22  2  0  0  0  0
 21 23  2  0  0  0  0
 21 24  1  0  0  0  0
 22 23  1  0  0  0  0
 25 27  1  0  0  0  0
 26 17  1  0  0  0  0
 26 25  2  0  0  0  0
 27 24  1  0  0  0  0
 27 19  2  0  0  0  0
M  END
>  <MODEL>
7

>  <REMARK>
 VINA RESULT:      -6.4      1.521      8.352
  Name = 
  14 active torsions:
  status: ('A' for Active; 'I' for Inactive)
    1  A    between atoms: C_1  and  C_3
    2  A    between atoms: C_1  and  N_14
    3  A    between atoms: C_3  and  N_13
    4  A    between atoms: C_5  and  C_8
    5  A    between atoms: C_5  and  C_15
    6  A    between atoms: C_6  and  N_14
    7  A    between atoms: C_6  and  C_17
    8  A    between atoms: C_7  and  N_11
    9  A    between atoms: C_7  and  C_20
   10  A    between atoms: C_9  and  N_13
   11  A    between atoms: C_9  and  N_25
   12  A    between atoms: C_15  and  C_21
   13  A    between atoms: C_17  and  C_20
   14  A    between atoms: C_21  and  N_25
                            x       y       z     vdW  Elec       q    Type
                         _______ _______ _______ _____ _____    ______ ____

>  <TORSDO>
F 14

$$$$
=
 OpenBabel11032419513D

 27 28  0  0  0  0  0  0  0  0999 V2000
  184.1100  179.0360  139.6880 C   0  0  0  0  0  2  0  0  0  0  0  0
  185.5660  178.5900  139.6400 C   0  0  0  0  0  2  0  0  0  0  0  0
  186.0690  178.5740  138.2680 N   0  0  0  0  0  2  0  0  0  0  0  0
  187.3710  177.9180  138.2910 C   0  0  0  0  0  2  0  0  0  0  0  0
  187.3930  176.7110  137.3660 C   0  0  0  0  0  2  0  0  0  0  0  0
  188.6020  175.9300  137.5830 N   0  0  0  0  0  2  0  0  0  0  0  0
  189.5680  176.8020  138.2220 C   0  0  0  0  0  2  0  0  0  0  0  0
  191.5790  175.6250  138.0110 C   0  0  0  0  0  1  0  0  0  0  0  0
  190.5420  176.0050  138.9540 N   0  0  0  0  0  0  0  0  0  0  0  0
  191.1740  176.8880  139.9170 C   0  0  0  0  0  2  0  0  0  0  0  0
  190.1600  177.3330  140.9570 C   0  0  0  0  0  2  0  0  0  0  0  0
  190.2230  176.4310  142.1820 C   0  0  0  0  0  2  0  0  0  0  0  0
  191.3390  176.8540  143.1270 C   0  0  0  0  0  2  0  0  0  0  0  0
  191.7030  175.7180  144.0690 C   0  0  0  0  0  1  0  0  0  0  0  0
  183.4670  178.8030  141.0540 C   0  0  0  0  0  2  0  0  0  0  0  0
  184.4230  178.1460  142.0400 C   0  0  0  0  0  2  0  0  0  0  0  0
  186.5480  178.1890  146.7000 C   0  0  0  0  0  0  0  0  0  0  0  0
  187.2790  178.0410  147.8370 N   0  0  0  0  0  0  0  0  0  0  0  0
  184.0600  178.4790  143.4120 N   0  0  0  0  0  0  0  0  0  0  0  0
  188.5550  177.5790  147.8080 C   0  0  0  0  0  3  0  0  0  0  0  0
  187.1130  177.8590  145.4560 C   0  0  0  0  0  0  0  0  0  0  0  0
  189.1520  177.2460  146.5920 C   0  0  0  0  0  3  0  0  0  0  0  0
  188.4230  177.3900  145.4120 C   0  0  0  0  0  3  0  0  0  0  0  0
  186.3470  178.0250  144.1780 C   0  0  0  0  0  2  0  0  0  0  0  0
  184.4320  178.7880  145.7430 C   0  0  0  0  0  3  0  0  0  0  0  0
  185.2020  178.6730  146.7820 N   0  0  0  0  0  0  0  0  0  0  0  0
  184.9030  178.4270  144.3970 C   0  0  0  0  0  0  0  0  0  0  0  0
  1 15  1  0  0  0  0
  2  1  1  0  0  0  0
  3  4  1  0  0  0  0
  3  2  1  0  0  0  0
  5  6  1  0  0  0  0
  5  4  1  0  0  0  0
  6  7  1  0  0  0  0
  7  9  1  0  0  0  0
  8  9  1  0  0  0  0
  9 10  1  0  0  0  0
 10 11  1  0  0  0  0
 11 12  1  0  0  0  0
 12 13  1  0  0  0  0
 13 14  1  0  0  0  0
 15 16  1  0  0  0  0
 16 19  1  0  0  0  0
 17 26  1  0  0  0  0
 17 18  2  0  0  0  0
 19 27  2  0  0  0  0
 20 18  1  0  0  0  0
 21 17  1  0  0  0  0
 22 20  2  0  0  0  0
 23 21  2  0  0  0  0
 23 22  1  0  0  0  0
 24 27  1  0  0  0  0
 24 21  1  0  0  0  0
 25 26  2  0  0  0  0
 27 25  1  0  0  0  0
M  END
>  <MODEL>
8

>  <REMARK>
 VINA RESULT:      -6.4      1.851      5.345
  Name = 
  14 active torsions:
  status: ('A' for Active; 'I' for Inactive)
    1  A    between atoms: C_1  and  C_3
    2  A    between atoms: C_1  and  N_14
    3  A    between atoms: C_3  and  N_13
    4  A    between atoms: C_5  and  C_8
    5  A    between atoms: C_5  and  C_15
    6  A    between atoms: C_6  and  N_14
    7  A    between atoms: C_6  and  C_17
    8  A    between atoms: C_7  and  N_11
    9  A    between atoms: C_7  and  C_20
   10  A    between atoms: C_9  and  N_13
   11  A    between atoms: C_9  and  N_25
   12  A    between atoms: C_15  and  C_21
   13  A    between atoms: C_17  and  C_20
   14  A    between atoms: C_21  and  N_25
                            x       y       z     vdW  Elec       q    Type
                         _______ _______ _______ _____ _____    ______ ____

>  <TORSDO>
F 14

$$$$
=
 OpenBabel11032419513D

 27 28  0  0  0  0  0  0  0  0999 V2000
  185.2670  178.1140  142.7710 C   0  0  0  0  0  2  0  0  0  0  0  0
  184.9310  179.3570  141.9550 C   0  0  0  0  0  2  0  0  0  0  0  0
  185.6120  179.3410  140.6620 N   0  0  0  0  0  2  0  0  0  0  0  0
  184.6300  178.9490  139.6590 C   0  0  0  0  0  2  0  0  0  0  0  0
  185.3060  178.5600  138.3530 C   0  0  0  0  0  2  0  0  0  0  0  0
  186.7530  178.6180  138.4950 N   0  0  0  0  0  2  0  0  0  0  0  0
  187.2770  177.3300  138.0830 C   0  0  0  0  0  2  0  0  0  0  0  0
  189.0580  178.8400  137.9530 C   0  0  0  0  0  1  0  0  0  0  0  0
  188.6650  177.4720  137.6680 N   0  0  0  0  0  0  0  0  0  0  0  0
  189.4570  176.6310  138.5470 C   0  0  0  0  0  2  0  0  0  0  0  0
  190.5530  177.4530  139.2030 C   0  0  0  0  0  2  0  0  0  0  0  0
  190.6330  177.1420  140.6910 C   0  0  0  0  0  2  0  0  0  0  0  0
  189.2470  177.0530  141.3160 C   0  0  0  0  0  2  0  0  0  0  0  0
  188.7450  178.4340  141.7060 C   0  0  0  0  0  1  0  0  0  0  0  0
  184.7630  178.2010  144.2110 C   0  0  0  0  0  2  0  0  0  0  0  0
  185.4960  179.2640  145.0180 C   0  0  0  0  0  2  0  0  0  0  0  0
  189.6260  177.0160  147.0480 C   0  0  0  0  0  0  0  0  0  0  0  0
  190.7820  176.3670  147.3490 N   0  0  0  0  0  0  0  0  0  0  0  0
  185.9380  178.7260  146.2990 N   0  0  0  0  0  0  0  0  0  0  0  0
  191.7570  176.1830  146.4220 C   0  0  0  0  0  3  0  0  0  0  0  0
  189.4180  177.5130  145.7510 C   0  0  0  0  0  0  0  0  0  0  0  0
  191.5900  176.6670  145.1240 C   0  0  0  0  0  3  0  0  0  0  0  0
  190.4120  177.3360  144.7920 C   0  0  0  0  0  3  0  0  0  0  0  0
  188.1650  178.2500  145.3830 C   0  0  0  0  0  2  0  0  0  0  0  0
  187.4750  177.7410  147.8250 C   0  0  0  0  0  3  0  0  0  0  0  0
  188.6230  177.1790  148.0580 N   0  0  0  0  0  0  0  0  0  0  0  0
  187.1320  178.2560  146.4920 C   0  0  0  0  0  0  0  0  0  0  0  0
  1 15  1  0  0  0  0
  2  1  1  0  0  0  0
  3  2  1  0  0  0  0
  4  3  1  0  0  0  0
  5  6  1  0  0  0  0
  5  4  1  0  0  0  0
  7  6  1  0  0  0  0
  9  8  1  0  0  0  0
  9  7  1  0  0  0  0
  9 10  1  0  0  0  0
 10 11  1  0  0  0  0
 11 12  1  0  0  0  0
 12 13  1  0  0  0  0
 13 14  1  0  0  0  0
 15 16  1  0  0  0  0
 16 19  1  0  0  0  0
 17 18  2  0  0  0  0
 17 26  1  0  0  0  0
 19 27  2  0  0  0  0
 20 18  1  0  0  0  0
 21 17  1  0  0  0  0
 22 20  2  0  0  0  0
 23 22  1  0  0  0  0
 23 21  2  0  0  0  0
 24 21  1  0  0  0  0
 24 27  1  0  0  0  0
 25 26  2  0  0  0  0
 27 25  1  0  0  0  0
M  END
>  <MODEL>
9

>  <REMARK>
 VINA RESULT:      -6.4      1.427      4.735
  Name = 
  14 active torsions:
  status: ('A' for Active; 'I' for Inactive)
    1  A    between atoms: C_1  and  C_3
    2  A    between atoms: C_1  and  N_14
    3  A    between atoms: C_3  and  N_13
    4  A    between atoms: C_5  and  C_8
    5  A    between atoms: C_5  and  C_15
    6  A    between atoms: C_6  and  N_14
    7  A    between atoms: C_6  and  C_17
    8  A    between atoms: C_7  and  N_11
    9  A    between atoms: C_7  and  C_20
   10  A    between atoms: C_9  and  N_13
   11  A    between atoms: C_9  and  N_25
   12  A    between atoms: C_15  and  C_21
   13  A    between atoms: C_17  and  C_20
   14  A    between atoms: C_21  and  N_25
                            x       y       z     vdW  Elec       q    Type
                         _______ _______ _______ _____ _____    ______ ____

>  <TORSDO>
F 14

$$$$
