=
 OpenBabel11032420003D

 64 67  0  0  1  0  0  0  0  0999 V2000
  190.3960  176.3240  138.0420 C   0  0  0  0  0  0  0  0  0  0  0  0
  189.5060  175.8910  137.1880 N   0  0  0  0  0  0  0  0  0  0  0  0
  185.0310  176.7330  136.9340 C   0  0  0  0  0  2  0  0  0  0  0  0
  186.1750  174.4640  137.0630 C   0  0  0  0  0  2  0  0  0  0  0  0
  186.1990  177.6440  136.5720 C   0  0  0  0  0  3  0  0  0  0  0  0
  185.1110  175.2780  136.3830 C   0  0  1  0  0  3  0  0  0  0  0  0
  188.0950  176.1190  137.2410 C   0  0  1  0  0  3  0  0  0  0  0  0
  187.5190  177.3930  136.7420 C   0  0  0  0  0  3  0  0  0  0  0  0
  187.2770  175.1210  137.2160 C   0  0  0  0  0  2  0  0  0  0  0  0
  183.7640  174.5560  136.4420 C   0  0  1  0  0  3  0  0  0  0  0  0
  183.9120  172.8900  134.9160 O   0  0  0  0  0  1  0  0  0  0  0  0
  183.9230  173.1190  136.2510 N   0  0  0  0  0  2  0  0  0  0  0  0
  183.1160  174.8280  137.7200 N   0  0  0  0  0  2  0  0  0  0  0  0
  181.6720  174.7560  137.5300 C   0  0  0  0  0  2  0  0  0  0  0  0
  181.1900  175.8530  136.5850 C   0  0  1  0  0  3  0  0  0  0  0  0
  180.7760  175.2120  135.2680 C   0  0  0  0  0  1  0  0  0  0  0  0
  180.8320  178.9540  136.3090 C   0  0  0  0  0  2  0  0  0  0  0  0
  180.8700  178.4100  138.7960 C   0  0  0  0  0  0  0  0  0  0  0  0
  180.9020  179.4890  137.7320 C   0  0  0  0  0  2  0  0  0  0  0  0
  179.3460  177.9260  136.1270 S   0  0  0  0  0  0  0  0  0  0  0  0
  180.4020  177.1690  138.5720 C   0  0  0  0  0  3  0  0  0  0  0  0
  180.0170  176.6160  137.2200 C   0  0  2  0  0  3  0  0  0  0  0  0
  180.8920  180.1270  140.4310 O   0  0  0  0  0  1  0  0  0  0  0  0
  181.1940  178.7810  140.2100 C   0  0  2  0  0  3  0  0  0  0  0  0
  182.6620  178.5110  140.5170 C   0  0  0  0  0  2  0  0  0  0  0  0
  184.7540  179.6620  140.0230 N   0  0  0  0  0  1  0  0  0  0  0  0
  183.5600  179.0820  139.4310 C   0  0  0  0  0  2  0  0  0  0  0  0
  189.7940  178.2200  139.3330 O   0  0  0  0  0  0  0  0  0  0  0  0
  190.0530  176.2490  140.5430 N   0  0  0  0  0  2  0  0  0  0  0  0
  190.0340  176.9830  139.3170 C   0  0  0  0  0  0  0  0  0  0  0  0
  189.7010  176.8610  141.8150 C   0  0  0  0  0  2  0  0  0  0  0  0
  190.9280  177.4890  142.4470 C   0  0  1  0  0  3  0  0  0  0  0  0
  190.5860  178.7480  142.9520 O   0  0  0  0  0  1  0  0  0  0  0  0
  191.4070  176.5920  143.5750 C   0  0  0  0  0  2  0  0  0  0  0  0
  191.6420  177.3940  144.8390 C   0  0  0  0  0  2  0  0  0  0  0  0
  190.9370  176.7130  146.0000 C   0  0  1  0  0  3  0  0  0  0  0  0
  191.8340  176.5660  147.0620 O   0  0  0  0  0  1  0  0  0  0  0  0
  189.7210  177.5150  146.4460 C   0  0  2  0  0  3  0  0  0  0  0  0
  189.5340  177.3440  147.8220 O   0  0  0  0  0  1  0  0  0  0  0  0
  188.5410  177.0460  145.7310 N   0  0  0  0  0  2  0  0  0  0  0  0
  187.9660  178.1770  145.0180 C   0  0  0  0  0  2  0  0  0  0  0  0
  185.8050  178.9660  146.0310 C   0  0  1  0  0  3  0  0  0  0  0  0
  186.2830  178.6630  147.3070 O   0  0  0  0  0  1  0  0  0  0  0  0
  184.5900  178.2010  143.6890 C   0  0  0  0  0  2  0  0  0  0  0  0
  186.4540  178.0370  144.9880 C   0  0  1  0  0  3  0  0  0  0  0  0
  183.9520  179.1370  144.7220 C   0  0  0  0  0  2  0  0  0  0  0  0
  184.4060  178.7970  146.0120 O   0  0  0  0  0  0  0  0  0  0  0  0
  185.9880  178.3710  143.6970 O   0  0  0  0  0  0  0  0  0  0  0  0
  191.8560  176.1790  137.7120 C   0  0  1  0  0  3  0  0  0  0  0  0
  193.4230  177.2000  139.5590 N   0  0  0  0  0  0  0  0  0  0  0  0
  192.7320  176.7510  138.7460 C   0  0  0  0  0  0  0  0  0  0  0  0
  192.2070  174.7500  137.4230 C   0  0  0  0  0  0  0  0  0  0  0  0
  191.4340  173.8480  137.7100 O   0  0  0  0  0  0  0  0  0  0  0  0
  193.4900  174.4520  136.7210 C   0  0  0  0  0  2  0  0  0  0  0  0
  194.2580  173.3770  137.4730 C   0  0  0  0  0  2  0  0  0  0  0  0
  198.0080  174.2100  137.0120 C   0  0  0  0  0  0  0  0  0  0  0  0
  195.9240  174.5670  139.0400 C   0  0  0  0  0  2  0  0  0  0  0  0
  198.9040  173.0190  137.3160 C   0  0  0  0  0  1  0  0  0  0  0  0
  197.6390  175.5780  140.3570 O   0  0  0  0  0  1  0  0  0  0  0  0
  195.6500  173.8370  137.7520 C   0  0  0  0  0  0  0  0  0  0  0  0
  197.4230  174.6970  139.2970 C   0  0  2  0  0  3  0  0  0  0  0  0
  198.4980  174.8500  135.7300 C   0  0  0  0  0  1  0  0  0  0  0  0
  198.0950  175.2000  138.0960 N   0  0  0  0  0  2  0  0  0  0  0  0
  196.5900  173.7360  136.7970 C   0  0  0  0  0  3  0  0  0  0  0  0
  1 30  1  0  0  0  0
  2  1  2  0  0  0  0
  4  9  1  0  0  0  0
  5  8  2  0  0  0  0
  5  3  1  0  0  0  0
  6 10  1  1  0  0  0
  6  3  1  0  0  0  0
  6  4  1  0  0  0  0
  7  2  1  6  0  0  0
  8  7  1  0  0  0  0
  9  7  1  0  0  0  0
 10 12  1  1  0  0  0
 10 13  1  0  0  0  0
 11 12  1  0  0  0  0
 14 13  1  0  0  0  0
 15 16  1  6  0  0  0
 15 14  1  0  0  0  0
 17 19  1  0  0  0  0
 18 24  1  0  0  0  0
 19 18  1  0  0  0  0
 20 17  1  0  0  0  0
 20 22  1  0  0  0  0
 21 18  2  0  0  0  0
 22 15  1  6  0  0  0
 22 21  1  0  0  0  0
 24 23  1  6  0  0  0
 24 25  1  0  0  0  0
 27 26  1  0  0  0  0
 27 25  1  0  0  0  0
 29 31  1  0  0  0  0
 30 28  2  0  0  0  0
 30 29  1  0  0  0  0
 31 32  1  0  0  0  0
 32 33  1  1  0  0  0
 32 34  1  0  0  0  0
 34 35  1  0  0  0  0
 35 36  1  0  0  0  0
 36 38  1  0  0  0  0
 36 37  1  1  0  0  0
 38 39  1  1  0  0  0
 40 38  1  0  0  0  0
 41 40  1  0  0  0  0
 42 43  1  1  0  0  0
 44 48  1  0  0  0  0
 44 46  1  0  0  0  0
 45 41  1  6  0  0  0
 45 42  1  0  0  0  0
 46 47  1  0  0  0  0
 47 42  1  0  0  0  0
 48 45  1  0  0  0  0
 49  1  1  0  0  0  0
 49 51  1  1  0  0  0
 51 50  3  0  0  0  0
 52 53  2  0  0  0  0
 52 49  1  0  0  0  0
 54 52  1  0  0  0  0
 54 55  1  0  0  0  0
 55 60  1  0  0  0  0
 56 58  1  0  0  0  0
 56 63  1  0  0  0  0
 57 61  1  0  0  0  0
 60 57  1  0  0  0  0
 61 59  1  1  0  0  0
 62 56  1  0  0  0  0
 63 61  1  0  0  0  0
 64 56  1  0  0  0  0
 64 60  2  0  0  0  0
M  END
>  <MODEL>
1

>  <REMARK>
 VINA RESULT:      -7.3      0.000      0.000
  Name = 
  26 active torsions:
  status: ('A' for Active; 'I' for Inactive)
    1  A    between atoms: C_3  and  C_16
    2  A    between atoms: C_3  and  C_62
    3  A    between atoms: C_4  and  C_43
    4  A    between atoms: C_4  and  C_63
    5  A    between atoms: C_5  and  C_18
    6  A    between atoms: C_6  and  C_7
    7  A    between atoms: C_6  and  C_54
    8  A    between atoms: C_7  and  C_36
    9  A    between atoms: C_8  and  N_33
   10  A    between atoms: C_8  and  C_34
   11  A    between atoms: C_16  and  N_29
   12  A    between atoms: C_18  and  C_55
   13  A    between atoms: C_19  and  C_36
   14  A    between atoms: C_19  and  C_58
   15  A    between atoms: C_25  and  C_27
   16  A    between atoms: C_27  and  N_33
   17  A    between atoms: C_28  and  C_41
   18  A    between atoms: N_29  and  C_41
   19  A    between atoms: C_32  and  N_46
   20  A    between atoms: C_34  and  C_42
   21  A    between atoms: C_36  and  C_53
   22  A    between atoms: C_37  and  C_54
   23  A    between atoms: N_38  and  C_63
   24  A    between atoms: C_40  and  C_55
   25  A    between atoms: C_41  and  N_57
   26  A    between atoms: C_42  and  C_43
                            x       y       z     vdW  Elec       q    Type
                         _______ _______ _______ _____ _____    ______ ____

>  <TORSDO>
F 26

$$$$
=
 OpenBabel11032420003D

 64 67  0  0  1  0  0  0  0  0999 V2000
  190.6060  176.4350  137.9810 C   0  0  0  0  0  0  0  0  0  0  0  0
  189.7340  176.2460  137.0270 N   0  0  0  0  0  0  0  0  0  0  0  0
  185.2470  177.0420  136.8490 C   0  0  0  0  0  2  0  0  0  0  0  0
  186.4100  174.8020  137.1660 C   0  0  0  0  0  2  0  0  0  0  0  0
  186.3940  177.9160  136.3550 C   0  0  0  0  0  3  0  0  0  0  0  0
  185.3170  175.5390  136.4470 C   0  0  1  0  0  3  0  0  0  0  0  0
  188.3230  176.4730  137.1070 C   0  0  1  0  0  3  0  0  0  0  0  0
  187.7210  177.6880  136.5020 C   0  0  0  0  0  3  0  0  0  0  0  0
  187.5130  175.4750  137.2130 C   0  0  0  0  0  2  0  0  0  0  0  0
  183.9790  174.8220  136.6260 C   0  0  1  0  0  3  0  0  0  0  0  0
  184.0280  173.3730  134.8860 O   0  0  0  0  0  1  0  0  0  0  0  0
  184.0710  173.4180  136.2400 N   0  0  0  0  0  2  0  0  0  0  0  0
  183.5420  174.9360  138.0130 N   0  0  0  0  0  2  0  0  0  0  0  0
  182.0860  174.8660  138.0470 C   0  0  0  0  0  2  0  0  0  0  0  0
  181.5360  175.5410  139.3010 C   0  0  1  0  0  3  0  0  0  0  0  0
  182.4850  176.6580  139.7080 C   0  0  0  0  0  1  0  0  0  0  0  0
  180.6600  176.6720  136.5120 C   0  0  0  0  0  2  0  0  0  0  0  0
  180.2390  178.4930  138.2400 C   0  0  0  0  0  0  0  0  0  0  0  0
  180.3020  178.1280  136.7710 C   0  0  0  0  0  2  0  0  0  0  0  0
  179.4800  175.6010  137.3830 S   0  0  0  0  0  0  0  0  0  0  0  0
  180.0810  177.5840  139.2180 C   0  0  0  0  0  3  0  0  0  0  0  0
  180.1260  176.0860  139.0290 C   0  0  2  0  0  3  0  0  0  0  0  0
  180.0910  180.7320  137.4730 O   0  0  0  0  0  1  0  0  0  0  0  0
  180.1570  179.9390  138.6210 C   0  0  2  0  0  3  0  0  0  0  0  0
  181.3550  180.3420  139.4730 C   0  0  0  0  0  2  0  0  0  0  0  0
  183.7600  179.9690  139.3180 N   0  0  0  0  0  1  0  0  0  0  0  0
  182.6030  180.5020  138.6180 C   0  0  0  0  0  2  0  0  0  0  0  0
  190.4060  175.9010  140.2840 O   0  0  0  0  0  0  0  0  0  0  0  0
  189.5470  177.9780  139.6770 N   0  0  0  0  0  2  0  0  0  0  0  0
  190.2200  176.7540  139.3740 C   0  0  0  0  0  0  0  0  0  0  0  0
  189.1540  178.3270  141.0330 C   0  0  0  0  0  2  0  0  0  0  0  0
  187.6780  178.6750  141.0740 C   0  0  1  0  0  3  0  0  0  0  0  0
  187.1300  178.4890  139.8000 O   0  0  0  0  0  1  0  0  0  0  0  0
  186.9910  177.7580  142.0700 C   0  0  0  0  0  2  0  0  0  0  0  0
  185.6440  178.3190  142.4810 C   0  0  0  0  0  2  0  0  0  0  0  0
  185.7500  178.8950  143.8820 C   0  0  1  0  0  3  0  0  0  0  0  0
  184.6130  179.6610  144.1540 O   0  0  0  0  0  1  0  0  0  0  0  0
  185.8970  177.7870  144.9180 C   0  0  2  0  0  3  0  0  0  0  0  0
  185.5170  178.2730  146.1730 O   0  0  0  0  0  1  0  0  0  0  0  0
  187.2860  177.3480  144.9650 N   0  0  0  0  0  2  0  0  0  0  0  0
  187.8360  177.7300  146.2580 C   0  0  0  0  0  2  0  0  0  0  0  0
  189.9530  177.2150  147.5120 C   0  0  1  0  0  3  0  0  0  0  0  0
  189.5400  178.0350  148.5640 O   0  0  0  0  0  1  0  0  0  0  0  0
  191.1580  176.8900  145.0650 C   0  0  0  0  0  2  0  0  0  0  0  0
  189.3530  177.7130  146.1840 C   0  0  1  0  0  3  0  0  0  0  0  0
  191.7460  176.3830  146.3860 C   0  0  0  0  0  2  0  0  0  0  0  0
  191.3600  177.2400  147.4350 O   0  0  0  0  0  0  0  0  0  0  0  0
  189.7510  176.8610  145.1310 O   0  0  0  0  0  0  0  0  0  0  0  0
  192.0720  176.3580  137.6560 C   0  0  1  0  0  3  0  0  0  0  0  0
  193.5930  177.2660  139.5970 N   0  0  0  0  0  0  0  0  0  0  0  0
  192.9240  176.8650  138.7420 C   0  0  0  0  0  0  0  0  0  0  0  0
  192.4660  174.9680  137.2520 C   0  0  0  0  0  0  0  0  0  0  0  0
  191.9080  173.9960  137.7410 O   0  0  0  0  0  0  0  0  0  0  0  0
  193.5080  174.7910  136.1990 C   0  0  0  0  0  2  0  0  0  0  0  0
  194.3230  173.5380  136.4770 C   0  0  0  0  0  2  0  0  0  0  0  0
  198.1250  174.2330  136.6500 C   0  0  0  0  0  0  0  0  0  0  0  0
  195.7730  174.5030  138.3770 C   0  0  0  0  0  2  0  0  0  0  0  0
  198.9260  172.9790  136.9670 C   0  0  0  0  0  1  0  0  0  0  0  0
  197.3040  175.3090  140.0220 O   0  0  0  0  0  1  0  0  0  0  0  0
  195.6720  173.9050  136.9990 C   0  0  0  0  0  0  0  0  0  0  0  0
  197.2210  174.5390  138.8620 C   0  0  2  0  0  3  0  0  0  0  0  0
  198.8230  174.9620  135.5210 C   0  0  0  0  0  1  0  0  0  0  0  0
  198.0810  175.1160  137.8260 N   0  0  0  0  0  2  0  0  0  0  0  0
  196.7410  173.8470  136.1860 C   0  0  0  0  0  3  0  0  0  0  0  0
  1 30  1  0  0  0  0
  2  1  2  0  0  0  0
  4  9  1  0  0  0  0
  5  8  2  0  0  0  0
  5  3  1  0  0  0  0
  6 10  1  1  0  0  0
  6  3  1  0  0  0  0
  6  4  1  0  0  0  0
  7  2  1  6  0  0  0
  7  9  1  0  0  0  0
  8  7  1  0  0  0  0
 10 12  1  1  0  0  0
 10 13  1  0  0  0  0
 11 12  1  0  0  0  0
 13 14  1  0  0  0  0
 14 15  1  0  0  0  0
 15 16  1  6  0  0  0
 17 19  1  0  0  0  0
 17 20  1  0  0  0  0
 18 24  1  0  0  0  0
 18 21  2  0  0  0  0
 19 18  1  0  0  0  0
 20 22  1  0  0  0  0
 22 21  1  0  0  0  0
 22 15  1  6  0  0  0
 24 23  1  6  0  0  0
 24 25  1  0  0  0  0
 27 26  1  0  0  0  0
 27 25  1  0  0  0  0
 29 31  1  0  0  0  0
 30 29  1  0  0  0  0
 30 28  2  0  0  0  0
 31 32  1  0  0  0  0
 32 33  1  6  0  0  0
 32 34  1  0  0  0  0
 34 35  1  0  0  0  0
 35 36  1  0  0  0  0
 36 37  1  1  0  0  0
 36 38  1  0  0  0  0
 38 40  1  0  0  0  0
 38 39  1  1  0  0  0
 40 41  1  0  0  0  0
 42 43  1  1  0  0  0
 44 48  1  0  0  0  0
 44 46  1  0  0  0  0
 45 41  1  1  0  0  0
 45 42  1  0  0  0  0
 46 47  1  0  0  0  0
 47 42  1  0  0  0  0
 48 45  1  0  0  0  0
 49  1  1  0  0  0  0
 49 51  1  1  0  0  0
 51 50  3  0  0  0  0
 52 49  1  0  0  0  0
 52 53  2  0  0  0  0
 54 55  1  0  0  0  0
 54 52  1  0  0  0  0
 55 60  1  0  0  0  0
 56 58  1  0  0  0  0
 56 63  1  0  0  0  0
 57 61  1  0  0  0  0
 60 57  1  0  0  0  0
 61 59  1  1  0  0  0
 62 56  1  0  0  0  0
 63 61  1  0  0  0  0
 64 56  1  0  0  0  0
 64 60  2  0  0  0  0
M  END
>  <MODEL>
2

>  <REMARK>
 VINA RESULT:      -6.6      1.313      3.016
  Name = 
  26 active torsions:
  status: ('A' for Active; 'I' for Inactive)
    1  A    between atoms: C_3  and  C_16
    2  A    between atoms: C_3  and  C_62
    3  A    between atoms: C_4  and  C_43
    4  A    between atoms: C_4  and  C_63
    5  A    between atoms: C_5  and  C_18
    6  A    between atoms: C_6  and  C_7
    7  A    between atoms: C_6  and  C_54
    8  A    between atoms: C_7  and  C_36
    9  A    between atoms: C_8  and  N_33
   10  A    between atoms: C_8  and  C_34
   11  A    between atoms: C_16  and  N_29
   12  A    between atoms: C_18  and  C_55
   13  A    between atoms: C_19  and  C_36
   14  A    between atoms: C_19  and  C_58
   15  A    between atoms: C_25  and  C_27
   16  A    between atoms: C_27  and  N_33
   17  A    between atoms: C_28  and  C_41
   18  A    between atoms: N_29  and  C_41
   19  A    between atoms: C_32  and  N_46
   20  A    between atoms: C_34  and  C_42
   21  A    between atoms: C_36  and  C_53
   22  A    between atoms: C_37  and  C_54
   23  A    between atoms: N_38  and  C_63
   24  A    between atoms: C_40  and  C_55
   25  A    between atoms: C_41  and  N_57
   26  A    between atoms: C_42  and  C_43
                            x       y       z     vdW  Elec       q    Type
                         _______ _______ _______ _____ _____    ______ ____

>  <TORSDO>
F 26

$$$$
=
 OpenBabel11032420003D

 64 67  0  0  1  0  0  0  0  0999 V2000
  190.1870  176.4280  137.6850 C   0  0  0  0  0  0  0  0  0  0  0  0
  189.3040  175.8410  136.9220 N   0  0  0  0  0  0  0  0  0  0  0  0
  184.8430  176.6470  136.4230 C   0  0  0  0  0  2  0  0  0  0  0  0
  185.9560  174.4610  137.0990 C   0  0  0  0  0  2  0  0  0  0  0  0
  186.0260  177.4340  135.8690 C   0  0  0  0  0  3  0  0  0  0  0  0
  184.9080  175.1030  136.2340 C   0  0  1  0  0  3  0  0  0  0  0  0
  187.8950  176.0900  136.9020 C   0  0  1  0  0  3  0  0  0  0  0  0
  187.3410  177.2160  136.1090 C   0  0  0  0  0  3  0  0  0  0  0  0
  187.0650  175.1240  137.1050 C   0  0  0  0  0  2  0  0  0  0  0  0
  183.5520  174.4300  136.4460 C   0  0  1  0  0  3  0  0  0  0  0  0
  183.3970  172.3020  137.2040 O   0  0  0  0  0  1  0  0  0  0  0  0
  183.5930  173.0200  136.0720 N   0  0  0  0  0  2  0  0  0  0  0  0
  183.1460  174.5720  137.8390 N   0  0  0  0  0  2  0  0  0  0  0  0
  181.8010  175.1350  137.8740 C   0  0  0  0  0  2  0  0  0  0  0  0
  181.5830  175.9490  139.1460 C   0  0  1  0  0  3  0  0  0  0  0  0
  182.9080  176.5740  139.5570 C   0  0  0  0  0  1  0  0  0  0  0  0
  181.0930  177.2560  136.3400 C   0  0  0  0  0  2  0  0  0  0  0  0
  181.5760  179.1390  137.9830 C   0  0  0  0  0  0  0  0  0  0  0  0
  181.3920  178.7350  136.5350 C   0  0  0  0  0  2  0  0  0  0  0  0
  179.6290  176.8070  137.3160 S   0  0  0  0  0  0  0  0  0  0  0  0
  181.1120  178.4110  139.0150 C   0  0  0  0  0  3  0  0  0  0  0  0
  180.5160  177.0280  138.9050 C   0  0  2  0  0  3  0  0  0  0  0  0
  183.2730  180.3770  139.0820 O   0  0  0  0  0  1  0  0  0  0  0  0
  182.1290  180.4960  138.2900 C   0  0  2  0  0  3  0  0  0  0  0  0
  181.0870  181.3580  138.9920 C   0  0  0  0  0  2  0  0  0  0  0  0
  180.8750  183.2720  137.4950 N   0  0  0  0  0  1  0  0  0  0  0  0
  180.2050  182.0780  137.9830 C   0  0  0  0  0  2  0  0  0  0  0  0
  189.7310  178.5770  138.5820 O   0  0  0  0  0  0  0  0  0  0  0  0
  189.6510  176.8320  140.1200 N   0  0  0  0  0  2  0  0  0  0  0  0
  189.8150  177.3370  138.7930 C   0  0  0  0  0  0  0  0  0  0  0  0
  189.2840  177.6920  141.2340 C   0  0  0  0  0  2  0  0  0  0  0  0
  190.1440  177.3750  142.4420 C   0  0  1  0  0  3  0  0  0  0  0  0
  191.4510  177.1180  142.0170 O   0  0  0  0  0  1  0  0  0  0  0  0
  190.1300  178.5720  143.3760 C   0  0  0  0  0  2  0  0  0  0  0  0
  190.9870  178.3120  144.5990 C   0  0  0  0  0  2  0  0  0  0  0  0
  190.4970  177.0530  145.2930 C   0  0  1  0  0  3  0  0  0  0  0  0
  191.5880  176.3770  145.8470 O   0  0  0  0  0  1  0  0  0  0  0  0
  189.4810  177.3880  146.3780 C   0  0  2  0  0  3  0  0  0  0  0  0
  189.8050  176.6920  147.5460 O   0  0  0  0  0  1  0  0  0  0  0  0
  188.1490  176.9990  145.9310 N   0  0  0  0  0  2  0  0  0  0  0  0
  187.3200  178.1950  145.8870 C   0  0  0  0  0  2  0  0  0  0  0  0
  184.9550  178.8510  145.3440 C   0  0  1  0  0  3  0  0  0  0  0  0
  184.5690  178.5810  146.6580 O   0  0  0  0  0  1  0  0  0  0  0  0
  185.4590  178.0070  142.7790 C   0  0  0  0  0  2  0  0  0  0  0  0
  186.1490  177.9620  144.9490 C   0  0  1  0  0  3  0  0  0  0  0  0
  184.2800  178.9030  143.1720 C   0  0  0  0  0  2  0  0  0  0  0  0
  183.8680  178.5950  144.4840 O   0  0  0  0  0  0  0  0  0  0  0  0
  186.5520  178.2620  143.6290 O   0  0  0  0  0  0  0  0  0  0  0  0
  191.6490  176.2040  137.4170 C   0  0  1  0  0  3  0  0  0  0  0  0
  193.1900  177.1510  139.3250 N   0  0  0  0  0  0  0  0  0  0  0  0
  192.5110  176.7330  138.4850 C   0  0  0  0  0  0  0  0  0  0  0  0
  191.9350  174.7560  137.1470 C   0  0  0  0  0  0  0  0  0  0  0  0
  191.2670  173.8810  137.6760 O   0  0  0  0  0  0  0  0  0  0  0  0
  193.0090  174.4040  136.1730 C   0  0  0  0  0  2  0  0  0  0  0  0
  193.4810  172.9780  136.4100 C   0  0  0  0  0  2  0  0  0  0  0  0
  197.0880  173.9670  137.4020 C   0  0  0  0  0  0  0  0  0  0  0  0
  195.7020  171.6890  136.1850 C   0  0  0  0  0  2  0  0  0  0  0  0
  197.7480  174.8570  136.3600 C   0  0  0  0  0  1  0  0  0  0  0  0
  197.8690  170.7030  136.0100 O   0  0  0  0  0  1  0  0  0  0  0  0
  194.9650  172.9450  136.5680 C   0  0  0  0  0  0  0  0  0  0  0  0
  197.2100  171.9260  136.1270 C   0  0  2  0  0  3  0  0  0  0  0  0
  197.3720  174.5540  138.7680 C   0  0  0  0  0  1  0  0  0  0  0  0
  197.6560  172.6110  137.3430 N   0  0  0  0  0  2  0  0  0  0  0  0
  195.5930  173.9580  137.1880 C   0  0  0  0  0  3  0  0  0  0  0  0
  1 30  1  0  0  0  0
  2  1  2  0  0  0  0
  4  9  1  0  0  0  0
  5  8  2  0  0  0  0
  5  3  1  0  0  0  0
  6  3  1  0  0  0  0
  6 10  1  1  0  0  0
  6  4  1  0  0  0  0
  7  2  1  6  0  0  0
  7  9  1  0  0  0  0
  8  7  1  0  0  0  0
 10 12  1  1  0  0  0
 10 13  1  0  0  0  0
 12 11  1  0  0  0  0
 13 14  1  0  0  0  0
 14 15  1  0  0  0  0
 15 16  1  6  0  0  0
 17 19  1  0  0  0  0
 17 20  1  0  0  0  0
 18 24  1  0  0  0  0
 18 21  2  0  0  0  0
 19 18  1  0  0  0  0
 20 22  1  0  0  0  0
 22 21  1  0  0  0  0
 22 15  1  6  0  0  0
 24 25  1  0  0  0  0
 24 23  1  1  0  0  0
 26 27  1  0  0  0  0
 27 25  1  0  0  0  0
 28 30  2  0  0  0  0
 29 31  1  0  0  0  0
 30 29  1  0  0  0  0
 31 32  1  0  0  0  0
 32 33  1  6  0  0  0
 32 34  1  0  0  0  0
 34 35  1  0  0  0  0
 35 36  1  0  0  0  0
 36 37  1  1  0  0  0
 36 38  1  0  0  0  0
 38 39  1  1  0  0  0
 40 38  1  0  0  0  0
 41 40  1  0  0  0  0
 42 43  1  1  0  0  0
 44 46  1  0  0  0  0
 44 48  1  0  0  0  0
 45 42  1  0  0  0  0
 45 41  1  1  0  0  0
 46 47  1  0  0  0  0
 47 42  1  0  0  0  0
 48 45  1  0  0  0  0
 49  1  1  0  0  0  0
 49 51  1  1  0  0  0
 51 50  3  0  0  0  0
 52 49  1  0  0  0  0
 52 53  2  0  0  0  0
 54 55  1  0  0  0  0
 54 52  1  0  0  0  0
 55 60  1  0  0  0  0
 56 62  1  0  0  0  0
 57 60  1  0  0  0  0
 58 56  1  0  0  0  0
 60 64  2  0  0  0  0
 61 59  1  1  0  0  0
 61 57  1  0  0  0  0
 61 63  1  0  0  0  0
 63 56  1  0  0  0  0
 64 56  1  0  0  0  0
M  END
>  <MODEL>
3

>  <REMARK>
 VINA RESULT:      -6.5      1.628      2.090
  Name = 
  26 active torsions:
  status: ('A' for Active; 'I' for Inactive)
    1  A    between atoms: C_3  and  C_16
    2  A    between atoms: C_3  and  C_62
    3  A    between atoms: C_4  and  C_43
    4  A    between atoms: C_4  and  C_63
    5  A    between atoms: C_5  and  C_18
    6  A    between atoms: C_6  and  C_7
    7  A    between atoms: C_6  and  C_54
    8  A    between atoms: C_7  and  C_36
    9  A    between atoms: C_8  and  N_33
   10  A    between atoms: C_8  and  C_34
   11  A    between atoms: C_16  and  N_29
   12  A    between atoms: C_18  and  C_55
   13  A    between atoms: C_19  and  C_36
   14  A    between atoms: C_19  and  C_58
   15  A    between atoms: C_25  and  C_27
   16  A    between atoms: C_27  and  N_33
   17  A    between atoms: C_28  and  C_41
   18  A    between atoms: N_29  and  C_41
   19  A    between atoms: C_32  and  N_46
   20  A    between atoms: C_34  and  C_42
   21  A    between atoms: C_36  and  C_53
   22  A    between atoms: C_37  and  C_54
   23  A    between atoms: N_38  and  C_63
   24  A    between atoms: C_40  and  C_55
   25  A    between atoms: C_41  and  N_57
   26  A    between atoms: C_42  and  C_43
                            x       y       z     vdW  Elec       q    Type
                         _______ _______ _______ _____ _____    ______ ____

>  <TORSDO>
F 26

$$$$
=
 OpenBabel11032420003D

 64 67  0  0  1  0  0  0  0  0999 V2000
  190.1030  176.8910  138.5690 C   0  0  0  0  0  0  0  0  0  0  0  0
  189.4360  176.6140  137.4810 N   0  0  0  0  0  0  0  0  0  0  0  0
  184.9790  176.8110  136.5340 C   0  0  0  0  0  2  0  0  0  0  0  0
  186.3280  174.7650  137.2150 C   0  0  0  0  0  2  0  0  0  0  0  0
  186.0830  177.7930  136.1550 C   0  0  0  0  0  3  0  0  0  0  0  0
  185.2910  175.3080  136.2740 C   0  0  1  0  0  3  0  0  0  0  0  0
  188.0150  176.6620  137.3190 C   0  0  1  0  0  3  0  0  0  0  0  0
  187.3840  177.7480  136.5280 C   0  0  0  0  0  3  0  0  0  0  0  0
  187.3210  175.5760  137.3790 C   0  0  0  0  0  2  0  0  0  0  0  0
  184.0350  174.4370  136.2990 C   0  0  1  0  0  3  0  0  0  0  0  0
  183.9300  172.4020  137.2860 O   0  0  0  0  0  1  0  0  0  0  0  0
  184.3660  173.0220  136.1640 N   0  0  0  0  0  2  0  0  0  0  0  0
  183.3020  174.6680  137.5390 N   0  0  0  0  0  2  0  0  0  0  0  0
  182.0760  175.3920  137.2230 C   0  0  0  0  0  2  0  0  0  0  0  0
  181.4840  176.0340  138.4750 C   0  0  1  0  0  3  0  0  0  0  0  0
  182.6250  176.5080  139.3640 C   0  0  0  0  0  1  0  0  0  0  0  0
  182.4290  179.0220  138.5150 C   0  0  0  0  0  2  0  0  0  0  0  0
  180.3640  178.8560  139.9940 C   0  0  0  0  0  0  0  0  0  0  0  0
  181.5280  179.7090  139.5310 C   0  0  0  0  0  2  0  0  0  0  0  0
  181.4320  178.4850  137.0960 S   0  0  0  0  0  0  0  0  0  0  0  0
  179.9030  177.8000  139.3000 C   0  0  0  0  0  3  0  0  0  0  0  0
  180.5680  177.2030  138.0820 C   0  0  2  0  0  3  0  0  0  0  0  0
  180.0650  180.5210  141.6550 O   0  0  0  0  0  1  0  0  0  0  0  0
  179.5620  179.3090  141.1750 C   0  0  2  0  0  3  0  0  0  0  0  0
  179.5790  178.2560  142.2760 C   0  0  0  0  0  2  0  0  0  0  0  0
  181.0420  178.6310  144.1900 N   0  0  0  0  0  1  0  0  0  0  0  0
  179.7220  178.9020  143.6450 C   0  0  0  0  0  2  0  0  0  0  0  0
  189.4390  176.2180  140.7450 O   0  0  0  0  0  0  0  0  0  0  0  0
  188.7440  178.3500  140.1200 N   0  0  0  0  0  2  0  0  0  0  0  0
  189.4500  177.1310  139.8750 C   0  0  0  0  0  0  0  0  0  0  0  0
  188.0910  178.6230  141.3900 C   0  0  0  0  0  2  0  0  0  0  0  0
  186.6100  178.8650  141.1740 C   0  0  1  0  0  3  0  0  0  0  0  0
  186.2850  178.5470  139.8510 O   0  0  0  0  0  1  0  0  0  0  0  0
  185.8290  177.9770  142.1250 C   0  0  0  0  0  2  0  0  0  0  0  0
  184.5510  178.6580  142.5720 C   0  0  0  0  0  2  0  0  0  0  0  0
  184.8310  179.4740  143.8220 C   0  0  1  0  0  3  0  0  0  0  0  0
  183.8370  180.4450  143.9720 O   0  0  0  0  0  1  0  0  0  0  0  0
  184.8840  178.5820  145.0560 C   0  0  2  0  0  3  0  0  0  0  0  0
  183.8350  178.9190  145.9160 O   0  0  0  0  0  1  0  0  0  0  0  0
  186.1570  178.7750  145.7400 N   0  0  0  0  0  2  0  0  0  0  0  0
  186.8160  177.4810  145.8410 C   0  0  0  0  0  2  0  0  0  0  0  0
  188.6090  177.1970  147.5800 C   0  0  1  0  0  3  0  0  0  0  0  0
  187.8250  177.8790  148.5120 O   0  0  0  0  0  1  0  0  0  0  0  0
  190.4190  177.2080  145.5130 C   0  0  0  0  0  2  0  0  0  0  0  0
  188.2870  177.6880  146.1560 C   0  0  1  0  0  3  0  0  0  0  0  0
  190.7330  176.7070  146.9280 C   0  0  0  0  0  2  0  0  0  0  0  0
  189.9690  177.4300  147.8660 O   0  0  0  0  0  0  0  0  0  0  0  0
  189.0620  176.9720  145.2180 O   0  0  0  0  0  0  0  0  0  0  0  0
  191.6010  177.0040  138.4990 C   0  0  1  0  0  3  0  0  0  0  0  0
  192.6980  177.4740  140.8410 N   0  0  0  0  0  0  0  0  0  0  0  0
  192.2140  177.2660  139.8100 C   0  0  0  0  0  0  0  0  0  0  0  0
  192.2050  175.8000  137.8400 C   0  0  0  0  0  0  0  0  0  0  0  0
  192.0190  174.6820  138.2960 O   0  0  0  0  0  0  0  0  0  0  0  0
  192.9870  175.9840  136.5820 C   0  0  0  0  0  2  0  0  0  0  0  0
  193.0920  174.6620  135.8360 C   0  0  0  0  0  2  0  0  0  0  0  0
  196.8180  174.2570  136.7980 C   0  0  0  0  0  0  0  0  0  0  0  0
  194.8230  172.8790  135.1510 C   0  0  0  0  0  2  0  0  0  0  0  0
  197.7270  175.1490  135.9670 C   0  0  0  0  0  1  0  0  0  0  0  0
  196.5930  171.3770  134.5940 O   0  0  0  0  0  1  0  0  0  0  0  0
  194.4950  174.1540  135.8820 C   0  0  0  0  0  0  0  0  0  0  0  0
  196.3320  172.6690  135.0530 C   0  0  2  0  0  3  0  0  0  0  0  0
  197.2510  174.3640  138.2450 C   0  0  0  0  0  1  0  0  0  0  0  0
  196.9510  172.8560  136.3680 N   0  0  0  0  0  2  0  0  0  0  0  0
  195.3920  174.7440  136.6890 C   0  0  0  0  0  3  0  0  0  0  0  0
  1 30  1  0  0  0  0
  2  1  2  0  0  0  0
  4  9  1  0  0  0  0
  5  8  2  0  0  0  0
  5  3  1  0  0  0  0
  6 10  1  1  0  0  0
  6  3  1  0  0  0  0
  6  4  1  0  0  0  0
  7  9  1  0  0  0  0
  7  2  1  6  0  0  0
  8  7  1  0  0  0  0
 10 12  1  1  0  0  0
 10 13  1  0  0  0  0
 12 11  1  0  0  0  0
 14 13  1  0  0  0  0
 14 15  1  0  0  0  0
 15 16  1  1  0  0  0
 17 19  1  0  0  0  0
 18 24  1  0  0  0  0
 19 18  1  0  0  0  0
 20 22  1  0  0  0  0
 20 17  1  0  0  0  0
 21 18  2  0  0  0  0
 22 15  1  1  0  0  0
 22 21  1  0  0  0  0
 24 23  1  1  0  0  0
 24 25  1  0  0  0  0
 25 27  1  0  0  0  0
 27 26  1  0  0  0  0
 29 31  1  0  0  0  0
 30 29  1  0  0  0  0
 30 28  2  0  0  0  0
 32 33  1  6  0  0  0
 32 31  1  0  0  0  0
 32 34  1  0  0  0  0
 34 35  1  0  0  0  0
 35 36  1  0  0  0  0
 36 37  1  1  0  0  0
 36 38  1  0  0  0  0
 38 40  1  0  0  0  0
 38 39  1  1  0  0  0
 40 41  1  0  0  0  0
 42 47  1  0  0  0  0
 42 43  1  1  0  0  0
 44 46  1  0  0  0  0
 45 41  1  6  0  0  0
 45 42  1  0  0  0  0
 46 47  1  0  0  0  0
 48 44  1  0  0  0  0
 48 45  1  0  0  0  0
 49  1  1  0  0  0  0
 49 51  1  1  0  0  0
 51 50  3  0  0  0  0
 52 53  2  0  0  0  0
 52 49  1  0  0  0  0
 54 52  1  0  0  0  0
 55 60  1  0  0  0  0
 55 54  1  0  0  0  0
 56 62  1  0  0  0  0
 57 60  1  0  0  0  0
 58 56  1  0  0  0  0
 60 64  2  0  0  0  0
 61 59  1  1  0  0  0
 61 57  1  0  0  0  0
 61 63  1  0  0  0  0
 63 56  1  0  0  0  0
 64 56  1  0  0  0  0
M  END
>  <MODEL>
4

>  <REMARK>
 VINA RESULT:      -6.3      1.986      3.598
  Name = 
  26 active torsions:
  status: ('A' for Active; 'I' for Inactive)
    1  A    between atoms: C_3  and  C_16
    2  A    between atoms: C_3  and  C_62
    3  A    between atoms: C_4  and  C_43
    4  A    between atoms: C_4  and  C_63
    5  A    between atoms: C_5  and  C_18
    6  A    between atoms: C_6  and  C_7
    7  A    between atoms: C_6  and  C_54
    8  A    between atoms: C_7  and  C_36
    9  A    between atoms: C_8  and  N_33
   10  A    between atoms: C_8  and  C_34
   11  A    between atoms: C_16  and  N_29
   12  A    between atoms: C_18  and  C_55
   13  A    between atoms: C_19  and  C_36
   14  A    between atoms: C_19  and  C_58
   15  A    between atoms: C_25  and  C_27
   16  A    between atoms: C_27  and  N_33
   17  A    between atoms: C_28  and  C_41
   18  A    between atoms: N_29  and  C_41
   19  A    between atoms: C_32  and  N_46
   20  A    between atoms: C_34  and  C_42
   21  A    between atoms: C_36  and  C_53
   22  A    between atoms: C_37  and  C_54
   23  A    between atoms: N_38  and  C_63
   24  A    between atoms: C_40  and  C_55
   25  A    between atoms: C_41  and  N_57
   26  A    between atoms: C_42  and  C_43
                            x       y       z     vdW  Elec       q    Type
                         _______ _______ _______ _____ _____    ______ ____

>  <TORSDO>
F 26

$$$$
=
 OpenBabel11032420003D

 64 67  0  0  1  0  0  0  0  0999 V2000
  190.5410  176.4450  138.0460 C   0  0  0  0  0  0  0  0  0  0  0  0
  189.6280  176.1410  137.1620 N   0  0  0  0  0  0  0  0  0  0  0  0
  185.1320  176.9060  137.1620 C   0  0  0  0  0  2  0  0  0  0  0  0
  186.3200  174.6560  137.1460 C   0  0  0  0  0  2  0  0  0  0  0  0
  186.2640  177.8530  136.7790 C   0  0  0  0  0  3  0  0  0  0  0  0
  185.2090  175.4750  136.5520 C   0  0  1  0  0  3  0  0  0  0  0  0
  188.2170  176.3400  137.2930 C   0  0  1  0  0  3  0  0  0  0  0  0
  187.5950  177.6210  136.8730 C   0  0  0  0  0  3  0  0  0  0  0  0
  187.4170  175.3280  137.2700 C   0  0  0  0  0  2  0  0  0  0  0  0
  183.8800  174.7260  136.6490 C   0  0  1  0  0  3  0  0  0  0  0  0
  183.5800  172.8860  135.3630 O   0  0  0  0  0  1  0  0  0  0  0  0
  184.0750  173.2820  136.5600 N   0  0  0  0  0  2  0  0  0  0  0  0
  183.2120  175.0690  137.8990 N   0  0  0  0  0  2  0  0  0  0  0  0
  181.7810  174.8410  137.7370 C   0  0  0  0  0  2  0  0  0  0  0  0
  181.0960  176.0690  137.1420 C   0  0  1  0  0  3  0  0  0  0  0  0
  180.2000  175.6180  135.9980 C   0  0  0  0  0  1  0  0  0  0  0  0
  180.8370  179.1900  137.2650 C   0  0  0  0  0  2  0  0  0  0  0  0
  181.7580  178.4130  139.5070 C   0  0  0  0  0  0  0  0  0  0  0  0
  181.4560  179.5860  138.5960 C   0  0  0  0  0  2  0  0  0  0  0  0
  179.3330  178.2170  137.5690 S   0  0  0  0  0  0  0  0  0  0  0  0
  181.1720  177.2100  139.3760 C   0  0  0  0  0  3  0  0  0  0  0  0
  180.2850  176.7950  138.2260 C   0  0  2  0  0  3  0  0  0  0  0  0
  183.3910  177.5170  140.9740 O   0  0  0  0  0  1  0  0  0  0  0  0
  182.6010  178.6420  140.7230 C   0  0  2  0  0  3  0  0  0  0  0  0
  181.7300  178.9570  141.9330 C   0  0  0  0  0  2  0  0  0  0  0  0
  179.6890  177.7630  142.5290 N   0  0  0  0  0  1  0  0  0  0  0  0
  180.2580  178.7400  141.6160 C   0  0  0  0  0  2  0  0  0  0  0  0
  189.8310  178.0740  139.6170 O   0  0  0  0  0  0  0  0  0  0  0  0
  190.4280  176.0190  140.5330 N   0  0  0  0  0  2  0  0  0  0  0  0
  190.2150  176.8890  139.4190 C   0  0  0  0  0  0  0  0  0  0  0  0
  190.1180  176.4190  141.8960 C   0  0  0  0  0  2  0  0  0  0  0  0
  190.8490  177.7020  142.2420 C   0  0  1  0  0  3  0  0  0  0  0  0
  189.9250  178.6400  142.7120 O   0  0  0  0  0  1  0  0  0  0  0  0
  191.8740  177.4010  143.3210 C   0  0  0  0  0  2  0  0  0  0  0  0
  191.3680  177.8330  144.6820 C   0  0  0  0  0  2  0  0  0  0  0  0
  191.1140  176.6010  145.5340 C   0  0  1  0  0  3  0  0  0  0  0  0
  192.0520  175.6160  145.2120 O   0  0  0  0  0  1  0  0  0  0  0  0
  191.1940  176.9380  147.0180 C   0  0  2  0  0  3  0  0  0  0  0  0
  191.4790  175.7750  147.7410 O   0  0  0  0  0  1  0  0  0  0  0  0
  189.9180  177.4870  147.4600 N   0  0  0  0  0  2  0  0  0  0  0  0
  188.8610  176.8560  146.6840 C   0  0  0  0  0  2  0  0  0  0  0  0
  186.7720  177.3220  145.3660 C   0  0  1  0  0  3  0  0  0  0  0  0
  187.4430  177.0210  144.1790 O   0  0  0  0  0  1  0  0  0  0  0  0
  186.0940  179.1070  147.3410 C   0  0  0  0  0  2  0  0  0  0  0  0
  187.7640  177.8680  146.4110 C   0  0  1  0  0  3  0  0  0  0  0  0
  185.1060  178.5510  146.3090 C   0  0  0  0  0  2  0  0  0  0  0  0
  185.7820  178.2900  145.1010 O   0  0  0  0  0  0  0  0  0  0  0  0
  187.0820  178.1430  147.6170 O   0  0  0  0  0  0  0  0  0  0  0  0
  191.9900  176.3730  137.6530 C   0  0  1  0  0  3  0  0  0  0  0  0
  193.6040  177.1630  139.5710 N   0  0  0  0  0  0  0  0  0  0  0  0
  192.8930  176.8160  138.7260 C   0  0  0  0  0  0  0  0  0  0  0  0
  192.3510  175.0020  137.1620 C   0  0  0  0  0  0  0  0  0  0  0  0
  191.8160  174.0110  137.6340 O   0  0  0  0  0  0  0  0  0  0  0  0
  193.3310  174.8740  136.0430 C   0  0  0  0  0  2  0  0  0  0  0  0
  193.6060  173.4050  135.7580 C   0  0  0  0  0  2  0  0  0  0  0  0
  197.2260  173.7040  137.0910 C   0  0  0  0  0  0  0  0  0  0  0  0
  195.4170  171.6090  136.1300 C   0  0  0  0  0  2  0  0  0  0  0  0
  198.2000  174.1560  136.0140 C   0  0  0  0  0  1  0  0  0  0  0  0
  197.2510  170.1220  136.4840 O   0  0  0  0  0  1  0  0  0  0  0  0
  195.0040  173.0570  136.1480 C   0  0  0  0  0  0  0  0  0  0  0  0
  196.9310  171.4610  136.2620 C   0  0  2  0  0  3  0  0  0  0  0  0
  197.5160  174.4970  138.3480 C   0  0  0  0  0  1  0  0  0  0  0  0
  197.4170  172.2740  137.3800 N   0  0  0  0  0  2  0  0  0  0  0  0
  195.8110  174.0040  136.6540 C   0  0  0  0  0  3  0  0  0  0  0  0
  1 30  1  0  0  0  0
  2  1  2  0  0  0  0
  4  9  1  0  0  0  0
  5  8  2  0  0  0  0
  5  3  1  0  0  0  0
  6 10  1  1  0  0  0
  6  4  1  0  0  0  0
  6  3  1  0  0  0  0
  7  2  1  6  0  0  0
  8  7  1  0  0  0  0
  9  7  1  0  0  0  0
 10 12  1  1  0  0  0
 10 13  1  0  0  0  0
 11 12  1  0  0  0  0
 14 13  1  0  0  0  0
 15 16  1  6  0  0  0
 15 14  1  0  0  0  0
 17 20  1  0  0  0  0
 17 19  1  0  0  0  0
 18 24  1  0  0  0  0
 19 18  1  0  0  0  0
 20 22  1  0  0  0  0
 21 18  2  0  0  0  0
 22 15  1  6  0  0  0
 22 21  1  0  0  0  0
 24 23  1  1  0  0  0
 24 25  1  0  0  0  0
 27 25  1  0  0  0  0
 27 26  1  0  0  0  0
 29 31  1  0  0  0  0
 30 28  2  0  0  0  0
 30 29  1  0  0  0  0
 31 32  1  0  0  0  0
 32 33  1  1  0  0  0
 32 34  1  0  0  0  0
 34 35  1  0  0  0  0
 35 36  1  0  0  0  0
 36 37  1  6  0  0  0
 36 38  1  0  0  0  0
 38 40  1  0  0  0  0
 38 39  1  1  0  0  0
 41 40  1  0  0  0  0
 42 43  1  6  0  0  0
 42 45  1  0  0  0  0
 44 48  1  0  0  0  0
 45 41  1  1  0  0  0
 45 48  1  0  0  0  0
 46 44  1  0  0  0  0
 47 42  1  0  0  0  0
 47 46  1  0  0  0  0
 49  1  1  0  0  0  0
 49 51  1  1  0  0  0
 51 50  3  0  0  0  0
 52 53  2  0  0  0  0
 52 49  1  0  0  0  0
 54 52  1  0  0  0  0
 55 54  1  0  0  0  0
 55 60  1  0  0  0  0
 56 63  1  0  0  0  0
 56 62  1  0  0  0  0
 57 60  1  0  0  0  0
 57 61  1  0  0  0  0
 58 56  1  0  0  0  0
 60 64  2  0  0  0  0
 61 59  1  1  0  0  0
 61 63  1  0  0  0  0
 64 56  1  0  0  0  0
M  END
>  <MODEL>
5

>  <REMARK>
 VINA RESULT:      -6.0      1.614      2.100
  Name = 
  26 active torsions:
  status: ('A' for Active; 'I' for Inactive)
    1  A    between atoms: C_3  and  C_16
    2  A    between atoms: C_3  and  C_62
    3  A    between atoms: C_4  and  C_43
    4  A    between atoms: C_4  and  C_63
    5  A    between atoms: C_5  and  C_18
    6  A    between atoms: C_6  and  C_7
    7  A    between atoms: C_6  and  C_54
    8  A    between atoms: C_7  and  C_36
    9  A    between atoms: C_8  and  N_33
   10  A    between atoms: C_8  and  C_34
   11  A    between atoms: C_16  and  N_29
   12  A    between atoms: C_18  and  C_55
   13  A    between atoms: C_19  and  C_36
   14  A    between atoms: C_19  and  C_58
   15  A    between atoms: C_25  and  C_27
   16  A    between atoms: C_27  and  N_33
   17  A    between atoms: C_28  and  C_41
   18  A    between atoms: N_29  and  C_41
   19  A    between atoms: C_32  and  N_46
   20  A    between atoms: C_34  and  C_42
   21  A    between atoms: C_36  and  C_53
   22  A    between atoms: C_37  and  C_54
   23  A    between atoms: N_38  and  C_63
   24  A    between atoms: C_40  and  C_55
   25  A    between atoms: C_41  and  N_57
   26  A    between atoms: C_42  and  C_43
                            x       y       z     vdW  Elec       q    Type
                         _______ _______ _______ _____ _____    ______ ____

>  <TORSDO>
F 26

$$$$
=
 OpenBabel11032420003D

 64 67  0  0  1  0  0  0  0  0999 V2000
  189.8150  176.6700  138.3420 C   0  0  0  0  0  0  0  0  0  0  0  0
  189.0150  176.0780  137.4960 N   0  0  0  0  0  0  0  0  0  0  0  0
  184.5060  176.5180  136.9680 C   0  0  0  0  0  2  0  0  0  0  0  0
  185.8400  174.3600  137.1590 C   0  0  0  0  0  2  0  0  0  0  0  0
  185.6070  177.5330  136.6830 C   0  0  0  0  0  3  0  0  0  0  0  0
  184.7500  175.0810  136.4190 C   0  0  1  0  0  3  0  0  0  0  0  0
  187.5880  176.1780  137.4620 C   0  0  1  0  0  3  0  0  0  0  0  0
  186.9310  177.4000  136.9330 C   0  0  0  0  0  3  0  0  0  0  0  0
  186.8670  175.1110  137.3830 C   0  0  0  0  0  2  0  0  0  0  0  0
  183.4730  174.2410  136.3910 C   0  0  1  0  0  3  0  0  0  0  0  0
  182.9940  172.0930  135.8570 O   0  0  0  0  0  1  0  0  0  0  0  0
  183.7500  172.8410  136.6960 N   0  0  0  0  0  2  0  0  0  0  0  0
  182.5080  174.7830  137.3400 N   0  0  0  0  0  2  0  0  0  0  0  0
  181.2510  175.0190  136.6380 C   0  0  0  0  0  2  0  0  0  0  0  0
  180.1860  175.5550  137.5910 C   0  0  1  0  0  3  0  0  0  0  0  0
  180.8630  175.9880  138.8830 C   0  0  0  0  0  1  0  0  0  0  0  0
  181.1580  176.9270  134.9460 C   0  0  0  0  0  2  0  0  0  0  0  0
  180.9650  178.7430  136.7190 C   0  0  0  0  0  0  0  0  0  0  0  0
  181.4440  178.3700  135.3310 C   0  0  0  0  0  2  0  0  0  0  0  0
  179.3780  176.6050  135.1110 S   0  0  0  0  0  0  0  0  0  0  0  0
  180.0210  178.0510  137.3820 C   0  0  0  0  0  3  0  0  0  0  0  0
  179.4400  176.7290  136.9380 C   0  0  2  0  0  3  0  0  0  0  0  0
  182.3830  179.8070  138.2940 O   0  0  0  0  0  1  0  0  0  0  0  0
  181.4150  180.0410  137.3140 C   0  0  2  0  0  3  0  0  0  0  0  0
  180.2350  180.8010  137.9080 C   0  0  0  0  0  2  0  0  0  0  0  0
  179.3500  183.0260  138.3690 N   0  0  0  0  0  1  0  0  0  0  0  0
  180.3220  182.2840  137.5830 C   0  0  0  0  0  2  0  0  0  0  0  0
  189.1260  178.6530  139.4480 O   0  0  0  0  0  0  0  0  0  0  0  0
  189.1830  176.7500  140.7860 N   0  0  0  0  0  2  0  0  0  0  0  0
  189.3280  177.4110  139.5270 C   0  0  0  0  0  0  0  0  0  0  0  0
  188.7050  177.4420  141.9720 C   0  0  0  0  0  2  0  0  0  0  0  0
  189.6970  177.2760  143.1070 C   0  0  1  0  0  3  0  0  0  0  0  0
  190.9700  177.6420  142.6560 O   0  0  0  0  0  1  0  0  0  0  0  0
  189.2770  178.1770  144.2550 C   0  0  0  0  0  2  0  0  0  0  0  0
  189.0330  177.3680  145.5130 C   0  0  0  0  0  2  0  0  0  0  0  0
  187.5370  177.2040  145.7170 C   0  0  1  0  0  3  0  0  0  0  0  0
  187.2920  176.7920  147.0310 O   0  0  0  0  0  1  0  0  0  0  0  0
  186.8000  178.5070  145.4310 C   0  0  2  0  0  3  0  0  0  0  0  0
  186.5190  179.1550  146.6380 O   0  0  0  0  0  1  0  0  0  0  0  0
  185.5550  178.2170  144.7300 N   0  0  0  0  0  2  0  0  0  0  0  0
  184.7450  179.4270  144.7310 C   0  0  0  0  0  2  0  0  0  0  0  0
  184.6850  178.9650  142.2600 C   0  0  1  0  0  3  0  0  0  0  0  0
  185.8140  179.7650  142.0740 O   0  0  0  0  0  1  0  0  0  0  0  0
  181.9640  178.6950  142.5200 C   0  0  0  0  0  2  0  0  0  0  0  0
  183.8830  179.4550  143.4810 C   0  0  1  0  0  3  0  0  0  0  0  0
  182.7650  178.1950  141.3130 C   0  0  0  0  0  2  0  0  0  0  0  0
  183.8800  179.0320  141.1060 O   0  0  0  0  0  0  0  0  0  0  0  0
  182.7600  178.6230  143.6790 O   0  0  0  0  0  0  0  0  0  0  0  0
  191.2980  176.6310  138.0940 C   0  0  1  0  0  3  0  0  0  0  0  0
  192.6940  177.4830  140.1520 N   0  0  0  0  0  0  0  0  0  0  0  0
  192.0790  177.1070  139.2460 C   0  0  0  0  0  0  0  0  0  0  0  0
  191.7380  175.2660  137.6570 C   0  0  0  0  0  0  0  0  0  0  0  0
  191.0950  174.2750  137.9680 O   0  0  0  0  0  0  0  0  0  0  0  0
  192.9420  175.1430  136.7840 C   0  0  0  0  0  2  0  0  0  0  0  0
  193.6800  173.8490  137.0910 C   0  0  0  0  0  2  0  0  0  0  0  0
  197.4830  174.4590  136.7260 C   0  0  0  0  0  0  0  0  0  0  0  0
  195.4430  174.5740  138.8270 C   0  0  0  0  0  2  0  0  0  0  0  0
  198.2800  173.1640  136.7750 C   0  0  0  0  0  1  0  0  0  0  0  0
  197.2390  175.1700  140.2810 O   0  0  0  0  0  1  0  0  0  0  0  0
  195.1060  174.1350  137.4270 C   0  0  0  0  0  0  0  0  0  0  0  0
  196.9490  174.5330  139.0750 C   0  0  2  0  0  3  0  0  0  0  0  0
  198.0180  175.2960  135.5840 C   0  0  0  0  0  1  0  0  0  0  0  0
  197.6540  175.2080  137.9810 N   0  0  0  0  0  2  0  0  0  0  0  0
  196.0300  174.1490  136.4520 C   0  0  0  0  0  3  0  0  0  0  0  0
  1 30  1  0  0  0  0
  2  1  2  0  0  0  0
  4  9  1  0  0  0  0
  5  8  2  0  0  0  0
  5  3  1  0  0  0  0
  6 10  1  1  0  0  0
  6  3  1  0  0  0  0
  6  4  1  0  0  0  0
  7  2  1  6  0  0  0
  8  7  1  0  0  0  0
  9  7  1  0  0  0  0
 10 12  1  1  0  0  0
 10 13  1  0  0  0  0
 11 12  1  0  0  0  0
 14 13  1  0  0  0  0
 14 15  1  0  0  0  0
 15 16  1  1  0  0  0
 17 20  1  0  0  0  0
 17 19  1  0  0  0  0
 18 24  1  0  0  0  0
 18 21  2  0  0  0  0
 19 18  1  0  0  0  0
 20 22  1  0  0  0  0
 22 21  1  0  0  0  0
 22 15  1  6  0  0  0
 24 25  1  0  0  0  0
 24 23  1  1  0  0  0
 27 25  1  0  0  0  0
 27 26  1  0  0  0  0
 28 30  2  0  0  0  0
 29 31  1  0  0  0  0
 30 29  1  0  0  0  0
 31 32  1  0  0  0  0
 32 33  1  6  0  0  0
 32 34  1  0  0  0  0
 34 35  1  0  0  0  0
 35 36  1  0  0  0  0
 36 37  1  1  0  0  0
 38 36  1  0  0  0  0
 38 39  1  1  0  0  0
 40 41  1  0  0  0  0
 40 38  1  0  0  0  0
 42 43  1  6  0  0  0
 42 45  1  0  0  0  0
 44 48  1  0  0  0  0
 45 48  1  0  0  0  0
 45 41  1  1  0  0  0
 46 44  1  0  0  0  0
 47 46  1  0  0  0  0
 47 42  1  0  0  0  0
 49  1  1  0  0  0  0
 49 51  1  1  0  0  0
 51 50  3  0  0  0  0
 52 53  2  0  0  0  0
 52 49  1  0  0  0  0
 54 55  1  0  0  0  0
 54 52  1  0  0  0  0
 55 60  1  0  0  0  0
 56 58  1  0  0  0  0
 56 63  1  0  0  0  0
 57 61  1  0  0  0  0
 60 57  1  0  0  0  0
 61 59  1  1  0  0  0
 62 56  1  0  0  0  0
 63 61  1  0  0  0  0
 64 56  1  0  0  0  0
 64 60  2  0  0  0  0
M  END
>  <MODEL>
6

>  <REMARK>
 VINA RESULT:      -5.7      1.547      2.411
  Name = 
  26 active torsions:
  status: ('A' for Active; 'I' for Inactive)
    1  A    between atoms: C_3  and  C_16
    2  A    between atoms: C_3  and  C_62
    3  A    between atoms: C_4  and  C_43
    4  A    between atoms: C_4  and  C_63
    5  A    between atoms: C_5  and  C_18
    6  A    between atoms: C_6  and  C_7
    7  A    between atoms: C_6  and  C_54
    8  A    between atoms: C_7  and  C_36
    9  A    between atoms: C_8  and  N_33
   10  A    between atoms: C_8  and  C_34
   11  A    between atoms: C_16  and  N_29
   12  A    between atoms: C_18  and  C_55
   13  A    between atoms: C_19  and  C_36
   14  A    between atoms: C_19  and  C_58
   15  A    between atoms: C_25  and  C_27
   16  A    between atoms: C_27  and  N_33
   17  A    between atoms: C_28  and  C_41
   18  A    between atoms: N_29  and  C_41
   19  A    between atoms: C_32  and  N_46
   20  A    between atoms: C_34  and  C_42
   21  A    between atoms: C_36  and  C_53
   22  A    between atoms: C_37  and  C_54
   23  A    between atoms: N_38  and  C_63
   24  A    between atoms: C_40  and  C_55
   25  A    between atoms: C_41  and  N_57
   26  A    between atoms: C_42  and  C_43
                            x       y       z     vdW  Elec       q    Type
                         _______ _______ _______ _____ _____    ______ ____

>  <TORSDO>
F 26

$$$$
=
 OpenBabel11032420003D

 64 67  0  0  1  0  0  0  0  0999 V2000
  189.9500  176.9520  137.9560 C   0  0  0  0  0  0  0  0  0  0  0  0
  189.3270  176.2430  137.0530 N   0  0  0  0  0  0  0  0  0  0  0  0
  185.0970  176.4910  135.3670 C   0  0  0  0  0  2  0  0  0  0  0  0
  185.8390  175.3740  137.5290 C   0  0  0  0  0  2  0  0  0  0  0  0
  186.4270  176.6750  134.6450 C   0  0  0  0  0  3  0  0  0  0  0  0
  184.9950  175.2430  136.2930 C   0  0  1  0  0  3  0  0  0  0  0  0
  187.9730  176.4130  136.6220 C   0  0  1  0  0  3  0  0  0  0  0  0
  187.6650  176.6810  135.1950 C   0  0  0  0  0  3  0  0  0  0  0  0
  187.0110  175.8550  137.2780 C   0  0  0  0  0  2  0  0  0  0  0  0
  183.5500  174.9050  136.6630 C   0  0  1  0  0  3  0  0  0  0  0  0
  184.3330  172.7860  136.8290 O   0  0  0  0  0  1  0  0  0  0  0  0
  183.2540  173.4970  136.4200 N   0  0  0  0  0  2  0  0  0  0  0  0
  183.3120  175.2370  138.0630 N   0  0  0  0  0  2  0  0  0  0  0  0
  181.9140  174.9580  138.3720 C   0  0  0  0  0  2  0  0  0  0  0  0
  181.0030  176.0450  137.8090 C   0  0  1  0  0  3  0  0  0  0  0  0
  179.6720  175.4130  137.4250 C   0  0  0  0  0  1  0  0  0  0  0  0
  180.9890  179.0890  137.0620 C   0  0  0  0  0  2  0  0  0  0  0  0
  182.7800  178.7480  138.8390 C   0  0  0  0  0  0  0  0  0  0  0  0
  182.1610  179.6880  137.8240 C   0  0  0  0  0  2  0  0  0  0  0  0
  179.7350  178.5170  138.2440 S   0  0  0  0  0  0  0  0  0  0  0  0
  182.1350  177.6800  139.3400 C   0  0  0  0  0  3  0  0  0  0  0  0
  180.8050  177.1570  138.8500 C   0  0  2  0  0  3  0  0  0  0  0  0
  185.0340  178.1160  139.2170 O   0  0  0  0  0  1  0  0  0  0  0  0
  184.0910  179.1180  139.4610 C   0  0  2  0  0  3  0  0  0  0  0  0
  183.9330  179.3430  140.9600 C   0  0  0  0  0  2  0  0  0  0  0  0
  183.8120  177.7880  142.8340 N   0  0  0  0  0  1  0  0  0  0  0  0
  184.6560  178.2640  141.7510 C   0  0  0  0  0  2  0  0  0  0  0  0
  189.0790  179.1180  138.3800 O   0  0  0  0  0  0  0  0  0  0  0  0
  188.9040  177.6230  140.1550 N   0  0  0  0  0  2  0  0  0  0  0  0
  189.2650  177.9470  138.8110 C   0  0  0  0  0  0  0  0  0  0  0  0
  188.2280  178.5720  141.0250 C   0  0  0  0  0  2  0  0  0  0  0  0
  188.3800  178.1520  142.4740 C   0  0  1  0  0  3  0  0  0  0  0  0
  188.1790  176.7710  142.5710 O   0  0  0  0  0  1  0  0  0  0  0  0
  189.7830  178.5030  142.9370 C   0  0  0  0  0  2  0  0  0  0  0  0
  190.5260  177.2650  143.3960 C   0  0  0  0  0  2  0  0  0  0  0  0
  191.5540  177.6590  144.4420 C   0  0  1  0  0  3  0  0  0  0  0  0
  191.8560  179.0170  144.3030 O   0  0  0  0  0  1  0  0  0  0  0  0
  191.0390  177.3770  145.8480 C   0  0  2  0  0  3  0  0  0  0  0  0
  191.9910  176.6270  146.5470 O   0  0  0  0  0  1  0  0  0  0  0  0
  189.7920  176.6280  145.7660 N   0  0  0  0  0  2  0  0  0  0  0  0
  189.1740  176.6340  147.0850 C   0  0  0  0  0  2  0  0  0  0  0  0
  187.6090  178.4830  147.7540 C   0  0  1  0  0  3  0  0  0  0  0  0
  187.9360  178.2870  149.0960 O   0  0  0  0  0  1  0  0  0  0  0  0
  186.1220  177.8360  145.5360 C   0  0  0  0  0  2  0  0  0  0  0  0
  187.7550  177.1630  146.9730 C   0  0  1  0  0  3  0  0  0  0  0  0
  185.9870  179.1550  146.3050 C   0  0  0  0  0  2  0  0  0  0  0  0
  186.2780  178.9390  147.6670 O   0  0  0  0  0  0  0  0  0  0  0  0
  187.4510  177.3770  145.6110 O   0  0  0  0  0  0  0  0  0  0  0  0
  191.4340  176.7800  138.1240 C   0  0  1  0  0  3  0  0  0  0  0  0
  192.2770  177.4820  140.5130 N   0  0  0  0  0  0  0  0  0  0  0  0
  191.9050  177.1730  139.4610 C   0  0  0  0  0  0  0  0  0  0  0  0
  191.8610  175.3850  137.7790 C   0  0  0  0  0  0  0  0  0  0  0  0
  191.0550  174.4660  137.7930 O   0  0  0  0  0  0  0  0  0  0  0  0
  193.2730  175.1470  137.3580 C   0  0  0  0  0  2  0  0  0  0  0  0
  193.3220  174.0770  136.2780 C   0  0  0  0  0  2  0  0  0  0  0  0
  195.2700  170.7600  136.6850 C   0  0  0  0  0  0  0  0  0  0  0  0
  195.8050  173.6380  136.8110 C   0  0  0  0  0  2  0  0  0  0  0  0
  195.0890  170.1520  138.0680 C   0  0  0  0  0  1  0  0  0  0  0  0
  198.0420  173.0100  137.3590 O   0  0  0  0  0  1  0  0  0  0  0  0
  194.4190  173.1060  136.5620 C   0  0  0  0  0  0  0  0  0  0  0  0
  196.7240  172.5550  137.3710 C   0  0  2  0  0  3  0  0  0  0  0  0
  195.1200  169.6530  135.6630 C   0  0  0  0  0  1  0  0  0  0  0  0
  196.6170  171.3390  136.5590 N   0  0  0  0  0  2  0  0  0  0  0  0
  194.1920  171.7880  136.4380 C   0  0  0  0  0  3  0  0  0  0  0  0
  1 49  1  0  0  0  0
  1 30  1  0  0  0  0
  2  1  2  0  0  0  0
  3  6  1  0  0  0  0
  5  8  2  0  0  0  0
  5  3  1  0  0  0  0
  6 10  1  1  0  0  0
  6  4  1  0  0  0  0
  7  2  1  6  0  0  0
  7  9  1  0  0  0  0
  8  7  1  0  0  0  0
  9  4  1  0  0  0  0
 10 12  1  1  0  0  0
 10 13  1  0  0  0  0
 12 11  1  0  0  0  0
 13 14  1  0  0  0  0
 15 16  1  1  0  0  0
 15 14  1  0  0  0  0
 17 19  1  0  0  0  0
 17 20  1  0  0  0  0
 18 21  2  0  0  0  0
 18 24  1  0  0  0  0
 19 18  1  0  0  0  0
 20 22  1  0  0  0  0
 22 15  1  6  0  0  0
 22 21  1  0  0  0  0
 24 23  1  1  0  0  0
 24 25  1  0  0  0  0
 25 27  1  0  0  0  0
 27 26  1  0  0  0  0
 28 30  2  0  0  0  0
 29 31  1  0  0  0  0
 30 29  1  0  0  0  0
 31 32  1  0  0  0  0
 32 33  1  6  0  0  0
 32 34  1  0  0  0  0
 34 35  1  0  0  0  0
 35 36  1  0  0  0  0
 36 37  1  1  0  0  0
 36 38  1  0  0  0  0
 38 39  1  1  0  0  0
 40 38  1  0  0  0  0
 40 41  1  0  0  0  0
 42 43  1  1  0  0  0
 44 48  1  0  0  0  0
 44 46  1  0  0  0  0
 45 41  1  6  0  0  0
 45 42  1  0  0  0  0
 46 47  1  0  0  0  0
 47 42  1  0  0  0  0
 48 45  1  0  0  0  0
 49 51  1  1  0  0  0
 51 50  3  0  0  0  0
 52 53  2  0  0  0  0
 52 49  1  0  0  0  0
 54 52  1  0  0  0  0
 55 60  1  0  0  0  0
 55 54  1  0  0  0  0
 56 58  1  0  0  0  0
 57 61  1  0  0  0  0
 60 57  1  0  0  0  0
 61 59  1  6  0  0  0
 62 56  1  0  0  0  0
 63 56  1  0  0  0  0
 63 61  1  0  0  0  0
 64 60  2  0  0  0  0
 64 56  1  0  0  0  0
M  END
>  <MODEL>
7

>  <REMARK>
 VINA RESULT:      -5.7      1.851      2.418
  Name = 
  26 active torsions:
  status: ('A' for Active; 'I' for Inactive)
    1  A    between atoms: C_3  and  C_16
    2  A    between atoms: C_3  and  C_62
    3  A    between atoms: C_4  and  C_43
    4  A    between atoms: C_4  and  C_63
    5  A    between atoms: C_5  and  C_18
    6  A    between atoms: C_6  and  C_7
    7  A    between atoms: C_6  and  C_54
    8  A    between atoms: C_7  and  C_36
    9  A    between atoms: C_8  and  N_33
   10  A    between atoms: C_8  and  C_34
   11  A    between atoms: C_16  and  N_29
   12  A    between atoms: C_18  and  C_55
   13  A    between atoms: C_19  and  C_36
   14  A    between atoms: C_19  and  C_58
   15  A    between atoms: C_25  and  C_27
   16  A    between atoms: C_27  and  N_33
   17  A    between atoms: C_28  and  C_41
   18  A    between atoms: N_29  and  C_41
   19  A    between atoms: C_32  and  N_46
   20  A    between atoms: C_34  and  C_42
   21  A    between atoms: C_36  and  C_53
   22  A    between atoms: C_37  and  C_54
   23  A    between atoms: N_38  and  C_63
   24  A    between atoms: C_40  and  C_55
   25  A    between atoms: C_41  and  N_57
   26  A    between atoms: C_42  and  C_43
                            x       y       z     vdW  Elec       q    Type
                         _______ _______ _______ _____ _____    ______ ____

>  <TORSDO>
F 26

$$$$
=
 OpenBabel11032420003D

 64 67  0  0  1  0  0  0  0  0999 V2000
  182.5210  179.0370  137.5550 C   0  0  0  0  0  0  0  0  0  0  0  0
  182.5190  178.3420  136.4490 N   0  0  0  0  0  0  0  0  0  0  0  0
  185.9770  175.6050  135.2870 C   0  0  0  0  0  2  0  0  0  0  0  0
  184.3310  175.2930  137.2020 C   0  0  0  0  0  2  0  0  0  0  0  0
  185.7520  177.0690  134.9250 C   0  0  0  0  0  3  0  0  0  0  0  0
  185.7740  175.2380  136.7860 C   0  0  1  0  0  3  0  0  0  0  0  0
  183.5090  177.3960  136.0360 C   0  0  1  0  0  3  0  0  0  0  0  0
  184.6680  177.8290  135.2150 C   0  0  0  0  0  3  0  0  0  0  0  0
  183.7230  176.3350  136.7390 C   0  0  0  0  0  2  0  0  0  0  0  0
  186.3850  173.8830  137.1450 C   0  0  1  0  0  3  0  0  0  0  0  0
  185.2940  172.3570  138.4130 O   0  0  0  0  0  1  0  0  0  0  0  0
  185.3760  172.8290  137.1460 N   0  0  0  0  0  2  0  0  0  0  0  0
  187.4510  173.5610  136.2050 N   0  0  0  0  0  2  0  0  0  0  0  0
  188.6010  173.0740  136.9590 C   0  0  0  0  0  2  0  0  0  0  0  0
  189.9070  173.5620  136.3370 C   0  0  1  0  0  3  0  0  0  0  0  0
  190.1540  172.7860  135.0520 C   0  0  0  0  0  1  0  0  0  0  0  0
  192.4350  175.4140  136.2860 C   0  0  0  0  0  2  0  0  0  0  0  0
  190.8180  176.3790  137.9990 C   0  0  0  0  0  0  0  0  0  0  0  0
  192.2120  176.4190  137.4060 C   0  0  0  0  0  2  0  0  0  0  0  0
  191.1880  175.6730  134.9920 S   0  0  0  0  0  0  0  0  0  0  0  0
  189.7610  175.8510  137.3570 C   0  0  0  0  0  3  0  0  0  0  0  0
  189.8280  175.0710  136.0650 C   0  0  2  0  0  3  0  0  0  0  0  0
  190.2160  176.2290  140.2870 O   0  0  0  0  0  1  0  0  0  0  0  0
  190.5520  177.1250  139.2690 C   0  0  2  0  0  3  0  0  0  0  0  0
  189.4370  178.1450  139.0740 C   0  0  0  0  0  2  0  0  0  0  0  0
  187.9610  179.0610  137.3630 N   0  0  0  0  0  1  0  0  0  0  0  0
  189.2850  178.5120  137.6060 C   0  0  0  0  0  2  0  0  0  0  0  0
  184.8340  179.2710  138.0280 O   0  0  0  0  0  0  0  0  0  0  0  0
  183.4990  178.7780  139.8700 N   0  0  0  0  0  2  0  0  0  0  0  0
  183.6750  179.0700  138.4820 C   0  0  0  0  0  0  0  0  0  0  0  0
  184.6060  178.8030  140.8110 C   0  0  0  0  0  2  0  0  0  0  0  0
  184.0890  179.0280  142.2190 C   0  0  1  0  0  3  0  0  0  0  0  0
  182.7200  178.7410  142.2520 O   0  0  0  0  0  1  0  0  0  0  0  0
  184.8340  178.1040  143.1640 C   0  0  0  0  0  2  0  0  0  0  0  0
  184.4750  178.4030  144.6060 C   0  0  0  0  0  2  0  0  0  0  0  0
  185.7310  178.8020  145.3600 C   0  0  1  0  0  3  0  0  0  0  0  0
  185.3720  179.4160  146.5640 O   0  0  0  0  0  1  0  0  0  0  0  0
  186.6130  177.5890  145.6330 C   0  0  2  0  0  3  0  0  0  0  0  0
  186.9010  177.5240  146.9990 O   0  0  0  0  0  1  0  0  0  0  0  0
  187.8530  177.7110  144.8770 N   0  0  0  0  0  2  0  0  0  0  0  0
  188.8970  178.1510  145.7920 C   0  0  0  0  0  2  0  0  0  0  0  0
  190.7050  176.4540  146.2070 C   0  0  1  0  0  3  0  0  0  0  0  0
  190.8060  176.8730  147.5350 O   0  0  0  0  0  1  0  0  0  0  0  0
  191.3740  176.7260  143.5570 C   0  0  0  0  0  2  0  0  0  0  0  0
  190.2380  177.6210  145.3160 C   0  0  1  0  0  3  0  0  0  0  0  0
  191.8250  175.5580  144.4410 C   0  0  0  0  0  2  0  0  0  0  0  0
  191.9660  176.0000  145.7720 O   0  0  0  0  0  0  0  0  0  0  0  0
  190.1100  177.1800  143.9810 O   0  0  0  0  0  0  0  0  0  0  0  0
  181.2920  179.8170  137.9300 C   0  0  1  0  0  3  0  0  0  0  0  0
  181.8100  182.3380  138.4630 N   0  0  0  0  0  0  0  0  0  0  0  0
  181.5820  181.2280  138.2290 C   0  0  0  0  0  0  0  0  0  0  0  0
  180.2250  179.6840  136.8840 C   0  0  0  0  0  0  0  0  0  0  0  0
  180.2930  180.3180  135.8420 O   0  0  0  0  0  0  0  0  0  0  0  0
  179.1110  178.7180  137.1110 C   0  0  0  0  0  2  0  0  0  0  0  0
  179.3720  177.4310  136.3440 C   0  0  0  0  0  2  0  0  0  0  0  0
  180.3000  175.5390  139.5880 C   0  0  0  0  0  0  0  0  0  0  0  0
  179.6840  174.9120  136.7930 C   0  0  0  0  0  2  0  0  0  0  0  0
  181.7970  175.5520  139.8540 C   0  0  0  0  0  1  0  0  0  0  0  0
  180.0850  172.6410  137.4080 O   0  0  0  0  0  1  0  0  0  0  0  0
  179.7380  176.3340  137.2860 C   0  0  0  0  0  0  0  0  0  0  0  0
  180.3650  173.9580  137.7720 C   0  0  2  0  0  3  0  0  0  0  0  0
  179.5900  175.8540  140.8880 C   0  0  0  0  0  1  0  0  0  0  0  0
  179.8780  174.2050  139.1320 N   0  0  0  0  0  2  0  0  0  0  0  0
  179.9530  176.6120  138.5830 C   0  0  0  0  0  3  0  0  0  0  0  0
  1 49  1  0  0  0  0
  1 30  1  0  0  0  0
  2  1  2  0  0  0  0
  3  6  1  0  0  0  0
  5  8  2  0  0  0  0
  5  3  1  0  0  0  0
  6 10  1  6  0  0  0
  6  4  1  0  0  0  0
  7  2  1  1  0  0  0
  7  9  1  0  0  0  0
  8  7  1  0  0  0  0
  9  4  1  0  0  0  0
 10 13  1  6  0  0  0
 10 12  1  0  0  0  0
 12 11  1  0  0  0  0
 13 14  1  0  0  0  0
 15 16  1  6  0  0  0
 15 14  1  0  0  0  0
 17 19  1  0  0  0  0
 18 24  1  0  0  0  0
 19 18  1  0  0  0  0
 20 22  1  0  0  0  0
 20 17  1  0  0  0  0
 21 18  2  0  0  0  0
 22 15  1  1  0  0  0
 22 21  1  0  0  0  0
 24 23  1  1  0  0  0
 25 24  1  0  0  0  0
 26 27  1  0  0  0  0
 27 25  1  0  0  0  0
 28 30  2  0  0  0  0
 29 31  1  0  0  0  0
 30 29  1  0  0  0  0
 31 32  1  0  0  0  0
 32 33  1  6  0  0  0
 32 34  1  0  0  0  0
 34 35  1  0  0  0  0
 35 36  1  0  0  0  0
 36 38  1  0  0  0  0
 36 37  1  1  0  0  0
 38 39  1  1  0  0  0
 40 38  1  0  0  0  0
 40 41  1  0  0  0  0
 42 43  1  1  0  0  0
 44 48  1  0  0  0  0
 44 46  1  0  0  0  0
 45 41  1  1  0  0  0
 45 42  1  0  0  0  0
 46 47  1  0  0  0  0
 47 42  1  0  0  0  0
 48 45  1  0  0  0  0
 49 51  1  6  0  0  0
 51 50  3  0  0  0  0
 52 54  1  0  0  0  0
 52 49  1  0  0  0  0
 53 52  2  0  0  0  0
 55 54  1  0  0  0  0
 55 60  1  0  0  0  0
 56 58  1  0  0  0  0
 56 62  1  0  0  0  0
 57 60  1  0  0  0  0
 57 61  1  0  0  0  0
 60 64  2  0  0  0  0
 61 59  1  6  0  0  0
 61 63  1  0  0  0  0
 63 56  1  0  0  0  0
 64 56  1  0  0  0  0
M  END
>  <MODEL>
8

>  <REMARK>
 VINA RESULT:      -5.7      3.428      9.875
  Name = 
  26 active torsions:
  status: ('A' for Active; 'I' for Inactive)
    1  A    between atoms: C_3  and  C_16
    2  A    between atoms: C_3  and  C_62
    3  A    between atoms: C_4  and  C_43
    4  A    between atoms: C_4  and  C_63
    5  A    between atoms: C_5  and  C_18
    6  A    between atoms: C_6  and  C_7
    7  A    between atoms: C_6  and  C_54
    8  A    between atoms: C_7  and  C_36
    9  A    between atoms: C_8  and  N_33
   10  A    between atoms: C_8  and  C_34
   11  A    between atoms: C_16  and  N_29
   12  A    between atoms: C_18  and  C_55
   13  A    between atoms: C_19  and  C_36
   14  A    between atoms: C_19  and  C_58
   15  A    between atoms: C_25  and  C_27
   16  A    between atoms: C_27  and  N_33
   17  A    between atoms: C_28  and  C_41
   18  A    between atoms: N_29  and  C_41
   19  A    between atoms: C_32  and  N_46
   20  A    between atoms: C_34  and  C_42
   21  A    between atoms: C_36  and  C_53
   22  A    between atoms: C_37  and  C_54
   23  A    between atoms: N_38  and  C_63
   24  A    between atoms: C_40  and  C_55
   25  A    between atoms: C_41  and  N_57
   26  A    between atoms: C_42  and  C_43
                            x       y       z     vdW  Elec       q    Type
                         _______ _______ _______ _____ _____    ______ ____

>  <TORSDO>
F 26

$$$$
=
 OpenBabel11032420003D

 64 67  0  0  1  0  0  0  0  0999 V2000
  190.0580  177.2550  137.8730 C   0  0  0  0  0  0  0  0  0  0  0  0
  189.4250  176.6740  136.8890 N   0  0  0  0  0  0  0  0  0  0  0  0
  185.1280  177.0220  135.4010 C   0  0  0  0  0  2  0  0  0  0  0  0
  185.9220  176.1080  137.6380 C   0  0  0  0  0  2  0  0  0  0  0  0
  186.4230  177.0310  134.5960 C   0  0  0  0  0  3  0  0  0  0  0  0
  185.0010  175.8970  136.4700 C   0  0  1  0  0  3  0  0  0  0  0  0
  188.0610  176.8880  136.5100 C   0  0  1  0  0  3  0  0  0  0  0  0
  187.6890  177.0130  135.0790 C   0  0  0  0  0  3  0  0  0  0  0  0
  187.1060  176.4760  137.2740 C   0  0  0  0  0  2  0  0  0  0  0  0
  183.5620  175.7040  136.9490 C   0  0  1  0  0  3  0  0  0  0  0  0
  183.7930  173.7240  135.8750 O   0  0  0  0  0  1  0  0  0  0  0  0
  183.1840  174.2950  136.9410 N   0  0  0  0  0  2  0  0  0  0  0  0
  183.4130  176.2600  138.2890 N   0  0  0  0  0  2  0  0  0  0  0  0
  181.9900  176.3390  138.6000 C   0  0  0  0  0  2  0  0  0  0  0  0
  181.4700  177.7630  138.4220 C   0  0  1  0  0  3  0  0  0  0  0  0
  181.5890  178.1430  136.9530 C   0  0  0  0  0  1  0  0  0  0  0  0
  179.9160  180.4770  138.6290 C   0  0  0  0  0  2  0  0  0  0  0  0
  179.8300  179.3730  140.9210 C   0  0  0  0  0  0  0  0  0  0  0  0
  179.5640  180.6200  140.1020 C   0  0  0  0  0  2  0  0  0  0  0  0
  179.0220  179.0580  137.9340 S   0  0  0  0  0  0  0  0  0  0  0  0
  179.9460  178.1470  140.3790 C   0  0  0  0  0  3  0  0  0  0  0  0
  180.0120  177.8540  138.8990 C   0  0  2  0  0  3  0  0  0  0  0  0
  180.0050  180.7820  142.8200 O   0  0  0  0  0  1  0  0  0  0  0  0
  179.7760  179.4650  142.4140 C   0  0  2  0  0  3  0  0  0  0  0  0
  180.7970  178.5300  143.0510 C   0  0  0  0  0  2  0  0  0  0  0  0
  182.9280  178.6030  144.2340 N   0  0  0  0  0  1  0  0  0  0  0  0
  182.1590  179.1990  143.1540 C   0  0  0  0  0  2  0  0  0  0  0  0
  189.1740  179.3280  138.6140 O   0  0  0  0  0  0  0  0  0  0  0  0
  189.0500  177.5960  140.1640 N   0  0  0  0  0  2  0  0  0  0  0  0
  189.3800  178.1110  138.8720 C   0  0  0  0  0  0  0  0  0  0  0  0
  188.3820  178.4050  141.1710 C   0  0  0  0  0  2  0  0  0  0  0  0
  188.4210  177.7010  142.5140 C   0  0  1  0  0  3  0  0  0  0  0  0
  188.4550  176.3190  142.3030 O   0  0  0  0  0  1  0  0  0  0  0  0
  189.6690  178.1420  143.2570 C   0  0  0  0  0  2  0  0  0  0  0  0
  190.5490  176.9520  143.5850 C   0  0  0  0  0  2  0  0  0  0  0  0
  191.6970  177.4100  144.4690 C   0  0  1  0  0  3  0  0  0  0  0  0
  191.9670  178.7580  144.2140 O   0  0  0  0  0  1  0  0  0  0  0  0
  191.3640  177.2110  145.9430 C   0  0  2  0  0  3  0  0  0  0  0  0
  192.2400  176.2690  146.4910 O   0  0  0  0  0  1  0  0  0  0  0  0
  189.9920  176.7360  146.0700 N   0  0  0  0  0  2  0  0  0  0  0  0
  189.5030  177.1190  147.3870 C   0  0  0  0  0  2  0  0  0  0  0  0
  187.5770  178.3960  148.3760 C   0  0  1  0  0  3  0  0  0  0  0  0
  187.9210  177.9450  149.6510 O   0  0  0  0  0  1  0  0  0  0  0  0
  186.2860  178.0300  145.9790 C   0  0  0  0  0  2  0  0  0  0  0  0
  188.0060  177.3650  147.3150 C   0  0  1  0  0  3  0  0  0  0  0  0
  185.8690  179.0660  147.0300 C   0  0  0  0  0  2  0  0  0  0  0  0
  186.1810  178.5840  148.3170 O   0  0  0  0  0  0  0  0  0  0  0  0
  187.6810  177.8420  146.0270 O   0  0  0  0  0  0  0  0  0  0  0  0
  191.5470  177.0780  137.9890 C   0  0  1  0  0  3  0  0  0  0  0  0
  192.3920  177.1800  140.4760 N   0  0  0  0  0  0  0  0  0  0  0  0
  192.0190  177.1340  139.3810 C   0  0  0  0  0  0  0  0  0  0  0  0
  191.9980  175.8220  137.3050 C   0  0  0  0  0  0  0  0  0  0  0  0
  191.2770  175.2610  136.4940 O   0  0  0  0  0  0  0  0  0  0  0  0
  193.3690  175.3030  137.5860 C   0  0  0  0  0  2  0  0  0  0  0  0
  193.9860  174.7440  136.3130 C   0  0  0  0  0  2  0  0  0  0  0  0
  197.5860  173.5510  137.0790 C   0  0  0  0  0  0  0  0  0  0  0  0
  194.8730  172.4410  137.0580 C   0  0  0  0  0  2  0  0  0  0  0  0
  198.3560  173.1990  135.8150 C   0  0  0  0  0  1  0  0  0  0  0  0
  195.9100  170.3840  137.6830 O   0  0  0  0  0  1  0  0  0  0  0  0
  195.1440  173.8640  136.6440 C   0  0  0  0  0  0  0  0  0  0  0  0
  196.1560  171.6120  137.0690 C   0  0  2  0  0  3  0  0  0  0  0  0
  198.4930  174.3760  137.9670 C   0  0  0  0  0  1  0  0  0  0  0  0
  197.2070  172.3250  137.7990 N   0  0  0  0  0  2  0  0  0  0  0  0
  196.3800  174.3870  136.7210 C   0  0  0  0  0  3  0  0  0  0  0  0
  1 49  1  0  0  0  0
  1 30  1  0  0  0  0
  2  1  2  0  0  0  0
  3  6  1  0  0  0  0
  5  8  2  0  0  0  0
  5  3  1  0  0  0  0
  6 10  1  1  0  0  0
  6  4  1  0  0  0  0
  7  2  1  6  0  0  0
  7  9  1  0  0  0  0
  8  7  1  0  0  0  0
  9  4  1  0  0  0  0
 10 12  1  1  0  0  0
 10 13  1  0  0  0  0
 11 12  1  0  0  0  0
 13 14  1  0  0  0  0
 15 16  1  6  0  0  0
 15 14  1  0  0  0  0
 17 19  1  0  0  0  0
 18 24  1  0  0  0  0
 19 18  1  0  0  0  0
 20 17  1  0  0  0  0
 20 22  1  0  0  0  0
 21 18  2  0  0  0  0
 22 15  1  6  0  0  0
 22 21  1  0  0  0  0
 24 23  1  6  0  0  0
 24 25  1  0  0  0  0
 25 27  1  0  0  0  0
 27 26  1  0  0  0  0
 28 30  2  0  0  0  0
 29 31  1  0  0  0  0
 30 29  1  0  0  0  0
 31 32  1  0  0  0  0
 32 33  1  6  0  0  0
 32 34  1  0  0  0  0
 34 35  1  0  0  0  0
 35 36  1  0  0  0  0
 36 37  1  1  0  0  0
 36 38  1  0  0  0  0
 38 40  1  0  0  0  0
 38 39  1  6  0  0  0
 40 41  1  0  0  0  0
 42 43  1  1  0  0  0
 44 48  1  0  0  0  0
 44 46  1  0  0  0  0
 45 41  1  6  0  0  0
 45 42  1  0  0  0  0
 46 47  1  0  0  0  0
 47 42  1  0  0  0  0
 48 45  1  0  0  0  0
 49 51  1  1  0  0  0
 51 50  3  0  0  0  0
 52 54  1  0  0  0  0
 52 49  1  0  0  0  0
 53 52  2  0  0  0  0
 55 60  1  0  0  0  0
 55 54  1  0  0  0  0
 56 63  1  0  0  0  0
 56 62  1  0  0  0  0
 57 61  1  0  0  0  0
 58 56  1  0  0  0  0
 60 64  2  0  0  0  0
 60 57  1  0  0  0  0
 61 59  1  1  0  0  0
 61 63  1  0  0  0  0
 64 56  1  0  0  0  0
M  END
>  <MODEL>
9

>  <REMARK>
 VINA RESULT:      -5.2      1.888      2.445
  Name = 
  26 active torsions:
  status: ('A' for Active; 'I' for Inactive)
    1  A    between atoms: C_3  and  C_16
    2  A    between atoms: C_3  and  C_62
    3  A    between atoms: C_4  and  C_43
    4  A    between atoms: C_4  and  C_63
    5  A    between atoms: C_5  and  C_18
    6  A    between atoms: C_6  and  C_7
    7  A    between atoms: C_6  and  C_54
    8  A    between atoms: C_7  and  C_36
    9  A    between atoms: C_8  and  N_33
   10  A    between atoms: C_8  and  C_34
   11  A    between atoms: C_16  and  N_29
   12  A    between atoms: C_18  and  C_55
   13  A    between atoms: C_19  and  C_36
   14  A    between atoms: C_19  and  C_58
   15  A    between atoms: C_25  and  C_27
   16  A    between atoms: C_27  and  N_33
   17  A    between atoms: C_28  and  C_41
   18  A    between atoms: N_29  and  C_41
   19  A    between atoms: C_32  and  N_46
   20  A    between atoms: C_34  and  C_42
   21  A    between atoms: C_36  and  C_53
   22  A    between atoms: C_37  and  C_54
   23  A    between atoms: N_38  and  C_63
   24  A    between atoms: C_40  and  C_55
   25  A    between atoms: C_41  and  N_57
   26  A    between atoms: C_42  and  C_43
                            x       y       z     vdW  Elec       q    Type
                         _______ _______ _______ _____ _____    ______ ____

>  <TORSDO>
F 26

$$$$
