=
 OpenBabel11042412353D

 41 46  0  0  1  0  0  0  0  0999 V2000
  188.7030  177.3180  140.9790 C   0  0  0  0  0  3  0  0  0  0  0  0
  188.8830  178.4340  141.6820 C   0  0  0  0  0  3  0  0  0  0  0  0
  189.9700  176.8270  144.8550 C   0  0  0  0  0  0  0  0  0  0  0  0
  189.1510  176.9260  143.5920 C   0  0  2  0  0  3  0  0  0  0  0  0
  188.9750  178.3690  143.1670 C   0  0  2  0  0  3  0  0  0  0  0  0
  192.0260  175.8030  145.9090 C   0  0  0  0  0  2  0  0  0  0  0  0
  187.4720  177.4150  147.3330 O   0  0  0  0  0  0  0  0  0  0  0  0
  188.0570  177.4980  146.2180 C   0  0  0  0  0  0  0  0  0  0  0  0
  187.7810  177.6060  143.7080 C   0  0  2  0  0  3  0  0  0  0  0  0
  191.4180  176.4520  144.6720 C   0  0  0  0  0  2  0  0  0  0  0  0
  191.7230  176.6690  147.1180 C   0  0  0  0  0  2  0  0  0  0  0  0
  189.4430  177.0300  146.0820 C   0  0  0  0  0  0  0  0  0  0  0  0
  190.2150  176.7020  147.3390 C   0  0  0  0  0  2  0  0  0  0  0  0
  187.4030  178.2060  145.0660 C   0  0  1  0  0  3  0  0  0  0  0  0
  185.8860  178.2300  145.2090 C   0  0  0  0  0  2  0  0  0  0  0  0
  185.2640  179.0790  144.1140 C   0  0  0  0  0  2  0  0  0  0  0  0
  184.0940  178.3460  143.4680 C   0  0  1  0  0  3  0  0  0  0  0  0
  181.8510  179.0050  143.0720 O   0  0  0  0  0  0  0  0  0  0  0  0
  182.8100  179.0220  143.8300 C   0  0  0  0  0  3  0  0  0  0  0  0
  184.2450  178.2970  141.9520 C   0  0  0  0  0  2  0  0  0  0  0  0
  185.3690  179.2050  141.4910 C   0  0  0  0  0  1  0  0  0  0  0  0
  188.6060  177.3580  139.4870 C   0  0  1  0  0  3  0  0  0  0  0  0
  188.7840  178.7770  138.9740 C   0  0  0  0  0  1  0  0  0  0  0  0
  191.6090  175.4730  138.3930 C   0  0  2  0  0  3  0  0  0  0  0  0
  190.7730  175.1900  136.0430 C   0  0  1  0  0  3  0  0  0  0  0  0
  189.6380  175.7710  135.4980 C   0  0  0  0  0  3  0  0  0  0  0  0
  192.0900  175.1040  135.4200 C   0  0  0  0  0  2  0  0  0  0  0  0
  190.8460  176.3230  139.3210 N   0  0  0  0  0  0  0  0  0  0  0  0
  189.4840  175.7410  137.6280 C   0  0  2  0  0  3  0  0  0  0  0  0
  193.1690  175.4690  136.1210 C   0  0  2  0  0  3  0  0  0  0  0  0
  189.6290  176.4590  138.8740 C   0  0  0  0  0  0  0  0  0  0  0  0
  192.9830  176.4410  137.6570 S   0  0  0  0  0  0  0  0  0  0  0  0
  190.6310  175.1490  137.3680 N   0  0  2  0  0  0  0  0  0  0  0  0
  188.8270  176.1490  136.5220 N   0  0  0  0  0  0  0  0  0  0  0  0
  197.8800  172.9400  136.9170 O   0  0  0  0  0  0  0  0  0  0  0  0
  196.7810  174.4020  135.4480 N   0  0  0  0  0  2  0  0  0  0  0  0
  195.5130  174.4320  136.1120 C   0  0  0  0  0  0  0  0  0  0  0  0
  195.3250  173.7600  137.1610 O   0  0  0  0  0  0  0  0  0  0  0  0
  199.1800  173.7230  135.0930 C   0  0  0  0  0  1  0  0  0  0  0  0
  197.9230  173.6540  135.8800 C   0  0  0  0  0  0  0  0  0  0  0  0
  194.4580  175.2200  135.5470 N   0  0  0  0  0  2  0  0  0  0  0  0
  1  2  2  0  0  0  0
  3 12  2  0  0  0  0
  4  9  1  0  0  0  0
  4  3  1  1  0  0  0
  5  2  1  6  0  0  0
  5  4  1  0  0  0  0
  5  9  1  0  0  0  0
  6 11  1  0  0  0  0
  8  7  2  0  0  0  0
  9 14  1  0  0  0  0
 10  3  1  0  0  0  0
 10  6  1  0  0  0  0
 11 13  1  0  0  0  0
 12  8  1  0  0  0  0
 12 13  1  0  0  0  0
 14 15  1  0  0  0  0
 14  8  1  0  0  0  0
 16 15  1  0  0  0  0
 17 19  1  0  0  0  0
 17 16  1  0  0  0  0
 18 19  2  0  0  0  0
 20 17  1  0  0  0  0
 21 20  1  0  0  0  0
 22  1  1  0  0  0  0
 23 22  1  0  0  0  0
 24 28  1  0  0  0  0
 25 33  1  0  0  0  0
 26 25  1  0  0  0  0
 26 34  2  0  0  0  0
 27 25  1  0  0  0  0
 27 30  1  0  0  0  0
 29 31  1  0  0  0  0
 30 32  1  0  0  0  0
 31 28  2  0  0  0  0
 31 22  1  0  0  0  0
 32 24  1  0  0  0  0
 33 29  1  0  0  0  0
 33 24  1  0  0  0  0
 34 29  1  0  0  0  0
 36 40  1  0  0  0  0
 36 37  1  0  0  0  0
 37 38  2  0  0  0  0
 39 40  1  0  0  0  0
 40 35  2  0  0  0  0
 41 37  1  0  0  0  0
 41 30  1  0  0  0  0
M  END
>  <MODEL>
1

>  <REMARK>
 VINA RESULT:      -9.1      0.000      0.000
  Name = 
  9 active torsions:
  status: ('A' for Active; 'I' for Inactive)
    1  A    between atoms: C_4  and  C_6
    2  A    between atoms: C_6  and  C_31
    3  A    between atoms: C_7  and  C_13
    4  A    between atoms: C_10  and  C_26
    5  A    between atoms: C_11  and  C_25
    6  A    between atoms: C_11  and  C_38
    7  A    between atoms: C_25  and  C_26
    8  A    between atoms: C_26  and  C_40
    9  A    between atoms: C_27  and  N_41
                            x       y       z     vdW  Elec       q    Type
                         _______ _______ _______ _____ _____    ______ ____

>  <TORSDO>
F 9

$$$$
=
 OpenBabel11042412353D

 41 46  0  0  1  0  0  0  0  0999 V2000
  188.2200  178.4960  140.5140 C   0  0  0  0  0  3  0  0  0  0  0  0
  188.4070  177.8910  141.6850 C   0  0  0  0  0  3  0  0  0  0  0  0
  187.3740  177.6070  145.2460 C   0  0  0  0  0  0  0  0  0  0  0  0
  187.3860  177.1890  143.7970 C   0  0  2  0  0  3  0  0  0  0  0  0
  187.6760  178.3680  142.8910 C   0  0  2  0  0  3  0  0  0  0  0  0
  188.3680  177.1760  147.5290 C   0  0  0  0  0  2  0  0  0  0  0  0
  184.0510  178.8650  145.5620 O   0  0  0  0  0  0  0  0  0  0  0  0
  185.1490  178.5840  145.0060 C   0  0  0  0  0  0  0  0  0  0  0  0
  186.2830  177.7670  142.9010 C   0  0  2  0  0  3  0  0  0  0  0  0
  188.6220  177.2940  146.0310 C   0  0  0  0  0  2  0  0  0  0  0  0
  187.5910  178.3930  147.9940 C   0  0  0  0  0  2  0  0  0  0  0  0
  186.3050  178.1980  145.8240 C   0  0  0  0  0  0  0  0  0  0  0  0
  186.2240  178.3960  147.3200 C   0  0  0  0  0  2  0  0  0  0  0  0
  185.3260  178.7860  143.5290 C   0  0  1  0  0  3  0  0  0  0  0  0
  183.9920  178.7520  142.7930 C   0  0  0  0  0  2  0  0  0  0  0  0
  184.2080  178.4620  141.3170 C   0  0  0  0  0  2  0  0  0  0  0  0
  182.9610  178.8130  140.5150 C   0  0  1  0  0  3  0  0  0  0  0  0
  184.3690  180.2180  139.2240 O   0  0  0  0  0  0  0  0  0  0  0  0
  183.3480  179.5460  139.2690 C   0  0  0  0  0  3  0  0  0  0  0  0
  182.1690  177.5620  140.1530 C   0  0  0  0  0  2  0  0  0  0  0  0
  180.7640  177.6290  140.7200 C   0  0  0  0  0  1  0  0  0  0  0  0
  188.9440  178.0360  139.2880 C   0  0  1  0  0  3  0  0  0  0  0  0
  189.7100  176.7530  139.5650 C   0  0  0  0  0  1  0  0  0  0  0  0
  186.0580  177.7040  136.9790 C   0  0  2  0  0  3  0  0  0  0  0  0
  187.0920  175.8060  135.7020 C   0  0  1  0  0  3  0  0  0  0  0  0
  188.2650  175.1400  136.0250 C   0  0  0  0  0  3  0  0  0  0  0  0
  185.8340  175.1970  135.2850 C   0  0  0  0  0  2  0  0  0  0  0  0
  186.7330  178.1970  138.1910 N   0  0  0  0  0  0  0  0  0  0  0  0
  188.2380  177.0570  136.9680 C   0  0  2  0  0  3  0  0  0  0  0  0
  184.6970  175.5750  135.8780 C   0  0  2  0  0  3  0  0  0  0  0  0
  187.9830  177.8270  138.1640 C   0  0  0  0  0  0  0  0  0  0  0  0
  184.7440  176.5120  137.4470 S   0  0  0  0  0  0  0  0  0  0  0  0
  187.1210  177.0110  136.2720 N   0  0  2  0  0  0  0  0  0  0  0  0
  188.9840  175.9360  136.8610 N   0  0  0  0  0  0  0  0  0  0  0  0
  180.7840  171.9090  136.5710 O   0  0  0  0  0  0  0  0  0  0  0  0
  181.5230  173.5840  135.1040 N   0  0  0  0  0  2  0  0  0  0  0  0
  182.6640  174.0150  135.8540 C   0  0  0  0  0  0  0  0  0  0  0  0
  182.9440  173.4740  136.9570 O   0  0  0  0  0  0  0  0  0  0  0  0
  179.4820  172.1950  134.6080 C   0  0  0  0  0  1  0  0  0  0  0  0
  180.6230  172.5400  135.4920 C   0  0  0  0  0  0  0  0  0  0  0  0
  183.4630  175.0860  135.3390 N   0  0  0  0  0  2  0  0  0  0  0  0
  1  2  2  0  0  0  0
  3 12  2  0  0  0  0
  3 10  1  0  0  0  0
  4  3  1  1  0  0  0
  5  2  1  6  0  0  0
  5  9  1  0  0  0  0
  5  4  1  0  0  0  0
  6 11  1  0  0  0  0
  8  7  2  0  0  0  0
  8 12  1  0  0  0  0
  9 14  1  0  0  0  0
  9  4  1  0  0  0  0
 10  6  1  0  0  0  0
 12 13  1  0  0  0  0
 13 11  1  0  0  0  0
 14  8  1  0  0  0  0
 15 14  1  0  0  0  0
 16 15  1  0  0  0  0
 17 16  1  0  0  0  0
 18 19  2  0  0  0  0
 19 17  1  0  0  0  0
 20 17  1  0  0  0  0
 20 21  1  0  0  0  0
 22 23  1  0  0  0  0
 22  1  1  0  0  0  0
 24 32  1  0  0  0  0
 24 28  1  0  0  0  0
 25 26  1  0  0  0  0
 25 33  1  0  0  0  0
 26 34  2  0  0  0  0
 27 25  1  0  0  0  0
 27 30  1  0  0  0  0
 29 31  1  0  0  0  0
 30 32  1  0  0  0  0
 31 28  2  0  0  0  0
 31 22  1  0  0  0  0
 33 29  1  0  0  0  0
 33 24  1  0  0  0  0
 34 29  1  0  0  0  0
 36 40  1  0  0  0  0
 36 37  1  0  0  0  0
 37 38  2  0  0  0  0
 39 40  1  0  0  0  0
 40 35  2  0  0  0  0
 41 37  1  0  0  0  0
 41 30  1  0  0  0  0
M  END
>  <MODEL>
2

>  <REMARK>
 VINA RESULT:      -8.8      4.843      7.296
  Name = 
  9 active torsions:
  status: ('A' for Active; 'I' for Inactive)
    1  A    between atoms: C_4  and  C_6
    2  A    between atoms: C_6  and  C_31
    3  A    between atoms: C_7  and  C_13
    4  A    between atoms: C_10  and  C_26
    5  A    between atoms: C_11  and  C_25
    6  A    between atoms: C_11  and  C_38
    7  A    between atoms: C_25  and  C_26
    8  A    between atoms: C_26  and  C_40
    9  A    between atoms: C_27  and  N_41
                            x       y       z     vdW  Elec       q    Type
                         _______ _______ _______ _____ _____    ______ ____

>  <TORSDO>
F 9

$$$$
=
 OpenBabel11042412353D

 41 46  0  0  1  0  0  0  0  0999 V2000
  189.2110  178.2290  140.5410 C   0  0  0  0  0  3  0  0  0  0  0  0
  189.9520  177.6420  141.4780 C   0  0  0  0  0  3  0  0  0  0  0  0
  190.1580  176.7100  145.0720 C   0  0  0  0  0  0  0  0  0  0  0  0
  189.7220  176.5190  143.6410 C   0  0  2  0  0  3  0  0  0  0  0  0
  189.6280  177.8460  142.9170 C   0  0  2  0  0  3  0  0  0  0  0  0
  191.8670  176.0590  146.8160 C   0  0  0  0  0  2  0  0  0  0  0  0
  187.0500  177.5170  146.6270 O   0  0  0  0  0  0  0  0  0  0  0  0
  187.9210  177.4510  145.7160 C   0  0  0  0  0  0  0  0  0  0  0  0
  188.3540  177.0940  143.2520 C   0  0  2  0  0  3  0  0  0  0  0  0
  191.6100  176.4290  145.3600 C   0  0  0  0  0  2  0  0  0  0  0  0
  191.2120  177.0960  147.7100 C   0  0  0  0  0  2  0  0  0  0  0  0
  189.3020  177.0810  146.0510 C   0  0  0  0  0  0  0  0  0  0  0  0
  189.7020  177.0430  147.5070 C   0  0  0  0  0  2  0  0  0  0  0  0
  187.5940  177.8900  144.3180 C   0  0  1  0  0  3  0  0  0  0  0  0
  186.0970  177.8140  144.0410 C   0  0  0  0  0  2  0  0  0  0  0  0
  185.8090  178.1510  142.5870 C   0  0  0  0  0  2  0  0  0  0  0  0
  184.5900  179.0580  142.4800 C   0  0  1  0  0  3  0  0  0  0  0  0
  183.8410  177.5650  140.7960 O   0  0  0  0  0  0  0  0  0  0  0  0
  183.5430  178.4020  141.6350 C   0  0  0  0  0  3  0  0  0  0  0  0
  184.0190  179.3780  143.8560 C   0  0  0  0  0  2  0  0  0  0  0  0
  182.5810  178.9080  143.9680 C   0  0  0  0  0  1  0  0  0  0  0  0
  189.5180  178.0400  139.0890 C   0  0  1  0  0  3  0  0  0  0  0  0
  190.1020  176.6600  138.8380 C   0  0  0  0  0  1  0  0  0  0  0  0
  186.1220  178.2150  137.6040 C   0  0  2  0  0  3  0  0  0  0  0  0
  186.9560  177.8950  135.2580 C   0  0  1  0  0  3  0  0  0  0  0  0
  188.2560  177.5920  134.8820 C   0  0  0  0  0  3  0  0  0  0  0  0
  185.7370  177.2800  134.7440 C   0  0  0  0  0  2  0  0  0  0  0  0
  187.0730  178.0870  138.7210 N   0  0  0  0  0  0  0  0  0  0  0  0
  188.2500  178.4490  136.8390 C   0  0  2  0  0  3  0  0  0  0  0  0
  184.8120  176.8430  135.6050 C   0  0  2  0  0  3  0  0  0  0  0  0
  188.2860  178.2340  138.2670 C   0  0  0  0  0  0  0  0  0  0  0  0
  185.2270  176.6290  137.3720 S   0  0  0  0  0  0  0  0  0  0  0  0
  186.9880  178.4630  136.4650 N   0  0  2  0  0  0  0  0  0  0  0  0
  189.0800  177.9240  135.9120 N   0  0  0  0  0  0  0  0  0  0  0  0
  179.8080  175.3040  136.9530 O   0  0  0  0  0  0  0  0  0  0  0  0
  181.2560  175.5160  135.1200 N   0  0  0  0  0  2  0  0  0  0  0  0
  182.3780  176.0680  135.8180 C   0  0  0  0  0  0  0  0  0  0  0  0
  182.3180  176.2790  137.0580 O   0  0  0  0  0  0  0  0  0  0  0  0
  178.9310  174.5830  134.8690 C   0  0  0  0  0  1  0  0  0  0  0  0
  180.0080  175.1520  135.7180 C   0  0  0  0  0  0  0  0  0  0  0  0
  183.5580  176.3970  135.0750 N   0  0  0  0  0  2  0  0  0  0  0  0
  1  2  2  0  0  0  0
  3 10  1  0  0  0  0
  3 12  2  0  0  0  0
  4  3  1  1  0  0  0
  5  2  1  6  0  0  0
  5  9  1  0  0  0  0
  5  4  1  0  0  0  0
  6 11  1  0  0  0  0
  8 12  1  0  0  0  0
  8  7  2  0  0  0  0
  9  4  1  0  0  0  0
  9 14  1  0  0  0  0
 10  6  1  0  0  0  0
 12 13  1  0  0  0  0
 13 11  1  0  0  0  0
 14  8  1  0  0  0  0
 15 14  1  0  0  0  0
 16 15  1  0  0  0  0
 17 16  1  0  0  0  0
 17 20  1  0  0  0  0
 18 19  2  0  0  0  0
 19 17  1  0  0  0  0
 20 21  1  0  0  0  0
 22  1  1  0  0  0  0
 23 22  1  0  0  0  0
 24 28  1  0  0  0  0
 25 33  1  0  0  0  0
 26 25  1  0  0  0  0
 26 34  2  0  0  0  0
 27 25  1  0  0  0  0
 27 30  1  0  0  0  0
 29 31  1  0  0  0  0
 30 32  1  0  0  0  0
 31 28  2  0  0  0  0
 31 22  1  0  0  0  0
 32 24  1  0  0  0  0
 33 29  1  0  0  0  0
 33 24  1  0  0  0  0
 34 29  1  0  0  0  0
 36 40  1  0  0  0  0
 36 37  1  0  0  0  0
 37 38  2  0  0  0  0
 39 40  1  0  0  0  0
 40 35  2  0  0  0  0
 41 30  1  0  0  0  0
 41 37  1  0  0  0  0
M  END
>  <MODEL>
3

>  <REMARK>
 VINA RESULT:      -8.7      4.705      7.233
  Name = 
  9 active torsions:
  status: ('A' for Active; 'I' for Inactive)
    1  A    between atoms: C_4  and  C_6
    2  A    between atoms: C_6  and  C_31
    3  A    between atoms: C_7  and  C_13
    4  A    between atoms: C_10  and  C_26
    5  A    between atoms: C_11  and  C_25
    6  A    between atoms: C_11  and  C_38
    7  A    between atoms: C_25  and  C_26
    8  A    between atoms: C_26  and  C_40
    9  A    between atoms: C_27  and  N_41
                            x       y       z     vdW  Elec       q    Type
                         _______ _______ _______ _____ _____    ______ ____

>  <TORSDO>
F 9

$$$$
=
 OpenBabel11042412353D

 41 46  0  0  1  0  0  0  0  0999 V2000
  188.0330  178.0930  140.8080 C   0  0  0  0  0  3  0  0  0  0  0  0
  186.9060  178.5670  141.3340 C   0  0  0  0  0  3  0  0  0  0  0  0
  187.5550  177.6200  144.8710 C   0  0  0  0  0  0  0  0  0  0  0  0
  186.9020  177.4650  143.5200 C   0  0  2  0  0  3  0  0  0  0  0  0
  186.8100  178.7950  142.8020 C   0  0  2  0  0  3  0  0  0  0  0  0
  189.4410  176.8340  146.3570 C   0  0  0  0  0  2  0  0  0  0  0  0
  184.7780  178.6730  146.8490 O   0  0  0  0  0  0  0  0  0  0  0  0
  185.5000  178.5370  145.8230 C   0  0  0  0  0  0  0  0  0  0  0  0
  185.5420  178.1480  143.3260 C   0  0  2  0  0  3  0  0  0  0  0  0
  189.0060  177.2240  144.9500 C   0  0  0  0  0  2  0  0  0  0  0  0
  189.0060  177.9190  147.3250 C   0  0  0  0  0  2  0  0  0  0  0  0
  186.8820  178.0580  145.9580 C   0  0  0  0  0  0  0  0  0  0  0  0
  187.4840  177.9870  147.3420 C   0  0  0  0  0  2  0  0  0  0  0  0
  185.0100  179.0020  144.4820 C   0  0  1  0  0  3  0  0  0  0  0  0
  183.4880  179.0460  144.4240 C   0  0  0  0  0  2  0  0  0  0  0  0
  183.0000  178.7070  143.0250 C   0  0  0  0  0  2  0  0  0  0  0  0
  181.5380  179.1000  142.8580 C   0  0  1  0  0  3  0  0  0  0  0  0
  180.6980  179.8260  140.7630 O   0  0  0  0  0  0  0  0  0  0  0  0
  181.1170  178.8960  141.4370 C   0  0  0  0  0  3  0  0  0  0  0  0
  180.6410  178.2880  143.7860 C   0  0  0  0  0  2  0  0  0  0  0  0
  179.3520  179.0330  144.0790 C   0  0  0  0  0  1  0  0  0  0  0  0
  188.1530  177.8540  139.3360 C   0  0  1  0  0  3  0  0  0  0  0  0
  188.3580  179.1640  138.5940 C   0  0  0  0  0  1  0  0  0  0  0  0
  191.3140  175.9230  139.1190 C   0  0  2  0  0  3  0  0  0  0  0  0
  191.0400  175.4400  136.6710 C   0  0  1  0  0  3  0  0  0  0  0  0
  190.0640  175.9630  135.8340 C   0  0  0  0  0  3  0  0  0  0  0  0
  192.4640  175.3200  136.3770 C   0  0  0  0  0  2  0  0  0  0  0  0
  190.3640  176.8360  139.7750 N   0  0  0  0  0  0  0  0  0  0  0  0
  189.4240  176.1030  137.8670 C   0  0  2  0  0  3  0  0  0  0  0  0
  193.3550  175.7530  137.2750 C   0  0  2  0  0  3  0  0  0  0  0  0
  189.2840  176.9200  139.0510 C   0  0  0  0  0  0  0  0  0  0  0  0
  192.8280  176.8440  138.6430 S   0  0  0  0  0  0  0  0  0  0  0  0
  190.5960  175.5060  137.9270 N   0  0  2  0  0  0  0  0  0  0  0  0
  189.0420  176.4120  136.6100 N   0  0  0  0  0  0  0  0  0  0  0  0
  197.1610  171.9320  137.6520 O   0  0  0  0  0  0  0  0  0  0  0  0
  196.8430  174.1890  137.1000 N   0  0  0  0  0  2  0  0  0  0  0  0
  195.4240  174.2400  137.2840 C   0  0  0  0  0  0  0  0  0  0  0  0
  194.7890  173.2110  137.6380 O   0  0  0  0  0  0  0  0  0  0  0  0
  199.1260  173.1280  137.0710 C   0  0  0  0  0  1  0  0  0  0  0  0
  197.6610  173.0310  137.2940 C   0  0  0  0  0  0  0  0  0  0  0  0
  194.7400  175.4740  137.0350 N   0  0  0  0  0  2  0  0  0  0  0  0
  1  2  2  0  0  0  0
  3 10  1  0  0  0  0
  3 12  2  0  0  0  0
  4  3  1  1  0  0  0
  5  2  1  6  0  0  0
  5  9  1  0  0  0  0
  5  4  1  0  0  0  0
  6 11  1  0  0  0  0
  8 12  1  0  0  0  0
  8  7  2  0  0  0  0
  9  4  1  0  0  0  0
  9 14  1  0  0  0  0
 10  6  1  0  0  0  0
 11 13  1  0  0  0  0
 12 13  1  0  0  0  0
 14  8  1  0  0  0  0
 15 14  1  0  0  0  0
 16 15  1  0  0  0  0
 17 16  1  0  0  0  0
 17 20  1  0  0  0  0
 18 19  2  0  0  0  0
 19 17  1  0  0  0  0
 20 21  1  0  0  0  0
 22  1  1  0  0  0  0
 23 22  1  0  0  0  0
 24 28  1  0  0  0  0
 25 33  1  0  0  0  0
 26 34  2  0  0  0  0
 26 25  1  0  0  0  0
 27 25  1  0  0  0  0
 27 30  1  0  0  0  0
 29 33  1  0  0  0  0
 29 31  1  0  0  0  0
 30 32  1  0  0  0  0
 31 22  1  0  0  0  0
 31 28  2  0  0  0  0
 32 24  1  0  0  0  0
 33 24  1  0  0  0  0
 34 29  1  0  0  0  0
 36 37  1  0  0  0  0
 36 40  1  0  0  0  0
 37 38  2  0  0  0  0
 39 40  1  0  0  0  0
 40 35  2  0  0  0  0
 41 30  1  0  0  0  0
 41 37  1  0  0  0  0
M  END
>  <MODEL>
4

>  <REMARK>
 VINA RESULT:      -8.6      1.450      2.272
  Name = 
  9 active torsions:
  status: ('A' for Active; 'I' for Inactive)
    1  A    between atoms: C_4  and  C_6
    2  A    between atoms: C_6  and  C_31
    3  A    between atoms: C_7  and  C_13
    4  A    between atoms: C_10  and  C_26
    5  A    between atoms: C_11  and  C_25
    6  A    between atoms: C_11  and  C_38
    7  A    between atoms: C_25  and  C_26
    8  A    between atoms: C_26  and  C_40
    9  A    between atoms: C_27  and  N_41
                            x       y       z     vdW  Elec       q    Type
                         _______ _______ _______ _____ _____    ______ ____

>  <TORSDO>
F 9

$$$$
=
 OpenBabel11042412353D

 41 46  0  0  1  0  0  0  0  0999 V2000
  186.8760  178.4250  141.1760 C   0  0  0  0  0  3  0  0  0  0  0  0
  186.8670  177.6140  142.2310 C   0  0  0  0  0  3  0  0  0  0  0  0
  187.8300  177.4800  145.8210 C   0  0  0  0  0  0  0  0  0  0  0  0
  187.0400  177.0540  144.6080 C   0  0  2  0  0  3  0  0  0  0  0  0
  186.9270  178.1830  143.6050 C   0  0  2  0  0  3  0  0  0  0  0  0
  189.8240  176.9490  147.2790 C   0  0  0  0  0  2  0  0  0  0  0  0
  185.3060  179.1280  147.7290 O   0  0  0  0  0  0  0  0  0  0  0  0
  185.9160  178.7140  146.7050 C   0  0  0  0  0  0  0  0  0  0  0  0
  185.6940  177.7530  144.3780 C   0  0  2  0  0  3  0  0  0  0  0  0
  189.2660  177.0260  145.8630 C   0  0  0  0  0  2  0  0  0  0  0  0
  189.5290  178.2540  147.9950 C   0  0  0  0  0  2  0  0  0  0  0  0
  187.2850  178.1990  146.8280 C   0  0  0  0  0  0  0  0  0  0  0  0
  188.0190  178.4160  148.1310 C   0  0  0  0  0  2  0  0  0  0  0  0
  185.3130  178.8830  145.3400 C   0  0  1  0  0  3  0  0  0  0  0  0
  183.7950  179.0030  145.4080 C   0  0  0  0  0  2  0  0  0  0  0  0
  183.2600  179.6790  144.1560 C   0  0  0  0  0  2  0  0  0  0  0  0
  182.5840  178.6620  143.2460 C   0  0  1  0  0  3  0  0  0  0  0  0
  180.7640  180.1290  142.8470 O   0  0  0  0  0  0  0  0  0  0  0  0
  181.1310  178.9920  143.1060 C   0  0  0  0  0  3  0  0  0  0  0  0
  183.2420  178.6290  141.8720 C   0  0  0  0  0  2  0  0  0  0  0  0
  182.3460  177.9410  140.8600 C   0  0  0  0  0  1  0  0  0  0  0  0
  186.8170  177.8770  139.7850 C   0  0  1  0  0  3  0  0  0  0  0  0
  185.7890  178.6260  138.9550 C   0  0  0  0  0  1  0  0  0  0  0  0
  189.8010  177.8830  137.5790 C   0  0  2  0  0  3  0  0  0  0  0  0
  191.3540  177.1460  139.4090 C   0  0  1  0  0  3  0  0  0  0  0  0
  190.9900  176.7510  140.6870 C   0  0  0  0  0  3  0  0  0  0  0  0
  192.3180  176.4850  138.5350 C   0  0  0  0  0  2  0  0  0  0  0  0
  188.3540  177.9230  137.8480 N   0  0  0  0  0  0  0  0  0  0  0  0
  189.4320  177.9290  139.8230 C   0  0  2  0  0  3  0  0  0  0  0  0
  191.9800  176.2250  137.2680 C   0  0  2  0  0  3  0  0  0  0  0  0
  188.1600  177.9590  139.1370 C   0  0  0  0  0  0  0  0  0  0  0  0
  190.2300  176.3050  136.7470 S   0  0  0  0  0  0  0  0  0  0  0  0
  190.3810  177.9110  138.9110 N   0  0  2  0  0  0  0  0  0  0  0  0
  189.7430  177.2320  140.9360 N   0  0  0  0  0  0  0  0  0  0  0  0
  195.6140  172.2790  136.5980 O   0  0  0  0  0  0  0  0  0  0  0  0
  194.8560  174.2860  135.6520 N   0  0  0  0  0  2  0  0  0  0  0  0
  193.7980  174.5550  136.5790 C   0  0  0  0  0  0  0  0  0  0  0  0
  193.5650  173.7610  137.5290 O   0  0  0  0  0  0  0  0  0  0  0  0
  196.7910  173.0070  134.6710 C   0  0  0  0  0  1  0  0  0  0  0  0
  195.7290  173.1530  135.6990 C   0  0  0  0  0  0  0  0  0  0  0  0
  192.9970  175.7270  136.3900 N   0  0  0  0  0  2  0  0  0  0  0  0
  1  2  2  0  0  0  0
  3 10  1  0  0  0  0
  3 12  2  0  0  0  0
  4  3  1  1  0  0  0
  5  2  1  6  0  0  0
  5  9  1  0  0  0  0
  5  4  1  0  0  0  0
  6 11  1  0  0  0  0
  8 12  1  0  0  0  0
  8  7  2  0  0  0  0
  9  4  1  0  0  0  0
  9 14  1  0  0  0  0
 10  6  1  0  0  0  0
 11 13  1  0  0  0  0
 12 13  1  0  0  0  0
 14 15  1  0  0  0  0
 14  8  1  0  0  0  0
 16 15  1  0  0  0  0
 17 16  1  0  0  0  0
 18 19  2  0  0  0  0
 19 17  1  0  0  0  0
 20 17  1  0  0  0  0
 21 20  1  0  0  0  0
 22  1  1  0  0  0  0
 23 22  1  0  0  0  0
 24 28  1  0  0  0  0
 24 33  1  0  0  0  0
 25 26  1  0  0  0  0
 26 34  2  0  0  0  0
 27 25  1  0  0  0  0
 28 31  2  0  0  0  0
 29 34  1  0  0  0  0
 30 27  1  0  0  0  0
 31 22  1  0  0  0  0
 31 29  1  0  0  0  0
 32 30  1  0  0  0  0
 32 24  1  0  0  0  0
 33 25  1  0  0  0  0
 33 29  1  0  0  0  0
 36 40  1  0  0  0  0
 36 37  1  0  0  0  0
 37 38  2  0  0  0  0
 39 40  1  0  0  0  0
 40 35  2  0  0  0  0
 41 37  1  0  0  0  0
 41 30  1  0  0  0  0
M  END
>  <MODEL>
5

>  <REMARK>
 VINA RESULT:      -8.2      1.820      2.681
  Name = 
  9 active torsions:
  status: ('A' for Active; 'I' for Inactive)
    1  A    between atoms: C_4  and  C_6
    2  A    between atoms: C_6  and  C_31
    3  A    between atoms: C_7  and  C_13
    4  A    between atoms: C_10  and  C_26
    5  A    between atoms: C_11  and  C_25
    6  A    between atoms: C_11  and  C_38
    7  A    between atoms: C_25  and  C_26
    8  A    between atoms: C_26  and  C_40
    9  A    between atoms: C_27  and  N_41
                            x       y       z     vdW  Elec       q    Type
                         _______ _______ _______ _____ _____    ______ ____

>  <TORSDO>
F 9

$$$$
=
 OpenBabel11042412353D

 41 46  0  0  1  0  0  0  0  0999 V2000
  188.0350  177.8680  139.6570 C   0  0  0  0  0  3  0  0  0  0  0  0
  188.7570  178.4670  140.6000 C   0  0  0  0  0  3  0  0  0  0  0  0
  188.4960  177.4550  144.1690 C   0  0  0  0  0  0  0  0  0  0  0  0
  188.2920  177.2720  142.6860 C   0  0  2  0  0  3  0  0  0  0  0  0
  188.2090  178.6080  141.9770 C   0  0  2  0  0  3  0  0  0  0  0  0
  189.9710  176.8790  146.1380 C   0  0  0  0  0  2  0  0  0  0  0  0
  185.1410  177.9980  145.2540 O   0  0  0  0  0  0  0  0  0  0  0  0
  186.1400  178.0180  144.4830 C   0  0  0  0  0  0  0  0  0  0  0  0
  186.9580  177.7600  142.1060 C   0  0  2  0  0  3  0  0  0  0  0  0
  189.9060  177.2690  144.6670 C   0  0  0  0  0  2  0  0  0  0  0  0
  189.1160  177.8420  146.9410 C   0  0  0  0  0  2  0  0  0  0  0  0
  187.4790  177.7380  145.0140 C   0  0  0  0  0  0  0  0  0  0  0  0
  187.6610  177.6880  146.5130 C   0  0  0  0  0  2  0  0  0  0  0  0
  185.9920  178.4710  143.0590 C   0  0  1  0  0  3  0  0  0  0  0  0
  184.5620  178.2970  142.5590 C   0  0  0  0  0  2  0  0  0  0  0  0
  184.5390  178.1960  141.0430 C   0  0  0  0  0  2  0  0  0  0  0  0
  183.2840  178.8510  140.4820 C   0  0  1  0  0  3  0  0  0  0  0  0
  184.2400  180.4470  139.0120 O   0  0  0  0  0  0  0  0  0  0  0  0
  183.5720  179.4300  139.1330 C   0  0  0  0  0  3  0  0  0  0  0  0
  182.1390  177.8500  140.3820 C   0  0  0  0  0  2  0  0  0  0  0  0
  182.6250  176.5270  139.8230 C   0  0  0  0  0  1  0  0  0  0  0  0
  188.5630  177.7150  138.2660 C   0  0  1  0  0  3  0  0  0  0  0  0
  189.0820  179.0420  137.7380 C   0  0  0  0  0  1  0  0  0  0  0  0
  191.6910  175.7200  138.3400 C   0  0  2  0  0  3  0  0  0  0  0  0
  190.9230  174.1500  136.5380 C   0  0  1  0  0  3  0  0  0  0  0  0
  189.7680  174.2710  135.7780 C   0  0  0  0  0  3  0  0  0  0  0  0
  192.2550  173.8160  136.0460 C   0  0  0  0  0  2  0  0  0  0  0  0
  190.8610  176.8920  138.6630 N   0  0  0  0  0  0  0  0  0  0  0  0
  189.5710  175.4010  137.5810 C   0  0  2  0  0  3  0  0  0  0  0  0
  193.2960  174.5680  136.4190 C   0  0  2  0  0  3  0  0  0  0  0  0
  189.6490  176.6890  138.2310 C   0  0  0  0  0  0  0  0  0  0  0  0
  193.0240  176.2080  137.1770 S   0  0  0  0  0  0  0  0  0  0  0  0
  190.7550  174.8320  137.6710 N   0  0  2  0  0  0  0  0  0  0  0  0
  188.9160  175.0990  136.4400 N   0  0  0  0  0  0  0  0  0  0  0  0
  197.1260  170.9200  137.5420 O   0  0  0  0  0  0  0  0  0  0  0  0
  196.6930  172.8150  136.2290 N   0  0  0  0  0  2  0  0  0  0  0  0
  195.3370  173.0310  136.6350 C   0  0  0  0  0  0  0  0  0  0  0  0
  194.7890  172.2600  137.4680 O   0  0  0  0  0  0  0  0  0  0  0  0
  198.9330  171.6650  136.1970 C   0  0  0  0  0  1  0  0  0  0  0  0
  197.5400  171.7630  136.7020 C   0  0  0  0  0  0  0  0  0  0  0  0
  194.6100  174.1220  136.0580 N   0  0  0  0  0  2  0  0  0  0  0  0
  1  2  2  0  0  0  0
  3 10  1  0  0  0  0
  3 12  2  0  0  0  0
  4  3  1  1  0  0  0
  5  2  1  6  0  0  0
  5  9  1  0  0  0  0
  5  4  1  0  0  0  0
  6 11  1  0  0  0  0
  8 12  1  0  0  0  0
  8  7  2  0  0  0  0
  9  4  1  0  0  0  0
  9 14  1  0  0  0  0
 10  6  1  0  0  0  0
 12 13  1  0  0  0  0
 13 11  1  0  0  0  0
 14  8  1  0  0  0  0
 15 14  1  0  0  0  0
 16 15  1  0  0  0  0
 17 16  1  0  0  0  0
 18 19  2  0  0  0  0
 19 17  1  0  0  0  0
 20 17  1  0  0  0  0
 21 20  1  0  0  0  0
 22  1  1  0  0  0  0
 23 22  1  0  0  0  0
 24 28  1  0  0  0  0
 25 33  1  0  0  0  0
 26 34  2  0  0  0  0
 26 25  1  0  0  0  0
 27 30  1  0  0  0  0
 27 25  1  0  0  0  0
 29 33  1  0  0  0  0
 29 31  1  0  0  0  0
 30 32  1  0  0  0  0
 31 22  1  0  0  0  0
 31 28  2  0  0  0  0
 32 24  1  0  0  0  0
 33 24  1  0  0  0  0
 34 29  1  0  0  0  0
 36 37  1  0  0  0  0
 36 40  1  0  0  0  0
 37 38  2  0  0  0  0
 39 40  1  0  0  0  0
 40 35  2  0  0  0  0
 41 30  1  0  0  0  0
 41 37  1  0  0  0  0
M  END
>  <MODEL>
6

>  <REMARK>
 VINA RESULT:      -8.1      1.675      2.240
  Name = 
  9 active torsions:
  status: ('A' for Active; 'I' for Inactive)
    1  A    between atoms: C_4  and  C_6
    2  A    between atoms: C_6  and  C_31
    3  A    between atoms: C_7  and  C_13
    4  A    between atoms: C_10  and  C_26
    5  A    between atoms: C_11  and  C_25
    6  A    between atoms: C_11  and  C_38
    7  A    between atoms: C_25  and  C_26
    8  A    between atoms: C_26  and  C_40
    9  A    between atoms: C_27  and  N_41
                            x       y       z     vdW  Elec       q    Type
                         _______ _______ _______ _____ _____    ______ ____

>  <TORSDO>
F 9

$$$$
=
 OpenBabel11042412353D

 41 46  0  0  1  0  0  0  0  0999 V2000
  186.0430  177.9790  142.5530 C   0  0  0  0  0  3  0  0  0  0  0  0
  186.8990  178.9820  142.3730 C   0  0  0  0  0  3  0  0  0  0  0  0
  189.2200  177.1810  140.0920 C   0  0  0  0  0  0  0  0  0  0  0  0
  188.2920  177.2930  141.2760 C   0  0  2  0  0  3  0  0  0  0  0  0
  188.2480  178.7130  141.8020 C   0  0  2  0  0  3  0  0  0  0  0  0
  189.4060  176.4720  137.6740 C   0  0  0  0  0  2  0  0  0  0  0  0
  192.3710  176.8380  141.7280 O   0  0  0  0  0  0  0  0  0  0  0  0
  191.1790  177.2120  141.5500 C   0  0  0  0  0  0  0  0  0  0  0  0
  188.9330  177.6390  142.6260 C   0  0  2  0  0  3  0  0  0  0  0  0
  188.5580  177.1560  138.7380 C   0  0  0  0  0  2  0  0  0  0  0  0
  190.8050  177.0580  137.7070 C   0  0  0  0  0  2  0  0  0  0  0  0
  190.5610  177.0770  140.2250 C   0  0  0  0  0  0  0  0  0  0  0  0
  191.4470  176.7340  139.0510 C   0  0  0  0  0  2  0  0  0  0  0  0
  190.4370  177.9310  142.6390 C   0  0  1  0  0  3  0  0  0  0  0  0
  191.0070  177.6080  144.0160 C   0  0  0  0  0  2  0  0  0  0  0  0
  190.0970  178.1470  145.1060 C   0  0  0  0  0  2  0  0  0  0  0  0
  189.9780  177.1450  146.2480 C   0  0  1  0  0  3  0  0  0  0  0  0
  191.5410  177.1240  148.0310 O   0  0  0  0  0  0  0  0  0  0  0  0
  191.3260  176.8990  146.8490 C   0  0  0  0  0  3  0  0  0  0  0  0
  189.0160  177.6430  147.3200 C   0  0  0  0  0  2  0  0  0  0  0  0
  187.5770  177.5030  146.8620 C   0  0  0  0  0  1  0  0  0  0  0  0
  184.6830  178.2240  143.1250 C   0  0  1  0  0  3  0  0  0  0  0  0
  184.6660  179.5050  143.9420 C   0  0  0  0  0  1  0  0  0  0  0  0
  182.7140  178.5780  140.0000 C   0  0  2  0  0  3  0  0  0  0  0  0
  180.6780  179.4400  141.1900 C   0  0  1  0  0  3  0  0  0  0  0  0
  180.5890  179.7700  142.5340 C   0  0  0  0  0  3  0  0  0  0  0  0
  180.1620  180.2170  140.0680 C   0  0  0  0  0  2  0  0  0  0  0  0
  183.9550  178.3790  140.7670 N   0  0  0  0  0  0  0  0  0  0  0  0
  182.2390  178.4500  142.2210 C   0  0  2  0  0  3  0  0  0  0  0  0
  180.9590  180.4640  139.0230 C   0  0  2  0  0  3  0  0  0  0  0  0
  183.6650  178.2970  142.0350 C   0  0  0  0  0  0  0  0  0  0  0  0
  182.7630  180.2080  139.1590 S   0  0  0  0  0  0  0  0  0  0  0  0
  181.6910  178.5860  141.0310 N   0  0  2  0  0  0  0  0  0  0  0  0
  181.6120  179.1540  143.1860 N   0  0  0  0  0  0  0  0  0  0  0  0
  180.7220  185.0700  136.2020 O   0  0  0  0  0  0  0  0  0  0  0  0
  179.8140  182.9100  136.3120 N   0  0  0  0  0  2  0  0  0  0  0  0
  180.5820  182.4290  137.4210 C   0  0  0  0  0  0  0  0  0  0  0  0
  181.4340  183.1720  137.9780 O   0  0  0  0  0  0  0  0  0  0  0  0
  179.0470  184.5830  134.5940 C   0  0  0  0  0  1  0  0  0  0  0  0
  179.9130  184.2200  135.7430 C   0  0  0  0  0  0  0  0  0  0  0  0
  180.3790  181.0840  137.8680 N   0  0  0  0  0  2  0  0  0  0  0  0
  1 22  1  0  0  0  0
  2  1  2  0  0  0  0
  3 12  2  0  0  0  0
  4  3  1  6  0  0  0
  4  5  1  0  0  0  0
  4  9  1  0  0  0  0
  5  2  1  1  0  0  0
  5  9  1  0  0  0  0
  6 11  1  0  0  0  0
  6 10  1  0  0  0  0
  8  7  2  0  0  0  0
  8 14  1  0  0  0  0
  9 14  1  0  0  0  0
 10  3  1  0  0  0  0
 11 13  1  0  0  0  0
 12  8  1  0  0  0  0
 13 12  1  0  0  0  0
 14 15  1  0  0  0  0
 15 16  1  0  0  0  0
 16 17  1  0  0  0  0
 17 19  1  0  0  0  0
 17 20  1  0  0  0  0
 19 18  2  0  0  0  0
 21 20  1  0  0  0  0
 22 23  1  0  0  0  0
 24 28  1  0  0  0  0
 24 33  1  0  0  0  0
 25 26  1  0  0  0  0
 26 34  2  0  0  0  0
 27 25  1  0  0  0  0
 28 31  2  0  0  0  0
 29 34  1  0  0  0  0
 30 32  1  0  0  0  0
 30 27  1  0  0  0  0
 31 29  1  0  0  0  0
 31 22  1  0  0  0  0
 32 24  1  0  0  0  0
 33 25  1  0  0  0  0
 33 29  1  0  0  0  0
 36 37  1  0  0  0  0
 37 41  1  0  0  0  0
 37 38  2  0  0  0  0
 39 40  1  0  0  0  0
 40 35  2  0  0  0  0
 40 36  1  0  0  0  0
 41 30  1  0  0  0  0
M  END
>  <MODEL>
7

>  <REMARK>
 VINA RESULT:      -8.0      5.237     10.793
  Name = 
  9 active torsions:
  status: ('A' for Active; 'I' for Inactive)
    1  A    between atoms: C_4  and  C_6
    2  A    between atoms: C_6  and  C_31
    3  A    between atoms: C_7  and  C_13
    4  A    between atoms: C_10  and  C_26
    5  A    between atoms: C_11  and  C_25
    6  A    between atoms: C_11  and  C_38
    7  A    between atoms: C_25  and  C_26
    8  A    between atoms: C_26  and  C_40
    9  A    between atoms: C_27  and  N_41
                            x       y       z     vdW  Elec       q    Type
                         _______ _______ _______ _____ _____    ______ ____

>  <TORSDO>
F 9

$$$$
=
 OpenBabel11042412353D

 41 46  0  0  1  0  0  0  0  0999 V2000
  185.1610  178.1900  140.0450 C   0  0  0  0  0  3  0  0  0  0  0  0
  184.9530  179.2920  140.7600 C   0  0  0  0  0  3  0  0  0  0  0  0
  186.5530  177.8520  143.7930 C   0  0  0  0  0  0  0  0  0  0  0  0
  185.5280  177.8960  142.6880 C   0  0  2  0  0  3  0  0  0  0  0  0
  185.3020  179.3150  142.2080 C   0  0  2  0  0  3  0  0  0  0  0  0
  188.7450  176.8410  144.5390 C   0  0  0  0  0  2  0  0  0  0  0  0
  184.5350  178.6540  146.6240 O   0  0  0  0  0  0  0  0  0  0  0  0
  184.9180  178.6540  145.4210 C   0  0  0  0  0  0  0  0  0  0  0  0
  184.2090  178.6170  142.9960 C   0  0  2  0  0  3  0  0  0  0  0  0
  187.9410  177.4300  143.3860 C   0  0  0  0  0  2  0  0  0  0  0  0
  188.6710  177.7860  145.7240 C   0  0  0  0  0  2  0  0  0  0  0  0
  186.2510  178.1430  145.0780 C   0  0  0  0  0  0  0  0  0  0  0  0
  187.2250  177.8710  146.2000 C   0  0  0  0  0  2  0  0  0  0  0  0
  184.0830  179.3080  144.3570 C   0  0  1  0  0  3  0  0  0  0  0  0
  182.6150  179.3790  144.7590 C   0  0  0  0  0  2  0  0  0  0  0  0
  181.7560  178.6120  143.7680 C   0  0  0  0  0  2  0  0  0  0  0  0
  181.0280  179.5720  142.8360 C   0  0  1  0  0  3  0  0  0  0  0  0
  181.4360  179.1060  140.5470 O   0  0  0  0  0  0  0  0  0  0  0  0
  180.7430  178.8960  141.5320 C   0  0  0  0  0  3  0  0  0  0  0  0
  179.7270  180.0640  143.4590 C   0  0  0  0  0  2  0  0  0  0  0  0
  179.1170  178.9970  144.3480 C   0  0  0  0  0  1  0  0  0  0  0  0
  184.8180  178.1420  138.5890 C   0  0  1  0  0  3  0  0  0  0  0  0
  184.0150  179.3670  138.1860 C   0  0  0  0  0  1  0  0  0  0  0  0
  187.5540  177.3770  136.2040 C   0  0  2  0  0  3  0  0  0  0  0  0
  189.3640  177.9530  137.8450 C   0  0  1  0  0  3  0  0  0  0  0  0
  189.1910  178.2570  139.1870 C   0  0  0  0  0  3  0  0  0  0  0  0
  190.3750  177.0670  137.2780 C   0  0  0  0  0  2  0  0  0  0  0  0
  186.1560  177.3560  136.6650 N   0  0  0  0  0  0  0  0  0  0  0  0
  187.3580  178.5640  138.1330 C   0  0  2  0  0  3  0  0  0  0  0  0
  190.0020  176.1260  136.4040 C   0  0  2  0  0  3  0  0  0  0  0  0
  186.0590  178.0480  137.7650 C   0  0  0  0  0  0  0  0  0  0  0  0
  188.2390  175.6740  136.2330 S   0  0  0  0  0  0  0  0  0  0  0  0
  188.2170  178.1910  137.2070 N   0  0  2  0  0  0  0  0  0  0  0  0
  187.8940  178.6210  139.3710 N   0  0  0  0  0  0  0  0  0  0  0  0
  194.0490  172.6270  137.1840 O   0  0  0  0  0  0  0  0  0  0  0  0
  193.0130  173.9310  135.5330 N   0  0  0  0  0  2  0  0  0  0  0  0
  191.9740  174.4890  136.3440 C   0  0  0  0  0  0  0  0  0  0  0  0
  191.8810  174.1830  137.5630 O   0  0  0  0  0  0  0  0  0  0  0  0
  195.0400  172.5230  135.0310 C   0  0  0  0  0  1  0  0  0  0  0  0
  194.0170  173.0180  135.9870 C   0  0  0  0  0  0  0  0  0  0  0  0
  191.0300  175.3810  135.7390 N   0  0  0  0  0  2  0  0  0  0  0  0
  1  2  2  0  0  0  0
  3 12  2  0  0  0  0
  4  9  1  0  0  0  0
  4  3  1  1  0  0  0
  5  2  1  6  0  0  0
  5  4  1  0  0  0  0
  5  9  1  0  0  0  0
  6 11  1  0  0  0  0
  8  7  2  0  0  0  0
  9 14  1  0  0  0  0
 10  3  1  0  0  0  0
 10  6  1  0  0  0  0
 11 13  1  0  0  0  0
 12  8  1  0  0  0  0
 12 13  1  0  0  0  0
 14 15  1  0  0  0  0
 14  8  1  0  0  0  0
 16 15  1  0  0  0  0
 17 20  1  0  0  0  0
 17 16  1  0  0  0  0
 18 19  2  0  0  0  0
 19 17  1  0  0  0  0
 20 21  1  0  0  0  0
 22  1  1  0  0  0  0
 23 22  1  0  0  0  0
 24 32  1  0  0  0  0
 24 28  1  0  0  0  0
 24 33  1  0  0  0  0
 25 26  1  0  0  0  0
 26 34  2  0  0  0  0
 27 25  1  0  0  0  0
 28 31  2  0  0  0  0
 29 34  1  0  0  0  0
 30 27  1  0  0  0  0
 31 29  1  0  0  0  0
 31 22  1  0  0  0  0
 32 30  1  0  0  0  0
 33 25  1  0  0  0  0
 33 29  1  0  0  0  0
 36 40  1  0  0  0  0
 36 37  1  0  0  0  0
 37 38  2  0  0  0  0
 39 40  1  0  0  0  0
 40 35  2  0  0  0  0
 41 37  1  0  0  0  0
 41 30  1  0  0  0  0
M  END
>  <MODEL>
8

>  <REMARK>
 VINA RESULT:      -7.9      2.282      3.975
  Name = 
  9 active torsions:
  status: ('A' for Active; 'I' for Inactive)
    1  A    between atoms: C_4  and  C_6
    2  A    between atoms: C_6  and  C_31
    3  A    between atoms: C_7  and  C_13
    4  A    between atoms: C_10  and  C_26
    5  A    between atoms: C_11  and  C_25
    6  A    between atoms: C_11  and  C_38
    7  A    between atoms: C_25  and  C_26
    8  A    between atoms: C_26  and  C_40
    9  A    between atoms: C_27  and  N_41
                            x       y       z     vdW  Elec       q    Type
                         _______ _______ _______ _____ _____    ______ ____

>  <TORSDO>
F 9

$$$$
=
 OpenBabel11042412353D

 41 46  0  0  1  0  0  0  0  0999 V2000
  185.6970  178.1780  143.7830 C   0  0  0  0  0  3  0  0  0  0  0  0
  186.1230  177.5960  144.9010 C   0  0  0  0  0  3  0  0  0  0  0  0
  189.6680  177.3390  145.9930 C   0  0  0  0  0  0  0  0  0  0  0  0
  188.5230  177.9540  145.2290 C   0  0  2  0  0  3  0  0  0  0  0  0
  187.4520  176.9250  144.9290 C   0  0  2  0  0  3  0  0  0  0  0  0
  191.0710  177.4910  148.0900 C   0  0  0  0  0  2  0  0  0  0  0  0
  191.5680  175.9080  143.3350 O   0  0  0  0  0  0  0  0  0  0  0  0
  190.5490  176.3100  143.9610 C   0  0  0  0  0  0  0  0  0  0  0  0
  188.3040  177.4590  143.7940 C   0  0  2  0  0  3  0  0  0  0  0  0
  189.6790  177.5930  147.4790 C   0  0  0  0  0  2  0  0  0  0  0  0
  191.7100  176.1890  147.6440 C   0  0  0  0  0  2  0  0  0  0  0  0
  190.6470  176.6280  145.3910 C   0  0  0  0  0  0  0  0  0  0  0  0
  191.8990  176.2210  146.1320 C   0  0  0  0  0  2  0  0  0  0  0  0
  189.2030  176.3230  143.2940 C   0  0  1  0  0  3  0  0  0  0  0  0
  189.3280  176.4010  141.7770 C   0  0  0  0  0  2  0  0  0  0  0  0
  189.1640  177.8360  141.3050 C   0  0  0  0  0  2  0  0  0  0  0  0
  189.8900  178.0510  139.9830 C   0  0  1  0  0  3  0  0  0  0  0  0
  192.1570  177.8580  140.6520 O   0  0  0  0  0  0  0  0  0  0  0  0
  191.2250  177.3780  140.0220 C   0  0  0  0  0  3  0  0  0  0  0  0
  189.0730  177.5140  138.8130 C   0  0  0  0  0  2  0  0  0  0  0  0
  189.9620  176.7840  137.8240 C   0  0  0  0  0  1  0  0  0  0  0  0
  184.3650  178.8580  143.7290 C   0  0  1  0  0  3  0  0  0  0  0  0
  184.4840  180.3090  144.1630 C   0  0  0  0  0  1  0  0  0  0  0  0
  182.4820  178.2020  140.6000 C   0  0  2  0  0  3  0  0  0  0  0  0
  184.5100  178.4380  139.1400 C   0  0  1  0  0  3  0  0  0  0  0  0
  185.8210  178.5830  139.5700 C   0  0  0  0  0  3  0  0  0  0  0  0
  184.0370  177.5590  138.0760 C   0  0  0  0  0  2  0  0  0  0  0  0
  182.6520  178.2240  142.0630 N   0  0  0  0  0  0  0  0  0  0  0  0
  184.4790  179.1500  141.1330 C   0  0  2  0  0  3  0  0  0  0  0  0
  182.9870  176.7630  138.3040 C   0  0  0  0  0  0  0  0  0  0  0  0
  183.7960  178.7780  142.3510 C   0  0  0  0  0  0  0  0  0  0  0  0
  182.4130  176.4640  140.0130 S   0  0  0  0  0  0  0  0  0  0  0  0
  183.6980  178.8350  140.1210 N   0  0  2  0  0  0  0  0  0  0  0  0
  185.7950  179.0130  140.8600 N   0  0  0  0  0  0  0  0  0  0  0  0
  179.4670  172.8950  136.9360 O   0  0  0  0  0  0  0  0  0  0  0  0
  181.1170  174.3050  136.0470 N   0  0  0  0  0  2  0  0  0  0  0  0
  181.4450  175.0090  137.2490 C   0  0  0  0  0  0  0  0  0  0  0  0
  180.8500  174.7430  138.3270 O   0  0  0  0  0  0  0  0  0  0  0  0
  179.9050  172.6190  134.6210 C   0  0  0  0  0  1  0  0  0  0  0  0
  180.1360  173.2680  135.9360 C   0  0  0  0  0  0  0  0  0  0  0  0
  182.4420  176.0360  137.1970 N   0  0  0  0  0  0  0  0  0  0  0  0
  1  2  2  0  0  0  0
  3 10  1  0  0  0  0
  4  3  1  1  0  0  0
  5  2  1  6  0  0  0
  5  4  1  0  0  0  0
  7  8  2  0  0  0  0
  8 12  1  0  0  0  0
  9  5  1  0  0  0  0
  9  4  1  0  0  0  0
 10  6  1  0  0  0  0
 11  6  1  0  0  0  0
 12  3  2  0  0  0  0
 12 13  1  0  0  0  0
 13 11  1  0  0  0  0
 14  9  1  0  0  0  0
 14  8  1  0  0  0  0
 15 14  1  0  0  0  0
 16 15  1  0  0  0  0
 17 19  1  0  0  0  0
 17 16  1  0  0  0  0
 19 18  2  0  0  0  0
 20 17  1  0  0  0  0
 21 20  1  0  0  0  0
 22  1  1  0  0  0  0
 22 23  1  0  0  0  0
 24 28  1  0  0  0  0
 25 26  1  0  0  0  0
 25 33  1  0  0  0  0
 26 34  2  0  0  0  0
 27 30  1  0  0  0  0
 27 25  1  0  0  0  0
 28 31  2  0  0  0  0
 29 31  1  0  0  0  0
 30 32  1  0  0  0  0
 31 22  1  0  0  0  0
 32 24  1  0  0  0  0
 33 24  1  0  0  0  0
 33 29  1  0  0  0  0
 34 29  1  0  0  0  0
 36 37  1  0  0  0  0
 37 38  2  0  0  0  0
 39 40  1  0  0  0  0
 40 36  1  0  0  0  0
 40 35  2  0  0  0  0
 41 37  1  0  0  0  0
 41 30  2  0  0  0  0
M  END
>  <MODEL>
9

>  <REMARK>
 VINA RESULT:      -7.8      4.933      8.850
  Name = 
  9 active torsions:
  status: ('A' for Active; 'I' for Inactive)
    1  A    between atoms: C_4  and  C_6
    2  A    between atoms: C_6  and  C_31
    3  A    between atoms: C_7  and  C_13
    4  A    between atoms: C_10  and  C_26
    5  A    between atoms: C_11  and  C_25
    6  A    between atoms: C_11  and  C_38
    7  A    between atoms: C_25  and  C_26
    8  A    between atoms: C_26  and  C_40
    9  A    between atoms: C_27  and  N_41
                            x       y       z     vdW  Elec       q    Type
                         _______ _______ _______ _____ _____    ______ ____

>  <TORSDO>
F 9

$$$$
