=
 OpenBabel11042410313D

 35 39  0  0  1  0  0  0  0  0999 V2000
  187.8130  177.3130  143.0250 C   0  0  1  0  0  3  0  0  0  0  0  0
  186.9600  177.7360  147.0150 C   0  0  0  0  0  3  0  0  0  0  0  0
  186.8220  178.0960  142.6030 C   0  0  0  0  0  0  0  0  0  0  0  0
  185.8390  178.2080  143.6860 C   0  0  0  0  0  0  0  0  0  0  0  0
  188.6510  177.1650  145.3090 C   0  0  0  0  0  0  0  0  0  0  0  0
  185.9530  177.7690  146.1290 C   0  0  0  0  0  3  0  0  0  0  0  0
  190.0600  176.5790  143.4170 O   0  0  0  0  0  0  0  0  0  0  0  0
  186.9000  178.9840  141.4070 C   0  0  0  0  0  1  0  0  0  0  0  0
  188.3800  177.5150  146.5960 C   0  0  0  0  0  0  0  0  0  0  0  0
  190.0380  177.1960  144.6940 C   0  0  0  0  0  2  0  0  0  0  0  0
  189.2330  177.3050  142.5200 C   0  0  1  0  0  3  0  0  0  0  0  0
  187.5260  176.7820  144.3810 C   0  0  1  0  0  3  0  0  0  0  0  0
  186.2800  177.5140  144.7250 C   0  0  2  0  0  3  0  0  0  0  0  0
  189.4340  177.7730  147.6080 C   0  0  0  0  0  0  0  0  0  0  0  0
  189.2540  178.6590  148.4840 O   0  0  0  0  0  0  0  0  0  0  0  0
  190.6370  177.0080  147.6430 N   0  0  0  0  0  1  0  0  0  0  0  0
  184.7820  179.1710  143.7710 N   0  0  0  0  0  2  0  0  0  0  0  0
  183.6660  179.1410  142.9190 N   0  0  0  0  0  2  0  0  0  0  0  0
  178.9400  179.2650  143.7560 C   0  0  0  0  0  3  0  0  0  0  0  0
  180.9340  179.9720  142.6810 N   0  0  0  0  0  0  0  0  0  0  0  0
  182.6020  178.5700  143.6390 N   0  0  0  0  0  2  0  0  0  0  0  0
  181.2570  179.0330  143.4960 C   0  0  0  0  0  0  0  0  0  0  0  0
  179.5110  180.2430  142.7340 C   0  0  0  0  0  3  0  0  0  0  0  0
  180.1330  178.4700  144.2690 C   0  0  0  0  0  2  0  0  0  0  0  0
  189.2910  176.6490  141.1500 C   0  0  0  0  0  2  0  0  0  0  0  0
  190.3240  177.3460  140.2840 C   0  0  0  0  0  2  0  0  0  0  0  0
  189.8900  177.3220  138.8280 C   0  0  2  0  0  3  0  0  0  0  0  0
  191.1670  175.6860  138.0440 C   0  0  0  0  0  1  0  0  0  0  0  0
  190.9950  177.0730  138.0080 O   0  0  0  0  0  0  0  0  0  0  0  0
  189.2850  178.6730  138.4760 C   0  0  0  0  0  2  0  0  0  0  0  0
  186.8000  178.4110  136.1320 C   0  0  0  0  0  2  0  0  0  0  0  0
  187.8030  179.1150  136.8130 O   0  0  0  0  0  0  0  0  0  0  0  0
  186.8750  176.9800  136.5790 C   0  0  0  0  0  2  0  0  0  0  0  0
  187.6930  177.0900  137.8230 C   0  0  0  0  0  2  0  0  0  0  0  0
  187.9080  178.5120  138.0320 N   0  0  0  0  0  0  0  0  0  0  0  0
  1  3  1  1  0  0  0
  1 12  1  0  0  0  0
  3  4  2  0  0  0  0
  4 17  1  0  0  0  0
  4 13  1  0  0  0  0
  5  9  2  0  0  0  0
  6  2  2  0  0  0  0
  7 10  1  0  0  0  0
  8  3  1  0  0  0  0
  9  2  1  0  0  0  0
  9 14  1  0  0  0  0
 10  5  1  0  0  0  0
 11 25  1  6  0  0  0
 11  1  1  0  0  0  0
 11  7  1  0  0  0  0
 12 13  1  0  0  0  0
 12  5  1  1  0  0  0
 13  6  1  1  0  0  0
 14 16  1  0  0  0  0
 14 15  2  0  0  0  0
 18 21  1  0  0  0  0
 18 17  1  0  0  0  0
 19 24  1  0  0  0  0
 20 23  1  0  0  0  0
 20 22  2  0  0  0  0
 22 21  1  0  0  0  0
 22 24  1  0  0  0  0
 23 19  2  0  0  0  0
 26 25  1  0  0  0  0
 27 30  1  6  0  0  0
 27 26  1  0  0  0  0
 29 28  1  0  0  0  0
 29 27  1  0  0  0  0
 31 33  1  0  0  0  0
 31 32  1  0  0  0  0
 32 35  1  0  0  0  0
 33 34  1  0  0  0  0
 34 35  1  0  0  0  0
 35 30  1  0  0  0  0
M  END
>  <MODEL>
1

>  <REMARK>
 VINA RESULT:      -8.7      0.000      0.000
  Name = 
  10 active torsions:
  status: ('A' for Active; 'I' for Inactive)
    1  A    between atoms: C_1  and  C_26
    2  A    between atoms: C_5  and  C_25
    3  A    between atoms: C_5  and  C_29
    4  A    between atoms: N_6  and  C_11
    5  A    between atoms: N_6  and  N_19
    6  A    between atoms: C_9  and  C_29
    7  A    between atoms: C_9  and  N_30
    8  A    between atoms: O_16  and  C_29
    9  A    between atoms: N_18  and  N_19
   10  A    between atoms: C_25  and  C_31
                            x       y       z     vdW  Elec       q    Type
                         _______ _______ _______ _____ _____    ______ ____

>  <TORSDO>
F 10

$$$$
=
 OpenBabel11042410313D

 35 39  0  0  1  0  0  0  0  0999 V2000
  187.9610  177.2940  142.9660 C   0  0  1  0  0  3  0  0  0  0  0  0
  187.0150  177.6610  146.9410 C   0  0  0  0  0  3  0  0  0  0  0  0
  186.9710  178.0720  142.5310 C   0  0  0  0  0  0  0  0  0  0  0  0
  185.9640  178.1620  143.5940 C   0  0  0  0  0  0  0  0  0  0  0  0
  188.7500  177.1270  145.2670 C   0  0  0  0  0  0  0  0  0  0  0  0
  186.0280  177.6940  146.0340 C   0  0  0  0  0  3  0  0  0  0  0  0
  190.2060  176.5780  143.4000 O   0  0  0  0  0  0  0  0  0  0  0  0
  187.0670  178.9750  141.3480 C   0  0  0  0  0  1  0  0  0  0  0  0
  188.4470  177.4590  146.5510 C   0  0  0  0  0  0  0  0  0  0  0  0
  190.1500  177.1790  144.6830 C   0  0  0  0  0  2  0  0  0  0  0  0
  189.3920  177.3060  142.4930 C   0  0  1  0  0  3  0  0  0  0  0  0
  187.6490  176.7440  144.3090 C   0  0  1  0  0  3  0  0  0  0  0  0
  186.3890  177.4590  144.6340 C   0  0  2  0  0  3  0  0  0  0  0  0
  189.4760  177.7150  147.5890 C   0  0  0  0  0  0  0  0  0  0  0  0
  189.2580  178.5730  148.4850 O   0  0  0  0  0  0  0  0  0  0  0  0
  190.6960  176.9780  147.6280 N   0  0  0  0  0  1  0  0  0  0  0  0
  184.8960  179.1120  143.6670 N   0  0  0  0  0  2  0  0  0  0  0  0
  183.7630  179.0380  142.8400 N   0  0  0  0  0  2  0  0  0  0  0  0
  179.0280  179.2660  143.5960 C   0  0  0  0  0  3  0  0  0  0  0  0
  181.0310  179.8050  142.4440 N   0  0  0  0  0  0  0  0  0  0  0  0
  182.6930  178.5820  143.6300 N   0  0  0  0  0  2  0  0  0  0  0  0
  181.3490  179.0090  143.4010 C   0  0  0  0  0  0  0  0  0  0  0  0
  179.6070  180.0730  142.4390 C   0  0  0  0  0  3  0  0  0  0  0  0
  180.2180  178.5690  144.2410 C   0  0  0  0  0  2  0  0  0  0  0  0
  189.4860  176.6670  141.1170 C   0  0  0  0  0  2  0  0  0  0  0  0
  190.7160  177.1820  140.3900 C   0  0  0  0  0  2  0  0  0  0  0  0
  190.3930  177.4270  138.9250 C   0  0  2  0  0  3  0  0  0  0  0  0
  188.6080  178.0460  137.7630 C   0  0  0  0  0  1  0  0  0  0  0  0
  189.4390  178.4430  138.8150 O   0  0  0  0  0  0  0  0  0  0  0  0
  189.8450  176.1410  138.3240 C   0  0  0  0  0  2  0  0  0  0  0  0
  191.4240  173.5560  136.7230 C   0  0  0  0  0  2  0  0  0  0  0  0
  190.3790  174.1000  137.4830 O   0  0  0  0  0  0  0  0  0  0  0  0
  192.2990  174.6950  136.2860 C   0  0  0  0  0  2  0  0  0  0  0  0
  191.8690  175.7850  137.2100 C   0  0  0  0  0  2  0  0  0  0  0  0
  190.9180  175.1770  138.1250 N   0  0  0  0  0  0  0  0  0  0  0  0
  1  3  1  1  0  0  0
  1 12  1  0  0  0  0
  3  4  2  0  0  0  0
  4 17  1  0  0  0  0
  4 13  1  0  0  0  0
  5  9  2  0  0  0  0
  6  2  2  0  0  0  0
  7 10  1  0  0  0  0
  8  3  1  0  0  0  0
  9  2  1  0  0  0  0
  9 14  1  0  0  0  0
 10  5  1  0  0  0  0
 11 25  1  6  0  0  0
 11  1  1  0  0  0  0
 11  7  1  0  0  0  0
 12 13  1  0  0  0  0
 12  5  1  1  0  0  0
 13  6  1  1  0  0  0
 14 16  1  0  0  0  0
 14 15  2  0  0  0  0
 18 21  1  0  0  0  0
 18 17  1  0  0  0  0
 19 24  1  0  0  0  0
 20 22  2  0  0  0  0
 22 21  1  0  0  0  0
 22 24  1  0  0  0  0
 23 20  1  0  0  0  0
 23 19  2  0  0  0  0
 26 25  1  0  0  0  0
 27 30  1  1  0  0  0
 27 26  1  0  0  0  0
 28 29  1  0  0  0  0
 29 27  1  0  0  0  0
 31 32  1  0  0  0  0
 32 35  1  0  0  0  0
 33 31  1  0  0  0  0
 33 34  1  0  0  0  0
 34 35  1  0  0  0  0
 35 30  1  0  0  0  0
M  END
>  <MODEL>
2

>  <REMARK>
 VINA RESULT:      -8.7      1.215      2.249
  Name = 
  10 active torsions:
  status: ('A' for Active; 'I' for Inactive)
    1  A    between atoms: C_1  and  C_26
    2  A    between atoms: C_5  and  C_25
    3  A    between atoms: C_5  and  C_29
    4  A    between atoms: N_6  and  C_11
    5  A    between atoms: N_6  and  N_19
    6  A    between atoms: C_9  and  C_29
    7  A    between atoms: C_9  and  N_30
    8  A    between atoms: O_16  and  C_29
    9  A    between atoms: N_18  and  N_19
   10  A    between atoms: C_25  and  C_31
                            x       y       z     vdW  Elec       q    Type
                         _______ _______ _______ _____ _____    ______ ____

>  <TORSDO>
F 10

$$$$
=
 OpenBabel11042410313D

 35 39  0  0  1  0  0  0  0  0999 V2000
  186.2420  178.5790  142.4350 C   0  0  1  0  0  3  0  0  0  0  0  0
  182.2040  178.9820  143.0340 C   0  0  0  0  0  3  0  0  0  0  0  0
  186.4880  178.0200  143.6180 C   0  0  0  0  0  0  0  0  0  0  0  0
  185.3590  178.3220  144.5050 C   0  0  0  0  0  0  0  0  0  0  0  0
  184.0510  178.8470  141.4010 C   0  0  0  0  0  0  0  0  0  0  0  0
  183.0290  179.0750  144.0880 C   0  0  0  0  0  3  0  0  0  0  0  0
  186.0710  178.7700  140.0520 O   0  0  0  0  0  0  0  0  0  0  0  0
  187.5240  176.9740  143.8570 C   0  0  0  0  0  1  0  0  0  0  0  0
  182.7140  178.7710  141.6420 C   0  0  0  0  0  0  0  0  0  0  0  0
  184.7110  178.3750  140.1180 C   0  0  0  0  0  2  0  0  0  0  0  0
  186.8010  178.1530  141.1020 C   0  0  1  0  0  3  0  0  0  0  0  0
  184.9810  179.3610  142.4710 C   0  0  1  0  0  3  0  0  0  0  0  0
  184.4680  179.0270  143.8250 C   0  0  2  0  0  3  0  0  0  0  0  0
  181.7190  178.4080  140.6030 C   0  0  0  0  0  0  0  0  0  0  0  0
  181.0940  179.3160  139.9930 O   0  0  0  0  0  0  0  0  0  0  0  0
  181.4810  177.0490  140.2400 N   0  0  0  0  0  1  0  0  0  0  0  0
  185.0730  177.6820  145.7540 N   0  0  0  0  0  2  0  0  0  0  0  0
  184.8110  178.4060  146.9290 N   0  0  0  0  0  2  0  0  0  0  0  0
  189.4390  177.8140  148.0620 C   0  0  0  0  0  3  0  0  0  0  0  0
  187.2930  177.0520  147.3940 N   0  0  0  0  0  0  0  0  0  0  0  0
  186.0040  179.0500  147.3020 N   0  0  0  0  0  2  0  0  0  0  0  0
  187.2130  178.3260  147.5390 C   0  0  0  0  0  0  0  0  0  0  0  0
  188.6280  176.5750  147.6970 C   0  0  0  0  0  3  0  0  0  0  0  0
  188.4650  178.9800  147.9650 C   0  0  0  0  0  2  0  0  0  0  0  0
  188.2620  178.5620  140.9990 C   0  0  0  0  0  2  0  0  0  0  0  0
  189.0180  177.5750  140.1280 C   0  0  0  0  0  2  0  0  0  0  0  0
  190.4580  177.4580  140.5980 C   0  0  2  0  0  3  0  0  0  0  0  0
  190.3680  176.4080  138.6450 C   0  0  0  0  0  1  0  0  0  0  0  0
  191.2590  176.9870  139.5540 O   0  0  0  0  0  0  0  0  0  0  0  0
  190.5130  176.4850  141.7660 C   0  0  0  0  0  2  0  0  0  0  0  0
  191.4030  178.1390  144.6310 C   0  0  0  0  0  2  0  0  0  0  0  0
  190.9270  178.0950  143.3130 O   0  0  0  0  0  0  0  0  0  0  0  0
  191.5200  176.7220  145.1120 C   0  0  0  0  0  2  0  0  0  0  0  0
  191.4730  175.9580  143.8310 C   0  0  0  0  0  2  0  0  0  0  0  0
  191.4500  176.9560  142.7750 N   0  0  0  0  0  0  0  0  0  0  0  0
  1 12  1  0  0  0  0
  1  3  1  1  0  0  0
  2  6  2  0  0  0  0
  3  8  1  0  0  0  0
  3  4  2  0  0  0  0
  4 17  1  0  0  0  0
  5  9  2  0  0  0  0
  7 10  1  0  0  0  0
  7 11  1  0  0  0  0
  9  2  1  0  0  0  0
 10  5  1  0  0  0  0
 11 25  1  1  0  0  0
 11  1  1  0  0  0  0
 12  5  1  6  0  0  0
 12 13  1  0  0  0  0
 13  6  1  6  0  0  0
 13  4  1  0  0  0  0
 14  9  1  0  0  0  0
 15 14  2  0  0  0  0
 16 14  1  0  0  0  0
 17 18  1  0  0  0  0
 18 21  1  0  0  0  0
 20 22  2  0  0  0  0
 20 23  1  0  0  0  0
 21 22  1  0  0  0  0
 22 24  1  0  0  0  0
 23 19  2  0  0  0  0
 24 19  1  0  0  0  0
 26 25  1  0  0  0  0
 27 26  1  6  0  0  0
 27 30  1  0  0  0  0
 28 29  1  0  0  0  0
 29 27  1  0  0  0  0
 30 35  1  0  0  0  0
 31 33  1  0  0  0  0
 32 31  1  0  0  0  0
 34 33  1  0  0  0  0
 35 32  1  0  0  0  0
 35 34  1  0  0  0  0
M  END
>  <MODEL>
3

>  <REMARK>
 VINA RESULT:      -8.5      2.632      6.632
  Name = 
  10 active torsions:
  status: ('A' for Active; 'I' for Inactive)
    1  A    between atoms: C_1  and  C_26
    2  A    between atoms: C_5  and  C_25
    3  A    between atoms: C_5  and  C_29
    4  A    between atoms: N_6  and  C_11
    5  A    between atoms: N_6  and  N_19
    6  A    between atoms: C_9  and  C_29
    7  A    between atoms: C_9  and  N_30
    8  A    between atoms: O_16  and  C_29
    9  A    between atoms: N_18  and  N_19
   10  A    between atoms: C_25  and  C_31
                            x       y       z     vdW  Elec       q    Type
                         _______ _______ _______ _____ _____    ______ ____

>  <TORSDO>
F 10

$$$$
=
 OpenBabel11042410313D

 35 39  0  0  1  0  0  0  0  0999 V2000
  188.2720  177.1500  142.8810 C   0  0  1  0  0  3  0  0  0  0  0  0
  186.9820  177.7770  146.7240 C   0  0  0  0  0  3  0  0  0  0  0  0
  187.3490  177.9230  142.3130 C   0  0  0  0  0  0  0  0  0  0  0  0
  186.2530  178.1000  143.2720 C   0  0  0  0  0  0  0  0  0  0  0  0
  188.8450  177.1030  145.2500 C   0  0  0  0  0  0  0  0  0  0  0  0
  186.0830  177.7790  145.7300 C   0  0  0  0  0  3  0  0  0  0  0  0
  190.4480  176.4090  143.5600 O   0  0  0  0  0  0  0  0  0  0  0  0
  187.5770  178.7510  141.0930 C   0  0  0  0  0  1  0  0  0  0  0  0
  188.4370  177.5190  146.4800 C   0  0  0  0  0  0  0  0  0  0  0  0
  190.2930  177.0870  144.7960 C   0  0  0  0  0  2  0  0  0  0  0  0
  189.7400  177.1000  142.5420 C   0  0  1  0  0  3  0  0  0  0  0  0
  187.8250  176.6890  144.2190 C   0  0  1  0  0  3  0  0  0  0  0  0
  186.5620  177.4520  144.3850 C   0  0  2  0  0  3  0  0  0  0  0  0
  189.3740  177.8120  147.5920 C   0  0  0  0  0  0  0  0  0  0  0  0
  189.0550  178.6560  148.4710 O   0  0  0  0  0  0  0  0  0  0  0  0
  190.6190  177.1270  147.7190 N   0  0  0  0  0  1  0  0  0  0  0  0
  185.2100  179.0780  143.1910 N   0  0  0  0  0  2  0  0  0  0  0  0
  183.9530  178.7940  142.6330 N   0  0  0  0  0  2  0  0  0  0  0  0
  183.0270  177.4190  138.1270 C   0  0  0  0  0  3  0  0  0  0  0  0
  183.0510  177.1290  140.4830 N   0  0  0  0  0  0  0  0  0  0  0  0
  184.0000  179.1620  141.2770 N   0  0  0  0  0  2  0  0  0  0  0  0
  183.5530  178.2860  140.2400 C   0  0  0  0  0  0  0  0  0  0  0  0
  182.6810  176.4530  139.2550 C   0  0  0  0  0  3  0  0  0  0  0  0
  183.6270  178.6410  138.8090 C   0  0  0  0  0  2  0  0  0  0  0  0
  189.9400  176.3780  141.2190 C   0  0  0  0  0  2  0  0  0  0  0  0
  190.9310  177.1390  140.3570 C   0  0  0  0  0  2  0  0  0  0  0  0
  190.7090  176.8100  138.8900 C   0  0  2  0  0  3  0  0  0  0  0  0
  192.1440  175.3960  137.9600 C   0  0  0  0  0  1  0  0  0  0  0  0
  191.9390  176.7530  138.2270 O   0  0  0  0  0  0  0  0  0  0  0  0
  189.8430  177.8970  138.2710 C   0  0  0  0  0  2  0  0  0  0  0  0
  187.2650  175.9010  137.2190 C   0  0  0  0  0  2  0  0  0  0  0  0
  188.5460  176.1070  137.7490 O   0  0  0  0  0  0  0  0  0  0  0  0
  186.5990  177.2430  137.1210 C   0  0  0  0  0  2  0  0  0  0  0  0
  187.7620  178.1710  137.2420 C   0  0  0  0  0  2  0  0  0  0  0  0
  188.9430  177.3250  137.2800 N   0  0  0  0  0  0  0  0  0  0  0  0
  1  3  1  1  0  0  0
  1 12  1  0  0  0  0
  3  4  2  0  0  0  0
  4 13  1  0  0  0  0
  5  9  2  0  0  0  0
  6  2  2  0  0  0  0
  7 10  1  0  0  0  0
  8  3  1  0  0  0  0
  9  2  1  0  0  0  0
  9 14  1  0  0  0  0
 10  5  1  0  0  0  0
 11 25  1  6  0  0  0
 11  1  1  0  0  0  0
 11  7  1  0  0  0  0
 12 13  1  0  0  0  0
 12  5  1  1  0  0  0
 13  6  1  1  0  0  0
 14 16  1  0  0  0  0
 14 15  2  0  0  0  0
 17  4  1  0  0  0  0
 18 17  1  0  0  0  0
 19 24  1  0  0  0  0
 19 23  2  0  0  0  0
 21 18  1  0  0  0  0
 22 20  2  0  0  0  0
 22 21  1  0  0  0  0
 23 20  1  0  0  0  0
 24 22  1  0  0  0  0
 26 25  1  0  0  0  0
 27 30  1  6  0  0  0
 27 26  1  0  0  0  0
 28 29  1  0  0  0  0
 29 27  1  0  0  0  0
 31 32  1  0  0  0  0
 33 31  1  0  0  0  0
 33 34  1  0  0  0  0
 34 35  1  0  0  0  0
 35 32  1  0  0  0  0
 35 30  1  0  0  0  0
M  END
>  <MODEL>
4

>  <REMARK>
 VINA RESULT:      -8.4      2.034      2.413
  Name = 
  10 active torsions:
  status: ('A' for Active; 'I' for Inactive)
    1  A    between atoms: C_1  and  C_26
    2  A    between atoms: C_5  and  C_25
    3  A    between atoms: C_5  and  C_29
    4  A    between atoms: N_6  and  C_11
    5  A    between atoms: N_6  and  N_19
    6  A    between atoms: C_9  and  C_29
    7  A    between atoms: C_9  and  N_30
    8  A    between atoms: O_16  and  C_29
    9  A    between atoms: N_18  and  N_19
   10  A    between atoms: C_25  and  C_31
                            x       y       z     vdW  Elec       q    Type
                         _______ _______ _______ _____ _____    ______ ____

>  <TORSDO>
F 10

$$$$
=
 OpenBabel11042410313D

 35 39  0  0  1  0  0  0  0  0999 V2000
  187.1400  178.4580  141.3030 C   0  0  1  0  0  3  0  0  0  0  0  0
  183.2900  178.7920  142.6780 C   0  0  0  0  0  3  0  0  0  0  0  0
  187.6090  177.8540  142.3930 C   0  0  0  0  0  0  0  0  0  0  0  0
  186.6700  178.1070  143.4910 C   0  0  0  0  0  0  0  0  0  0  0  0
  184.7910  178.7440  140.7180 C   0  0  0  0  0  0  0  0  0  0  0  0
  184.3000  178.8510  143.5580 C   0  0  0  0  0  3  0  0  0  0  0  0
  186.5160  178.7440  139.0060 O   0  0  0  0  0  0  0  0  0  0  0  0
  188.6750  176.8100  142.3850 C   0  0  0  0  0  1  0  0  0  0  0  0
  183.5240  178.6440  141.2070 C   0  0  0  0  0  0  0  0  0  0  0  0
  185.1950  178.3310  139.3150 C   0  0  0  0  0  2  0  0  0  0  0  0
  187.4350  178.0920  139.8710 C   0  0  1  0  0  3  0  0  0  0  0  0
  185.9060  179.2240  141.6120 C   0  0  1  0  0  3  0  0  0  0  0  0
  185.6630  178.8300  143.0230 C   0  0  2  0  0  3  0  0  0  0  0  0
  182.3510  178.3120  140.3620 C   0  0  0  0  0  0  0  0  0  0  0  0
  182.0360  177.1070  140.1770 O   0  0  0  0  0  0  0  0  0  0  0  0
  181.5350  179.3300  139.7850 N   0  0  0  0  0  1  0  0  0  0  0  0
  186.6290  177.4140  144.7440 N   0  0  0  0  0  2  0  0  0  0  0  0
  186.9160  178.0470  145.9640 N   0  0  0  0  0  2  0  0  0  0  0  0
  191.5360  176.7780  146.2770 C   0  0  0  0  0  3  0  0  0  0  0  0
  189.7200  178.0100  145.3740 N   0  0  0  0  0  0  0  0  0  0  0  0
  187.8550  177.2490  146.6430 N   0  0  0  0  0  2  0  0  0  0  0  0
  189.2420  177.2550  146.2970 C   0  0  0  0  0  0  0  0  0  0  0  0
  191.1490  177.8190  145.2320 C   0  0  0  0  0  3  0  0  0  0  0  0
  190.2360  176.3990  146.9740 C   0  0  0  0  0  2  0  0  0  0  0  0
  188.8480  178.5220  139.5090 C   0  0  0  0  0  2  0  0  0  0  0  0
  188.9970  178.5950  138.0000 C   0  0  0  0  0  2  0  0  0  0  0  0
  189.8110  177.4130  137.4970 C   0  0  2  0  0  3  0  0  0  0  0  0
  188.1600  176.2380  136.5930 C   0  0  0  0  0  1  0  0  0  0  0  0
  189.3020  176.9780  136.2690 O   0  0  0  0  0  0  0  0  0  0  0  0
  189.7200  176.2890  138.5170 C   0  0  0  0  0  2  0  0  0  0  0  0
  192.4630  174.4760  137.5520 C   0  0  0  0  0  2  0  0  0  0  0  0
  191.1020  174.6090  137.8640 O   0  0  0  0  0  0  0  0  0  0  0  0
  193.0570  175.8540  137.5450 C   0  0  0  0  0  2  0  0  0  0  0  0
  192.0190  176.6410  138.2730 C   0  0  0  0  0  2  0  0  0  0  0  0
  191.0260  175.6750  138.7120 N   0  0  0  0  0  0  0  0  0  0  0  0
  1 12  1  0  0  0  0
  1  3  1  1  0  0  0
  2  6  2  0  0  0  0
  3  4  2  0  0  0  0
  4 17  1  0  0  0  0
  5  9  2  0  0  0  0
  7 10  1  0  0  0  0
  7 11  1  0  0  0  0
  8  3  1  0  0  0  0
  9  2  1  0  0  0  0
 10  5  1  0  0  0  0
 11 25  1  6  0  0  0
 11  1  1  0  0  0  0
 12  5  1  6  0  0  0
 12 13  1  0  0  0  0
 13  4  1  0  0  0  0
 13  6  1  6  0  0  0
 14  9  1  0  0  0  0
 15 14  2  0  0  0  0
 16 14  1  0  0  0  0
 17 18  1  0  0  0  0
 18 21  1  0  0  0  0
 19 24  1  0  0  0  0
 20 22  2  0  0  0  0
 22 21  1  0  0  0  0
 22 24  1  0  0  0  0
 23 20  1  0  0  0  0
 23 19  2  0  0  0  0
 26 25  1  0  0  0  0
 27 26  1  1  0  0  0
 27 30  1  0  0  0  0
 29 28  1  0  0  0  0
 29 27  1  0  0  0  0
 30 35  1  0  0  0  0
 31 32  1  0  0  0  0
 32 35  1  0  0  0  0
 33 31  1  0  0  0  0
 33 34  1  0  0  0  0
 34 35  1  0  0  0  0
M  END
>  <MODEL>
5

>  <REMARK>
 VINA RESULT:      -8.4      3.031      6.573
  Name = 
  10 active torsions:
  status: ('A' for Active; 'I' for Inactive)
    1  A    between atoms: C_1  and  C_26
    2  A    between atoms: C_5  and  C_25
    3  A    between atoms: C_5  and  C_29
    4  A    between atoms: N_6  and  C_11
    5  A    between atoms: N_6  and  N_19
    6  A    between atoms: C_9  and  C_29
    7  A    between atoms: C_9  and  N_30
    8  A    between atoms: O_16  and  C_29
    9  A    between atoms: N_18  and  N_19
   10  A    between atoms: C_25  and  C_31
                            x       y       z     vdW  Elec       q    Type
                         _______ _______ _______ _____ _____    ______ ____

>  <TORSDO>
F 10

$$$$
=
 OpenBabel11042410313D

 35 39  0  0  1  0  0  0  0  0999 V2000
  186.3610  178.5670  142.5140 C   0  0  1  0  0  3  0  0  0  0  0  0
  182.8890  179.0560  144.6440 C   0  0  0  0  0  3  0  0  0  0  0  0
  186.9900  177.8740  143.4610 C   0  0  0  0  0  0  0  0  0  0  0  0
  186.3060  178.1210  144.7350 C   0  0  0  0  0  0  0  0  0  0  0  0
  183.9690  179.0280  142.4240 C   0  0  0  0  0  0  0  0  0  0  0  0
  184.0540  179.0030  145.3060 C   0  0  0  0  0  3  0  0  0  0  0  0
  185.3200  179.0200  140.4030 O   0  0  0  0  0  0  0  0  0  0  0  0
  187.9570  176.7700  143.1960 C   0  0  0  0  0  1  0  0  0  0  0  0
  182.8190  178.9770  143.1510 C   0  0  0  0  0  0  0  0  0  0  0  0
  184.0590  178.6720  140.9510 C   0  0  0  0  0  2  0  0  0  0  0  0
  186.3420  178.2650  141.0380 C   0  0  1  0  0  3  0  0  0  0  0  0
  185.2690  179.3870  143.0970 C   0  0  1  0  0  3  0  0  0  0  0  0
  185.2810  178.9290  144.5100 C   0  0  2  0  0  3  0  0  0  0  0  0
  181.4820  178.7660  142.5430 C   0  0  0  0  0  0  0  0  0  0  0  0
  181.3300  177.8790  141.6630 O   0  0  0  0  0  0  0  0  0  0  0  0
  180.3440  179.5170  142.9640 N   0  0  0  0  0  1  0  0  0  0  0  0
  186.4630  177.3610  145.9390 N   0  0  0  0  0  2  0  0  0  0  0  0
  187.1360  177.8650  147.0640 N   0  0  0  0  0  2  0  0  0  0  0  0
  191.6770  176.7370  145.9890 C   0  0  0  0  0  3  0  0  0  0  0  0
  189.7010  178.0370  145.7980 N   0  0  0  0  0  0  0  0  0  0  0  0
  188.2100  176.9980  147.3360 N   0  0  0  0  0  2  0  0  0  0  0  0
  189.4650  177.1160  146.6630 C   0  0  0  0  0  0  0  0  0  0  0  0
  191.0470  177.9270  145.2730 C   0  0  0  0  0  3  0  0  0  0  0  0
  190.5910  176.1950  146.9090 C   0  0  0  0  0  2  0  0  0  0  0  0
  187.6830  178.6280  140.4200 C   0  0  0  0  0  2  0  0  0  0  0  0
  187.7940  178.0270  139.0300 C   0  0  0  0  0  2  0  0  0  0  0  0
  189.2540  177.8740  138.6400 C   0  0  2  0  0  3  0  0  0  0  0  0
  188.1830  178.5430  136.8160 C   0  0  0  0  0  1  0  0  0  0  0  0
  189.4620  178.4070  137.3640 O   0  0  0  0  0  0  0  0  0  0  0  0
  189.6070  176.3940  138.6410 C   0  0  0  0  0  2  0  0  0  0  0  0
  192.8050  177.1270  139.6270 C   0  0  0  0  0  2  0  0  0  0  0  0
  191.8500  176.7470  138.6740 O   0  0  0  0  0  0  0  0  0  0  0  0
  192.0650  177.5030  140.8770 C   0  0  0  0  0  2  0  0  0  0  0  0
  190.7220  176.8970  140.6330 C   0  0  0  0  0  2  0  0  0  0  0  0
  190.8390  176.1670  139.3820 N   0  0  0  0  0  0  0  0  0  0  0  0
  1 12  1  0  0  0  0
  1  3  1  1  0  0  0
  2  6  2  0  0  0  0
  3  4  2  0  0  0  0
  4 17  1  0  0  0  0
  5  9  2  0  0  0  0
  7 10  1  0  0  0  0
  7 11  1  0  0  0  0
  8  3  1  0  0  0  0
  9  2  1  0  0  0  0
 10  5  1  0  0  0  0
 11 25  1  6  0  0  0
 11  1  1  0  0  0  0
 12  5  1  6  0  0  0
 12 13  1  0  0  0  0
 13  4  1  0  0  0  0
 13  6  1  6  0  0  0
 14 16  1  0  0  0  0
 14  9  1  0  0  0  0
 15 14  2  0  0  0  0
 17 18  1  0  0  0  0
 18 21  1  0  0  0  0
 19 24  1  0  0  0  0
 20 22  2  0  0  0  0
 22 24  1  0  0  0  0
 22 21  1  0  0  0  0
 23 20  1  0  0  0  0
 23 19  2  0  0  0  0
 26 25  1  0  0  0  0
 27 30  1  6  0  0  0
 27 26  1  0  0  0  0
 28 29  1  0  0  0  0
 29 27  1  0  0  0  0
 30 35  1  0  0  0  0
 31 33  1  0  0  0  0
 32 35  1  0  0  0  0
 32 31  1  0  0  0  0
 34 33  1  0  0  0  0
 35 34  1  0  0  0  0
M  END
>  <MODEL>
6

>  <REMARK>
 VINA RESULT:      -8.3      2.512      6.491
  Name = 
  10 active torsions:
  status: ('A' for Active; 'I' for Inactive)
    1  A    between atoms: C_1  and  C_26
    2  A    between atoms: C_5  and  C_25
    3  A    between atoms: C_5  and  C_29
    4  A    between atoms: N_6  and  C_11
    5  A    between atoms: N_6  and  N_19
    6  A    between atoms: C_9  and  C_29
    7  A    between atoms: C_9  and  N_30
    8  A    between atoms: O_16  and  C_29
    9  A    between atoms: N_18  and  N_19
   10  A    between atoms: C_25  and  C_31
                            x       y       z     vdW  Elec       q    Type
                         _______ _______ _______ _____ _____    ______ ____

>  <TORSDO>
F 10

$$$$
=
 OpenBabel11042410313D

 35 39  0  0  1  0  0  0  0  0999 V2000
  188.2010  177.2140  142.7680 C   0  0  1  0  0  3  0  0  0  0  0  0
  187.0940  177.6390  146.6950 C   0  0  0  0  0  3  0  0  0  0  0  0
  187.2570  178.0200  142.2850 C   0  0  0  0  0  0  0  0  0  0  0  0
  186.2070  178.1490  143.3020 C   0  0  0  0  0  0  0  0  0  0  0  0
  188.8820  177.0390  145.1020 C   0  0  0  0  0  0  0  0  0  0  0  0
  186.1490  177.6970  145.7440 C   0  0  0  0  0  3  0  0  0  0  0  0
  190.4010  176.4300  143.3040 O   0  0  0  0  0  0  0  0  0  0  0  0
  187.4330  178.9120  141.1020 C   0  0  0  0  0  1  0  0  0  0  0  0
  188.5340  177.3890  146.3700 C   0  0  0  0  0  0  0  0  0  0  0  0
  190.3070  177.0420  144.5800 C   0  0  0  0  0  2  0  0  0  0  0  0
  189.6510  177.1780  142.3580 C   0  0  1  0  0  3  0  0  0  0  0  0
  187.8130  176.6840  144.0990 C   0  0  1  0  0  3  0  0  0  0  0  0
  186.5630  177.4410  144.3640 C   0  0  2  0  0  3  0  0  0  0  0  0
  189.5240  177.6200  147.4510 C   0  0  0  0  0  0  0  0  0  0  0  0
  189.2810  178.4690  148.3480 O   0  0  0  0  0  0  0  0  0  0  0  0
  190.7330  176.8680  147.5270 N   0  0  0  0  0  1  0  0  0  0  0  0
  185.1680  179.1340  143.3220 N   0  0  0  0  0  2  0  0  0  0  0  0
  183.8260  178.8180  143.0540 N   0  0  0  0  0  2  0  0  0  0  0  0
  183.6710  178.3640  138.2770 C   0  0  0  0  0  3  0  0  0  0  0  0
  183.7440  179.6040  140.2990 N   0  0  0  0  0  0  0  0  0  0  0  0
  183.8120  177.9150  141.9760 N   0  0  0  0  0  2  0  0  0  0  0  0
  183.7540  178.3590  140.6180 C   0  0  0  0  0  0  0  0  0  0  0  0
  183.6820  179.7730  138.8610 C   0  0  0  0  0  3  0  0  0  0  0  0
  183.7030  177.4270  139.4760 C   0  0  0  0  0  2  0  0  0  0  0  0
  189.7850  176.5260  140.9910 C   0  0  0  0  0  2  0  0  0  0  0  0
  190.7750  177.3030  140.1410 C   0  0  0  0  0  2  0  0  0  0  0  0
  190.4430  177.1370  138.6680 C   0  0  2  0  0  3  0  0  0  0  0  0
  189.2080  178.7050  137.6980 C   0  0  0  0  0  1  0  0  0  0  0  0
  189.1180  177.5200  138.4360 O   0  0  0  0  0  0  0  0  0  0  0  0
  190.6290  175.6760  138.2870 C   0  0  0  0  0  2  0  0  0  0  0  0
  193.6430  176.2430  136.7610 C   0  0  0  0  0  2  0  0  0  0  0  0
  192.4000  176.6580  137.2590 O   0  0  0  0  0  0  0  0  0  0  0  0
  193.8310  174.8090  137.1640 C   0  0  0  0  0  2  0  0  0  0  0  0
  192.4400  174.4090  137.5290 C   0  0  0  0  0  2  0  0  0  0  0  0
  191.6020  175.5520  137.2120 N   0  0  0  0  0  0  0  0  0  0  0  0
  1  3  1  1  0  0  0
  1 12  1  0  0  0  0
  3  4  2  0  0  0  0
  4 17  1  0  0  0  0
  4 13  1  0  0  0  0
  5  9  2  0  0  0  0
  6  2  2  0  0  0  0
  7 10  1  0  0  0  0
  8  3  1  0  0  0  0
  9  2  1  0  0  0  0
  9 14  1  0  0  0  0
 10  5  1  0  0  0  0
 11 25  1  6  0  0  0
 11  1  1  0  0  0  0
 11  7  1  0  0  0  0
 12 13  1  0  0  0  0
 12  5  1  1  0  0  0
 13  6  1  1  0  0  0
 14 16  1  0  0  0  0
 14 15  2  0  0  0  0
 18 17  1  0  0  0  0
 19 23  2  0  0  0  0
 19 24  1  0  0  0  0
 20 22  2  0  0  0  0
 21 18  1  0  0  0  0
 22 21  1  0  0  0  0
 23 20  1  0  0  0  0
 24 22  1  0  0  0  0
 26 25  1  0  0  0  0
 27 30  1  1  0  0  0
 27 26  1  0  0  0  0
 28 29  1  0  0  0  0
 29 27  1  0  0  0  0
 31 33  1  0  0  0  0
 31 32  1  0  0  0  0
 33 34  1  0  0  0  0
 35 32  1  0  0  0  0
 35 34  1  0  0  0  0
 35 30  1  0  0  0  0
M  END
>  <MODEL>
7

>  <REMARK>
 VINA RESULT:      -8.3      2.228      3.267
  Name = 
  10 active torsions:
  status: ('A' for Active; 'I' for Inactive)
    1  A    between atoms: C_1  and  C_26
    2  A    between atoms: C_5  and  C_25
    3  A    between atoms: C_5  and  C_29
    4  A    between atoms: N_6  and  C_11
    5  A    between atoms: N_6  and  N_19
    6  A    between atoms: C_9  and  C_29
    7  A    between atoms: C_9  and  N_30
    8  A    between atoms: O_16  and  C_29
    9  A    between atoms: N_18  and  N_19
   10  A    between atoms: C_25  and  C_31
                            x       y       z     vdW  Elec       q    Type
                         _______ _______ _______ _____ _____    ______ ____

>  <TORSDO>
F 10

$$$$
=
 OpenBabel11042410313D

 35 39  0  0  1  0  0  0  0  0999 V2000
  184.6400  178.2920  142.5340 C   0  0  1  0  0  3  0  0  0  0  0  0
  181.1340  178.9400  140.5050 C   0  0  0  0  0  3  0  0  0  0  0  0
  185.4330  178.6710  141.5340 C   0  0  0  0  0  0  0  0  0  0  0  0
  184.6560  178.6150  140.2920 C   0  0  0  0  0  0  0  0  0  0  0  0
  182.2430  178.7020  142.6980 C   0  0  0  0  0  0  0  0  0  0  0  0
  182.2180  178.5480  139.8190 C   0  0  0  0  0  3  0  0  0  0  0  0
  183.5910  178.3400  144.6880 O   0  0  0  0  0  0  0  0  0  0  0  0
  186.7340  179.3800  141.7130 C   0  0  0  0  0  1  0  0  0  0  0  0
  181.1550  179.1140  141.9910 C   0  0  0  0  0  0  0  0  0  0  0  0
  182.5090  179.0790  144.1440 C   0  0  0  0  0  2  0  0  0  0  0  0
  184.7860  178.6560  143.9890 C   0  0  1  0  0  3  0  0  0  0  0  0
  183.3090  177.8760  142.0240 C   0  0  1  0  0  3  0  0  0  0  0  0
  183.4240  178.2280  140.5860 C   0  0  2  0  0  3  0  0  0  0  0  0
  180.0000  179.8100  142.6100 C   0  0  0  0  0  0  0  0  0  0  0  0
  179.6990  180.9740  142.2340 O   0  0  0  0  0  0  0  0  0  0  0  0
  179.1860  179.1760  143.5950 N   0  0  0  0  0  1  0  0  0  0  0  0
  185.0210  179.2080  139.0400 N   0  0  0  0  0  2  0  0  0  0  0  0
  185.7360  178.5090  138.0540 N   0  0  0  0  0  2  0  0  0  0  0  0
  190.0150  176.3340  137.9440 C   0  0  0  0  0  3  0  0  0  0  0  0
  187.6830  176.4760  137.5230 N   0  0  0  0  0  0  0  0  0  0  0  0
  187.1030  178.6260  138.3620 N   0  0  0  0  0  2  0  0  0  0  0  0
  188.0310  177.5740  138.0920 C   0  0  0  0  0  0  0  0  0  0  0  0
  188.8170  175.5860  137.3690 C   0  0  0  0  0  3  0  0  0  0  0  0
  189.4630  177.6640  138.4400 C   0  0  0  0  0  2  0  0  0  0  0  0
  185.9400  177.8790  144.6030 C   0  0  0  0  0  2  0  0  0  0  0  0
  186.1300  178.2910  146.0520 C   0  0  0  0  0  2  0  0  0  0  0  0
  187.3440  177.5900  146.6400 C   0  0  2  0  0  3  0  0  0  0  0  0
  187.9690  177.8680  148.7500 C   0  0  0  0  0  1  0  0  0  0  0  0
  188.0300  178.4650  147.4870 O   0  0  0  0  0  0  0  0  0  0  0  0
  188.2560  177.1570  145.5020 C   0  0  0  0  0  2  0  0  0  0  0  0
  191.6820  177.1220  145.5180 C   0  0  0  0  0  2  0  0  0  0  0  0
  190.4280  176.7510  146.0240 O   0  0  0  0  0  0  0  0  0  0  0  0
  191.4440  177.8650  144.2350 C   0  0  0  0  0  2  0  0  0  0  0  0
  189.9940  178.2030  144.3410 C   0  0  0  0  0  2  0  0  0  0  0  0
  189.5760  177.7510  145.6570 N   0  0  0  0  0  0  0  0  0  0  0  0
  1  3  1  6  0  0  0
  1 11  1  0  0  0  0
  2  9  1  0  0  0  0
  3  8  1  0  0  0  0
  4 13  1  0  0  0  0
  4  3  2  0  0  0  0
  5 10  1  0  0  0  0
  6  2  2  0  0  0  0
  9 14  1  0  0  0  0
  9  5  2  0  0  0  0
 10  7  1  0  0  0  0
 11 25  1  1  0  0  0
 11  7  1  0  0  0  0
 12  1  1  0  0  0  0
 12  5  1  1  0  0  0
 13  6  1  1  0  0  0
 13 12  1  0  0  0  0
 14 16  1  0  0  0  0
 15 14  2  0  0  0  0
 17  4  1  0  0  0  0
 18 21  1  0  0  0  0
 18 17  1  0  0  0  0
 19 24  1  0  0  0  0
 20 22  2  0  0  0  0
 22 21  1  0  0  0  0
 22 24  1  0  0  0  0
 23 20  1  0  0  0  0
 23 19  2  0  0  0  0
 25 26  1  0  0  0  0
 26 27  1  0  0  0  0
 27 30  1  6  0  0  0
 27 29  1  0  0  0  0
 29 28  1  0  0  0  0
 30 35  1  0  0  0  0
 31 32  1  0  0  0  0
 33 34  1  0  0  0  0
 33 31  1  0  0  0  0
 34 35  1  0  0  0  0
 35 32  1  0  0  0  0
M  END
>  <MODEL>
8

>  <REMARK>
 VINA RESULT:      -8.2      2.808      8.257
  Name = 
  10 active torsions:
  status: ('A' for Active; 'I' for Inactive)
    1  A    between atoms: C_1  and  C_26
    2  A    between atoms: C_5  and  C_25
    3  A    between atoms: C_5  and  C_29
    4  A    between atoms: N_6  and  C_11
    5  A    between atoms: N_6  and  N_19
    6  A    between atoms: C_9  and  C_29
    7  A    between atoms: C_9  and  N_30
    8  A    between atoms: O_16  and  C_29
    9  A    between atoms: N_18  and  N_19
   10  A    between atoms: C_25  and  C_31
                            x       y       z     vdW  Elec       q    Type
                         _______ _______ _______ _____ _____    ______ ____

>  <TORSDO>
F 10

$$$$
=
 OpenBabel11042410313D

 35 39  0  0  1  0  0  0  0  0999 V2000
  189.2730  178.0150  141.0550 C   0  0  1  0  0  3  0  0  0  0  0  0
  188.4450  177.2500  137.1100 C   0  0  0  0  0  3  0  0  0  0  0  0
  188.0000  178.1200  141.4300 C   0  0  0  0  0  0  0  0  0  0  0  0
  187.1920  178.3670  140.2310 C   0  0  0  0  0  0  0  0  0  0  0  0
  190.0770  177.0730  138.9550 C   0  0  0  0  0  0  0  0  0  0  0  0
  187.6180  178.0460  137.8040 C   0  0  0  0  0  3  0  0  0  0  0  0
  191.4940  177.1210  140.9300 O   0  0  0  0  0  0  0  0  0  0  0  0
  187.4740  177.6850  142.7560 C   0  0  0  0  0  1  0  0  0  0  0  0
  189.6790  176.6610  137.7200 C   0  0  0  0  0  0  0  0  0  0  0  0
  191.1220  176.3590  139.7930 C   0  0  0  0  0  2  0  0  0  0  0  0
  190.3720  177.2850  141.7840 C   0  0  1  0  0  3  0  0  0  0  0  0
  189.4180  178.2660  139.5990 C   0  0  1  0  0  3  0  0  0  0  0  0
  187.9970  178.3790  139.1790 C   0  0  2  0  0  3  0  0  0  0  0  0
  190.3650  175.5860  136.9620 C   0  0  0  0  0  0  0  0  0  0  0  0
  191.2560  175.8850  136.1240 O   0  0  0  0  0  0  0  0  0  0  0  0
  190.0710  174.2090  137.1880 N   0  0  0  0  0  1  0  0  0  0  0  0
  185.7680  178.2540  140.1340 N   0  0  0  0  0  2  0  0  0  0  0  0
  184.9170  179.3690  140.2070 N   0  0  0  0  0  2  0  0  0  0  0  0
  183.1690  178.8760  144.6510 C   0  0  0  0  0  3  0  0  0  0  0  0
  184.8400  179.4580  143.0700 N   0  0  0  0  0  0  0  0  0  0  0  0
  183.8010  178.9980  140.9790 N   0  0  0  0  0  2  0  0  0  0  0  0
  183.8200  179.0440  142.4070 C   0  0  0  0  0  0  0  0  0  0  0  0
  184.5920  179.4020  144.4970 C   0  0  0  0  0  3  0  0  0  0  0  0
  182.6720  178.6260  143.2340 C   0  0  0  0  0  2  0  0  0  0  0  0
  190.7930  178.0780  143.0110 C   0  0  0  0  0  2  0  0  0  0  0  0
  191.4780  177.1620  144.0100 C   0  0  0  0  0  2  0  0  0  0  0  0
  191.1050  177.5630  145.4280 C   0  0  2  0  0  3  0  0  0  0  0  0
  191.8130  175.7020  146.4060 C   0  0  0  0  0  1  0  0  0  0  0  0
  192.0610  177.0750  146.3240 O   0  0  0  0  0  0  0  0  0  0  0  0
  189.7430  176.9710  145.7590 C   0  0  0  0  0  2  0  0  0  0  0  0
  186.8770  178.0980  147.2600 C   0  0  0  0  0  2  0  0  0  0  0  0
  187.6000  177.6040  146.1660 O   0  0  0  0  0  0  0  0  0  0  0  0
  187.7820  178.0440  148.4560 C   0  0  0  0  0  2  0  0  0  0  0  0
  189.1230  177.8850  147.8200 C   0  0  0  0  0  2  0  0  0  0  0  0
  188.8940  177.9740  146.3880 N   0  0  0  0  0  0  0  0  0  0  0  0
  1  3  1  6  0  0  0
  1 11  1  0  0  0  0
  2  9  1  0  0  0  0
  2  6  2  0  0  0  0
  3  8  1  0  0  0  0
  4  3  2  0  0  0  0
  5 10  1  0  0  0  0
  7 11  1  0  0  0  0
  9  5  2  0  0  0  0
 10  7  1  0  0  0  0
 11 25  1  1  0  0  0
 12  5  1  6  0  0  0
 12  1  1  0  0  0  0
 13  6  1  6  0  0  0
 13 12  1  0  0  0  0
 13  4  1  0  0  0  0
 14 16  1  0  0  0  0
 14  9  1  0  0  0  0
 15 14  2  0  0  0  0
 17 18  1  0  0  0  0
 17  4  1  0  0  0  0
 18 21  1  0  0  0  0
 20 23  1  0  0  0  0
 21 22  1  0  0  0  0
 22 20  2  0  0  0  0
 22 24  1  0  0  0  0
 23 19  2  0  0  0  0
 24 19  1  0  0  0  0
 25 26  1  0  0  0  0
 27 26  1  6  0  0  0
 27 30  1  0  0  0  0
 27 29  1  0  0  0  0
 29 28  1  0  0  0  0
 30 35  1  0  0  0  0
 31 33  1  0  0  0  0
 32 35  1  0  0  0  0
 32 31  1  0  0  0  0
 34 33  1  0  0  0  0
 35 34  1  0  0  0  0
M  END
>  <MODEL>
9

>  <REMARK>
 VINA RESULT:      -8.2      2.116      7.033
  Name = 
  10 active torsions:
  status: ('A' for Active; 'I' for Inactive)
    1  A    between atoms: C_1  and  C_26
    2  A    between atoms: C_5  and  C_25
    3  A    between atoms: C_5  and  C_29
    4  A    between atoms: N_6  and  C_11
    5  A    between atoms: N_6  and  N_19
    6  A    between atoms: C_9  and  C_29
    7  A    between atoms: C_9  and  N_30
    8  A    between atoms: O_16  and  C_29
    9  A    between atoms: N_18  and  N_19
   10  A    between atoms: C_25  and  C_31
                            x       y       z     vdW  Elec       q    Type
                         _______ _______ _______ _____ _____    ______ ____

>  <TORSDO>
F 10

$$$$
