=
 OpenBabel11042410123D

 32 36  0  0  1  0  0  0  0  0999 V2000
  183.1050  178.1460  140.6080 C   0  0  1  0  0  3  0  0  0  0  0  0
  182.7640  179.8030  137.9540 C   0  0  0  0  0  2  0  0  0  0  0  0
  183.5090  180.1080  139.1620 N   0  0  0  0  0  0  0  0  0  0  0  0
  181.3820  179.6560  139.9020 C   0  0  0  0  0  2  0  0  0  0  0  0
  181.3110  179.7010  138.3880 C   0  0  1  0  0  3  0  0  0  0  0  0
  184.8040  179.5680  139.0630 N   0  0  0  0  0  1  0  0  0  0  0  0
  182.7930  179.5630  140.2650 N   0  0  0  0  0  0  0  0  0  0  0  0
  180.0380  181.7970  138.9630 C   0  0  0  0  0  2  0  0  0  0  0  0
  180.3760  180.8350  137.9160 C   0  0  1  0  0  3  0  0  0  0  0  0
  181.0710  182.1350  137.9640 N   0  0  0  0  0  0  0  0  0  0  0  0
  180.4480  182.9910  136.9620 C   0  0  2  0  0  3  0  0  0  0  0  0
  180.5510  182.3340  135.5930 C   0  0  0  0  0  1  0  0  0  0  0  0
  181.3040  184.7960  135.6450 F   0  0  0  0  0  0  0  0  0  0  0  0
  182.3410  184.3270  137.6040 F   0  0  0  0  0  0  0  0  0  0  0  0
  181.1230  184.3630  136.9460 C   0  0  0  0  0  3  0  0  0  0  0  0
  183.7460  177.9050  141.9990 C   0  0  2  0  0  3  0  0  0  0  0  0
  183.3500  178.9120  142.9020 O   0  0  0  0  0  0  0  0  0  0  0  0
  184.6790  178.9810  142.4310 C   0  0  1  0  0  3  0  0  0  0  0  0
  187.5770  177.8440  147.7230 C   0  0  0  0  0  3  0  0  0  0  0  0
  185.6120  178.4820  143.4850 C   0  0  0  0  0  0  0  0  0  0  0  0
  187.4000  177.6210  145.4230 C   0  0  0  0  0  0  0  0  0  0  0  0
  186.3160  178.3650  145.7860 C   0  0  0  0  0  0  0  0  0  0  0  0
  185.4020  178.8240  144.8370 C   0  0  0  0  0  2  0  0  0  0  0  0
  186.3080  178.5890  147.2530 C   0  0  0  0  0  3  0  0  0  0  0  0
  187.6510  177.2820  144.0920 C   0  0  0  0  0  3  0  0  0  0  0  0
  188.2080  177.2770  146.5290 N   0  0  0  0  0  0  0  0  0  0  0  0
  186.7440  177.7230  143.1170 C   0  0  0  0  0  3  0  0  0  0  0  0
  182.0130  177.1690  140.1590 C   0  0  0  0  0  2  0  0  0  0  0  0
  182.5980  176.0070  139.4200 C   0  0  0  0  0  3  0  0  0  0  0  0
  183.3080  176.1880  138.3680 N   0  0  0  0  0  0  0  0  0  0  0  0
  183.8590  175.0530  137.6830 C   0  0  0  0  0  2  0  0  0  0  0  0
  185.1460  175.4500  136.9860 C   0  0  0  0  0  1  0  0  0  0  0  0
  1 28  1  1  0  0  0
  2  3  1  0  0  0  0
  3  7  1  0  0  0  0
  4  7  1  0  0  0  0
  5  2  1  6  0  0  0
  5  4  1  0  0  0  0
  6  3  1  0  0  0  0
  7  1  1  0  0  0  0
  9 10  1  0  0  0  0
  9  5  1  0  0  0  0
  9  8  1  1  0  0  0
 10  8  1  0  0  0  0
 11 12  1  6  0  0  0
 11 10  1  0  0  0  0
 13 15  1  0  0  0  0
 15 11  1  0  0  0  0
 15 14  1  0  0  0  0
 16  1  1  6  0  0  0
 16 18  1  0  0  0  0
 16 17  1  0  0  0  0
 18 17  1  0  0  0  0
 18 20  1  1  0  0  0
 20 23  1  0  0  0  0
 21 22  1  0  0  0  0
 21 26  1  0  0  0  0
 22 24  2  0  0  0  0
 23 22  1  0  0  0  0
 24 19  1  0  0  0  0
 25 21  2  0  0  0  0
 26 19  2  0  0  0  0
 27 20  2  0  0  0  0
 27 25  1  0  0  0  0
 29 28  1  0  0  0  0
 30 29  2  0  0  0  0
 31 30  1  0  0  0  0
 32 31  1  0  0  0  0
M  END
>  <MODEL>
1

>  <REMARK>
 VINA RESULT:      -7.3      0.000      0.000
  Name = 
  9 active torsions:
  status: ('A' for Active; 'I' for Inactive)
    1  A    between atoms: C_2  and  C_22
    2  A    between atoms: C_3  and  C_11
    3  A    between atoms: C_6  and  C_15
    4  A    between atoms: N_8  and  C_24
    5  A    between atoms: C_13  and  C_20
    6  A    between atoms: C_15  and  C_22
    7  A    between atoms: C_15  and  N_32
    8  A    between atoms: C_19  and  C_28
    9  A    between atoms: C_19  and  N_29
                            x       y       z     vdW  Elec       q    Type
                         _______ _______ _______ _____ _____    ______ ____

>  <TORSDO>
F 9

$$$$
=
 OpenBabel11042410123D

 32 36  0  0  1  0  0  0  0  0999 V2000
  185.1610  178.5420  142.8720 C   0  0  1  0  0  3  0  0  0  0  0  0
  182.3240  179.5090  141.9140 C   0  0  0  0  0  2  0  0  0  0  0  0
  182.6920  178.5840  142.9690 N   0  0  0  0  0  0  0  0  0  0  0  0
  183.7470  177.7660  141.0980 C   0  0  0  0  0  2  0  0  0  0  0  0
  182.8350  178.8830  140.6270 C   0  0  1  0  0  3  0  0  0  0  0  0
  182.9110  179.2960  144.1620 N   0  0  0  0  0  1  0  0  0  0  0  0
  183.8610  177.8870  142.5490 N   0  0  0  0  0  0  0  0  0  0  0  0
  182.2990  177.4870  138.6000 C   0  0  0  0  0  2  0  0  0  0  0  0
  181.7640  178.3440  139.6560 C   0  0  1  0  0  3  0  0  0  0  0  0
  181.6460  176.8790  139.7750 N   0  0  0  0  0  0  0  0  0  0  0  0
  180.2860  176.5250  139.3850 C   0  0  2  0  0  3  0  0  0  0  0  0
  179.2940  177.1940  140.3260 C   0  0  0  0  0  1  0  0  0  0  0  0
  180.2990  174.5220  140.6940 F   0  0  0  0  0  0  0  0  0  0  0  0
  180.9800  174.3860  138.5370 F   0  0  0  0  0  0  0  0  0  0  0  0
  180.1050  175.0080  139.4130 C   0  0  0  0  0  3  0  0  0  0  0  0
  186.0730  177.7910  143.8770 C   0  0  2  0  0  3  0  0  0  0  0  0
  185.3820  177.5530  145.0820 O   0  0  0  0  0  0  0  0  0  0  0  0
  186.3700  178.5600  145.1160 C   0  0  1  0  0  3  0  0  0  0  0  0
  191.9400  176.2820  146.3320 C   0  0  0  0  0  3  0  0  0  0  0  0
  187.5980  178.0350  145.7840 C   0  0  0  0  0  0  0  0  0  0  0  0
  189.8430  176.9820  147.0270 C   0  0  0  0  0  0  0  0  0  0  0  0
  189.8510  177.1880  145.6790 C   0  0  2  0  0  3  0  0  0  0  0  0
  188.7360  177.7060  145.0190 C   0  0  0  0  0  3  0  0  0  0  0  0
  191.1510  176.7730  145.0980 C   0  0  0  0  0  3  0  0  0  0  0  0
  188.7260  177.2760  147.8130 C   0  0  0  0  0  3  0  0  0  0  0  0
  191.0580  176.4320  147.4920 N   0  0  0  0  0  0  0  0  0  0  0  0
  187.5940  177.8050  147.1770 C   0  0  0  0  0  3  0  0  0  0  0  0
  185.8340  179.1680  141.6460 C   0  0  0  0  0  2  0  0  0  0  0  0
  187.1890  178.5750  141.4130 C   0  0  0  0  0  3  0  0  0  0  0  0
  187.7130  178.5740  140.2430 N   0  0  0  0  0  0  0  0  0  0  0  0
  189.0150  178.0010  140.0520 C   0  0  0  0  0  2  0  0  0  0  0  0
  189.5760  177.5470  141.3860 C   0  0  0  0  0  1  0  0  0  0  0  0
  1 28  1  6  0  0  0
  2  3  1  0  0  0  0
  3  6  1  0  0  0  0
  4  7  1  0  0  0  0
  5  4  1  1  0  0  0
  5  2  1  0  0  0  0
  7  1  1  0  0  0  0
  7  3  1  0  0  0  0
  8 10  1  0  0  0  0
  9  8  1  6  0  0  0
  9 10  1  0  0  0  0
  9  5  1  0  0  0  0
 11 15  1  0  0  0  0
 11 10  1  0  0  0  0
 11 12  1  1  0  0  0
 14 15  1  0  0  0  0
 15 13  1  0  0  0  0
 16  1  1  6  0  0  0
 16 17  1  0  0  0  0
 16 18  1  0  0  0  0
 17 18  1  0  0  0  0
 18 20  1  1  0  0  0
 19 26  1  0  0  0  0
 20 27  1  0  0  0  0
 21 26  2  0  0  0  0
 21 25  1  0  0  0  0
 22 23  1  6  0  0  0
 22 21  1  0  0  0  0
 23 20  2  0  0  0  0
 24 22  1  0  0  0  0
 24 19  2  0  0  0  0
 27 25  2  0  0  0  0
 29 28  1  0  0  0  0
 30 29  2  0  0  0  0
 31 30  1  0  0  0  0
 31 32  1  0  0  0  0
M  END
>  <MODEL>
2

>  <REMARK>
 VINA RESULT:      -7.3      3.931      5.390
  Name = 
  9 active torsions:
  status: ('A' for Active; 'I' for Inactive)
    1  A    between atoms: C_2  and  C_22
    2  A    between atoms: C_3  and  C_11
    3  A    between atoms: C_6  and  C_15
    4  A    between atoms: N_8  and  C_24
    5  A    between atoms: C_13  and  C_20
    6  A    between atoms: C_15  and  C_22
    7  A    between atoms: C_15  and  N_32
    8  A    between atoms: C_19  and  C_28
    9  A    between atoms: C_19  and  N_29
                            x       y       z     vdW  Elec       q    Type
                         _______ _______ _______ _____ _____    ______ ____

>  <TORSDO>
F 9

$$$$
=
 OpenBabel11042410123D

 32 36  0  0  1  0  0  0  0  0999 V2000
  184.0760  178.6170  141.5690 C   0  0  1  0  0  3  0  0  0  0  0  0
  181.6200  179.2020  139.6910 C   0  0  0  0  0  2  0  0  0  0  0  0
  181.7030  178.4180  140.9090 N   0  0  0  0  0  0  0  0  0  0  0  0
  183.3410  177.5460  139.5540 C   0  0  0  0  0  2  0  0  0  0  0  0
  182.5480  178.5170  138.7020 C   0  0  1  0  0  3  0  0  0  0  0  0
  181.4910  179.2540  142.0200 N   0  0  0  0  0  1  0  0  0  0  0  0
  182.9900  177.8080  140.9470 N   0  0  0  0  0  0  0  0  0  0  0  0
  182.8140  177.1870  136.5800 C   0  0  0  0  0  2  0  0  0  0  0  0
  181.8720  177.7870  137.5220 C   0  0  1  0  0  3  0  0  0  0  0  0
  182.1430  176.3380  137.5850 N   0  0  0  0  0  0  0  0  0  0  0  0
  181.0340  175.6660  136.9190 C   0  0  2  0  0  3  0  0  0  0  0  0
  179.7260  176.0360  137.6050 C   0  0  0  0  0  1  0  0  0  0  0  0
  180.4470  173.5750  137.9240 F   0  0  0  0  0  0  0  0  0  0  0  0
  182.5700  173.8340  137.1740 F   0  0  0  0  0  0  0  0  0  0  0  0
  181.2400  174.1510  136.9480 C   0  0  0  0  0  3  0  0  0  0  0  0
  184.5980  178.1190  142.9420 C   0  0  2  0  0  3  0  0  0  0  0  0
  183.6300  178.3380  143.9420 O   0  0  0  0  0  0  0  0  0  0  0  0
  184.7510  179.1960  143.9590 C   0  0  1  0  0  3  0  0  0  0  0  0
  189.4580  176.8850  147.1510 C   0  0  0  0  0  3  0  0  0  0  0  0
  185.6900  178.7750  145.0400 C   0  0  0  0  0  0  0  0  0  0  0  0
  187.3860  177.9200  147.0610 C   0  0  0  0  0  0  0  0  0  0  0  0
  187.7480  177.7480  145.7570 C   0  0  2  0  0  3  0  0  0  0  0  0
  186.9140  178.1550  144.7150 C   0  0  0  0  0  3  0  0  0  0  0  0
  189.0710  177.0830  145.6690 C   0  0  0  0  0  3  0  0  0  0  0  0
  186.1720  178.5090  147.4200 C   0  0  0  0  0  3  0  0  0  0  0  0
  188.3580  177.4200  147.9570 N   0  0  0  0  0  0  0  0  0  0  0  0
  185.3180  178.9360  146.3930 C   0  0  0  0  0  3  0  0  0  0  0  0
  185.1190  179.0960  140.5540 C   0  0  0  0  0  2  0  0  0  0  0  0
  186.4930  178.6370  140.9340 C   0  0  0  0  0  3  0  0  0  0  0  0
  187.4200  178.5410  140.0550 N   0  0  0  0  0  0  0  0  0  0  0  0
  188.7280  178.1020  140.4520 C   0  0  0  0  0  2  0  0  0  0  0  0
  188.6400  177.3500  141.7660 C   0  0  0  0  0  1  0  0  0  0  0  0
  1 28  1  6  0  0  0
  2  3  1  0  0  0  0
  3  7  1  0  0  0  0
  3  6  1  0  0  0  0
  4  7  1  0  0  0  0
  5  4  1  1  0  0  0
  5  2  1  0  0  0  0
  7  1  1  0  0  0  0
  8 10  1  0  0  0  0
  9  8  1  6  0  0  0
  9 10  1  0  0  0  0
  9  5  1  0  0  0  0
 11 15  1  0  0  0  0
 11 10  1  0  0  0  0
 11 12  1  1  0  0  0
 15 14  1  0  0  0  0
 15 13  1  0  0  0  0
 16  1  1  6  0  0  0
 16 17  1  0  0  0  0
 16 18  1  0  0  0  0
 17 18  1  0  0  0  0
 18 20  1  1  0  0  0
 19 26  1  0  0  0  0
 20 27  1  0  0  0  0
 21 25  1  0  0  0  0
 21 26  2  0  0  0  0
 22 23  1  6  0  0  0
 22 21  1  0  0  0  0
 23 20  2  0  0  0  0
 24 22  1  0  0  0  0
 24 19  2  0  0  0  0
 27 25  2  0  0  0  0
 28 29  1  0  0  0  0
 30 31  1  0  0  0  0
 30 29  2  0  0  0  0
 31 32  1  0  0  0  0
M  END
>  <MODEL>
3

>  <REMARK>
 VINA RESULT:      -7.2      3.627      4.949
  Name = 
  9 active torsions:
  status: ('A' for Active; 'I' for Inactive)
    1  A    between atoms: C_2  and  C_22
    2  A    between atoms: C_3  and  C_11
    3  A    between atoms: C_6  and  C_15
    4  A    between atoms: N_8  and  C_24
    5  A    between atoms: C_13  and  C_20
    6  A    between atoms: C_15  and  C_22
    7  A    between atoms: C_15  and  N_32
    8  A    between atoms: C_19  and  C_28
    9  A    between atoms: C_19  and  N_29
                            x       y       z     vdW  Elec       q    Type
                         _______ _______ _______ _____ _____    ______ ____

>  <TORSDO>
F 9

$$$$
=
 OpenBabel11042410123D

 32 36  0  0  1  0  0  0  0  0999 V2000
  189.2140  177.6470  139.6020 C   0  0  1  0  0  3  0  0  0  0  0  0
  188.5980  177.8170  136.5200 C   0  0  0  0  0  2  0  0  0  0  0  0
  188.1090  178.6280  137.6210 N   0  0  0  0  0  0  0  0  0  0  0  0
  187.6280  176.4690  138.2440 C   0  0  0  0  0  2  0  0  0  0  0  0
  188.1110  176.4070  136.8070 C   0  0  1  0  0  3  0  0  0  0  0  0
  189.0000  179.6920  137.8500 N   0  0  0  0  0  1  0  0  0  0  0  0
  187.9890  177.7850  138.7630 N   0  0  0  0  0  0  0  0  0  0  0  0
  187.3100  174.5590  135.2940 C   0  0  0  0  0  2  0  0  0  0  0  0
  187.0040  175.8630  135.8790 C   0  0  1  0  0  3  0  0  0  0  0  0
  186.3980  174.6460  136.4520 N   0  0  0  0  0  0  0  0  0  0  0  0
  185.0340  174.5670  135.9420 C   0  0  2  0  0  3  0  0  0  0  0  0
  184.3460  175.9140  136.1100 C   0  0  0  0  0  1  0  0  0  0  0  0
  184.7940  173.2680  137.9370 F   0  0  0  0  0  0  0  0  0  0  0  0
  184.2610  172.2900  135.9640 F   0  0  0  0  0  0  0  0  0  0  0  0
  184.2570  173.4770  136.6800 C   0  0  0  0  0  3  0  0  0  0  0  0
  189.0580  178.0100  141.1020 C   0  0  2  0  0  3  0  0  0  0  0  0
  190.1230  177.4700  141.8490 O   0  0  0  0  0  0  0  0  0  0  0  0
  188.8720  176.8330  141.9930 C   0  0  1  0  0  3  0  0  0  0  0  0
  187.7650  178.1290  147.8920 C   0  0  0  0  0  3  0  0  0  0  0  0
  188.2470  177.2410  143.2860 C   0  0  0  0  0  0  0  0  0  0  0  0
  187.0520  177.9170  145.6960 C   0  0  0  0  0  0  0  0  0  0  0  0
  188.3820  177.6160  145.6620 C   0  0  0  0  0  0  0  0  0  0  0  0
  189.0130  177.2600  144.4700 C   0  0  0  0  0  2  0  0  0  0  0  0
  188.9710  177.7100  147.0210 C   0  0  0  0  0  3  0  0  0  0  0  0
  186.2580  177.8860  144.5480 C   0  0  0  0  0  3  0  0  0  0  0  0
  186.6070  178.2280  147.0000 N   0  0  0  0  0  0  0  0  0  0  0  0
  186.8680  177.5400  143.3340 C   0  0  0  0  0  3  0  0  0  0  0  0
  190.0310  176.3960  139.2630 C   0  0  0  0  0  2  0  0  0  0  0  0
  191.3660  176.7610  138.6940 C   0  0  0  0  0  3  0  0  0  0  0  0
  191.8970  176.0590  137.7620 N   0  0  0  0  0  0  0  0  0  0  0  0
  193.1770  176.4370  137.2340 C   0  0  0  0  0  2  0  0  0  0  0  0
  194.1680  175.3060  137.4320 C   0  0  0  0  0  1  0  0  0  0  0  0
  1 28  1  1  0  0  0
  2  3  1  0  0  0  0
  3  6  1  0  0  0  0
  3  7  1  0  0  0  0
  4  7  1  0  0  0  0
  5  2  1  6  0  0  0
  5  4  1  0  0  0  0
  7  1  1  0  0  0  0
  8 10  1  0  0  0  0
  9  8  1  6  0  0  0
  9 10  1  0  0  0  0
  9  5  1  0  0  0  0
 11 12  1  1  0  0  0
 11 10  1  0  0  0  0
 11 15  1  0  0  0  0
 14 15  1  0  0  0  0
 15 13  1  0  0  0  0
 16  1  1  6  0  0  0
 16 17  1  0  0  0  0
 16 18  1  0  0  0  0
 17 18  1  0  0  0  0
 18 20  1  1  0  0  0
 20 27  2  0  0  0  0
 20 23  1  0  0  0  0
 21 26  1  0  0  0  0
 22 21  1  0  0  0  0
 22 24  2  0  0  0  0
 23 22  1  0  0  0  0
 24 19  1  0  0  0  0
 25 21  2  0  0  0  0
 26 19  2  0  0  0  0
 27 25  1  0  0  0  0
 29 28  1  0  0  0  0
 30 29  2  0  0  0  0
 31 32  1  0  0  0  0
 31 30  1  0  0  0  0
M  END
>  <MODEL>
4

>  <REMARK>
 VINA RESULT:      -6.9      5.502      7.196
  Name = 
  9 active torsions:
  status: ('A' for Active; 'I' for Inactive)
    1  A    between atoms: C_2  and  C_22
    2  A    between atoms: C_3  and  C_11
    3  A    between atoms: C_6  and  C_15
    4  A    between atoms: N_8  and  C_24
    5  A    between atoms: C_13  and  C_20
    6  A    between atoms: C_15  and  C_22
    7  A    between atoms: C_15  and  N_32
    8  A    between atoms: C_19  and  C_28
    9  A    between atoms: C_19  and  N_29
                            x       y       z     vdW  Elec       q    Type
                         _______ _______ _______ _____ _____    ______ ____

>  <TORSDO>
F 9

$$$$
=
 OpenBabel11042410123D

 32 36  0  0  1  0  0  0  0  0999 V2000
  188.7850  177.7980  139.2390 C   0  0  1  0  0  3  0  0  0  0  0  0
  187.3720  178.1290  136.4460 C   0  0  0  0  0  2  0  0  0  0  0  0
  187.7370  179.1250  137.4370 N   0  0  0  0  0  0  0  0  0  0  0  0
  186.4830  177.5910  138.6020 C   0  0  0  0  0  2  0  0  0  0  0  0
  186.3760  177.2140  137.1370 C   0  0  1  0  0  3  0  0  0  0  0  0
  189.0550  179.5560  137.2060 N   0  0  0  0  0  1  0  0  0  0  0  0
  187.5930  178.5320  138.7240 N   0  0  0  0  0  0  0  0  0  0  0  0
  184.4250  176.0870  136.0100 C   0  0  0  0  0  2  0  0  0  0  0  0
  184.9130  177.3060  136.6520 C   0  0  1  0  0  3  0  0  0  0  0  0
  184.0560  176.3750  137.4100 N   0  0  0  0  0  0  0  0  0  0  0  0
  182.7080  176.9310  137.4020 C   0  0  2  0  0  3  0  0  0  0  0  0
  182.7430  178.3640  137.9150 C   0  0  0  0  0  1  0  0  0  0  0  0
  182.4670  175.5640  139.3510 F   0  0  0  0  0  0  0  0  0  0  0  0
  181.2210  175.0460  137.5310 F   0  0  0  0  0  0  0  0  0  0  0  0
  181.7800  176.0780  138.2670 C   0  0  0  0  0  3  0  0  0  0  0  0
  189.1260  178.0160  140.7360 C   0  0  2  0  0  3  0  0  0  0  0  0
  190.3570  177.4060  141.0510 O   0  0  0  0  0  0  0  0  0  0  0  0
  189.1980  176.7590  141.5300 C   0  0  1  0  0  3  0  0  0  0  0  0
  186.9390  177.9630  147.1110 C   0  0  0  0  0  3  0  0  0  0  0  0
  189.0300  177.0410  142.9860 C   0  0  0  0  0  0  0  0  0  0  0  0
  188.7330  177.6500  145.6760 C   0  0  0  0  0  0  0  0  0  0  0  0
  187.6270  177.4620  144.8990 C   0  0  2  0  0  3  0  0  0  0  0  0
  187.7390  177.1660  143.5400 C   0  0  0  0  0  3  0  0  0  0  0  0
  186.3920  177.6400  145.7020 C   0  0  0  0  0  3  0  0  0  0  0  0
  190.0250  177.5560  145.1560 C   0  0  0  0  0  3  0  0  0  0  0  0
  188.4010  177.9620  147.0130 N   0  0  0  0  0  0  0  0  0  0  0  0
  190.1680  177.2510  143.7950 C   0  0  0  0  0  3  0  0  0  0  0  0
  188.8850  176.3690  138.6960 C   0  0  0  0  0  2  0  0  0  0  0  0
  190.1650  176.1640  137.9470 C   0  0  0  0  0  3  0  0  0  0  0  0
  191.0290  175.3060  138.3450 N   0  0  0  0  0  0  0  0  0  0  0  0
  192.2450  175.1310  137.6030 C   0  0  0  0  0  2  0  0  0  0  0  0
  193.2290  176.2270  137.9640 C   0  0  0  0  0  1  0  0  0  0  0  0
  1 28  1  1  0  0  0
  2  3  1  0  0  0  0
  3  7  1  0  0  0  0
  4  7  1  0  0  0  0
  5  2  1  6  0  0  0
  5  4  1  0  0  0  0
  6  3  1  0  0  0  0
  7  1  1  0  0  0  0
  8 10  1  0  0  0  0
  9  8  1  6  0  0  0
  9  5  1  0  0  0  0
  9 10  1  0  0  0  0
 11 10  1  0  0  0  0
 11 12  1  1  0  0  0
 11 15  1  0  0  0  0
 14 15  1  0  0  0  0
 15 13  1  0  0  0  0
 16  1  1  6  0  0  0
 16 17  1  0  0  0  0
 16 18  1  0  0  0  0
 17 18  1  0  0  0  0
 18 20  1  1  0  0  0
 20 23  2  0  0  0  0
 20 27  1  0  0  0  0
 21 26  2  0  0  0  0
 22 23  1  6  0  0  0
 22 21  1  0  0  0  0
 22 24  1  0  0  0  0
 24 19  2  0  0  0  0
 25 21  1  0  0  0  0
 26 19  1  0  0  0  0
 27 25  2  0  0  0  0
 29 30  2  0  0  0  0
 29 28  1  0  0  0  0
 31 32  1  0  0  0  0
 31 30  1  0  0  0  0
M  END
>  <MODEL>
5

>  <REMARK>
 VINA RESULT:      -6.7      4.281      5.947
  Name = 
  9 active torsions:
  status: ('A' for Active; 'I' for Inactive)
    1  A    between atoms: C_2  and  C_22
    2  A    between atoms: C_3  and  C_11
    3  A    between atoms: C_6  and  C_15
    4  A    between atoms: N_8  and  C_24
    5  A    between atoms: C_13  and  C_20
    6  A    between atoms: C_15  and  C_22
    7  A    between atoms: C_15  and  N_32
    8  A    between atoms: C_19  and  C_28
    9  A    between atoms: C_19  and  N_29
                            x       y       z     vdW  Elec       q    Type
                         _______ _______ _______ _____ _____    ______ ____

>  <TORSDO>
F 9

$$$$
=
 OpenBabel11042410123D

 32 36  0  0  1  0  0  0  0  0999 V2000
  189.6960  177.1150  139.3750 C   0  0  1  0  0  3  0  0  0  0  0  0
  190.5520  175.6570  136.7210 C   0  0  0  0  0  2  0  0  0  0  0  0
  190.0770  175.1120  137.9800 N   0  0  0  0  0  0  0  0  0  0  0  0
  191.8520  176.4470  138.5680 C   0  0  0  0  0  2  0  0  0  0  0  0
  191.8480  176.3780  137.0530 C   0  0  1  0  0  3  0  0  0  0  0  0
  188.6720  175.0520  137.9640 N   0  0  0  0  0  1  0  0  0  0  0  0
  190.5580  175.9500  139.0260 N   0  0  0  0  0  0  0  0  0  0  0  0
  194.2950  176.6290  136.5130 C   0  0  0  0  0  2  0  0  0  0  0  0
  193.1460  175.7270  136.5290 C   0  0  1  0  0  3  0  0  0  0  0  0
  194.1540  175.6440  137.6030 N   0  0  0  0  0  0  0  0  0  0  0  0
  195.0230  174.5160  137.2880 C   0  0  2  0  0  3  0  0  0  0  0  0
  194.1770  173.3170  136.8830 C   0  0  0  0  0  1  0  0  0  0  0  0
  195.4300  174.8100  139.6280 F   0  0  0  0  0  0  0  0  0  0  0  0
  197.2180  174.5130  138.2680 F   0  0  0  0  0  0  0  0  0  0  0  0
  195.8950  174.1680  138.4940 C   0  0  0  0  0  3  0  0  0  0  0  0
  189.6380  177.4960  140.8770 C   0  0  2  0  0  3  0  0  0  0  0  0
  190.7200  176.9200  141.5710 O   0  0  0  0  0  0  0  0  0  0  0  0
  189.4550  176.3350  141.7900 C   0  0  1  0  0  3  0  0  0  0  0  0
  188.7300  177.7300  147.7250 C   0  0  0  0  0  3  0  0  0  0  0  0
  188.9190  176.7780  143.1110 C   0  0  0  0  0  0  0  0  0  0  0  0
  187.8860  177.5220  145.5760 C   0  0  0  0  0  0  0  0  0  0  0  0
  189.2010  177.1730  145.4710 C   0  0  0  0  0  0  0  0  0  0  0  0
  189.7500  176.7820  144.2490 C   0  0  0  0  0  3  0  0  0  0  0  0
  189.8690  177.2590  146.7930 C   0  0  0  0  0  3  0  0  0  0  0  0
  187.0280  177.5080  144.4750 C   0  0  0  0  0  2  0  0  0  0  0  0
  187.5270  177.8610  146.8990 N   0  0  0  0  0  0  0  0  0  0  0  0
  187.5560  177.1280  143.2330 C   0  0  0  0  0  3  0  0  0  0  0  0
  189.8050  178.2620  138.3640 C   0  0  0  0  0  2  0  0  0  0  0  0
  188.4880  178.5260  137.7040 C   0  0  0  0  0  3  0  0  0  0  0  0
  187.3880  178.2530  138.3010 N   0  0  0  0  0  0  0  0  0  0  0  0
  186.1410  178.5210  137.6430 C   0  0  0  0  0  2  0  0  0  0  0  0
  185.0290  178.6180  138.6710 C   0  0  0  0  0  1  0  0  0  0  0  0
  1 28  1  6  0  0  0
  2  3  1  0  0  0  0
  3  7  1  0  0  0  0
  4  7  1  0  0  0  0
  5  2  1  1  0  0  0
  5  4  1  0  0  0  0
  6  3  1  0  0  0  0
  7  1  1  0  0  0  0
  8 10  1  0  0  0  0
  9  8  1  6  0  0  0
  9  5  1  0  0  0  0
  9 10  1  0  0  0  0
 11 12  1  1  0  0  0
 11 10  1  0  0  0  0
 11 15  1  0  0  0  0
 14 15  1  0  0  0  0
 15 13  1  0  0  0  0
 16  1  1  6  0  0  0
 16 17  1  0  0  0  0
 16 18  1  0  0  0  0
 17 18  1  0  0  0  0
 18 20  1  1  0  0  0
 20 27  2  0  0  0  0
 20 23  1  0  0  0  0
 21 26  2  0  0  0  0
 22 21  1  0  0  0  0
 22 24  1  0  0  0  0
 23 22  2  0  0  0  0
 24 19  2  0  0  0  0
 25 21  1  0  0  0  0
 26 19  1  0  0  0  0
 27 25  1  0  0  0  0
 29 30  2  0  0  0  0
 29 28  1  0  0  0  0
 31 30  1  0  0  0  0
 31 32  1  0  0  0  0
M  END
>  <MODEL>
6

>  <REMARK>
 VINA RESULT:      -6.7      7.041      9.772
  Name = 
  9 active torsions:
  status: ('A' for Active; 'I' for Inactive)
    1  A    between atoms: C_2  and  C_22
    2  A    between atoms: C_3  and  C_11
    3  A    between atoms: C_6  and  C_15
    4  A    between atoms: N_8  and  C_24
    5  A    between atoms: C_13  and  C_20
    6  A    between atoms: C_15  and  C_22
    7  A    between atoms: C_15  and  N_32
    8  A    between atoms: C_19  and  C_28
    9  A    between atoms: C_19  and  N_29
                            x       y       z     vdW  Elec       q    Type
                         _______ _______ _______ _____ _____    ______ ____

>  <TORSDO>
F 9

$$$$
=
 OpenBabel11042410123D

 32 36  0  0  1  0  0  0  0  0999 V2000
  182.0420  178.2410  140.3620 C   0  0  1  0  0  3  0  0  0  0  0  0
  181.0220  179.1080  137.5140 C   0  0  0  0  0  2  0  0  0  0  0  0
  182.3450  179.1950  138.1030 N   0  0  0  0  0  0  0  0  0  0  0  0
  180.9760  180.2540  139.6140 C   0  0  0  0  0  2  0  0  0  0  0  0
  180.1300  179.9760  138.3870 C   0  0  1  0  0  3  0  0  0  0  0  0
  183.0440  177.9970  137.8660 N   0  0  0  0  0  1  0  0  0  0  0  0
  182.1860  179.4460  139.4960 N   0  0  0  0  0  0  0  0  0  0  0  0
  179.3020  182.3300  138.7320 C   0  0  0  0  0  2  0  0  0  0  0  0
  179.6290  181.2920  137.7550 C   0  0  1  0  0  3  0  0  0  0  0  0
  180.5870  182.3860  138.0060 N   0  0  0  0  0  0  0  0  0  0  0  0
  180.4340  183.3460  136.9200 C   0  0  2  0  0  3  0  0  0  0  0  0
  180.8070  182.6880  135.5990 C   0  0  0  0  0  1  0  0  0  0  0  0
  181.4700  185.3000  136.0050 F   0  0  0  0  0  0  0  0  0  0  0  0
  182.5530  184.2030  137.6660 F   0  0  0  0  0  0  0  0  0  0  0  0
  181.3130  184.5720  137.1710 C   0  0  0  0  0  3  0  0  0  0  0  0
  183.1940  177.9810  141.3670 C   0  0  2  0  0  3  0  0  0  0  0  0
  183.1300  178.8990  142.4340 O   0  0  0  0  0  0  0  0  0  0  0  0
  184.1580  179.1080  141.4900 C   0  0  1  0  0  3  0  0  0  0  0  0
  188.6570  177.1340  145.1720 C   0  0  0  0  0  3  0  0  0  0  0  0
  185.4590  178.6360  142.0500 C   0  0  0  0  0  0  0  0  0  0  0  0
  187.9010  177.8420  143.0980 C   0  0  1  0  0  3  0  0  0  0  0  0
  186.7960  177.8620  143.8980 C   0  0  0  0  0  0  0  0  0  0  0  0
  185.5540  178.2670  143.4070 C   0  0  0  0  0  3  0  0  0  0  0  0
  187.1430  177.4290  145.2740 C   0  0  0  0  0  3  0  0  0  0  0  0
  187.8470  178.2220  141.7550 C   0  0  0  0  0  3  0  0  0  0  0  0
  189.0570  177.4240  143.7930 N   0  0  0  0  0  0  0  0  0  0  0  0
  186.6100  178.6250  141.2330 C   0  0  0  0  0  3  0  0  0  0  0  0
  180.6100  178.0390  140.8680 C   0  0  0  0  0  2  0  0  0  0  0  0
  180.0520  176.7300  140.4020 C   0  0  0  0  0  3  0  0  0  0  0  0
  179.4980  175.9220  141.2270 N   0  0  0  0  0  0  0  0  0  0  0  0
  178.9700  174.6760  140.7490 C   0  0  0  0  0  2  0  0  0  0  0  0
  179.0910  173.6190  141.8300 C   0  0  0  0  0  1  0  0  0  0  0  0
  1 28  1  1  0  0  0
  2  3  1  0  0  0  0
  3  7  1  0  0  0  0
  5  2  1  6  0  0  0
  5  4  1  0  0  0  0
  6  3  1  0  0  0  0
  7  4  1  0  0  0  0
  7  1  1  0  0  0  0
  9 10  1  0  0  0  0
  9  5  1  0  0  0  0
  9  8  1  1  0  0  0
 10  8  1  0  0  0  0
 11 12  1  6  0  0  0
 11 15  1  0  0  0  0
 11 10  1  0  0  0  0
 13 15  1  0  0  0  0
 15 14  1  0  0  0  0
 16  1  1  6  0  0  0
 16 18  1  0  0  0  0
 16 17  1  0  0  0  0
 18 20  1  1  0  0  0
 18 17  1  0  0  0  0
 19 24  1  0  0  0  0
 20 23  2  0  0  0  0
 21 25  1  1  0  0  0
 21 26  1  0  0  0  0
 21 22  1  0  0  0  0
 22 24  2  0  0  0  0
 23 22  1  0  0  0  0
 26 19  2  0  0  0  0
 27 25  2  0  0  0  0
 27 20  1  0  0  0  0
 29 28  1  0  0  0  0
 29 30  2  0  0  0  0
 31 30  1  0  0  0  0
 31 32  1  0  0  0  0
M  END
>  <MODEL>
7

>  <REMARK>
 VINA RESULT:      -6.7      1.839      2.510
  Name = 
  9 active torsions:
  status: ('A' for Active; 'I' for Inactive)
    1  A    between atoms: C_2  and  C_22
    2  A    between atoms: C_3  and  C_11
    3  A    between atoms: C_6  and  C_15
    4  A    between atoms: N_8  and  C_24
    5  A    between atoms: C_13  and  C_20
    6  A    between atoms: C_15  and  C_22
    7  A    between atoms: C_15  and  N_32
    8  A    between atoms: C_19  and  C_28
    9  A    between atoms: C_19  and  N_29
                            x       y       z     vdW  Elec       q    Type
                         _______ _______ _______ _____ _____    ______ ____

>  <TORSDO>
F 9

$$$$
=
 OpenBabel11042410123D

 32 36  0  0  1  0  0  0  0  0999 V2000
  185.1000  178.5740  143.1370 C   0  0  1  0  0  3  0  0  0  0  0  0
  182.1790  179.4620  142.3720 C   0  0  0  0  0  2  0  0  0  0  0  0
  182.6380  178.4480  143.3040 N   0  0  0  0  0  0  0  0  0  0  0  0
  183.6760  177.9170  141.3240 C   0  0  0  0  0  2  0  0  0  0  0  0
  182.6840  179.0200  141.0090 C   0  0  1  0  0  3  0  0  0  0  0  0
  182.8540  179.0330  144.5640 N   0  0  0  0  0  1  0  0  0  0  0  0
  183.8310  177.8790  142.7750 N   0  0  0  0  0  0  0  0  0  0  0  0
  180.3580  179.2720  140.0750 C   0  0  0  0  0  2  0  0  0  0  0  0
  181.6140  178.5280  140.0110 C   0  0  1  0  0  3  0  0  0  0  0  0
  181.3290  179.5660  139.0020 N   0  0  0  0  0  0  0  0  0  0  0  0
  180.8720  178.8810  137.7990 C   0  0  2  0  0  3  0  0  0  0  0  0
  181.9400  177.9020  137.3320 C   0  0  0  0  0  1  0  0  0  0  0  0
  180.8510  181.1780  137.1290 F   0  0  0  0  0  0  0  0  0  0  0  0
  179.2360  179.8180  136.3080 F   0  0  0  0  0  0  0  0  0  0  0  0
  180.5630  179.8960  136.6980 C   0  0  0  0  0  3  0  0  0  0  0  0
  186.0090  177.8460  144.1610 C   0  0  2  0  0  3  0  0  0  0  0  0
  185.3990  177.8270  145.4310 O   0  0  0  0  0  0  0  0  0  0  0  0
  186.4860  178.7140  145.2720 C   0  0  1  0  0  3  0  0  0  0  0  0
  192.0340  176.3260  146.3750 C   0  0  0  0  0  3  0  0  0  0  0  0
  187.7040  178.1350  145.9120 C   0  0  0  0  0  0  0  0  0  0  0  0
  189.9300  176.9800  147.0970 C   0  0  0  0  0  0  0  0  0  0  0  0
  189.9560  177.2890  145.7690 C   0  0  2  0  0  3  0  0  0  0  0  0
  188.8500  177.8600  145.1380 C   0  0  0  0  0  3  0  0  0  0  0  0
  191.2610  176.9130  145.1730 C   0  0  0  0  0  3  0  0  0  0  0  0
  188.8060  177.2180  147.8900 C   0  0  0  0  0  3  0  0  0  0  0  0
  191.1380  176.3920  147.5330 N   0  0  0  0  0  0  0  0  0  0  0  0
  187.6830  177.7990  147.2830 C   0  0  0  0  0  3  0  0  0  0  0  0
  185.7840  179.2300  141.9330 C   0  0  0  0  0  2  0  0  0  0  0  0
  187.0840  178.5580  141.6190 C   0  0  0  0  0  3  0  0  0  0  0  0
  187.5860  178.6180  140.4410 N   0  0  0  0  0  0  0  0  0  0  0  0
  188.8360  177.9660  140.1710 C   0  0  0  0  0  2  0  0  0  0  0  0
  188.7720  177.2720  138.8240 C   0  0  0  0  0  1  0  0  0  0  0  0
  1 28  1  6  0  0  0
  2  3  1  0  0  0  0
  3  6  1  0  0  0  0
  4  7  1  0  0  0  0
  5  4  1  1  0  0  0
  5  2  1  0  0  0  0
  7  1  1  0  0  0  0
  7  3  1  0  0  0  0
  9  8  1  1  0  0  0
  9  5  1  0  0  0  0
 10  9  1  0  0  0  0
 10  8  1  0  0  0  0
 11 12  1  6  0  0  0
 11 10  1  0  0  0  0
 14 15  1  0  0  0  0
 15 13  1  0  0  0  0
 15 11  1  0  0  0  0
 16  1  1  6  0  0  0
 16 18  1  0  0  0  0
 16 17  1  0  0  0  0
 18 17  1  0  0  0  0
 18 20  1  1  0  0  0
 19 26  1  0  0  0  0
 20 27  1  0  0  0  0
 21 26  2  0  0  0  0
 21 25  1  0  0  0  0
 22 23  1  6  0  0  0
 22 21  1  0  0  0  0
 23 20  2  0  0  0  0
 24 22  1  0  0  0  0
 24 19  2  0  0  0  0
 27 25  2  0  0  0  0
 29 28  1  0  0  0  0
 30 29  2  0  0  0  0
 31 30  1  0  0  0  0
 32 31  1  0  0  0  0
M  END
>  <MODEL>
8

>  <REMARK>
 VINA RESULT:      -6.6      2.689      4.232
  Name = 
  9 active torsions:
  status: ('A' for Active; 'I' for Inactive)
    1  A    between atoms: C_2  and  C_22
    2  A    between atoms: C_3  and  C_11
    3  A    between atoms: C_6  and  C_15
    4  A    between atoms: N_8  and  C_24
    5  A    between atoms: C_13  and  C_20
    6  A    between atoms: C_15  and  C_22
    7  A    between atoms: C_15  and  N_32
    8  A    between atoms: C_19  and  C_28
    9  A    between atoms: C_19  and  N_29
                            x       y       z     vdW  Elec       q    Type
                         _______ _______ _______ _____ _____    ______ ____

>  <TORSDO>
F 9

$$$$
=
 OpenBabel11042410123D

 32 36  0  0  1  0  0  0  0  0999 V2000
  182.1180  179.0700  140.4230 C   0  0  1  0  0  3  0  0  0  0  0  0
  181.1180  179.0420  137.4390 C   0  0  0  0  0  2  0  0  0  0  0  0
  182.4130  179.3960  137.9920 N   0  0  0  0  0  0  0  0  0  0  0  0
  180.9210  180.7070  139.1460 C   0  0  0  0  0  2  0  0  0  0  0  0
  180.1360  180.0360  138.0360 C   0  0  1  0  0  3  0  0  0  0  0  0
  183.2100  178.2420  138.0960 N   0  0  0  0  0  1  0  0  0  0  0  0
  182.1930  180.0020  139.2620 N   0  0  0  0  0  0  0  0  0  0  0  0
  178.9950  182.2610  137.7310 C   0  0  0  0  0  2  0  0  0  0  0  0
  179.5520  181.0850  137.0660 C   0  0  1  0  0  3  0  0  0  0  0  0
  180.3360  182.3330  137.1170 N   0  0  0  0  0  0  0  0  0  0  0  0
  180.1890  182.9850  135.8210 C   0  0  2  0  0  3  0  0  0  0  0  0
  180.8030  182.1110  134.7370 C   0  0  0  0  0  1  0  0  0  0  0  0
  181.6850  184.4760  136.9460 F   0  0  0  0  0  0  0  0  0  0  0  0
  179.9190  185.3740  135.8460 F   0  0  0  0  0  0  0  0  0  0  0  0
  180.8610  184.3580  135.8410 C   0  0  0  0  0  3  0  0  0  0  0  0
  183.1460  179.3110  141.5600 C   0  0  2  0  0  3  0  0  0  0  0  0
  184.4520  179.3650  141.0360 O   0  0  0  0  0  0  0  0  0  0  0  0
  184.1130  178.1950  141.7480 C   0  0  1  0  0  3  0  0  0  0  0  0
  187.8680  177.7280  146.5840 C   0  0  0  0  0  3  0  0  0  0  0  0
  184.7200  178.2440  143.1120 C   0  0  0  0  0  0  0  0  0  0  0  0
  185.8080  178.2590  145.6630 C   0  0  0  0  0  0  0  0  0  0  0  0
  186.5730  177.8650  144.6050 C   0  0  2  0  0  3  0  0  0  0  0  0
  186.0540  177.8340  143.3090 C   0  0  0  0  0  3  0  0  0  0  0  0
  187.9340  177.4880  145.0590 C   0  0  0  0  0  3  0  0  0  0  0  0
  184.4760  178.6490  145.5080 C   0  0  0  0  0  3  0  0  0  0  0  0
  186.5130  178.1960  146.8860 N   0  0  0  0  0  0  0  0  0  0  0  0
  183.9320  178.6370  144.2160 C   0  0  0  0  0  3  0  0  0  0  0  0
  180.6780  178.7460  140.8360 C   0  0  0  0  0  2  0  0  0  0  0  0
  180.2350  177.4350  140.2650 C   0  0  0  0  0  3  0  0  0  0  0  0
  181.0390  176.4380  140.2090 N   0  0  0  0  0  0  0  0  0  0  0  0
  180.5840  175.1930  139.6600 C   0  0  0  0  0  2  0  0  0  0  0  0
  179.5910  174.5470  140.6070 C   0  0  0  0  0  1  0  0  0  0  0  0
  1 28  1  1  0  0  0
  2  3  1  0  0  0  0
  3  6  1  0  0  0  0
  3  7  1  0  0  0  0
  4  7  1  0  0  0  0
  5  2  1  6  0  0  0
  5  4  1  0  0  0  0
  7  1  1  0  0  0  0
  9 10  1  0  0  0  0
  9  8  1  1  0  0  0
  9  5  1  0  0  0  0
 10  8  1  0  0  0  0
 11 12  1  6  0  0  0
 11 15  1  0  0  0  0
 11 10  1  0  0  0  0
 15 14  1  0  0  0  0
 15 13  1  0  0  0  0
 16  1  1  6  0  0  0
 16 18  1  0  0  0  0
 17 16  1  0  0  0  0
 17 18  1  0  0  0  0
 18 20  1  1  0  0  0
 19 26  1  0  0  0  0
 20 23  2  0  0  0  0
 20 27  1  0  0  0  0
 21 26  2  0  0  0  0
 22 23  1  1  0  0  0
 22 24  1  0  0  0  0
 22 21  1  0  0  0  0
 24 19  2  0  0  0  0
 25 21  1  0  0  0  0
 27 25  2  0  0  0  0
 29 28  1  0  0  0  0
 30 29  2  0  0  0  0
 31 30  1  0  0  0  0
 31 32  1  0  0  0  0
M  END
>  <MODEL>
9

>  <REMARK>
 VINA RESULT:      -6.6      1.768      2.352
  Name = 
  9 active torsions:
  status: ('A' for Active; 'I' for Inactive)
    1  A    between atoms: C_2  and  C_22
    2  A    between atoms: C_3  and  C_11
    3  A    between atoms: C_6  and  C_15
    4  A    between atoms: N_8  and  C_24
    5  A    between atoms: C_13  and  C_20
    6  A    between atoms: C_15  and  C_22
    7  A    between atoms: C_15  and  N_32
    8  A    between atoms: C_19  and  C_28
    9  A    between atoms: C_19  and  N_29
                            x       y       z     vdW  Elec       q    Type
                         _______ _______ _______ _____ _____    ______ ____

>  <TORSDO>
F 9

$$$$
