=
 OpenBabel11042412573D

 42 46  0  0  1  0  0  0  0  0999 V2000
  189.5240  176.8160  143.9960 C   0  0  1  0  0  3  0  0  0  0  0  0
  185.9840  178.5080  141.4710 O   0  0  0  0  0  0  0  0  0  0  0  0
  182.6230  178.8690  143.1330 C   0  0  0  0  0  0  0  0  0  0  0  0
  185.0910  178.6010  142.5560 C   0  0  0  0  0  0  0  0  0  0  0  0
  185.6120  178.5500  143.7600 C   0  0  0  0  0  3  0  0  0  0  0  0
  188.5180  177.4340  146.1190 C   0  0  0  0  0  0  0  0  0  0  0  0
  182.7510  178.9980  144.5610 N   0  0  0  0  0  2  0  0  0  0  0  0
  189.5840  177.1880  145.4180 N   0  0  0  0  0  0  0  0  0  0  0  0
  183.8310  178.7300  145.4650 C   0  0  0  0  0  3  0  0  0  0  0  0
  187.9990  177.4470  142.4570 C   0  0  0  0  0  2  0  0  0  0  0  0
  187.2410  177.3840  145.5140 N   0  0  0  0  0  2  0  0  0  0  0  0
  188.5740  177.9240  147.5030 C   0  0  0  0  0  3  0  0  0  0  0  0
  183.6530  178.6940  142.2890 C   0  0  0  0  0  3  0  0  0  0  0  0
  185.0880  178.4950  145.1110 C   0  0  0  0  0  0  0  0  0  0  0  0
  187.4160  178.5920  141.6090 C   0  0  0  0  0  2  0  0  0  0  0  0
  186.2720  178.6410  147.2910 C   0  0  0  0  0  3  0  0  0  0  0  0
  189.0900  177.9080  143.2160 O   0  0  0  0  0  0  0  0  0  0  0  0
  187.5020  178.4580  148.0310 N   0  0  0  0  0  0  0  0  0  0  0  0
  186.1470  178.1230  146.0600 C   0  0  0  0  0  0  0  0  0  0  0  0
  180.2600  179.1800  143.4210 F   0  0  0  0  0  0  0  0  0  0  0  0
  181.2970  178.9550  142.5840 N   0  0  0  0  0  0  0  0  0  0  0  0
  179.9100  177.5760  141.1220 C   0  0  0  0  0  2  0  0  0  0  0  0
  180.5870  179.8690  140.4240 C   0  0  0  0  0  2  0  0  0  0  0  0
  179.5650  178.2790  138.7520 C   0  0  0  0  0  0  0  0  0  0  0  0
  178.9310  178.1100  137.6790 O   0  0  0  0  0  0  0  0  0  0  0  0
  180.1890  179.5480  139.0540 N   0  0  0  0  0  0  0  0  0  0  0  0
  180.2880  180.6090  138.0950 C   0  0  0  0  0  3  0  0  0  0  0  0
  181.0140  178.6220  141.1910 C   0  0  1  0  0  3  0  0  0  0  0  0
  179.7210  177.1150  139.6830 C   0  0  0  0  0  2  0  0  0  0  0  0
  179.9270  180.4580  136.8980 O   0  0  0  0  0  0  0  0  0  0  0  0
  190.9110  176.3730  143.5490 C   0  0  0  0  0  2  0  0  0  0  0  0
  191.6790  177.5030  142.8810 C   0  0  0  0  0  2  0  0  0  0  0  0
  192.2270  177.0470  141.5430 C   0  0  0  0  0  2  0  0  0  0  0  0
  191.2470  177.4060  140.4430 C   0  0  0  0  0  2  0  0  0  0  0  0
  190.4760  176.2880  140.1130 O   0  0  0  0  0  0  0  0  0  0  0  0
  190.4390  176.6530  136.5220 C   0  0  0  0  0  3  0  0  0  0  0  0
  189.8420  176.6210  138.9120 C   0  0  2  0  0  3  0  0  0  0  0  0
  189.1700  178.5610  137.4620 C   0  0  0  0  0  0  0  0  0  0  0  0
  188.6940  179.6720  137.2870 O   0  0  0  0  0  0  0  0  0  0  0  0
  190.6910  176.1800  137.7490 C   0  0  0  0  0  3  0  0  0  0  0  0
  189.5720  178.1300  138.8530 C   0  0  0  0  0  2  0  0  0  0  0  0
  189.3120  177.6230  136.2910 C   0  0  0  0  0  2  0  0  0  0  0  0
  1 31  1  6  0  0  0
  1  8  1  0  0  0  0
  2 15  1  0  0  0  0
  2  4  1  0  0  0  0
  3  7  1  0  0  0  0
  4  5  2  0  0  0  0
  5 14  1  0  0  0  0
  6 12  1  0  0  0  0
  7  9  1  0  0  0  0
  8  6  2  0  0  0  0
 10 17  1  0  0  0  0
 11 19  1  0  0  0  0
 11  6  1  0  0  0  0
 12 18  2  0  0  0  0
 13  4  1  0  0  0  0
 13  3  2  0  0  0  0
 14  9  2  0  0  0  0
 14 19  1  0  0  0  0
 15 10  1  0  0  0  0
 16 18  1  0  0  0  0
 17  1  1  0  0  0  0
 19 16  2  0  0  0  0
 21  3  1  0  0  0  0
 21 20  1  0  0  0  0
 22 28  1  0  0  0  0
 23 28  1  0  0  0  0
 24 26  1  0  0  0  0
 24 29  1  0  0  0  0
 25 24  2  0  0  0  0
 26 23  1  0  0  0  0
 27 26  1  0  0  0  0
 28 21  1  1  0  0  0
 29 22  1  0  0  0  0
 30 27  2  0  0  0  0
 32 31  1  0  0  0  0
 33 32  1  0  0  0  0
 34 33  1  0  0  0  0
 35 34  1  0  0  0  0
 36 40  2  0  0  0  0
 37 35  1  1  0  0  0
 38 41  1  0  0  0  0
 39 38  2  0  0  0  0
 40 37  1  0  0  0  0
 41 37  1  0  0  0  0
 42 36  1  0  0  0  0
 42 38  1  0  0  0  0
M  END
>  <MODEL>
1

>  <REMARK>
 VINA RESULT:      -9.7      0.000      0.000
  Name = 
  8 active torsions:
  status: ('A' for Active; 'I' for Inactive)
    1  A    between atoms: C_2  and  C_20
    2  A    between atoms: C_4  and  O_33
    3  A    between atoms: C_5  and  N_27
    4  A    between atoms: C_12  and  O_33
    5  A    between atoms: C_12  and  C_37
    6  A    between atoms: C_20  and  C_24
    7  A    between atoms: C_24  and  C_37
    8  A    between atoms: N_27  and  C_34
                            x       y       z     vdW  Elec       q    Type
                         _______ _______ _______ _____ _____    ______ ____

>  <TORSDO>
F 8

$$$$
=
 OpenBabel11042412573D

 42 46  0  0  1  0  0  0  0  0999 V2000
  183.8950  178.5940  143.1400 C   0  0  1  0  0  3  0  0  0  0  0  0
  187.8500  178.3810  140.6730 O   0  0  0  0  0  0  0  0  0  0  0  0
  187.6790  177.0820  137.1420 C   0  0  0  0  0  0  0  0  0  0  0  0
  187.2220  178.0330  139.4620 C   0  0  0  0  0  0  0  0  0  0  0  0
  185.9280  178.2370  139.3840 C   0  0  0  0  0  3  0  0  0  0  0  0
  182.4780  178.6520  141.1680 C   0  0  0  0  0  0  0  0  0  0  0  0
  186.3660  177.2550  136.5780 N   0  0  0  0  0  0  0  0  0  0  0  0
  182.6630  178.9480  142.4190 N   0  0  0  0  0  0  0  0  0  0  0  0
  185.0890  177.5380  137.1660 C   0  0  0  0  0  3  0  0  0  0  0  0
  185.9880  178.4170  142.3120 C   0  0  0  0  0  2  0  0  0  0  0  0
  183.4930  177.9940  140.4350 N   0  0  0  0  0  2  0  0  0  0  0  0
  181.3050  179.1060  140.4090 C   0  0  0  0  0  3  0  0  0  0  0  0
  188.0210  177.4240  138.3950 C   0  0  0  0  0  2  0  0  0  0  0  0
  184.8910  177.9360  138.4160 C   0  0  0  0  0  0  0  0  0  0  0  0
  187.2070  179.1420  141.7140 C   0  0  0  0  0  2  0  0  0  0  0  0
  182.5060  178.6300  138.3620 C   0  0  0  0  0  3  0  0  0  0  0  0
  184.9870  179.3440  142.6540 O   0  0  0  0  0  0  0  0  0  0  0  0
  181.3380  179.0600  139.1010 N   0  0  0  0  0  0  0  0  0  0  0  0
  183.5590  178.1170  139.0130 C   0  0  0  0  0  0  0  0  0  0  0  0
  188.5520  176.6460  134.9480 F   0  0  0  0  0  0  0  0  0  0  0  0
  188.6900  176.5210  136.2870 N   0  0  0  0  0  0  0  0  0  0  0  0
  189.9450  174.4650  135.8880 C   0  0  0  0  0  2  0  0  0  0  0  0
  191.0600  176.4460  136.9080 C   0  0  0  0  0  2  0  0  0  0  0  0
  192.2010  174.1950  136.9230 C   0  0  0  0  0  0  0  0  0  0  0  0
  193.2690  173.5320  136.9780 O   0  0  0  0  0  0  0  0  0  0  0  0
  192.1690  175.5860  137.3180 N   0  0  0  0  0  0  0  0  0  0  0  0
  193.2750  176.2330  137.9610 C   0  0  0  0  0  3  0  0  0  0  0  0
  189.7530  175.6650  136.8050 C   0  0  1  0  0  3  0  0  0  0  0  0
  190.9430  173.4940  136.5060 C   0  0  0  0  0  2  0  0  0  0  0  0
  194.3040  175.5970  138.3120 O   0  0  0  0  0  0  0  0  0  0  0  0
  183.6900  178.8720  144.6230 C   0  0  0  0  0  2  0  0  0  0  0  0
  184.9960  179.2150  145.3230 C   0  0  0  0  0  2  0  0  0  0  0  0
  185.2190  178.2910  146.5040 C   0  0  0  0  0  2  0  0  0  0  0  0
  186.6890  177.9320  146.5980 C   0  0  0  0  0  2  0  0  0  0  0  0
  187.2930  178.0770  145.3460 O   0  0  0  0  0  0  0  0  0  0  0  0
  190.2350  177.0460  147.1670 C   0  0  0  0  0  3  0  0  0  0  0  0
  188.5080  177.3930  145.4440 C   0  0  2  0  0  3  0  0  0  0  0  0
  190.9460  177.5260  144.8440 C   0  0  0  0  0  0  0  0  0  0  0  0
  191.8630  177.7550  144.0710 O   0  0  0  0  0  0  0  0  0  0  0  0
  188.9690  177.3750  146.8770 C   0  0  0  0  0  3  0  0  0  0  0  0
  189.5610  178.0460  144.5380 C   0  0  0  0  0  2  0  0  0  0  0  0
  191.2040  176.6920  146.0720 C   0  0  0  0  0  2  0  0  0  0  0  0
  1 31  1  1  0  0  0
  2 15  1  0  0  0  0
  3 13  1  0  0  0  0
  4  2  1  0  0  0  0
  5  4  2  0  0  0  0
  6  8  2  0  0  0  0
  7  3  2  0  0  0  0
  7  9  1  0  0  0  0
  8  1  1  0  0  0  0
  9 14  2  0  0  0  0
 10 17  1  0  0  0  0
 11  6  1  0  0  0  0
 12  6  1  0  0  0  0
 13  4  1  0  0  0  0
 14 19  1  0  0  0  0
 14  5  1  0  0  0  0
 15 10  1  0  0  0  0
 16 19  2  0  0  0  0
 16 18  1  0  0  0  0
 17  1  1  0  0  0  0
 18 12  2  0  0  0  0
 19 11  1  0  0  0  0
 20 21  1  0  0  0  0
 21  3  1  0  0  0  0
 22 29  1  0  0  0  0
 22 28  1  0  0  0  0
 23 26  1  0  0  0  0
 24 25  2  0  0  0  0
 24 26  1  0  0  0  0
 26 27  1  0  0  0  0
 27 30  2  0  0  0  0
 28 21  1  6  0  0  0
 28 23  1  0  0  0  0
 29 24  1  0  0  0  0
 31 32  1  0  0  0  0
 32 33  1  0  0  0  0
 33 34  1  0  0  0  0
 35 34  1  0  0  0  0
 37 35  1  1  0  0  0
 37 40  1  0  0  0  0
 38 42  1  0  0  0  0
 39 38  2  0  0  0  0
 40 36  2  0  0  0  0
 41 38  1  0  0  0  0
 41 37  1  0  0  0  0
 42 36  1  0  0  0  0
M  END
>  <MODEL>
2

>  <REMARK>
 VINA RESULT:      -8.9      3.668      9.099
  Name = 
  8 active torsions:
  status: ('A' for Active; 'I' for Inactive)
    1  A    between atoms: C_2  and  C_20
    2  A    between atoms: C_4  and  O_33
    3  A    between atoms: C_5  and  N_27
    4  A    between atoms: C_12  and  O_33
    5  A    between atoms: C_12  and  C_37
    6  A    between atoms: C_20  and  C_24
    7  A    between atoms: C_24  and  C_37
    8  A    between atoms: N_27  and  C_34
                            x       y       z     vdW  Elec       q    Type
                         _______ _______ _______ _____ _____    ______ ____

>  <TORSDO>
F 8

$$$$
=
 OpenBabel11042412573D

 42 46  0  0  1  0  0  0  0  0999 V2000
  189.3450  177.5260  139.5120 C   0  0  1  0  0  3  0  0  0  0  0  0
  185.3050  179.4290  140.8640 O   0  0  0  0  0  0  0  0  0  0  0  0
  182.4490  179.4790  138.4090 C   0  0  0  0  0  0  0  0  0  0  0  0
  184.5920  179.0350  139.7160 C   0  0  0  0  0  0  0  0  0  0  0  0
  185.1310  178.0950  138.9750 C   0  0  0  0  0  3  0  0  0  0  0  0
  188.3130  176.1700  137.7810 C   0  0  0  0  0  0  0  0  0  0  0  0
  182.5780  178.4340  137.4270 N   0  0  0  0  0  0  0  0  0  0  0  0
  189.2810  176.3530  138.6280 N   0  0  0  0  0  0  0  0  0  0  0  0
  183.6800  177.6040  137.0350 C   0  0  0  0  0  3  0  0  0  0  0  0
  187.6280  178.6980  140.3930 C   0  0  0  0  0  2  0  0  0  0  0  0
  187.2490  177.0990  137.7060 N   0  0  0  0  0  2  0  0  0  0  0  0
  188.1770  174.9450  136.9820 C   0  0  0  0  0  3  0  0  0  0  0  0
  183.3380  179.7190  139.3870 C   0  0  0  0  0  2  0  0  0  0  0  0
  184.8240  177.4820  137.6980 C   0  0  0  0  0  0  0  0  0  0  0  0
  186.4450  178.7140  141.3780 C   0  0  0  0  0  2  0  0  0  0  0  0
  185.8640  175.5270  136.5720 C   0  0  0  0  0  3  0  0  0  0  0  0
  188.3180  177.4750  140.4790 O   0  0  0  0  0  0  0  0  0  0  0  0
  187.0300  174.6840  136.4090 N   0  0  0  0  0  0  0  0  0  0  0  0
  185.9700  176.7010  137.2110 C   0  0  0  0  0  0  0  0  0  0  0  0
  180.1610  179.9050  138.9990 F   0  0  0  0  0  0  0  0  0  0  0  0
  181.2720  180.3010  138.3380 N   0  0  0  0  0  0  0  0  0  0  0  0
  180.5940  180.9990  136.0990 C   0  0  0  0  0  2  0  0  0  0  0  0
  180.3000  182.5310  138.0400 C   0  0  0  0  0  2  0  0  0  0  0  0
  180.0470  183.3980  135.6840 C   0  0  0  0  0  0  0  0  0  0  0  0
  179.5590  184.2530  134.9000 O   0  0  0  0  0  0  0  0  0  0  0  0
  180.0970  183.6400  137.1090 N   0  0  0  0  0  0  0  0  0  0  0  0
  179.7800  184.9110  137.6900 C   0  0  0  0  0  3  0  0  0  0  0  0
  181.1790  181.4420  137.4320 C   0  0  1  0  0  3  0  0  0  0  0  0
  180.6400  182.1510  135.1030 C   0  0  0  0  0  2  0  0  0  0  0  0
  179.5380  185.9240  136.9800 O   0  0  0  0  0  0  0  0  0  0  0  0
  190.7050  177.5480  140.1970 C   0  0  0  0  0  2  0  0  0  0  0  0
  190.6480  176.9520  141.5940 C   0  0  0  0  0  2  0  0  0  0  0  0
  191.6990  177.5890  142.4820 C   0  0  0  0  0  2  0  0  0  0  0  0
  191.0250  178.2910  143.6450 C   0  0  0  0  0  2  0  0  0  0  0  0
  190.9310  177.4200  144.7340 O   0  0  0  0  0  0  0  0  0  0  0  0
  188.5920  177.1250  147.4670 C   0  0  0  0  0  3  0  0  0  0  0  0
  189.7820  177.8160  145.4230 C   0  0  2  0  0  3  0  0  0  0  0  0
  187.2750  177.6260  145.4310 C   0  0  0  0  0  0  0  0  0  0  0  0
  186.1840  177.6370  144.8830 O   0  0  0  0  0  0  0  0  0  0  0  0
  189.7330  177.1350  146.7660 C   0  0  0  0  0  3  0  0  0  0  0  0
  188.5290  177.4910  144.5990 C   0  0  0  0  0  2  0  0  0  0  0  0
  187.3540  177.7880  146.9270 C   0  0  0  0  0  2  0  0  0  0  0  0
  1 31  1  1  0  0  0
  1 17  1  0  0  0  0
  2 15  1  0  0  0  0
  3 13  1  0  0  0  0
  4  2  1  0  0  0  0
  5  4  2  0  0  0  0
  6  8  2  0  0  0  0
  7  3  2  0  0  0  0
  8  1  1  0  0  0  0
  9  7  1  0  0  0  0
  9 14  2  0  0  0  0
 10 17  1  0  0  0  0
 10 15  1  0  0  0  0
 11  6  1  0  0  0  0
 12  6  1  0  0  0  0
 13  4  1  0  0  0  0
 14  5  1  0  0  0  0
 16 19  2  0  0  0  0
 18 16  1  0  0  0  0
 18 12  2  0  0  0  0
 19 14  1  0  0  0  0
 19 11  1  0  0  0  0
 21  3  1  0  0  0  0
 21 20  1  0  0  0  0
 22 28  1  0  0  0  0
 24 26  1  0  0  0  0
 25 24  2  0  0  0  0
 26 27  1  0  0  0  0
 26 23  1  0  0  0  0
 28 23  1  0  0  0  0
 28 21  1  1  0  0  0
 29 24  1  0  0  0  0
 29 22  1  0  0  0  0
 30 27  2  0  0  0  0
 31 32  1  0  0  0  0
 32 33  1  0  0  0  0
 33 34  1  0  0  0  0
 34 35  1  0  0  0  0
 37 35  1  6  0  0  0
 37 40  1  0  0  0  0
 38 42  1  0  0  0  0
 39 38  2  0  0  0  0
 40 36  2  0  0  0  0
 41 37  1  0  0  0  0
 41 38  1  0  0  0  0
 42 36  1  0  0  0  0
M  END
>  <MODEL>
3

>  <REMARK>
 VINA RESULT:      -8.8      3.555      6.609
  Name = 
  8 active torsions:
  status: ('A' for Active; 'I' for Inactive)
    1  A    between atoms: C_2  and  C_20
    2  A    between atoms: C_4  and  O_33
    3  A    between atoms: C_5  and  N_27
    4  A    between atoms: C_12  and  O_33
    5  A    between atoms: C_12  and  C_37
    6  A    between atoms: C_20  and  C_24
    7  A    between atoms: C_24  and  C_37
    8  A    between atoms: N_27  and  C_34
                            x       y       z     vdW  Elec       q    Type
                         _______ _______ _______ _____ _____    ______ ____

>  <TORSDO>
F 8

$$$$
=
 OpenBabel11042412573D

 42 46  0  0  1  0  0  0  0  0999 V2000
  188.2220  178.5960  141.3380 C   0  0  1  0  0  3  0  0  0  0  0  0
  183.6350  178.6660  142.1910 O   0  0  0  0  0  0  0  0  0  0  0  0
  181.2840  179.0010  139.2670 C   0  0  0  0  0  0  0  0  0  0  0  0
  183.2560  178.6170  140.8360 C   0  0  0  0  0  0  0  0  0  0  0  0
  184.1740  178.2420  139.9760 C   0  0  0  0  0  3  0  0  0  0  0  0
  187.9470  177.8690  139.0370 C   0  0  0  0  0  0  0  0  0  0  0  0
  181.8870  178.5300  138.0480 N   0  0  0  0  0  0  0  0  0  0  0  0
  188.6750  177.9230  140.1120 N   0  0  0  0  0  0  0  0  0  0  0  0
  183.2460  178.2500  137.6840 C   0  0  0  0  0  3  0  0  0  0  0  0
  186.1100  178.8150  142.1050 C   0  0  0  0  0  2  0  0  0  0  0  0
  186.6530  178.4390  139.0240 N   0  0  0  0  0  2  0  0  0  0  0  0
  188.3380  177.0960  137.8500 C   0  0  0  0  0  3  0  0  0  0  0  0
  181.9010  179.0310  140.4600 C   0  0  0  0  0  2  0  0  0  0  0  0
  184.2640  178.1590  138.5310 C   0  0  0  0  0  0  0  0  0  0  0  0
  184.8700  178.1180  142.6930 C   0  0  0  0  0  2  0  0  0  0  0  0
  186.0410  177.1850  137.0940 C   0  0  0  0  0  3  0  0  0  0  0  0
  187.1530  177.8880  141.9270 O   0  0  0  0  0  0  0  0  0  0  0  0
  187.4330  176.8140  136.9480 N   0  0  0  0  0  0  0  0  0  0  0  0
  185.6600  177.9720  138.1100 C   0  0  0  0  0  0  0  0  0  0  0  0
  178.9320  178.5790  139.5050 F   0  0  0  0  0  0  0  0  0  0  0  0
  179.9200  179.4480  139.1930 N   0  0  0  0  0  0  0  0  0  0  0  0
  179.4570  181.7890  139.7120 C   0  0  0  0  0  2  0  0  0  0  0  0
  180.6030  181.1700  137.5890 C   0  0  0  0  0  2  0  0  0  0  0  0
  179.7090  183.5070  137.9190 C   0  0  0  0  0  0  0  0  0  0  0  0
  179.7580  184.7280  137.6220 O   0  0  0  0  0  0  0  0  0  0  0  0
  180.3290  182.5110  137.0730 N   0  0  0  0  0  0  0  0  0  0  0  0
  180.8610  182.8180  135.7790 C   0  0  0  0  0  3  0  0  0  0  0  0
  179.5600  180.7390  138.6150 C   0  0  1  0  0  3  0  0  0  0  0  0
  178.9320  183.0960  139.1330 C   0  0  0  0  0  2  0  0  0  0  0  0
  180.7270  183.9580  135.2590 O   0  0  0  0  0  0  0  0  0  0  0  0
  189.3910  178.6770  142.3110 C   0  0  0  0  0  2  0  0  0  0  0  0
  190.1740  177.3750  142.3690 C   0  0  0  0  0  2  0  0  0  0  0  0
  191.4300  177.5530  143.1980 C   0  0  0  0  0  2  0  0  0  0  0  0
  191.0540  177.8950  144.6270 C   0  0  0  0  0  2  0  0  0  0  0  0
  190.1560  176.9440  145.1200 O   0  0  0  0  0  0  0  0  0  0  0  0
  188.4410  177.5070  148.2460 C   0  0  0  0  0  3  0  0  0  0  0  0
  189.2720  177.6600  145.9320 C   0  0  2  0  0  3  0  0  0  0  0  0
  186.8330  178.0080  146.4310 C   0  0  0  0  0  0  0  0  0  0  0  0
  185.6700  178.1790  146.0990 O   0  0  0  0  0  0  0  0  0  0  0  0
  189.3880  177.1850  147.3560 C   0  0  0  0  0  3  0  0  0  0  0  0
  187.8340  177.5050  145.4180 C   0  0  0  0  0  2  0  0  0  0  0  0
  187.2580  178.3420  147.8380 C   0  0  0  0  0  2  0  0  0  0  0  0
  1 17  1  0  0  0  0
  1 31  1  1  0  0  0
  2 15  1  0  0  0  0
  3 13  1  0  0  0  0
  4  2  1  0  0  0  0
  5  4  2  0  0  0  0
  6  8  2  0  0  0  0
  7  3  2  0  0  0  0
  8  1  1  0  0  0  0
  9  7  1  0  0  0  0
  9 14  2  0  0  0  0
 10 15  1  0  0  0  0
 11  6  1  0  0  0  0
 12  6  1  0  0  0  0
 13  4  1  0  0  0  0
 14  5  1  0  0  0  0
 16 19  2  0  0  0  0
 17 10  1  0  0  0  0
 18 16  1  0  0  0  0
 18 12  2  0  0  0  0
 19 14  1  0  0  0  0
 19 11  1  0  0  0  0
 21  3  1  0  0  0  0
 21 20  1  0  0  0  0
 23 28  1  0  0  0  0
 24 29  1  0  0  0  0
 25 24  2  0  0  0  0
 26 23  1  0  0  0  0
 26 24  1  0  0  0  0
 27 26  1  0  0  0  0
 28 21  1  1  0  0  0
 28 22  1  0  0  0  0
 29 22  1  0  0  0  0
 30 27  2  0  0  0  0
 31 32  1  0  0  0  0
 32 33  1  0  0  0  0
 33 34  1  0  0  0  0
 34 35  1  0  0  0  0
 37 35  1  6  0  0  0
 37 40  1  0  0  0  0
 38 42  1  0  0  0  0
 39 38  2  0  0  0  0
 40 36  2  0  0  0  0
 41 37  1  0  0  0  0
 41 38  1  0  0  0  0
 42 36  1  0  0  0  0
M  END
>  <MODEL>
4

>  <REMARK>
 VINA RESULT:      -8.7      3.066      6.311
  Name = 
  8 active torsions:
  status: ('A' for Active; 'I' for Inactive)
    1  A    between atoms: C_2  and  C_20
    2  A    between atoms: C_4  and  O_33
    3  A    between atoms: C_5  and  N_27
    4  A    between atoms: C_12  and  O_33
    5  A    between atoms: C_12  and  C_37
    6  A    between atoms: C_20  and  C_24
    7  A    between atoms: C_24  and  C_37
    8  A    between atoms: N_27  and  C_34
                            x       y       z     vdW  Elec       q    Type
                         _______ _______ _______ _____ _____    ______ ____

>  <TORSDO>
F 8

$$$$
=
 OpenBabel11042412573D

 42 46  0  0  1  0  0  0  0  0999 V2000
  183.7820  178.6280  144.0140 C   0  0  1  0  0  3  0  0  0  0  0  0
  186.4840  178.4290  140.2150 O   0  0  0  0  0  0  0  0  0  0  0  0
  184.8710  177.5510  136.9260 C   0  0  0  0  0  0  0  0  0  0  0  0
  185.4160  178.2630  139.3120 C   0  0  0  0  0  0  0  0  0  0  0  0
  184.2160  178.5610  139.7510 C   0  0  0  0  0  3  0  0  0  0  0  0
  181.7460  179.0030  142.7440 C   0  0  0  0  0  0  0  0  0  0  0  0
  183.4680  177.8750  136.9220 N   0  0  0  0  0  0  0  0  0  0  0  0
  182.4150  179.1430  143.8490 N   0  0  0  0  0  0  0  0  0  0  0  0
  182.5410  178.1750  137.9740 C   0  0  0  0  0  3  0  0  0  0  0  0
  185.3840  178.4050  142.4380 C   0  0  0  0  0  2  0  0  0  0  0  0
  182.3390  178.3660  141.6290 N   0  0  0  0  0  2  0  0  0  0  0  0
  180.4290  179.6180  142.5290 C   0  0  0  0  0  3  0  0  0  0  0  0
  185.6900  177.7260  137.9760 C   0  0  0  0  0  2  0  0  0  0  0  0
  182.8670  178.4410  139.2320 C   0  0  0  0  0  0  0  0  0  0  0  0
  186.3600  179.1100  141.4790 C   0  0  0  0  0  2  0  0  0  0  0  0
  180.7210  179.2960  140.1480 C   0  0  0  0  0  3  0  0  0  0  0  0
  184.6860  179.3530  143.2080 O   0  0  0  0  0  0  0  0  0  0  0  0
  179.9660  179.7180  141.3090 N   0  0  0  0  0  0  0  0  0  0  0  0
  181.8820  178.6430  140.3050 C   0  0  0  0  0  0  0  0  0  0  0  0
  185.7530  177.8820  134.7180 F   0  0  0  0  0  0  0  0  0  0  0  0
  185.4250  177.0240  135.7090 N   0  0  0  0  0  0  0  0  0  0  0  0
  186.9110  175.1130  135.3900 C   0  0  0  0  0  2  0  0  0  0  0  0
  184.7070  174.8230  136.5130 C   0  0  0  0  0  2  0  0  0  0  0  0
  186.0290  172.8080  135.7650 C   0  0  0  0  0  0  0  0  0  0  0  0
  186.2870  171.5830  135.8940 O   0  0  0  0  0  0  0  0  0  0  0  0
  184.8250  173.3770  136.3280 N   0  0  0  0  0  0  0  0  0  0  0  0
  183.7800  172.5740  136.8900 C   0  0  0  0  0  3  0  0  0  0  0  0
  185.4670  175.5900  135.4360 C   0  0  1  0  0  3  0  0  0  0  0  0
  186.9630  173.6550  134.9530 C   0  0  0  0  0  2  0  0  0  0  0  0
  183.8050  171.3150  136.8320 O   0  0  0  0  0  0  0  0  0  0  0  0
  184.1770  178.7510  145.4800 C   0  0  0  0  0  2  0  0  0  0  0  0
  185.6540  179.0720  145.6460 C   0  0  0  0  0  2  0  0  0  0  0  0
  186.2400  178.2760  146.7950 C   0  0  0  0  0  2  0  0  0  0  0  0
  187.5110  177.5860  146.3390 C   0  0  0  0  0  2  0  0  0  0  0  0
  187.5150  177.4720  144.9460 O   0  0  0  0  0  0  0  0  0  0  0  0
  190.3190  175.9980  143.2150 C   0  0  0  0  0  3  0  0  0  0  0  0
  188.8650  177.4410  144.5840 C   0  0  2  0  0  3  0  0  0  0  0  0
  191.1530  176.8020  145.4040 C   0  0  0  0  0  0  0  0  0  0  0  0
  192.0330  176.7670  146.2500 O   0  0  0  0  0  0  0  0  0  0  0  0
  189.0790  176.4140  143.5040 C   0  0  0  0  0  3  0  0  0  0  0  0
  189.7380  177.1390  145.8090 C   0  0  0  0  0  2  0  0  0  0  0  0
  191.5050  176.5480  143.9600 C   0  0  0  0  0  2  0  0  0  0  0  0
  1 31  1  1  0  0  0
  2 15  1  0  0  0  0
  3 13  1  0  0  0  0
  4  5  2  0  0  0  0
  4  2  1  0  0  0  0
  6  8  2  0  0  0  0
  7  3  2  0  0  0  0
  7  9  1  0  0  0  0
  8  1  1  0  0  0  0
  9 14  2  0  0  0  0
 10 17  1  0  0  0  0
 11  6  1  0  0  0  0
 12  6  1  0  0  0  0
 13  4  1  0  0  0  0
 14  5  1  0  0  0  0
 14 19  1  0  0  0  0
 15 10  1  0  0  0  0
 16 19  2  0  0  0  0
 16 18  1  0  0  0  0
 17  1  1  0  0  0  0
 18 12  2  0  0  0  0
 19 11  1  0  0  0  0
 20 21  1  0  0  0  0
 21  3  1  0  0  0  0
 22 28  1  0  0  0  0
 24 25  2  0  0  0  0
 24 26  1  0  0  0  0
 26 23  1  0  0  0  0
 26 27  1  0  0  0  0
 28 21  1  1  0  0  0
 28 23  1  0  0  0  0
 29 22  1  0  0  0  0
 29 24  1  0  0  0  0
 30 27  2  0  0  0  0
 31 32  1  0  0  0  0
 32 33  1  0  0  0  0
 34 33  1  0  0  0  0
 35 34  1  0  0  0  0
 36 40  2  0  0  0  0
 36 42  1  0  0  0  0
 37 35  1  1  0  0  0
 37 41  1  0  0  0  0
 38 41  1  0  0  0  0
 38 39  2  0  0  0  0
 40 37  1  0  0  0  0
 42 38  1  0  0  0  0
M  END
>  <MODEL>
5

>  <REMARK>
 VINA RESULT:      -8.5      3.949      7.488
  Name = 
  8 active torsions:
  status: ('A' for Active; 'I' for Inactive)
    1  A    between atoms: C_2  and  C_20
    2  A    between atoms: C_4  and  O_33
    3  A    between atoms: C_5  and  N_27
    4  A    between atoms: C_12  and  O_33
    5  A    between atoms: C_12  and  C_37
    6  A    between atoms: C_20  and  C_24
    7  A    between atoms: C_24  and  C_37
    8  A    between atoms: N_27  and  C_34
                            x       y       z     vdW  Elec       q    Type
                         _______ _______ _______ _____ _____    ______ ____

>  <TORSDO>
F 8

$$$$
=
 OpenBabel11042412573D

 42 46  0  0  1  0  0  0  0  0999 V2000
  183.6420  178.8260  143.9690 C   0  0  1  0  0  3  0  0  0  0  0  0
  186.5840  178.6480  140.3520 O   0  0  0  0  0  0  0  0  0  0  0  0
  185.2450  177.5120  137.0210 C   0  0  0  0  0  0  0  0  0  0  0  0
  185.5890  178.3670  139.3970 C   0  0  0  0  0  0  0  0  0  0  0  0
  184.3460  178.5990  139.7480 C   0  0  0  0  0  3  0  0  0  0  0  0
  181.6690  178.9990  142.5640 C   0  0  0  0  0  0  0  0  0  0  0  0
  183.8270  177.7350  136.9170 N   0  0  0  0  0  0  0  0  0  0  0  0
  182.2560  179.2350  143.6980 N   0  0  0  0  0  0  0  0  0  0  0  0
  182.8160  178.0160  137.8960 C   0  0  0  0  0  3  0  0  0  0  0  0
  185.3510  178.6460  142.5050 C   0  0  0  0  0  2  0  0  0  0  0  0
  182.3730  178.3560  141.5190 N   0  0  0  0  0  2  0  0  0  0  0  0
  180.3300  179.5090  142.2410 C   0  0  0  0  0  3  0  0  0  0  0  0
  185.9830  177.7910  138.1080 C   0  0  0  0  0  2  0  0  0  0  0  0
  183.0440  178.3610  139.1570 C   0  0  0  0  0  0  0  0  0  0  0  0
  186.3350  179.3750  141.5720 C   0  0  0  0  0  2  0  0  0  0  0  0
  180.7920  179.1020  139.9010 C   0  0  0  0  0  3  0  0  0  0  0  0
  184.5430  179.5760  143.1850 O   0  0  0  0  0  0  0  0  0  0  0  0
  179.9380  179.5210  140.9920 N   0  0  0  0  0  0  0  0  0  0  0  0
  181.9820  178.5400  140.1580 C   0  0  0  0  0  0  0  0  0  0  0  0
  185.4300  177.2760  134.6380 F   0  0  0  0  0  0  0  0  0  0  0  0
  185.9080  176.9710  135.8660 N   0  0  0  0  0  0  0  0  0  0  0  0
  187.4670  175.5870  134.5940 C   0  0  0  0  0  2  0  0  0  0  0  0
  188.1100  176.4850  136.8260 C   0  0  0  0  0  2  0  0  0  0  0  0
  189.5050  174.6940  135.7250 C   0  0  0  0  0  0  0  0  0  0  0  0
  190.6190  174.1220  135.6030 O   0  0  0  0  0  0  0  0  0  0  0  0
  189.2230  175.5380  136.8650 N   0  0  0  0  0  0  0  0  0  0  0  0
  190.0980  175.6260  137.9970 C   0  0  0  0  0  3  0  0  0  0  0  0
  186.9560  175.9610  135.9780 C   0  0  1  0  0  3  0  0  0  0  0  0
  188.4470  174.4260  134.6980 C   0  0  0  0  0  2  0  0  0  0  0  0
  191.1150  174.8920  138.1090 O   0  0  0  0  0  0  0  0  0  0  0  0
  183.9350  179.0420  145.4490 C   0  0  0  0  0  2  0  0  0  0  0  0
  185.1700  178.2800  145.9010 C   0  0  0  0  0  2  0  0  0  0  0  0
  186.0290  179.1520  146.7950 C   0  0  0  0  0  2  0  0  0  0  0  0
  187.0060  178.2850  147.5660 C   0  0  0  0  0  2  0  0  0  0  0  0
  187.4150  177.2110  146.7710 O   0  0  0  0  0  0  0  0  0  0  0  0
  190.1770  177.1270  144.4480 C   0  0  0  0  0  3  0  0  0  0  0  0
  188.7330  177.5040  146.4080 C   0  0  2  0  0  3  0  0  0  0  0  0
  191.1150  176.7620  146.7110 C   0  0  0  0  0  0  0  0  0  0  0  0
  192.0560  176.3820  147.3890 O   0  0  0  0  0  0  0  0  0  0  0  0
  188.9360  177.2100  144.9460 C   0  0  0  0  0  3  0  0  0  0  0  0
  189.7140  176.7000  147.2710 C   0  0  0  0  0  2  0  0  0  0  0  0
  191.3740  177.3270  145.3370 C   0  0  0  0  0  2  0  0  0  0  0  0
  1 31  1  1  0  0  0
  2 15  1  0  0  0  0
  3 13  1  0  0  0  0
  4  5  2  0  0  0  0
  4  2  1  0  0  0  0
  6  8  2  0  0  0  0
  7  3  2  0  0  0  0
  7  9  1  0  0  0  0
  8  1  1  0  0  0  0
  9 14  2  0  0  0  0
 10 17  1  0  0  0  0
 11  6  1  0  0  0  0
 12  6  1  0  0  0  0
 13  4  1  0  0  0  0
 14  5  1  0  0  0  0
 14 19  1  0  0  0  0
 15 10  1  0  0  0  0
 16 19  2  0  0  0  0
 16 18  1  0  0  0  0
 17  1  1  0  0  0  0
 18 12  2  0  0  0  0
 19 11  1  0  0  0  0
 20 21  1  0  0  0  0
 21  3  1  0  0  0  0
 22 29  1  0  0  0  0
 22 28  1  0  0  0  0
 23 26  1  0  0  0  0
 24 26  1  0  0  0  0
 25 24  2  0  0  0  0
 26 27  1  0  0  0  0
 27 30  2  0  0  0  0
 28 21  1  6  0  0  0
 28 23  1  0  0  0  0
 29 24  1  0  0  0  0
 31 32  1  0  0  0  0
 32 33  1  0  0  0  0
 33 34  1  0  0  0  0
 35 34  1  0  0  0  0
 36 40  2  0  0  0  0
 36 42  1  0  0  0  0
 37 35  1  1  0  0  0
 37 41  1  0  0  0  0
 38 41  1  0  0  0  0
 38 39  2  0  0  0  0
 40 37  1  0  0  0  0
 42 38  1  0  0  0  0
M  END
>  <MODEL>
6

>  <REMARK>
 VINA RESULT:      -8.4      3.480      8.304
  Name = 
  8 active torsions:
  status: ('A' for Active; 'I' for Inactive)
    1  A    between atoms: C_2  and  C_20
    2  A    between atoms: C_4  and  O_33
    3  A    between atoms: C_5  and  N_27
    4  A    between atoms: C_12  and  O_33
    5  A    between atoms: C_12  and  C_37
    6  A    between atoms: C_20  and  C_24
    7  A    between atoms: C_24  and  C_37
    8  A    between atoms: N_27  and  C_34
                            x       y       z     vdW  Elec       q    Type
                         _______ _______ _______ _____ _____    ______ ____

>  <TORSDO>
F 8

$$$$
=
 OpenBabel11042412573D

 42 46  0  0  1  0  0  0  0  0999 V2000
  184.8080  178.6520  141.6440 C   0  0  1  0  0  3  0  0  0  0  0  0
  189.1030  177.9240  139.9740 O   0  0  0  0  0  0  0  0  0  0  0  0
  189.4680  175.9160  136.8080 C   0  0  0  0  0  0  0  0  0  0  0  0
  188.6710  177.3310  138.7720 C   0  0  0  0  0  0  0  0  0  0  0  0
  187.4150  177.5160  138.4380 C   0  0  0  0  0  3  0  0  0  0  0  0
  183.7370  178.2980  139.4930 C   0  0  0  0  0  0  0  0  0  0  0  0
  188.2720  175.9690  136.0080 N   0  0  0  0  0  0  0  0  0  0  0  0
  183.7240  178.8490  140.6690 N   0  0  0  0  0  0  0  0  0  0  0  0
  186.9270  176.3700  136.3020 C   0  0  0  0  0  3  0  0  0  0  0  0
  187.0000  178.3040  141.2340 C   0  0  0  0  0  2  0  0  0  0  0  0
  184.8340  177.5010  139.0910 N   0  0  0  0  0  2  0  0  0  0  0  0
  182.7210  178.5850  138.4700 C   0  0  0  0  0  3  0  0  0  0  0  0
  189.6110  176.5120  138.0030 C   0  0  0  0  0  2  0  0  0  0  0  0
  186.5400  177.0200  137.3930 C   0  0  0  0  0  0  0  0  0  0  0  0
  188.3260  178.8870  140.7120 C   0  0  0  0  0  2  0  0  0  0  0  0
  184.2230  177.6910  136.7970 C   0  0  0  0  0  3  0  0  0  0  0  0
  185.9910  179.2830  141.2040 O   0  0  0  0  0  0  0  0  0  0  0  0
  182.9660  178.2670  137.2250 N   0  0  0  0  0  0  0  0  0  0  0  0
  185.1360  177.3240  137.7070 C   0  0  0  0  0  0  0  0  0  0  0  0
  190.3420  174.1170  135.4800 F   0  0  0  0  0  0  0  0  0  0  0  0
  190.5840  175.1880  136.2690 N   0  0  0  0  0  0  0  0  0  0  0  0
  192.5910  174.1660  137.2110 C   0  0  0  0  0  2  0  0  0  0  0  0
  192.7770  175.9960  135.5320 C   0  0  0  0  0  2  0  0  0  0  0  0
  194.8030  175.2630  136.8450 C   0  0  0  0  0  0  0  0  0  0  0  0
  196.0550  175.1760  136.9300 O   0  0  0  0  0  0  0  0  0  0  0  0
  194.1830  176.1620  135.8970 N   0  0  0  0  0  0  0  0  0  0  0  0
  194.9280  177.1270  135.1450 C   0  0  0  0  0  3  0  0  0  0  0  0
  191.9550  175.4490  136.6950 C   0  0  1  0  0  3  0  0  0  0  0  0
  193.9640  174.4660  137.7980 C   0  0  0  0  0  2  0  0  0  0  0  0
  196.1580  177.3180  135.3420 O   0  0  0  0  0  0  0  0  0  0  0  0
  184.3720  179.2350  142.9820 C   0  0  0  0  0  2  0  0  0  0  0  0
  184.6470  178.2810  144.1330 C   0  0  0  0  0  2  0  0  0  0  0  0
  184.4920  178.9990  145.4600 C   0  0  0  0  0  2  0  0  0  0  0  0
  185.7150  178.7470  146.3210 C   0  0  0  0  0  2  0  0  0  0  0  0
  186.2810  177.5130  145.9900 O   0  0  0  0  0  0  0  0  0  0  0  0
  189.4670  177.0530  144.3570 C   0  0  0  0  0  3  0  0  0  0  0  0
  187.6510  177.7590  145.8650 C   0  0  2  0  0  3  0  0  0  0  0  0
  189.9010  177.1320  146.7940 C   0  0  0  0  0  0  0  0  0  0  0  0
  190.6700  176.9020  147.7140 O   0  0  0  0  0  0  0  0  0  0  0  0
  188.1520  177.2020  144.5580 C   0  0  0  0  0  3  0  0  0  0  0  0
  188.4120  177.1470  147.0490 C   0  0  0  0  0  2  0  0  0  0  0  0
  190.4540  177.4370  145.4260 C   0  0  0  0  0  2  0  0  0  0  0  0
  1 31  1  1  0  0  0
  2 15  1  0  0  0  0
  3 13  1  0  0  0  0
  4  2  1  0  0  0  0
  5  4  2  0  0  0  0
  6  8  2  0  0  0  0
  7  9  1  0  0  0  0
  7  3  2  0  0  0  0
  8  1  1  0  0  0  0
  9 14  2  0  0  0  0
 11  6  1  0  0  0  0
 12  6  1  0  0  0  0
 13  4  1  0  0  0  0
 14 19  1  0  0  0  0
 14  5  1  0  0  0  0
 15 10  1  0  0  0  0
 16 18  1  0  0  0  0
 16 19  2  0  0  0  0
 17 10  1  0  0  0  0
 17  1  1  0  0  0  0
 18 12  2  0  0  0  0
 19 11  1  0  0  0  0
 20 21  1  0  0  0  0
 21  3  1  0  0  0  0
 22 29  1  0  0  0  0
 23 26  1  0  0  0  0
 23 28  1  0  0  0  0
 24 25  2  0  0  0  0
 24 29  1  0  0  0  0
 26 24  1  0  0  0  0
 27 30  2  0  0  0  0
 27 26  1  0  0  0  0
 28 21  1  6  0  0  0
 28 22  1  0  0  0  0
 31 32  1  0  0  0  0
 32 33  1  0  0  0  0
 33 34  1  0  0  0  0
 35 34  1  0  0  0  0
 36 40  2  0  0  0  0
 36 42  1  0  0  0  0
 37 35  1  1  0  0  0
 37 41  1  0  0  0  0
 38 41  1  0  0  0  0
 38 39  2  0  0  0  0
 40 37  1  0  0  0  0
 42 38  1  0  0  0  0
M  END
>  <MODEL>
7

>  <REMARK>
 VINA RESULT:      -8.4      4.490     10.180
  Name = 
  8 active torsions:
  status: ('A' for Active; 'I' for Inactive)
    1  A    between atoms: C_2  and  C_20
    2  A    between atoms: C_4  and  O_33
    3  A    between atoms: C_5  and  N_27
    4  A    between atoms: C_12  and  O_33
    5  A    between atoms: C_12  and  C_37
    6  A    between atoms: C_20  and  C_24
    7  A    between atoms: C_24  and  C_37
    8  A    between atoms: N_27  and  C_34
                            x       y       z     vdW  Elec       q    Type
                         _______ _______ _______ _____ _____    ______ ____

>  <TORSDO>
F 8

$$$$
=
 OpenBabel11042412573D

 42 46  0  0  1  0  0  0  0  0999 V2000
  187.6950  178.0860  140.3160 C   0  0  1  0  0  3  0  0  0  0  0  0
  191.9100  176.3130  139.3890 O   0  0  0  0  0  0  0  0  0  0  0  0
  192.2500  173.9600  136.4680 C   0  0  0  0  0  0  0  0  0  0  0  0
  191.5260  175.7040  138.1800 C   0  0  0  0  0  0  0  0  0  0  0  0
  190.4000  176.1110  137.6420 C   0  0  0  0  0  3  0  0  0  0  0  0
  186.8760  177.7450  138.0560 C   0  0  0  0  0  0  0  0  0  0  0  0
  191.2170  174.1790  135.4900 N   0  0  0  0  0  0  0  0  0  0  0  0
  186.8260  178.4040  139.1740 N   0  0  0  0  0  0  0  0  0  0  0  0
  189.9660  174.8790  135.5430 C   0  0  0  0  0  3  0  0  0  0  0  0
  189.7910  177.2490  140.2780 C   0  0  0  0  0  2  0  0  0  0  0  0
  187.8140  176.7000  137.8870 N   0  0  0  0  0  2  0  0  0  0  0  0
  186.0990  178.1310  136.8700 C   0  0  0  0  0  3  0  0  0  0  0  0
  192.3580  174.6320  137.6260 C   0  0  0  0  0  2  0  0  0  0  0  0
  189.5880  175.7040  136.5120 C   0  0  0  0  0  0  0  0  0  0  0  0
  191.2720  177.4870  139.9290 C   0  0  0  0  0  2  0  0  0  0  0  0
  187.5800  176.7770  135.5170 C   0  0  0  0  0  3  0  0  0  0  0  0
  189.0370  178.4090  140.0230 O   0  0  0  0  0  0  0  0  0  0  0  0
  186.4350  177.6430  135.7030 N   0  0  0  0  0  0  0  0  0  0  0  0
  188.2560  176.3230  136.5820 C   0  0  0  0  0  0  0  0  0  0  0  0
  192.8690  171.8720  135.4580 F   0  0  0  0  0  0  0  0  0  0  0  0
  193.2410  172.9650  136.1610 N   0  0  0  0  0  0  0  0  0  0  0  0
  195.1500  171.5930  136.8210 C   0  0  0  0  0  2  0  0  0  0  0  0
  195.4990  173.8800  135.8980 C   0  0  0  0  0  2  0  0  0  0  0  0
  197.4040  172.6510  137.0070 C   0  0  0  0  0  0  0  0  0  0  0  0
  198.6440  172.4850  137.1380 O   0  0  0  0  0  0  0  0  0  0  0  0
  196.8750  173.8480  136.3910 N   0  0  0  0  0  0  0  0  0  0  0  0
  197.6940  174.9800  136.0720 C   0  0  0  0  0  3  0  0  0  0  0  0
  194.5800  173.0020  136.7410 C   0  0  1  0  0  3  0  0  0  0  0  0
  196.4790  171.6120  137.5650 C   0  0  0  0  0  2  0  0  0  0  0  0
  198.9080  175.0360  136.4050 O   0  0  0  0  0  0  0  0  0  0  0  0
  187.2210  178.8810  141.5270 C   0  0  0  0  0  2  0  0  0  0  0  0
  185.8170  178.4840  141.9520 C   0  0  0  0  0  2  0  0  0  0  0  0
  185.7710  178.2300  143.4450 C   0  0  0  0  0  2  0  0  0  0  0  0
  186.9000  177.2960  143.8380 C   0  0  0  0  0  2  0  0  0  0  0  0
  187.4390  177.6950  145.0640 O   0  0  0  0  0  0  0  0  0  0  0  0
  190.5550  176.9760  146.7390 C   0  0  0  0  0  3  0  0  0  0  0  0
  188.7130  177.1220  145.1090 C   0  0  2  0  0  3  0  0  0  0  0  0
  191.0920  177.4490  144.3680 C   0  0  0  0  0  0  0  0  0  0  0  0
  191.9420  177.7350  143.5390 O   0  0  0  0  0  0  0  0  0  0  0  0
  189.2510  177.1860  146.5140 C   0  0  0  0  0  3  0  0  0  0  0  0
  189.6520  177.8370  144.1290 C   0  0  0  0  0  2  0  0  0  0  0  0
  191.4900  176.6760  145.6000 C   0  0  0  0  0  2  0  0  0  0  0  0
  1 31  1  1  0  0  0
  2 15  1  0  0  0  0
  3 13  1  0  0  0  0
  4  2  1  0  0  0  0
  5  4  2  0  0  0  0
  6  8  2  0  0  0  0
  7  9  1  0  0  0  0
  7  3  2  0  0  0  0
  8  1  1  0  0  0  0
  9 14  2  0  0  0  0
 11  6  1  0  0  0  0
 12  6  1  0  0  0  0
 13  4  1  0  0  0  0
 14 19  1  0  0  0  0
 14  5  1  0  0  0  0
 15 10  1  0  0  0  0
 16 18  1  0  0  0  0
 16 19  2  0  0  0  0
 17 10  1  0  0  0  0
 17  1  1  0  0  0  0
 18 12  2  0  0  0  0
 19 11  1  0  0  0  0
 20 21  1  0  0  0  0
 21  3  1  0  0  0  0
 22 29  1  0  0  0  0
 23 26  1  0  0  0  0
 23 28  1  0  0  0  0
 24 25  2  0  0  0  0
 24 29  1  0  0  0  0
 26 24  1  0  0  0  0
 27 26  1  0  0  0  0
 27 30  2  0  0  0  0
 28 21  1  6  0  0  0
 28 22  1  0  0  0  0
 31 32  1  0  0  0  0
 32 33  1  0  0  0  0
 33 34  1  0  0  0  0
 34 35  1  0  0  0  0
 37 35  1  1  0  0  0
 37 40  1  0  0  0  0
 38 42  1  0  0  0  0
 39 38  2  0  0  0  0
 40 36  2  0  0  0  0
 41 38  1  0  0  0  0
 41 37  1  0  0  0  0
 42 36  1  0  0  0  0
M  END
>  <MODEL>
8

>  <REMARK>
 VINA RESULT:      -8.3      5.641     11.635
  Name = 
  8 active torsions:
  status: ('A' for Active; 'I' for Inactive)
    1  A    between atoms: C_2  and  C_20
    2  A    between atoms: C_4  and  O_33
    3  A    between atoms: C_5  and  N_27
    4  A    between atoms: C_12  and  O_33
    5  A    between atoms: C_12  and  C_37
    6  A    between atoms: C_20  and  C_24
    7  A    between atoms: C_24  and  C_37
    8  A    between atoms: N_27  and  C_34
                            x       y       z     vdW  Elec       q    Type
                         _______ _______ _______ _____ _____    ______ ____

>  <TORSDO>
F 8

$$$$
=
 OpenBabel11042412573D

 42 46  0  0  1  0  0  0  0  0999 V2000
  187.0020  178.1930  140.0740 C   0  0  1  0  0  3  0  0  0  0  0  0
  191.3440  176.6440  139.3600 O   0  0  0  0  0  0  0  0  0  0  0  0
  191.9270  174.2080  136.5480 C   0  0  0  0  0  0  0  0  0  0  0  0
  191.0400  175.9670  138.1640 C   0  0  0  0  0  0  0  0  0  0  0  0
  189.9120  176.2850  137.5730 C   0  0  0  0  0  3  0  0  0  0  0  0
  186.2860  177.7190  137.8020 C   0  0  0  0  0  0  0  0  0  0  0  0
  190.9180  174.3270  135.5270 N   0  0  0  0  0  0  0  0  0  0  0  0
  186.1560  178.4150  138.8910 N   0  0  0  0  0  0  0  0  0  0  0  0
  189.6280  174.9520  135.5100 C   0  0  0  0  0  3  0  0  0  0  0  0
  189.1430  177.4830  140.1390 C   0  0  0  0  0  2  0  0  0  0  0  0
  187.2890  176.7270  137.7060 N   0  0  0  0  0  2  0  0  0  0  0  0
  185.5300  178.0130  136.5770 C   0  0  0  0  0  3  0  0  0  0  0  0
  191.9530  174.9280  137.6810 C   0  0  0  0  0  2  0  0  0  0  0  0
  189.1670  175.7880  136.4330 C   0  0  0  0  0  0  0  0  0  0  0  0
  190.6190  177.7960  139.8310 C   0  0  0  0  0  2  0  0  0  0  0  0
  187.1360  176.7000  135.3290 C   0  0  0  0  0  3  0  0  0  0  0  0
  188.3320  178.5850  139.8130 O   0  0  0  0  0  0  0  0  0  0  0  0
  185.9360  177.5030  135.4420 N   0  0  0  0  0  0  0  0  0  0  0  0
  187.7990  176.3280  136.4330 C   0  0  0  0  0  0  0  0  0  0  0  0
  192.7260  171.9450  136.4680 F   0  0  0  0  0  0  0  0  0  0  0  0
  192.9850  173.2620  136.3140 N   0  0  0  0  0  0  0  0  0  0  0  0
  194.4000  174.9340  135.2340 C   0  0  0  0  0  2  0  0  0  0  0  0
  195.0430  173.9710  137.4400 C   0  0  0  0  0  2  0  0  0  0  0  0
  196.7040  175.3270  136.1090 C   0  0  0  0  0  0  0  0  0  0  0  0
  197.7340  176.0500  136.0930 O   0  0  0  0  0  0  0  0  0  0  0  0
  196.3930  174.5030  137.2560 N   0  0  0  0  0  0  0  0  0  0  0  0
  197.3080  174.3100  138.3420 C   0  0  0  0  0  3  0  0  0  0  0  0
  194.3660  173.6840  136.1030 C   0  0  1  0  0  3  0  0  0  0  0  0
  195.8400  175.2850  134.8850 C   0  0  0  0  0  2  0  0  0  0  0  0
  198.4810  174.7690  138.3110 O   0  0  0  0  0  0  0  0  0  0  0  0
  186.4380  179.0030  141.2350 C   0  0  0  0  0  2  0  0  0  0  0  0
  184.9180  179.0030  141.2430 C   0  0  0  0  0  2  0  0  0  0  0  0
  184.3990  178.3200  142.4930 C   0  0  0  0  0  2  0  0  0  0  0  0
  185.0950  178.8930  143.7130 C   0  0  0  0  0  2  0  0  0  0  0  0
  185.3250  177.8780  144.6460 O   0  0  0  0  0  0  0  0  0  0  0  0
  188.7990  176.9000  144.5770 C   0  0  0  0  0  3  0  0  0  0  0  0
  186.6590  178.0320  145.0340 C   0  0  2  0  0  3  0  0  0  0  0  0
  188.2770  177.5740  146.9020 C   0  0  0  0  0  0  0  0  0  0  0  0
  188.5980  177.5540  148.0800 O   0  0  0  0  0  0  0  0  0  0  0  0
  187.5400  177.1450  144.1940 C   0  0  0  0  0  3  0  0  0  0  0  0
  186.8210  177.7100  146.5250 C   0  0  0  0  0  2  0  0  0  0  0  0
  189.3470  177.5030  145.8420 C   0  0  0  0  0  2  0  0  0  0  0  0
  1 31  1  1  0  0  0
  2 15  1  0  0  0  0
  3 13  1  0  0  0  0
  4  2  1  0  0  0  0
  5  4  2  0  0  0  0
  6  8  2  0  0  0  0
  7  3  2  0  0  0  0
  8  1  1  0  0  0  0
  9  7  1  0  0  0  0
  9 14  2  0  0  0  0
 11  6  1  0  0  0  0
 12  6  1  0  0  0  0
 13  4  1  0  0  0  0
 14  5  1  0  0  0  0
 15 10  1  0  0  0  0
 16 18  1  0  0  0  0
 16 19  2  0  0  0  0
 17  1  1  0  0  0  0
 17 10  1  0  0  0  0
 18 12  2  0  0  0  0
 19 14  1  0  0  0  0
 19 11  1  0  0  0  0
 21 20  1  0  0  0  0
 21  3  1  0  0  0  0
 22 28  1  0  0  0  0
 24 26  1  0  0  0  0
 25 24  2  0  0  0  0
 26 23  1  0  0  0  0
 26 27  1  0  0  0  0
 28 21  1  1  0  0  0
 28 23  1  0  0  0  0
 29 22  1  0  0  0  0
 29 24  1  0  0  0  0
 30 27  2  0  0  0  0
 31 32  1  0  0  0  0
 32 33  1  0  0  0  0
 33 34  1  0  0  0  0
 34 35  1  0  0  0  0
 36 42  1  0  0  0  0
 37 35  1  6  0  0  0
 37 41  1  0  0  0  0
 38 39  2  0  0  0  0
 40 36  2  0  0  0  0
 40 37  1  0  0  0  0
 41 38  1  0  0  0  0
 42 38  1  0  0  0  0
M  END
>  <MODEL>
9

>  <REMARK>
 VINA RESULT:      -8.2      5.294     11.502
  Name = 
  8 active torsions:
  status: ('A' for Active; 'I' for Inactive)
    1  A    between atoms: C_2  and  C_20
    2  A    between atoms: C_4  and  O_33
    3  A    between atoms: C_5  and  N_27
    4  A    between atoms: C_12  and  O_33
    5  A    between atoms: C_12  and  C_37
    6  A    between atoms: C_20  and  C_24
    7  A    between atoms: C_24  and  C_37
    8  A    between atoms: N_27  and  C_34
                            x       y       z     vdW  Elec       q    Type
                         _______ _______ _______ _____ _____    ______ ____

>  <TORSDO>
F 8

$$$$
