=
 OpenBabel11032420123D

 36 41  0  0  1  0  0  0  0  0999 V2000
  185.0910  178.0850  143.1670 C   0  0  1  0  0  3  0  0  0  0  0  0
  189.3420  176.8460  136.6040 C   0  0  0  0  0  0  0  0  0  0  0  0
  190.5840  177.3040  142.3830 C   0  0  0  0  0  2  0  0  0  0  0  0
  184.2450  178.0880  141.9120 C   0  0  0  0  0  0  0  0  0  0  0  0
  187.3050  177.0040  143.9010 C   0  0  0  0  0  0  0  0  0  0  0  0
  188.8190  177.7470  138.5590 C   0  0  0  0  0  0  0  0  0  0  0  0
  190.6880  177.0190  139.8650 C   0  0  0  0  0  3  0  0  0  0  0  0
  189.2340  176.3810  135.2640 N   0  0  0  0  0  1  0  0  0  0  0  0
  186.0100  178.8360  140.5940 O   0  0  0  0  0  0  0  0  0  0  0  0
  183.8420  180.2500  143.8520 C   0  0  0  0  0  2  0  0  0  0  0  0
  190.0220  177.5270  141.0130 C   0  0  0  0  0  0  0  0  0  0  0  0
  186.4340  177.5680  142.9130 N   0  0  0  0  0  2  0  0  0  0  0  0
  190.0520  177.1820  138.6240 C   0  0  0  0  0  0  0  0  0  0  0  0
  185.1620  179.4710  143.8230 C   0  0  0  0  0  2  0  0  0  0  0  0
  188.5210  176.6680  143.5560 C   0  0  0  0  0  0  0  0  0  0  0  0
  184.7030  178.4310  140.7460 N   0  0  0  0  0  0  0  0  0  0  0  0
  188.7450  178.1270  140.8950 C   0  0  0  0  0  3  0  0  0  0  0  0
  182.0450  178.9620  142.6830 C   0  0  0  0  0  2  0  0  0  0  0  0
  186.1710  178.3390  138.1820 C   0  0  0  0  0  3  0  0  0  0  0  0
  190.3850  176.6050  137.3580 N   0  0  0  0  0  0  0  0  0  0  0  0
  188.1160  178.2050  139.6470 C   0  0  0  0  0  0  0  0  0  0  0  0
  188.2870  177.5620  137.3330 C   0  0  0  0  0  0  0  0  0  0  0  0
  182.7950  177.7800  142.0700 C   0  0  0  0  0  2  0  0  0  0  0  0
  182.6050  179.3740  144.0440 C   0  0  0  0  0  2  0  0  0  0  0  0
  189.7370  176.3530  143.1810 C   0  0  0  0  0  3  0  0  0  0  0  0
  186.9380  177.8440  137.0950 C   0  0  0  0  0  3  0  0  0  0  0  0
  186.7590  178.5060  139.4680 C   0  0  0  0  0  0  0  0  0  0  0  0
  186.8110  176.6660  145.2700 C   0  0  0  0  0  2  0  0  0  0  0  0
  187.2760  177.6960  146.2880 C   0  0  0  0  0  2  0  0  0  0  0  0
  189.4910  177.5880  146.9720 C   0  0  1  0  0  3  0  0  0  0  0  0
  188.1740  177.0770  147.2490 N   0  0  0  0  0  0  0  0  0  0  0  0
  188.7430  178.1040  147.9810 O   0  0  0  0  0  0  0  0  0  0  0  0
  190.5310  176.6430  147.5450 C   0  0  0  0  0  2  0  0  0  0  0  0
  192.4160  175.3110  146.6150 O   0  0  0  0  0  1  0  0  0  0  0  0
  191.6470  176.4650  146.5770 C   0  0  0  0  0  0  0  0  0  0  0  0
  191.8700  177.3450  145.7040 O   0  0  0  0  0  0  0  0  0  0  0  0
  1 14  1  6  0  0  0
  2 22  1  0  0  0  0
  2 20  2  0  0  0  0
  3 25  1  0  0  0  0
  4 23  1  0  0  0  0
  4  1  1  0  0  0  0
  5 28  1  0  0  0  0
  6 13  1  0  0  0  0
  6 21  1  0  0  0  0
  7 11  1  0  0  0  0
  8  2  1  0  0  0  0
  9 16  1  0  0  0  0
 10 24  1  0  0  0  0
 11  3  1  0  0  0  0
 12  1  1  0  0  0  0
 12  5  1  0  0  0  0
 13  7  2  0  0  0  0
 14 10  1  0  0  0  0
 15  5  2  0  0  0  0
 16  4  2  0  0  0  0
 17 11  2  0  0  0  0
 18 24  1  0  0  0  0
 19 27  1  0  0  0  0
 20 13  1  0  0  0  0
 21 17  1  0  0  0  0
 22  6  2  0  0  0  0
 23 18  1  0  0  0  0
 25 15  2  0  0  0  0
 26 22  1  0  0  0  0
 26 19  2  0  0  0  0
 27 21  2  0  0  0  0
 27  9  1  0  0  0  0
 28 29  1  0  0  0  0
 29 31  1  0  0  0  0
 30 31  1  0  0  0  0
 30 33  1  1  0  0  0
 30 32  1  0  0  0  0
 31 32  1  0  0  0  0
 35 34  1  0  0  0  0
 35 33  1  0  0  0  0
 36 35  2  0  0  0  0
M  END
>  <MODEL>
1

>  <REMARK>
 VINA RESULT:      -9.0      0.000      0.000
  Name = 
  5 active torsions:
  status: ('A' for Active; 'I' for Inactive)
    1  A    between atoms: C_2  and  N_15
    2  A    between atoms: C_2  and  C_29
    3  A    between atoms: C_7  and  C_29
    4  A    between atoms: C_8  and  C_22
    5  A    between atoms: C_18  and  C_22
                            x       y       z     vdW  Elec       q    Type
                         _______ _______ _______ _____ _____    ______ ____

>  <TORSDO>
F 5

$$$$
=
 OpenBabel11032420123D

 36 41  0  0  1  0  0  0  0  0999 V2000
  185.1420  178.5060  139.0050 C   0  0  1  0  0  3  0  0  0  0  0  0
  186.2300  178.9320  146.8350 C   0  0  0  0  0  0  0  0  0  0  0  0
  189.3220  176.7240  142.2840 C   0  0  0  0  0  2  0  0  0  0  0  0
  183.9880  179.1730  139.7210 C   0  0  0  0  0  0  0  0  0  0  0  0
  187.6620  178.2200  139.4280 C   0  0  0  0  0  0  0  0  0  0  0  0
  186.1850  177.9970  144.8280 C   0  0  0  0  0  0  0  0  0  0  0  0
  188.5000  177.4520  144.5700 C   0  0  0  0  0  3  0  0  0  0  0  0
  185.8330  179.6640  147.9880 N   0  0  0  0  0  1  0  0  0  0  0  0
  184.3680  177.9730  141.6780 O   0  0  0  0  0  0  0  0  0  0  0  0
  183.3700  177.1080  137.7320 C   0  0  0  0  0  2  0  0  0  0  0  0
  188.2170  177.0910  143.2250 C   0  0  0  0  0  0  0  0  0  0  0  0
  186.3080  178.3620  139.8740 N   0  0  0  0  0  2  0  0  0  0  0  0
  187.4250  177.8780  145.3660 C   0  0  0  0  0  0  0  0  0  0  0  0
  184.7480  177.1500  138.4030 C   0  0  0  0  0  2  0  0  0  0  0  0
  188.6010  178.0010  140.3120 C   0  0  0  0  0  0  0  0  0  0  0  0
  183.6660  178.9090  140.9520 N   0  0  0  0  0  0  0  0  0  0  0  0
  186.9030  177.2120  142.7120 C   0  0  0  0  0  3  0  0  0  0  0  0
  182.2120  179.3100  137.9820 C   0  0  0  0  0  2  0  0  0  0  0  0
  183.7440  178.8320  143.9050 C   0  0  0  0  0  3  0  0  0  0  0  0
  187.4470  178.4800  146.6630 N   0  0  0  0  0  0  0  0  0  0  0  0
  185.8740  177.7100  143.5200 C   0  0  0  0  0  0  0  0  0  0  0  0
  185.3740  178.6680  145.6710 C   0  0  0  0  0  0  0  0  0  0  0  0
  183.1310  180.0920  138.9190 C   0  0  0  0  0  2  0  0  0  0  0  0
  182.9820  178.4030  137.0220 C   0  0  0  0  0  2  0  0  0  0  0  0
  189.5160  177.7700  141.2220 C   0  0  0  0  0  3  0  0  0  0  0  0
  184.1210  179.1200  145.2440 C   0  0  0  0  0  3  0  0  0  0  0  0
  184.6310  178.1370  143.0350 C   0  0  0  0  0  0  0  0  0  0  0  0
  188.0380  178.4530  138.0010 C   0  0  0  0  0  2  0  0  0  0  0  0
  188.7280  177.2320  137.4120 C   0  0  0  0  0  2  0  0  0  0  0  0
  190.7620  176.2030  137.8470 C   0  0  1  0  0  3  0  0  0  0  0  0
  190.1670  177.4330  137.3940 N   0  0  0  0  0  0  0  0  0  0  0  0
  190.6890  176.4930  136.5230 O   0  0  0  0  0  0  0  0  0  0  0  0
  192.1670  176.4750  138.3500 C   0  0  0  0  0  2  0  0  0  0  0  0
  194.2410  176.1260  137.0190 O   0  0  0  0  0  0  0  0  0  0  0  0
  193.1380  175.5820  137.6610 C   0  0  0  0  0  0  0  0  0  0  0  0
  192.9770  174.3340  137.6910 O   0  0  0  0  0  1  0  0  0  0  0  0
  1 14  1  1  0  0  0
  1  4  1  0  0  0  0
  1 12  1  0  0  0  0
  2  8  1  0  0  0  0
  3 11  1  0  0  0  0
  4 16  2  0  0  0  0
  5 12  1  0  0  0  0
  5 15  2  0  0  0  0
  6 13  1  0  0  0  0
  6 22  1  0  0  0  0
  7 13  2  0  0  0  0
  9 27  1  0  0  0  0
 10 14  1  0  0  0  0
 11  7  1  0  0  0  0
 13 20  1  0  0  0  0
 15 25  2  0  0  0  0
 16  9  1  0  0  0  0
 17 11  2  0  0  0  0
 17 21  1  0  0  0  0
 18 23  1  0  0  0  0
 19 26  1  0  0  0  0
 20  2  2  0  0  0  0
 21  6  2  0  0  0  0
 22  2  1  0  0  0  0
 23  4  1  0  0  0  0
 24 10  1  0  0  0  0
 24 18  1  0  0  0  0
 25  3  1  0  0  0  0
 26 22  2  0  0  0  0
 27 21  1  0  0  0  0
 27 19  2  0  0  0  0
 28  5  1  0  0  0  0
 29 28  1  0  0  0  0
 30 33  1  1  0  0  0
 31 29  1  0  0  0  0
 31 30  1  0  0  0  0
 32 31  1  0  0  0  0
 32 30  1  0  0  0  0
 34 35  2  0  0  0  0
 35 36  1  0  0  0  0
 35 33  1  0  0  0  0
M  END
>  <MODEL>
2

>  <REMARK>
 VINA RESULT:      -8.9      3.036      7.133
  Name = 
  5 active torsions:
  status: ('A' for Active; 'I' for Inactive)
    1  A    between atoms: C_2  and  N_15
    2  A    between atoms: C_2  and  C_29
    3  A    between atoms: C_7  and  C_29
    4  A    between atoms: C_8  and  C_22
    5  A    between atoms: C_18  and  C_22
                            x       y       z     vdW  Elec       q    Type
                         _______ _______ _______ _____ _____    ______ ____

>  <TORSDO>
F 5

$$$$
=
 OpenBabel11032420123D

 36 41  0  0  1  0  0  0  0  0999 V2000
  189.9200  177.7720  139.0220 C   0  0  1  0  0  3  0  0  0  0  0  0
  186.1270  178.6010  145.9210 C   0  0  0  0  0  0  0  0  0  0  0  0
  191.2710  176.1920  144.2250 C   0  0  0  0  0  2  0  0  0  0  0  0
  188.5820  178.4650  138.8750 C   0  0  0  0  0  0  0  0  0  0  0  0
  191.6810  177.5280  140.8790 C   0  0  0  0  0  0  0  0  0  0  0  0
  187.2670  177.5660  144.3290 C   0  0  0  0  0  0  0  0  0  0  0  0
  189.2650  177.0280  145.5320 C   0  0  0  0  0  3  0  0  0  0  0  0
  185.1380  179.3870  146.5740 N   0  0  0  0  0  1  0  0  0  0  0  0
  187.6910  177.3680  140.7240 O   0  0  0  0  0  0  0  0  0  0  0  0
  189.2260  176.2970  137.0070 C   0  0  0  0  0  2  0  0  0  0  0  0
  189.8320  176.5970  144.3020 C   0  0  0  0  0  0  0  0  0  0  0  0
  190.3320  177.6820  140.4210 N   0  0  0  0  0  2  0  0  0  0  0  0
  187.9380  177.4850  145.5070 C   0  0  0  0  0  0  0  0  0  0  0  0
  189.9310  176.3840  138.3660 C   0  0  0  0  0  2  0  0  0  0  0  0
  191.9010  177.3610  142.1570 C   0  0  0  0  0  0  0  0  0  0  0  0
  187.5830  178.2610  139.6810 N   0  0  0  0  0  0  0  0  0  0  0  0
  189.0880  176.6820  143.1010 C   0  0  0  0  0  3  0  0  0  0  0  0
  188.2000  178.4990  136.4150 C   0  0  0  0  0  2  0  0  0  0  0  0
  185.8800  178.3340  142.0950 C   0  0  0  0  0  3  0  0  0  0  0  0
  187.1950  178.1520  146.5310 N   0  0  0  0  0  0  0  0  0  0  0  0
  187.7920  177.2110  143.1100 C   0  0  0  0  0  0  0  0  0  0  0  0
  186.1290  178.2730  144.4900 C   0  0  0  0  0  0  0  0  0  0  0  0
  188.3960  179.3350  137.6790 C   0  0  0  0  0  2  0  0  0  0  0  0
  189.3690  177.5510  136.1480 C   0  0  0  0  0  2  0  0  0  0  0  0
  192.0860  177.1840  143.4430 C   0  0  0  0  0  3  0  0  0  0  0  0
  185.3910  178.6920  143.3790 C   0  0  0  0  0  3  0  0  0  0  0  0
  187.0950  177.6030  141.9590 C   0  0  0  0  0  0  0  0  0  0  0  0
  192.8400  177.6920  139.9510 C   0  0  0  0  0  2  0  0  0  0  0  0
  193.4570  176.3450  139.6060 C   0  0  0  0  0  2  0  0  0  0  0  0
  194.3870  175.0230  137.9410 C   0  0  1  0  0  3  0  0  0  0  0  0
  193.6470  176.2370  138.1690 N   0  0  0  0  0  0  0  0  0  0  0  0
  193.0410  175.0570  137.7750 O   0  0  0  0  0  0  0  0  0  0  0  0
  195.0660  175.0920  136.5860 C   0  0  0  0  0  2  0  0  0  0  0  0
  197.4680  175.6750  136.8860 O   0  0  0  0  0  1  0  0  0  0  0  0
  196.4960  174.7000  136.7110 C   0  0  0  0  0  0  0  0  0  0  0  0
  196.8200  173.4830  136.6930 O   0  0  0  0  0  0  0  0  0  0  0  0
  1 14  1  1  0  0  0
  1 12  1  0  0  0  0
  2 20  2  0  0  0  0
  2  8  1  0  0  0  0
  3 11  1  0  0  0  0
  4  1  1  0  0  0  0
  4 16  2  0  0  0  0
  5 15  2  0  0  0  0
  6 22  1  0  0  0  0
  6 13  2  0  0  0  0
  9 27  1  0  0  0  0
 10 14  1  0  0  0  0
 11  7  2  0  0  0  0
 12  5  1  0  0  0  0
 13  7  1  0  0  0  0
 13 20  1  0  0  0  0
 15 25  2  0  0  0  0
 16  9  1  0  0  0  0
 17 21  2  0  0  0  0
 17 11  1  0  0  0  0
 18 23  1  0  0  0  0
 19 26  1  0  0  0  0
 21  6  1  0  0  0  0
 22  2  1  0  0  0  0
 23  4  1  0  0  0  0
 24 18  1  0  0  0  0
 24 10  1  0  0  0  0
 25  3  1  0  0  0  0
 26 22  2  0  0  0  0
 27 19  2  0  0  0  0
 27 21  1  0  0  0  0
 28  5  1  0  0  0  0
 29 28  1  0  0  0  0
 30 33  1  6  0  0  0
 30 31  1  0  0  0  0
 31 29  1  0  0  0  0
 32 30  1  0  0  0  0
 32 31  1  0  0  0  0
 33 35  1  0  0  0  0
 35 34  1  0  0  0  0
 36 35  2  0  0  0  0
M  END
>  <MODEL>
3

>  <REMARK>
 VINA RESULT:      -8.7      3.767      7.809
  Name = 
  5 active torsions:
  status: ('A' for Active; 'I' for Inactive)
    1  A    between atoms: C_2  and  N_15
    2  A    between atoms: C_2  and  C_29
    3  A    between atoms: C_7  and  C_29
    4  A    between atoms: C_8  and  C_22
    5  A    between atoms: C_18  and  C_22
                            x       y       z     vdW  Elec       q    Type
                         _______ _______ _______ _____ _____    ______ ____

>  <TORSDO>
F 5

$$$$
=
 OpenBabel11032420123D

 36 41  0  0  1  0  0  0  0  0999 V2000
  183.4970  178.5260  139.5400 C   0  0  1  0  0  3  0  0  0  0  0  0
  190.3000  175.0770  137.4210 C   0  0  0  0  0  0  0  0  0  0  0  0
  188.5930  178.6040  141.8700 C   0  0  0  0  0  2  0  0  0  0  0  0
  183.3750  177.7280  138.2600 C   0  0  0  0  0  0  0  0  0  0  0  0
  184.9770  178.4370  141.6400 C   0  0  0  0  0  0  0  0  0  0  0  0
  188.9620  176.7050  138.1030 C   0  0  0  0  0  0  0  0  0  0  0  0
  189.8900  177.1280  140.2670 C   0  0  0  0  0  3  0  0  0  0  0  0
  190.8250  173.9950  136.6620 N   0  0  0  0  0  1  0  0  0  0  0  0
  185.6110  178.0620  137.7120 O   0  0  0  0  0  0  0  0  0  0  0  0
  182.2460  180.4350  138.3120 C   0  0  0  0  0  2  0  0  0  0  0  0
  188.7910  177.9920  140.5180 C   0  0  0  0  0  0  0  0  0  0  0  0
  184.7470  178.2390  140.2390 N   0  0  0  0  0  2  0  0  0  0  0  0
  189.9570  176.5150  139.0060 C   0  0  0  0  0  0  0  0  0  0  0  0
  183.3470  180.0350  139.3010 C   0  0  0  0  0  2  0  0  0  0  0  0
  186.1760  178.2310  142.1200 C   0  0  0  0  0  0  0  0  0  0  0  0
  184.3700  177.5290  137.4490 N   0  0  0  0  0  0  0  0  0  0  0  0
  187.7860  178.1760  139.5380 C   0  0  0  0  0  3  0  0  0  0  0  0
  181.1550  178.3990  137.3540 C   0  0  0  0  0  2  0  0  0  0  0  0
  186.8910  176.4720  136.3250 C   0  0  0  0  0  3  0  0  0  0  0  0
  190.8200  175.4650  138.5590 N   0  0  0  0  0  0  0  0  0  0  0  0
  187.8550  177.4890  138.3200 C   0  0  0  0  0  0  0  0  0  0  0  0
  189.0830  175.8280  137.0850 C   0  0  0  0  0  0  0  0  0  0  0  0
  182.0130  177.2510  137.8850 C   0  0  0  0  0  2  0  0  0  0  0  0
  181.0090  179.5400  138.3600 C   0  0  0  0  0  2  0  0  0  0  0  0
  187.3920  178.0280  142.5670 C   0  0  0  0  0  3  0  0  0  0  0  0
  188.0500  175.6700  136.1560 C   0  0  0  0  0  3  0  0  0  0  0  0
  186.7860  177.3750  137.4200 C   0  0  0  0  0  0  0  0  0  0  0  0
  183.8530  178.7350  142.5780 C   0  0  0  0  0  2  0  0  0  0  0  0
  184.3590  179.4340  143.8310 C   0  0  0  0  0  2  0  0  0  0  0  0
  185.5380  178.9280  145.7640 C   0  0  1  0  0  3  0  0  0  0  0  0
  184.4550  178.4830  144.9260 N   0  0  0  0  0  0  0  0  0  0  0  0
  184.2490  179.1990  146.0930 O   0  0  0  0  0  0  0  0  0  0  0  0
  186.0410  177.7670  146.6000 C   0  0  0  0  0  2  0  0  0  0  0  0
  187.8440  178.2640  148.2430 O   0  0  0  0  0  1  0  0  0  0  0  0
  187.4770  177.9650  146.9380 C   0  0  0  0  0  0  0  0  0  0  0  0
  188.3590  177.8270  146.0500 O   0  0  0  0  0  0  0  0  0  0  0  0
  1 14  1  6  0  0  0
  1 12  1  0  0  0  0
  2 20  2  0  0  0  0
  3 25  1  0  0  0  0
  4  1  1  0  0  0  0
  5 15  2  0  0  0  0
  5 28  1  0  0  0  0
  6 21  1  0  0  0  0
  6 13  1  0  0  0  0
  7 11  1  0  0  0  0
  8  2  1  0  0  0  0
 10 24  1  0  0  0  0
 10 14  1  0  0  0  0
 11  3  1  0  0  0  0
 12  5  1  0  0  0  0
 13  7  2  0  0  0  0
 15 25  2  0  0  0  0
 16  9  1  0  0  0  0
 16  4  2  0  0  0  0
 17 11  2  0  0  0  0
 18 23  1  0  0  0  0
 18 24  1  0  0  0  0
 19 27  1  0  0  0  0
 20 13  1  0  0  0  0
 21 17  1  0  0  0  0
 22  2  1  0  0  0  0
 22  6  2  0  0  0  0
 23  4  1  0  0  0  0
 26 19  2  0  0  0  0
 26 22  1  0  0  0  0
 27  9  1  0  0  0  0
 27 21  2  0  0  0  0
 28 29  1  0  0  0  0
 29 31  1  0  0  0  0
 30 32  1  0  0  0  0
 30 33  1  1  0  0  0
 31 30  1  0  0  0  0
 31 32  1  0  0  0  0
 33 35  1  0  0  0  0
 35 34  1  0  0  0  0
 36 35  2  0  0  0  0
M  END
>  <MODEL>
4

>  <REMARK>
 VINA RESULT:      -8.6      2.421      3.651
  Name = 
  5 active torsions:
  status: ('A' for Active; 'I' for Inactive)
    1  A    between atoms: C_2  and  N_15
    2  A    between atoms: C_2  and  C_29
    3  A    between atoms: C_7  and  C_29
    4  A    between atoms: C_8  and  C_22
    5  A    between atoms: C_18  and  C_22
                            x       y       z     vdW  Elec       q    Type
                         _______ _______ _______ _____ _____    ______ ____

>  <TORSDO>
F 5

$$$$
=
 OpenBabel11032420123D

 36 41  0  0  1  0  0  0  0  0999 V2000
  188.6200  178.0750  142.1720 C   0  0  1  0  0  3  0  0  0  0  0  0
  192.1840  176.3890  135.3080 C   0  0  0  0  0  0  0  0  0  0  0  0
  186.5570  176.7110  137.1440 C   0  0  0  0  0  2  0  0  0  0  0  0
  190.1290  178.1130  142.2710 C   0  0  0  0  0  0  0  0  0  0  0  0
  186.8800  178.4400  140.3150 C   0  0  0  0  0  0  0  0  0  0  0  0
  190.7500  176.1450  136.9780 C   0  0  0  0  0  0  0  0  0  0  0  0
  188.6870  176.4240  135.7980 C   0  0  0  0  0  3  0  0  0  0  0  0
  193.4000  176.5790  134.5940 N   0  0  0  0  0  1  0  0  0  0  0  0
  190.3880  176.5440  140.5740 O   0  0  0  0  0  0  0  0  0  0  0  0
  188.6460  176.6700  144.3510 C   0  0  0  0  0  2  0  0  0  0  0  0
  188.0230  176.4250  137.0550 C   0  0  0  0  0  0  0  0  0  0  0  0
  188.1700  178.0280  140.7830 N   0  0  0  0  0  2  0  0  0  0  0  0
  190.0790  176.2440  135.8020 C   0  0  0  0  0  0  0  0  0  0  0  0
  188.0130  176.9160  142.9760 C   0  0  0  0  0  2  0  0  0  0  0  0
  186.5720  178.2530  139.0580 C   0  0  0  0  0  0  0  0  0  0  0  0
  190.9100  177.4020  141.5150 N   0  0  0  0  0  0  0  0  0  0  0  0
  188.7630  176.2980  138.2560 C   0  0  0  0  0  3  0  0  0  0  0  0
  190.5590  178.2380  144.7210 C   0  0  0  0  0  2  0  0  0  0  0  0
  192.3980  176.4520  139.1450 C   0  0  0  0  0  3  0  0  0  0  0  0
  191.0100  176.3980  134.7270 N   0  0  0  0  0  0  0  0  0  0  0  0
  190.1580  176.1930  138.2170 C   0  0  0  0  0  0  0  0  0  0  0  0
  192.0780  176.2510  136.7660 C   0  0  0  0  0  0  0  0  0  0  0  0
  190.7170  178.9330  143.3690 C   0  0  0  0  0  2  0  0  0  0  0  0
  189.0980  177.9430  145.0640 C   0  0  0  0  0  2  0  0  0  0  0  0
  186.2900  178.0390  137.7960 C   0  0  0  0  0  3  0  0  0  0  0  0
  192.9580  176.4150  137.8410 C   0  0  0  0  0  3  0  0  0  0  0  0
  190.9900  176.3560  139.3330 C   0  0  0  0  0  0  0  0  0  0  0  0
  185.9410  179.2000  141.1950 C   0  0  0  0  0  2  0  0  0  0  0  0
  184.9160  178.2720  141.8290 C   0  0  0  0  0  2  0  0  0  0  0  0
  185.2720  178.6070  144.0980 C   0  0  1  0  0  3  0  0  0  0  0  0
  184.3580  178.8880  143.0220 N   0  0  0  0  0  0  0  0  0  0  0  0
  185.2900  179.8090  143.4680 O   0  0  0  0  0  0  0  0  0  0  0  0
  184.5480  178.7410  145.4240 C   0  0  0  0  0  2  0  0  0  0  0  0
  185.6960  179.7270  147.4000 O   0  0  0  0  0  1  0  0  0  0  0  0
  185.5190  178.6470  146.5480 C   0  0  0  0  0  0  0  0  0  0  0  0
  186.1530  177.5770  146.7460 O   0  0  0  0  0  0  0  0  0  0  0  0
  1  4  1  0  0  0  0
  1 14  1  1  0  0  0
  2 22  1  0  0  0  0
  3 25  1  0  0  0  0
  4 23  1  0  0  0  0
  5 12  1  0  0  0  0
  5 28  1  0  0  0  0
  6 21  1  0  0  0  0
  7 13  2  0  0  0  0
  7 11  1  0  0  0  0
  8  2  1  0  0  0  0
  9 16  1  0  0  0  0
 10 24  1  0  0  0  0
 11  3  1  0  0  0  0
 11 17  2  0  0  0  0
 12  1  1  0  0  0  0
 13  6  1  0  0  0  0
 14 10  1  0  0  0  0
 15  5  2  0  0  0  0
 16  4  2  0  0  0  0
 18 24  1  0  0  0  0
 19 27  1  0  0  0  0
 20  2  2  0  0  0  0
 20 13  1  0  0  0  0
 21 17  1  0  0  0  0
 21 27  2  0  0  0  0
 22  6  2  0  0  0  0
 22 26  1  0  0  0  0
 23 18  1  0  0  0  0
 25 15  2  0  0  0  0
 26 19  2  0  0  0  0
 27  9  1  0  0  0  0
 28 29  1  0  0  0  0
 29 31  1  0  0  0  0
 30 33  1  1  0  0  0
 31 32  1  0  0  0  0
 31 30  1  0  0  0  0
 32 30  1  0  0  0  0
 33 35  1  0  0  0  0
 35 36  2  0  0  0  0
 35 34  1  0  0  0  0
M  END
>  <MODEL>
5

>  <REMARK>
 VINA RESULT:      -8.4      2.498      5.425
  Name = 
  5 active torsions:
  status: ('A' for Active; 'I' for Inactive)
    1  A    between atoms: C_2  and  N_15
    2  A    between atoms: C_2  and  C_29
    3  A    between atoms: C_7  and  C_29
    4  A    between atoms: C_8  and  C_22
    5  A    between atoms: C_18  and  C_22
                            x       y       z     vdW  Elec       q    Type
                         _______ _______ _______ _____ _____    ______ ____

>  <TORSDO>
F 5

$$$$
=
 OpenBabel11032420123D

 36 41  0  0  1  0  0  0  0  0999 V2000
  184.9680  178.5580  138.8660 C   0  0  1  0  0  3  0  0  0  0  0  0
  186.2070  178.9290  146.6760 C   0  0  0  0  0  0  0  0  0  0  0  0
  189.2360  176.8020  142.0440 C   0  0  0  0  0  2  0  0  0  0  0  0
  183.8200  179.2030  139.6110 C   0  0  0  0  0  0  0  0  0  0  0  0
  187.4990  178.3010  139.2350 C   0  0  0  0  0  0  0  0  0  0  0  0
  186.1340  178.0110  144.6610 C   0  0  0  0  0  0  0  0  0  0  0  0
  188.4510  177.4990  144.3530 C   0  0  0  0  0  3  0  0  0  0  0  0
  185.8250  179.6460  147.8430 N   0  0  0  0  0  1  0  0  0  0  0  0
  184.2550  177.9910  141.5490 O   0  0  0  0  0  0  0  0  0  0  0  0
  183.1890  177.1470  137.6160 C   0  0  0  0  0  2  0  0  0  0  0  0
  188.1460  177.1470  143.0100 C   0  0  0  0  0  0  0  0  0  0  0  0
  186.1520  178.4220  139.7100 N   0  0  0  0  0  2  0  0  0  0  0  0
  187.3870  177.9040  145.1740 C   0  0  0  0  0  0  0  0  0  0  0  0
  184.5790  177.2020  138.2600 C   0  0  0  0  0  2  0  0  0  0  0  0
  188.4580  178.0870  140.0980 C   0  0  0  0  0  0  0  0  0  0  0  0
  183.5270  178.9240  140.8450 N   0  0  0  0  0  0  0  0  0  0  0  0
  186.8200  177.2550  142.5250 C   0  0  0  0  0  3  0  0  0  0  0  0
  182.0070  179.3320  137.9090 C   0  0  0  0  0  2  0  0  0  0  0  0
  183.6650  178.8220  143.7960 C   0  0  0  0  0  3  0  0  0  0  0  0
  187.4270  178.4960  146.4750 N   0  0  0  0  0  0  0  0  0  0  0  0
  185.8010  177.7320  143.3580 C   0  0  0  0  0  0  0  0  0  0  0  0
  185.3320  178.6640  145.5270 C   0  0  0  0  0  0  0  0  0  0  0  0
  182.9350  180.1170  138.8340 C   0  0  0  0  0  2  0  0  0  0  0  0
  182.7700  178.4430  136.9250 C   0  0  0  0  0  2  0  0  0  0  0  0
  189.3940  177.8600  140.9880 C   0  0  0  0  0  3  0  0  0  0  0  0
  184.0650  179.1030  145.1290 C   0  0  0  0  0  3  0  0  0  0  0  0
  184.5420  178.1470  142.9010 C   0  0  0  0  0  0  0  0  0  0  0  0
  187.8430  178.5520  137.8030 C   0  0  0  0  0  2  0  0  0  0  0  0
  188.5820  177.3640  137.2040 C   0  0  0  0  0  2  0  0  0  0  0  0
  188.3400  175.2350  136.3150 C   0  0  1  0  0  3  0  0  0  0  0  0
  187.6420  176.4730  136.5470 N   0  0  0  0  0  0  0  0  0  0  0  0
  187.4970  175.3700  137.3700 O   0  0  0  0  0  0  0  0  0  0  0  0
  187.6470  174.4640  135.2070 C   0  0  0  0  0  2  0  0  0  0  0  0
  187.1720  172.0380  134.9150 O   0  0  0  0  0  0  0  0  0  0  0  0
  188.0790  173.0400  135.2290 C   0  0  0  0  0  0  0  0  0  0  0  0
  189.2740  172.7480  135.4980 O   0  0  0  0  0  1  0  0  0  0  0  0
  1 14  1  1  0  0  0
  1  4  1  0  0  0  0
  1 12  1  0  0  0  0
  2  8  1  0  0  0  0
  3 11  1  0  0  0  0
  4 16  2  0  0  0  0
  5 12  1  0  0  0  0
  5 15  2  0  0  0  0
  6 13  1  0  0  0  0
  6 22  1  0  0  0  0
  7 13  2  0  0  0  0
  9 27  1  0  0  0  0
 10 14  1  0  0  0  0
 11  7  1  0  0  0  0
 13 20  1  0  0  0  0
 15 25  2  0  0  0  0
 16  9  1  0  0  0  0
 17 11  2  0  0  0  0
 17 21  1  0  0  0  0
 18 23  1  0  0  0  0
 19 26  1  0  0  0  0
 20  2  2  0  0  0  0
 21  6  2  0  0  0  0
 22  2  1  0  0  0  0
 23  4  1  0  0  0  0
 24 10  1  0  0  0  0
 24 18  1  0  0  0  0
 25  3  1  0  0  0  0
 26 22  2  0  0  0  0
 27 21  1  0  0  0  0
 27 19  2  0  0  0  0
 28  5  1  0  0  0  0
 29 28  1  0  0  0  0
 30 33  1  6  0  0  0
 30 31  1  0  0  0  0
 30 32  1  0  0  0  0
 31 29  1  0  0  0  0
 31 32  1  0  0  0  0
 33 35  1  0  0  0  0
 34 35  2  0  0  0  0
 35 36  1  0  0  0  0
M  END
>  <MODEL>
6

>  <REMARK>
 VINA RESULT:      -8.3      3.121      7.720
  Name = 
  5 active torsions:
  status: ('A' for Active; 'I' for Inactive)
    1  A    between atoms: C_2  and  N_15
    2  A    between atoms: C_2  and  C_29
    3  A    between atoms: C_7  and  C_29
    4  A    between atoms: C_8  and  C_22
    5  A    between atoms: C_18  and  C_22
                            x       y       z     vdW  Elec       q    Type
                         _______ _______ _______ _____ _____    ______ ____

>  <TORSDO>
F 5

$$$$
=
 OpenBabel11032420123D

 36 41  0  0  1  0  0  0  0  0999 V2000
  189.5300  177.4640  142.4590 C   0  0  1  0  0  3  0  0  0  0  0  0
  181.9240  178.0440  140.3440 C   0  0  0  0  0  0  0  0  0  0  0  0
  187.1030  178.2290  137.4670 C   0  0  0  0  0  2  0  0  0  0  0  0
  188.5860  177.3720  143.6380 C   0  0  0  0  0  0  0  0  0  0  0  0
  189.4080  176.9310  139.9470 C   0  0  0  0  0  0  0  0  0  0  0  0
  184.0720  178.5760  140.4030 C   0  0  0  0  0  0  0  0  0  0  0  0
  184.6490  178.2350  138.1060 C   0  0  0  0  0  3  0  0  0  0  0  0
  180.6080  177.7050  140.7670 N   0  0  0  0  0  1  0  0  0  0  0  0
  186.9760  178.6840  142.5890 O   0  0  0  0  0  0  0  0  0  0  0  0
  190.9090  179.1480  143.8670 C   0  0  0  0  0  2  0  0  0  0  0  0
  186.0090  178.4330  138.4680 C   0  0  0  0  0  0  0  0  0  0  0  0
  188.8210  177.3440  141.1870 N   0  0  0  0  0  2  0  0  0  0  0  0
  183.6870  178.3500  139.1210 C   0  0  0  0  0  0  0  0  0  0  0  0
  190.3720  178.7480  142.4880 C   0  0  0  0  0  2  0  0  0  0  0  0
  188.6810  176.9600  138.8610 C   0  0  0  0  0  0  0  0  0  0  0  0
  187.4170  177.9380  143.6590 N   0  0  0  0  0  0  0  0  0  0  0  0
  186.3630  178.6880  139.8150 C   0  0  0  0  0  3  0  0  0  0  0  0
  190.0870  177.5600  145.6150 C   0  0  0  0  0  2  0  0  0  0  0  0
  184.5680  178.4910  143.0960 C   0  0  0  0  0  3  0  0  0  0  0  0
  182.2980  178.0100  139.0890 N   0  0  0  0  0  0  0  0  0  0  0  0
  185.3770  178.7230  140.8080 C   0  0  0  0  0  0  0  0  0  0  0  0
  183.0340  178.3830  141.2420 C   0  0  0  0  0  0  0  0  0  0  0  0
  189.0910  176.6820  144.8600 C   0  0  0  0  0  2  0  0  0  0  0  0
  191.2850  177.9650  144.7570 C   0  0  0  0  0  2  0  0  0  0  0  0
  187.9290  177.0140  137.7880 C   0  0  0  0  0  3  0  0  0  0  0  0
  183.2390  178.3250  142.6250 C   0  0  0  0  0  3  0  0  0  0  0  0
  185.6450  178.6750  142.1830 C   0  0  0  0  0  0  0  0  0  0  0  0
  190.7790  176.3400  139.8960 C   0  0  0  0  0  2  0  0  0  0  0  0
  191.4690  176.6750  138.5820 C   0  0  0  0  0  2  0  0  0  0  0  0
  193.3090  175.5190  137.7700 C   0  0  1  0  0  3  0  0  0  0  0  0
  192.9070  176.5230  138.7210 N   0  0  0  0  0  0  0  0  0  0  0  0
  193.4620  176.8390  137.4930 O   0  0  0  0  0  0  0  0  0  0  0  0
  194.6440  174.9320  138.1890 C   0  0  0  0  0  2  0  0  0  0  0  0
  195.3290  172.6300  138.8420 O   0  0  0  0  0  1  0  0  0  0  0  0
  194.6490  173.4610  137.9640 C   0  0  0  0  0  0  0  0  0  0  0  0
  194.0070  172.9690  136.9980 O   0  0  0  0  0  0  0  0  0  0  0  0
  1 14  1  6  0  0  0
  1  4  1  0  0  0  0
  2  8  1  0  0  0  0
  2 22  1  0  0  0  0
  3 25  1  0  0  0  0
  3 11  1  0  0  0  0
  4 16  2  0  0  0  0
  4 23  1  0  0  0  0
  5 12  1  0  0  0  0
  6 21  1  0  0  0  0
  6 22  1  0  0  0  0
  7 11  2  0  0  0  0
  7 13  1  0  0  0  0
  9 16  1  0  0  0  0
 10 24  1  0  0  0  0
 11 17  1  0  0  0  0
 12  1  1  0  0  0  0
 13  6  2  0  0  0  0
 14 10  1  0  0  0  0
 15  5  2  0  0  0  0
 17 21  2  0  0  0  0
 20 13  1  0  0  0  0
 20  2  2  0  0  0  0
 21 27  1  0  0  0  0
 22 26  2  0  0  0  0
 23 18  1  0  0  0  0
 24 18  1  0  0  0  0
 25 15  2  0  0  0  0
 26 19  1  0  0  0  0
 27  9  1  0  0  0  0
 27 19  2  0  0  0  0
 28  5  1  0  0  0  0
 29 31  1  0  0  0  0
 29 28  1  0  0  0  0
 30 33  1  1  0  0  0
 30 31  1  0  0  0  0
 32 30  1  0  0  0  0
 32 31  1  0  0  0  0
 35 33  1  0  0  0  0
 35 34  1  0  0  0  0
 36 35  2  0  0  0  0
M  END
>  <MODEL>
7

>  <REMARK>
 VINA RESULT:      -8.0      3.379      7.106
  Name = 
  5 active torsions:
  status: ('A' for Active; 'I' for Inactive)
    1  A    between atoms: C_2  and  N_15
    2  A    between atoms: C_2  and  C_29
    3  A    between atoms: C_7  and  C_29
    4  A    between atoms: C_8  and  C_22
    5  A    between atoms: C_18  and  C_22
                            x       y       z     vdW  Elec       q    Type
                         _______ _______ _______ _____ _____    ______ ____

>  <TORSDO>
F 5

$$$$
=
 OpenBabel11032420123D

 36 41  0  0  1  0  0  0  0  0999 V2000
  187.3570  177.2440  137.4560 C   0  0  1  0  0  3  0  0  0  0  0  0
  186.1620  177.8540  145.2580 C   0  0  0  0  0  0  0  0  0  0  0  0
  182.9940  179.1440  140.4160 C   0  0  0  0  0  2  0  0  0  0  0  0
  188.5450  176.7790  138.2690 C   0  0  0  0  0  0  0  0  0  0  0  0
  184.8150  177.3900  137.8160 C   0  0  0  0  0  0  0  0  0  0  0  0
  186.1720  178.4940  143.1380 C   0  0  0  0  0  0  0  0  0  0  0  0
  183.8270  178.8150  142.7890 C   0  0  0  0  0  3  0  0  0  0  0  0
  186.5920  177.3270  146.5070 N   0  0  0  0  0  1  0  0  0  0  0  0
  188.0390  178.2110  140.0300 O   0  0  0  0  0  0  0  0  0  0  0  0
  189.0400  178.5810  136.0080 C   0  0  0  0  0  2  0  0  0  0  0  0
  184.1060  179.0010  141.4080 C   0  0  0  0  0  0  0  0  0  0  0  0
  186.1680  177.4190  138.2880 N   0  0  0  0  0  2  0  0  0  0  0  0
  184.9170  178.5910  143.6450 C   0  0  0  0  0  0  0  0  0  0  0  0
  187.6570  178.5270  136.6690 C   0  0  0  0  0  2  0  0  0  0  0  0
  183.8470  177.6590  138.6520 C   0  0  0  0  0  0  0  0  0  0  0  0
  188.8230  177.2390  139.4510 N   0  0  0  0  0  0  0  0  0  0  0  0
  185.4350  178.9110  140.9270 C   0  0  0  0  0  3  0  0  0  0  0  0
  190.3580  176.5340  136.5800 C   0  0  0  0  0  2  0  0  0  0  0  0
  188.6860  177.7290  142.3630 C   0  0  0  0  0  3  0  0  0  0  0  0
  184.9170  178.1800  145.0150 N   0  0  0  0  0  0  0  0  0  0  0  0
  186.4840  178.6150  141.8050 C   0  0  0  0  0  0  0  0  0  0  0  0
  187.0160  178.0150  144.0750 C   0  0  0  0  0  0  0  0  0  0  0  0
  189.4840  175.8240  137.6130 C   0  0  0  0  0  2  0  0  0  0  0  0
  189.5390  177.2320  135.4940 C   0  0  0  0  0  2  0  0  0  0  0  0
  182.9000  177.9450  139.5130 C   0  0  0  0  0  3  0  0  0  0  0  0
  188.3080  177.6070  143.7260 C   0  0  0  0  0  3  0  0  0  0  0  0
  187.7650  178.2220  141.3950 C   0  0  0  0  0  0  0  0  0  0  0  0
  184.4840  176.9280  136.4340 C   0  0  0  0  0  2  0  0  0  0  0  0
  183.5960  175.6930  136.4710 C   0  0  0  0  0  2  0  0  0  0  0  0
  184.0750  173.4280  136.3050 C   0  0  1  0  0  3  0  0  0  0  0  0
  184.2960  174.5960  137.1180 N   0  0  0  0  0  0  0  0  0  0  0  0
  185.2330  174.1310  136.2110 O   0  0  0  0  0  0  0  0  0  0  0  0
  184.3050  172.1810  137.1380 C   0  0  0  0  0  2  0  0  0  0  0  0
  181.9020  171.5440  137.2440 O   0  0  0  0  0  1  0  0  0  0  0  0
  183.2050  171.2050  136.9110 C   0  0  0  0  0  0  0  0  0  0  0  0
  183.4520  170.0880  136.3850 O   0  0  0  0  0  0  0  0  0  0  0  0
  1 14  1  1  0  0  0
  1  4  1  0  0  0  0
  1 12  1  0  0  0  0
  2  8  1  0  0  0  0
  3 11  1  0  0  0  0
  4 16  2  0  0  0  0
  5 12  1  0  0  0  0
  5 15  2  0  0  0  0
  6 13  1  0  0  0  0
  6 22  1  0  0  0  0
  7 13  2  0  0  0  0
  9 27  1  0  0  0  0
 10 14  1  0  0  0  0
 11  7  1  0  0  0  0
 13 20  1  0  0  0  0
 15 25  2  0  0  0  0
 16  9  1  0  0  0  0
 17 11  2  0  0  0  0
 17 21  1  0  0  0  0
 18 23  1  0  0  0  0
 19 26  1  0  0  0  0
 20  2  2  0  0  0  0
 21  6  2  0  0  0  0
 22  2  1  0  0  0  0
 23  4  1  0  0  0  0
 24 10  1  0  0  0  0
 24 18  1  0  0  0  0
 25  3  1  0  0  0  0
 26 22  2  0  0  0  0
 27 21  1  0  0  0  0
 27 19  2  0  0  0  0
 28 29  1  0  0  0  0
 28  5  1  0  0  0  0
 29 31  1  0  0  0  0
 30 31  1  0  0  0  0
 30 33  1  1  0  0  0
 32 30  1  0  0  0  0
 32 31  1  0  0  0  0
 35 33  1  0  0  0  0
 35 34  1  0  0  0  0
 36 35  2  0  0  0  0
M  END
>  <MODEL>
8

>  <REMARK>
 VINA RESULT:      -7.8      3.661      8.903
  Name = 
  5 active torsions:
  status: ('A' for Active; 'I' for Inactive)
    1  A    between atoms: C_2  and  N_15
    2  A    between atoms: C_2  and  C_29
    3  A    between atoms: C_7  and  C_29
    4  A    between atoms: C_8  and  C_22
    5  A    between atoms: C_18  and  C_22
                            x       y       z     vdW  Elec       q    Type
                         _______ _______ _______ _____ _____    ______ ____

>  <TORSDO>
F 5

$$$$
=
 OpenBabel11032420123D

 36 41  0  0  1  0  0  0  0  0999 V2000
  183.3990  178.9060  141.8200 C   0  0  1  0  0  3  0  0  0  0  0  0
  188.8140  178.1530  147.5460 C   0  0  0  0  0  0  0  0  0  0  0  0
  188.7120  177.1280  141.7080 C   0  0  0  0  0  2  0  0  0  0  0  0
  182.8690  179.2970  143.1820 C   0  0  0  0  0  0  0  0  0  0  0  0
  185.7000  178.8640  140.6740 C   0  0  0  0  0  0  0  0  0  0  0  0
  187.6190  177.5660  145.7750 C   0  0  0  0  0  0  0  0  0  0  0  0
  189.3610  177.3600  144.1480 C   0  0  0  0  0  3  0  0  0  0  0  0
  189.1550  178.6280  148.8420 N   0  0  0  0  0  1  0  0  0  0  0  0
  184.3160  177.8450  144.2820 O   0  0  0  0  0  0  0  0  0  0  0  0
  181.2220  177.5320  141.5160 C   0  0  0  0  0  2  0  0  0  0  0  0
  188.3540  177.1960  143.1590 C   0  0  0  0  0  0  0  0  0  0  0  0
  184.8530  178.7630  141.8260 N   0  0  0  0  0  2  0  0  0  0  0  0
  188.9430  177.5130  145.4790 C   0  0  0  0  0  0  0  0  0  0  0  0
  182.7340  177.6310  141.2820 C   0  0  0  0  0  2  0  0  0  0  0  0
  186.9780  178.6170  140.8040 C   0  0  0  0  0  0  0  0  0  0  0  0
  183.3200  178.7950  144.2920 N   0  0  0  0  0  0  0  0  0  0  0  0
  186.9850  177.2390  143.5180 C   0  0  0  0  0  3  0  0  0  0  0  0
  180.4140  179.5030  142.8260 C   0  0  0  0  0  2  0  0  0  0  0  0
  185.0920  178.2380  146.5910 C   0  0  0  0  0  3  0  0  0  0  0  0
  189.7090  177.8890  146.6270 N   0  0  0  0  0  0  0  0  0  0  0  0
  186.6110  177.4660  144.8480 C   0  0  0  0  0  0  0  0  0  0  0  0
  187.4440  177.9840  147.0460 C   0  0  0  0  0  0  0  0  0  0  0  0
  181.7030  180.2250  143.2160 C   0  0  0  0  0  2  0  0  0  0  0  0
  180.4900  178.8700  141.4360 C   0  0  0  0  0  2  0  0  0  0  0  0
  188.2520  178.3520  140.9660 C   0  0  0  0  0  3  0  0  0  0  0  0
  186.1730  178.3430  147.5060 C   0  0  0  0  0  3  0  0  0  0  0  0
  185.3140  177.8120  145.2510 C   0  0  0  0  0  0  0  0  0  0  0  0
  185.1810  179.3750  139.3700 C   0  0  0  0  0  2  0  0  0  0  0  0
  185.3910  178.3550  138.2610 C   0  0  0  0  0  2  0  0  0  0  0  0
  187.3390  177.4320  137.4030 C   0  0  1  0  0  3  0  0  0  0  0  0
  186.6040  178.6650  137.5230 N   0  0  0  0  0  0  0  0  0  0  0  0
  186.5790  177.8910  136.3760 O   0  0  0  0  0  0  0  0  0  0  0  0
  188.7990  177.7400  137.1300 C   0  0  0  0  0  2  0  0  0  0  0  0
  189.5370  175.3810  137.4260 O   0  0  0  0  0  0  0  0  0  0  0  0
  189.6660  176.7180  137.7760 C   0  0  0  0  0  0  0  0  0  0  0  0
  190.5380  177.0690  138.6130 O   0  0  0  0  0  1  0  0  0  0  0  0
  1 14  1  1  0  0  0
  1 12  1  0  0  0  0
  1  4  1  0  0  0  0
  2  8  1  0  0  0  0
  3 11  1  0  0  0  0
  4 23  1  0  0  0  0
  4 16  2  0  0  0  0
  5 15  2  0  0  0  0
  5 12  1  0  0  0  0
  6 22  1  0  0  0  0
  7 13  1  0  0  0  0
  9 16  1  0  0  0  0
  9 27  1  0  0  0  0
 11 17  1  0  0  0  0
 11  7  2  0  0  0  0
 13  6  2  0  0  0  0
 13 20  1  0  0  0  0
 14 10  1  0  0  0  0
 15 25  2  0  0  0  0
 17 21  2  0  0  0  0
 18 23  1  0  0  0  0
 19 26  1  0  0  0  0
 20  2  2  0  0  0  0
 21 27  1  0  0  0  0
 21  6  1  0  0  0  0
 22 26  2  0  0  0  0
 22  2  1  0  0  0  0
 24 10  1  0  0  0  0
 24 18  1  0  0  0  0
 25  3  1  0  0  0  0
 27 19  2  0  0  0  0
 28  5  1  0  0  0  0
 29 28  1  0  0  0  0
 30 33  1  6  0  0  0
 30 31  1  0  0  0  0
 31 29  1  0  0  0  0
 32 30  1  0  0  0  0
 32 31  1  0  0  0  0
 33 35  1  0  0  0  0
 34 35  2  0  0  0  0
 35 36  1  0  0  0  0
M  END
>  <MODEL>
9

>  <REMARK>
 VINA RESULT:      -7.6      2.771      7.111
  Name = 
  5 active torsions:
  status: ('A' for Active; 'I' for Inactive)
    1  A    between atoms: C_2  and  N_15
    2  A    between atoms: C_2  and  C_29
    3  A    between atoms: C_7  and  C_29
    4  A    between atoms: C_8  and  C_22
    5  A    between atoms: C_18  and  C_22
                            x       y       z     vdW  Elec       q    Type
                         _______ _______ _______ _____ _____    ______ ____

>  <TORSDO>
F 5

$$$$
