=
 OpenBabel11032421113D

 34 38  0  0  1  0  0  0  0  0999 V2000
  183.6110  178.5620  143.0540 N   0  0  0  0  0  0  0  0  0  0  0  0
  188.0890  177.7650  145.5690 C   0  0  0  0  0  0  0  0  0  0  0  0
  191.8120  177.7010  143.2000 C   0  0  0  0  0  2  0  0  0  0  0  0
  186.7840  178.0680  145.1080 C   0  0  0  0  0  0  0  0  0  0  0  0
  189.7360  177.0700  147.4030 C   0  0  0  0  0  2  0  0  0  0  0  0
  185.6480  179.0860  147.0990 N   0  0  0  0  0  0  0  0  0  0  0  0
  183.3730  179.3360  145.1310 N   0  0  0  0  0  0  0  0  0  0  0  0
  191.5600  176.6130  144.2580 C   0  0  0  0  0  2  0  0  0  0  0  0
  185.6990  178.6680  145.8150 C   0  0  0  0  0  0  0  0  0  0  0  0
  190.5100  177.0930  145.2430 C   0  0  2  0  0  3  0  0  0  0  0  0
  186.2340  177.7270  143.4990 S   0  0  0  0  0  0  0  0  0  0  0  0
  184.7230  178.3520  143.7630 C   0  0  0  0  0  0  0  0  0  0  0  0
  186.5420  178.9280  148.0920 C   0  0  0  0  0  3  0  0  0  0  0  0
  182.8000  179.1680  143.9310 N   0  0  0  0  0  0  0  0  0  0  0  0
  190.3540  176.2260  146.3850 N   0  0  0  0  0  2  0  0  0  0  0  0
  187.7530  178.2670  148.0170 C   0  0  0  0  0  3  0  0  0  0  0  0
  189.1480  177.2790  144.5610 C   0  0  2  0  0  3  0  0  0  0  0  0
  189.2860  178.1120  143.2490 C   0  0  1  0  0  3  0  0  0  0  0  0
  190.6860  178.7500  143.1130 C   0  0  0  0  0  2  0  0  0  0  0  0
  188.4330  177.7040  146.9510 C   0  0  0  0  0  0  0  0  0  0  0  0
  184.5950  178.8060  144.9860 C   0  0  0  0  0  0  0  0  0  0  0  0
  189.6450  177.4130  139.6120 C   0  0  0  0  0  0  0  0  0  0  0  0
  189.0310  177.2600  142.0270 C   0  0  0  0  0  0  0  0  0  0  0  0
  190.8220  176.6190  139.8170 N   0  0  0  0  0  2  0  0  0  0  0  0
  189.3220  177.7860  138.4530 O   0  0  0  0  0  0  0  0  0  0  0  0
  189.0160  176.0000  142.1150 O   0  0  0  0  0  0  0  0  0  0  0  0
  188.8940  177.8750  140.7410 N   0  0  0  0  0  2  0  0  0  0  0  0
  192.7410  176.7630  138.4250 C   0  0  0  0  0  2  0  0  0  0  0  0
  191.6580  176.0890  138.7840 C   0  0  0  0  0  0  0  0  0  0  0  0
  191.3640  174.8530  138.1200 N   0  0  0  0  0  2  0  0  0  0  0  0
  190.1100  174.4870  137.5810 N   0  0  0  0  0  2  0  0  0  0  0  0
  190.1330  175.8260  135.6470 O   0  0  0  0  0  0  0  0  0  0  0  0
  188.2620  174.5560  135.9920 O   0  0  0  0  0  1  0  0  0  0  0  0
  189.5350  174.9790  136.3610 C   0  0  0  0  0  0  0  0  0  0  0  0
  1 12  2  0  0  0  0
  1 14  1  0  0  0  0
  2 20  1  0  0  0  0
  3  8  1  0  0  0  0
  4  2  2  0  0  0  0
  4  9  1  0  0  0  0
  6 13  2  0  0  0  0
  9  6  1  0  0  0  0
 10  8  1  6  0  0  0
 10 15  1  0  0  0  0
 11 12  1  0  0  0  0
 11  4  1  0  0  0  0
 12 21  1  0  0  0  0
 14  7  2  0  0  0  0
 15  5  1  0  0  0  0
 16 13  1  0  0  0  0
 17 10  1  0  0  0  0
 17  2  1  1  0  0  0
 18 23  1  6  0  0  0
 18 17  1  0  0  0  0
 19  3  1  0  0  0  0
 19 18  1  0  0  0  0
 20  5  1  0  0  0  0
 20 16  2  0  0  0  0
 21  7  1  0  0  0  0
 21  9  2  0  0  0  0
 22 24  1  0  0  0  0
 22 27  1  0  0  0  0
 23 26  2  0  0  0  0
 25 22  2  0  0  0  0
 27 23  1  0  0  0  0
 28 29  2  0  0  0  0
 29 24  1  0  0  0  0
 30 29  1  0  0  0  0
 31 30  1  0  0  0  0
 32 34  2  0  0  0  0
 33 34  1  0  0  0  0
 34 31  1  0  0  0  0
M  END
>  <MODEL>
1

>  <REMARK>
 VINA RESULT:     -10.3      0.000      0.000
  Name = 
  4 active torsions:
  status: ('A' for Active; 'I' for Inactive)
    1  A    between atoms: N_10  and  C_22
    2  A    between atoms: N_10  and  N_25
    3  A    between atoms: C_12  and  C_28
    4  A    between atoms: N_17  and  C_22
                            x       y       z     vdW  Elec       q    Type
                         _______ _______ _______ _____ _____    ______ ____

>  <TORSDO>
F 4

$$$$
=
 OpenBabel11032421113D

 34 38  0  0  1  0  0  0  0  0999 V2000
  183.7180  178.6110  142.9930 N   0  0  0  0  0  0  0  0  0  0  0  0
  188.1510  177.7900  145.5790 C   0  0  0  0  0  0  0  0  0  0  0  0
  191.9270  177.8780  143.2980 C   0  0  0  0  0  2  0  0  0  0  0  0
  186.8510  178.0900  145.1000 C   0  0  0  0  0  0  0  0  0  0  0  0
  189.7680  177.0510  147.4230 C   0  0  0  0  0  2  0  0  0  0  0  0
  185.6540  179.0110  147.1020 N   0  0  0  0  0  0  0  0  0  0  0  0
  183.4200  179.3000  145.0920 N   0  0  0  0  0  0  0  0  0  0  0  0
  191.6690  176.7460  144.3060 C   0  0  0  0  0  2  0  0  0  0  0  0
  185.7400  178.6440  145.8040 C   0  0  0  0  0  0  0  0  0  0  0  0
  190.5890  177.1700  145.2840 C   0  0  2  0  0  3  0  0  0  0  0  0
  186.3440  177.8020  143.4670 S   0  0  0  0  0  0  0  0  0  0  0  0
  184.8170  178.3920  143.7200 C   0  0  0  0  0  0  0  0  0  0  0  0
  186.5270  178.8290  148.1090 C   0  0  0  0  0  3  0  0  0  0  0  0
  182.8770  179.1700  143.8730 N   0  0  0  0  0  0  0  0  0  0  0  0
  190.4220  176.2580  146.3880 N   0  0  0  0  0  2  0  0  0  0  0  0
  187.7500  178.1910  148.0370 C   0  0  0  0  0  3  0  0  0  0  0  0
  189.2400  177.3610  144.5780 C   0  0  2  0  0  3  0  0  0  0  0  0
  189.3940  178.2460  143.3030 C   0  0  1  0  0  3  0  0  0  0  0  0
  190.7860  178.9110  143.2240 C   0  0  0  0  0  2  0  0  0  0  0  0
  188.4650  177.6810  146.9660 C   0  0  0  0  0  0  0  0  0  0  0  0
  184.6540  178.7960  144.9550 C   0  0  0  0  0  0  0  0  0  0  0  0
  189.8510  177.6920  139.6520 C   0  0  0  0  0  0  0  0  0  0  0  0
  189.1820  177.4380  142.0430 C   0  0  0  0  0  0  0  0  0  0  0  0
  191.0340  176.9070  139.8560 N   0  0  0  0  0  2  0  0  0  0  0  0
  189.5520  178.1050  138.5010 O   0  0  0  0  0  0  0  0  0  0  0  0
  189.1820  176.1760  142.0840 O   0  0  0  0  0  0  0  0  0  0  0  0
  189.0660  178.1000  140.7780 N   0  0  0  0  0  2  0  0  0  0  0  0
  191.4050  175.6460  137.8780 C   0  0  0  0  0  2  0  0  0  0  0  0
  191.9030  176.4280  138.8250 C   0  0  0  0  0  0  0  0  0  0  0  0
  193.2970  176.7620  138.7810 N   0  0  0  0  0  2  0  0  0  0  0  0
  194.3410  176.0080  139.3610 N   0  0  0  0  0  2  0  0  0  0  0  0
  194.6540  174.4280  137.6460 O   0  0  0  0  0  0  0  0  0  0  0  0
  195.9740  174.2020  139.5010 O   0  0  0  0  0  1  0  0  0  0  0  0
  194.9920  174.8690  138.7760 C   0  0  0  0  0  0  0  0  0  0  0  0
  1 12  2  0  0  0  0
  1 14  1  0  0  0  0
  2 20  1  0  0  0  0
  3  8  1  0  0  0  0
  4  2  2  0  0  0  0
  4  9  1  0  0  0  0
  6 13  2  0  0  0  0
  9  6  1  0  0  0  0
 10  8  1  6  0  0  0
 10 15  1  0  0  0  0
 11 12  1  0  0  0  0
 11  4  1  0  0  0  0
 12 21  1  0  0  0  0
 14  7  2  0  0  0  0
 15  5  1  0  0  0  0
 16 13  1  0  0  0  0
 17 10  1  0  0  0  0
 17  2  1  1  0  0  0
 18 23  1  6  0  0  0
 18 17  1  0  0  0  0
 19  3  1  0  0  0  0
 19 18  1  0  0  0  0
 20  5  1  0  0  0  0
 20 16  2  0  0  0  0
 21  7  1  0  0  0  0
 21  9  2  0  0  0  0
 22 24  1  0  0  0  0
 22 27  1  0  0  0  0
 23 26  2  0  0  0  0
 25 22  2  0  0  0  0
 27 23  1  0  0  0  0
 28 29  2  0  0  0  0
 29 24  1  0  0  0  0
 30 29  1  0  0  0  0
 30 31  1  0  0  0  0
 32 34  2  0  0  0  0
 34 31  1  0  0  0  0
 34 33  1  0  0  0  0
M  END
>  <MODEL>
2

>  <REMARK>
 VINA RESULT:     -10.2      1.782      2.233
  Name = 
  4 active torsions:
  status: ('A' for Active; 'I' for Inactive)
    1  A    between atoms: N_10  and  C_22
    2  A    between atoms: N_10  and  N_25
    3  A    between atoms: C_12  and  C_28
    4  A    between atoms: N_17  and  C_22
                            x       y       z     vdW  Elec       q    Type
                         _______ _______ _______ _____ _____    ______ ____

>  <TORSDO>
F 4

$$$$
=
 OpenBabel11032421113D

 34 38  0  0  1  0  0  0  0  0999 V2000
  183.7050  178.4040  142.1760 N   0  0  0  0  0  0  0  0  0  0  0  0
  187.7750  177.8240  145.3570 C   0  0  0  0  0  0  0  0  0  0  0  0
  191.8160  177.8970  143.5850 C   0  0  0  0  0  2  0  0  0  0  0  0
  186.5440  178.0670  144.6970 C   0  0  0  0  0  0  0  0  0  0  0  0
  189.1490  177.2180  147.4310 C   0  0  0  0  0  2  0  0  0  0  0  0
  185.0760  179.0530  146.4760 N   0  0  0  0  0  0  0  0  0  0  0  0
  183.1210  179.1870  144.1800 N   0  0  0  0  0  0  0  0  0  0  0  0
  191.4490  176.8100  144.6090 C   0  0  0  0  0  2  0  0  0  0  0  0
  185.3400  178.6260  145.2210 C   0  0  0  0  0  0  0  0  0  0  0  0
  190.2420  177.2530  145.4140 C   0  0  2  0  0  3  0  0  0  0  0  0
  186.2610  177.6870  143.0290 S   0  0  0  0  0  0  0  0  0  0  0  0
  184.7030  178.2500  143.0500 C   0  0  0  0  0  0  0  0  0  0  0  0
  185.8130  178.9430  147.5960 C   0  0  0  0  0  3  0  0  0  0  0  0
  182.7450  178.9840  142.9090 N   0  0  0  0  0  0  0  0  0  0  0  0
  189.9490  176.3910  146.5330 N   0  0  0  0  0  2  0  0  0  0  0  0
  187.0470  178.3340  147.7170 C   0  0  0  0  0  3  0  0  0  0  0  0
  188.9940  177.3740  144.5300 C   0  0  2  0  0  3  0  0  0  0  0  0
  189.2970  178.2000  143.2410 C   0  0  1  0  0  3  0  0  0  0  0  0
  190.6750  178.8960  143.3110 C   0  0  0  0  0  2  0  0  0  0  0  0
  187.9050  177.7910  146.7760 C   0  0  0  0  0  0  0  0  0  0  0  0
  184.3710  178.7090  144.2310 C   0  0  0  0  0  0  0  0  0  0  0  0
  190.0550  177.5750  139.6520 C   0  0  0  0  0  0  0  0  0  0  0  0
  189.2680  177.3270  142.0080 C   0  0  0  0  0  0  0  0  0  0  0  0
  191.3100  176.9520  139.9620 N   0  0  0  0  0  2  0  0  0  0  0  0
  189.7820  177.9050  138.4680 O   0  0  0  0  0  0  0  0  0  0  0  0
  189.4200  176.0770  142.1040 O   0  0  0  0  0  0  0  0  0  0  0  0
  189.1540  177.9220  140.7110 N   0  0  0  0  0  2  0  0  0  0  0  0
  193.4990  177.1020  139.0530 C   0  0  0  0  0  1  0  0  0  0  0  0
  192.2950  176.5490  139.0060 C   0  0  0  0  0  0  0  0  0  0  0  0
  192.0270  175.5670  137.9960 N   0  0  0  0  0  0  0  0  0  0  0  0
  192.8880  175.2330  136.9270 N   0  0  0  0  0  2  0  0  0  0  0  0
  191.5410  175.9390  135.1320 O   0  0  0  0  0  1  0  0  0  0  0  0
  193.5560  175.0010  134.5940 O   0  0  0  0  0  0  0  0  0  0  0  0
  192.6220  175.4320  135.5290 C   0  0  0  0  0  0  0  0  0  0  0  0
  1 14  1  0  0  0  0
  1 12  2  0  0  0  0
  2 20  1  0  0  0  0
  3  8  1  0  0  0  0
  4  9  1  0  0  0  0
  4  2  2  0  0  0  0
  6 13  2  0  0  0  0
  7 21  1  0  0  0  0
  9  6  1  0  0  0  0
 10  8  1  6  0  0  0
 10 15  1  0  0  0  0
 11 12  1  0  0  0  0
 11  4  1  0  0  0  0
 12 21  1  0  0  0  0
 13 16  1  0  0  0  0
 14  7  2  0  0  0  0
 15  5  1  0  0  0  0
 17  2  1  1  0  0  0
 17 10  1  0  0  0  0
 18 23  1  6  0  0  0
 18 19  1  0  0  0  0
 18 17  1  0  0  0  0
 19  3  1  0  0  0  0
 20  5  1  0  0  0  0
 20 16  2  0  0  0  0
 21  9  2  0  0  0  0
 22 24  1  0  0  0  0
 22 27  1  0  0  0  0
 23 26  2  0  0  0  0
 25 22  2  0  0  0  0
 27 23  1  0  0  0  0
 29 28  1  0  0  0  0
 29 24  1  0  0  0  0
 30 29  2  0  0  0  0
 31 30  1  0  0  0  0
 32 34  1  0  0  0  0
 33 34  2  0  0  0  0
 34 31  1  0  0  0  0
M  END
>  <MODEL>
3

>  <REMARK>
 VINA RESULT:      -9.4      1.113      1.373
  Name = 
  4 active torsions:
  status: ('A' for Active; 'I' for Inactive)
    1  A    between atoms: N_10  and  C_22
    2  A    between atoms: N_10  and  N_25
    3  A    between atoms: C_12  and  C_28
    4  A    between atoms: N_17  and  C_22
                            x       y       z     vdW  Elec       q    Type
                         _______ _______ _______ _____ _____    ______ ____

>  <TORSDO>
F 4

$$$$
=
 OpenBabel11032421113D

 34 38  0  0  1  0  0  0  0  0999 V2000
  189.5950  177.7430  139.6490 N   0  0  0  0  0  0  0  0  0  0  0  0
  185.7250  178.2950  143.0750 C   0  0  0  0  0  0  0  0  0  0  0  0
  181.5830  178.2190  141.5520 C   0  0  0  0  0  2  0  0  0  0  0  0
  186.9140  178.0590  142.3410 C   0  0  0  0  0  0  0  0  0  0  0  0
  184.4780  178.8870  145.2320 C   0  0  0  0  0  2  0  0  0  0  0  0
  188.4890  177.0680  144.0210 N   0  0  0  0  0  0  0  0  0  0  0  0
  190.3020  176.9520  141.6100 N   0  0  0  0  0  0  0  0  0  0  0  0
  182.0090  179.3030  142.5570 C   0  0  0  0  0  2  0  0  0  0  0  0
  188.1490  177.5010  142.7880 C   0  0  0  0  0  0  0  0  0  0  0  0
  183.2640  178.8590  143.2850 C   0  0  2  0  0  3  0  0  0  0  0  0
  187.0930  178.4490  140.6600 S   0  0  0  0  0  0  0  0  0  0  0  0
  188.6510  177.8900  140.5830 C   0  0  0  0  0  0  0  0  0  0  0  0
  187.8210  177.1700  145.1850 C   0  0  0  0  0  3  0  0  0  0  0  0
  190.5990  177.1620  140.3200 N   0  0  0  0  0  0  0  0  0  0  0  0
  183.6230  179.7160  144.3890 N   0  0  0  0  0  2  0  0  0  0  0  0
  186.5960  177.7750  145.3840 C   0  0  0  0  0  3  0  0  0  0  0  0
  184.4560  178.7460  142.3260 C   0  0  2  0  0  3  0  0  0  0  0  0
  184.0770  177.9250  141.0540 C   0  0  1  0  0  3  0  0  0  0  0  0
  182.7090  177.2250  141.2030 C   0  0  0  0  0  2  0  0  0  0  0  0
  185.6800  178.3200  144.5000 C   0  0  0  0  0  0  0  0  0  0  0  0
  189.0560  177.4260  141.7400 C   0  0  0  0  0  0  0  0  0  0  0  0
  182.3540  179.2290  138.0240 C   0  0  0  0  0  0  0  0  0  0  0  0
  184.0300  178.8060  139.8260 C   0  0  0  0  0  0  0  0  0  0  0  0
  181.8020  180.3420  138.7420 N   0  0  0  0  0  2  0  0  0  0  0  0
  181.9330  178.9410  136.8730 O   0  0  0  0  0  0  0  0  0  0  0  0
  184.5540  179.9540  139.8400 O   0  0  0  0  0  0  0  0  0  0  0  0
  183.3100  178.3760  138.6640 N   0  0  0  0  0  2  0  0  0  0  0  0
  179.6990  181.4400  138.8650 C   0  0  0  0  0  2  0  0  0  0  0  0
  180.8480  181.2740  138.2240 C   0  0  0  0  0  0  0  0  0  0  0  0
  181.0880  182.0350  137.0330 N   0  0  0  0  0  2  0  0  0  0  0  0
  180.5540  183.3130  136.7520 N   0  0  0  0  0  2  0  0  0  0  0  0
  182.3060  184.6390  137.5940 O   0  0  0  0  0  1  0  0  0  0  0  0
  180.4980  185.7500  136.7410 O   0  0  0  0  0  0  0  0  0  0  0  0
  181.1800  184.5740  137.0360 C   0  0  0  0  0  0  0  0  0  0  0  0
  1 14  1  0  0  0  0
  1 12  2  0  0  0  0
  2 20  1  0  0  0  0
  3  8  1  0  0  0  0
  4  9  1  0  0  0  0
  4  2  2  0  0  0  0
  6 13  2  0  0  0  0
  7 21  1  0  0  0  0
  9  6  1  0  0  0  0
 10  8  1  6  0  0  0
 10 15  1  0  0  0  0
 11  4  1  0  0  0  0
 12 11  1  0  0  0  0
 12 21  1  0  0  0  0
 13 16  1  0  0  0  0
 14  7  2  0  0  0  0
 15  5  1  0  0  0  0
 17  2  1  1  0  0  0
 17 10  1  0  0  0  0
 18 23  1  6  0  0  0
 18 19  1  0  0  0  0
 18 17  1  0  0  0  0
 19  3  1  0  0  0  0
 20  5  1  0  0  0  0
 20 16  2  0  0  0  0
 21  9  2  0  0  0  0
 22 27  1  0  0  0  0
 22 24  1  0  0  0  0
 23 26  2  0  0  0  0
 25 22  2  0  0  0  0
 27 23  1  0  0  0  0
 29 24  1  0  0  0  0
 29 28  2  0  0  0  0
 30 29  1  0  0  0  0
 31 30  1  0  0  0  0
 31 34  1  0  0  0  0
 33 34  2  0  0  0  0
 34 32  1  0  0  0  0
M  END
>  <MODEL>
4

>  <REMARK>
 VINA RESULT:      -8.5      5.007      8.274
  Name = 
  4 active torsions:
  status: ('A' for Active; 'I' for Inactive)
    1  A    between atoms: N_10  and  C_22
    2  A    between atoms: N_10  and  N_25
    3  A    between atoms: C_12  and  C_28
    4  A    between atoms: N_17  and  C_22
                            x       y       z     vdW  Elec       q    Type
                         _______ _______ _______ _____ _____    ______ ____

>  <TORSDO>
F 4

$$$$
=
 OpenBabel11032421113D

 34 38  0  0  1  0  0  0  0  0999 V2000
  184.8310  178.5630  138.9840 N   0  0  0  0  0  0  0  0  0  0  0  0
  189.8410  177.3020  139.5580 C   0  0  0  0  0  0  0  0  0  0  0  0
  191.2310  176.1100  143.5730 C   0  0  0  0  0  2  0  0  0  0  0  0
  188.5100  177.5800  139.1570 C   0  0  0  0  0  0  0  0  0  0  0  0
  192.3530  177.1230  139.0920 C   0  0  0  0  0  2  0  0  0  0  0  0
  188.4420  176.9150  136.7400 N   0  0  0  0  0  0  0  0  0  0  0  0
  185.5600  177.7610  137.0360 N   0  0  0  0  0  0  0  0  0  0  0  0
  192.0550  177.1080  142.7440 C   0  0  0  0  0  2  0  0  0  0  0  0
  187.9000  177.3940  137.8810 C   0  0  0  0  0  0  0  0  0  0  0  0
  191.6730  176.9940  141.2790 C   0  0  2  0  0  3  0  0  0  0  0  0
  187.3140  178.2540  140.2160 S   0  0  0  0  0  0  0  0  0  0  0  0
  186.1290  178.2530  139.0590 C   0  0  0  0  0  0  0  0  0  0  0  0
  189.7230  176.6180  136.4540 C   0  0  0  0  0  3  0  0  0  0  0  0
  184.5150  178.2480  137.7210 N   0  0  0  0  0  0  0  0  0  0  0  0
  192.5350  177.7440  140.3990 N   0  0  0  0  0  2  0  0  0  0  0  0
  190.8100  176.7530  137.2950 C   0  0  0  0  0  3  0  0  0  0  0  0
  190.2180  177.4210  141.0460 C   0  0  2  0  0  3  0  0  0  0  0  0
  189.2590  176.7230  142.0600 C   0  0  1  0  0  3  0  0  0  0  0  0
  189.9680  175.6010  142.8500 C   0  0  0  0  0  2  0  0  0  0  0  0
  190.9060  177.0960  138.6330 C   0  0  0  0  0  0  0  0  0  0  0  0
  186.5660  177.7770  137.9200 C   0  0  0  0  0  0  0  0  0  0  0  0
  187.5470  177.5380  145.2620 C   0  0  0  0  0  0  0  0  0  0  0  0
  188.6900  177.7140  143.0500 C   0  0  0  0  0  0  0  0  0  0  0  0
  188.7900  177.6790  145.9630 N   0  0  0  0  0  2  0  0  0  0  0  0
  186.4620  177.4700  145.8970 O   0  0  0  0  0  0  0  0  0  0  0  0
  189.2580  178.8250  143.2430 O   0  0  0  0  0  0  0  0  0  0  0  0
  187.5490  177.3610  143.8400 N   0  0  0  0  0  2  0  0  0  0  0  0
  187.9280  178.3980  148.0560 C   0  0  0  0  0  2  0  0  0  0  0  0
  188.9330  177.8670  147.3740 C   0  0  0  0  0  0  0  0  0  0  0  0
  190.1270  177.5030  148.0790 N   0  0  0  0  0  0  0  0  0  0  0  0
  191.0460  176.5070  147.6790 N   0  0  0  0  0  0  0  0  0  0  0  0
  192.8580  177.1000  149.0570 O   0  0  0  0  0  1  0  0  0  0  0  0
  193.1800  175.3290  147.6460 O   0  0  0  0  0  0  0  0  0  0  0  0
  192.3800  176.3320  148.1820 C   0  0  0  0  0  0  0  0  0  0  0  0
  1 12  2  0  0  0  0
  4  2  2  0  0  0  0
  4 11  1  0  0  0  0
  5 15  1  0  0  0  0
  6  9  1  0  0  0  0
  7 14  2  0  0  0  0
  7 21  1  0  0  0  0
  8  3  1  0  0  0  0
  9 21  2  0  0  0  0
  9  4  1  0  0  0  0
 10  8  1  1  0  0  0
 12 11  1  0  0  0  0
 13  6  2  0  0  0  0
 13 16  1  0  0  0  0
 14  1  1  0  0  0  0
 15 10  1  0  0  0  0
 16 20  2  0  0  0  0
 17  2  1  6  0  0  0
 17 10  1  0  0  0  0
 17 18  1  0  0  0  0
 18 19  1  0  0  0  0
 18 23  1  1  0  0  0
 19  3  1  0  0  0  0
 20  5  1  0  0  0  0
 20  2  1  0  0  0  0
 21 12  1  0  0  0  0
 22 25  2  0  0  0  0
 22 24  1  0  0  0  0
 23 26  2  0  0  0  0
 23 27  1  0  0  0  0
 24 29  1  0  0  0  0
 27 22  1  0  0  0  0
 29 28  2  0  0  0  0
 29 30  1  0  0  0  0
 31 30  2  0  0  0  0
 31 34  1  0  0  0  0
 33 34  2  0  0  0  0
 34 32  1  0  0  0  0
M  END
>  <MODEL>
5

>  <REMARK>
 VINA RESULT:      -7.6      3.243      7.852
  Name = 
  4 active torsions:
  status: ('A' for Active; 'I' for Inactive)
    1  A    between atoms: N_10  and  C_22
    2  A    between atoms: N_10  and  N_25
    3  A    between atoms: C_12  and  C_28
    4  A    between atoms: N_17  and  C_22
                            x       y       z     vdW  Elec       q    Type
                         _______ _______ _______ _____ _____    ______ ____

>  <TORSDO>
F 4

$$$$
=
 OpenBabel11032421113D

 34 38  0  0  1  0  0  0  0  0999 V2000
  188.9750  177.4480  139.7320 N   0  0  0  0  0  0  0  0  0  0  0  0
  188.8260  177.5930  144.9260 C   0  0  0  0  0  0  0  0  0  0  0  0
  184.8800  177.9040  146.8770 C   0  0  0  0  0  2  0  0  0  0  0  0
  189.0890  177.4330  143.5430 C   0  0  0  0  0  0  0  0  0  0  0  0
  189.5850  177.8820  147.3550 C   0  0  0  0  0  2  0  0  0  0  0  0
  191.2340  176.1340  143.4690 N   0  0  0  0  0  0  0  0  0  0  0  0
  190.7490  176.3340  140.4960 N   0  0  0  0  0  0  0  0  0  0  0  0
  186.0380  178.8000  147.3470 C   0  0  0  0  0  2  0  0  0  0  0  0
  190.1810  176.7680  142.9070 C   0  0  0  0  0  0  0  0  0  0  0  0
  187.3600  178.2030  146.8990 C   0  0  2  0  0  3  0  0  0  0  0  0
  188.0700  178.0740  142.2950 S   0  0  0  0  0  0  0  0  0  0  0  0
  189.0110  177.4800  141.0670 C   0  0  0  0  0  0  0  0  0  0  0  0
  191.6170  176.0760  144.7580 C   0  0  0  0  0  3  0  0  0  0  0  0
  190.0640  176.7340  139.4160 N   0  0  0  0  0  0  0  0  0  0  0  0
  188.5100  178.8630  147.4650 N   0  0  0  0  0  2  0  0  0  0  0  0
  190.9980  176.6860  145.8320 C   0  0  0  0  0  3  0  0  0  0  0  0
  187.4820  178.2000  145.3690 C   0  0  2  0  0  3  0  0  0  0  0  0
  186.2020  177.6030  144.7050 C   0  0  1  0  0  3  0  0  0  0  0  0
  185.2690  176.9380  145.7410 C   0  0  0  0  0  2  0  0  0  0  0  0
  189.8130  177.3950  145.9350 C   0  0  0  0  0  0  0  0  0  0  0  0
  190.0490  176.8250  141.5270 C   0  0  0  0  0  0  0  0  0  0  0  0
  183.4570  178.6590  142.4250 C   0  0  0  0  0  0  0  0  0  0  0  0
  185.4160  178.6670  143.9730 C   0  0  0  0  0  0  0  0  0  0  0  0
  182.5430  178.8530  143.5140 N   0  0  0  0  0  2  0  0  0  0  0  0
  183.0380  178.6410  141.2380 O   0  0  0  0  0  0  0  0  0  0  0  0
  185.2000  179.7890  144.5100 O   0  0  0  0  0  0  0  0  0  0  0  0
  184.8350  178.3760  142.6960 N   0  0  0  0  0  2  0  0  0  0  0  0
  180.2660  178.3250  143.9370 C   0  0  0  0  0  2  0  0  0  0  0  0
  181.1490  179.1470  143.3870 C   0  0  0  0  0  0  0  0  0  0  0  0
  180.6700  180.3000  142.6820 N   0  0  0  0  0  2  0  0  0  0  0  0
  179.7190  180.2880  141.6380 N   0  0  0  0  0  2  0  0  0  0  0  0
  181.1570  180.6980  139.8220 O   0  0  0  0  0  1  0  0  0  0  0  0
  178.9310  180.4910  139.3400 O   0  0  0  0  0  0  0  0  0  0  0  0
  179.9900  180.4820  140.2410 C   0  0  0  0  0  0  0  0  0  0  0  0
  1 12  2  0  0  0  0
  2 20  1  0  0  0  0
  3  8  1  0  0  0  0
  4  2  2  0  0  0  0
  5 15  1  0  0  0  0
  6 13  2  0  0  0  0
  7 21  1  0  0  0  0
  9  6  1  0  0  0  0
  9  4  1  0  0  0  0
 10  8  1  6  0  0  0
 10 15  1  0  0  0  0
 11  4  1  0  0  0  0
 12 21  1  0  0  0  0
 12 11  1  0  0  0  0
 13 16  1  0  0  0  0
 14  1  1  0  0  0  0
 14  7  2  0  0  0  0
 16 20  2  0  0  0  0
 17  2  1  1  0  0  0
 17 10  1  0  0  0  0
 18 23  1  1  0  0  0
 18 17  1  0  0  0  0
 18 19  1  0  0  0  0
 19  3  1  0  0  0  0
 20  5  1  0  0  0  0
 21  9  2  0  0  0  0
 22 27  1  0  0  0  0
 22 24  1  0  0  0  0
 23 26  2  0  0  0  0
 25 22  2  0  0  0  0
 27 23  1  0  0  0  0
 29 24  1  0  0  0  0
 29 28  2  0  0  0  0
 30 29  1  0  0  0  0
 31 30  1  0  0  0  0
 32 34  1  0  0  0  0
 33 34  2  0  0  0  0
 34 31  1  0  0  0  0
M  END
>  <MODEL>
6

>  <REMARK>
 VINA RESULT:      -7.6      3.500      7.537
  Name = 
  4 active torsions:
  status: ('A' for Active; 'I' for Inactive)
    1  A    between atoms: N_10  and  C_22
    2  A    between atoms: N_10  and  N_25
    3  A    between atoms: C_12  and  C_28
    4  A    between atoms: N_17  and  C_22
                            x       y       z     vdW  Elec       q    Type
                         _______ _______ _______ _____ _____    ______ ____

>  <TORSDO>
F 4

$$$$
=
 OpenBabel11032421113D

 34 38  0  0  1  0  0  0  0  0999 V2000
  189.5960  177.4920  139.8190 N   0  0  0  0  0  0  0  0  0  0  0  0
  185.6600  178.2440  143.1300 C   0  0  0  0  0  0  0  0  0  0  0  0
  181.5550  178.1950  141.5130 C   0  0  0  0  0  2  0  0  0  0  0  0
  186.8610  177.9580  142.4330 C   0  0  0  0  0  0  0  0  0  0  0  0
  184.3770  178.9370  145.2350 C   0  0  0  0  0  2  0  0  0  0  0  0
  188.3770  176.9960  144.1840 N   0  0  0  0  0  0  0  0  0  0  0  0
  190.2420  176.7580  141.8230 N   0  0  0  0  0  0  0  0  0  0  0  0
  181.9790  179.3050  142.4890 C   0  0  0  0  0  2  0  0  0  0  0  0
  188.0740  177.3920  142.9290 C   0  0  0  0  0  0  0  0  0  0  0  0
  183.2080  178.8630  143.2620 C   0  0  2  0  0  3  0  0  0  0  0  0
  187.0870  178.2830  140.7450 S   0  0  0  0  0  0  0  0  0  0  0  0
  188.6350  177.6910  140.7240 C   0  0  0  0  0  0  0  0  0  0  0  0
  187.6840  177.1540  145.3280 C   0  0  0  0  0  3  0  0  0  0  0  0
  190.5720  176.9160  140.5330 N   0  0  0  0  0  0  0  0  0  0  0  0
  183.5580  179.7510  144.3420 N   0  0  0  0  0  2  0  0  0  0  0  0
  186.4670  177.7890  145.4760 C   0  0  0  0  0  3  0  0  0  0  0  0
  184.4190  178.6920  142.3360 C   0  0  2  0  0  3  0  0  0  0  0  0
  184.0530  177.8340  141.0850 C   0  0  1  0  0  3  0  0  0  0  0  0
  182.6670  177.1670  141.2260 C   0  0  0  0  0  2  0  0  0  0  0  0
  185.5840  178.3200  144.5510 C   0  0  0  0  0  0  0  0  0  0  0  0
  189.0030  177.2610  141.9060 C   0  0  0  0  0  0  0  0  0  0  0  0
  182.7420  178.6550  137.7000 C   0  0  0  0  0  0  0  0  0  0  0  0
  184.0510  178.6700  139.8260 C   0  0  0  0  0  0  0  0  0  0  0  0
  181.7970  179.5960  138.2270 N   0  0  0  0  0  2  0  0  0  0  0  0
  182.6570  178.2670  136.5050 O   0  0  0  0  0  0  0  0  0  0  0  0
  184.2640  179.9140  139.8820 O   0  0  0  0  0  0  0  0  0  0  0  0
  183.7210  178.0700  138.5680 N   0  0  0  0  0  2  0  0  0  0  0  0
  180.9930  181.4910  137.0410 C   0  0  0  0  0  2  0  0  0  0  0  0
  180.7750  180.2570  137.4740 C   0  0  0  0  0  0  0  0  0  0  0  0
  179.5190  179.6330  137.1740 N   0  0  0  0  0  2  0  0  0  0  0  0
  179.3170  178.2500  136.9700 N   0  0  0  0  0  2  0  0  0  0  0  0
  179.0020  177.5870  139.2040 O   0  0  0  0  0  1  0  0  0  0  0  0
  178.9320  175.9340  137.6250 O   0  0  0  0  0  0  0  0  0  0  0  0
  179.0600  177.2700  137.9880 C   0  0  0  0  0  0  0  0  0  0  0  0
  1 14  1  0  0  0  0
  1 12  2  0  0  0  0
  2 20  1  0  0  0  0
  3  8  1  0  0  0  0
  4  9  1  0  0  0  0
  4  2  2  0  0  0  0
  6 13  2  0  0  0  0
  7 21  1  0  0  0  0
  9  6  1  0  0  0  0
 10  8  1  6  0  0  0
 10 15  1  0  0  0  0
 11  4  1  0  0  0  0
 12 11  1  0  0  0  0
 12 21  1  0  0  0  0
 13 16  1  0  0  0  0
 14  7  2  0  0  0  0
 15  5  1  0  0  0  0
 17  2  1  1  0  0  0
 17 10  1  0  0  0  0
 18 23  1  6  0  0  0
 18 19  1  0  0  0  0
 18 17  1  0  0  0  0
 19  3  1  0  0  0  0
 20  5  1  0  0  0  0
 20 16  2  0  0  0  0
 21  9  2  0  0  0  0
 22 24  1  0  0  0  0
 22 27  1  0  0  0  0
 23 26  2  0  0  0  0
 25 22  2  0  0  0  0
 27 23  1  0  0  0  0
 28 29  2  0  0  0  0
 29 24  1  0  0  0  0
 30 29  1  0  0  0  0
 31 30  1  0  0  0  0
 31 34  1  0  0  0  0
 33 34  2  0  0  0  0
 34 32  1  0  0  0  0
M  END
>  <MODEL>
7

>  <REMARK>
 VINA RESULT:      -7.4      4.759      7.841
  Name = 
  4 active torsions:
  status: ('A' for Active; 'I' for Inactive)
    1  A    between atoms: N_10  and  C_22
    2  A    between atoms: N_10  and  N_25
    3  A    between atoms: C_12  and  C_28
    4  A    between atoms: N_17  and  C_22
                            x       y       z     vdW  Elec       q    Type
                         _______ _______ _______ _____ _____    ______ ____

>  <TORSDO>
F 4

$$$$
