=
 OpenBabel11042412113D

 37 41  0  0  1  0  0  0  0  0999 V2000
  186.3840  177.7010  144.2560 C   0  0  0  0  0  3  0  0  0  0  0  0
  185.1460  178.2450  142.1860 C   0  0  0  0  0  1  0  0  0  0  0  0
  187.7540  178.3540  137.4070 C   0  0  0  0  0  2  0  0  0  0  0  0
  190.1670  174.4000  136.1690 O   0  0  0  0  0  0  0  0  0  0  0  0
  187.6550  177.9760  142.1160 C   0  0  0  0  0  0  0  0  0  0  0  0
  188.4980  178.0940  138.7300 C   0  0  1  0  0  3  0  0  0  0  0  0
  189.8890  177.4180  146.3480 N   0  0  0  0  0  1  0  0  0  0  0  0
  187.4860  177.5000  144.9100 N   0  0  0  0  0  0  0  0  0  0  0  0
  189.6240  175.9770  138.2630 C   0  0  0  0  0  2  0  0  0  0  0  0
  188.7520  177.5260  144.2380 C   0  0  0  0  0  0  0  0  0  0  0  0
  187.7190  177.5240  139.7500 O   0  0  0  0  0  0  0  0  0  0  0  0
  187.7350  175.5080  136.0720 C   0  0  0  0  0  2  0  0  0  0  0  0
  186.1000  177.8010  135.7940 O   0  0  0  0  0  1  0  0  0  0  0  0
  189.9020  177.5050  144.9260 C   0  0  0  0  0  0  0  0  0  0  0  0
  187.6780  178.5300  140.7190 C   0  0  0  0  0  2  0  0  0  0  0  0
  190.2040  176.7540  140.9070 C   0  0  0  0  0  2  0  0  0  0  0  0
  190.6320  177.6180  139.7200 C   0  0  0  0  0  2  0  0  0  0  0  0
  186.4100  177.9700  142.8480 N   0  0  0  0  0  0  0  0  0  0  0  0
  186.8140  176.0030  137.1850 C   0  0  0  0  0  2  0  0  0  0  0  0
  190.0630  176.8060  135.7310 O   0  0  0  0  0  0  0  0  0  0  0  0
  191.1620  177.6110  144.2420 N   0  0  0  0  0  0  0  0  0  0  0  0
  191.2560  177.6200  142.9440 C   0  0  0  0  0  3  0  0  0  0  0  0
  188.7980  177.6690  142.7690 C   0  0  0  0  0  0  0  0  0  0  0  0
  189.7860  177.4090  138.5360 N   0  0  2  0  0  0  0  0  0  0  0  0
  189.4540  175.6770  136.5130 S   0  0  0  0  0  0  0  0  0  0  0  0
  186.5010  177.5080  137.1000 C   0  0  1  0  0  0  0  0  0  0  0  0
  190.0830  177.5400  142.1250 N   0  0  0  0  0  0  0  0  0  0  0  0
  185.3540  177.8920  138.0190 C   0  0  0  0  0  0  0  0  0  0  0  0
  183.1260  178.6700  139.5630 C   0  0  0  0  0  0  0  0  0  0  0  0
  184.0550  179.6270  139.1290 C   0  0  0  0  0  3  0  0  0  0  0  0
  183.3060  177.3290  139.2140 C   0  0  0  0  0  3  0  0  0  0  0  0
  184.4060  176.9440  138.4440 C   0  0  0  0  0  3  0  0  0  0  0  0
  185.1530  179.2400  138.3580 C   0  0  0  0  0  3  0  0  0  0  0  0
  181.9940  179.0410  140.3540 N   0  0  0  0  0  2  0  0  0  0  0  0
  181.1970  178.0750  141.0920 C   0  0  0  0  0  2  0  0  0  0  0  0
  181.5480  179.0190  143.0540 C   0  0  0  0  0  1  0  0  0  0  0  0
  180.5390  178.7200  142.1380 O   0  0  0  0  0  0  0  0  0  0  0  0
  1  8  2  0  0  0  0
  2 18  1  0  0  0  0
  4 25  2  0  0  0  0
  5 23  2  0  0  0  0
  5 18  1  0  0  0  0
  6  3  1  6  0  0  0
  6 11  1  0  0  0  0
 10  8  1  0  0  0  0
 10 14  2  0  0  0  0
 11 15  1  0  0  0  0
 12 25  1  0  0  0  0
 12 19  1  0  0  0  0
 14  7  1  0  0  0  0
 15  5  1  0  0  0  0
 16 27  1  0  0  0  0
 17 16  1  0  0  0  0
 18  1  1  0  0  0  0
 20 25  2  0  0  0  0
 21 14  1  0  0  0  0
 22 21  2  0  0  0  0
 23 10  1  0  0  0  0
 24  9  1  1  0  0  0
 24  6  1  0  0  0  0
 24 17  1  0  0  0  0
 25  9  1  0  0  0  0
 26 13  1  6  0  0  0
 26 19  1  0  0  0  0
 26  3  1  0  0  0  0
 26 28  1  0  0  0  0
 27 23  1  0  0  0  0
 27 22  1  0  0  0  0
 28 33  2  0  0  0  0
 28 32  1  0  0  0  0
 29 34  1  0  0  0  0
 30 29  2  0  0  0  0
 31 29  1  0  0  0  0
 32 31  2  0  0  0  0
 33 30  1  0  0  0  0
 34 35  1  0  0  0  0
 35 37  1  0  0  0  0
 37 36  1  0  0  0  0
M  END
>  <MODEL>
1

>  <REMARK>
 VINA RESULT:      -7.9      0.000      0.000
  Name = 
  4 active torsions:
  status: ('A' for Active; 'I' for Inactive)
    1  A    between atoms: C_4  and  C_36
    2  A    between atoms: C_5  and  N_15
    3  A    between atoms: N_15  and  C_27
    4  A    between atoms: O_23  and  C_27
                            x       y       z     vdW  Elec       q    Type
                         _______ _______ _______ _____ _____    ______ ____

>  <TORSDO>
F 4

$$$$
=
 OpenBabel11042412113D

 37 41  0  0  1  0  0  0  0  0999 V2000
  190.2540  176.8170  141.7850 C   0  0  0  0  0  3  0  0  0  0  0  0
  188.2950  177.8170  142.9150 C   0  0  0  0  0  1  0  0  0  0  0  0
  183.9800  179.3920  139.9910 C   0  0  0  0  0  2  0  0  0  0  0  0
  181.9720  176.0940  137.1480 O   0  0  0  0  0  0  0  0  0  0  0  0
  188.3920  177.7470  140.3930 C   0  0  0  0  0  0  0  0  0  0  0  0
  185.2510  178.8340  139.3230 C   0  0  1  0  0  3  0  0  0  0  0  0
  192.5150  176.2150  138.4290 N   0  0  0  0  0  1  0  0  0  0  0  0
  190.9320  176.5210  140.7200 N   0  0  0  0  0  0  0  0  0  0  0  0
  184.3480  177.0040  137.9800 C   0  0  0  0  0  2  0  0  0  0  0  0
  190.4120  176.8140  139.4160 C   0  0  0  0  0  0  0  0  0  0  0  0
  186.0060  177.9580  140.1190 O   0  0  0  0  0  0  0  0  0  0  0  0
  181.9450  177.0200  139.6570 C   0  0  0  0  0  2  0  0  0  0  0  0
  182.1310  179.1860  141.4670 O   0  0  0  0  0  1  0  0  0  0  0  0
  191.1740  176.6850  138.3220 C   0  0  0  0  0  0  0  0  0  0  0  0
  187.1990  178.6590  140.3200 C   0  0  0  0  0  2  0  0  0  0  0  0
  187.1460  177.0730  137.6650 C   0  0  0  0  0  2  0  0  0  0  0  0
  186.2750  178.2530  137.2320 C   0  0  0  0  0  2  0  0  0  0  0  0
  188.9750  177.4590  141.6830 N   0  0  0  0  0  0  0  0  0  0  0  0
  183.0580  177.1310  140.6960 C   0  0  0  0  0  2  0  0  0  0  0  0
  182.1780  178.5160  137.4360 O   0  0  0  0  0  0  0  0  0  0  0  0
  190.6640  177.0570  137.0300 N   0  0  0  0  0  0  0  0  0  0  0  0
  189.4290  177.4240  136.8440 C   0  0  0  0  0  3  0  0  0  0  0  0
  189.0440  177.3520  139.2770 C   0  0  0  0  0  0  0  0  0  0  0  0
  185.0040  178.3160  137.9680 N   0  0  2  0  0  0  0  0  0  0  0  0
  182.5740  177.1780  137.9960 S   0  0  0  0  0  0  0  0  0  0  0  0
  183.3450  178.5790  141.1370 C   0  0  1  0  0  0  0  0  0  0  0  0
  188.5120  177.4900  137.9430 N   0  0  0  0  0  0  0  0  0  0  0  0
  184.2210  178.6210  142.3760 C   0  0  0  0  0  0  0  0  0  0  0  0
  185.6840  178.6620  144.7880 C   0  0  0  0  0  0  0  0  0  0  0  0
  184.9300  179.7790  144.3980 C   0  0  0  0  0  3  0  0  0  0  0  0
  185.6950  177.5230  143.9780 C   0  0  0  0  0  3  0  0  0  0  0  0
  184.9650  177.5000  142.7870 C   0  0  0  0  0  3  0  0  0  0  0  0
  184.2010  179.7530  143.2080 C   0  0  0  0  0  3  0  0  0  0  0  0
  186.4390  178.6640  146.0010 N   0  0  0  0  0  2  0  0  0  0  0  0
  187.2500  177.5360  146.4280 C   0  0  0  0  0  2  0  0  0  0  0  0
  189.2130  177.1280  147.3460 C   0  0  0  0  0  1  0  0  0  0  0  0
  188.6000  177.8740  146.3390 O   0  0  0  0  0  0  0  0  0  0  0  0
  3 26  1  0  0  0  0
  4 25  2  0  0  0  0
  5 18  1  0  0  0  0
  6  3  1  1  0  0  0
  6 11  1  0  0  0  0
  8  1  2  0  0  0  0
  9 25  1  0  0  0  0
 10  8  1  0  0  0  0
 11 15  1  0  0  0  0
 12 19  1  0  0  0  0
 14  7  1  0  0  0  0
 14 10  2  0  0  0  0
 15  5  1  0  0  0  0
 16 27  1  0  0  0  0
 17 16  1  0  0  0  0
 18  1  1  0  0  0  0
 18  2  1  0  0  0  0
 19 26  1  0  0  0  0
 20 25  2  0  0  0  0
 21 14  1  0  0  0  0
 22 21  2  0  0  0  0
 22 27  1  0  0  0  0
 23 10  1  0  0  0  0
 23  5  2  0  0  0  0
 24 17  1  1  0  0  0
 24  9  1  0  0  0  0
 24  6  1  0  0  0  0
 25 12  1  0  0  0  0
 26 13  1  1  0  0  0
 26 28  1  0  0  0  0
 27 23  1  0  0  0  0
 28 32  2  0  0  0  0
 28 33  1  0  0  0  0
 29 34  1  0  0  0  0
 30 29  1  0  0  0  0
 31 29  2  0  0  0  0
 32 31  1  0  0  0  0
 33 30  2  0  0  0  0
 34 35  1  0  0  0  0
 37 35  1  0  0  0  0
 37 36  1  0  0  0  0
M  END
>  <MODEL>
2

>  <REMARK>
 VINA RESULT:      -5.9      2.665      5.837
  Name = 
  4 active torsions:
  status: ('A' for Active; 'I' for Inactive)
    1  A    between atoms: C_4  and  C_36
    2  A    between atoms: C_5  and  N_15
    3  A    between atoms: N_15  and  C_27
    4  A    between atoms: O_23  and  C_27
                            x       y       z     vdW  Elec       q    Type
                         _______ _______ _______ _____ _____    ______ ____

>  <TORSDO>
F 4

$$$$
=
 OpenBabel11042412113D

 37 41  0  0  1  0  0  0  0  0999 V2000
  186.8590  172.5300  136.5590 C   0  0  0  0  0  3  0  0  0  0  0  0
  187.4480  174.8820  137.0450 C   0  0  0  0  0  1  0  0  0  0  0  0
  183.5140  178.5640  137.8240 C   0  0  0  0  0  2  0  0  0  0  0  0
  180.2700  177.5800  141.2160 O   0  0  0  0  0  0  0  0  0  0  0  0
  185.0350  174.2410  136.6750 C   0  0  0  0  0  0  0  0  0  0  0  0
  183.1940  177.1060  137.4460 C   0  0  1  0  0  3  0  0  0  0  0  0
  184.1930  169.7150  135.2520 N   0  0  0  0  0  1  0  0  0  0  0  0
  186.0030  171.6060  136.2520 N   0  0  0  0  0  0  0  0  0  0  0  0
  181.6750  176.4440  139.2400 C   0  0  0  0  0  2  0  0  0  0  0  0
  184.6090  171.9120  136.1220 C   0  0  0  0  0  0  0  0  0  0  0  0
  184.1610  176.1650  137.8340 O   0  0  0  0  0  0  0  0  0  0  0  0
  182.6850  178.6730  140.8540 C   0  0  0  0  0  2  0  0  0  0  0  0
  184.4720  180.1880  139.2680 O   0  0  0  0  0  1  0  0  0  0  0  0
  183.7450  171.0150  135.6280 C   0  0  0  0  0  0  0  0  0  0  0  0
  184.6560  175.6940  136.6150 C   0  0  0  0  0  2  0  0  0  0  0  0
  182.0830  174.2430  137.5320 C   0  0  0  0  0  2  0  0  0  0  0  0
  181.4360  175.5300  137.0180 C   0  0  0  0  0  2  0  0  0  0  0  0
  186.4320  173.8840  136.7620 N   0  0  0  0  0  0  0  0  0  0  0  0
  183.9720  178.0890  140.2780 C   0  0  0  0  0  2  0  0  0  0  0  0
  180.5890  178.9160  139.1890 O   0  0  0  0  0  0  0  0  0  0  0  0
  182.3640  171.3640  135.4320 N   0  0  0  0  0  0  0  0  0  0  0  0
  181.8680  172.5030  135.8180 C   0  0  0  0  0  3  0  0  0  0  0  0
  184.1240  173.2660  136.4540 C   0  0  0  0  0  0  0  0  0  0  0  0
  181.8240  176.7090  137.8050 N   0  0  2  0  0  0  0  0  0  0  0  0
  181.2380  177.9320  140.1220 S   0  0  0  0  0  0  0  0  0  0  0  0
  184.4640  178.8150  139.0130 C   0  0  1  0  0  0  0  0  0  0  0  0
  182.6970  173.4850  136.4530 N   0  0  0  0  0  0  0  0  0  0  0  0
  185.8860  178.4160  138.6570 C   0  0  0  0  0  0  0  0  0  0  0  0
  188.5740  177.8710  138.0000 C   0  0  0  0  0  0  0  0  0  0  0  0
  187.6790  178.3060  137.0120 C   0  0  0  0  0  3  0  0  0  0  0  0
  188.1270  177.7200  139.3150 C   0  0  0  0  0  3  0  0  0  0  0  0
  186.7980  177.9970  139.6430 C   0  0  0  0  0  3  0  0  0  0  0  0
  186.3500  178.5830  137.3420 C   0  0  0  0  0  3  0  0  0  0  0  0
  189.9380  177.5800  137.6870 N   0  0  0  0  0  2  0  0  0  0  0  0
  190.8380  176.9210  138.6190 C   0  0  0  0  0  2  0  0  0  0  0  0
  191.2290  175.1710  137.3350 C   0  0  0  0  0  1  0  0  0  0  0  0
  190.6490  175.5410  138.5480 O   0  0  0  0  0  0  0  0  0  0  0  0
  1 18  1  0  0  0  0
  3 26  1  0  0  0  0
  5 18  1  0  0  0  0
  6 24  1  0  0  0  0
  6  3  1  1  0  0  0
  6 11  1  0  0  0  0
  7 14  1  0  0  0  0
  8  1  2  0  0  0  0
  9 25  1  0  0  0  0
 10  8  1  0  0  0  0
 10 23  1  0  0  0  0
 14 10  2  0  0  0  0
 15  5  1  0  0  0  0
 15 11  1  0  0  0  0
 17 16  1  0  0  0  0
 18  2  1  0  0  0  0
 19 12  1  0  0  0  0
 20 25  2  0  0  0  0
 21 14  1  0  0  0  0
 21 22  2  0  0  0  0
 22 27  1  0  0  0  0
 23  5  2  0  0  0  0
 24 17  1  6  0  0  0
 24  9  1  0  0  0  0
 25 12  1  0  0  0  0
 25  4  2  0  0  0  0
 26 13  1  1  0  0  0
 26 19  1  0  0  0  0
 27 23  1  0  0  0  0
 27 16  1  0  0  0  0
 28 26  1  0  0  0  0
 28 32  1  0  0  0  0
 29 31  1  0  0  0  0
 30 33  1  0  0  0  0
 30 29  2  0  0  0  0
 31 32  2  0  0  0  0
 33 28  2  0  0  0  0
 34 29  1  0  0  0  0
 34 35  1  0  0  0  0
 36 37  1  0  0  0  0
 37 35  1  0  0  0  0
M  END
>  <MODEL>
3

>  <REMARK>
 VINA RESULT:      -5.7      4.147      8.632
  Name = 
  4 active torsions:
  status: ('A' for Active; 'I' for Inactive)
    1  A    between atoms: C_4  and  C_36
    2  A    between atoms: C_5  and  N_15
    3  A    between atoms: N_15  and  C_27
    4  A    between atoms: O_23  and  C_27
                            x       y       z     vdW  Elec       q    Type
                         _______ _______ _______ _____ _____    ______ ____

>  <TORSDO>
F 4

$$$$
=
 OpenBabel11042412113D

 37 41  0  0  1  0  0  0  0  0999 V2000
  185.2880  178.9810  140.1200 C   0  0  0  0  0  3  0  0  0  0  0  0
  182.8540  178.6490  139.8300 C   0  0  0  0  0  1  0  0  0  0  0  0
  181.0110  175.2540  135.9930 C   0  0  0  0  0  2  0  0  0  0  0  0
  182.6700  170.7560  136.1060 O   0  0  0  0  0  0  0  0  0  0  0  0
  184.4690  177.6020  138.1970 C   0  0  0  0  0  0  0  0  0  0  0  0
  182.5140  175.5480  136.1600 C   0  0  1  0  0  3  0  0  0  0  0  0
  189.1110  178.8020  138.6740 N   0  0  0  0  0  1  0  0  0  0  0  0
  186.5160  178.8370  139.7290 N   0  0  0  0  0  0  0  0  0  0  0  0
  183.4390  173.3020  136.4160 C   0  0  0  0  0  2  0  0  0  0  0  0
  186.8260  178.0810  138.5520 C   0  0  0  0  0  0  0  0  0  0  0  0
  182.9070  175.9240  137.4550 O   0  0  0  0  0  0  0  0  0  0  0  0
  180.7660  172.3330  137.1270 C   0  0  0  0  0  2  0  0  0  0  0  0
  178.9310  174.4640  136.8230 O   0  0  0  0  0  1  0  0  0  0  0  0
  188.0630  178.0770  138.0360 C   0  0  0  0  0  0  0  0  0  0  0  0
  183.3250  177.2470  137.2900 C   0  0  0  0  0  2  0  0  0  0  0  0
  185.5280  175.1790  136.6300 C   0  0  0  0  0  2  0  0  0  0  0  0
  184.7140  175.0490  135.3410 C   0  0  0  0  0  2  0  0  0  0  0  0
  184.2110  178.4000  139.3730 N   0  0  0  0  0  0  0  0  0  0  0  0
  180.8610  173.6230  137.9370 C   0  0  0  0  0  2  0  0  0  0  0  0
  181.6630  172.3970  134.5950 O   0  0  0  0  0  0  0  0  0  0  0  0
  188.3400  177.3770  136.8110 N   0  0  0  0  0  0  0  0  0  0  0  0
  187.4540  176.6360  136.2120 C   0  0  0  0  0  3  0  0  0  0  0  0
  185.7510  177.3620  137.8390 C   0  0  0  0  0  0  0  0  0  0  0  0
  183.3690  174.5030  135.5770 N   0  0  2  0  0  0  0  0  0  0  0  0
  182.1370  172.1570  136.0010 S   0  0  0  0  0  0  0  0  0  0  0  0
  180.2100  174.8340  137.2430 C   0  0  1  0  0  0  0  0  0  0  0  0
  186.1330  176.4960  136.7500 N   0  0  0  0  0  0  0  0  0  0  0  0
  180.0500  176.0050  138.1970 C   0  0  0  0  0  0  0  0  0  0  0  0
  179.5520  178.1510  139.9580 C   0  0  0  0  0  0  0  0  0  0  0  0
  179.4060  178.3230  138.5740 C   0  0  0  0  0  3  0  0  0  0  0  0
  179.9340  176.9040  140.4590 C   0  0  0  0  0  3  0  0  0  0  0  0
  180.1740  175.8390  139.5880 C   0  0  0  0  0  3  0  0  0  0  0  0
  179.6450  177.2570  137.7050 C   0  0  0  0  0  3  0  0  0  0  0  0
  179.3140  179.2270  140.8680 N   0  0  0  0  0  2  0  0  0  0  0  0
  180.0950  179.4270  142.0770 C   0  0  0  0  0  2  0  0  0  0  0  0
  179.7380  178.5310  144.0590 C   0  0  0  0  0  1  0  0  0  0  0  0
  179.2410  179.4900  143.1760 O   0  0  0  0  0  0  0  0  0  0  0  0
  3 26  1  0  0  0  0
  5 18  1  0  0  0  0
  6  3  1  1  0  0  0
  6 11  1  0  0  0  0
  8  1  2  0  0  0  0
 10  8  1  0  0  0  0
 12 19  1  0  0  0  0
 14 10  2  0  0  0  0
 14  7  1  0  0  0  0
 15 11  1  0  0  0  0
 15  5  1  0  0  0  0
 16 27  1  0  0  0  0
 17 16  1  0  0  0  0
 18  2  1  0  0  0  0
 18  1  1  0  0  0  0
 20 25  2  0  0  0  0
 21 14  1  0  0  0  0
 22 27  1  0  0  0  0
 22 21  2  0  0  0  0
 23  5  2  0  0  0  0
 23 10  1  0  0  0  0
 24 17  1  1  0  0  0
 24  6  1  0  0  0  0
 24  9  1  0  0  0  0
 25  4  2  0  0  0  0
 25  9  1  0  0  0  0
 25 12  1  0  0  0  0
 26 13  1  6  0  0  0
 26 19  1  0  0  0  0
 26 28  1  0  0  0  0
 27 23  1  0  0  0  0
 28 32  1  0  0  0  0
 29 31  1  0  0  0  0
 29 34  1  0  0  0  0
 30 29  2  0  0  0  0
 32 31  2  0  0  0  0
 33 28  2  0  0  0  0
 33 30  1  0  0  0  0
 34 35  1  0  0  0  0
 35 37  1  0  0  0  0
 37 36  1  0  0  0  0
M  END
>  <MODEL>
4

>  <REMARK>
 VINA RESULT:      -5.5      4.069      6.217
  Name = 
  4 active torsions:
  status: ('A' for Active; 'I' for Inactive)
    1  A    between atoms: C_4  and  C_36
    2  A    between atoms: C_5  and  N_15
    3  A    between atoms: N_15  and  C_27
    4  A    between atoms: O_23  and  C_27
                            x       y       z     vdW  Elec       q    Type
                         _______ _______ _______ _____ _____    ______ ____

>  <TORSDO>
F 4

$$$$
=
 OpenBabel11042412113D

 37 41  0  0  1  0  0  0  0  0999 V2000
  186.9860  178.7770  139.6840 C   0  0  0  0  0  3  0  0  0  0  0  0
  184.6620  178.8890  138.8450 C   0  0  0  0  0  1  0  0  0  0  0  0
  182.8740  175.1750  135.2880 C   0  0  0  0  0  2  0  0  0  0  0  0
  183.3010  170.5730  136.5660 O   0  0  0  0  0  0  0  0  0  0  0  0
  186.2700  177.2020  137.8730 C   0  0  0  0  0  0  0  0  0  0  0  0
  184.3340  175.1880  135.7790 C   0  0  1  0  0  3  0  0  0  0  0  0
  190.8600  177.5130  139.3060 N   0  0  0  0  0  1  0  0  0  0  0  0
  188.1930  178.3050  139.6470 N   0  0  0  0  0  0  0  0  0  0  0  0
  184.5970  172.9150  136.6330 C   0  0  0  0  0  2  0  0  0  0  0  0
  188.5440  177.2600  138.7300 C   0  0  0  0  0  0  0  0  0  0  0  0
  184.5290  175.7530  137.0500 O   0  0  0  0  0  0  0  0  0  0  0  0
  181.6790  172.6880  136.7930 C   0  0  0  0  0  2  0  0  0  0  0  0
  180.5370  175.0250  135.6810 O   0  0  0  0  0  1  0  0  0  0  0  0
  189.8210  176.8930  138.5540 C   0  0  0  0  0  0  0  0  0  0  0  0
  185.2880  176.8950  136.7780 C   0  0  0  0  0  2  0  0  0  0  0  0
  186.9950  174.3300  137.0540 C   0  0  0  0  0  2  0  0  0  0  0  0
  186.4610  174.0860  135.6410 C   0  0  0  0  0  2  0  0  0  0  0  0
  185.9790  178.2760  138.7950 N   0  0  0  0  0  0  0  0  0  0  0  0
  181.9210  174.0790  137.3730 C   0  0  0  0  0  2  0  0  0  0  0  0
  183.0710  172.0080  134.5970 O   0  0  0  0  0  0  0  0  0  0  0  0
  190.1640  175.8980  137.5730 N   0  0  0  0  0  0  0  0  0  0  0  0
  189.2670  175.2380  136.9010 C   0  0  0  0  0  3  0  0  0  0  0  0
  187.4970  176.6350  137.8980 C   0  0  0  0  0  0  0  0  0  0  0  0
  185.0050  173.8890  135.6150 N   0  0  2  0  0  0  0  0  0  0  0  0
  183.1660  171.9940  136.0970 S   0  0  0  0  0  0  0  0  0  0  0  0
  181.7510  175.2120  136.3450 C   0  0  1  0  0  0  0  0  0  0  0  0
  187.8700  175.4910  137.1020 N   0  0  0  0  0  0  0  0  0  0  0  0
  181.6920  176.5720  137.0180 C   0  0  0  0  0  0  0  0  0  0  0  0
  181.3860  179.1060  138.2190 C   0  0  0  0  0  0  0  0  0  0  0  0
  181.5300  178.9950  136.8280 C   0  0  0  0  0  3  0  0  0  0  0  0
  181.3830  177.9500  139.0040 C   0  0  0  0  0  3  0  0  0  0  0  0
  181.5280  176.6950  138.4100 C   0  0  0  0  0  3  0  0  0  0  0  0
  181.6740  177.7380  136.2360 C   0  0  0  0  0  3  0  0  0  0  0  0
  181.2390  180.3800  138.8490 N   0  0  0  0  0  2  0  0  0  0  0  0
  181.8690  181.5880  138.3440 C   0  0  0  0  0  2  0  0  0  0  0  0
  179.7710  182.1430  138.7290 C   0  0  0  0  0  1  0  0  0  0  0  0
  180.8860  182.5050  137.9740 O   0  0  0  0  0  0  0  0  0  0  0  0
  3 26  1  0  0  0  0
  5 23  2  0  0  0  0
  5 18  1  0  0  0  0
  6  3  1  1  0  0  0
  6 11  1  0  0  0  0
  8  1  2  0  0  0  0
 10  8  1  0  0  0  0
 12 19  1  0  0  0  0
 14 10  2  0  0  0  0
 14  7  1  0  0  0  0
 15 11  1  0  0  0  0
 15  5  1  0  0  0  0
 16 27  1  0  0  0  0
 17 16  1  0  0  0  0
 18  2  1  0  0  0  0
 18  1  1  0  0  0  0
 20 25  2  0  0  0  0
 21 14  1  0  0  0  0
 22 27  1  0  0  0  0
 22 21  2  0  0  0  0
 23 10  1  0  0  0  0
 24 17  1  1  0  0  0
 24  6  1  0  0  0  0
 24  9  1  0  0  0  0
 25  4  2  0  0  0  0
 25  9  1  0  0  0  0
 25 12  1  0  0  0  0
 26 13  1  6  0  0  0
 26 28  1  0  0  0  0
 26 19  1  0  0  0  0
 27 23  1  0  0  0  0
 28 32  1  0  0  0  0
 29 34  1  0  0  0  0
 29 31  1  0  0  0  0
 30 29  2  0  0  0  0
 32 31  2  0  0  0  0
 33 30  1  0  0  0  0
 33 28  2  0  0  0  0
 35 34  1  0  0  0  0
 37 35  1  0  0  0  0
 37 36  1  0  0  0  0
M  END
>  <MODEL>
5

>  <REMARK>
 VINA RESULT:      -4.9      3.713      5.539
  Name = 
  4 active torsions:
  status: ('A' for Active; 'I' for Inactive)
    1  A    between atoms: C_4  and  C_36
    2  A    between atoms: C_5  and  N_15
    3  A    between atoms: N_15  and  C_27
    4  A    between atoms: O_23  and  C_27
                            x       y       z     vdW  Elec       q    Type
                         _______ _______ _______ _____ _____    ______ ____

>  <TORSDO>
F 4

$$$$
