=
 OpenBabel11032421293D

 34 38  0  0  1  0  0  0  0  0999 V2000
  188.3750  178.3510  143.1860 O   0  0  0  0  0  0  0  0  0  0  0  0
  190.1220  177.6520  139.5320 C   0  0  2  0  0  3  0  0  0  0  0  0
  188.5170  177.7330  141.9300 C   0  0  2  0  0  3  0  0  0  0  0  0
  189.9090  176.7950  144.2130 C   0  0  0  0  0  2  0  0  0  0  0  0
  190.0640  176.6190  140.4860 O   0  0  0  0  0  0  0  0  0  0  0  0
  186.6730  178.6300  140.6190 N   0  0  0  0  0  1  0  0  0  0  0  0
  188.8360  178.4470  139.5210 C   0  0  0  0  0  0  0  0  0  0  0  0
  188.4700  177.3300  144.1500 C   0  0  1  0  0  3  0  0  0  0  0  0
  190.3000  176.2390  142.8470 C   0  0  2  0  0  3  0  0  0  0  0  0
  188.4560  178.9840  138.4920 O   0  0  0  0  0  0  0  0  0  0  0  0
  191.7850  175.9280  142.8360 C   0  0  0  0  0  1  0  0  0  0  0  0
  189.9620  177.2400  141.7410 C   0  0  2  0  0  3  0  0  0  0  0  0
  188.1110  178.7100  140.8200 C   0  0  2  0  0  3  0  0  0  0  0  0
  188.7370  177.2120  146.6640 C   0  0  0  0  0  1  0  0  0  0  0  0
  187.9720  177.8380  145.5040 C   0  0  2  0  0  3  0  0  0  0  0  0
  186.4760  177.6060  145.6510 C   0  0  0  0  0  2  0  0  0  0  0  0
  185.7810  178.8830  146.0850 C   0  0  0  0  0  2  0  0  0  0  0  0
  182.7240  178.9210  144.3030 C   0  0  0  0  0  2  0  0  0  0  0  0
  184.7930  179.3290  145.0220 C   0  0  1  0  0  3  0  0  0  0  0  0
  183.6070  178.2450  143.2800 C   0  0  2  0  0  3  0  0  0  0  0  0
  184.9990  178.5160  143.7660 C   0  0  0  0  0  2  0  0  0  0  0  0
  183.3980  178.8840  141.9230 C   0  0  0  0  0  1  0  0  0  0  0  0
  183.4770  179.1300  145.4680 O   0  0  0  0  0  0  0  0  0  0  0  0
  190.3760  177.0990  138.2450 O   0  0  0  0  0  0  0  0  0  0  0  0
  194.4170  173.5270  137.5160 N   0  0  0  0  0  0  0  0  0  0  0  0
  193.5830  175.4010  138.1980 C   0  0  0  0  0  0  0  0  0  0  0  0
  191.3670  176.1400  138.0270 C   0  0  0  0  0  0  0  0  0  0  0  0
  192.6590  176.3630  138.4320 N   0  0  0  0  0  0  0  0  0  0  0  0
  195.3730  174.2580  138.0820 N   0  0  0  0  0  0  0  0  0  0  0  0
  194.6100  172.2070  136.9420 C   0  0  0  0  0  1  0  0  0  0  0  0
  194.8910  175.4240  138.5150 N   0  0  0  0  0  0  0  0  0  0  0  0
  193.2840  174.2350  137.5820 C   0  0  0  0  0  0  0  0  0  0  0  0
  191.9980  173.9420  137.1430 C   0  0  0  0  0  3  0  0  0  0  0  0
  191.0210  174.9290  137.3770 C   0  0  0  0  0  3  0  0  0  0  0  0
  1  8  1  0  0  0  0
  2 24  1  6  0  0  0
  2  5  1  0  0  0  0
  3  1  1  1  0  0  0
  7  2  1  0  0  0  0
  7 13  1  0  0  0  0
  8  4  1  0  0  0  0
  8 15  1  1  0  0  0
  9 11  1  1  0  0  0
  9  4  1  0  0  0  0
 10  7  2  0  0  0  0
 12  5  1  6  0  0  0
 12  3  1  0  0  0  0
 12  9  1  0  0  0  0
 13  6  1  6  0  0  0
 13  3  1  0  0  0  0
 15 16  1  0  0  0  0
 15 14  1  1  0  0  0
 16 17  1  0  0  0  0
 18 23  1  0  0  0  0
 19 23  1  0  0  0  0
 19 17  1  1  0  0  0
 20 22  1  6  0  0  0
 20 21  1  0  0  0  0
 20 18  1  0  0  0  0
 21 19  1  0  0  0  0
 25 32  1  0  0  0  0
 25 29  1  0  0  0  0
 26 28  1  0  0  0  0
 26 31  1  0  0  0  0
 27 24  1  0  0  0  0
 27 28  2  0  0  0  0
 29 31  2  0  0  0  0
 30 25  1  0  0  0  0
 32 26  2  0  0  0  0
 33 34  2  0  0  0  0
 33 32  1  0  0  0  0
 34 27  1  0  0  0  0
M  END
>  <MODEL>
1

>  <REMARK>
 VINA RESULT:      -9.4      0.000      0.000
  Name = 
  6 active torsions:
  status: ('A' for Active; 'I' for Inactive)
    1  A    between atoms: C_3  and  C_13
    2  A    between atoms: C_3  and  C_14
    3  A    between atoms: C_6  and  O_21
    4  A    between atoms: C_7  and  O_21
    5  A    between atoms: C_8  and  C_13
    6  A    between atoms: C_8  and  C_27
                            x       y       z     vdW  Elec       q    Type
                         _______ _______ _______ _____ _____    ______ ____

>  <TORSDO>
F 6

$$$$
=
 OpenBabel11032421293D

 34 38  0  0  1  0  0  0  0  0999 V2000
  186.4010  177.7910  143.1350 O   0  0  0  0  0  0  0  0  0  0  0  0
  189.0160  177.4280  139.9860 C   0  0  2  0  0  3  0  0  0  0  0  0
  187.4380  178.1990  142.2770 C   0  0  2  0  0  3  0  0  0  0  0  0
  184.7140  178.6420  141.6310 C   0  0  0  0  0  2  0  0  0  0  0  0
  188.0590  178.4600  139.9820 O   0  0  0  0  0  0  0  0  0  0  0  0
  189.4380  178.0550  143.6560 N   0  0  0  0  0  1  0  0  0  0  0  0
  189.6000  177.2400  141.3690 C   0  0  0  0  0  0  0  0  0  0  0  0
  185.3770  178.7500  143.0140 C   0  0  1  0  0  3  0  0  0  0  0  0
  185.7630  178.8810  140.5490 C   0  0  2  0  0  3  0  0  0  0  0  0
  190.7440  176.8340  141.5020 O   0  0  0  0  0  0  0  0  0  0  0  0
  185.1730  178.5460  139.1930 C   0  0  0  0  0  1  0  0  0  0  0  0
  187.0080  178.0320  140.8090 C   0  0  2  0  0  3  0  0  0  0  0  0
  188.7100  177.4000  142.5800 C   0  0  2  0  0  3  0  0  0  0  0  0
  182.9770  179.0500  143.7590 C   0  0  0  0  0  1  0  0  0  0  0  0
  184.3750  178.5960  144.1590 C   0  0  2  0  0  3  0  0  0  0  0  0
  184.8540  179.3380  145.3970 C   0  0  0  0  0  2  0  0  0  0  0  0
  185.2670  178.3560  146.4790 C   0  0  0  0  0  2  0  0  0  0  0  0
  188.4770  176.9230  146.8820 C   0  0  0  0  0  2  0  0  0  0  0  0
  186.7780  178.3410  146.6210 C   0  0  1  0  0  3  0  0  0  0  0  0
  188.2980  177.5350  148.2520 C   0  0  2  0  0  3  0  0  0  0  0  0
  187.1520  178.4860  148.0780 C   0  0  0  0  0  2  0  0  0  0  0  0
  189.5490  178.2950  148.6390 C   0  0  0  0  0  1  0  0  0  0  0  0
  187.2990  177.1260  146.1500 O   0  0  0  0  0  0  0  0  0  0  0  0
  190.0450  177.7280  139.0500 O   0  0  0  0  0  0  0  0  0  0  0  0
  193.3050  173.9910  136.8060 N   0  0  0  0  0  0  0  0  0  0  0  0
  192.9060  175.8230  137.8830 C   0  0  0  0  0  0  0  0  0  0  0  0
  190.8250  176.7340  138.4540 C   0  0  0  0  0  0  0  0  0  0  0  0
  192.1940  176.8130  138.4730 N   0  0  0  0  0  0  0  0  0  0  0  0
  194.4560  174.5770  137.1270 N   0  0  0  0  0  0  0  0  0  0  0  0
  193.1850  172.7400  136.0770 C   0  0  0  0  0  1  0  0  0  0  0  0
  194.2440  175.7130  137.7940 N   0  0  0  0  0  0  0  0  0  0  0  0
  192.3210  174.7650  137.2750 C   0  0  0  0  0  0  0  0  0  0  0  0
  190.9390  174.6210  137.2160 C   0  0  0  0  0  3  0  0  0  0  0  0
  190.1800  175.6390  137.8250 C   0  0  0  0  0  3  0  0  0  0  0  0
  2 24  1  6  0  0  0
  2  7  1  0  0  0  0
  3 13  1  0  0  0  0
  3  1  1  1  0  0  0
  4  8  1  0  0  0  0
  5  2  1  0  0  0  0
  7 10  2  0  0  0  0
  7 13  1  0  0  0  0
  8  1  1  0  0  0  0
  8 15  1  1  0  0  0
  9 11  1  6  0  0  0
  9 12  1  0  0  0  0
  9  4  1  0  0  0  0
 12  5  1  6  0  0  0
 12  3  1  0  0  0  0
 13  6  1  1  0  0  0
 15 14  1  6  0  0  0
 15 16  1  0  0  0  0
 16 17  1  0  0  0  0
 18 20  1  0  0  0  0
 19 17  1  1  0  0  0
 19 21  1  0  0  0  0
 20 22  1  6  0  0  0
 21 20  1  0  0  0  0
 23 19  1  0  0  0  0
 23 18  1  0  0  0  0
 25 29  1  0  0  0  0
 25 32  1  0  0  0  0
 26 28  1  0  0  0  0
 27 28  2  0  0  0  0
 27 24  1  0  0  0  0
 29 31  2  0  0  0  0
 30 25  1  0  0  0  0
 31 26  1  0  0  0  0
 32 26  2  0  0  0  0
 33 32  1  0  0  0  0
 33 34  2  0  0  0  0
 34 27  1  0  0  0  0
M  END
>  <MODEL>
2

>  <REMARK>
 VINA RESULT:      -8.9      1.647      3.928
  Name = 
  6 active torsions:
  status: ('A' for Active; 'I' for Inactive)
    1  A    between atoms: C_3  and  C_13
    2  A    between atoms: C_3  and  C_14
    3  A    between atoms: C_6  and  O_21
    4  A    between atoms: C_7  and  O_21
    5  A    between atoms: C_8  and  C_13
    6  A    between atoms: C_8  and  C_27
                            x       y       z     vdW  Elec       q    Type
                         _______ _______ _______ _____ _____    ______ ____

>  <TORSDO>
F 6

$$$$
=
 OpenBabel11032421293D

 34 38  0  0  1  0  0  0  0  0999 V2000
  188.4120  178.3120  143.2990 O   0  0  0  0  0  0  0  0  0  0  0  0
  190.3030  177.6500  139.7110 C   0  0  2  0  0  3  0  0  0  0  0  0
  188.6020  177.7090  142.0430 C   0  0  2  0  0  3  0  0  0  0  0  0
  189.8980  176.7390  144.3690 C   0  0  0  0  0  2  0  0  0  0  0  0
  190.2030  176.6070  140.6490 O   0  0  0  0  0  0  0  0  0  0  0  0
  186.8160  178.6280  140.6690 N   0  0  0  0  0  1  0  0  0  0  0  0
  189.0210  178.4500  139.6570 C   0  0  0  0  0  0  0  0  0  0  0  0
  188.4640  177.2790  144.2540 C   0  0  1  0  0  3  0  0  0  0  0  0
  190.3430  176.1980  143.0130 C   0  0  2  0  0  3  0  0  0  0  0  0
  188.6850  179.0010  138.6200 O   0  0  0  0  0  0  0  0  0  0  0  0
  191.8250  175.8820  143.0590 C   0  0  0  0  0  1  0  0  0  0  0  0
  190.0530  177.2130  141.9070 C   0  0  2  0  0  3  0  0  0  0  0  0
  188.2450  178.7000  140.9290 C   0  0  2  0  0  3  0  0  0  0  0  0
  188.6850  177.1980  146.7740 C   0  0  0  0  0  1  0  0  0  0  0  0
  187.9140  177.7740  145.5930 C   0  0  2  0  0  3  0  0  0  0  0  0
  186.4290  177.4660  145.7110 C   0  0  0  0  0  2  0  0  0  0  0  0
  185.6700  178.6900  146.1950 C   0  0  0  0  0  2  0  0  0  0  0  0
  182.7200  179.0030  144.2670 C   0  0  0  0  0  2  0  0  0  0  0  0
  184.7790  179.2240  145.0880 C   0  0  1  0  0  3  0  0  0  0  0  0
  183.5880  178.2530  143.2830 C   0  0  2  0  0  3  0  0  0  0  0  0
  184.9730  178.3990  143.8380 C   0  0  0  0  0  2  0  0  0  0  0  0
  183.5020  178.9120  141.9220 C   0  0  0  0  0  1  0  0  0  0  0  0
  183.4300  179.1410  145.4680 O   0  0  0  0  0  0  0  0  0  0  0  0
  190.6080  177.1120  138.4290 O   0  0  0  0  0  0  0  0  0  0  0  0
  187.7090  172.9910  136.3710 N   0  0  0  0  0  0  0  0  0  0  0  0
  187.9490  174.9850  137.1720 C   0  0  0  0  0  0  0  0  0  0  0  0
  189.9230  176.0170  137.8970 C   0  0  0  0  0  0  0  0  0  0  0  0
  188.5680  176.0720  137.6910 N   0  0  0  0  0  0  0  0  0  0  0  0
  186.5270  173.6020  136.4050 N   0  0  0  0  0  0  0  0  0  0  0  0
  187.9320  171.6370  135.8930 C   0  0  0  0  0  1  0  0  0  0  0  0
  186.6410  174.8370  136.8950 N   0  0  0  0  0  0  0  0  0  0  0  0
  188.6140  173.8500  136.8520 C   0  0  0  0  0  0  0  0  0  0  0  0
  189.9860  173.7230  137.0350 C   0  0  0  0  0  3  0  0  0  0  0  0
  190.6480  174.8430  137.5730 C   0  0  0  0  0  3  0  0  0  0  0  0
  1  8  1  0  0  0  0
  2 24  1  6  0  0  0
  2  5  1  0  0  0  0
  3  1  1  1  0  0  0
  7  2  1  0  0  0  0
  7 13  1  0  0  0  0
  8  4  1  0  0  0  0
  8 15  1  1  0  0  0
  9 11  1  1  0  0  0
  9  4  1  0  0  0  0
 10  7  2  0  0  0  0
 12  5  1  6  0  0  0
 12  3  1  0  0  0  0
 12  9  1  0  0  0  0
 13  6  1  6  0  0  0
 13  3  1  0  0  0  0
 15 16  1  0  0  0  0
 15 14  1  1  0  0  0
 16 17  1  0  0  0  0
 18 23  1  0  0  0  0
 19 23  1  0  0  0  0
 19 17  1  1  0  0  0
 20 22  1  6  0  0  0
 20 21  1  0  0  0  0
 20 18  1  0  0  0  0
 21 19  1  0  0  0  0
 25 29  1  0  0  0  0
 25 32  1  0  0  0  0
 26 28  1  0  0  0  0
 27 24  1  0  0  0  0
 28 27  2  0  0  0  0
 29 31  2  0  0  0  0
 30 25  1  0  0  0  0
 31 26  1  0  0  0  0
 32 33  1  0  0  0  0
 32 26  2  0  0  0  0
 33 34  2  0  0  0  0
 34 27  1  0  0  0  0
M  END
>  <MODEL>
3

>  <REMARK>
 VINA RESULT:      -8.9      2.392      3.092
  Name = 
  6 active torsions:
  status: ('A' for Active; 'I' for Inactive)
    1  A    between atoms: C_3  and  C_13
    2  A    between atoms: C_3  and  C_14
    3  A    between atoms: C_6  and  O_21
    4  A    between atoms: C_7  and  O_21
    5  A    between atoms: C_8  and  C_13
    6  A    between atoms: C_8  and  C_27
                            x       y       z     vdW  Elec       q    Type
                         _______ _______ _______ _____ _____    ______ ____

>  <TORSDO>
F 6

$$$$
=
 OpenBabel11032421293D

 34 38  0  0  1  0  0  0  0  0999 V2000
  183.2080  179.3340  142.1750 O   0  0  0  0  0  0  0  0  0  0  0  0
  187.2290  178.4870  142.2380 C   0  0  2  0  0  3  0  0  0  0  0  0
  184.3480  178.5180  142.0580 C   0  0  2  0  0  3  0  0  0  0  0  0
  183.0990  178.9760  144.5600 C   0  0  0  0  0  2  0  0  0  0  0  0
  186.3680  177.8490  143.1500 O   0  0  0  0  0  0  0  0  0  0  0  0
  184.5310  178.0970  139.6680 N   0  0  0  0  0  1  0  0  0  0  0  0
  186.5860  178.5910  140.8730 C   0  0  0  0  0  0  0  0  0  0  0  0
  182.4170  178.7770  143.1980 C   0  0  1  0  0  3  0  0  0  0  0  0
  184.4630  178.2930  144.5460 C   0  0  2  0  0  3  0  0  0  0  0  0
  187.2780  178.5920  139.8670 O   0  0  0  0  0  0  0  0  0  0  0  0
  185.2350  178.6820  145.7920 C   0  0  0  0  0  1  0  0  0  0  0  0
  185.2490  178.6850  143.2940 C   0  0  2  0  0  3  0  0  0  0  0  0
  185.1020  178.8580  140.7670 C   0  0  2  0  0  3  0  0  0  0  0  0
  180.0550  178.6460  144.0970 C   0  0  0  0  0  1  0  0  0  0  0  0
  181.0080  179.3700  143.1530 C   0  0  2  0  0  3  0  0  0  0  0  0
  180.4680  179.3710  141.7310 C   0  0  0  0  0  2  0  0  0  0  0  0
  179.1920  178.5510  141.6470 C   0  0  0  0  0  2  0  0  0  0  0  0
  179.7930  175.3100  140.3610 C   0  0  0  0  0  2  0  0  0  0  0  0
  179.3290  177.4780  140.5830 C   0  0  1  0  0  3  0  0  0  0  0  0
  181.0560  176.0030  139.9060 C   0  0  2  0  0  3  0  0  0  0  0  0
  180.7450  177.4610  140.0580 C   0  0  0  0  0  2  0  0  0  0  0  0
  181.3200  175.6780  138.4500 C   0  0  0  0  0  1  0  0  0  0  0  0
  179.0430  176.2160  141.1260 O   0  0  0  0  0  0  0  0  0  0  0  0
  188.4540  177.7670  142.1560 O   0  0  0  0  0  0  0  0  0  0  0  0
  191.1370  176.5200  146.7240 N   0  0  0  0  0  0  0  0  0  0  0  0
  189.5260  177.4320  145.6070 C   0  0  0  0  0  0  0  0  0  0  0  0
  189.1900  177.4140  143.2890 C   0  0  0  0  0  0  0  0  0  0  0  0
  188.7790  177.8000  144.5390 N   0  0  0  0  0  0  0  0  0  0  0  0
  190.3050  177.1310  147.5630 N   0  0  0  0  0  0  0  0  0  0  0  0
  192.3350  175.7990  147.1180 C   0  0  0  0  0  1  0  0  0  0  0  0
  189.2980  177.7060  146.9040 N   0  0  0  0  0  0  0  0  0  0  0  0
  190.6590  176.7010  145.4880 C   0  0  0  0  0  0  0  0  0  0  0  0
  191.1360  176.2760  144.2530 C   0  0  0  0  0  3  0  0  0  0  0  0
  190.3730  176.6480  143.1300 C   0  0  0  0  0  3  0  0  0  0  0  0
  1  8  1  0  0  0  0
  2 24  1  6  0  0  0
  2  5  1  0  0  0  0
  3  1  1  1  0  0  0
  3 12  1  0  0  0  0
  7  2  1  0  0  0  0
  8 15  1  1  0  0  0
  8  4  1  0  0  0  0
  9  4  1  0  0  0  0
  9 11  1  1  0  0  0
 10  7  2  0  0  0  0
 12  5  1  6  0  0  0
 12  9  1  0  0  0  0
 13  6  1  6  0  0  0
 13  7  1  0  0  0  0
 13  3  1  0  0  0  0
 15 14  1  1  0  0  0
 16 15  1  0  0  0  0
 17 16  1  0  0  0  0
 18 23  1  0  0  0  0
 19 23  1  0  0  0  0
 19 17  1  1  0  0  0
 20 22  1  6  0  0  0
 20 21  1  0  0  0  0
 20 18  1  0  0  0  0
 21 19  1  0  0  0  0
 24 27  1  0  0  0  0
 25 30  1  0  0  0  0
 25 29  1  0  0  0  0
 26 31  1  0  0  0  0
 27 28  2  0  0  0  0
 28 26  1  0  0  0  0
 31 29  2  0  0  0  0
 32 26  2  0  0  0  0
 32 25  1  0  0  0  0
 33 32  1  0  0  0  0
 34 27  1  0  0  0  0
 34 33  2  0  0  0  0
M  END
>  <MODEL>
4

>  <REMARK>
 VINA RESULT:      -8.9      4.491      6.893
  Name = 
  6 active torsions:
  status: ('A' for Active; 'I' for Inactive)
    1  A    between atoms: C_3  and  C_13
    2  A    between atoms: C_3  and  C_14
    3  A    between atoms: C_6  and  O_21
    4  A    between atoms: C_7  and  O_21
    5  A    between atoms: C_8  and  C_13
    6  A    between atoms: C_8  and  C_27
                            x       y       z     vdW  Elec       q    Type
                         _______ _______ _______ _____ _____    ______ ____

>  <TORSDO>
F 6

$$$$
=
 OpenBabel11032421293D

 34 38  0  0  1  0  0  0  0  0999 V2000
  183.1690  179.2480  142.0870 O   0  0  0  0  0  0  0  0  0  0  0  0
  187.2220  178.5730  142.1730 C   0  0  2  0  0  3  0  0  0  0  0  0
  184.3420  178.4780  141.9890 C   0  0  2  0  0  3  0  0  0  0  0  0
  183.0700  178.9380  144.4800 C   0  0  0  0  0  2  0  0  0  0  0  0
  186.3870  177.9200  143.0980 O   0  0  0  0  0  0  0  0  0  0  0  0
  184.5480  178.0130  139.6090 N   0  0  0  0  0  1  0  0  0  0  0  0
  186.5780  178.6200  140.8050 C   0  0  0  0  0  0  0  0  0  0  0  0
  182.4010  178.6800  143.1210 C   0  0  1  0  0  3  0  0  0  0  0  0
  184.4630  178.3130  144.4820 C   0  0  2  0  0  3  0  0  0  0  0  0
  187.2720  178.6280  139.8000 O   0  0  0  0  0  0  0  0  0  0  0  0
  185.2140  178.7620  145.7200 C   0  0  0  0  0  1  0  0  0  0  0  0
  185.2340  178.7100  143.2220 C   0  0  2  0  0  3  0  0  0  0  0  0
  185.0840  178.8220  140.6920 C   0  0  2  0  0  3  0  0  0  0  0  0
  180.1110  178.6690  144.1990 C   0  0  0  0  0  1  0  0  0  0  0  0
  180.9670  179.2120  143.0620 C   0  0  2  0  0  3  0  0  0  0  0  0
  180.3350  178.9080  141.7130 C   0  0  0  0  0  2  0  0  0  0  0  0
  179.7470  180.1690  141.1060 C   0  0  0  0  0  2  0  0  0  0  0  0
  181.9230  180.6170  138.3520 C   0  0  0  0  0  2  0  0  0  0  0  0
  180.1390  180.2790  139.6440 C   0  0  1  0  0  3  0  0  0  0  0  0
  181.1870  181.9350  138.3120 C   0  0  2  0  0  3  0  0  0  0  0  0
  179.9890  181.7100  139.1840 C   0  0  0  0  0  2  0  0  0  0  0  0
  180.7480  182.2310  136.8930 C   0  0  0  0  0  1  0  0  0  0  0  0
  181.4790  179.8960  139.4710 O   0  0  0  0  0  0  0  0  0  0  0  0
  188.4770  177.9050  142.1080 O   0  0  0  0  0  0  0  0  0  0  0  0
  191.0440  176.5750  146.7190 N   0  0  0  0  0  0  0  0  0  0  0  0
  189.4440  177.4790  145.5800 C   0  0  0  0  0  0  0  0  0  0  0  0
  189.1850  177.5330  143.2530 C   0  0  0  0  0  0  0  0  0  0  0  0
  188.7210  177.8630  144.5010 N   0  0  0  0  0  0  0  0  0  0  0  0
  190.1670  177.1320  147.5500 N   0  0  0  0  0  0  0  0  0  0  0  0
  192.2490  175.8750  147.1290 C   0  0  0  0  0  1  0  0  0  0  0  0
  189.1640  177.7000  146.8770 N   0  0  0  0  0  0  0  0  0  0  0  0
  190.6010  176.7860  145.4750 C   0  0  0  0  0  0  0  0  0  0  0  0
  191.1310  176.4190  144.2430 C   0  0  0  0  0  3  0  0  0  0  0  0
  190.3950  176.8080  143.1080 C   0  0  0  0  0  3  0  0  0  0  0  0
  1  8  1  0  0  0  0
  2 24  1  6  0  0  0
  2  5  1  0  0  0  0
  3  1  1  1  0  0  0
  3 12  1  0  0  0  0
  4  9  1  0  0  0  0
  7  2  1  0  0  0  0
  8 15  1  1  0  0  0
  8  4  1  0  0  0  0
  9 11  1  1  0  0  0
 10  7  2  0  0  0  0
 12  5  1  6  0  0  0
 12  9  1  0  0  0  0
 13  6  1  6  0  0  0
 13  7  1  0  0  0  0
 13  3  1  0  0  0  0
 15 14  1  1  0  0  0
 16 15  1  0  0  0  0
 17 16  1  0  0  0  0
 18 23  1  0  0  0  0
 19 17  1  1  0  0  0
 20 22  1  6  0  0  0
 20 18  1  0  0  0  0
 20 21  1  0  0  0  0
 21 19  1  0  0  0  0
 23 19  1  0  0  0  0
 24 27  1  0  0  0  0
 25 30  1  0  0  0  0
 25 29  1  0  0  0  0
 26 31  1  0  0  0  0
 27 28  2  0  0  0  0
 28 26  1  0  0  0  0
 31 29  2  0  0  0  0
 32 26  2  0  0  0  0
 32 25  1  0  0  0  0
 33 32  1  0  0  0  0
 34 27  1  0  0  0  0
 34 33  2  0  0  0  0
M  END
>  <MODEL>
5

>  <REMARK>
 VINA RESULT:      -8.8      4.505      7.021
  Name = 
  6 active torsions:
  status: ('A' for Active; 'I' for Inactive)
    1  A    between atoms: C_3  and  C_13
    2  A    between atoms: C_3  and  C_14
    3  A    between atoms: C_6  and  O_21
    4  A    between atoms: C_7  and  O_21
    5  A    between atoms: C_8  and  C_13
    6  A    between atoms: C_8  and  C_27
                            x       y       z     vdW  Elec       q    Type
                         _______ _______ _______ _____ _____    ______ ____

>  <TORSDO>
F 6

$$$$
=
 OpenBabel11032421293D

 34 38  0  0  1  0  0  0  0  0999 V2000
  186.2840  178.0560  144.4260 O   0  0  0  0  0  0  0  0  0  0  0  0
  185.1560  178.6600  140.5200 C   0  0  2  0  0  3  0  0  0  0  0  0
  186.1520  178.7800  143.2270 C   0  0  2  0  0  3  0  0  0  0  0  0
  184.0800  178.7170  145.1600 C   0  0  0  0  0  2  0  0  0  0  0  0
  184.6010  179.4580  141.5370 O   0  0  0  0  0  0  0  0  0  0  0  0
  188.4190  178.8860  142.3480 N   0  0  0  0  0  1  0  0  0  0  0  0
  186.6300  178.4240  140.7650 C   0  0  0  0  0  0  0  0  0  0  0  0
  185.5940  178.7840  145.4140 C   0  0  1  0  0  3  0  0  0  0  0  0
  183.7730  179.3090  143.7880 C   0  0  2  0  0  3  0  0  0  0  0  0
  187.3890  178.2550  139.8230 O   0  0  0  0  0  0  0  0  0  0  0  0
  182.3240  179.0330  143.4340 C   0  0  0  0  0  1  0  0  0  0  0  0
  184.6990  178.7160  142.7250 C   0  0  2  0  0  3  0  0  0  0  0  0
  187.1290  178.2360  142.1790 C   0  0  2  0  0  3  0  0  0  0  0  0
  186.4970  179.3980  147.6970 C   0  0  0  0  0  1  0  0  0  0  0  0
  185.9800  178.2770  146.8050 C   0  0  2  0  0  3  0  0  0  0  0  0
  186.9970  177.1500  146.7040 C   0  0  0  0  0  2  0  0  0  0  0  0
  188.3460  177.6030  147.2330 C   0  0  0  0  0  2  0  0  0  0  0  0
  191.6720  176.6810  146.4500 C   0  0  0  0  0  2  0  0  0  0  0  0
  189.4530  176.7470  146.6440 C   0  0  1  0  0  3  0  0  0  0  0  0
  191.1970  177.1090  145.0810 C   0  0  2  0  0  3  0  0  0  0  0  0
  189.7050  177.1570  145.2130 C   0  0  0  0  0  2  0  0  0  0  0  0
  191.5950  176.0680  144.0560 C   0  0  0  0  0  1  0  0  0  0  0  0
  190.6410  176.9230  147.3710 O   0  0  0  0  0  0  0  0  0  0  0  0
  184.9570  179.2870  139.2580 O   0  0  0  0  0  0  0  0  0  0  0  0
  180.0160  180.4720  137.3070 N   0  0  0  0  0  0  0  0  0  0  0  0
  181.8680  180.9450  138.3180 C   0  0  0  0  0  0  0  0  0  0  0  0
  183.6840  179.5250  138.7360 C   0  0  0  0  0  0  0  0  0  0  0  0
  183.1040  180.7640  138.8420 N   0  0  0  0  0  0  0  0  0  0  0  0
  180.0020  181.7470  137.6870 N   0  0  0  0  0  0  0  0  0  0  0  0
  178.9380  179.8040  136.5990 C   0  0  0  0  0  1  0  0  0  0  0  0
  181.1330  182.0720  138.3160 N   0  0  0  0  0  0  0  0  0  0  0  0
  181.1860  179.9540  137.6980 C   0  0  0  0  0  0  0  0  0  0  0  0
  181.7110  178.6750  137.5550 C   0  0  0  0  0  3  0  0  0  0  0  0
  182.9950  178.4660  138.0920 C   0  0  0  0  0  3  0  0  0  0  0  0
  1  8  1  0  0  0  0
  2 24  1  6  0  0  0
  2  7  1  0  0  0  0
  2  5  1  0  0  0  0
  3  1  1  1  0  0  0
  4  8  1  0  0  0  0
  7 13  1  0  0  0  0
  8 15  1  1  0  0  0
  9 11  1  6  0  0  0
  9  4  1  0  0  0  0
 10  7  2  0  0  0  0
 12  5  1  6  0  0  0
 12  3  1  0  0  0  0
 12  9  1  0  0  0  0
 13  6  1  6  0  0  0
 13  3  1  0  0  0  0
 15 14  1  1  0  0  0
 16 15  1  0  0  0  0
 16 17  1  0  0  0  0
 18 23  1  0  0  0  0
 19 17  1  1  0  0  0
 19 23  1  0  0  0  0
 20 22  1  6  0  0  0
 20 21  1  0  0  0  0
 20 18  1  0  0  0  0
 21 19  1  0  0  0  0
 25 29  1  0  0  0  0
 25 32  1  0  0  0  0
 26 28  1  0  0  0  0
 27 28  2  0  0  0  0
 27 24  1  0  0  0  0
 29 31  2  0  0  0  0
 30 25  1  0  0  0  0
 31 26  1  0  0  0  0
 32 26  2  0  0  0  0
 33 32  1  0  0  0  0
 33 34  2  0  0  0  0
 34 27  1  0  0  0  0
M  END
>  <MODEL>
6

>  <REMARK>
 VINA RESULT:      -8.6      4.473      8.684
  Name = 
  6 active torsions:
  status: ('A' for Active; 'I' for Inactive)
    1  A    between atoms: C_3  and  C_13
    2  A    between atoms: C_3  and  C_14
    3  A    between atoms: C_6  and  O_21
    4  A    between atoms: C_7  and  O_21
    5  A    between atoms: C_8  and  C_13
    6  A    between atoms: C_8  and  C_27
                            x       y       z     vdW  Elec       q    Type
                         _______ _______ _______ _____ _____    ______ ____

>  <TORSDO>
F 6

$$$$
=
 OpenBabel11032421293D

 34 38  0  0  1  0  0  0  0  0999 V2000
  184.1260  178.2440  142.2110 O   0  0  0  0  0  0  0  0  0  0  0  0
  181.1600  178.7750  139.4160 C   0  0  2  0  0  3  0  0  0  0  0  0
  183.3520  178.9670  141.2850 C   0  0  2  0  0  3  0  0  0  0  0  0
  182.5280  178.6410  143.9770 C   0  0  0  0  0  2  0  0  0  0  0  0
  181.1130  179.4900  140.6270 O   0  0  0  0  0  0  0  0  0  0  0  0
  184.8640  179.3410  139.4150 N   0  0  0  0  0  1  0  0  0  0  0  0
  182.5760  178.7030  138.8880 C   0  0  0  0  0  0  0  0  0  0  0  0
  183.9550  178.8750  143.4580 C   0  0  1  0  0  3  0  0  0  0  0  0
  181.5270  179.2150  142.9770 C   0  0  2  0  0  3  0  0  0  0  0  0
  182.7790  178.6350  137.6860 O   0  0  0  0  0  0  0  0  0  0  0  0
  180.1260  178.7830  143.3630 C   0  0  0  0  0  1  0  0  0  0  0  0
  181.8540  178.7460  141.5590 C   0  0  2  0  0  3  0  0  0  0  0  0
  183.7250  178.5520  139.8570 C   0  0  2  0  0  3  0  0  0  0  0  0
  185.1810  179.3430  145.6220 C   0  0  0  0  0  1  0  0  0  0  0  0
  185.0240  178.3940  144.4400 C   0  0  2  0  0  3  0  0  0  0  0  0
  186.3530  178.1840  143.7310 C   0  0  0  0  0  2  0  0  0  0  0  0
  187.1730  177.1220  144.4420 C   0  0  0  0  0  2  0  0  0  0  0  0
  190.1980  177.3760  146.2600 C   0  0  0  0  0  2  0  0  0  0  0  0
  188.2090  177.7750  145.3390 C   0  0  1  0  0  3  0  0  0  0  0  0
  189.2250  177.2150  147.4050 C   0  0  2  0  0  3  0  0  0  0  0  0
  187.8870  177.4800  146.7850 C   0  0  0  0  0  2  0  0  0  0  0  0
  189.5170  178.2500  148.4720 C   0  0  0  0  0  1  0  0  0  0  0  0
  189.4860  177.2660  145.0570 O   0  0  0  0  0  0  0  0  0  0  0  0
  180.3050  179.3950  138.4620 O   0  0  0  0  0  0  0  0  0  0  0  0
  179.9390  184.8040  137.9840 N   0  0  0  0  0  0  0  0  0  0  0  0
  180.8260  182.8760  137.5740 C   0  0  0  0  0  0  0  0  0  0  0  0
  180.1570  180.7810  138.3820 C   0  0  0  0  0  0  0  0  0  0  0  0
  181.0120  181.5350  137.6190 N   0  0  0  0  0  0  0  0  0  0  0  0
  180.9760  184.9570  137.1650 N   0  0  0  0  0  0  0  0  0  0  0  0
  179.1020  185.8850  138.4760 C   0  0  0  0  0  1  0  0  0  0  0  0
  181.5470  183.7830  136.8910 N   0  0  0  0  0  0  0  0  0  0  0  0
  179.8330  183.4980  138.2500 C   0  0  0  0  0  0  0  0  0  0  0  0
  178.9310  182.7990  139.0430 C   0  0  0  0  0  3  0  0  0  0  0  0
  179.1060  181.4030  139.1040 C   0  0  0  0  0  3  0  0  0  0  0  0
  1  8  1  0  0  0  0
  2 24  1  6  0  0  0
  2  5  1  0  0  0  0
  3 12  1  0  0  0  0
  3  1  1  1  0  0  0
  7  2  1  0  0  0  0
  7 13  1  0  0  0  0
  8  4  1  0  0  0  0
  8 15  1  1  0  0  0
  9 11  1  1  0  0  0
  9  4  1  0  0  0  0
 10  7  2  0  0  0  0
 12  5  1  6  0  0  0
 12  9  1  0  0  0  0
 13  6  1  6  0  0  0
 13  3  1  0  0  0  0
 15 14  1  1  0  0  0
 16 15  1  0  0  0  0
 16 17  1  0  0  0  0
 18 20  1  0  0  0  0
 19 17  1  6  0  0  0
 19 21  1  0  0  0  0
 20 22  1  1  0  0  0
 21 20  1  0  0  0  0
 23 19  1  0  0  0  0
 23 18  1  0  0  0  0
 25 32  1  0  0  0  0
 25 30  1  0  0  0  0
 26 28  1  0  0  0  0
 26 32  2  0  0  0  0
 27 24  1  0  0  0  0
 27 34  1  0  0  0  0
 28 27  2  0  0  0  0
 29 25  1  0  0  0  0
 31 29  2  0  0  0  0
 31 26  1  0  0  0  0
 32 33  1  0  0  0  0
 33 34  2  0  0  0  0
M  END
>  <MODEL>
7

>  <REMARK>
 VINA RESULT:      -8.5      6.023     10.408
  Name = 
  6 active torsions:
  status: ('A' for Active; 'I' for Inactive)
    1  A    between atoms: C_3  and  C_13
    2  A    between atoms: C_3  and  C_14
    3  A    between atoms: C_6  and  O_21
    4  A    between atoms: C_7  and  O_21
    5  A    between atoms: C_8  and  C_13
    6  A    between atoms: C_8  and  C_27
                            x       y       z     vdW  Elec       q    Type
                         _______ _______ _______ _____ _____    ______ ____

>  <TORSDO>
F 6

$$$$
=
 OpenBabel11032421293D

 34 38  0  0  1  0  0  0  0  0999 V2000
  190.5500  176.6730  141.1290 O   0  0  0  0  0  0  0  0  0  0  0  0
  187.9590  177.1910  137.9820 C   0  0  2  0  0  3  0  0  0  0  0  0
  190.0560  177.2860  139.9630 C   0  0  2  0  0  3  0  0  0  0  0  0
  189.1020  177.9970  142.5350 C   0  0  0  0  0  2  0  0  0  0  0  0
  188.0990  178.2080  138.9440 O   0  0  0  0  0  0  0  0  0  0  0  0
  191.6590  176.6610  138.2410 N   0  0  0  0  0  1  0  0  0  0  0  0
  189.3000  176.5730  137.6530 C   0  0  0  0  0  0  0  0  0  0  0  0
  190.5460  177.6580  142.1340 C   0  0  1  0  0  3  0  0  0  0  0  0
  188.3490  178.5170  141.3130 C   0  0  2  0  0  3  0  0  0  0  0  0
  189.5050  176.1060  136.5430 O   0  0  0  0  0  0  0  0  0  0  0  0
  186.8730  178.6290  141.6420 C   0  0  0  0  0  1  0  0  0  0  0  0
  188.5550  177.5870  140.1170 C   0  0  2  0  0  3  0  0  0  0  0  0
  190.3240  176.3890  138.7490 C   0  0  2  0  0  3  0  0  0  0  0  0
  191.2220  175.7110  143.6030 C   0  0  0  0  0  1  0  0  0  0  0  0
  191.3930  177.1990  143.3230 C   0  0  2  0  0  3  0  0  0  0  0  0
  191.0780  178.0250  144.5610 C   0  0  0  0  0  2  0  0  0  0  0  0
  190.5520  177.1350  145.6730 C   0  0  0  0  0  2  0  0  0  0  0  0
  187.9380  177.4880  148.0310 C   0  0  0  0  0  2  0  0  0  0  0  0
  189.4550  177.8500  146.4400 C   0  0  1  0  0  3  0  0  0  0  0  0
  187.1320  177.5020  146.7540 C   0  0  2  0  0  3  0  0  0  0  0  0
  188.1520  177.7420  145.6830 C   0  0  0  0  0  2  0  0  0  0  0  0
  186.1390  178.6450  146.7900 C   0  0  0  0  0  1  0  0  0  0  0  0
  189.2830  177.2630  147.7030 O   0  0  0  0  0  0  0  0  0  0  0  0
  187.3580  177.7250  136.8070 O   0  0  0  0  0  0  0  0  0  0  0  0
  182.0390  177.0210  135.8880 N   0  0  0  0  0  0  0  0  0  0  0  0
  183.7510  177.4720  137.1290 C   0  0  0  0  0  0  0  0  0  0  0  0
  186.0080  177.5290  136.5050 C   0  0  0  0  0  0  0  0  0  0  0  0
  185.0460  177.6720  137.4720 N   0  0  0  0  0  0  0  0  0  0  0  0
  181.6330  177.2800  137.1280 N   0  0  0  0  0  0  0  0  0  0  0  0
  181.1640  176.6770  134.7810 C   0  0  0  0  0  1  0  0  0  0  0  0
  182.6670  177.5630  137.9210 N   0  0  0  0  0  0  0  0  0  0  0  0
  183.3720  177.1380  135.8740 C   0  0  0  0  0  0  0  0  0  0  0  0
  184.2910  176.9750  134.8450 C   0  0  0  0  0  3  0  0  0  0  0  0
  185.6440  177.1790  135.1800 C   0  0  0  0  0  3  0  0  0  0  0  0
  1  8  1  0  0  0  0
  2 24  1  6  0  0  0
  2  5  1  0  0  0  0
  3 12  1  0  0  0  0
  3  1  1  1  0  0  0
  7  2  1  0  0  0  0
  7 13  1  0  0  0  0
  8  4  1  0  0  0  0
  8 15  1  1  0  0  0
  9 11  1  1  0  0  0
  9  4  1  0  0  0  0
 10  7  2  0  0  0  0
 12  5  1  6  0  0  0
 12  9  1  0  0  0  0
 13  6  1  6  0  0  0
 13  3  1  0  0  0  0
 15 14  1  1  0  0  0
 15 16  1  0  0  0  0
 16 17  1  0  0  0  0
 19 17  1  6  0  0  0
 19 23  1  0  0  0  0
 20 22  1  1  0  0  0
 20 18  1  0  0  0  0
 21 19  1  0  0  0  0
 21 20  1  0  0  0  0
 23 18  1  0  0  0  0
 25 29  1  0  0  0  0
 26 28  1  0  0  0  0
 26 31  1  0  0  0  0
 27 24  1  0  0  0  0
 27 28  2  0  0  0  0
 29 31  2  0  0  0  0
 30 25  1  0  0  0  0
 32 25  1  0  0  0  0
 32 26  2  0  0  0  0
 33 34  2  0  0  0  0
 33 32  1  0  0  0  0
 34 27  1  0  0  0  0
M  END
>  <MODEL>
8

>  <REMARK>
 VINA RESULT:      -8.3      3.469      6.832
  Name = 
  6 active torsions:
  status: ('A' for Active; 'I' for Inactive)
    1  A    between atoms: C_3  and  C_13
    2  A    between atoms: C_3  and  C_14
    3  A    between atoms: C_6  and  O_21
    4  A    between atoms: C_7  and  O_21
    5  A    between atoms: C_8  and  C_13
    6  A    between atoms: C_8  and  C_27
                            x       y       z     vdW  Elec       q    Type
                         _______ _______ _______ _____ _____    ______ ____

>  <TORSDO>
F 6

$$$$
=
 OpenBabel11032421293D

 34 38  0  0  1  0  0  0  0  0999 V2000
  188.8890  178.6510  142.2520 O   0  0  0  0  0  0  0  0  0  0  0  0
  187.7050  177.8170  138.4060 C   0  0  2  0  0  3  0  0  0  0  0  0
  188.2550  177.9090  141.2380 C   0  0  2  0  0  3  0  0  0  0  0  0
  191.0060  177.5680  141.8310 C   0  0  0  0  0  2  0  0  0  0  0  0
  188.5640  176.9290  139.0790 O   0  0  0  0  0  0  0  0  0  0  0  0
  185.8810  178.2540  141.6500 N   0  0  0  0  0  1  0  0  0  0  0  0
  186.6360  178.3430  139.3390 C   0  0  0  0  0  0  0  0  0  0  0  0
  189.8570  177.8040  142.8240 C   0  0  1  0  0  3  0  0  0  0  0  0
  190.4510  176.9200  140.5650 C   0  0  2  0  0  3  0  0  0  0  0  0
  185.5400  178.6550  138.9010 O   0  0  0  0  0  0  0  0  0  0  0  0
  191.5280  176.9000  139.4970 C   0  0  0  0  0  1  0  0  0  0  0  0
  189.2230  177.6800  140.0640 C   0  0  2  0  0  3  0  0  0  0  0  0
  186.9840  178.6330  140.7800 C   0  0  2  0  0  3  0  0  0  0  0  0
  191.5020  179.3530  143.9650 C   0  0  0  0  0  1  0  0  0  0  0  0
  190.3410  178.3850  144.1550 C   0  0  2  0  0  3  0  0  0  0  0  0
  190.7130  177.2740  145.1240 C   0  0  0  0  0  2  0  0  0  0  0  0
  189.4740  176.7410  145.8220 C   0  0  0  0  0  2  0  0  0  0  0  0
  186.8130  178.5100  147.3430 C   0  0  0  0  0  2  0  0  0  0  0  0
  188.4470  177.8480  145.9810 C   0  0  1  0  0  3  0  0  0  0  0  0
  186.0850  177.9260  146.1560 C   0  0  2  0  0  3  0  0  0  0  0  0
  187.1830  177.4770  145.2400 C   0  0  0  0  0  2  0  0  0  0  0  0
  185.2580  179.0030  145.4850 C   0  0  0  0  0  1  0  0  0  0  0  0
  188.1300  178.0260  147.3360 O   0  0  0  0  0  0  0  0  0  0  0  0
  187.1110  177.1560  137.2940 O   0  0  0  0  0  0  0  0  0  0  0  0
  188.8240  172.3110  135.5010 N   0  0  0  0  0  0  0  0  0  0  0  0
  187.5420  173.6080  136.6620 C   0  0  0  0  0  0  0  0  0  0  0  0
  187.6000  175.9460  136.7960 C   0  0  0  0  0  0  0  0  0  0  0  0
  187.0330  174.7550  137.1730 N   0  0  0  0  0  0  0  0  0  0  0  0
  187.9410  171.5770  136.1730 N   0  0  0  0  0  0  0  0  0  0  0  0
  189.8450  171.7790  134.6160 C   0  0  0  0  0  1  0  0  0  0  0  0
  187.1320  172.3490  136.9010 N   0  0  0  0  0  0  0  0  0  0  0  0
  188.5840  173.5930  135.8000 C   0  0  0  0  0  0  0  0  0  0  0  0
  189.2080  174.7600  135.3770 C   0  0  0  0  0  3  0  0  0  0  0  0
  188.6940  175.9640  135.8950 C   0  0  0  0  0  3  0  0  0  0  0  0
  1  8  1  0  0  0  0
  2 24  1  6  0  0  0
  2  5  1  0  0  0  0
  2  7  1  0  0  0  0
  3  1  1  1  0  0  0
  4  8  1  0  0  0  0
  7 13  1  0  0  0  0
  8 15  1  1  0  0  0
  9 11  1  6  0  0  0
  9  4  1  0  0  0  0
 10  7  2  0  0  0  0
 12  5  1  6  0  0  0
 12  9  1  0  0  0  0
 12  3  1  0  0  0  0
 13  3  1  0  0  0  0
 13  6  1  1  0  0  0
 15 14  1  6  0  0  0
 15 16  1  0  0  0  0
 16 17  1  0  0  0  0
 19 17  1  1  0  0  0
 19 23  1  0  0  0  0
 20 22  1  6  0  0  0
 20 18  1  0  0  0  0
 21 19  1  0  0  0  0
 21 20  1  0  0  0  0
 23 18  1  0  0  0  0
 25 32  1  0  0  0  0
 25 29  1  0  0  0  0
 26 31  1  0  0  0  0
 26 28  1  0  0  0  0
 27 28  2  0  0  0  0
 27 24  1  0  0  0  0
 29 31  2  0  0  0  0
 30 25  1  0  0  0  0
 32 26  2  0  0  0  0
 33 32  1  0  0  0  0
 33 34  2  0  0  0  0
 34 27  1  0  0  0  0
M  END
>  <MODEL>
9

>  <REMARK>
 VINA RESULT:      -8.3      3.203      4.162
  Name = 
  6 active torsions:
  status: ('A' for Active; 'I' for Inactive)
    1  A    between atoms: C_3  and  C_13
    2  A    between atoms: C_3  and  C_14
    3  A    between atoms: C_6  and  O_21
    4  A    between atoms: C_7  and  O_21
    5  A    between atoms: C_8  and  C_13
    6  A    between atoms: C_8  and  C_27
                            x       y       z     vdW  Elec       q    Type
                         _______ _______ _______ _____ _____    ______ ____

>  <TORSDO>
F 6

$$$$
