=
 OpenBabel11032420273D

 39 43  0  0  1  0  0  0  0  0999 V2000
  185.5040  178.5470  146.1830 C   0  0  0  0  0  3  0  0  0  0  0  0
  187.7960  177.7200  146.3420 C   0  0  0  0  0  0  0  0  0  0  0  0
  190.0800  176.6310  145.1570 C   0  0  0  0  0  3  0  0  0  0  0  0
  188.9470  177.4380  147.0820 O   0  0  0  0  0  0  0  0  0  0  0  0
  185.4010  178.3250  144.8630 C   0  0  0  0  0  0  0  0  0  0  0  0
  187.7810  177.4340  144.8920 C   0  0  0  0  0  0  0  0  0  0  0  0
  190.0860  176.8930  146.4710 C   0  0  0  0  0  0  0  0  0  0  0  0
  186.7270  178.2390  146.9410 C   0  0  0  0  0  3  0  0  0  0  0  0
  188.8830  176.9060  144.3280 C   0  0  0  0  0  0  0  0  0  0  0  0
  186.5490  177.7370  144.0730 C   0  0  0  0  0  2  0  0  0  0  0  0
  192.8290  176.6990  148.8130 N   0  0  0  0  0  0  0  0  0  0  0  0
  191.2800  176.6180  147.2820 C   0  0  0  0  0  0  0  0  0  0  0  0
  192.2030  175.6130  147.0520 C   0  0  0  0  0  3  0  0  0  0  0  0
  191.6980  177.3000  148.4110 C   0  0  0  0  0  3  0  0  0  0  0  0
  193.1430  175.6920  148.0130 N   0  0  0  0  0  0  0  0  0  0  0  0
  193.6160  177.0870  149.9670 C   0  0  0  0  0  1  0  0  0  0  0  0
  190.2740  176.6110  140.9230 C   0  0  0  0  0  2  0  0  0  0  0  0
  190.2740  176.1880  142.3740 C   0  0  0  0  0  2  0  0  0  0  0  0
  189.3260  177.7200  140.7780 N   0  0  0  0  0  0  0  0  0  0  0  0
  188.5520  177.8080  142.0140 C   0  0  0  0  0  2  0  0  0  0  0  0
  188.9130  176.6060  142.8570 C   0  0  2  0  0  3  0  0  0  0  0  0
  188.4270  177.5200  139.6260 C   0  0  2  0  0  3  0  0  0  0  0  0
  189.4550  178.0890  137.3610 C   0  0  0  0  0  2  0  0  0  0  0  0
  190.8960  176.0790  135.3850 O   0  0  0  0  0  1  0  0  0  0  0  0
  189.1810  177.6700  135.9120 C   0  0  0  0  0  2  0  0  0  0  0  0
  189.5340  176.2010  135.6530 C   0  0  2  0  0  3  0  0  0  0  0  0
  189.1200  176.9640  138.3610 C   0  0  2  0  0  3  0  0  0  0  0  0
  189.1680  175.3070  136.8480 C   0  0  0  0  0  2  0  0  0  0  0  0
  188.3230  175.9810  137.7460 O   0  0  0  0  0  0  0  0  0  0  0  0
  187.7360  178.7690  139.3280 N   0  0  0  0  0  2  0  0  0  0  0  0
  185.8680  178.3750  138.2880 C   0  0  0  0  0  1  0  0  0  0  0  0
  186.4180  178.5570  139.5570 O   0  0  0  0  0  0  0  0  0  0  0  0
  184.1450  178.6600  144.1620 C   0  0  0  0  0  0  0  0  0  0  0  0
  183.1300  179.0280  144.8190 O   0  0  0  0  0  0  0  0  0  0  0  0
  182.9240  178.6310  142.0350 C   0  0  0  0  0  3  0  0  0  0  0  0
  184.0730  178.5670  142.6950 C   0  0  0  0  0  3  0  0  0  0  0  0
  182.9210  178.5280  140.5530 C   0  0  0  0  0  2  0  0  0  0  0  0
  183.0930  177.1430  140.1600 N   0  0  0  0  0  2  0  0  0  0  0  0
  181.8430  176.7230  139.5570 C   0  0  0  0  0  1  0  0  0  0  0  0
  1  8  1  0  0  0  0
  2  8  2  0  0  0  0
  2  4  1  0  0  0  0
  3  7  2  0  0  0  0
  5  1  2  0  0  0  0
  6  2  1  0  0  0  0
  7  4  1  0  0  0  0
  7 12  1  0  0  0  0
  9  6  2  0  0  0  0
  9  3  1  0  0  0  0
 10  5  1  0  0  0  0
 10  6  1  0  0  0  0
 11 16  1  0  0  0  0
 12 14  2  0  0  0  0
 13 12  1  0  0  0  0
 13 15  2  0  0  0  0
 14 11  1  0  0  0  0
 15 11  1  0  0  0  0
 17 18  1  0  0  0  0
 18 21  1  0  0  0  0
 19 17  1  0  0  0  0
 19 20  1  0  0  0  0
 20 21  1  0  0  0  0
 21  9  1  1  0  0  0
 22 30  1  6  0  0  0
 22 19  1  0  0  0  0
 23 27  1  0  0  0  0
 25 23  1  0  0  0  0
 26 24  1  1  0  0  0
 26 25  1  0  0  0  0
 26 28  1  0  0  0  0
 27 22  1  1  0  0  0
 28 29  1  0  0  0  0
 29 27  1  0  0  0  0
 30 32  1  0  0  0  0
 31 32  1  0  0  0  0
 33 34  2  0  0  0  0
 33  5  1  0  0  0  0
 35 36  2  0  0  0  0
 36 33  1  0  0  0  0
 37 35  1  0  0  0  0
 38 37  1  0  0  0  0
 39 38  1  0  0  0  0
M  END
>  <MODEL>
1

>  <REMARK>
 VINA RESULT:      -9.4      0.000      0.000
  Name = 
  10 active torsions:
  status: ('A' for Active; 'I' for Inactive)
    1  A    between atoms: N_7  and  C_10
    2  A    between atoms: C_8  and  C_17
    3  A    between atoms: C_8  and  C_28
    4  A    between atoms: C_9  and  C_10
    5  A    between atoms: N_12  and  O_20
    6  A    between atoms: N_12  and  C_24
    7  A    between atoms: C_18  and  C_24
    8  A    between atoms: N_21  and  C_24
    9  A    between atoms: C_22  and  C_27
   10  A    between atoms: C_33  and  C_36
                            x       y       z     vdW  Elec       q    Type
                         _______ _______ _______ _____ _____    ______ ____

>  <TORSDO>
F 10

$$$$
=
 OpenBabel11032420273D

 39 43  0  0  1  0  0  0  0  0999 V2000
  186.0910  178.3970  147.4060 C   0  0  0  0  0  3  0  0  0  0  0  0
  184.8560  178.5030  145.3030 C   0  0  1  0  0  3  0  0  0  0  0  0
  184.7220  178.1420  142.5350 C   0  0  0  0  0  3  0  0  0  0  0  0
  183.6940  178.7830  144.5780 O   0  0  0  0  0  0  0  0  0  0  0  0
  187.2200  177.9370  146.8450 C   0  0  0  0  0  0  0  0  0  0  0  0
  186.0490  178.0040  144.5900 C   0  0  0  0  0  0  0  0  0  0  0  0
  183.6430  178.5940  143.1890 C   0  0  0  0  0  0  0  0  0  0  0  0
  184.8810  178.6870  146.6210 C   0  0  0  0  0  3  0  0  0  0  0  0
  185.9810  177.8360  143.2560 C   0  0  0  0  0  0  0  0  0  0  0  0
  187.3130  177.6900  145.3550 C   0  0  0  0  0  3  0  0  0  0  0  0
  180.9130  179.1690  140.8950 N   0  0  0  0  0  0  0  0  0  0  0  0
  182.4010  178.8930  142.4630 C   0  0  0  0  0  0  0  0  0  0  0  0
  181.2140  179.3210  143.0300 C   0  0  0  0  0  3  0  0  0  0  0  0
  182.1890  178.8020  141.1000 C   0  0  0  0  0  3  0  0  0  0  0  0
  180.3190  179.4810  142.0360 N   0  0  0  0  0  0  0  0  0  0  0  0
  180.2570  179.2220  139.6030 C   0  0  0  0  0  1  0  0  0  0  0  0
  189.4180  176.6210  142.6860 C   0  0  0  0  0  2  0  0  0  0  0  0
  188.0580  176.4410  143.3220 C   0  0  0  0  0  2  0  0  0  0  0  0
  189.4380  177.9320  142.0320 N   0  0  0  0  0  0  0  0  0  0  0  0
  188.0670  178.4380  142.0070 C   0  0  0  0  0  2  0  0  0  0  0  0
  187.1680  177.3250  142.4930 C   0  0  2  0  0  3  0  0  0  0  0  0
  189.9740  177.8480  140.6600 C   0  0  2  0  0  3  0  0  0  0  0  0
  189.5120  176.4430  138.5800 C   0  0  0  0  0  2  0  0  0  0  0  0
  186.7490  176.1770  137.0590 O   0  0  0  0  0  1  0  0  0  0  0  0
  189.0760  176.7490  137.1420 C   0  0  0  0  0  2  0  0  0  0  0  0
  187.6310  177.2570  137.0670 C   0  0  2  0  0  3  0  0  0  0  0  0
  188.9320  177.4560  139.5880 C   0  0  2  0  0  3  0  0  0  0  0  0
  187.2900  178.1850  138.2420 C   0  0  0  0  0  2  0  0  0  0  0  0
  188.4510  178.5960  138.9180 O   0  0  0  0  0  0  0  0  0  0  0  0
  191.1060  176.9280  140.6380 N   0  0  0  0  0  2  0  0  0  0  0  0
  193.0640  177.2110  139.7390 C   0  0  0  0  0  1  0  0  0  0  0  0
  192.2280  177.6760  140.7530 O   0  0  0  0  0  0  0  0  0  0  0  0
  188.3990  177.6640  147.6920 C   0  0  0  0  0  0  0  0  0  0  0  0
  188.4650  178.1420  148.8600 O   0  0  0  0  0  0  0  0  0  0  0  0
  190.6330  177.3510  146.7320 C   0  0  0  0  0  3  0  0  0  0  0  0
  189.4980  176.8310  147.1780 C   0  0  0  0  0  3  0  0  0  0  0  0
  191.7030  176.4530  146.2240 C   0  0  0  0  0  2  0  0  0  0  0  0
  191.8780  175.3390  147.1360 N   0  0  0  0  0  2  0  0  0  0  0  0
  192.8420  175.7650  148.1320 C   0  0  0  0  0  1  0  0  0  0  0  0
  2  8  1  6  0  0  0
  3  7  2  0  0  0  0
  3  9  1  0  0  0  0
  4  2  1  0  0  0  0
  5  1  1  0  0  0  0
  5 33  1  0  0  0  0
  6  2  1  0  0  0  0
  6 10  1  0  0  0  0
  7  4  1  0  0  0  0
  8  1  2  0  0  0  0
  9  6  2  0  0  0  0
 10  5  2  0  0  0  0
 11 14  1  0  0  0  0
 11 15  1  0  0  0  0
 12 13  1  0  0  0  0
 12  7  1  0  0  0  0
 14 12  2  0  0  0  0
 15 13  2  0  0  0  0
 16 11  1  0  0  0  0
 17 18  1  0  0  0  0
 19 17  1  0  0  0  0
 20 19  1  0  0  0  0
 20 21  1  0  0  0  0
 21  9  1  1  0  0  0
 21 18  1  0  0  0  0
 22 30  1  1  0  0  0
 22 19  1  0  0  0  0
 23 27  1  0  0  0  0
 25 23  1  0  0  0  0
 26 24  1  1  0  0  0
 26 25  1  0  0  0  0
 26 28  1  0  0  0  0
 27 22  1  1  0  0  0
 28 29  1  0  0  0  0
 29 27  1  0  0  0  0
 30 32  1  0  0  0  0
 31 32  1  0  0  0  0
 33 34  2  0  0  0  0
 35 36  2  0  0  0  0
 36 33  1  0  0  0  0
 37 35  1  0  0  0  0
 37 38  1  0  0  0  0
 38 39  1  0  0  0  0
M  END
>  <MODEL>
2

>  <REMARK>
 VINA RESULT:      -9.1      1.775      7.378
  Name = 
  10 active torsions:
  status: ('A' for Active; 'I' for Inactive)
    1  A    between atoms: N_7  and  C_10
    2  A    between atoms: C_8  and  C_17
    3  A    between atoms: C_8  and  C_28
    4  A    between atoms: C_9  and  C_10
    5  A    between atoms: N_12  and  O_20
    6  A    between atoms: N_12  and  C_24
    7  A    between atoms: C_18  and  C_24
    8  A    between atoms: N_21  and  C_24
    9  A    between atoms: C_22  and  C_27
   10  A    between atoms: C_33  and  C_36
                            x       y       z     vdW  Elec       q    Type
                         _______ _______ _______ _____ _____    ______ ____

>  <TORSDO>
F 10

$$$$
=
 OpenBabel11032420273D

 39 43  0  0  1  0  0  0  0  0999 V2000
  186.4500  178.2000  138.8520 C   0  0  0  0  0  3  0  0  0  0  0  0
  188.7420  177.3580  138.8770 C   0  0  2  0  0  3  0  0  0  0  0  0
  191.1050  176.7660  140.2470 C   0  0  0  0  0  3  0  0  0  0  0  0
  189.8520  176.8100  138.2290 O   0  0  0  0  0  0  0  0  0  0  0  0
  186.4240  178.4810  140.1640 C   0  0  0  0  0  0  0  0  0  0  0  0
  188.8150  177.6350  140.3270 C   0  0  0  0  0  0  0  0  0  0  0  0
  191.0300  176.5170  138.9330 C   0  0  0  0  0  0  0  0  0  0  0  0
  187.6330  177.6260  138.1920 C   0  0  0  0  0  3  0  0  0  0  0  0
  189.9570  177.3510  140.9810 C   0  0  0  0  0  0  0  0  0  0  0  0
  187.6240  178.2210  141.0470 C   0  0  0  0  0  3  0  0  0  0  0  0
  193.5100  174.5560  137.1870 N   0  0  0  0  0  0  0  0  0  0  0  0
  192.1740  175.9350  138.2170 C   0  0  0  0  0  0  0  0  0  0  0  0
  193.3240  176.6070  137.8430 C   0  0  0  0  0  3  0  0  0  0  0  0
  192.3130  174.6270  137.7900 C   0  0  0  0  0  3  0  0  0  0  0  0
  194.1250  175.7280  137.2110 N   0  0  0  0  0  0  0  0  0  0  0  0
  194.0730  173.3630  136.5850 C   0  0  0  0  0  1  0  0  0  0  0  0
  191.4830  178.4620  144.1520 C   0  0  0  0  0  2  0  0  0  0  0  0
  190.9520  178.7870  142.7740 C   0  0  0  0  0  2  0  0  0  0  0  0
  191.4610  177.0050  144.3100 N   0  0  0  0  0  0  0  0  0  0  0  0
  190.6880  176.4490  143.2010 C   0  0  0  0  0  2  0  0  0  0  0  0
  190.0720  177.6110  142.4550 C   0  0  2  0  0  3  0  0  0  0  0  0
  190.8620  176.6060  145.5980 C   0  0  2  0  0  3  0  0  0  0  0  0
  189.4510  177.5720  147.4920 C   0  0  0  0  0  2  0  0  0  0  0  0
  186.7910  179.2620  147.1900 O   0  0  0  0  0  1  0  0  0  0  0  0
  188.0160  177.3610  147.9880 C   0  0  0  0  0  2  0  0  0  0  0  0
  186.9730  177.8930  146.9980 C   0  0  2  0  0  3  0  0  0  0  0  0
  189.5710  177.3710  145.9680 C   0  0  2  0  0  3  0  0  0  0  0  0
  187.3830  177.6310  145.5410 C   0  0  0  0  0  2  0  0  0  0  0  0
  188.4360  176.7050  145.4690 O   0  0  0  0  0  0  0  0  0  0  0  0
  191.8580  176.7360  146.6550 N   0  0  0  0  0  2  0  0  0  0  0  0
  192.9320  175.7010  148.2360 C   0  0  0  0  0  1  0  0  0  0  0  0
  191.9150  175.5440  147.2940 O   0  0  0  0  0  0  0  0  0  0  0  0
  185.2020  179.0540  140.7640 C   0  0  0  0  0  0  0  0  0  0  0  0
  184.1460  179.1550  140.0790 O   0  0  0  0  0  0  0  0  0  0  0  0
  184.4660  178.9360  143.1010 C   0  0  0  0  0  3  0  0  0  0  0  0
  185.2120  179.5070  142.1650 C   0  0  0  0  0  3  0  0  0  0  0  0
  184.5210  179.4430  144.4960 C   0  0  0  0  0  2  0  0  0  0  0  0
  183.4380  178.8640  145.2680 N   0  0  0  0  0  2  0  0  0  0  0  0
  182.3060  178.7430  144.3700 C   0  0  0  0  0  1  0  0  0  0  0  0
  1  5  1  0  0  0  0
  2  8  1  1  0  0  0
  2  6  1  0  0  0  0
  3  9  1  0  0  0  0
  4  2  1  0  0  0  0
  4  7  1  0  0  0  0
  5 33  1  0  0  0  0
  5 10  2  0  0  0  0
  6  9  2  0  0  0  0
  6 10  1  0  0  0  0
  7  3  2  0  0  0  0
  8  1  2  0  0  0  0
 11 15  1  0  0  0  0
 11 14  1  0  0  0  0
 12  7  1  0  0  0  0
 13 12  1  0  0  0  0
 14 12  2  0  0  0  0
 15 13  2  0  0  0  0
 16 11  1  0  0  0  0
 17 19  1  0  0  0  0
 18 17  1  0  0  0  0
 19 22  1  0  0  0  0
 20 19  1  0  0  0  0
 21  9  1  6  0  0  0
 21 18  1  0  0  0  0
 21 20  1  0  0  0  0
 22 30  1  1  0  0  0
 23 25  1  0  0  0  0
 26 24  1  6  0  0  0
 26 25  1  0  0  0  0
 27 22  1  1  0  0  0
 27 23  1  0  0  0  0
 28 26  1  0  0  0  0
 29 28  1  0  0  0  0
 29 27  1  0  0  0  0
 30 32  1  0  0  0  0
 32 31  1  0  0  0  0
 33 36  1  0  0  0  0
 34 33  2  0  0  0  0
 35 37  1  0  0  0  0
 36 35  2  0  0  0  0
 37 38  1  0  0  0  0
 39 38  1  0  0  0  0
M  END
>  <MODEL>
3

>  <REMARK>
 VINA RESULT:      -9.0      2.707      7.942
  Name = 
  10 active torsions:
  status: ('A' for Active; 'I' for Inactive)
    1  A    between atoms: N_7  and  C_10
    2  A    between atoms: C_8  and  C_17
    3  A    between atoms: C_8  and  C_28
    4  A    between atoms: C_9  and  C_10
    5  A    between atoms: N_12  and  O_20
    6  A    between atoms: N_12  and  C_24
    7  A    between atoms: C_18  and  C_24
    8  A    between atoms: N_21  and  C_24
    9  A    between atoms: C_22  and  C_27
   10  A    between atoms: C_33  and  C_36
                            x       y       z     vdW  Elec       q    Type
                         _______ _______ _______ _____ _____    ______ ____

>  <TORSDO>
F 10

$$$$
=
 OpenBabel11032420273D

 39 43  0  0  1  0  0  0  0  0999 V2000
  184.0180  178.7670  143.8800 C   0  0  0  0  0  3  0  0  0  0  0  0
  186.2630  178.1370  144.6060 C   0  0  0  0  0  0  0  0  0  0  0  0
  188.8610  177.2850  144.0280 C   0  0  0  0  0  3  0  0  0  0  0  0
  187.2140  177.9350  145.6100 O   0  0  0  0  0  0  0  0  0  0  0  0
  184.2690  178.5750  142.5760 C   0  0  0  0  0  0  0  0  0  0  0  0
  186.6370  177.8930  143.1980 C   0  0  0  0  0  0  0  0  0  0  0  0
  188.5140  177.5090  145.3020 C   0  0  0  0  0  0  0  0  0  0  0  0
  185.0360  178.5440  144.9200 C   0  0  0  0  0  3  0  0  0  0  0  0
  187.8890  177.4790  142.9250 C   0  0  0  0  0  0  0  0  0  0  0  0
  185.6270  178.1120  142.0970 C   0  0  0  0  0  2  0  0  0  0  0  0
  191.2130  176.6760  147.5530 N   0  0  0  0  0  0  0  0  0  0  0  0
  189.4880  177.3150  146.3860 C   0  0  0  0  0  0  0  0  0  0  0  0
  189.4090  177.8620  147.6540 C   0  0  0  0  0  3  0  0  0  0  0  0
  190.6460  176.5610  146.3420 C   0  0  0  0  0  3  0  0  0  0  0  0
  190.4880  177.4490  148.3460 N   0  0  0  0  0  0  0  0  0  0  0  0
  192.4550  176.0460  147.9580 C   0  0  0  0  0  1  0  0  0  0  0  0
  190.1640  177.1770  140.0350 C   0  0  0  0  0  2  0  0  0  0  0  0
  189.7210  176.7080  141.4030 C   0  0  0  0  0  2  0  0  0  0  0  0
  189.3790  178.3680  139.6920 N   0  0  0  0  0  0  0  0  0  0  0  0
  188.2950  178.4810  140.6650 C   0  0  0  0  0  2  0  0  0  0  0  0
  188.3130  177.2260  141.5080 C   0  0  2  0  0  3  0  0  0  0  0  0
  188.8310  178.2830  138.3260 C   0  0  2  0  0  3  0  0  0  0  0  0
  187.2020  176.4250  137.6890 C   0  0  0  0  0  2  0  0  0  0  0  0
  184.0640  176.4380  138.1130 O   0  0  0  0  0  1  0  0  0  0  0  0
  186.0150  176.3090  136.7240 C   0  0  0  0  0  2  0  0  0  0  0  0
  184.8140  177.1480  137.1750 C   0  0  2  0  0  3  0  0  0  0  0  0
  187.3480  177.8510  138.2560 C   0  0  2  0  0  3  0  0  0  0  0  0
  185.2500  178.4900  137.7810 C   0  0  0  0  0  2  0  0  0  0  0  0
  186.5980  178.7630  137.4920 O   0  0  0  0  0  0  0  0  0  0  0  0
  189.6640  177.3940  137.5240 N   0  0  0  0  0  2  0  0  0  0  0  0
  190.0440  176.7940  135.4700 C   0  0  0  0  0  1  0  0  0  0  0  0
  189.6540  177.8750  136.2580 O   0  0  0  0  0  0  0  0  0  0  0  0
  183.2030  178.8190  141.5840 C   0  0  0  0  0  0  0  0  0  0  0  0
  183.4990  179.1770  140.4090 O   0  0  0  0  0  0  0  0  0  0  0  0
  180.8530  178.3340  141.0760 C   0  0  0  0  0  3  0  0  0  0  0  0
  181.7910  178.6430  141.9610 C   0  0  0  0  0  3  0  0  0  0  0  0
  179.4450  178.1730  141.5220 C   0  0  0  0  0  2  0  0  0  0  0  0
  179.1620  176.7670  141.7400 N   0  0  0  0  0  2  0  0  0  0  0  0
  179.3680  176.1000  140.4690 C   0  0  0  0  0  1  0  0  0  0  0  0
  1  8  1  0  0  0  0
  2  8  2  0  0  0  0
  2  4  1  0  0  0  0
  3  7  2  0  0  0  0
  5  1  2  0  0  0  0
  6  2  1  0  0  0  0
  7  4  1  0  0  0  0
  7 12  1  0  0  0  0
  9  6  2  0  0  0  0
  9  3  1  0  0  0  0
 10  5  1  0  0  0  0
 10  6  1  0  0  0  0
 11 16  1  0  0  0  0
 11 15  1  0  0  0  0
 12 13  1  0  0  0  0
 13 15  2  0  0  0  0
 14 12  2  0  0  0  0
 14 11  1  0  0  0  0
 17 18  1  0  0  0  0
 18 21  1  0  0  0  0
 19 17  1  0  0  0  0
 19 20  1  0  0  0  0
 20 21  1  0  0  0  0
 21  9  1  1  0  0  0
 22 30  1  6  0  0  0
 22 19  1  0  0  0  0
 23 27  1  0  0  0  0
 25 26  1  0  0  0  0
 25 23  1  0  0  0  0
 26 28  1  0  0  0  0
 26 24  1  1  0  0  0
 27 22  1  6  0  0  0
 29 28  1  0  0  0  0
 29 27  1  0  0  0  0
 31 32  1  0  0  0  0
 32 30  1  0  0  0  0
 33 36  1  0  0  0  0
 33  5  1  0  0  0  0
 34 33  2  0  0  0  0
 35 37  1  0  0  0  0
 35 36  2  0  0  0  0
 37 38  1  0  0  0  0
 39 38  1  0  0  0  0
M  END
>  <MODEL>
4

>  <REMARK>
 VINA RESULT:      -8.4      1.878      3.142
  Name = 
  10 active torsions:
  status: ('A' for Active; 'I' for Inactive)
    1  A    between atoms: N_7  and  C_10
    2  A    between atoms: C_8  and  C_17
    3  A    between atoms: C_8  and  C_28
    4  A    between atoms: C_9  and  C_10
    5  A    between atoms: N_12  and  O_20
    6  A    between atoms: N_12  and  C_24
    7  A    between atoms: C_18  and  C_24
    8  A    between atoms: N_21  and  C_24
    9  A    between atoms: C_22  and  C_27
   10  A    between atoms: C_33  and  C_36
                            x       y       z     vdW  Elec       q    Type
                         _______ _______ _______ _____ _____    ______ ____

>  <TORSDO>
F 10

$$$$
=
 OpenBabel11032420273D

 39 43  0  0  1  0  0  0  0  0999 V2000
  185.9300  178.2370  138.0760 C   0  0  0  0  0  3  0  0  0  0  0  0
  188.2740  177.6300  138.3950 C   0  0  1  0  0  3  0  0  0  0  0  0
  190.4980  177.2870  140.0510 C   0  0  0  0  0  3  0  0  0  0  0  0
  189.5040  177.1930  137.8960 O   0  0  0  0  0  0  0  0  0  0  0  0
  185.7160  178.5210  139.3700 C   0  0  0  0  0  0  0  0  0  0  0  0
  188.1410  177.9210  139.8370 C   0  0  0  0  0  0  0  0  0  0  0  0
  190.6100  177.0240  138.7430 C   0  0  0  0  0  0  0  0  0  0  0  0
  187.2360  177.7810  137.5750 C   0  0  0  0  0  3  0  0  0  0  0  0
  189.2170  177.7580  140.6300 C   0  0  0  0  0  0  0  0  0  0  0  0
  186.8180  178.3890  140.3970 C   0  0  0  0  0  3  0  0  0  0  0  0
  193.4030  175.7140  136.8650 N   0  0  0  0  0  0  0  0  0  0  0  0
  191.8850  176.5560  138.1810 C   0  0  0  0  0  0  0  0  0  0  0  0
  193.1180  176.6190  138.8060 C   0  0  0  0  0  3  0  0  0  0  0  0
  192.0880  175.9750  136.9430 C   0  0  0  0  0  3  0  0  0  0  0  0
  194.0300  176.0920  137.9670 N   0  0  0  0  0  0  0  0  0  0  0  0
  194.0660  175.1000  135.7300 C   0  0  0  0  0  1  0  0  0  0  0  0
  190.3720  178.2450  144.1000 C   0  0  0  0  0  2  0  0  0  0  0  0
  190.3640  178.6830  142.6540 C   0  0  0  0  0  2  0  0  0  0  0  0
  189.6320  176.9830  144.1920 N   0  0  0  0  0  0  0  0  0  0  0  0
  188.9440  176.7770  142.9190 C   0  0  0  0  0  2  0  0  0  0  0  0
  189.1240  178.0360  142.1020 C   0  0  2  0  0  3  0  0  0  0  0  0
  188.6580  177.0030  145.3000 C   0  0  2  0  0  3  0  0  0  0  0  0
  186.8280  178.4630  146.3160 C   0  0  0  0  0  2  0  0  0  0  0  0
  184.5500  180.0000  144.7440 O   0  0  0  0  0  1  0  0  0  0  0  0
  185.2970  178.4010  146.3680 C   0  0  0  0  0  2  0  0  0  0  0  0
  184.6580  178.6330  144.9940 C   0  0  2  0  0  3  0  0  0  0  0  0
  187.3880  177.8410  145.0210 C   0  0  2  0  0  3  0  0  0  0  0  0
  185.4670  177.9710  143.8690 C   0  0  0  0  0  2  0  0  0  0  0  0
  186.4050  177.0610  144.3850 O   0  0  0  0  0  0  0  0  0  0  0  0
  189.3180  177.4580  146.5170 N   0  0  0  0  0  2  0  0  0  0  0  0
  191.1430  176.7550  147.4650 C   0  0  0  0  0  1  0  0  0  0  0  0
  189.8520  176.3640  147.1110 O   0  0  0  0  0  0  0  0  0  0  0  0
  184.3790  178.9720  139.8080 C   0  0  0  0  0  0  0  0  0  0  0  0
  183.8150  178.4210  140.7950 O   0  0  0  0  0  0  0  0  0  0  0  0
  182.3820  180.1210  138.9660 C   0  0  0  0  0  3  0  0  0  0  0  0
  183.7010  180.0660  139.0940 C   0  0  0  0  0  3  0  0  0  0  0  0
  181.7600  181.2530  138.2320 C   0  0  0  0  0  2  0  0  0  0  0  0
  180.9500  180.7400  137.1430 N   0  0  0  0  0  2  0  0  0  0  0  0
  180.4080  181.8940  136.4510 C   0  0  0  0  0  1  0  0  0  0  0  0
  1  5  1  0  0  0  0
  2  8  1  6  0  0  0
  2  6  1  0  0  0  0
  3  9  1  0  0  0  0
  4  2  1  0  0  0  0
  4  7  1  0  0  0  0
  5 33  1  0  0  0  0
  5 10  2  0  0  0  0
  6 10  1  0  0  0  0
  6  9  2  0  0  0  0
  7  3  2  0  0  0  0
  8  1  2  0  0  0  0
 11 14  1  0  0  0  0
 11 15  1  0  0  0  0
 12  7  1  0  0  0  0
 12 13  1  0  0  0  0
 14 12  2  0  0  0  0
 15 13  2  0  0  0  0
 16 11  1  0  0  0  0
 17 19  1  0  0  0  0
 18 17  1  0  0  0  0
 19 22  1  0  0  0  0
 20 19  1  0  0  0  0
 21  9  1  6  0  0  0
 21 18  1  0  0  0  0
 21 20  1  0  0  0  0
 22 30  1  1  0  0  0
 23 25  1  0  0  0  0
 26 24  1  6  0  0  0
 26 25  1  0  0  0  0
 27 22  1  1  0  0  0
 27 23  1  0  0  0  0
 28 29  1  0  0  0  0
 28 26  1  0  0  0  0
 29 27  1  0  0  0  0
 30 32  1  0  0  0  0
 32 31  1  0  0  0  0
 33 34  2  0  0  0  0
 35 36  2  0  0  0  0
 36 33  1  0  0  0  0
 37 35  1  0  0  0  0
 38 37  1  0  0  0  0
 39 38  1  0  0  0  0
M  END
>  <MODEL>
5

>  <REMARK>
 VINA RESULT:      -8.1      2.752      7.693
  Name = 
  10 active torsions:
  status: ('A' for Active; 'I' for Inactive)
    1  A    between atoms: N_7  and  C_10
    2  A    between atoms: C_8  and  C_17
    3  A    between atoms: C_8  and  C_28
    4  A    between atoms: C_9  and  C_10
    5  A    between atoms: N_12  and  O_20
    6  A    between atoms: N_12  and  C_24
    7  A    between atoms: C_18  and  C_24
    8  A    between atoms: N_21  and  C_24
    9  A    between atoms: C_22  and  C_27
   10  A    between atoms: C_33  and  C_36
                            x       y       z     vdW  Elec       q    Type
                         _______ _______ _______ _____ _____    ______ ____

>  <TORSDO>
F 10

$$$$
=
 OpenBabel11032420273D

 39 43  0  0  1  0  0  0  0  0999 V2000
  188.6770  177.1760  146.1510 C   0  0  0  0  0  3  0  0  0  0  0  0
  186.8410  177.7700  144.6550 C   0  0  0  0  0  0  0  0  0  0  0  0
  185.8850  178.4300  142.1130 C   0  0  0  0  0  3  0  0  0  0  0  0
  185.4880  178.0310  144.4210 O   0  0  0  0  0  0  0  0  0  0  0  0
  189.6140  177.2160  145.1910 C   0  0  0  0  0  0  0  0  0  0  0  0
  187.7960  177.8450  143.5300 C   0  0  0  0  0  0  0  0  0  0  0  0
  185.0250  178.3590  143.1370 C   0  0  0  0  0  0  0  0  0  0  0  0
  187.2590  177.4580  145.8790 C   0  0  0  0  0  3  0  0  0  0  0  0
  187.3310  178.1670  142.3090 C   0  0  0  0  0  0  0  0  0  0  0  0
  189.2610  177.5600  143.7610 C   0  0  0  0  0  2  0  0  0  0  0  0
  181.4790  179.0380  143.2510 N   0  0  0  0  0  0  0  0  0  0  0  0
  183.5940  178.6200  142.9300 C   0  0  0  0  0  0  0  0  0  0  0  0
  182.9490  178.6810  141.7070 C   0  0  0  0  0  3  0  0  0  0  0  0
  182.6380  178.8500  143.9030 C   0  0  0  0  0  3  0  0  0  0  0  0
  181.6480  178.9410  141.9420 N   0  0  0  0  0  0  0  0  0  0  0  0
  180.2020  179.3130  143.8810 C   0  0  0  0  0  1  0  0  0  0  0  0
  188.4340  177.9940  138.7920 C   0  0  0  0  0  2  0  0  0  0  0  0
  187.5700  178.6260  139.8590 C   0  0  0  0  0  2  0  0  0  0  0  0
  189.1280  176.8510  139.3940 N   0  0  0  0  0  0  0  0  0  0  0  0
  188.9370  176.9260  140.8400 C   0  0  0  0  0  2  0  0  0  0  0  0
  188.2660  178.2480  141.1380 C   0  0  2  0  0  3  0  0  0  0  0  0
  190.5670  176.8560  139.0690 C   0  0  2  0  0  3  0  0  0  0  0  0
  191.7470  176.3260  136.8690 C   0  0  0  0  0  2  0  0  0  0  0  0
  192.3360  173.4470  135.6900 O   0  0  0  0  0  1  0  0  0  0  0  0
  191.3430  175.6260  135.5650 C   0  0  0  0  0  2  0  0  0  0  0  0
  191.1180  174.1220  135.7570 C   0  0  2  0  0  3  0  0  0  0  0  0
  191.0070  175.7430  138.0900 C   0  0  2  0  0  3  0  0  0  0  0  0
  190.4360  173.8130  137.0970 C   0  0  0  0  0  2  0  0  0  0  0  0
  189.9020  174.9770  137.6760 O   0  0  0  0  0  0  0  0  0  0  0  0
  191.3430  176.7920  140.3020 N   0  0  0  0  0  2  0  0  0  0  0  0
  193.4660  177.2100  140.1000 C   0  0  0  0  0  1  0  0  0  0  0  0
  192.2230  177.8200  140.2710 O   0  0  0  0  0  0  0  0  0  0  0  0
  191.0210  176.9200  145.5310 C   0  0  0  0  0  0  0  0  0  0  0  0
  191.8840  176.8030  144.6160 O   0  0  0  0  0  0  0  0  0  0  0  0
  192.4380  175.9940  147.3060 C   0  0  0  0  0  3  0  0  0  0  0  0
  191.4210  176.7620  146.9390 C   0  0  0  0  0  3  0  0  0  0  0  0
  192.7880  175.8760  148.7450 C   0  0  0  0  0  2  0  0  0  0  0  0
  192.8940  177.1990  149.3300 N   0  0  0  0  0  2  0  0  0  0  0  0
  193.9300  177.1230  150.3430 C   0  0  0  0  0  1  0  0  0  0  0  0
  2  8  2  0  0  0  0
  3  9  1  0  0  0  0
  3  7  2  0  0  0  0
  4  2  1  0  0  0  0
  5 33  1  0  0  0  0
  5  1  2  0  0  0  0
  6 10  1  0  0  0  0
  6  2  1  0  0  0  0
  7  4  1  0  0  0  0
  8  1  1  0  0  0  0
  9  6  2  0  0  0  0
 10  5  1  0  0  0  0
 11 16  1  0  0  0  0
 11 14  1  0  0  0  0
 12  7  1  0  0  0  0
 12 14  2  0  0  0  0
 13 15  2  0  0  0  0
 13 12  1  0  0  0  0
 15 11  1  0  0  0  0
 17 19  1  0  0  0  0
 17 18  1  0  0  0  0
 18 21  1  0  0  0  0
 19 20  1  0  0  0  0
 20 21  1  0  0  0  0
 21  9  1  1  0  0  0
 22 19  1  0  0  0  0
 22 30  1  1  0  0  0
 23 27  1  0  0  0  0
 25 26  1  0  0  0  0
 25 23  1  0  0  0  0
 26 24  1  1  0  0  0
 26 28  1  0  0  0  0
 27 22  1  1  0  0  0
 28 29  1  0  0  0  0
 29 27  1  0  0  0  0
 31 32  1  0  0  0  0
 32 30  1  0  0  0  0
 33 36  1  0  0  0  0
 34 33  2  0  0  0  0
 35 37  1  0  0  0  0
 36 35  2  0  0  0  0
 37 38  1  0  0  0  0
 38 39  1  0  0  0  0
M  END
>  <MODEL>
6

>  <REMARK>
 VINA RESULT:      -8.0      2.077      7.469
  Name = 
  10 active torsions:
  status: ('A' for Active; 'I' for Inactive)
    1  A    between atoms: N_7  and  C_10
    2  A    between atoms: C_8  and  C_17
    3  A    between atoms: C_8  and  C_28
    4  A    between atoms: C_9  and  C_10
    5  A    between atoms: N_12  and  O_20
    6  A    between atoms: N_12  and  C_24
    7  A    between atoms: C_18  and  C_24
    8  A    between atoms: N_21  and  C_24
    9  A    between atoms: C_22  and  C_27
   10  A    between atoms: C_33  and  C_36
                            x       y       z     vdW  Elec       q    Type
                         _______ _______ _______ _____ _____    ______ ____

>  <TORSDO>
F 10

$$$$
=
 OpenBabel11032420273D

 39 43  0  0  1  0  0  0  0  0999 V2000
  190.5040  177.4860  139.3890 C   0  0  0  0  0  3  0  0  0  0  0  0
  190.1930  177.4040  141.8090 C   0  0  0  0  0  0  0  0  0  0  0  0
  188.6190  177.8290  144.0790 C   0  0  0  0  0  3  0  0  0  0  0  0
  190.6580  177.1110  143.0940 O   0  0  0  0  0  0  0  0  0  0  0  0
  189.2840  177.9850  139.1410 C   0  0  0  0  0  0  0  0  0  0  0  0
  188.8330  177.9550  141.6420 C   0  0  0  0  0  0  0  0  0  0  0  0
  189.8540  177.3280  144.2230 C   0  0  0  0  0  0  0  0  0  0  0  0
  190.9720  177.1880  140.7520 C   0  0  0  0  0  3  0  0  0  0  0  0
  188.0800  178.1620  142.7390 C   0  0  0  0  0  0  0  0  0  0  0  0
  188.3090  178.2730  140.2610 C   0  0  0  0  0  2  0  0  0  0  0  0
  191.6320  176.3000  147.1930 N   0  0  0  0  0  0  0  0  0  0  0  0
  190.3760  177.0000  145.5570 C   0  0  0  0  0  0  0  0  0  0  0  0
  189.7380  177.2440  146.7600 C   0  0  0  0  0  3  0  0  0  0  0  0
  191.5840  176.3970  145.8550 C   0  0  0  0  0  3  0  0  0  0  0  0
  190.5400  176.8010  147.7470 N   0  0  0  0  0  0  0  0  0  0  0  0
  192.7290  175.7260  147.9500 C   0  0  0  0  0  1  0  0  0  0  0  0
  184.4240  178.3640  143.1930 C   0  0  0  0  0  2  0  0  0  0  0  0
  185.8160  178.3660  143.7850 C   0  0  0  0  0  2  0  0  0  0  0  0
  184.5450  178.0750  141.7610 N   0  0  0  0  0  0  0  0  0  0  0  0
  185.9590  178.1720  141.4060 C   0  0  0  0  0  2  0  0  0  0  0  0
  186.6910  178.7140  142.6130 C   0  0  2  0  0  3  0  0  0  0  0  0
  183.7500  179.0140  140.9480 C   0  0  2  0  0  3  0  0  0  0  0  0
  181.2080  178.9270  141.1520 C   0  0  0  0  0  2  0  0  0  0  0  0
  179.2110  177.3950  139.2310 O   0  0  0  0  0  1  0  0  0  0  0  0
  180.1780  177.8150  141.3850 C   0  0  0  0  0  2  0  0  0  0  0  0
  180.0710  176.8600  140.1910 C   0  0  2  0  0  3  0  0  0  0  0  0
  182.4410  178.4190  140.3790 C   0  0  2  0  0  3  0  0  0  0  0  0
  181.4410  176.5880  139.5530 C   0  0  0  0  0  2  0  0  0  0  0  0
  182.4850  177.0130  140.3910 O   0  0  0  0  0  0  0  0  0  0  0  0
  184.5800  179.5490  139.8750 N   0  0  0  0  0  2  0  0  0  0  0  0
  185.0690  178.4360  138.0730 C   0  0  0  0  0  1  0  0  0  0  0  0
  184.0380  179.1290  138.7070 O   0  0  0  0  0  0  0  0  0  0  0  0
  188.8760  178.2590  137.7470 C   0  0  0  0  0  0  0  0  0  0  0  0
  188.8160  179.4480  137.3260 O   0  0  0  0  0  0  0  0  0  0  0  0
  187.7820  176.1260  137.2270 C   0  0  0  0  0  3  0  0  0  0  0  0
  188.5410  177.1450  136.8450 C   0  0  0  0  0  3  0  0  0  0  0  0
  187.4840  175.0320  136.2670 C   0  0  0  0  0  2  0  0  0  0  0  0
  186.9420  173.8920  136.9820 N   0  0  0  0  0  2  0  0  0  0  0  0
  186.9210  172.7850  136.0450 C   0  0  0  0  0  1  0  0  0  0  0  0
  1  8  1  0  0  0  0
  2  4  1  0  0  0  0
  3  7  2  0  0  0  0
  4  7  1  0  0  0  0
  5  1  2  0  0  0  0
  5 10  1  0  0  0  0
  6  2  1  0  0  0  0
  6  9  2  0  0  0  0
  7 12  1  0  0  0  0
  8  2  2  0  0  0  0
  9  3  1  0  0  0  0
 10  6  1  0  0  0  0
 11 15  1  0  0  0  0
 11 16  1  0  0  0  0
 12 14  2  0  0  0  0
 12 13  1  0  0  0  0
 13 15  2  0  0  0  0
 14 11  1  0  0  0  0
 17 18  1  0  0  0  0
 19 17  1  0  0  0  0
 20 19  1  0  0  0  0
 20 21  1  0  0  0  0
 21  9  1  1  0  0  0
 21 18  1  0  0  0  0
 22 30  1  6  0  0  0
 22 19  1  0  0  0  0
 23 25  1  0  0  0  0
 26 24  1  6  0  0  0
 26 25  1  0  0  0  0
 27 29  1  0  0  0  0
 27 22  1  1  0  0  0
 27 23  1  0  0  0  0
 28 26  1  0  0  0  0
 28 29  1  0  0  0  0
 31 32  1  0  0  0  0
 32 30  1  0  0  0  0
 33  5  1  0  0  0  0
 34 33  2  0  0  0  0
 36 35  2  0  0  0  0
 36 33  1  0  0  0  0
 37 38  1  0  0  0  0
 37 35  1  0  0  0  0
 39 38  1  0  0  0  0
M  END
>  <MODEL>
7

>  <REMARK>
 VINA RESULT:      -7.8      2.373      6.164
  Name = 
  10 active torsions:
  status: ('A' for Active; 'I' for Inactive)
    1  A    between atoms: N_7  and  C_10
    2  A    between atoms: C_8  and  C_17
    3  A    between atoms: C_8  and  C_28
    4  A    between atoms: C_9  and  C_10
    5  A    between atoms: N_12  and  O_20
    6  A    between atoms: N_12  and  C_24
    7  A    between atoms: C_18  and  C_24
    8  A    between atoms: N_21  and  C_24
    9  A    between atoms: C_22  and  C_27
   10  A    between atoms: C_33  and  C_36
                            x       y       z     vdW  Elec       q    Type
                         _______ _______ _______ _____ _____    ______ ____

>  <TORSDO>
F 10

$$$$
=
 OpenBabel11032420273D

 39 43  0  0  1  0  0  0  0  0999 V2000
  191.0400  177.4530  139.3910 C   0  0  0  0  0  3  0  0  0  0  0  0
  190.5780  177.3060  141.7840 C   0  0  0  0  0  0  0  0  0  0  0  0
  188.7880  177.3820  143.9290 C   0  0  0  0  0  3  0  0  0  0  0  0
  191.0000  177.1210  143.1040 O   0  0  0  0  0  0  0  0  0  0  0  0
  189.7620  177.6760  139.0480 C   0  0  0  0  0  0  0  0  0  0  0  0
  189.1470  177.5510  141.5110 C   0  0  0  0  0  0  0  0  0  0  0  0
  190.0870  177.1600  144.1680 C   0  0  0  0  0  0  0  0  0  0  0  0
  191.4600  177.2630  140.7890 C   0  0  0  0  0  3  0  0  0  0  0  0
  188.2890  177.5900  142.5480 C   0  0  0  0  0  0  0  0  0  0  0  0
  188.6690  177.7480  140.0910 C   0  0  0  0  0  2  0  0  0  0  0  0
  191.7520  176.3590  147.2720 N   0  0  0  0  0  0  0  0  0  0  0  0
  190.5680  176.9530  145.5410 C   0  0  0  0  0  0  0  0  0  0  0  0
  189.9350  177.3790  146.6950 C   0  0  0  0  0  3  0  0  0  0  0  0
  191.7260  176.3040  145.9310 C   0  0  0  0  0  3  0  0  0  0  0  0
  190.6920  176.9970  147.7420 N   0  0  0  0  0  0  0  0  0  0  0  0
  192.7950  175.8010  148.1110 C   0  0  0  0  0  1  0  0  0  0  0  0
  185.1900  179.4910  141.9150 C   0  0  0  0  0  2  0  0  0  0  0  0
  186.5610  179.0390  141.4630 C   0  0  0  0  0  2  0  0  0  0  0  0
  184.9960  179.0250  143.2910 N   0  0  0  0  0  0  0  0  0  0  0  0
  186.0680  178.0820  143.5980 C   0  0  0  0  0  2  0  0  0  0  0  0
  186.8260  177.8290  142.3140 C   0  0  2  0  0  3  0  0  0  0  0  0
  183.6820  178.3770  143.4660 C   0  0  2  0  0  3  0  0  0  0  0  0
  181.2440  179.1310  143.4600 C   0  0  0  0  0  2  0  0  0  0  0  0
  179.7270  180.5930  141.0970 O   0  0  0  0  0  1  0  0  0  0  0  0
  180.0020  178.7740  142.6350 C   0  0  0  0  0  2  0  0  0  0  0  0
  180.1090  179.2550  141.1830 C   0  0  2  0  0  3  0  0  0  0  0  0
  182.5410  179.0080  142.6350 C   0  0  2  0  0  3  0  0  0  0  0  0
  181.5330  179.0950  140.6320 C   0  0  0  0  0  2  0  0  0  0  0  0
  182.3090  178.2680  141.4620 O   0  0  0  0  0  0  0  0  0  0  0  0
  183.3360  178.3560  144.8820 N   0  0  0  0  0  2  0  0  0  0  0  0
  184.6510  178.5990  146.5960 C   0  0  0  0  0  1  0  0  0  0  0  0
  184.1220  179.2730  145.4960 O   0  0  0  0  0  0  0  0  0  0  0  0
  189.4080  177.8550  137.6250 C   0  0  0  0  0  0  0  0  0  0  0  0
  189.1590  179.0090  137.1740 O   0  0  0  0  0  0  0  0  0  0  0  0
  188.7450  175.5600  137.0730 C   0  0  0  0  0  3  0  0  0  0  0  0
  189.3480  176.6890  136.7290 C   0  0  0  0  0  3  0  0  0  0  0  0
  188.7220  174.4180  136.1220 C   0  0  0  0  0  2  0  0  0  0  0  0
  187.3720  174.2210  135.6300 N   0  0  0  0  0  2  0  0  0  0  0  0
  186.5530  173.8950  136.7820 C   0  0  0  0  0  1  0  0  0  0  0  0
  1  8  1  0  0  0  0
  2  4  1  0  0  0  0
  3  7  2  0  0  0  0
  4  7  1  0  0  0  0
  5  1  2  0  0  0  0
  5 10  1  0  0  0  0
  6  2  1  0  0  0  0
  6  9  2  0  0  0  0
  7 12  1  0  0  0  0
  8  2  2  0  0  0  0
  9  3  1  0  0  0  0
 10  6  1  0  0  0  0
 11 15  1  0  0  0  0
 11 16  1  0  0  0  0
 12 14  2  0  0  0  0
 12 13  1  0  0  0  0
 13 15  2  0  0  0  0
 14 11  1  0  0  0  0
 17 19  1  0  0  0  0
 18 17  1  0  0  0  0
 18 21  1  0  0  0  0
 19 22  1  0  0  0  0
 19 20  1  0  0  0  0
 21  9  1  1  0  0  0
 21 20  1  0  0  0  0
 22 30  1  1  0  0  0
 25 23  1  0  0  0  0
 26 24  1  1  0  0  0
 26 25  1  0  0  0  0
 27 23  1  0  0  0  0
 27 22  1  1  0  0  0
 28 26  1  0  0  0  0
 28 29  1  0  0  0  0
 29 27  1  0  0  0  0
 30 32  1  0  0  0  0
 32 31  1  0  0  0  0
 33  5  1  0  0  0  0
 34 33  2  0  0  0  0
 36 35  2  0  0  0  0
 36 33  1  0  0  0  0
 37 35  1  0  0  0  0
 38 37  1  0  0  0  0
 38 39  1  0  0  0  0
M  END
>  <MODEL>
8

>  <REMARK>
 VINA RESULT:      -7.7      2.394      6.852
  Name = 
  10 active torsions:
  status: ('A' for Active; 'I' for Inactive)
    1  A    between atoms: N_7  and  C_10
    2  A    between atoms: C_8  and  C_17
    3  A    between atoms: C_8  and  C_28
    4  A    between atoms: C_9  and  C_10
    5  A    between atoms: N_12  and  O_20
    6  A    between atoms: N_12  and  C_24
    7  A    between atoms: C_18  and  C_24
    8  A    between atoms: N_21  and  C_24
    9  A    between atoms: C_22  and  C_27
   10  A    between atoms: C_33  and  C_36
                            x       y       z     vdW  Elec       q    Type
                         _______ _______ _______ _____ _____    ______ ____

>  <TORSDO>
F 10

$$$$
=
 OpenBabel11032420273D

 39 43  0  0  1  0  0  0  0  0999 V2000
  189.3300  177.4520  139.1220 C   0  0  0  0  0  3  0  0  0  0  0  0
  189.1210  177.5010  141.5540 C   0  0  0  0  0  0  0  0  0  0  0  0
  187.6450  178.0570  143.8610 C   0  0  0  0  0  3  0  0  0  0  0  0
  189.6380  177.2740  142.8320 O   0  0  0  0  0  0  0  0  0  0  0  0
  188.1030  177.9450  138.8980 C   0  0  0  0  0  0  0  0  0  0  0  0
  187.7570  178.0520  141.4140 C   0  0  0  0  0  0  0  0  0  0  0  0
  188.8820  177.5560  143.9800 C   0  0  0  0  0  0  0  0  0  0  0  0
  189.8530  177.2230  140.4780 C   0  0  0  0  0  3  0  0  0  0  0  0
  187.0520  178.3220  142.5290 C   0  0  0  0  0  0  0  0  0  0  0  0
  187.1780  178.3000  140.0410 C   0  0  0  0  0  2  0  0  0  0  0  0
  190.8090  176.7450  146.9250 N   0  0  0  0  0  0  0  0  0  0  0  0
  189.4590  177.2960  145.3070 C   0  0  0  0  0  0  0  0  0  0  0  0
  188.8190  177.4830  146.5200 C   0  0  0  0  0  3  0  0  0  0  0  0
  190.7280  176.8250  145.5880 C   0  0  0  0  0  3  0  0  0  0  0  0
  189.6800  177.1340  147.4950 N   0  0  0  0  0  0  0  0  0  0  0  0
  191.9730  176.2960  147.6660 C   0  0  0  0  0  1  0  0  0  0  0  0
  183.8070  179.6440  143.6840 C   0  0  0  0  0  2  0  0  0  0  0  0
  185.3090  179.7770  143.5830 C   0  0  0  0  0  2  0  0  0  0  0  0
  183.4330  178.3400  143.1270 N   0  0  0  0  0  0  0  0  0  0  0  0
  184.6040  177.7940  142.4460 C   0  0  0  0  0  2  0  0  0  0  0  0
  185.6610  178.8760  142.4320 C   0  0  2  0  0  3  0  0  0  0  0  0
  182.3040  178.4550  142.1850 C   0  0  2  0  0  3  0  0  0  0  0  0
  182.6720  179.4110  139.8480 C   0  0  0  0  0  2  0  0  0  0  0  0
  183.6250  177.8160  137.2850 O   0  0  0  0  0  1  0  0  0  0  0  0
  182.0430  179.1750  138.4700 C   0  0  0  0  0  2  0  0  0  0  0  0
  182.3770  177.7880  137.9070 C   0  0  2  0  0  3  0  0  0  0  0  0
  182.6610  178.1360  140.7150 C   0  0  2  0  0  3  0  0  0  0  0  0
  182.3780  176.7120  139.0030 C   0  0  0  0  0  2  0  0  0  0  0  0
  181.7730  177.1860  140.1790 O   0  0  0  0  0  0  0  0  0  0  0  0
  181.7140  179.7840  142.2950 N   0  0  0  0  0  2  0  0  0  0  0  0
  179.6130  180.1950  141.9190 C   0  0  0  0  0  1  0  0  0  0  0  0
  180.4870  179.6290  142.8460 O   0  0  0  0  0  0  0  0  0  0  0  0
  187.6380  178.1470  137.5110 C   0  0  0  0  0  0  0  0  0  0  0  0
  187.5410  179.3150  137.0380 O   0  0  0  0  0  0  0  0  0  0  0  0
  186.6710  175.9200  137.1620 C   0  0  0  0  0  3  0  0  0  0  0  0
  187.2900  176.9870  136.6740 C   0  0  0  0  0  3  0  0  0  0  0  0
  186.3510  174.7810  136.2640 C   0  0  0  0  0  2  0  0  0  0  0  0
  185.9170  173.6450  137.0540 N   0  0  0  0  0  2  0  0  0  0  0  0
  184.5770  173.9480  137.5180 C   0  0  0  0  0  1  0  0  0  0  0  0
  1  8  1  0  0  0  0
  2  4  1  0  0  0  0
  3  7  2  0  0  0  0
  4  7  1  0  0  0  0
  5  1  2  0  0  0  0
  5 10  1  0  0  0  0
  6  2  1  0  0  0  0
  6  9  2  0  0  0  0
  7 12  1  0  0  0  0
  8  2  2  0  0  0  0
  9  3  1  0  0  0  0
 10  6  1  0  0  0  0
 11 15  1  0  0  0  0
 11 16  1  0  0  0  0
 12 14  2  0  0  0  0
 12 13  1  0  0  0  0
 13 15  2  0  0  0  0
 14 11  1  0  0  0  0
 18 17  1  0  0  0  0
 19 17  1  0  0  0  0
 20 19  1  0  0  0  0
 21 20  1  0  0  0  0
 21  9  1  1  0  0  0
 21 18  1  0  0  0  0
 22 30  1  6  0  0  0
 22 19  1  0  0  0  0
 23 27  1  0  0  0  0
 25 23  1  0  0  0  0
 26 24  1  1  0  0  0
 26 25  1  0  0  0  0
 26 28  1  0  0  0  0
 27 22  1  1  0  0  0
 28 29  1  0  0  0  0
 29 27  1  0  0  0  0
 30 32  1  0  0  0  0
 31 32  1  0  0  0  0
 33  5  1  0  0  0  0
 34 33  2  0  0  0  0
 36 35  2  0  0  0  0
 36 33  1  0  0  0  0
 37 38  1  0  0  0  0
 37 35  1  0  0  0  0
 38 39  1  0  0  0  0
M  END
>  <MODEL>
9

>  <REMARK>
 VINA RESULT:      -7.7      2.516      5.980
  Name = 
  10 active torsions:
  status: ('A' for Active; 'I' for Inactive)
    1  A    between atoms: N_7  and  C_10
    2  A    between atoms: C_8  and  C_17
    3  A    between atoms: C_8  and  C_28
    4  A    between atoms: C_9  and  C_10
    5  A    between atoms: N_12  and  O_20
    6  A    between atoms: N_12  and  C_24
    7  A    between atoms: C_18  and  C_24
    8  A    between atoms: N_21  and  C_24
    9  A    between atoms: C_22  and  C_27
   10  A    between atoms: C_33  and  C_36
                            x       y       z     vdW  Elec       q    Type
                         _______ _______ _______ _____ _____    ______ ____

>  <TORSDO>
F 10

$$$$
