=
 OpenBabel11032420013D

 46 51  0  0  1  0  0  0  0  0999 V2000
  184.6020  179.2560  146.1490 N   0  0  0  0  0  0  0  0  0  0  0  0
  185.6600  178.0670  144.3720 C   0  0  0  0  0  3  0  0  0  0  0  0
  184.6310  178.8940  144.8370 C   0  0  0  0  0  0  0  0  0  0  0  0
  186.6650  177.6470  145.2480 C   0  0  0  0  0  0  0  0  0  0  0  0
  185.5570  178.8470  147.0270 C   0  0  0  0  0  3  0  0  0  0  0  0
  186.6000  178.0300  146.5940 C   0  0  0  0  0  3  0  0  0  0  0  0
  187.7740  176.7790  144.7190 C   0  0  2  0  0  3  0  0  0  0  0  0
  189.7720  177.8600  143.6190 N   0  0  0  0  0  0  0  0  0  0  0  0
  188.7520  178.3940  142.7160 C   0  0  0  0  0  2  0  0  0  0  0  0
  189.1650  177.4290  144.8940 C   0  0  2  0  0  3  0  0  0  0  0  0
  187.8630  177.2620  142.2070 C   0  0  0  0  0  2  0  0  0  0  0  0
  187.5390  176.2390  143.2990 C   0  0  0  0  0  2  0  0  0  0  0  0
  192.3620  175.9490  146.4370 C   0  0  0  0  0  2  0  0  0  0  0  0
  191.9240  175.3950  147.7780 C   0  0  0  0  0  2  0  0  0  0  0  0
  190.2180  176.6530  147.0600 C   0  0  1  0  0  0  0  0  0  0  0  0
  191.3460  177.0090  146.1330 C   0  0  2  0  0  3  0  0  0  0  0  0
  189.6070  177.7670  147.6420 O   0  0  0  0  0  1  0  0  0  0  0  0
  190.0610  176.3860  145.5710 C   0  0  2  0  0  3  0  0  0  0  0  0
  190.5360  175.5750  147.9030 O   0  0  0  0  0  0  0  0  0  0  0  0
  190.6850  178.9590  143.9120 C   0  0  0  0  0  2  0  0  0  0  0  0
  192.0360  178.7480  143.2330 C   0  0  0  0  0  2  0  0  0  0  0  0
  192.0690  177.4530  142.4270 C   0  0  0  0  0  2  0  0  0  0  0  0
  193.0900  177.4070  140.4520 C   0  0  0  0  0  1  0  0  0  0  0  0
  191.8670  177.7060  141.0630 O   0  0  0  0  0  0  0  0  0  0  0  0
  183.4930  179.3180  143.9530 C   0  0  2  0  0  3  0  0  0  0  0  0
  182.3010  178.7000  144.3400 O   0  0  0  0  0  1  0  0  0  0  0  0
  183.7290  179.1740  142.4520 C   0  0  0  0  0  2  0  0  0  0  0  0
  182.5480  178.5310  141.7390 C   0  0  0  0  0  2  0  0  0  0  0  0
  184.1280  178.7810  139.4370 S   0  0  0  0  0  0  0  0  0  0  0  0
  182.5820  176.8330  139.8130 C   0  0  0  0  0  3  0  0  0  0  0  0
  184.0720  177.5520  138.2900 C   0  0  0  0  0  0  0  0  0  0  0  0
  184.8840  177.5160  137.1160 N   0  0  0  0  0  2  0  0  0  0  0  0
  183.1980  176.5760  138.6260 N   0  0  0  0  0  0  0  0  0  0  0  0
  182.9740  178.0310  140.4040 C   0  0  0  0  0  0  0  0  0  0  0  0
  184.7890  176.4200  136.1590 C   0  0  0  0  0  2  0  0  0  0  0  0
  186.1450  176.1640  135.5330 C   0  0  0  0  0  2  0  0  0  0  0  0
  187.1670  175.7670  136.5990 C   0  0  0  0  0  2  0  0  0  0  0  0
  188.4630  176.5880  136.5110 C   0  0  2  0  0  0  0  0  0  0  0  0
  189.0110  176.8500  137.9310 C   0  0  2  0  0  3  0  0  0  0  0  0
  188.2030  177.8220  135.8510 O   0  0  0  0  0  0  0  0  0  0  0  0
  188.2210  178.8570  136.8170 C   0  0  0  0  0  2  0  0  0  0  0  0
  189.3750  175.8550  135.7430 O   0  0  0  0  0  1  0  0  0  0  0  0
  188.8550  178.9060  139.1070 O   0  0  0  0  0  0  0  0  0  0  0  0
  188.7320  178.2770  138.0660 C   0  0  0  0  0  0  0  0  0  0  0  0
  190.7570  175.3510  138.6180 O   0  0  0  0  0  1  0  0  0  0  0  0
  190.5130  176.6200  138.0900 C   0  0  0  0  0  2  0  0  0  0  0  0
  1  5  1  0  0  0  0
  2  3  1  0  0  0  0
  2  4  2  0  0  0  0
  3  1  2  0  0  0  0
  4  6  1  0  0  0  0
  6  5  2  0  0  0  0
  7 10  1  0  0  0  0
  7  4  1  6  0  0  0
  8 20  1  0  0  0  0
  9  8  1  0  0  0  0
 10  8  1  6  0  0  0
 11  9  1  0  0  0  0
 11 12  1  0  0  0  0
 12  7  1  0  0  0  0
 13 14  1  0  0  0  0
 14 19  1  0  0  0  0
 15 17  1  1  0  0  0
 15 19  1  0  0  0  0
 16 13  1  1  0  0  0
 16 15  1  0  0  0  0
 18 10  1  6  0  0  0
 18 16  1  0  0  0  0
 18 15  1  0  0  0  0
 21 20  1  0  0  0  0
 22 21  1  0  0  0  0
 23 24  1  0  0  0  0
 24 22  1  0  0  0  0
 25 26  1  1  0  0  0
 25  3  1  0  0  0  0
 27 25  1  0  0  0  0
 28 27  1  0  0  0  0
 29 34  1  0  0  0  0
 30 34  2  0  0  0  0
 31 33  2  0  0  0  0
 31 29  1  0  0  0  0
 32 31  1  0  0  0  0
 33 30  1  0  0  0  0
 34 28  1  0  0  0  0
 35 32  1  0  0  0  0
 36 35  1  0  0  0  0
 36 37  1  0  0  0  0
 38 42  1  6  0  0  0
 38 37  1  0  0  0  0
 38 39  1  0  0  0  0
 39 44  1  0  0  0  0
 39 46  1  6  0  0  0
 40 38  1  0  0  0  0
 40 41  1  0  0  0  0
 41 44  1  0  0  0  0
 44 43  2  0  0  0  0
 46 45  1  0  0  0  0
M  END
>  <MODEL>
1

>  <REMARK>
 VINA RESULT:      -7.6      0.000      0.000
  Name = 
  15 active torsions:
  status: ('A' for Active; 'I' for Inactive)
    1  A    between atoms: C_1  and  C_39
    2  A    between atoms: N_2  and  C_25
    3  A    between atoms: C_9  and  C_23
    4  A    between atoms: C_11  and  C_34
    5  A    between atoms: C_12  and  C_21
    6  A    between atoms: C_12  and  C_40
    7  A    between atoms: C_16  and  C_29
    8  A    between atoms: O_17  and  C_41
    9  A    between atoms: N_18  and  C_33
   10  A    between atoms: C_23  and  C_32
   11  A    between atoms: C_25  and  C_42
   12  A    between atoms: C_32  and  C_33
   13  A    between atoms: C_35  and  C_40
   14  A    between atoms: C_35  and  C_45
   15  A    between atoms: C_41  and  C_42
                            x       y       z     vdW  Elec       q    Type
                         _______ _______ _______ _____ _____    ______ ____

>  <TORSDO>
F 15

$$$$
=
 OpenBabel11032420013D

 46 51  0  0  1  0  0  0  0  0999 V2000
  186.5020  178.6770  140.0080 N   0  0  0  0  0  0  0  0  0  0  0  0
  185.1000  178.3100  138.1130 C   0  0  0  0  0  3  0  0  0  0  0  0
  186.3700  178.3140  138.7020 C   0  0  0  0  0  0  0  0  0  0  0  0
  183.9780  178.6470  138.8750 C   0  0  0  0  0  0  0  0  0  0  0  0
  185.4290  179.0260  140.7670 C   0  0  0  0  0  3  0  0  0  0  0  0
  184.1500  179.0240  140.2120 C   0  0  0  0  0  3  0  0  0  0  0  0
  182.6210  178.6110  138.2250 C   0  0  2  0  0  3  0  0  0  0  0  0
  180.5800  178.1720  139.6430 N   0  0  0  0  0  0  0  0  0  0  0  0
  181.2900  176.9300  139.9500 C   0  0  0  0  0  2  0  0  0  0  0  0
  181.5160  179.1940  139.1340 C   0  0  2  0  0  3  0  0  0  0  0  0
  181.7320  176.2500  138.6570 C   0  0  0  0  0  2  0  0  0  0  0  0
  182.2410  177.2520  137.6170 C   0  0  0  0  0  2  0  0  0  0  0  0
  179.2770  182.2390  138.4210 C   0  0  0  0  0  2  0  0  0  0  0  0
  180.0610  183.0720  137.4260 C   0  0  0  0  0  2  0  0  0  0  0  0
  181.5030  181.5480  138.2060 C   0  0  1  0  0  0  0  0  0  0  0  0
  180.3270  181.4420  139.1350 C   0  0  2  0  0  3  0  0  0  0  0  0
  182.7220  181.7120  138.8700 O   0  0  0  0  0  1  0  0  0  0  0  0
  180.7540  180.2290  138.2990 C   0  0  2  0  0  3  0  0  0  0  0  0
  181.2470  182.3880  137.1090 O   0  0  0  0  0  0  0  0  0  0  0  0
  180.0340  178.6620  140.9040 C   0  0  0  0  0  2  0  0  0  0  0  0
  181.1300  178.8160  141.9550 C   0  0  0  0  0  2  0  0  0  0  0  0
  180.5810  178.6760  143.3720 C   0  0  0  0  0  2  0  0  0  0  0  0
  182.7690  179.0030  143.5920 C   0  0  0  0  0  1  0  0  0  0  0  0
  181.6190  178.6600  144.3130 O   0  0  0  0  0  0  0  0  0  0  0  0
  187.6130  178.0250  137.9110 C   0  0  2  0  0  3  0  0  0  0  0  0
  187.7650  176.6510  137.7030 O   0  0  0  0  0  1  0  0  0  0  0  0
  188.8990  178.6500  138.4440 C   0  0  0  0  0  2  0  0  0  0  0  0
  190.0710  177.6790  138.4130 C   0  0  0  0  0  2  0  0  0  0  0  0
  189.5270  176.6180  140.9500 S   0  0  0  0  0  0  0  0  0  0  0  0
  191.7880  177.5210  140.3170 C   0  0  0  0  0  3  0  0  0  0  0  0
  190.7790  176.5400  142.0710 C   0  0  0  0  0  0  0  0  0  0  0  0
  190.6580  175.9510  143.3660 N   0  0  0  0  0  2  0  0  0  0  0  0
  191.9300  177.0630  141.5920 N   0  0  0  0  0  0  0  0  0  0  0  0
  190.5040  177.3630  139.8010 C   0  0  0  0  0  0  0  0  0  0  0  0
  191.7830  175.9130  144.2930 C   0  0  0  0  0  2  0  0  0  0  0  0
  191.5260  176.8540  145.4520 C   0  0  0  0  0  2  0  0  0  0  0  0
  190.2010  176.5180  146.1380 C   0  0  0  0  0  2  0  0  0  0  0  0
  189.2080  177.6910  146.1130 C   0  0  2  0  0  0  0  0  0  0  0  0
  187.7970  177.1710  145.7610 C   0  0  2  0  0  3  0  0  0  0  0  0
  189.6290  178.6530  145.1530 O   0  0  0  0  0  0  0  0  0  0  0  0
  188.7680  178.5720  144.0320 C   0  0  0  0  0  2  0  0  0  0  0  0
  189.2270  178.2870  147.3790 O   0  0  0  0  0  1  0  0  0  0  0  0
  186.7340  177.4040  143.6510 O   0  0  0  0  0  0  0  0  0  0  0  0
  187.6490  177.6970  144.4060 C   0  0  0  0  0  0  0  0  0  0  0  0
  186.0920  178.8400  146.0280 O   0  0  0  0  0  1  0  0  0  0  0  0
  186.6730  177.7260  146.6350 C   0  0  0  0  0  2  0  0  0  0  0  0
  1  5  1  0  0  0  0
  2  3  1  0  0  0  0
  2  4  2  0  0  0  0
  3  1  2  0  0  0  0
  4  6  1  0  0  0  0
  6  5  2  0  0  0  0
  7  4  1  1  0  0  0
  7 10  1  0  0  0  0
  8  9  1  0  0  0  0
  8 20  1  0  0  0  0
 10  8  1  6  0  0  0
 11  9  1  0  0  0  0
 12  7  1  0  0  0  0
 12 11  1  0  0  0  0
 14 13  1  0  0  0  0
 15 18  1  0  0  0  0
 15 17  1  1  0  0  0
 15 16  1  0  0  0  0
 16 13  1  6  0  0  0
 18 10  1  1  0  0  0
 18 16  1  0  0  0  0
 19 14  1  0  0  0  0
 19 15  1  0  0  0  0
 20 21  1  0  0  0  0
 21 22  1  0  0  0  0
 22 24  1  0  0  0  0
 23 24  1  0  0  0  0
 25 26  1  1  0  0  0
 25 27  1  0  0  0  0
 25  3  1  0  0  0  0
 28 27  1  0  0  0  0
 28 34  1  0  0  0  0
 29 31  1  0  0  0  0
 30 33  1  0  0  0  0
 31 32  1  0  0  0  0
 32 35  1  0  0  0  0
 33 31  2  0  0  0  0
 34 30  2  0  0  0  0
 34 29  1  0  0  0  0
 35 36  1  0  0  0  0
 36 37  1  0  0  0  0
 38 37  1  0  0  0  0
 38 42  1  1  0  0  0
 39 38  1  0  0  0  0
 39 46  1  1  0  0  0
 40 38  1  0  0  0  0
 41 44  1  0  0  0  0
 41 40  1  0  0  0  0
 43 44  2  0  0  0  0
 44 39  1  0  0  0  0
 45 46  1  0  0  0  0
M  END
>  <MODEL>
2

>  <REMARK>
 VINA RESULT:      -7.3      3.071      9.874
  Name = 
  15 active torsions:
  status: ('A' for Active; 'I' for Inactive)
    1  A    between atoms: C_1  and  C_39
    2  A    between atoms: N_2  and  C_25
    3  A    between atoms: C_9  and  C_23
    4  A    between atoms: C_11  and  C_34
    5  A    between atoms: C_12  and  C_21
    6  A    between atoms: C_12  and  C_40
    7  A    between atoms: C_16  and  C_29
    8  A    between atoms: O_17  and  C_41
    9  A    between atoms: N_18  and  C_33
   10  A    between atoms: C_23  and  C_32
   11  A    between atoms: C_25  and  C_42
   12  A    between atoms: C_32  and  C_33
   13  A    between atoms: C_35  and  C_40
   14  A    between atoms: C_35  and  C_45
   15  A    between atoms: C_41  and  C_42
                            x       y       z     vdW  Elec       q    Type
                         _______ _______ _______ _____ _____    ______ ____

>  <TORSDO>
F 15

$$$$
=
 OpenBabel11032420013D

 46 51  0  0  1  0  0  0  0  0999 V2000
  182.4610  177.2860  138.8530 N   0  0  0  0  0  0  0  0  0  0  0  0
  184.6170  177.6870  137.9160 C   0  0  0  0  0  3  0  0  0  0  0  0
  183.6100  178.0160  138.8310 C   0  0  0  0  0  0  0  0  0  0  0  0
  184.4500  176.5970  137.0570 C   0  0  0  0  0  0  0  0  0  0  0  0
  182.2640  176.2330  138.0170 C   0  0  0  0  0  3  0  0  0  0  0  0
  183.2510  175.8740  137.1000 C   0  0  0  0  0  3  0  0  0  0  0  0
  185.5580  176.2490  136.1000 C   0  0  2  0  0  3  0  0  0  0  0  0
  187.9550  176.4170  136.8700 N   0  0  0  0  0  0  0  0  0  0  0  0
  187.5870  177.8140  137.1030 C   0  0  0  0  0  2  0  0  0  0  0  0
  186.7510  175.5650  136.8050 C   0  0  2  0  0  3  0  0  0  0  0  0
  186.9310  178.3950  135.8540 C   0  0  0  0  0  2  0  0  0  0  0  0
  185.9860  177.3990  135.1750 C   0  0  0  0  0  2  0  0  0  0  0  0
  188.3490  172.1490  136.0500 C   0  0  0  0  0  2  0  0  0  0  0  0
  187.1890  171.2580  135.6530 C   0  0  0  0  0  2  0  0  0  0  0  0
  186.2630  173.0980  136.5300 C   0  0  1  0  0  0  0  0  0  0  0  0
  187.7160  173.2140  136.8950 C   0  0  2  0  0  3  0  0  0  0  0  0
  185.4040  173.2460  137.6220 O   0  0  0  0  0  1  0  0  0  0  0  0
  187.0590  174.2880  136.0170 C   0  0  2  0  0  3  0  0  0  0  0  0
  186.0140  172.0290  135.6520 O   0  0  0  0  0  0  0  0  0  0  0  0
  188.7340  175.9920  138.0280 C   0  0  0  0  0  2  0  0  0  0  0  0
  190.2200  175.9020  137.6880 C   0  0  0  0  0  2  0  0  0  0  0  0
  191.0910  176.5030  138.7860 C   0  0  0  0  0  2  0  0  0  0  0  0
  190.4850  177.0290  140.8590 C   0  0  0  0  0  1  0  0  0  0  0  0
  190.3770  177.4530  139.5300 O   0  0  0  0  0  0  0  0  0  0  0  0
  183.7130  179.2150  139.7280 C   0  0  2  0  0  3  0  0  0  0  0  0
  184.3120  180.2890  139.0620 O   0  0  0  0  0  1  0  0  0  0  0  0
  184.3650  178.9740  141.0870 C   0  0  0  0  0  2  0  0  0  0  0  0
  183.3410  178.7240  142.1850 C   0  0  0  0  0  2  0  0  0  0  0  0
  185.6540  178.2510  143.6960 S   0  0  0  0  0  0  0  0  0  0  0  0
  183.4700  178.9330  144.7410 C   0  0  0  0  0  3  0  0  0  0  0  0
  185.5840  178.4820  145.3610 C   0  0  0  0  0  0  0  0  0  0  0  0
  186.7070  178.3550  146.2340 N   0  0  0  0  0  2  0  0  0  0  0  0
  184.3490  178.8440  145.7770 N   0  0  0  0  0  0  0  0  0  0  0  0
  184.0250  178.6240  143.5020 C   0  0  0  0  0  0  0  0  0  0  0  0
  186.5810  178.5700  147.6710 C   0  0  0  0  0  2  0  0  0  0  0  0
  187.7560  177.9410  148.3910 C   0  0  0  0  0  2  0  0  0  0  0  0
  189.0590  178.2080  147.6350 C   0  0  0  0  0  2  0  0  0  0  0  0
  189.5960  176.9560  146.9230 C   0  0  2  0  0  0  0  0  0  0  0  0
  191.0860  177.1570  146.5700 C   0  0  2  0  0  3  0  0  0  0  0  0
  188.8400  176.7170  145.7410 O   0  0  0  0  0  0  0  0  0  0  0  0
  189.6370  177.0650  144.6240 C   0  0  0  0  0  2  0  0  0  0  0  0
  189.4220  175.8710  147.7890 O   0  0  0  0  0  1  0  0  0  0  0  0
  191.9320  177.6460  144.4060 O   0  0  0  0  0  0  0  0  0  0  0  0
  190.9990  177.3070  145.1190 C   0  0  0  0  0  0  0  0  0  0  0  0
  192.7430  176.2260  148.0360 O   0  0  0  0  0  1  0  0  0  0  0  0
  191.9870  175.9660  146.8930 C   0  0  0  0  0  2  0  0  0  0  0  0
  2  3  2  0  0  0  0
  3  1  1  0  0  0  0
  3 25  1  0  0  0  0
  4  6  2  0  0  0  0
  4  2  1  0  0  0  0
  5  1  2  0  0  0  0
  6  5  1  0  0  0  0
  7 10  1  0  0  0  0
  7  4  1  1  0  0  0
  8  9  1  0  0  0  0
  8 20  1  0  0  0  0
 10  8  1  6  0  0  0
 11  9  1  0  0  0  0
 12 11  1  0  0  0  0
 12  7  1  0  0  0  0
 14 13  1  0  0  0  0
 15 16  1  0  0  0  0
 15 17  1  1  0  0  0
 16 13  1  6  0  0  0
 18 15  1  0  0  0  0
 18 10  1  1  0  0  0
 18 16  1  0  0  0  0
 19 14  1  0  0  0  0
 19 15  1  0  0  0  0
 21 20  1  0  0  0  0
 21 22  1  0  0  0  0
 22 24  1  0  0  0  0
 24 23  1  0  0  0  0
 25 26  1  6  0  0  0
 25 27  1  0  0  0  0
 27 28  1  0  0  0  0
 28 34  1  0  0  0  0
 29 31  1  0  0  0  0
 30 33  1  0  0  0  0
 31 33  2  0  0  0  0
 31 32  1  0  0  0  0
 32 35  1  0  0  0  0
 34 29  1  0  0  0  0
 34 30  2  0  0  0  0
 35 36  1  0  0  0  0
 37 36  1  0  0  0  0
 38 37  1  0  0  0  0
 38 42  1  1  0  0  0
 39 46  1  6  0  0  0
 39 38  1  0  0  0  0
 40 38  1  0  0  0  0
 41 44  1  0  0  0  0
 41 40  1  0  0  0  0
 43 44  2  0  0  0  0
 44 39  1  0  0  0  0
 46 45  1  0  0  0  0
M  END
>  <MODEL>
3

>  <REMARK>
 VINA RESULT:      -7.2      2.278      8.618
  Name = 
  15 active torsions:
  status: ('A' for Active; 'I' for Inactive)
    1  A    between atoms: C_1  and  C_39
    2  A    between atoms: N_2  and  C_25
    3  A    between atoms: C_9  and  C_23
    4  A    between atoms: C_11  and  C_34
    5  A    between atoms: C_12  and  C_21
    6  A    between atoms: C_12  and  C_40
    7  A    between atoms: C_16  and  C_29
    8  A    between atoms: O_17  and  C_41
    9  A    between atoms: N_18  and  C_33
   10  A    between atoms: C_23  and  C_32
   11  A    between atoms: C_25  and  C_42
   12  A    between atoms: C_32  and  C_33
   13  A    between atoms: C_35  and  C_40
   14  A    between atoms: C_35  and  C_45
   15  A    between atoms: C_41  and  C_42
                            x       y       z     vdW  Elec       q    Type
                         _______ _______ _______ _____ _____    ______ ____

>  <TORSDO>
F 15

$$$$
=
 OpenBabel11032420013D

 46 51  0  0  1  0  0  0  0  0999 V2000
  185.4370  179.1430  142.7050 N   0  0  0  0  0  0  0  0  0  0  0  0
  183.2310  178.2430  142.8250 C   0  0  0  0  0  3  0  0  0  0  0  0
  184.4140  178.6470  143.4550 C   0  0  0  0  0  0  0  0  0  0  0  0
  183.0970  178.3800  141.4400 C   0  0  0  0  0  0  0  0  0  0  0  0
  185.3400  179.2700  141.3550 C   0  0  0  0  0  3  0  0  0  0  0  0
  184.1720  178.8850  140.6990 C   0  0  0  0  0  3  0  0  0  0  0  0
  181.8060  177.9620  140.7910 C   0  0  2  0  0  3  0  0  0  0  0  0
  180.7510  179.4610  139.0570 N   0  0  0  0  0  0  0  0  0  0  0  0
  180.7490  180.4230  140.1600 C   0  0  0  0  0  2  0  0  0  0  0  0
  181.7290  178.3840  139.3070 C   0  0  2  0  0  3  0  0  0  0  0  0
  180.1240  179.7910  141.4010 C   0  0  0  0  0  2  0  0  0  0  0  0
  180.5430  178.3300  141.5850 C   0  0  0  0  0  2  0  0  0  0  0  0
  181.1000  176.1980  136.2060 C   0  0  0  0  0  2  0  0  0  0  0  0
  181.8610  174.9150  136.4760 C   0  0  0  0  0  2  0  0  0  0  0  0
  182.5650  176.3700  138.0230 C   0  0  1  0  0  0  0  0  0  0  0  0
  181.8030  177.2210  137.0460 C   0  0  2  0  0  3  0  0  0  0  0  0
  183.8490  176.8530  138.2940 O   0  0  0  0  0  1  0  0  0  0  0  0
  181.3430  177.1350  138.5080 C   0  0  2  0  0  3  0  0  0  0  0  0
  182.4340  174.9970  137.7560 O   0  0  0  0  0  0  0  0  0  0  0  0
  181.1870  180.1880  137.8700 C   0  0  0  0  0  2  0  0  0  0  0  0
  180.3200  181.4220  137.6320 C   0  0  0  0  0  2  0  0  0  0  0  0
  180.9330  182.3540  136.5910 C   0  0  0  0  0  2  0  0  0  0  0  0
  181.1950  184.5430  136.8790 C   0  0  0  0  0  1  0  0  0  0  0  0
  180.2440  183.5740  136.5420 O   0  0  0  0  0  0  0  0  0  0  0  0
  184.6330  178.4600  144.9280 C   0  0  2  0  0  3  0  0  0  0  0  0
  183.6660  179.1460  145.6690 O   0  0  0  0  0  1  0  0  0  0  0  0
  186.0400  178.7670  145.4350 C   0  0  0  0  0  2  0  0  0  0  0  0
  186.8680  177.5080  145.6460 C   0  0  0  0  0  2  0  0  0  0  0  0
  187.9440  176.3420  143.3350 S   0  0  0  0  0  0  0  0  0  0  0  0
  189.0210  178.2990  144.4920 C   0  0  0  0  0  3  0  0  0  0  0  0
  189.3380  177.0150  142.6740 C   0  0  0  0  0  0  0  0  0  0  0  0
  189.9410  176.5700  141.4580 N   0  0  0  0  0  2  0  0  0  0  0  0
  189.8020  178.0550  143.4030 N   0  0  0  0  0  0  0  0  0  0  0  0
  187.9410  177.4300  144.6180 C   0  0  0  0  0  0  0  0  0  0  0  0
  191.1500  177.1970  140.9360 C   0  0  0  0  0  2  0  0  0  0  0  0
  191.0230  177.3930  139.4390 C   0  0  0  0  0  2  0  0  0  0  0  0
  190.3490  176.1820  138.7900 C   0  0  0  0  0  2  0  0  0  0  0  0
  189.5260  176.5590  137.5490 C   0  0  2  0  0  0  0  0  0  0  0  0
  188.0200  176.5180  137.8900 C   0  0  2  0  0  3  0  0  0  0  0  0
  189.8140  175.6530  136.4910 O   0  0  0  0  0  0  0  0  0  0  0  0
  188.7040  174.7880  136.3290 C   0  0  0  0  0  2  0  0  0  0  0  0
  189.9210  177.8430  137.1550 O   0  0  0  0  0  1  0  0  0  0  0  0
  186.5140  174.7970  137.2520 O   0  0  0  0  0  0  0  0  0  0  0  0
  187.6130  175.3230  137.1540 C   0  0  0  0  0  0  0  0  0  0  0  0
  187.1600  178.7100  138.3570 O   0  0  0  0  0  1  0  0  0  0  0  0
  187.2150  177.7130  137.3820 C   0  0  0  0  0  2  0  0  0  0  0  0
  1  3  1  0  0  0  0
  2  3  2  0  0  0  0
  3 25  1  0  0  0  0
  4  2  1  0  0  0  0
  5  1  2  0  0  0  0
  6  5  1  0  0  0  0
  6  4  2  0  0  0  0
  7  4  1  1  0  0  0
  7 12  1  0  0  0  0
  8  9  1  0  0  0  0
  9 11  1  0  0  0  0
 10  8  1  1  0  0  0
 10  7  1  0  0  0  0
 11 12  1  0  0  0  0
 13 14  1  0  0  0  0
 14 19  1  0  0  0  0
 15 17  1  1  0  0  0
 15 18  1  0  0  0  0
 16 13  1  6  0  0  0
 16 15  1  0  0  0  0
 16 18  1  0  0  0  0
 18 10  1  1  0  0  0
 19 15  1  0  0  0  0
 20  8  1  0  0  0  0
 21 20  1  0  0  0  0
 22 21  1  0  0  0  0
 24 22  1  0  0  0  0
 24 23  1  0  0  0  0
 25 27  1  0  0  0  0
 25 26  1  1  0  0  0
 27 28  1  0  0  0  0
 29 34  1  0  0  0  0
 30 34  2  0  0  0  0
 31 29  1  0  0  0  0
 31 33  2  0  0  0  0
 32 31  1  0  0  0  0
 33 30  1  0  0  0  0
 34 28  1  0  0  0  0
 35 32  1  0  0  0  0
 36 35  1  0  0  0  0
 37 36  1  0  0  0  0
 38 42  1  6  0  0  0
 38 39  1  0  0  0  0
 38 37  1  0  0  0  0
 39 46  1  6  0  0  0
 40 38  1  0  0  0  0
 41 40  1  0  0  0  0
 41 44  1  0  0  0  0
 44 43  2  0  0  0  0
 44 39  1  0  0  0  0
 46 45  1  0  0  0  0
M  END
>  <MODEL>
4

>  <REMARK>
 VINA RESULT:      -7.1      3.233      8.378
  Name = 
  15 active torsions:
  status: ('A' for Active; 'I' for Inactive)
    1  A    between atoms: C_1  and  C_39
    2  A    between atoms: N_2  and  C_25
    3  A    between atoms: C_9  and  C_23
    4  A    between atoms: C_11  and  C_34
    5  A    between atoms: C_12  and  C_21
    6  A    between atoms: C_12  and  C_40
    7  A    between atoms: C_16  and  C_29
    8  A    between atoms: O_17  and  C_41
    9  A    between atoms: N_18  and  C_33
   10  A    between atoms: C_23  and  C_32
   11  A    between atoms: C_25  and  C_42
   12  A    between atoms: C_32  and  C_33
   13  A    between atoms: C_35  and  C_40
   14  A    between atoms: C_35  and  C_45
   15  A    between atoms: C_41  and  C_42
                            x       y       z     vdW  Elec       q    Type
                         _______ _______ _______ _____ _____    ______ ____

>  <TORSDO>
F 15

$$$$
=
 OpenBabel11032420013D

 46 51  0  0  1  0  0  0  0  0999 V2000
  186.3570  178.5110  139.4360 N   0  0  0  0  0  0  0  0  0  0  0  0
  185.6270  177.3280  137.4980 C   0  0  0  0  0  3  0  0  0  0  0  0
  185.3380  178.0700  138.6490 C   0  0  0  0  0  0  0  0  0  0  0  0
  186.9570  177.0740  137.1500 C   0  0  0  0  0  0  0  0  0  0  0  0
  187.6580  178.2630  139.1310 C   0  0  0  0  0  3  0  0  0  0  0  0
  187.9810  177.5350  137.9870 C   0  0  0  0  0  3  0  0  0  0  0  0
  187.2430  176.2950  135.8940 C   0  0  2  0  0  3  0  0  0  0  0  0
  189.4360  175.0660  135.6720 N   0  0  0  0  0  0  0  0  0  0  0  0
  189.9920  176.4070  135.8570 C   0  0  0  0  0  2  0  0  0  0  0  0
  188.0470  175.0050  136.1700 C   0  0  2  0  0  3  0  0  0  0  0  0
  189.3300  177.3840  134.8890 C   0  0  0  0  0  2  0  0  0  0  0  0
  187.8270  177.1310  134.7440 C   0  0  0  0  0  2  0  0  0  0  0  0
  187.0650  171.3750  135.3670 C   0  0  0  0  0  2  0  0  0  0  0  0
  185.5520  171.3530  135.4630 C   0  0  0  0  0  2  0  0  0  0  0  0
  186.1840  173.3040  136.3590 C   0  0  1  0  0  0  0  0  0  0  0  0
  187.4670  172.5300  136.2340 C   0  0  2  0  0  3  0  0  0  0  0  0
  185.9730  173.8230  137.6390 O   0  0  0  0  0  1  0  0  0  0  0  0
  187.2980  173.8580  135.4840 C   0  0  2  0  0  3  0  0  0  0  0  0
  185.1040  172.6550  135.7370 O   0  0  0  0  0  0  0  0  0  0  0  0
  190.2390  174.1650  136.4900 C   0  0  0  0  0  2  0  0  0  0  0  0
  191.0850  174.9410  137.4950 C   0  0  0  0  0  2  0  0  0  0  0  0
  192.5410  174.4870  137.4820 C   0  0  0  0  0  2  0  0  0  0  0  0
  192.8430  176.5120  138.3490 C   0  0  0  0  0  1  0  0  0  0  0  0
  193.4100  175.5870  137.4650 O   0  0  0  0  0  0  0  0  0  0  0  0
  183.9270  178.3130  139.1020 C   0  0  2  0  0  3  0  0  0  0  0  0
  183.1310  178.7600  138.0430 O   0  0  0  0  0  1  0  0  0  0  0  0
  183.7680  179.2070  140.3290 C   0  0  0  0  0  2  0  0  0  0  0  0
  182.8430  178.5980  141.3730 C   0  0  0  0  0  2  0  0  0  0  0  0
  185.1640  178.3120  142.9190 S   0  0  0  0  0  0  0  0  0  0  0  0
  182.9330  178.8940  143.9230 C   0  0  0  0  0  3  0  0  0  0  0  0
  185.0630  178.5910  144.5750 C   0  0  0  0  0  0  0  0  0  0  0  0
  186.1820  178.5590  145.4610 N   0  0  0  0  0  2  0  0  0  0  0  0
  183.8050  178.8910  144.9690 N   0  0  0  0  0  0  0  0  0  0  0  0
  183.5180  178.5810  142.6990 C   0  0  0  0  0  0  0  0  0  0  0  0
  186.0290  178.8110  146.8890 C   0  0  0  0  0  2  0  0  0  0  0  0
  187.1480  178.1350  147.6540 C   0  0  0  0  0  2  0  0  0  0  0  0
  188.4990  178.4090  146.9910 C   0  0  0  0  0  2  0  0  0  0  0  0
  189.1960  177.1240  146.5170 C   0  0  2  0  0  0  0  0  0  0  0  0
  190.6990  177.4000  146.2920 C   0  0  2  0  0  3  0  0  0  0  0  0
  188.5940  176.6710  145.3100 O   0  0  0  0  0  0  0  0  0  0  0  0
  189.4850  176.9350  144.2410 C   0  0  0  0  0  2  0  0  0  0  0  0
  189.0010  176.1510  147.5040 O   0  0  0  0  0  1  0  0  0  0  0  0
  191.7440  177.6700  144.1780 O   0  0  0  0  0  0  0  0  0  0  0  0
  190.7640  177.3510  144.8330 C   0  0  0  0  0  0  0  0  0  0  0  0
  192.2410  176.8080  148.0340 O   0  0  0  0  0  1  0  0  0  0  0  0
  191.6380  176.3400  146.8670 C   0  0  0  0  0  2  0  0  0  0  0  0
  2  3  1  0  0  0  0
  3 25  1  0  0  0  0
  3  1  2  0  0  0  0
  4  2  2  0  0  0  0
  4  6  1  0  0  0  0
  5  1  1  0  0  0  0
  6  5  2  0  0  0  0
  7 10  1  0  0  0  0
  7  4  1  1  0  0  0
  8  9  1  0  0  0  0
  8 20  1  0  0  0  0
 10  8  1  6  0  0  0
 11  9  1  0  0  0  0
 12 11  1  0  0  0  0
 12  7  1  0  0  0  0
 13 14  1  0  0  0  0
 14 19  1  0  0  0  0
 15 17  1  1  0  0  0
 16 13  1  6  0  0  0
 16 15  1  0  0  0  0
 18 10  1  1  0  0  0
 18 16  1  0  0  0  0
 18 15  1  0  0  0  0
 19 15  1  0  0  0  0
 20 21  1  0  0  0  0
 22 21  1  0  0  0  0
 24 22  1  0  0  0  0
 24 23  1  0  0  0  0
 25 26  1  6  0  0  0
 25 27  1  0  0  0  0
 27 28  1  0  0  0  0
 28 34  1  0  0  0  0
 29 31  1  0  0  0  0
 30 33  1  0  0  0  0
 31 33  2  0  0  0  0
 31 32  1  0  0  0  0
 32 35  1  0  0  0  0
 34 29  1  0  0  0  0
 34 30  2  0  0  0  0
 35 36  1  0  0  0  0
 37 36  1  0  0  0  0
 38 37  1  0  0  0  0
 38 42  1  1  0  0  0
 39 38  1  0  0  0  0
 39 46  1  1  0  0  0
 40 38  1  0  0  0  0
 41 44  1  0  0  0  0
 41 40  1  0  0  0  0
 43 44  2  0  0  0  0
 44 39  1  0  0  0  0
 46 45  1  0  0  0  0
M  END
>  <MODEL>
5

>  <REMARK>
 VINA RESULT:      -7.0      2.561      8.615
  Name = 
  15 active torsions:
  status: ('A' for Active; 'I' for Inactive)
    1  A    between atoms: C_1  and  C_39
    2  A    between atoms: N_2  and  C_25
    3  A    between atoms: C_9  and  C_23
    4  A    between atoms: C_11  and  C_34
    5  A    between atoms: C_12  and  C_21
    6  A    between atoms: C_12  and  C_40
    7  A    between atoms: C_16  and  C_29
    8  A    between atoms: O_17  and  C_41
    9  A    between atoms: N_18  and  C_33
   10  A    between atoms: C_23  and  C_32
   11  A    between atoms: C_25  and  C_42
   12  A    between atoms: C_32  and  C_33
   13  A    between atoms: C_35  and  C_40
   14  A    between atoms: C_35  and  C_45
   15  A    between atoms: C_41  and  C_42
                            x       y       z     vdW  Elec       q    Type
                         _______ _______ _______ _____ _____    ______ ____

>  <TORSDO>
F 15

$$$$
=
 OpenBabel11032420013D

 46 51  0  0  1  0  0  0  0  0999 V2000
  187.3680  178.3200  139.8790 N   0  0  0  0  0  0  0  0  0  0  0  0
  186.0510  177.8090  137.9570 C   0  0  0  0  0  3  0  0  0  0  0  0
  186.1770  178.3910  139.2240 C   0  0  0  0  0  0  0  0  0  0  0  0
  187.1540  177.1880  137.3630 C   0  0  0  0  0  0  0  0  0  0  0  0
  188.4510  177.7060  139.3330 C   0  0  0  0  0  3  0  0  0  0  0  0
  188.3620  177.1250  138.0690 C   0  0  0  0  0  3  0  0  0  0  0  0
  187.0000  176.5920  135.9900 C   0  0  2  0  0  3  0  0  0  0  0  0
  188.8530  175.1610  135.0470 N   0  0  0  0  0  0  0  0  0  0  0  0
  189.6400  176.3790  135.2440 C   0  0  0  0  0  2  0  0  0  0  0  0
  187.6350  175.1880  135.8830 C   0  0  2  0  0  3  0  0  0  0  0  0
  188.9240  177.5700  134.6140 C   0  0  0  0  0  2  0  0  0  0  0  0
  187.4100  177.5260  134.8400 C   0  0  0  0  0  2  0  0  0  0  0  0
  185.9560  171.8770  134.8800 C   0  0  0  0  0  2  0  0  0  0  0  0
  184.5370  171.9890  135.4000 C   0  0  0  0  0  2  0  0  0  0  0  0
  185.6620  173.6750  136.3490 C   0  0  1  0  0  0  0  0  0  0  0  0
  186.7380  172.8120  135.7520 C   0  0  2  0  0  3  0  0  0  0  0  0
  185.8760  173.9740  137.6970 O   0  0  0  0  0  1  0  0  0  0  0  0
  186.5720  174.2630  135.2820 C   0  0  2  0  0  3  0  0  0  0  0  0
  184.3720  173.2600  135.9760 O   0  0  0  0  0  0  0  0  0  0  0  0
  189.6800  174.0510  135.5070 C   0  0  0  0  0  2  0  0  0  0  0  0
  191.1310  174.4860  135.6910 C   0  0  0  0  0  2  0  0  0  0  0  0
  191.5800  174.3610  137.1440 C   0  0  0  0  0  2  0  0  0  0  0  0
  193.4340  174.8610  136.0230 C   0  0  0  0  0  1  0  0  0  0  0  0
  192.8850  174.8480  137.3100 O   0  0  0  0  0  0  0  0  0  0  0  0
  185.0070  179.0100  139.9320 C   0  0  2  0  0  3  0  0  0  0  0  0
  184.5060  180.1000  139.2140 O   0  0  0  0  0  1  0  0  0  0  0  0
  185.2320  179.3700  141.3980 C   0  0  0  0  0  2  0  0  0  0  0  0
  184.5690  178.3810  142.3460 C   0  0  0  0  0  2  0  0  0  0  0  0
  185.1430  178.9130  145.0380 S   0  0  0  0  0  0  0  0  0  0  0  0
  186.4870  177.2920  143.6620 C   0  0  0  0  0  3  0  0  0  0  0  0
  186.4060  178.0750  145.7680 C   0  0  0  0  0  0  0  0  0  0  0  0
  186.7500  178.1910  147.1490 N   0  0  0  0  0  2  0  0  0  0  0  0
  187.0360  177.2440  144.9070 N   0  0  0  0  0  0  0  0  0  0  0  0
  185.4230  178.1820  143.5480 C   0  0  0  0  0  0  0  0  0  0  0  0
  187.8570  177.4350  147.7230 C   0  0  0  0  0  2  0  0  0  0  0  0
  189.1460  177.7900  147.0110 C   0  0  0  0  0  2  0  0  0  0  0  0
  189.8580  176.5280  146.5200 C   0  0  0  0  0  2  0  0  0  0  0  0
  191.0530  176.8420  145.6070 C   0  0  2  0  0  0  0  0  0  0  0  0
  190.6190  177.8310  144.5020 C   0  0  2  0  0  3  0  0  0  0  0  0
  191.5390  175.6390  145.0240 O   0  0  0  0  0  0  0  0  0  0  0  0
  191.1610  175.6190  143.6590 C   0  0  0  0  0  2  0  0  0  0  0  0
  192.0630  177.3880  146.4070 O   0  0  0  0  0  1  0  0  0  0  0  0
  190.1950  177.2610  142.2370 O   0  0  0  0  0  0  0  0  0  0  0  0
  190.6280  176.9500  143.3370 C   0  0  0  0  0  0  0  0  0  0  0  0
  190.9070  180.0950  143.7560 O   0  0  0  0  0  1  0  0  0  0  0  0
  191.5890  178.9860  144.2590 C   0  0  0  0  0  2  0  0  0  0  0  0
  2  3  1  0  0  0  0
  3  1  2  0  0  0  0
  3 25  1  0  0  0  0
  4  2  2  0  0  0  0
  4  6  1  0  0  0  0
  5  1  1  0  0  0  0
  6  5  2  0  0  0  0
  7  4  1  1  0  0  0
  8  9  1  0  0  0  0
  8 20  1  0  0  0  0
 10  8  1  6  0  0  0
 10  7  1  0  0  0  0
 11 12  1  0  0  0  0
 11  9  1  0  0  0  0
 12  7  1  0  0  0  0
 13 14  1  0  0  0  0
 14 19  1  0  0  0  0
 15 17  1  1  0  0  0
 16 13  1  6  0  0  0
 16 15  1  0  0  0  0
 18 16  1  0  0  0  0
 18 10  1  1  0  0  0
 18 15  1  0  0  0  0
 19 15  1  0  0  0  0
 20 21  1  0  0  0  0
 21 22  1  0  0  0  0
 22 24  1  0  0  0  0
 23 24  1  0  0  0  0
 25 26  1  6  0  0  0
 25 27  1  0  0  0  0
 27 28  1  0  0  0  0
 28 34  1  0  0  0  0
 29 31  1  0  0  0  0
 30 33  1  0  0  0  0
 31 32  1  0  0  0  0
 32 35  1  0  0  0  0
 33 31  2  0  0  0  0
 34 30  2  0  0  0  0
 34 29  1  0  0  0  0
 36 35  1  0  0  0  0
 37 36  1  0  0  0  0
 38 42  1  1  0  0  0
 38 37  1  0  0  0  0
 39 46  1  6  0  0  0
 39 38  1  0  0  0  0
 40 38  1  0  0  0  0
 41 40  1  0  0  0  0
 43 44  2  0  0  0  0
 44 41  1  0  0  0  0
 44 39  1  0  0  0  0
 45 46  1  0  0  0  0
M  END
>  <MODEL>
6

>  <REMARK>
 VINA RESULT:      -6.8      2.812      8.706
  Name = 
  15 active torsions:
  status: ('A' for Active; 'I' for Inactive)
    1  A    between atoms: C_1  and  C_39
    2  A    between atoms: N_2  and  C_25
    3  A    between atoms: C_9  and  C_23
    4  A    between atoms: C_11  and  C_34
    5  A    between atoms: C_12  and  C_21
    6  A    between atoms: C_12  and  C_40
    7  A    between atoms: C_16  and  C_29
    8  A    between atoms: O_17  and  C_41
    9  A    between atoms: N_18  and  C_33
   10  A    between atoms: C_23  and  C_32
   11  A    between atoms: C_25  and  C_42
   12  A    between atoms: C_32  and  C_33
   13  A    between atoms: C_35  and  C_40
   14  A    between atoms: C_35  and  C_45
   15  A    between atoms: C_41  and  C_42
                            x       y       z     vdW  Elec       q    Type
                         _______ _______ _______ _____ _____    ______ ____

>  <TORSDO>
F 15

$$$$
=
 OpenBabel11032420013D

 46 51  0  0  1  0  0  0  0  0999 V2000
  185.3600  179.0510  142.6460 N   0  0  0  0  0  0  0  0  0  0  0  0
  183.0980  178.3190  142.8420 C   0  0  0  0  0  3  0  0  0  0  0  0
  184.3310  178.6250  143.4300 C   0  0  0  0  0  0  0  0  0  0  0  0
  182.9230  178.4840  141.4650 C   0  0  0  0  0  0  0  0  0  0  0  0
  185.2220  179.2030  141.3020 C   0  0  0  0  0  3  0  0  0  0  0  0
  184.0040  178.9160  140.6880 C   0  0  0  0  0  3  0  0  0  0  0  0
  181.5800  178.1740  140.8620 C   0  0  2  0  0  3  0  0  0  0  0  0
  180.6730  179.6550  139.0310 N   0  0  0  0  0  0  0  0  0  0  0  0
  180.8040  180.6880  140.0580 C   0  0  0  0  0  2  0  0  0  0  0  0
  181.5250  178.4920  139.3510 C   0  0  2  0  0  3  0  0  0  0  0  0
  180.1330  180.2280  141.3490 C   0  0  0  0  0  2  0  0  0  0  0  0
  180.3830  178.7450  141.6390 C   0  0  0  0  0  2  0  0  0  0  0  0
  180.8640  176.0280  136.4730 C   0  0  0  0  0  2  0  0  0  0  0  0
  181.2620  174.6730  137.0240 C   0  0  0  0  0  2  0  0  0  0  0  0
  182.0510  176.1740  138.4850 C   0  0  1  0  0  0  0  0  0  0  0  0
  181.6550  177.0010  137.2950 C   0  0  2  0  0  3  0  0  0  0  0  0
  183.3580  176.4160  138.9170 O   0  0  0  0  0  1  0  0  0  0  0  0
  180.9810  177.2410  138.6520 C   0  0  2  0  0  3  0  0  0  0  0  0
  181.6480  174.8330  138.3650 O   0  0  0  0  0  0  0  0  0  0  0  0
  181.1680  180.2370  137.7880 C   0  0  0  0  0  2  0  0  0  0  0  0
  181.3740  181.7420  137.9300 C   0  0  0  0  0  2  0  0  0  0  0  0
  180.5650  182.5250  136.9010 C   0  0  0  0  0  2  0  0  0  0  0  0
  180.8370  184.5790  136.0940 C   0  0  0  0  0  1  0  0  0  0  0  0
  180.4810  183.8800  137.2520 O   0  0  0  0  0  0  0  0  0  0  0  0
  184.5910  178.4020  144.8920 C   0  0  2  0  0  3  0  0  0  0  0  0
  183.6570  179.0860  145.6760 O   0  0  0  0  0  1  0  0  0  0  0  0
  186.0160  178.6770  145.3630 C   0  0  0  0  0  2  0  0  0  0  0  0
  186.8250  177.3990  145.5370 C   0  0  0  0  0  2  0  0  0  0  0  0
  187.9640  176.6240  143.0960 S   0  0  0  0  0  0  0  0  0  0  0  0
  189.1610  178.1070  144.7380 C   0  0  0  0  0  3  0  0  0  0  0  0
  189.4870  177.2170  142.6980 C   0  0  0  0  0  0  0  0  0  0  0  0
  190.1440  176.9660  141.4550 N   0  0  0  0  0  2  0  0  0  0  0  0
  190.0060  177.9960  143.6750 N   0  0  0  0  0  0  0  0  0  0  0  0
  187.9740  177.3940  144.5910 C   0  0  0  0  0  0  0  0  0  0  0  0
  191.4660  177.5110  141.1700 C   0  0  0  0  0  2  0  0  0  0  0  0
  191.8920  177.1210  139.7700 C   0  0  0  0  0  2  0  0  0  0  0  0
  190.8150  176.2710  139.0930 C   0  0  0  0  0  2  0  0  0  0  0  0
  191.3540  175.4790  137.8930 C   0  0  2  0  0  0  0  0  0  0  0  0
  192.8990  175.4790  137.9210 C   0  0  2  0  0  3  0  0  0  0  0  0
  190.8870  176.0640  136.6840 O   0  0  0  0  0  0  0  0  0  0  0  0
  191.9680  176.7400  136.0680 C   0  0  0  0  0  2  0  0  0  0  0  0
  190.8460  174.1780  137.9830 O   0  0  0  0  0  1  0  0  0  0  0  0
  194.2990  176.7970  136.5290 O   0  0  0  0  0  0  0  0  0  0  0  0
  193.1870  176.3680  136.7980 C   0  0  0  0  0  0  0  0  0  0  0  0
  194.8400  174.0880  138.1740 O   0  0  0  0  0  1  0  0  0  0  0  0
  193.5440  174.1190  137.6560 C   0  0  0  0  0  2  0  0  0  0  0  0
  1  3  1  0  0  0  0
  2  3  2  0  0  0  0
  3 25  1  0  0  0  0
  4  2  1  0  0  0  0
  5  1  2  0  0  0  0
  6  5  1  0  0  0  0
  6  4  2  0  0  0  0
  7  4  1  1  0  0  0
  7 12  1  0  0  0  0
  8  9  1  0  0  0  0
  9 11  1  0  0  0  0
 10  8  1  1  0  0  0
 10  7  1  0  0  0  0
 11 12  1  0  0  0  0
 13 14  1  0  0  0  0
 14 19  1  0  0  0  0
 15 18  1  0  0  0  0
 15 17  1  1  0  0  0
 16 13  1  6  0  0  0
 16 15  1  0  0  0  0
 16 18  1  0  0  0  0
 18 10  1  1  0  0  0
 19 15  1  0  0  0  0
 20 21  1  0  0  0  0
 20  8  1  0  0  0  0
 22 24  1  0  0  0  0
 22 21  1  0  0  0  0
 23 24  1  0  0  0  0
 25 27  1  0  0  0  0
 25 26  1  1  0  0  0
 27 28  1  0  0  0  0
 29 34  1  0  0  0  0
 31 29  1  0  0  0  0
 31 33  2  0  0  0  0
 32 31  1  0  0  0  0
 33 30  1  0  0  0  0
 34 30  2  0  0  0  0
 34 28  1  0  0  0  0
 35 32  1  0  0  0  0
 36 35  1  0  0  0  0
 37 36  1  0  0  0  0
 38 39  1  0  0  0  0
 38 42  1  1  0  0  0
 38 37  1  0  0  0  0
 39 46  1  6  0  0  0
 40 38  1  0  0  0  0
 41 40  1  0  0  0  0
 41 44  1  0  0  0  0
 43 44  2  0  0  0  0
 44 39  1  0  0  0  0
 46 45  1  0  0  0  0
M  END
>  <MODEL>
7

>  <REMARK>
 VINA RESULT:      -6.7      3.459      8.509
  Name = 
  15 active torsions:
  status: ('A' for Active; 'I' for Inactive)
    1  A    between atoms: C_1  and  C_39
    2  A    between atoms: N_2  and  C_25
    3  A    between atoms: C_9  and  C_23
    4  A    between atoms: C_11  and  C_34
    5  A    between atoms: C_12  and  C_21
    6  A    between atoms: C_12  and  C_40
    7  A    between atoms: C_16  and  C_29
    8  A    between atoms: O_17  and  C_41
    9  A    between atoms: N_18  and  C_33
   10  A    between atoms: C_23  and  C_32
   11  A    between atoms: C_25  and  C_42
   12  A    between atoms: C_32  and  C_33
   13  A    between atoms: C_35  and  C_40
   14  A    between atoms: C_35  and  C_45
   15  A    between atoms: C_41  and  C_42
                            x       y       z     vdW  Elec       q    Type
                         _______ _______ _______ _____ _____    ______ ____

>  <TORSDO>
F 15

$$$$
=
 OpenBabel11032420013D

 46 51  0  0  1  0  0  0  0  0999 V2000
  191.8090  178.5670  145.3510 N   0  0  0  0  0  0  0  0  0  0  0  0
  190.4720  176.7910  144.4870 C   0  0  0  0  0  3  0  0  0  0  0  0
  191.0370  177.4680  145.5740 C   0  0  0  0  0  0  0  0  0  0  0  0
  190.6760  177.2650  143.1880 C   0  0  0  0  0  0  0  0  0  0  0  0
  192.0390  179.0390  144.0960 C   0  0  0  0  0  3  0  0  0  0  0  0
  191.4830  178.3930  142.9940 C   0  0  0  0  0  3  0  0  0  0  0  0
  190.0360  176.5340  142.0390 C   0  0  2  0  0  3  0  0  0  0  0  0
  188.8080  177.8460  140.2680 N   0  0  0  0  0  0  0  0  0  0  0  0
  188.0040  178.2800  141.4110 C   0  0  0  0  0  2  0  0  0  0  0  0
  190.1160  177.3290  140.7170 C   0  0  2  0  0  3  0  0  0  0  0  0
  187.5390  177.0670  142.2110 C   0  0  0  0  0  2  0  0  0  0  0  0
  188.6270  175.9960  142.3310 C   0  0  0  0  0  2  0  0  0  0  0  0
  191.2650  176.1510  137.2410 C   0  0  0  0  0  2  0  0  0  0  0  0
  192.6600  175.6000  137.4600 C   0  0  0  0  0  2  0  0  0  0  0  0
  192.1430  176.6990  139.3410 C   0  0  1  0  0  0  0  0  0  0  0  0
  191.0750  177.1180  138.3710 C   0  0  2  0  0  3  0  0  0  0  0  0
  192.7790  177.7760  139.9640 O   0  0  0  0  0  1  0  0  0  0  0  0
  190.6910  176.3800  139.6600 C   0  0  2  0  0  3  0  0  0  0  0  0
  192.9580  175.6730  138.8320 O   0  0  0  0  0  0  0  0  0  0  0  0
  189.0560  179.0340  139.4580 C   0  0  0  0  0  2  0  0  0  0  0  0
  188.4970  178.8640  138.0480 C   0  0  0  0  0  2  0  0  0  0  0  0
  187.3740  177.8310  138.0030 C   0  0  0  0  0  2  0  0  0  0  0  0
  187.1680  177.9330  135.7920 C   0  0  0  0  0  1  0  0  0  0  0  0
  186.4600  178.1280  136.9830 O   0  0  0  0  0  0  0  0  0  0  0  0
  190.9020  176.9630  146.9810 C   0  0  2  0  0  3  0  0  0  0  0  0
  191.7560  175.8780  147.2070 O   0  0  0  0  0  1  0  0  0  0  0  0
  189.4810  176.6540  147.4430 C   0  0  0  0  0  2  0  0  0  0  0  0
  188.7950  177.8660  148.0570 C   0  0  0  0  0  2  0  0  0  0  0  0
  187.3300  177.7030  145.6730 S   0  0  0  0  0  0  0  0  0  0  0  0
  186.5220  178.9980  147.6720 C   0  0  0  0  0  3  0  0  0  0  0  0
  185.8310  178.4620  145.6010 C   0  0  0  0  0  0  0  0  0  0  0  0
  184.9510  178.3890  144.4780 N   0  0  0  0  0  2  0  0  0  0  0  0
  185.5320  179.1190  146.7440 N   0  0  0  0  0  0  0  0  0  0  0  0
  187.6120  178.2470  147.2390 C   0  0  0  0  0  0  0  0  0  0  0  0
  183.6610  179.0700  144.4780 C   0  0  0  0  0  2  0  0  0  0  0  0
  182.9790  178.8790  143.1390 C   0  0  0  0  0  2  0  0  0  0  0  0
  184.0010  178.5290  142.0560 C   0  0  0  0  0  2  0  0  0  0  0  0
  183.4160  178.6250  140.6390 C   0  0  2  0  0  0  0  0  0  0  0  0
  181.8780  178.7420  140.7170 C   0  0  2  0  0  3  0  0  0  0  0  0
  183.7820  177.4710  139.8910 O   0  0  0  0  0  0  0  0  0  0  0  0
  182.6390  176.6480  139.7510 C   0  0  0  0  0  2  0  0  0  0  0  0
  183.9790  179.7500  140.0250 O   0  0  0  0  0  1  0  0  0  0  0  0
  180.3420  176.9910  140.2570 O   0  0  0  0  0  0  0  0  0  0  0  0
  181.4850  177.4230  140.2270 C   0  0  0  0  0  0  0  0  0  0  0  0
  181.3000  179.3910  138.4790 O   0  0  0  0  0  1  0  0  0  0  0  0
  181.2690  179.8100  139.8100 C   0  0  0  0  0  2  0  0  0  0  0  0
  1  3  1  0  0  0  0
  2  3  2  0  0  0  0
  3 25  1  0  0  0  0
  4  2  1  0  0  0  0
  5  1  2  0  0  0  0
  6  4  2  0  0  0  0
  6  5  1  0  0  0  0
  7 12  1  0  0  0  0
  7  4  1  1  0  0  0
  8  9  1  0  0  0  0
  9 11  1  0  0  0  0
 10  8  1  6  0  0  0
 10  7  1  0  0  0  0
 11 12  1  0  0  0  0
 13 14  1  0  0  0  0
 14 19  1  0  0  0  0
 15 18  1  0  0  0  0
 15 17  1  1  0  0  0
 16 13  1  6  0  0  0
 16 15  1  0  0  0  0
 16 18  1  0  0  0  0
 18 10  1  1  0  0  0
 19 15  1  0  0  0  0
 20  8  1  0  0  0  0
 21 20  1  0  0  0  0
 22 21  1  0  0  0  0
 23 24  1  0  0  0  0
 24 22  1  0  0  0  0
 25 26  1  6  0  0  0
 25 27  1  0  0  0  0
 27 28  1  0  0  0  0
 29 34  1  0  0  0  0
 31 29  1  0  0  0  0
 31 33  2  0  0  0  0
 32 35  1  0  0  0  0
 32 31  1  0  0  0  0
 33 30  1  0  0  0  0
 34 30  2  0  0  0  0
 34 28  1  0  0  0  0
 36 35  1  0  0  0  0
 37 36  1  0  0  0  0
 38 42  1  6  0  0  0
 38 39  1  0  0  0  0
 38 37  1  0  0  0  0
 39 46  1  6  0  0  0
 40 38  1  0  0  0  0
 41 40  1  0  0  0  0
 41 44  1  0  0  0  0
 44 43  2  0  0  0  0
 44 39  1  0  0  0  0
 45 46  1  0  0  0  0
M  END
>  <MODEL>
8

>  <REMARK>
 VINA RESULT:      -6.6      2.395      7.364
  Name = 
  15 active torsions:
  status: ('A' for Active; 'I' for Inactive)
    1  A    between atoms: C_1  and  C_39
    2  A    between atoms: N_2  and  C_25
    3  A    between atoms: C_9  and  C_23
    4  A    between atoms: C_11  and  C_34
    5  A    between atoms: C_12  and  C_21
    6  A    between atoms: C_12  and  C_40
    7  A    between atoms: C_16  and  C_29
    8  A    between atoms: O_17  and  C_41
    9  A    between atoms: N_18  and  C_33
   10  A    between atoms: C_23  and  C_32
   11  A    between atoms: C_25  and  C_42
   12  A    between atoms: C_32  and  C_33
   13  A    between atoms: C_35  and  C_40
   14  A    between atoms: C_35  and  C_45
   15  A    between atoms: C_41  and  C_42
                            x       y       z     vdW  Elec       q    Type
                         _______ _______ _______ _____ _____    ______ ____

>  <TORSDO>
F 15

$$$$
=
 OpenBabel11032420013D

 46 51  0  0  1  0  0  0  0  0999 V2000
  179.6310  177.1990  141.9810 N   0  0  0  0  0  0  0  0  0  0  0  0
  181.1630  178.4860  140.6830 C   0  0  0  0  0  3  0  0  0  0  0  0
  180.5490  178.2020  141.9080 C   0  0  0  0  0  0  0  0  0  0  0  0
  180.8550  177.7200  139.5550 C   0  0  0  0  0  0  0  0  0  0  0  0
  179.2990  176.4510  140.8950 C   0  0  0  0  0  3  0  0  0  0  0  0
  179.9000  176.7020  139.6630 C   0  0  0  0  0  3  0  0  0  0  0  0
  181.5480  178.0300  138.2550 C   0  0  2  0  0  3  0  0  0  0  0  0
  183.9820  178.6960  138.2790 N   0  0  0  0  0  0  0  0  0  0  0  0
  183.4850  179.7770  139.1310 C   0  0  0  0  0  2  0  0  0  0  0  0
  183.0240  177.5730  138.2520 C   0  0  2  0  0  3  0  0  0  0  0  0
  182.3000  180.4670  138.4590 C   0  0  0  0  0  2  0  0  0  0  0  0
  181.3660  179.4740  137.7630 C   0  0  0  0  0  2  0  0  0  0  0  0
  184.7150  175.0700  135.8710 C   0  0  0  0  0  2  0  0  0  0  0  0
  183.6040  174.1320  135.4420 C   0  0  0  0  0  2  0  0  0  0  0  0
  182.7740  175.3050  137.1580 C   0  0  1  0  0  0  0  0  0  0  0  0
  184.2440  175.6120  137.1870 C   0  0  2  0  0  3  0  0  0  0  0  0
  182.2730  174.8750  138.3910 O   0  0  0  0  0  1  0  0  0  0  0  0
  183.2300  176.7440  136.9790 C   0  0  2  0  0  3  0  0  0  0  0  0
  182.4000  174.5730  136.0180 O   0  0  0  0  0  0  0  0  0  0  0  0
  185.2130  178.2130  138.8950 C   0  0  0  0  0  2  0  0  0  0  0  0
  186.4090  178.4220  137.9700 C   0  0  0  0  0  2  0  0  0  0  0  0
  187.5100  177.3980  138.2270 C   0  0  0  0  0  2  0  0  0  0  0  0
  189.4110  178.4090  138.7820 C   0  0  0  0  0  1  0  0  0  0  0  0
  188.7340  177.8340  137.7010 O   0  0  0  0  0  0  0  0  0  0  0  0
  180.7960  179.0360  143.1320 C   0  0  2  0  0  3  0  0  0  0  0  0
  180.8010  180.3980  142.8170 O   0  0  0  0  0  1  0  0  0  0  0  0
  182.0200  178.6540  143.9590 C   0  0  0  0  0  2  0  0  0  0  0  0
  183.3240  179.0690  143.2910 C   0  0  0  0  0  2  0  0  0  0  0  0
  184.6660  179.0380  145.7510 S   0  0  0  0  0  0  0  0  0  0  0  0
  185.4980  177.7780  143.7390 C   0  0  0  0  0  3  0  0  0  0  0  0
  186.0540  178.0980  145.8940 C   0  0  0  0  0  0  0  0  0  0  0  0
  186.7850  177.9310  147.1100 N   0  0  0  0  0  2  0  0  0  0  0  0
  186.3800  177.4830  144.7350 N   0  0  0  0  0  0  0  0  0  0  0  0
  184.4790  178.6440  144.1260 C   0  0  0  0  0  0  0  0  0  0  0  0
  187.9820  177.1000  147.1690 C   0  0  0  0  0  2  0  0  0  0  0  0
  189.1030  177.7560  146.3890 C   0  0  0  0  0  2  0  0  0  0  0  0
  190.2870  176.8000  146.2340 C   0  0  0  0  0  2  0  0  0  0  0  0
  191.0320  176.9930  144.9050 C   0  0  2  0  0  0  0  0  0  0  0  0
  190.1980  177.8930  143.9660 C   0  0  2  0  0  3  0  0  0  0  0  0
  191.2600  175.7280  144.2960 O   0  0  0  0  0  0  0  0  0  0  0  0
  190.3820  175.5990  143.1920 C   0  0  0  0  0  2  0  0  0  0  0  0
  192.2710  177.5760  145.1970 O   0  0  0  0  0  1  0  0  0  0  0  0
  188.9320  177.1370  142.1060 O   0  0  0  0  0  0  0  0  0  0  0  0
  189.7590  176.9120  142.9770 C   0  0  0  0  0  0  0  0  0  0  0  0
  190.9240  180.1810  143.9840 O   0  0  0  0  0  1  0  0  0  0  0  0
  190.9920  178.9910  143.2590 C   0  0  0  0  0  2  0  0  0  0  0  0
  2  3  2  0  0  0  0
  3  1  1  0  0  0  0
  3 25  1  0  0  0  0
  4  6  2  0  0  0  0
  4  2  1  0  0  0  0
  5  1  2  0  0  0  0
  6  5  1  0  0  0  0
  7  4  1  1  0  0  0
  8 20  1  0  0  0  0
  8  9  1  0  0  0  0
 10  7  1  0  0  0  0
 10  8  1  6  0  0  0
 11  9  1  0  0  0  0
 12  7  1  0  0  0  0
 12 11  1  0  0  0  0
 14 13  1  0  0  0  0
 14 19  1  0  0  0  0
 15 16  1  0  0  0  0
 15 17  1  1  0  0  0
 16 13  1  6  0  0  0
 18 15  1  0  0  0  0
 18 16  1  0  0  0  0
 18 10  1  1  0  0  0
 19 15  1  0  0  0  0
 21 22  1  0  0  0  0
 21 20  1  0  0  0  0
 24 22  1  0  0  0  0
 24 23  1  0  0  0  0
 25 26  1  6  0  0  0
 25 27  1  0  0  0  0
 28 27  1  0  0  0  0
 28 34  1  0  0  0  0
 29 31  1  0  0  0  0
 30 34  2  0  0  0  0
 30 33  1  0  0  0  0
 31 32  1  0  0  0  0
 32 35  1  0  0  0  0
 33 31  2  0  0  0  0
 34 29  1  0  0  0  0
 36 35  1  0  0  0  0
 37 36  1  0  0  0  0
 38 42  1  1  0  0  0
 38 37  1  0  0  0  0
 39 46  1  6  0  0  0
 39 38  1  0  0  0  0
 40 38  1  0  0  0  0
 41 40  1  0  0  0  0
 43 44  2  0  0  0  0
 44 41  1  0  0  0  0
 44 39  1  0  0  0  0
 46 45  1  0  0  0  0
M  END
>  <MODEL>
9

>  <REMARK>
 VINA RESULT:      -6.4      2.813      8.431
  Name = 
  15 active torsions:
  status: ('A' for Active; 'I' for Inactive)
    1  A    between atoms: C_1  and  C_39
    2  A    between atoms: N_2  and  C_25
    3  A    between atoms: C_9  and  C_23
    4  A    between atoms: C_11  and  C_34
    5  A    between atoms: C_12  and  C_21
    6  A    between atoms: C_12  and  C_40
    7  A    between atoms: C_16  and  C_29
    8  A    between atoms: O_17  and  C_41
    9  A    between atoms: N_18  and  C_33
   10  A    between atoms: C_23  and  C_32
   11  A    between atoms: C_25  and  C_42
   12  A    between atoms: C_32  and  C_33
   13  A    between atoms: C_35  and  C_40
   14  A    between atoms: C_35  and  C_45
   15  A    between atoms: C_41  and  C_42
                            x       y       z     vdW  Elec       q    Type
                         _______ _______ _______ _____ _____    ______ ____

>  <TORSDO>
F 15

$$$$
