=
 OpenBabel11042412093D

 37 41  0  0  1  0  0  0  0  0999 V2000
  186.5820  178.5660  140.5150 C   0  0  0  0  0  0  0  0  0  0  0  0
  185.3930  178.3070  146.9430 C   0  0  0  0  0  3  0  0  0  0  0  0
  185.3350  178.7580  139.9280 C   0  0  0  0  0  3  0  0  0  0  0  0
  184.2590  178.7480  142.0450 C   0  0  0  0  0  0  0  0  0  0  0  0
  184.2180  178.5000  146.2160 C   0  0  0  0  0  3  0  0  0  0  0  0
  185.4870  178.4580  144.1300 C   0  0  0  0  0  0  0  0  0  0  0  0
  186.6220  178.1910  146.2820 C   0  0  0  0  0  0  0  0  0  0  0  0
  186.6660  178.4010  141.9180 C   0  0  0  0  0  0  0  0  0  0  0  0
  183.1020  178.7680  144.1360 N   0  0  0  0  0  0  0  0  0  0  0  0
  186.6560  178.2690  144.8840 C   0  0  0  0  0  3  0  0  0  0  0  0
  183.0710  178.8550  142.7810 C   0  0  0  0  0  0  0  0  0  0  0  0
  184.2170  178.8350  140.6900 N   0  0  0  0  0  0  0  0  0  0  0  0
  184.2560  178.5770  144.8200 C   0  0  0  0  0  0  0  0  0  0  0  0
  185.4930  178.5420  142.7110 C   0  0  0  0  0  0  0  0  0  0  0  0
  189.2270  178.0400  148.6800 N   0  0  0  0  0  0  0  0  0  0  0  0
  188.9440  177.3660  146.5980 C   0  0  0  0  0  3  0  0  0  0  0  0
  187.8300  177.9860  147.0290 N   0  0  0  0  0  0  0  0  0  0  0  0
  189.8350  177.4030  147.6560 C   0  0  0  0  0  3  0  0  0  0  0  0
  188.0170  178.3820  148.2750 N   0  0  0  0  0  0  0  0  0  0  0  0
  181.8260  179.0550  142.1050 N   0  0  0  0  0  2  0  0  0  0  0  0
  180.6410  179.5460  142.7890 C   0  0  0  0  0  2  0  0  0  0  0  0
  179.6610  177.9030  144.2130 O   0  0  0  0  0  1  0  0  0  0  0  0
  179.6220  178.4300  142.9230 C   0  0  0  0  0  2  0  0  0  0  0  0
  187.7310  178.6000  139.6550 N   0  0  0  0  0  2  0  0  0  0  0  0
  187.7740  178.0890  138.2920 C   0  0  0  0  0  2  0  0  0  0  0  0
  188.4700  176.7390  138.2640 C   0  0  0  0  0  2  0  0  0  0  0  0
  189.8620  175.8290  136.6130 C   0  0  0  0  0  2  0  0  0  0  0  0
  189.7710  176.8660  137.6300 N   0  0  0  0  0  0  0  0  0  0  0  0
  190.7670  176.5170  138.6340 C   0  0  0  0  0  2  0  0  0  0  0  0
  191.8010  175.6140  137.9890 C   0  0  2  0  0  3  0  0  0  0  0  0
  193.1290  176.3380  137.9010 C   0  0  0  0  0  1  0  0  0  0  0  0
  191.2870  175.3340  136.6010 C   0  0  0  0  0  2  0  0  0  0  0  0
  187.8850  178.0690  142.5200 O   0  0  0  0  0  0  0  0  0  0  0  0
  188.4710  176.7770  142.3860 C   0  0  0  0  0  2  0  0  0  0  0  0
  189.9880  176.8680  142.4080 C   0  0  0  0  0  3  0  0  0  0  0  0
  190.5500  175.6540  143.1150 C   0  0  0  0  0  1  0  0  0  0  0  0
  190.4300  178.1180  143.1440 C   0  0  0  0  0  1  0  0  0  0  0  0
  1  8  1  0  0  0  0
  3  1  2  0  0  0  0
  3 12  1  0  0  0  0
  4 14  1  0  0  0  0
  4 11  1  0  0  0  0
  5  2  2  0  0  0  0
  6 13  2  0  0  0  0
  6 10  1  0  0  0  0
  7  2  1  0  0  0  0
  7 17  1  0  0  0  0
  8 33  1  0  0  0  0
  8 14  2  0  0  0  0
  9 13  1  0  0  0  0
 10  7  2  0  0  0  0
 11  9  2  0  0  0  0
 12  4  2  0  0  0  0
 13  5  1  0  0  0  0
 14  6  1  0  0  0  0
 16 17  1  0  0  0  0
 16 18  2  0  0  0  0
 17 19  1  0  0  0  0
 18 15  1  0  0  0  0
 19 15  2  0  0  0  0
 20 11  1  0  0  0  0
 20 21  1  0  0  0  0
 21 23  1  0  0  0  0
 23 22  1  0  0  0  0
 24  1  1  0  0  0  0
 25 24  1  0  0  0  0
 26 25  1  0  0  0  0
 27 28  1  0  0  0  0
 28 26  1  0  0  0  0
 28 29  1  0  0  0  0
 30 31  1  6  0  0  0
 30 29  1  0  0  0  0
 32 27  1  0  0  0  0
 32 30  1  0  0  0  0
 34 35  1  0  0  0  0
 34 33  1  0  0  0  0
 35 36  1  0  0  0  0
 35 37  1  0  0  0  0
M  END
>  <MODEL>
1

>  <REMARK>
 VINA RESULT:      -8.5      0.000      0.000
  Name = 
  11 active torsions:
  status: ('A' for Active; 'I' for Inactive)
    1  A    between atoms: C_1  and  C_2
    2  A    between atoms: C_1  and  O_32
    3  A    between atoms: C_3  and  N_26
    4  A    between atoms: C_6  and  N_19
    5  A    between atoms: C_6  and  C_36
    6  A    between atoms: C_12  and  N_21
    7  A    between atoms: C_13  and  O_32
    8  A    between atoms: N_14  and  C_37
    9  A    between atoms: N_19  and  C_24
   10  A    between atoms: N_26  and  C_28
   11  A    between atoms: C_28  and  C_37
                            x       y       z     vdW  Elec       q    Type
                         _______ _______ _______ _____ _____    ______ ____

>  <TORSDO>
F 11

$$$$
=
 OpenBabel11042412093D

 37 41  0  0  1  0  0  0  0  0999 V2000
  185.7680  178.5230  140.7700 C   0  0  0  0  0  0  0  0  0  0  0  0
  186.8400  178.0580  147.2070 C   0  0  0  0  0  3  0  0  0  0  0  0
  184.4330  178.8970  140.6560 C   0  0  0  0  0  3  0  0  0  0  0  0
  184.1600  178.9020  143.0150 C   0  0  0  0  0  0  0  0  0  0  0  0
  185.5230  178.4320  146.9370 C   0  0  0  0  0  3  0  0  0  0  0  0
  185.9800  178.3500  144.5400 C   0  0  0  0  0  0  0  0  0  0  0  0
  187.7400  177.8290  146.1590 C   0  0  0  0  0  0  0  0  0  0  0  0
  186.3070  178.2710  142.0550 C   0  0  0  0  0  0  0  0  0  0  0  0
  183.8060  178.9480  145.3790 N   0  0  0  0  0  0  0  0  0  0  0  0
  187.3010  177.9790  144.8380 C   0  0  0  0  0  3  0  0  0  0  0  0
  183.3230  179.1120  144.1200 C   0  0  0  0  0  0  0  0  0  0  0  0
  183.6670  179.0680  141.7600 N   0  0  0  0  0  0  0  0  0  0  0  0
  185.0890  178.5800  145.6160 C   0  0  0  0  0  0  0  0  0  0  0  0
  185.5090  178.5100  143.2080 C   0  0  0  0  0  0  0  0  0  0  0  0
  191.1780  176.9730  146.1030 N   0  0  0  0  0  0  0  0  0  0  0  0
  189.6000  177.1080  147.6400 C   0  0  0  0  0  3  0  0  0  0  0  0
  189.0920  177.4380  146.4370 N   0  0  0  0  0  0  0  0  0  0  0  0
  190.9340  176.8110  147.4200 C   0  0  0  0  0  3  0  0  0  0  0  0
  190.0490  177.3520  145.5310 N   0  0  0  0  0  0  0  0  0  0  0  0
  181.9600  179.4990  143.9220 N   0  0  0  0  0  2  0  0  0  0  0  0
  180.8700  178.5380  143.9360 C   0  0  0  0  0  2  0  0  0  0  0  0
  179.0050  178.0720  142.5250 O   0  0  0  0  0  1  0  0  0  0  0  0
  179.6770  179.0990  143.1860 C   0  0  0  0  0  2  0  0  0  0  0  0
  186.5460  178.4640  139.5650 N   0  0  0  0  0  2  0  0  0  0  0  0
  186.0130  178.1950  138.2360 C   0  0  0  0  0  2  0  0  0  0  0  0
  187.1160  178.3170  137.1980 C   0  0  0  0  0  2  0  0  0  0  0  0
  189.3900  177.9120  136.8030 C   0  0  0  0  0  2  0  0  0  0  0  0
  188.2320  177.4610  137.5600 N   0  0  0  0  0  0  0  0  0  0  0  0
  187.9260  176.1300  137.0520 C   0  0  0  0  0  2  0  0  0  0  0  0
  189.1750  175.5690  136.4000 C   0  0  2  0  0  3  0  0  0  0  0  0
  189.6960  174.4000  137.2120 C   0  0  0  0  0  1  0  0  0  0  0  0
  190.1850  176.6870  136.4220 C   0  0  0  0  0  2  0  0  0  0  0  0
  187.6030  177.7610  142.1920 O   0  0  0  0  0  0  0  0  0  0  0  0
  188.7360  178.4010  141.6110 C   0  0  0  0  0  2  0  0  0  0  0  0
  189.9660  177.5120  141.7070 C   0  0  0  0  0  3  0  0  0  0  0  0
  190.4560  177.1880  140.3130 C   0  0  0  0  0  1  0  0  0  0  0  0
  189.6270  176.2210  142.4260 C   0  0  0  0  0  1  0  0  0  0  0  0
  1  8  1  0  0  0  0
  3  1  2  0  0  0  0
  3 12  1  0  0  0  0
  4 14  1  0  0  0  0
  4 11  1  0  0  0  0
  5  2  1  0  0  0  0
  6 10  2  0  0  0  0
  6 13  1  0  0  0  0
  7 17  1  0  0  0  0
  7  2  2  0  0  0  0
  8 33  1  0  0  0  0
  8 14  2  0  0  0  0
  9 13  1  0  0  0  0
 10  7  1  0  0  0  0
 11  9  2  0  0  0  0
 12  4  2  0  0  0  0
 13  5  2  0  0  0  0
 14  6  1  0  0  0  0
 15 18  1  0  0  0  0
 17 16  1  0  0  0  0
 18 16  2  0  0  0  0
 19 15  2  0  0  0  0
 19 17  1  0  0  0  0
 20 21  1  0  0  0  0
 20 11  1  0  0  0  0
 22 23  1  0  0  0  0
 23 21  1  0  0  0  0
 24  1  1  0  0  0  0
 25 24  1  0  0  0  0
 26 28  1  0  0  0  0
 26 25  1  0  0  0  0
 27 28  1  0  0  0  0
 29 28  1  0  0  0  0
 30 32  1  0  0  0  0
 30 29  1  0  0  0  0
 30 31  1  1  0  0  0
 32 27  1  0  0  0  0
 34 35  1  0  0  0  0
 34 33  1  0  0  0  0
 35 37  1  0  0  0  0
 36 35  1  0  0  0  0
M  END
>  <MODEL>
2

>  <REMARK>
 VINA RESULT:      -8.3      1.418      1.893
  Name = 
  11 active torsions:
  status: ('A' for Active; 'I' for Inactive)
    1  A    between atoms: C_1  and  C_2
    2  A    between atoms: C_1  and  O_32
    3  A    between atoms: C_3  and  N_26
    4  A    between atoms: C_6  and  N_19
    5  A    between atoms: C_6  and  C_36
    6  A    between atoms: C_12  and  N_21
    7  A    between atoms: C_13  and  O_32
    8  A    between atoms: N_14  and  C_37
    9  A    between atoms: N_19  and  C_24
   10  A    between atoms: N_26  and  C_28
   11  A    between atoms: C_28  and  C_37
                            x       y       z     vdW  Elec       q    Type
                         _______ _______ _______ _____ _____    ______ ____

>  <TORSDO>
F 11

$$$$
=
 OpenBabel11042412093D

 37 41  0  0  1  0  0  0  0  0999 V2000
  190.4260  176.7360  141.3600 C   0  0  0  0  0  0  0  0  0  0  0  0
  185.3320  178.3850  145.1190 C   0  0  0  0  0  3  0  0  0  0  0  0
  191.4910  176.5920  142.2440 C   0  0  0  0  0  3  0  0  0  0  0  0
  190.1180  177.1480  144.1000 C   0  0  0  0  0  0  0  0  0  0  0  0
  186.4880  178.2040  145.8800 C   0  0  0  0  0  3  0  0  0  0  0  0
  187.7520  177.6810  143.8570 C   0  0  0  0  0  0  0  0  0  0  0  0
  185.3670  178.2150  143.7300 C   0  0  0  0  0  0  0  0  0  0  0  0
  189.1700  177.1580  141.8570 C   0  0  0  0  0  0  0  0  0  0  0  0
  188.8000  177.6800  146.0220 N   0  0  0  0  0  0  0  0  0  0  0  0
  186.5740  177.8640  143.1150 C   0  0  0  0  0  3  0  0  0  0  0  0
  189.9990  177.3360  145.4840 C   0  0  0  0  0  0  0  0  0  0  0  0
  191.3210  176.8050  143.5710 N   0  0  0  0  0  0  0  0  0  0  0  0
  187.6920  177.8530  145.2620 C   0  0  0  0  0  0  0  0  0  0  0  0
  188.9900  177.3230  143.2580 C   0  0  0  0  0  0  0  0  0  0  0  0
  182.1350  178.9140  142.4540 N   0  0  0  0  0  0  0  0  0  0  0  0
  184.0480  178.1910  141.6240 C   0  0  0  0  0  3  0  0  0  0  0  0
  184.1800  178.4080  142.9470 N   0  0  0  0  0  0  0  0  0  0  0  0
  182.7380  178.5160  141.3140 C   0  0  0  0  0  3  0  0  0  0  0  0
  183.0270  178.8400  143.4260 N   0  0  0  0  0  0  0  0  0  0  0  0
  191.1400  177.1670  146.3290 N   0  0  0  0  0  2  0  0  0  0  0  0
  191.1210  176.3000  147.4950 C   0  0  0  0  0  2  0  0  0  0  0  0
  193.1470  176.3420  148.7540 O   0  0  0  0  0  1  0  0  0  0  0  0
  192.4930  175.6900  147.7090 C   0  0  0  0  0  2  0  0  0  0  0  0
  190.6550  176.3910  139.9850 N   0  0  0  0  0  2  0  0  0  0  0  0
  191.7790  176.8500  139.1820 C   0  0  0  0  0  2  0  0  0  0  0  0
  191.9830  175.9240  137.9940 C   0  0  0  0  0  2  0  0  0  0  0  0
  193.3040  176.0000  136.0600 C   0  0  0  0  0  2  0  0  0  0  0  0
  193.3500  176.0290  137.5140 N   0  0  0  0  0  0  0  0  0  0  0  0
  194.0310  174.8030  137.9090 C   0  0  0  0  0  2  0  0  0  0  0  0
  194.8550  174.3140  136.7330 C   0  0  2  0  0  3  0  0  0  0  0  0
  196.3310  174.4370  137.0550 C   0  0  0  0  0  1  0  0  0  0  0  0
  194.5120  175.2300  135.5870 C   0  0  0  0  0  2  0  0  0  0  0  0
  188.1210  177.4450  140.9760 O   0  0  0  0  0  0  0  0  0  0  0  0
  188.2170  178.4660  139.9870 C   0  0  0  0  0  2  0  0  0  0  0  0
  187.9410  177.9040  138.6020 C   0  0  0  0  0  3  0  0  0  0  0  0
  188.8210  178.6080  137.5930 C   0  0  0  0  0  1  0  0  0  0  0  0
  186.4870  178.1190  138.2270 C   0  0  0  0  0  1  0  0  0  0  0  0
  1  8  2  0  0  0  0
  1  3  1  0  0  0  0
  2  5  1  0  0  0  0
  3 12  2  0  0  0  0
  4 11  1  0  0  0  0
  6 13  1  0  0  0  0
  7  2  2  0  0  0  0
  8 14  1  0  0  0  0
 10  7  1  0  0  0  0
 10  6  2  0  0  0  0
 11  9  2  0  0  0  0
 11 20  1  0  0  0  0
 12  4  1  0  0  0  0
 13  5  2  0  0  0  0
 13  9  1  0  0  0  0
 14  6  1  0  0  0  0
 14  4  2  0  0  0  0
 15 19  2  0  0  0  0
 16 17  1  0  0  0  0
 17 19  1  0  0  0  0
 17  7  1  0  0  0  0
 18 16  2  0  0  0  0
 18 15  1  0  0  0  0
 20 21  1  0  0  0  0
 21 23  1  0  0  0  0
 23 22  1  0  0  0  0
 24  1  1  0  0  0  0
 25 24  1  0  0  0  0
 26 25  1  0  0  0  0
 27 28  1  0  0  0  0
 28 29  1  0  0  0  0
 28 26  1  0  0  0  0
 30 31  1  1  0  0  0
 30 29  1  0  0  0  0
 32 27  1  0  0  0  0
 32 30  1  0  0  0  0
 33  8  1  0  0  0  0
 34 33  1  0  0  0  0
 35 34  1  0  0  0  0
 36 35  1  0  0  0  0
 37 35  1  0  0  0  0
M  END
>  <MODEL>
3

>  <REMARK>
 VINA RESULT:      -8.1      2.400      6.418
  Name = 
  11 active torsions:
  status: ('A' for Active; 'I' for Inactive)
    1  A    between atoms: C_1  and  C_2
    2  A    between atoms: C_1  and  O_32
    3  A    between atoms: C_3  and  N_26
    4  A    between atoms: C_6  and  N_19
    5  A    between atoms: C_6  and  C_36
    6  A    between atoms: C_12  and  N_21
    7  A    between atoms: C_13  and  O_32
    8  A    between atoms: N_14  and  C_37
    9  A    between atoms: N_19  and  C_24
   10  A    between atoms: N_26  and  C_28
   11  A    between atoms: C_28  and  C_37
                            x       y       z     vdW  Elec       q    Type
                         _______ _______ _______ _____ _____    ______ ____

>  <TORSDO>
F 11

$$$$
=
 OpenBabel11042412093D

 37 41  0  0  1  0  0  0  0  0999 V2000
  186.0370  178.7250  140.4760 C   0  0  0  0  0  0  0  0  0  0  0  0
  190.6010  176.8700  144.7800 C   0  0  0  0  0  3  0  0  0  0  0  0
  186.6060  178.4900  139.2280 C   0  0  0  0  0  3  0  0  0  0  0  0
  188.6090  177.6840  140.2150 C   0  0  0  0  0  0  0  0  0  0  0  0
  191.0360  176.6880  143.4670 C   0  0  0  0  0  3  0  0  0  0  0  0
  188.9190  177.5690  142.6300 C   0  0  0  0  0  0  0  0  0  0  0  0
  189.3290  177.3960  145.0370 C   0  0  0  0  0  0  0  0  0  0  0  0
  186.8040  178.4850  141.6400 C   0  0  0  0  0  0  0  0  0  0  0  0
  190.6510  176.8420  141.1280 N   0  0  0  0  0  0  0  0  0  0  0  0
  188.5010  177.7380  143.9600 C   0  0  0  0  0  3  0  0  0  0  0  0
  189.8950  177.1520  140.0440 C   0  0  0  0  0  0  0  0  0  0  0  0
  187.8610  177.9910  139.1240 N   0  0  0  0  0  0  0  0  0  0  0  0
  190.2070  177.0310  142.3950 C   0  0  0  0  0  0  0  0  0  0  0  0
  188.0990  177.9070  141.5190 C   0  0  0  0  0  0  0  0  0  0  0  0
  187.5510  177.9730  148.0480 N   0  0  0  0  0  0  0  0  0  0  0  0
  189.6410  177.5250  147.4980 C   0  0  0  0  0  3  0  0  0  0  0  0
  188.8830  177.5890  146.3870 N   0  0  0  0  0  0  0  0  0  0  0  0
  188.7850  177.7710  148.5570 C   0  0  0  0  0  3  0  0  0  0  0  0
  187.6380  177.8570  146.7350 N   0  0  0  0  0  0  0  0  0  0  0  0
  190.4090  176.9350  138.7270 N   0  0  0  0  0  2  0  0  0  0  0  0
  191.3770  175.8910  138.4340 C   0  0  0  0  0  2  0  0  0  0  0  0
  193.4860  176.8710  138.9640 O   0  0  0  0  0  1  0  0  0  0  0  0
  192.6580  176.5080  137.9030 C   0  0  0  0  0  2  0  0  0  0  0  0
  184.6670  179.1540  140.5100 N   0  0  0  0  0  2  0  0  0  0  0  0
  183.5110  178.2670  140.5180 C   0  0  0  0  0  2  0  0  0  0  0  0
  182.3080  178.9750  139.9160 C   0  0  0  0  0  2  0  0  0  0  0  0
  180.3410  179.9830  140.6950 C   0  0  0  0  0  2  0  0  0  0  0  0
  181.1420  178.7690  140.7570 N   0  0  0  0  0  0  0  0  0  0  0  0
  181.6200  178.6850  142.1310 C   0  0  0  0  0  2  0  0  0  0  0  0
  180.7010  179.5130  143.0080 C   0  0  2  0  0  3  0  0  0  0  0  0
  179.9240  178.6030  143.9380 C   0  0  0  0  0  1  0  0  0  0  0  0
  179.7490  180.2010  142.0650 C   0  0  0  0  0  2  0  0  0  0  0  0
  186.3100  178.8420  142.9000 O   0  0  0  0  0  0  0  0  0  0  0  0
  185.4830  177.9700  143.6660 C   0  0  0  0  0  2  0  0  0  0  0  0
  184.3590  178.7440  144.3370 C   0  0  0  0  0  3  0  0  0  0  0  0
  184.5030  180.2140  144.0090 C   0  0  0  0  0  1  0  0  0  0  0  0
  184.4200  178.5640  145.8410 C   0  0  0  0  0  1  0  0  0  0  0  0
  1 24  1  0  0  0  0
  1  8  1  0  0  0  0
  2  7  1  0  0  0  0
  3  1  2  0  0  0  0
  4 14  1  0  0  0  0
  5  2  2  0  0  0  0
  6 10  1  0  0  0  0
  7 17  1  0  0  0  0
  8 33  1  0  0  0  0
  9 13  1  0  0  0  0
 10  7  2  0  0  0  0
 11  4  1  0  0  0  0
 11  9  2  0  0  0  0
 12  3  1  0  0  0  0
 12  4  2  0  0  0  0
 13  6  2  0  0  0  0
 13  5  1  0  0  0  0
 14  8  2  0  0  0  0
 14  6  1  0  0  0  0
 15 18  1  0  0  0  0
 16 18  2  0  0  0  0
 17 19  1  0  0  0  0
 17 16  1  0  0  0  0
 19 15  2  0  0  0  0
 20 11  1  0  0  0  0
 21 20  1  0  0  0  0
 23 21  1  0  0  0  0
 23 22  1  0  0  0  0
 24 25  1  0  0  0  0
 26 25  1  0  0  0  0
 26 28  1  0  0  0  0
 27 28  1  0  0  0  0
 27 32  1  0  0  0  0
 28 29  1  0  0  0  0
 29 30  1  0  0  0  0
 30 31  1  1  0  0  0
 32 30  1  0  0  0  0
 33 34  1  0  0  0  0
 34 35  1  0  0  0  0
 35 37  1  0  0  0  0
 36 35  1  0  0  0  0
M  END
>  <MODEL>
4

>  <REMARK>
 VINA RESULT:      -8.1      1.815      7.574
  Name = 
  11 active torsions:
  status: ('A' for Active; 'I' for Inactive)
    1  A    between atoms: C_1  and  C_2
    2  A    between atoms: C_1  and  O_32
    3  A    between atoms: C_3  and  N_26
    4  A    between atoms: C_6  and  N_19
    5  A    between atoms: C_6  and  C_36
    6  A    between atoms: C_12  and  N_21
    7  A    between atoms: C_13  and  O_32
    8  A    between atoms: N_14  and  C_37
    9  A    between atoms: N_19  and  C_24
   10  A    between atoms: N_26  and  C_28
   11  A    between atoms: C_28  and  C_37
                            x       y       z     vdW  Elec       q    Type
                         _______ _______ _______ _____ _____    ______ ____

>  <TORSDO>
F 11

$$$$
=
 OpenBabel11042412093D

 37 41  0  0  1  0  0  0  0  0999 V2000
  186.0170  178.7460  140.2650 C   0  0  0  0  0  0  0  0  0  0  0  0
  190.4490  176.8230  144.6760 C   0  0  0  0  0  3  0  0  0  0  0  0
  186.6070  178.4920  139.0310 C   0  0  0  0  0  3  0  0  0  0  0  0
  188.5730  177.6510  140.0650 C   0  0  0  0  0  0  0  0  0  0  0  0
  190.9080  176.6240  143.3730 C   0  0  0  0  0  3  0  0  0  0  0  0
  188.8280  177.5440  142.4860 C   0  0  0  0  0  0  0  0  0  0  0  0
  189.1830  177.3760  144.9020 C   0  0  0  0  0  0  0  0  0  0  0  0
  186.7550  178.4970  141.4470 C   0  0  0  0  0  0  0  0  0  0  0  0
  190.5770  176.7730  141.0260 N   0  0  0  0  0  0  0  0  0  0  0  0
  188.3860  177.7280  143.8060 C   0  0  0  0  0  3  0  0  0  0  0  0
  189.8500  177.0920  139.9240 C   0  0  0  0  0  0  0  0  0  0  0  0
  187.8540  177.9670  138.9560 N   0  0  0  0  0  0  0  0  0  0  0  0
  190.1100  176.9780  142.2820 C   0  0  0  0  0  0  0  0  0  0  0  0
  188.0390  177.8920  141.3560 C   0  0  0  0  0  0  0  0  0  0  0  0
  187.3530  178.0040  147.8720 N   0  0  0  0  0  0  0  0  0  0  0  0
  189.4460  177.5150  147.3690 C   0  0  0  0  0  3  0  0  0  0  0  0
  188.7130  177.5860  146.2410 N   0  0  0  0  0  0  0  0  0  0  0  0
  188.5720  177.7830  148.4080 C   0  0  0  0  0  3  0  0  0  0  0  0
  187.4650  177.8790  146.5610 N   0  0  0  0  0  0  0  0  0  0  0  0
  190.3880  176.8570  138.6200 N   0  0  0  0  0  2  0  0  0  0  0  0
  191.4210  175.8650  138.3720 C   0  0  0  0  0  2  0  0  0  0  0  0
  193.5240  176.8100  138.9830 O   0  0  0  0  0  1  0  0  0  0  0  0
  192.6900  176.5460  137.8970 C   0  0  0  0  0  2  0  0  0  0  0  0
  184.6560  179.2020  140.2670 N   0  0  0  0  0  2  0  0  0  0  0  0
  183.5000  178.3960  139.8990 C   0  0  0  0  0  2  0  0  0  0  0  0
  182.5840  179.1880  138.9810 C   0  0  0  0  0  2  0  0  0  0  0  0
  180.7250  179.6910  140.3170 C   0  0  0  0  0  2  0  0  0  0  0  0
  181.1990  178.8340  139.2400 N   0  0  0  0  0  0  0  0  0  0  0  0
  181.2030  177.4840  139.7870 C   0  0  0  0  0  2  0  0  0  0  0  0
  180.2500  177.4430  140.9660 C   0  0  2  0  0  3  0  0  0  0  0  0
  179.0540  176.5750  140.6290 C   0  0  0  0  0  1  0  0  0  0  0  0
  179.7980  178.8650  141.1740 C   0  0  0  0  0  2  0  0  0  0  0  0
  186.2410  178.8710  142.6940 O   0  0  0  0  0  0  0  0  0  0  0  0
  185.1500  178.1850  143.3020 C   0  0  0  0  0  2  0  0  0  0  0  0
  184.2290  179.1630  144.0150 C   0  0  0  0  0  3  0  0  0  0  0  0
  184.2440  178.8700  145.4990 C   0  0  0  0  0  1  0  0  0  0  0  0
  182.8110  179.0240  143.4970 C   0  0  0  0  0  1  0  0  0  0  0  0
  1 24  1  0  0  0  0
  1  8  1  0  0  0  0
  2  7  1  0  0  0  0
  3  1  2  0  0  0  0
  4 14  1  0  0  0  0
  5  2  2  0  0  0  0
  6 10  1  0  0  0  0
  7 17  1  0  0  0  0
  8 33  1  0  0  0  0
  9 13  1  0  0  0  0
 10  7  2  0  0  0  0
 11  4  1  0  0  0  0
 11  9  2  0  0  0  0
 12  3  1  0  0  0  0
 12  4  2  0  0  0  0
 13  6  2  0  0  0  0
 13  5  1  0  0  0  0
 14  8  2  0  0  0  0
 14  6  1  0  0  0  0
 15 18  1  0  0  0  0
 16 18  2  0  0  0  0
 17 19  1  0  0  0  0
 17 16  1  0  0  0  0
 19 15  2  0  0  0  0
 20 11  1  0  0  0  0
 21 20  1  0  0  0  0
 23 21  1  0  0  0  0
 23 22  1  0  0  0  0
 25 24  1  0  0  0  0
 26 28  1  0  0  0  0
 26 25  1  0  0  0  0
 27 32  1  0  0  0  0
 28 29  1  0  0  0  0
 28 27  1  0  0  0  0
 29 30  1  0  0  0  0
 30 31  1  6  0  0  0
 30 32  1  0  0  0  0
 33 34  1  0  0  0  0
 34 35  1  0  0  0  0
 35 36  1  0  0  0  0
 37 35  1  0  0  0  0
M  END
>  <MODEL>
5

>  <REMARK>
 VINA RESULT:      -8.0      2.040      7.462
  Name = 
  11 active torsions:
  status: ('A' for Active; 'I' for Inactive)
    1  A    between atoms: C_1  and  C_2
    2  A    between atoms: C_1  and  O_32
    3  A    between atoms: C_3  and  N_26
    4  A    between atoms: C_6  and  N_19
    5  A    between atoms: C_6  and  C_36
    6  A    between atoms: C_12  and  N_21
    7  A    between atoms: C_13  and  O_32
    8  A    between atoms: N_14  and  C_37
    9  A    between atoms: N_19  and  C_24
   10  A    between atoms: N_26  and  C_28
   11  A    between atoms: C_28  and  C_37
                            x       y       z     vdW  Elec       q    Type
                         _______ _______ _______ _____ _____    ______ ____

>  <TORSDO>
F 11

$$$$
=
 OpenBabel11042412093D

 37 41  0  0  1  0  0  0  0  0999 V2000
  187.5370  178.4120  140.2080 C   0  0  0  0  0  0  0  0  0  0  0  0
  185.1850  178.2900  146.3120 C   0  0  0  0  0  3  0  0  0  0  0  0
  186.4210  178.6040  139.3990 C   0  0  0  0  0  3  0  0  0  0  0  0
  184.9750  178.6460  141.2820 C   0  0  0  0  0  0  0  0  0  0  0  0
  184.1660  178.4810  145.3780 C   0  0  0  0  0  3  0  0  0  0  0  0
  185.7960  178.3850  143.5620 C   0  0  0  0  0  0  0  0  0  0  0  0
  186.5130  178.1490  145.8900 C   0  0  0  0  0  0  0  0  0  0  0  0
  187.3600  178.2730  141.6050 C   0  0  0  0  0  0  0  0  0  0  0  0
  183.4540  178.7180  143.1240 N   0  0  0  0  0  0  0  0  0  0  0  0
  186.8040  178.2000  144.5210 C   0  0  0  0  0  3  0  0  0  0  0  0
  183.6740  178.7790  141.7860 C   0  0  0  0  0  0  0  0  0  0  0  0
  185.1840  178.7070  139.9410 N   0  0  0  0  0  0  0  0  0  0  0  0
  184.4610  178.5300  144.0120 C   0  0  0  0  0  0  0  0  0  0  0  0
  186.0630  178.4410  142.1670 C   0  0  0  0  0  0  0  0  0  0  0  0
  189.4680  177.3450  147.6740 N   0  0  0  0  0  0  0  0  0  0  0  0
  187.5370  178.3020  148.1490 C   0  0  0  0  0  3  0  0  0  0  0  0
  187.5600  177.9470  146.8500 N   0  0  0  0  0  0  0  0  0  0  0  0
  188.7590  177.9150  148.6710 C   0  0  0  0  0  3  0  0  0  0  0  0
  188.7220  177.3770  146.5840 N   0  0  0  0  0  0  0  0  0  0  0  0
  182.5770  178.9780  140.8890 N   0  0  0  0  0  2  0  0  0  0  0  0
  181.5800  177.9500  140.6400 C   0  0  0  0  0  2  0  0  0  0  0  0
  182.6600  175.9990  139.7940 O   0  0  0  0  0  1  0  0  0  0  0  0
  181.9630  177.1450  139.4130 C   0  0  0  0  0  2  0  0  0  0  0  0
  188.8250  178.4180  139.5740 N   0  0  0  0  0  2  0  0  0  0  0  0
  189.2780  177.4470  138.5880 C   0  0  0  0  0  2  0  0  0  0  0  0
  189.3440  178.0920  137.2140 C   0  0  0  0  0  2  0  0  0  0  0  0
  187.3810  178.1740  135.9370 C   0  0  0  0  0  2  0  0  0  0  0  0
  188.5260  177.3420  136.2760 N   0  0  0  0  0  0  0  0  0  0  0  0
  187.9820  176.2040  137.0040 C   0  0  0  0  0  2  0  0  0  0  0  0
  186.5150  176.0650  136.6470 C   0  0  2  0  0  3  0  0  0  0  0  0
  186.3000  174.7940  135.8500 C   0  0  0  0  0  1  0  0  0  0  0  0
  186.1900  177.2600  135.7880 C   0  0  0  0  0  2  0  0  0  0  0  0
  188.4430  177.9410  142.4270 O   0  0  0  0  0  0  0  0  0  0  0  0
  189.0910  176.6740  142.3540 C   0  0  0  0  0  2  0  0  0  0  0  0
  190.5360  176.7800  142.8140 C   0  0  0  0  0  3  0  0  0  0  0  0
  190.6260  177.7800  143.9460 C   0  0  0  0  0  1  0  0  0  0  0  0
  191.4200  177.2420  141.6730 C   0  0  0  0  0  1  0  0  0  0  0  0
  1  8  1  0  0  0  0
  3 12  1  0  0  0  0
  3  1  2  0  0  0  0
  4 11  1  0  0  0  0
  4 14  1  0  0  0  0
  5  2  2  0  0  0  0
  6 13  2  0  0  0  0
  6 10  1  0  0  0  0
  7  2  1  0  0  0  0
  7 17  1  0  0  0  0
  8 14  2  0  0  0  0
  8 33  1  0  0  0  0
  9 13  1  0  0  0  0
 10  7  2  0  0  0  0
 11  9  2  0  0  0  0
 12  4  2  0  0  0  0
 13  5  1  0  0  0  0
 14  6  1  0  0  0  0
 15 18  1  0  0  0  0
 16 18  2  0  0  0  0
 17 16  1  0  0  0  0
 19 17  1  0  0  0  0
 19 15  2  0  0  0  0
 20 11  1  0  0  0  0
 21 20  1  0  0  0  0
 23 22  1  0  0  0  0
 23 21  1  0  0  0  0
 24  1  1  0  0  0  0
 25 24  1  0  0  0  0
 26 25  1  0  0  0  0
 27 28  1  0  0  0  0
 28 29  1  0  0  0  0
 28 26  1  0  0  0  0
 30 31  1  6  0  0  0
 30 29  1  0  0  0  0
 32 27  1  0  0  0  0
 32 30  1  0  0  0  0
 34 33  1  0  0  0  0
 34 35  1  0  0  0  0
 35 36  1  0  0  0  0
 37 35  1  0  0  0  0
M  END
>  <MODEL>
6

>  <REMARK>
 VINA RESULT:      -8.0      1.878      2.572
  Name = 
  11 active torsions:
  status: ('A' for Active; 'I' for Inactive)
    1  A    between atoms: C_1  and  C_2
    2  A    between atoms: C_1  and  O_32
    3  A    between atoms: C_3  and  N_26
    4  A    between atoms: C_6  and  N_19
    5  A    between atoms: C_6  and  C_36
    6  A    between atoms: C_12  and  N_21
    7  A    between atoms: C_13  and  O_32
    8  A    between atoms: N_14  and  C_37
    9  A    between atoms: N_19  and  C_24
   10  A    between atoms: N_26  and  C_28
   11  A    between atoms: C_28  and  C_37
                            x       y       z     vdW  Elec       q    Type
                         _______ _______ _______ _____ _____    ______ ____

>  <TORSDO>
F 11

$$$$
=
 OpenBabel11042412093D

 37 41  0  0  1  0  0  0  0  0999 V2000
  190.5840  176.9840  141.1390 C   0  0  0  0  0  0  0  0  0  0  0  0
  185.5320  178.2260  145.1060 C   0  0  0  0  0  3  0  0  0  0  0  0
  191.6650  176.7810  141.9900 C   0  0  0  0  0  3  0  0  0  0  0  0
  190.3160  177.1540  143.9090 C   0  0  0  0  0  0  0  0  0  0  0  0
  186.7020  177.9980  145.8290 C   0  0  0  0  0  3  0  0  0  0  0  0
  187.9390  177.6700  143.7500 C   0  0  0  0  0  0  0  0  0  0  0  0
  185.5450  178.1780  143.7060 C   0  0  0  0  0  0  0  0  0  0  0  0
  189.3300  177.3440  141.6900 C   0  0  0  0  0  0  0  0  0  0  0  0
  189.0240  177.4990  145.8900 N   0  0  0  0  0  0  0  0  0  0  0  0
  186.7470  177.8980  143.0440 C   0  0  0  0  0  3  0  0  0  0  0  0
  190.2180  177.2210  145.3050 C   0  0  0  0  0  0  0  0  0  0  0  0
  191.5150  176.8770  143.3330 N   0  0  0  0  0  0  0  0  0  0  0  0
  187.9000  177.7200  145.1650 C   0  0  0  0  0  0  0  0  0  0  0  0
  189.1710  177.3840  143.1030 C   0  0  0  0  0  0  0  0  0  0  0  0
  182.2900  178.9600  142.5430 N   0  0  0  0  0  0  0  0  0  0  0  0
  184.1810  178.2780  141.6320 C   0  0  0  0  0  3  0  0  0  0  0  0
  184.3420  178.4190  142.9620 N   0  0  0  0  0  0  0  0  0  0  0  0
  182.8670  178.6250  141.3700 C   0  0  0  0  0  3  0  0  0  0  0  0
  183.2020  178.8270  143.4890 N   0  0  0  0  0  0  0  0  0  0  0  0
  191.3760  176.9970  146.1150 N   0  0  0  0  0  2  0  0  0  0  0  0
  191.2870  176.4860  147.4720 C   0  0  0  0  0  2  0  0  0  0  0  0
  193.2650  176.2460  148.7830 O   0  0  0  0  0  1  0  0  0  0  0  0
  192.5040  175.6370  147.7860 C   0  0  0  0  0  2  0  0  0  0  0  0
  190.7930  176.7630  139.7360 N   0  0  0  0  0  2  0  0  0  0  0  0
  192.0940  176.6960  139.0830 C   0  0  0  0  0  2  0  0  0  0  0  0
  191.9150  176.5170  137.5850 C   0  0  0  0  0  2  0  0  0  0  0  0
  191.5270  174.2460  137.1530 C   0  0  0  0  0  2  0  0  0  0  0  0
  190.8750  175.5360  137.3250 N   0  0  0  0  0  0  0  0  0  0  0  0
  190.3020  175.8610  136.0260 C   0  0  0  0  0  2  0  0  0  0  0  0
  190.1350  174.5740  135.2410 C   0  0  2  0  0  3  0  0  0  0  0  0
  188.6610  174.2720  135.0590 C   0  0  0  0  0  1  0  0  0  0  0  0
  190.7700  173.4980  136.0830 C   0  0  0  0  0  2  0  0  0  0  0  0
  188.2630  177.6890  140.8530 O   0  0  0  0  0  0  0  0  0  0  0  0
  188.4020  178.6330  139.7950 C   0  0  0  0  0  2  0  0  0  0  0  0
  187.8790  178.0580  138.4880 C   0  0  0  0  0  3  0  0  0  0  0  0
  188.5740  178.7410  137.3300 C   0  0  0  0  0  1  0  0  0  0  0  0
  186.3840  178.2860  138.3720 C   0  0  0  0  0  1  0  0  0  0  0  0
  1  8  2  0  0  0  0
  1  3  1  0  0  0  0
  2  5  1  0  0  0  0
  3 12  2  0  0  0  0
  4 11  1  0  0  0  0
  6 13  1  0  0  0  0
  7  2  2  0  0  0  0
  8 14  1  0  0  0  0
 10  7  1  0  0  0  0
 10  6  2  0  0  0  0
 11  9  2  0  0  0  0
 11 20  1  0  0  0  0
 12  4  1  0  0  0  0
 13  5  2  0  0  0  0
 13  9  1  0  0  0  0
 14  6  1  0  0  0  0
 14  4  2  0  0  0  0
 15 19  2  0  0  0  0
 16 17  1  0  0  0  0
 17 19  1  0  0  0  0
 17  7  1  0  0  0  0
 18 16  2  0  0  0  0
 18 15  1  0  0  0  0
 20 21  1  0  0  0  0
 21 23  1  0  0  0  0
 23 22  1  0  0  0  0
 24  1  1  0  0  0  0
 25 24  1  0  0  0  0
 26 25  1  0  0  0  0
 27 28  1  0  0  0  0
 28 26  1  0  0  0  0
 29 28  1  0  0  0  0
 30 31  1  1  0  0  0
 30 29  1  0  0  0  0
 30 32  1  0  0  0  0
 32 27  1  0  0  0  0
 33  8  1  0  0  0  0
 34 33  1  0  0  0  0
 35 34  1  0  0  0  0
 36 35  1  0  0  0  0
 37 35  1  0  0  0  0
M  END
>  <MODEL>
7

>  <REMARK>
 VINA RESULT:      -7.9      2.290      6.434
  Name = 
  11 active torsions:
  status: ('A' for Active; 'I' for Inactive)
    1  A    between atoms: C_1  and  C_2
    2  A    between atoms: C_1  and  O_32
    3  A    between atoms: C_3  and  N_26
    4  A    between atoms: C_6  and  N_19
    5  A    between atoms: C_6  and  C_36
    6  A    between atoms: C_12  and  N_21
    7  A    between atoms: C_13  and  O_32
    8  A    between atoms: N_14  and  C_37
    9  A    between atoms: N_19  and  C_24
   10  A    between atoms: N_26  and  C_28
   11  A    between atoms: C_28  and  C_37
                            x       y       z     vdW  Elec       q    Type
                         _______ _______ _______ _____ _____    ______ ____

>  <TORSDO>
F 11

$$$$
=
 OpenBabel11042412093D

 37 41  0  0  1  0  0  0  0  0999 V2000
  185.9460  178.5890  140.4970 C   0  0  0  0  0  0  0  0  0  0  0  0
  186.8610  177.8680  146.9340 C   0  0  0  0  0  3  0  0  0  0  0  0
  184.6170  178.9820  140.3670 C   0  0  0  0  0  3  0  0  0  0  0  0
  184.2890  178.9010  142.7170 C   0  0  0  0  0  0  0  0  0  0  0  0
  185.5550  178.2680  146.6480 C   0  0  0  0  0  3  0  0  0  0  0  0
  186.0670  178.2710  144.2610 C   0  0  0  0  0  0  0  0  0  0  0  0
  187.7830  177.6700  145.8990 C   0  0  0  0  0  0  0  0  0  0  0  0
  186.4520  178.2830  141.7830 C   0  0  0  0  0  0  0  0  0  0  0  0
  183.8810  178.8610  145.0720 N   0  0  0  0  0  0  0  0  0  0  0  0
  187.3770  177.8750  144.5750 C   0  0  0  0  0  3  0  0  0  0  0  0
  183.4290  179.0780  143.8090 C   0  0  0  0  0  0  0  0  0  0  0  0
  183.8270  179.1200  141.4580 N   0  0  0  0  0  0  0  0  0  0  0  0
  185.1540  178.4700  145.3250 C   0  0  0  0  0  0  0  0  0  0  0  0
  185.6290  178.4870  142.9260 C   0  0  0  0  0  0  0  0  0  0  0  0
  190.8140  176.4990  147.3140 N   0  0  0  0  0  0  0  0  0  0  0  0
  190.1670  177.2460  145.3410 C   0  0  0  0  0  3  0  0  0  0  0  0
  189.1240  177.2530  146.1930 N   0  0  0  0  0  0  0  0  0  0  0  0
  191.2450  176.7630  146.0620 C   0  0  0  0  0  3  0  0  0  0  0  0
  189.5300  176.8030  147.3670 N   0  0  0  0  0  0  0  0  0  0  0  0
  182.0750  179.4880  143.5950 N   0  0  0  0  0  2  0  0  0  0  0  0
  180.9460  178.6210  143.8880 C   0  0  0  0  0  2  0  0  0  0  0  0
  180.4100  177.9200  141.6720 O   0  0  0  0  0  1  0  0  0  0  0  0
  179.9450  178.6740  142.7490 C   0  0  0  0  0  2  0  0  0  0  0  0
  186.7500  178.5670  139.3080 N   0  0  0  0  0  2  0  0  0  0  0  0
  186.2810  178.1780  137.9850 C   0  0  0  0  0  2  0  0  0  0  0  0
  186.8290  176.8090  137.6210 C   0  0  0  0  0  2  0  0  0  0  0  0
  184.5590  176.2260  137.5910 C   0  0  0  0  0  2  0  0  0  0  0  0
  185.8240  176.0520  136.8930 N   0  0  0  0  0  0  0  0  0  0  0  0
  186.1640  174.6440  137.0440 C   0  0  0  0  0  2  0  0  0  0  0  0
  184.8920  173.8750  137.3470 C   0  0  2  0  0  3  0  0  0  0  0  0
  184.5500  172.9700  136.1800 C   0  0  0  0  0  1  0  0  0  0  0  0
  183.8150  174.9160  137.5090 C   0  0  0  0  0  2  0  0  0  0  0  0
  187.7390  177.7540  141.9300 O   0  0  0  0  0  0  0  0  0  0  0  0
  188.8850  178.3730  141.3520 C   0  0  0  0  0  2  0  0  0  0  0  0
  189.8790  177.3260  140.8740 C   0  0  0  0  0  3  0  0  0  0  0  0
  191.1690  177.4730  141.6500 C   0  0  0  0  0  1  0  0  0  0  0  0
  190.1660  177.5090  139.3960 C   0  0  0  0  0  1  0  0  0  0  0  0
  1  8  1  0  0  0  0
  3  1  2  0  0  0  0
  3 12  1  0  0  0  0
  4 14  1  0  0  0  0
  4 11  1  0  0  0  0
  5  2  1  0  0  0  0
  6 10  2  0  0  0  0
  6 13  1  0  0  0  0
  7 17  1  0  0  0  0
  7  2  2  0  0  0  0
  8 33  1  0  0  0  0
  8 14  2  0  0  0  0
  9 13  1  0  0  0  0
 10  7  1  0  0  0  0
 11  9  2  0  0  0  0
 12  4  2  0  0  0  0
 13  5  2  0  0  0  0
 14  6  1  0  0  0  0
 15 19  2  0  0  0  0
 16 18  2  0  0  0  0
 16 17  1  0  0  0  0
 17 19  1  0  0  0  0
 18 15  1  0  0  0  0
 20 11  1  0  0  0  0
 20 21  1  0  0  0  0
 22 23  1  0  0  0  0
 23 21  1  0  0  0  0
 24  1  1  0  0  0  0
 25 24  1  0  0  0  0
 26 25  1  0  0  0  0
 28 29  1  0  0  0  0
 28 27  1  0  0  0  0
 28 26  1  0  0  0  0
 29 30  1  0  0  0  0
 30 31  1  6  0  0  0
 30 32  1  0  0  0  0
 32 27  1  0  0  0  0
 34 33  1  0  0  0  0
 35 34  1  0  0  0  0
 35 36  1  0  0  0  0
 37 35  1  0  0  0  0
M  END
>  <MODEL>
8

>  <REMARK>
 VINA RESULT:      -7.9      2.199      3.083
  Name = 
  11 active torsions:
  status: ('A' for Active; 'I' for Inactive)
    1  A    between atoms: C_1  and  C_2
    2  A    between atoms: C_1  and  O_32
    3  A    between atoms: C_3  and  N_26
    4  A    between atoms: C_6  and  N_19
    5  A    between atoms: C_6  and  C_36
    6  A    between atoms: C_12  and  N_21
    7  A    between atoms: C_13  and  O_32
    8  A    between atoms: N_14  and  C_37
    9  A    between atoms: N_19  and  C_24
   10  A    between atoms: N_26  and  C_28
   11  A    between atoms: C_28  and  C_37
                            x       y       z     vdW  Elec       q    Type
                         _______ _______ _______ _____ _____    ______ ____

>  <TORSDO>
F 11

$$$$
=
 OpenBabel11042412093D

 37 41  0  0  1  0  0  0  0  0999 V2000
  188.4320  177.9880  139.8840 C   0  0  0  0  0  0  0  0  0  0  0  0
  185.2370  178.4950  145.5700 C   0  0  0  0  0  3  0  0  0  0  0  0
  187.4840  178.2940  138.9130 C   0  0  0  0  0  3  0  0  0  0  0  0
  185.8040  178.6290  140.5570 C   0  0  0  0  0  0  0  0  0  0  0  0
  184.4020  178.7790  144.4900 C   0  0  0  0  0  3  0  0  0  0  0  0
  186.2430  178.3680  142.9410 C   0  0  0  0  0  0  0  0  0  0  0  0
  186.5770  178.1490  145.3560 C   0  0  0  0  0  0  0  0  0  0  0  0
  188.0380  177.9440  141.2430 C   0  0  0  0  0  0  0  0  0  0  0  0
  184.0620  179.0020  142.1500 N   0  0  0  0  0  0  0  0  0  0  0  0
  187.0660  178.0920  144.0440 C   0  0  0  0  0  3  0  0  0  0  0  0
  184.4770  178.9660  140.8580 C   0  0  0  0  0  0  0  0  0  0  0  0
  186.2100  178.5950  139.2610 N   0  0  0  0  0  0  0  0  0  0  0  0
  184.8920  178.7190  143.1830 C   0  0  0  0  0  0  0  0  0  0  0  0
  186.7130  178.3180  141.6010 C   0  0  0  0  0  0  0  0  0  0  0  0
  188.1620  177.7640  148.5020 N   0  0  0  0  0  0  0  0  0  0  0  0
  188.6090  177.1920  146.4180 C   0  0  0  0  0  3  0  0  0  0  0  0
  187.4360  177.8510  146.4660 N   0  0  0  0  0  0  0  0  0  0  0  0
  189.0700  177.1390  147.7220 C   0  0  0  0  0  3  0  0  0  0  0  0
  187.1850  178.1850  147.7190 N   0  0  0  0  0  0  0  0  0  0  0  0
  183.5610  179.2720  139.8030 N   0  0  0  0  0  2  0  0  0  0  0  0
  182.2490  178.6540  139.7100 C   0  0  0  0  0  2  0  0  0  0  0  0
  183.2280  177.9290  137.6600 O   0  0  0  0  0  1  0  0  0  0  0  0
  182.2400  177.6250  138.5950 C   0  0  0  0  0  2  0  0  0  0  0  0
  189.7850  177.7830  139.4490 N   0  0  0  0  0  2  0  0  0  0  0  0
  190.1790  177.3280  138.1230 C   0  0  0  0  0  2  0  0  0  0  0  0
  191.3520  176.3680  138.2300 C   0  0  0  0  0  2  0  0  0  0  0  0
  191.8590  174.3190  137.2110 C   0  0  0  0  0  2  0  0  0  0  0  0
  190.8900  175.0010  138.0550 N   0  0  0  0  0  0  0  0  0  0  0  0
  189.6640  175.0660  137.2710 C   0  0  0  0  0  2  0  0  0  0  0  0
  189.7170  173.9840  136.2100 C   0  0  2  0  0  3  0  0  0  0  0  0
  188.6710  172.9270  136.5050 C   0  0  0  0  0  1  0  0  0  0  0  0
  191.0910  173.3760  136.3170 C   0  0  0  0  0  2  0  0  0  0  0  0
  188.9330  177.5050  142.2250 O   0  0  0  0  0  0  0  0  0  0  0  0
  189.9080  178.3690  142.8040 C   0  0  0  0  0  2  0  0  0  0  0  0
  191.1330  177.5820  143.2410 C   0  0  0  0  0  3  0  0  0  0  0  0
  190.7350  176.1470  143.5070 C   0  0  0  0  0  1  0  0  0  0  0  0
  191.7170  178.1770  144.5080 C   0  0  0  0  0  1  0  0  0  0  0  0
  1  8  1  0  0  0  0
  3 12  1  0  0  0  0
  3  1  2  0  0  0  0
  4 11  1  0  0  0  0
  4 14  1  0  0  0  0
  5  2  2  0  0  0  0
  6 13  2  0  0  0  0
  6 10  1  0  0  0  0
  7  2  1  0  0  0  0
  7 17  1  0  0  0  0
  8 14  2  0  0  0  0
  8 33  1  0  0  0  0
  9 13  1  0  0  0  0
 10  7  2  0  0  0  0
 11  9  2  0  0  0  0
 12  4  2  0  0  0  0
 13  5  1  0  0  0  0
 14  6  1  0  0  0  0
 16 17  1  0  0  0  0
 16 18  2  0  0  0  0
 17 19  1  0  0  0  0
 18 15  1  0  0  0  0
 19 15  2  0  0  0  0
 20 11  1  0  0  0  0
 21 20  1  0  0  0  0
 22 23  1  0  0  0  0
 23 21  1  0  0  0  0
 24  1  1  0  0  0  0
 25 26  1  0  0  0  0
 25 24  1  0  0  0  0
 27 28  1  0  0  0  0
 28 26  1  0  0  0  0
 29 28  1  0  0  0  0
 30 32  1  0  0  0  0
 30 31  1  1  0  0  0
 30 29  1  0  0  0  0
 32 27  1  0  0  0  0
 33 34  1  0  0  0  0
 34 35  1  0  0  0  0
 35 36  1  0  0  0  0
 35 37  1  0  0  0  0
M  END
>  <MODEL>
9

>  <REMARK>
 VINA RESULT:      -7.9      1.935      2.610
  Name = 
  11 active torsions:
  status: ('A' for Active; 'I' for Inactive)
    1  A    between atoms: C_1  and  C_2
    2  A    between atoms: C_1  and  O_32
    3  A    between atoms: C_3  and  N_26
    4  A    between atoms: C_6  and  N_19
    5  A    between atoms: C_6  and  C_36
    6  A    between atoms: C_12  and  N_21
    7  A    between atoms: C_13  and  O_32
    8  A    between atoms: N_14  and  C_37
    9  A    between atoms: N_19  and  C_24
   10  A    between atoms: N_26  and  C_28
   11  A    between atoms: C_28  and  C_37
                            x       y       z     vdW  Elec       q    Type
                         _______ _______ _______ _____ _____    ______ ____

>  <TORSDO>
F 11

$$$$
