=
 OpenBabel11042411073D

 68 74  0  0  1  0  0  0  0  0999 V2000
  189.8250  176.9750  140.4160 C   0  0  2  0  0  0  0  0  0  0  0  0
  188.7650  176.1650  140.8450 O   0  0  0  0  0  1  0  0  0  0  0  0
  192.4160  175.6880  137.8200 C   0  0  0  0  0  0  0  0  0  0  0  0
  191.9270  174.9600  135.4120 C   0  0  2  0  0  3  0  0  0  0  0  0
  194.1930  174.6800  136.3880 C   0  0  0  0  0  2  0  0  0  0  0  0
  190.5140  176.5940  136.5840 N   0  0  0  0  0  2  0  0  0  0  0  0
  193.0720  173.9790  135.6350 C   0  0  0  0  0  2  0  0  0  0  0  0
  193.7050  175.3010  137.6730 C   0  0  0  0  0  0  0  0  0  0  0  0
  189.8420  177.0190  137.8260 C   0  0  0  0  0  2  0  0  0  0  0  0
  191.9370  176.3250  139.0980 C   0  0  0  0  0  2  0  0  0  0  0  0
  190.4060  176.3820  139.1170 C   0  0  1  0  0  3  0  0  0  0  0  0
  191.3570  175.4060  136.7630 C   0  0  2  0  0  3  0  0  0  0  0  0
  194.7130  175.5430  138.7560 C   0  0  0  0  0  2  0  0  0  0  0  0
  195.8330  174.6270  138.6080 N   0  0  0  0  0  2  0  0  0  0  0  0
  195.4260  173.4050  139.1580 N   0  0  0  0  0  2  0  0  0  0  0  0
  195.9910  172.4010  138.3590 N   0  0  0  0  0  2  0  0  0  0  0  0
  197.0810  173.0050  137.6120 C   0  0  0  0  0  2  0  0  0  0  0  0
  198.9660  172.5640  136.0780 C   0  0  0  0  0  2  0  0  0  0  0  0
  197.9920  171.9280  137.0500 C   0  0  0  0  0  3  0  0  0  0  0  0
  197.7650  171.8010  135.5580 C   0  0  0  0  0  2  0  0  0  0  0  0
  190.8300  174.2780  134.6060 C   0  0  0  0  0  2  0  0  0  0  0  0
  190.2380  173.1170  135.3830 C   0  0  0  0  0  2  0  0  0  0  0  0
  188.9480  172.7640  134.8090 N   0  0  0  0  0  2  0  0  0  0  0  0
  188.4990  173.2100  137.0660 O   0  0  0  0  0  1  0  0  0  0  0  0
  187.9200  173.0770  135.7950 C   0  0  1  0  0  3  0  0  0  0  0  0
  185.5760  174.9860  137.2720 O   0  0  0  0  0  0  0  0  0  0  0  0
  187.1500  174.3350  135.3610 C   0  0  1  0  0  3  0  0  0  0  0  0
  185.9390  174.0140  134.8070 O   0  0  0  0  0  0  0  0  0  0  0  0
  186.0730  174.5920  136.1840 C   0  0  0  0  0  0  0  0  0  0  0  0
  190.8700  177.0080  141.4990 C   0  0  0  0  0  3  0  0  0  0  0  0
  190.9790  178.0550  142.3180 C   0  0  0  0  0  3  0  0  0  0  0  0
  191.9760  178.0680  143.4210 C   0  0  0  0  0  2  0  0  0  0  0  0
  191.8500  176.7700  144.1990 C   0  0  0  0  0  2  0  0  0  0  0  0
  191.4430  176.7170  146.6590 C   0  0  0  0  0  3  0  0  0  0  0  0
  188.7650  177.5240  146.2950 C   0  0  0  0  0  0  0  0  0  0  0  0
  189.2800  177.2900  147.5980 C   0  0  0  0  0  0  0  0  0  0  0  0
  188.4910  177.4960  148.7650 N   0  0  0  0  0  1  0  0  0  0  0  0
  189.6270  177.3520  145.1960 C   0  0  0  0  0  3  0  0  0  0  0  0
  190.9520  176.9480  145.3730 C   0  0  0  0  0  0  0  0  0  0  0  0
  190.6090  176.8890  147.7640 C   0  0  0  0  0  3  0  0  0  0  0  0
  186.7530  178.9170  146.8500 C   0  0  0  0  0  3  0  0  0  0  0  0
  187.3560  177.9390  146.0390 C   0  0  0  0  0  0  0  0  0  0  0  0
  184.7040  178.7640  145.5730 C   0  0  0  0  0  0  0  0  0  0  0  0
  185.4360  179.3250  146.6200 C   0  0  0  0  0  3  0  0  0  0  0  0
  185.2890  177.7930  144.7550 C   0  0  0  0  0  3  0  0  0  0  0  0
  186.6070  177.3890  144.9860 C   0  0  0  0  0  3  0  0  0  0  0  0
  183.3940  179.1650  145.3500 O   0  0  0  0  0  1  0  0  0  0  0  0
  189.3230  178.4130  140.1670 C   0  0  0  0  0  2  0  0  0  0  0  0
  187.8050  178.6280  140.2130 C   0  0  1  0  0  3  0  0  0  0  0  0
  187.1160  177.7490  139.3740 O   0  0  0  0  0  0  0  0  0  0  0  0
  186.8080  178.5100  138.2420 C   0  0  0  0  0  1  0  0  0  0  0  0
  187.2960  178.5080  141.6390 C   0  0  0  0  0  2  0  0  0  0  0  0
  185.8320  178.2440  141.6210 C   0  0  0  0  0  3  0  0  0  0  0  0
  184.9710  179.2540  141.5210 C   0  0  0  0  0  3  0  0  0  0  0  0
  183.5000  178.9950  141.5090 C   0  0  0  0  0  2  0  0  0  0  0  0
  183.1740  178.0360  140.4640 N   0  0  0  0  0  2  0  0  0  0  0  0
  181.3540  179.4780  140.0480 O   0  0  0  0  0  0  0  0  0  0  0  0
  182.3750  178.7200  139.4540 C   0  0  2  0  0  0  0  0  0  0  0  0
  180.9410  178.3930  139.2430 C   0  0  1  0  0  3  0  0  0  0  0  0
  183.0550  179.4700  138.4930 O   0  0  0  0  0  1  0  0  0  0  0  0
  180.4360  177.2660  140.1420 C   0  0  2  0  0  3  0  0  0  0  0  0
  180.1840  175.9690  139.3560 C   0  0  2  0  0  3  0  0  0  0  0  0
  180.0190  174.8840  140.2140 O   0  0  0  0  0  1  0  0  0  0  0  0
  181.3010  175.6680  138.3620 C   0  0  0  0  0  2  0  0  0  0  0  0
  181.4260  174.2900  138.1600 O   0  0  0  0  0  0  0  0  0  0  0  0
  181.1790  174.1110  136.8000 C   0  0  0  0  0  1  0  0  0  0  0  0
  179.8420  178.4700  142.6020 S   0  0  0  0  0  1  0  0  0  0  0  0
  179.2770  177.7150  141.0400 C   0  0  0  0  0  2  0  0  0  0  0  0
  1  2  1  1  0  0  0
  1 30  1  0  0  0  0
  3 10  1  0  0  0  0
  4 21  1  6  0  0  0
  4  7  1  0  0  0  0
  4 12  1  0  0  0  0
  5  8  1  0  0  0  0
  6  9  1  0  0  0  0
  7  5  1  0  0  0  0
  8  3  2  0  0  0  0
  8 13  1  0  0  0  0
  9 11  1  0  0  0  0
 10 11  1  0  0  0  0
 11  1  1  1  0  0  0
 12  6  1  6  0  0  0
 12  3  1  0  0  0  0
 14 13  1  0  0  0  0
 14 15  1  0  0  0  0
 16 15  1  0  0  0  0
 17 16  1  0  0  0  0
 18 19  1  0  0  0  0
 19 17  1  0  0  0  0
 20 18  1  0  0  0  0
 20 19  1  0  0  0  0
 21 22  1  0  0  0  0
 23 22  1  0  0  0  0
 23 25  1  0  0  0  0
 25 24  1  1  0  0  0
 27 25  1  1  0  0  0
 27 29  1  0  0  0  0
 28 27  1  0  0  0  0
 28 29  1  0  0  0  0
 29 26  2  0  0  0  0
 30 31  2  0  0  0  0
 31 32  1  0  0  0  0
 32 33  1  0  0  0  0
 33 39  1  0  0  0  0
 34 40  1  0  0  0  0
 35 36  1  0  0  0  0
 36 40  2  0  0  0  0
 36 37  1  0  0  0  0
 38 39  1  0  0  0  0
 38 35  2  0  0  0  0
 39 34  2  0  0  0  0
 42 35  1  0  0  0  0
 42 41  2  0  0  0  0
 43 44  2  0  0  0  0
 44 41  1  0  0  0  0
 45 46  2  0  0  0  0
 45 43  1  0  0  0  0
 46 42  1  0  0  0  0
 47 43  1  0  0  0  0
 48  1  1  0  0  0  0
 49 48  1  1  0  0  0
 49 52  1  0  0  0  0
 50 49  1  0  0  0  0
 51 50  1  0  0  0  0
 53 52  1  0  0  0  0
 54 53  2  0  0  0  0
 55 54  1  0  0  0  0
 56 55  1  0  0  0  0
 58 60  1  6  0  0  0
 58 57  1  0  0  0  0
 58 56  1  0  0  0  0
 59 58  1  0  0  0  0
 59 57  1  0  0  0  0
 59 61  1  1  0  0  0
 61 68  1  6  0  0  0
 62 61  1  0  0  0  0
 62 63  1  1  0  0  0
 64 62  1  0  0  0  0
 65 64  1  0  0  0  0
 66 65  1  0  0  0  0
 68 67  1  0  0  0  0
M  END
>  <MODEL>
1

>  <REMARK>
 VINA RESULT:      -6.0      0.000      0.000
  Name = 
  30 active torsions:
  status: ('A' for Active; 'I' for Inactive)
    1  A    between atoms: C_4  and  C_25
    2  A    between atoms: C_4  and  N_65
    3  A    between atoms: O_6  and  C_38
    4  A    between atoms: N_7  and  N_22
    5  A    between atoms: N_7  and  N_68
    6  A    between atoms: C_8  and  C_12
    7  A    between atoms: C_9  and  C_25
    8  A    between atoms: C_13  and  N_24
    9  A    between atoms: O_14  and  C_63
   10  A    between atoms: C_17  and  C_43
   11  A    between atoms: C_20  and  C_50
   12  A    between atoms: C_20  and  C_63
   13  A    between atoms: C_21  and  C_44
   14  A    between atoms: C_21  and  N_65
   15  A    between atoms: N_22  and  C_49
   16  A    between atoms: N_24  and  C_56
   17  A    between atoms: C_26  and  C_34
   18  A    between atoms: C_26  and  C_38
   19  A    between atoms: C_30  and  C_59
   20  A    between atoms: C_32  and  C_56
   21  A    between atoms: C_34  and  C_55
   22  A    between atoms: C_34  and  C_64
   23  A    between atoms: C_35  and  C_50
   24  A    between atoms: C_36  and  C_54
   25  A    between atoms: C_36  and  C_60
   26  A    between atoms: C_38  and  C_43
   27  A    between atoms: C_40  and  C_49
   28  A    between atoms: C_48  and  C_50
   29  A    between atoms: C_54  and  C_67
   30  A    between atoms: C_59  and  N_68
                            x       y       z     vdW  Elec       q    Type
                         _______ _______ _______ _____ _____    ______ ____

>  <TORSDO>
F 30

$$$$
=
 OpenBabel11042411073D

 68 74  0  0  1  0  0  0  0  0999 V2000
  188.6170  177.0020  136.6890 C   0  0  2  0  0  0  0  0  0  0  0  0
  188.8770  178.2660  136.1440 O   0  0  0  0  0  1  0  0  0  0  0  0
  187.3660  178.0320  140.2220 C   0  0  0  0  0  0  0  0  0  0  0  0
  188.5720  177.6210  142.4460 C   0  0  2  0  0  3  0  0  0  0  0  0
  186.2800  178.5770  142.4020 C   0  0  0  0  0  2  0  0  0  0  0  0
  189.7980  177.8310  140.3260 N   0  0  0  0  0  2  0  0  0  0  0  0
  187.1640  177.5000  143.0150 C   0  0  0  0  0  2  0  0  0  0  0  0
  186.3010  178.5290  140.8950 C   0  0  0  0  0  0  0  0  0  0  0  0
  189.8860  177.5290  138.8840 C   0  0  0  0  0  2  0  0  0  0  0  0
  187.3890  178.0040  138.7160 C   0  0  0  0  0  2  0  0  0  0  0  0
  188.5470  177.1300  138.2240 C   0  0  1  0  0  3  0  0  0  0  0  0
  188.5420  177.3760  140.9330 C   0  0  2  0  0  3  0  0  0  0  0  0
  185.1320  179.1190  140.1640 C   0  0  0  0  0  2  0  0  0  0  0  0
  184.0350  179.3560  141.0880 N   0  0  0  0  0  2  0  0  0  0  0  0
  183.0190  178.4550  140.7440 N   0  0  0  0  0  2  0  0  0  0  0  0
  182.0850  179.1770  139.9880 N   0  0  0  0  0  2  0  0  0  0  0  0
  180.9480  179.4500  140.8500 C   0  0  0  0  0  2  0  0  0  0  0  0
  179.6500  178.6950  142.8110 C   0  0  0  0  0  2  0  0  0  0  0  0
  180.8970  178.4440  141.9860 C   0  0  0  0  0  3  0  0  0  0  0  0
  180.9980  179.1710  143.3100 C   0  0  0  0  0  2  0  0  0  0  0  0
  189.4710  176.5830  143.1020 C   0  0  0  0  0  2  0  0  0  0  0  0
  190.5990  177.2560  143.8630 C   0  0  0  0  0  2  0  0  0  0  0  0
  190.0370  178.1760  144.8390 N   0  0  0  0  0  2  0  0  0  0  0  0
  190.4180  177.1270  146.9000 O   0  0  0  0  0  1  0  0  0  0  0  0
  189.4530  177.3840  145.9160 C   0  0  1  0  0  3  0  0  0  0  0  0
  188.1130  177.6410  148.9910 O   0  0  0  0  0  0  0  0  0  0  0  0
  188.2130  178.1010  146.4750 C   0  0  1  0  0  3  0  0  0  0  0  0
  187.1330  177.2610  146.5320 O   0  0  0  0  0  0  0  0  0  0  0  0
  187.9020  177.6770  147.7510 C   0  0  0  0  0  0  0  0  0  0  0  0
  189.7280  176.0690  136.2840 C   0  0  0  0  0  3  0  0  0  0  0  0
  190.6090  176.4170  135.3450 C   0  0  0  0  0  3  0  0  0  0  0  0
  191.7370  175.5200  134.9800 C   0  0  0  0  0  2  0  0  0  0  0  0
  191.2730  174.0810  135.1190 C   0  0  0  0  0  2  0  0  0  0  0  0
  192.3120  171.8340  135.4220 C   0  0  0  0  0  3  0  0  0  0  0  0
  194.5610  172.9770  136.6840 C   0  0  0  0  0  0  0  0  0  0  0  0
  194.4740  171.5720  136.4910 C   0  0  0  0  0  0  0  0  0  0  0  0
  195.5280  170.6960  136.8770 N   0  0  0  0  0  1  0  0  0  0  0  0
  193.5020  173.7800  136.2210 C   0  0  0  0  0  3  0  0  0  0  0  0
  192.3850  173.2170  135.6010 C   0  0  0  0  0  0  0  0  0  0  0  0
  193.3540  171.0200  135.8650 C   0  0  0  0  0  3  0  0  0  0  0  0
  195.6970  173.8460  138.7460 C   0  0  0  0  0  3  0  0  0  0  0  0
  195.7180  173.6370  137.3550 C   0  0  0  0  0  0  0  0  0  0  0  0
  197.8910  174.8610  138.6610 C   0  0  0  0  0  0  0  0  0  0  0  0
  196.7750  174.4550  139.3940 C   0  0  0  0  0  3  0  0  0  0  0  0
  197.9290  174.6580  137.2790 C   0  0  0  0  0  3  0  0  0  0  0  0
  196.8510  174.0470  136.6340 C   0  0  0  0  0  3  0  0  0  0  0  0
  198.9580  175.4730  139.3050 O   0  0  0  0  0  1  0  0  0  0  0  0
  187.2830  176.4540  136.1400 C   0  0  0  0  0  2  0  0  0  0  0  0
  187.0100  174.9610  136.3630 C   0  0  1  0  0  3  0  0  0  0  0  0
  188.1160  174.2900  136.8880 O   0  0  0  0  0  0  0  0  0  0  0  0
  187.7820  172.9340  136.7990 C   0  0  0  0  0  1  0  0  0  0  0  0
  185.8000  174.7730  137.2610 C   0  0  0  0  0  2  0  0  0  0  0  0
  184.7620  175.7800  136.9110 C   0  0  0  0  0  3  0  0  0  0  0  0
  184.0130  175.6190  135.8230 C   0  0  0  0  0  3  0  0  0  0  0  0
  182.9730  176.6290  135.4650 C   0  0  0  0  0  2  0  0  0  0  0  0
  181.9260  176.6430  136.4760 N   0  0  0  0  0  2  0  0  0  0  0  0
  179.6160  177.0780  136.6740 O   0  0  0  0  0  0  0  0  0  0  0  0
  180.6390  176.6920  135.7940 C   0  0  2  0  0  0  0  0  0  0  0  0
  179.5310  175.7680  136.1530 C   0  0  1  0  0  3  0  0  0  0  0  0
  180.5670  177.4150  134.6020 O   0  0  0  0  0  1  0  0  0  0  0  0
  179.9050  174.7680  137.2460 C   0  0  2  0  0  3  0  0  0  0  0  0
  180.1450  173.3580  136.6830 C   0  0  2  0  0  3  0  0  0  0  0  0
  179.3640  172.4120  137.3420 O   0  0  0  0  0  1  0  0  0  0  0  0
  181.6120  172.9480  136.7560 C   0  0  0  0  0  2  0  0  0  0  0  0
  181.7310  171.5810  137.0240 O   0  0  0  0  0  0  0  0  0  0  0  0
  183.1020  171.3330  136.9800 C   0  0  0  0  0  1  0  0  0  0  0  0
  179.7330  175.5160  139.9410 S   0  0  0  0  0  1  0  0  0  0  0  0
  178.9480  174.8340  138.4430 C   0  0  0  0  0  2  0  0  0  0  0  0
  1  2  1  6  0  0  0
  3  8  2  0  0  0  0
  4  7  1  0  0  0  0
  4 21  1  1  0  0  0
  5  7  1  0  0  0  0
  6 12  1  0  0  0  0
  8  5  1  0  0  0  0
  9  6  1  0  0  0  0
 10  3  1  0  0  0  0
 11  1  1  6  0  0  0
 11 10  1  0  0  0  0
 11  9  1  0  0  0  0
 12  3  1  6  0  0  0
 12  4  1  0  0  0  0
 13  8  1  0  0  0  0
 13 14  1  0  0  0  0
 15 14  1  0  0  0  0
 16 15  1  0  0  0  0
 16 17  1  0  0  0  0
 17 19  1  0  0  0  0
 18 20  1  0  0  0  0
 19 18  1  0  0  0  0
 19 20  1  0  0  0  0
 21 22  1  0  0  0  0
 22 23  1  0  0  0  0
 23 25  1  0  0  0  0
 25 24  1  1  0  0  0
 27 25  1  6  0  0  0
 27 28  1  0  0  0  0
 27 29  1  0  0  0  0
 28 29  1  0  0  0  0
 29 26  2  0  0  0  0
 30  1  1  0  0  0  0
 31 30  2  0  0  0  0
 32 33  1  0  0  0  0
 32 31  1  0  0  0  0
 33 39  1  0  0  0  0
 34 39  2  0  0  0  0
 34 40  1  0  0  0  0
 35 42  1  0  0  0  0
 36 35  1  0  0  0  0
 36 37  1  0  0  0  0
 38 35  2  0  0  0  0
 39 38  1  0  0  0  0
 40 36  2  0  0  0  0
 41 44  1  0  0  0  0
 42 41  2  0  0  0  0
 43 47  1  0  0  0  0
 43 44  2  0  0  0  0
 45 43  1  0  0  0  0
 46 45  2  0  0  0  0
 46 42  1  0  0  0  0
 48  1  1  0  0  0  0
 49 48  1  1  0  0  0
 49 50  1  0  0  0  0
 49 52  1  0  0  0  0
 51 50  1  0  0  0  0
 53 52  1  0  0  0  0
 54 53  2  0  0  0  0
 55 54  1  0  0  0  0
 55 56  1  0  0  0  0
 58 60  1  6  0  0  0
 58 59  1  0  0  0  0
 58 56  1  0  0  0  0
 58 57  1  0  0  0  0
 59 57  1  0  0  0  0
 59 61  1  1  0  0  0
 61 68  1  1  0  0  0
 62 64  1  0  0  0  0
 62 61  1  0  0  0  0
 62 63  1  1  0  0  0
 64 65  1  0  0  0  0
 66 65  1  0  0  0  0
 68 67  1  0  0  0  0
M  END
>  <MODEL>
2

>  <REMARK>
 VINA RESULT:      -5.9      2.778     10.274
  Name = 
  30 active torsions:
  status: ('A' for Active; 'I' for Inactive)
    1  A    between atoms: C_4  and  C_25
    2  A    between atoms: C_4  and  N_65
    3  A    between atoms: O_6  and  C_38
    4  A    between atoms: N_7  and  N_22
    5  A    between atoms: N_7  and  N_68
    6  A    between atoms: C_8  and  C_12
    7  A    between atoms: C_9  and  C_25
    8  A    between atoms: C_13  and  N_24
    9  A    between atoms: O_14  and  C_63
   10  A    between atoms: C_17  and  C_43
   11  A    between atoms: C_20  and  C_50
   12  A    between atoms: C_20  and  C_63
   13  A    between atoms: C_21  and  C_44
   14  A    between atoms: C_21  and  N_65
   15  A    between atoms: N_22  and  C_49
   16  A    between atoms: N_24  and  C_56
   17  A    between atoms: C_26  and  C_34
   18  A    between atoms: C_26  and  C_38
   19  A    between atoms: C_30  and  C_59
   20  A    between atoms: C_32  and  C_56
   21  A    between atoms: C_34  and  C_55
   22  A    between atoms: C_34  and  C_64
   23  A    between atoms: C_35  and  C_50
   24  A    between atoms: C_36  and  C_54
   25  A    between atoms: C_36  and  C_60
   26  A    between atoms: C_38  and  C_43
   27  A    between atoms: C_40  and  C_49
   28  A    between atoms: C_48  and  C_50
   29  A    between atoms: C_54  and  C_67
   30  A    between atoms: C_59  and  N_68
                            x       y       z     vdW  Elec       q    Type
                         _______ _______ _______ _____ _____    ______ ____

>  <TORSDO>
F 30

$$$$
=
 OpenBabel11042411073D

 68 74  0  0  1  0  0  0  0  0999 V2000
  188.1350  178.0760  139.9280 C   0  0  2  0  0  0  0  0  0  0  0  0
  188.6720  179.3620  139.7790 O   0  0  0  0  0  1  0  0  0  0  0  0
  187.5220  176.1530  136.6070 C   0  0  0  0  0  0  0  0  0  0  0  0
  185.7690  176.7140  134.8220 C   0  0  2  0  0  3  0  0  0  0  0  0
  187.1440  174.6530  134.6490 C   0  0  0  0  0  2  0  0  0  0  0  0
  186.7090  178.4360  136.3030 N   0  0  0  0  0  2  0  0  0  0  0  0
  185.7270  175.2060  134.6040 C   0  0  0  0  0  2  0  0  0  0  0  0
  187.8560  175.0330  135.9230 C   0  0  0  0  0  0  0  0  0  0  0  0
  187.1600  178.8320  137.6510 C   0  0  0  0  0  2  0  0  0  0  0  0
  188.2480  176.5390  137.8680 C   0  0  0  0  0  2  0  0  0  0  0  0
  187.4880  177.6520  138.5950 C   0  0  1  0  0  3  0  0  0  0  0  0
  186.3330  177.0210  136.2140 C   0  0  2  0  0  3  0  0  0  0  0  0
  188.9980  174.1690  136.3660 C   0  0  0  0  0  2  0  0  0  0  0  0
  188.5890  172.7740  136.3860 N   0  0  0  0  0  2  0  0  0  0  0  0
  187.3590  172.7070  135.7180 N   0  0  0  0  0  2  0  0  0  0  0  0
  186.6120  171.7090  136.3590 N   0  0  0  0  0  2  0  0  0  0  0  0
  185.3380  172.2970  136.7380 C   0  0  0  0  0  2  0  0  0  0  0  0
  183.0480  171.3730  136.7420 C   0  0  0  0  0  2  0  0  0  0  0  0
  184.2250  171.7480  135.8640 C   0  0  0  0  0  3  0  0  0  0  0  0
  183.9750  170.2970  136.2160 C   0  0  0  0  0  2  0  0  0  0  0  0
  184.3600  177.2780  134.7190 C   0  0  0  0  0  2  0  0  0  0  0  0
  183.8410  177.6800  136.0870 C   0  0  0  0  0  2  0  0  0  0  0  0
  183.1490  176.5500  136.6890 N   0  0  0  0  0  2  0  0  0  0  0  0
  182.2850  177.0970  138.7970 O   0  0  0  0  0  1  0  0  0  0  0  0
  182.0020  177.0690  137.4240 C   0  0  1  0  0  3  0  0  0  0  0  0
  182.3470  180.2100  138.5810 O   0  0  0  0  0  0  0  0  0  0  0  0
  181.6130  178.4510  136.8720 C   0  0  1  0  0  3  0  0  0  0  0  0
  180.3960  178.8560  137.3520 O   0  0  0  0  0  0  0  0  0  0  0  0
  181.6920  179.4340  137.8370 C   0  0  0  0  0  0  0  0  0  0  0  0
  187.1080  178.1130  141.0290 C   0  0  0  0  0  3  0  0  0  0  0  0
  186.5090  179.2540  141.3730 C   0  0  0  0  0  3  0  0  0  0  0  0
  185.4580  179.2840  142.4240 C   0  0  0  0  0  2  0  0  0  0  0  0
  185.4440  177.9400  143.1300 C   0  0  0  0  0  2  0  0  0  0  0  0
  185.1820  178.6580  145.5040 C   0  0  0  0  0  3  0  0  0  0  0  0
  187.7660  177.7200  146.1370 C   0  0  0  0  0  0  0  0  0  0  0  0
  186.9470  178.3150  147.1330 C   0  0  0  0  0  0  0  0  0  0  0  0
  187.3710  178.4190  148.4890 N   0  0  0  0  0  1  0  0  0  0  0  0
  187.2500  177.6030  144.8330 C   0  0  0  0  0  3  0  0  0  0  0  0
  185.9730  178.0710  144.5150 C   0  0  0  0  0  0  0  0  0  0  0  0
  185.6690  178.7770  146.8060 C   0  0  0  0  0  3  0  0  0  0  0  0
  189.3830  176.3860  147.5160 C   0  0  0  0  0  3  0  0  0  0  0  0
  189.1440  177.2180  146.4070 C   0  0  0  0  0  0  0  0  0  0  0  0
  191.7270  176.2330  146.9390 C   0  0  0  0  0  0  0  0  0  0  0  0
  190.6660  175.8980  147.7810 C   0  0  0  0  0  3  0  0  0  0  0  0
  191.5060  177.0550  145.8310 C   0  0  0  0  0  3  0  0  0  0  0  0
  190.2220  177.5390  145.5670 C   0  0  0  0  0  3  0  0  0  0  0  0
  193.0020  175.7530  147.2070 O   0  0  0  0  0  1  0  0  0  0  0  0
  189.2470  177.0820  140.3200 C   0  0  0  0  0  2  0  0  0  0  0  0
  190.4840  177.6700  141.0110 C   0  0  1  0  0  3  0  0  0  0  0  0
  190.5330  177.3560  142.3710 O   0  0  0  0  0  0  0  0  0  0  0  0
  190.4800  175.9590  142.4140 C   0  0  0  0  0  1  0  0  0  0  0  0
  191.7510  177.2060  140.3140 C   0  0  0  0  0  2  0  0  0  0  0  0
  191.3990  176.5890  139.0070 C   0  0  0  0  0  3  0  0  0  0  0  0
  192.2370  175.7360  138.4220 C   0  0  0  0  0  3  0  0  0  0  0  0
  191.8910  175.1180  137.1080 C   0  0  0  0  0  2  0  0  0  0  0  0
  192.6540  173.8930  136.9190 N   0  0  0  0  0  2  0  0  0  0  0  0
  193.2550  172.5140  135.1020 O   0  0  0  0  0  0  0  0  0  0  0  0
  193.0920  173.8410  135.5300 C   0  0  2  0  0  0  0  0  0  0  0  0
  194.4260  173.3030  135.1530 C   0  0  1  0  0  3  0  0  0  0  0  0
  192.3630  174.5780  134.5960 O   0  0  0  0  0  1  0  0  0  0  0  0
  195.2680  172.8720  136.3520 C   0  0  2  0  0  3  0  0  0  0  0  0
  196.6740  173.4930  136.3250 C   0  0  2  0  0  3  0  0  0  0  0  0
  196.7870  174.5250  137.2540 O   0  0  0  0  0  1  0  0  0  0  0  0
  197.0510  174.0100  134.9410 C   0  0  0  0  0  2  0  0  0  0  0  0
  198.4320  173.9210  134.7380 O   0  0  0  0  0  0  0  0  0  0  0  0
  198.9310  175.1450  135.1800 C   0  0  0  0  0  1  0  0  0  0  0  0
  196.7630  170.7120  137.3280 S   0  0  0  0  0  1  0  0  0  0  0  0
  195.2340  171.3540  136.5700 C   0  0  0  0  0  2  0  0  0  0  0  0
  1  2  1  6  0  0  0
  1 48  1  0  0  0  0
  1 30  1  0  0  0  0
  3 10  1  0  0  0  0
  4 21  1  1  0  0  0
  4 12  1  0  0  0  0
  5  8  1  0  0  0  0
  6  9  1  0  0  0  0
  7  5  1  0  0  0  0
  7  4  1  0  0  0  0
  8 13  1  0  0  0  0
  8  3  2  0  0  0  0
  9 11  1  0  0  0  0
 10 11  1  0  0  0  0
 11  1  1  1  0  0  0
 12  6  1  6  0  0  0
 12  3  1  0  0  0  0
 13 14  1  0  0  0  0
 15 16  1  0  0  0  0
 15 14  1  0  0  0  0
 16 17  1  0  0  0  0
 19 20  1  0  0  0  0
 19 17  1  0  0  0  0
 19 18  1  0  0  0  0
 20 18  1  0  0  0  0
 21 22  1  0  0  0  0
 22 23  1  0  0  0  0
 23 25  1  0  0  0  0
 25 24  1  1  0  0  0
 27 28  1  0  0  0  0
 27 25  1  1  0  0  0
 27 29  1  0  0  0  0
 28 29  1  0  0  0  0
 29 26  2  0  0  0  0
 30 31  2  0  0  0  0
 31 32  1  0  0  0  0
 32 33  1  0  0  0  0
 33 39  1  0  0  0  0
 34 40  1  0  0  0  0
 35 42  1  0  0  0  0
 35 36  1  0  0  0  0
 36 37  1  0  0  0  0
 38 35  2  0  0  0  0
 39 38  1  0  0  0  0
 39 34  2  0  0  0  0
 40 36  2  0  0  0  0
 41 44  1  0  0  0  0
 42 41  2  0  0  0  0
 43 47  1  0  0  0  0
 43 44  2  0  0  0  0
 45 43  1  0  0  0  0
 46 45  2  0  0  0  0
 46 42  1  0  0  0  0
 48 49  1  0  0  0  0
 49 52  1  6  0  0  0
 49 50  1  0  0  0  0
 50 51  1  0  0  0  0
 53 52  1  0  0  0  0
 54 53  2  0  0  0  0
 55 54  1  0  0  0  0
 56 55  1  0  0  0  0
 57 59  1  0  0  0  0
 57 58  1  0  0  0  0
 58 60  1  6  0  0  0
 58 56  1  0  0  0  0
 59 58  1  0  0  0  0
 59 61  1  1  0  0  0
 61 68  1  6  0  0  0
 62 61  1  0  0  0  0
 62 63  1  1  0  0  0
 64 62  1  0  0  0  0
 65 64  1  0  0  0  0
 65 66  1  0  0  0  0
 68 67  1  0  0  0  0
M  END
>  <MODEL>
3

>  <REMARK>
 VINA RESULT:      -5.3      3.674      9.317
  Name = 
  30 active torsions:
  status: ('A' for Active; 'I' for Inactive)
    1  A    between atoms: C_4  and  C_25
    2  A    between atoms: C_4  and  N_65
    3  A    between atoms: O_6  and  C_38
    4  A    between atoms: N_7  and  N_22
    5  A    between atoms: N_7  and  N_68
    6  A    between atoms: C_8  and  C_12
    7  A    between atoms: C_9  and  C_25
    8  A    between atoms: C_13  and  N_24
    9  A    between atoms: O_14  and  C_63
   10  A    between atoms: C_17  and  C_43
   11  A    between atoms: C_20  and  C_50
   12  A    between atoms: C_20  and  C_63
   13  A    between atoms: C_21  and  C_44
   14  A    between atoms: C_21  and  N_65
   15  A    between atoms: N_22  and  C_49
   16  A    between atoms: N_24  and  C_56
   17  A    between atoms: C_26  and  C_34
   18  A    between atoms: C_26  and  C_38
   19  A    between atoms: C_30  and  C_59
   20  A    between atoms: C_32  and  C_56
   21  A    between atoms: C_34  and  C_55
   22  A    between atoms: C_34  and  C_64
   23  A    between atoms: C_35  and  C_50
   24  A    between atoms: C_36  and  C_54
   25  A    between atoms: C_36  and  C_60
   26  A    between atoms: C_38  and  C_43
   27  A    between atoms: C_40  and  C_49
   28  A    between atoms: C_48  and  C_50
   29  A    between atoms: C_54  and  C_67
   30  A    between atoms: C_59  and  N_68
                            x       y       z     vdW  Elec       q    Type
                         _______ _______ _______ _____ _____    ______ ____

>  <TORSDO>
F 30

$$$$
=
 OpenBabel11042411073D

 68 74  0  0  1  0  0  0  0  0999 V2000
  188.8030  177.7290  138.4570 C   0  0  2  0  0  0  0  0  0  0  0  0
  189.1430  179.0880  138.5060 O   0  0  0  0  0  1  0  0  0  0  0  0
  185.2970  176.7540  137.0930 C   0  0  0  0  0  0  0  0  0  0  0  0
  183.0340  177.5190  138.0210 C   0  0  2  0  0  3  0  0  0  0  0  0
  183.1560  175.8300  136.2050 C   0  0  0  0  0  2  0  0  0  0  0  0
  185.0670  178.8760  138.2810 N   0  0  0  0  0  2  0  0  0  0  0  0
  182.5520  176.1470  137.5650 C   0  0  0  0  0  2  0  0  0  0  0  0
  184.6600  175.9390  136.2180 C   0  0  0  0  0  0  0  0  0  0  0  0
  186.5150  178.9380  138.5550 C   0  0  0  0  0  2  0  0  0  0  0  0
  186.7990  176.8740  137.0900 C   0  0  0  0  0  2  0  0  0  0  0  0
  187.2710  177.6050  138.3510 C   0  0  1  0  0  3  0  0  0  0  0  0
  184.5570  177.5030  138.1930 C   0  0  2  0  0  3  0  0  0  0  0  0
  185.4230  175.1720  135.1810 C   0  0  0  0  0  2  0  0  0  0  0  0
  184.7030  173.9590  134.8280 N   0  0  0  0  0  2  0  0  0  0  0  0
  184.6710  173.1620  135.9790 N   0  0  0  0  0  2  0  0  0  0  0  0
  184.5380  171.8360  135.5420 N   0  0  0  0  0  2  0  0  0  0  0  0
  183.1840  171.6810  135.0370 C   0  0  0  0  0  2  0  0  0  0  0  0
  180.8600  171.6910  135.8730 C   0  0  0  0  0  2  0  0  0  0  0  0
  182.2000  172.3960  135.9450 C   0  0  0  0  0  3  0  0  0  0  0  0
  181.0790  172.9820  135.1130 C   0  0  0  0  0  2  0  0  0  0  0  0
  182.3840  177.8640  139.3530 C   0  0  0  0  0  2  0  0  0  0  0  0
  181.9090  179.3060  139.3600 C   0  0  0  0  0  2  0  0  0  0  0  0
  180.5880  179.3790  138.7540 N   0  0  0  0  0  2  0  0  0  0  0  0
  179.1220  178.3910  140.2930 O   0  0  0  0  0  1  0  0  0  0  0  0
  179.6210  179.6130  139.8200 C   0  0  1  0  0  3  0  0  0  0  0  0
  180.5260  178.9700  142.9960 O   0  0  0  0  0  0  0  0  0  0  0  0
  180.2660  180.4590  140.9300 C   0  0  1  0  0  3  0  0  0  0  0  0
  179.3200  181.0090  141.7540 O   0  0  0  0  0  0  0  0  0  0  0  0
  180.1770  179.8480  142.1640 C   0  0  0  0  0  0  0  0  0  0  0  0
  189.3040  177.0670  139.7130 C   0  0  0  0  0  3  0  0  0  0  0  0
  190.6020  177.0700  140.0230 C   0  0  0  0  0  3  0  0  0  0  0  0
  191.0920  176.4620  141.2870 C   0  0  0  0  0  2  0  0  0  0  0  0
  191.5920  177.5730  142.1940 C   0  0  0  0  0  2  0  0  0  0  0  0
  191.6180  177.2880  144.6720 C   0  0  0  0  0  3  0  0  0  0  0  0
  188.8330  177.7110  144.8120 C   0  0  0  0  0  0  0  0  0  0  0  0
  189.5890  177.4660  145.9890 C   0  0  0  0  0  0  0  0  0  0  0  0
  188.9890  177.4710  147.2810 N   0  0  0  0  0  1  0  0  0  0  0  0
  189.5120  177.7470  143.5800 C   0  0  0  0  0  3  0  0  0  0  0  0
  190.8900  177.5330  143.5060 C   0  0  0  0  0  0  0  0  0  0  0  0
  190.9690  177.2570  145.9050 C   0  0  0  0  0  3  0  0  0  0  0  0
  186.6900  178.1630  146.0370 C   0  0  0  0  0  3  0  0  0  0  0  0
  187.3580  177.9300  144.8210 C   0  0  0  0  0  0  0  0  0  0  0  0
  184.5770  178.3670  144.8770 C   0  0  0  0  0  0  0  0  0  0  0  0
  185.3090  178.3780  146.0650 C   0  0  0  0  0  3  0  0  0  0  0  0
  185.2260  178.1410  143.6600 C   0  0  0  0  0  3  0  0  0  0  0  0
  186.6070  177.9280  143.6350 C   0  0  0  0  0  3  0  0  0  0  0  0
  183.2050  178.5740  144.9070 O   0  0  0  0  0  1  0  0  0  0  0  0
  189.4770  177.0600  137.2410 C   0  0  0  0  0  2  0  0  0  0  0  0
  189.2710  175.5490  137.0860 C   0  0  1  0  0  3  0  0  0  0  0  0
  189.0340  175.1770  135.7600 O   0  0  0  0  0  0  0  0  0  0  0  0
  189.9710  175.9030  135.0170 C   0  0  0  0  0  1  0  0  0  0  0  0
  190.4630  174.7920  137.6430 C   0  0  0  0  0  2  0  0  0  0  0  0
  190.9510  173.8190  136.6280 C   0  0  0  0  0  3  0  0  0  0  0  0
  192.1930  173.9070  136.1590 C   0  0  0  0  0  3  0  0  0  0  0  0
  192.6850  172.9370  135.1360 C   0  0  0  0  0  2  0  0  0  0  0  0
  194.1410  172.9140  135.1340 N   0  0  0  0  0  2  0  0  0  0  0  0
  196.0170  174.3020  135.4770 O   0  0  0  0  0  0  0  0  0  0  0  0
  194.6150  174.2650  135.4050 C   0  0  2  0  0  0  0  0  0  0  0  0
  195.3210  174.6040  136.6690 C   0  0  1  0  0  3  0  0  0  0  0  0
  194.1320  175.2930  134.5940 O   0  0  0  0  0  1  0  0  0  0  0  0
  195.4420  173.4250  137.6320 C   0  0  2  0  0  3  0  0  0  0  0  0
  196.3180  173.7610  138.8500 C   0  0  2  0  0  3  0  0  0  0  0  0
  195.5450  174.2130  139.9170 O   0  0  0  0  0  1  0  0  0  0  0  0
  197.3900  174.7950  138.5240 C   0  0  0  0  0  2  0  0  0  0  0  0
  197.7360  175.5270  139.6640 O   0  0  0  0  0  0  0  0  0  0  0  0
  199.0850  175.8330  139.4890 C   0  0  0  0  0  1  0  0  0  0  0  0
  195.3810  170.6340  137.8750 S   0  0  0  0  0  1  0  0  0  0  0  0
  195.8070  172.1220  136.9110 C   0  0  0  0  0  2  0  0  0  0  0  0
  1  2  1  1  0  0  0
  1 30  1  0  0  0  0
  4 12  1  0  0  0  0
  4 21  1  1  0  0  0
  5  8  1  0  0  0  0
  5  7  1  0  0  0  0
  6  9  1  0  0  0  0
  7  4  1  0  0  0  0
  8  3  2  0  0  0  0
 10  3  1  0  0  0  0
 10 11  1  0  0  0  0
 11  1  1  6  0  0  0
 11  9  1  0  0  0  0
 12  3  1  6  0  0  0
 12  6  1  0  0  0  0
 13  8  1  0  0  0  0
 14 13  1  0  0  0  0
 14 15  1  0  0  0  0
 16 15  1  0  0  0  0
 17 16  1  0  0  0  0
 17 19  1  0  0  0  0
 18 19  1  0  0  0  0
 20 18  1  0  0  0  0
 20 19  1  0  0  0  0
 21 22  1  0  0  0  0
 23 22  1  0  0  0  0
 23 25  1  0  0  0  0
 25 24  1  1  0  0  0
 27 25  1  6  0  0  0
 27 28  1  0  0  0  0
 27 29  1  0  0  0  0
 28 29  1  0  0  0  0
 29 26  2  0  0  0  0
 30 31  2  0  0  0  0
 31 32  1  0  0  0  0
 32 33  1  0  0  0  0
 33 39  1  0  0  0  0
 34 40  1  0  0  0  0
 35 42  1  0  0  0  0
 35 36  1  0  0  0  0
 36 37  1  0  0  0  0
 38 35  2  0  0  0  0
 39 38  1  0  0  0  0
 39 34  2  0  0  0  0
 40 36  2  0  0  0  0
 41 44  1  0  0  0  0
 42 41  2  0  0  0  0
 43 47  1  0  0  0  0
 43 44  2  0  0  0  0
 45 43  1  0  0  0  0
 46 45  2  0  0  0  0
 46 42  1  0  0  0  0
 48  1  1  0  0  0  0
 49 48  1  6  0  0  0
 49 52  1  0  0  0  0
 50 49  1  0  0  0  0
 51 50  1  0  0  0  0
 53 52  1  0  0  0  0
 54 53  2  0  0  0  0
 55 54  1  0  0  0  0
 56 55  1  0  0  0  0
 56 58  1  0  0  0  0
 57 59  1  0  0  0  0
 58 60  1  6  0  0  0
 58 57  1  0  0  0  0
 58 59  1  0  0  0  0
 59 61  1  1  0  0  0
 61 68  1  6  0  0  0
 61 62  1  0  0  0  0
 62 63  1  1  0  0  0
 64 62  1  0  0  0  0
 64 65  1  0  0  0  0
 66 65  1  0  0  0  0
 68 67  1  0  0  0  0
M  END
>  <MODEL>
4

>  <REMARK>
 VINA RESULT:      -4.1      3.521     10.169
  Name = 
  30 active torsions:
  status: ('A' for Active; 'I' for Inactive)
    1  A    between atoms: C_4  and  C_25
    2  A    between atoms: C_4  and  N_65
    3  A    between atoms: O_6  and  C_38
    4  A    between atoms: N_7  and  N_22
    5  A    between atoms: N_7  and  N_68
    6  A    between atoms: C_8  and  C_12
    7  A    between atoms: C_9  and  C_25
    8  A    between atoms: C_13  and  N_24
    9  A    between atoms: O_14  and  C_63
   10  A    between atoms: C_17  and  C_43
   11  A    between atoms: C_20  and  C_50
   12  A    between atoms: C_20  and  C_63
   13  A    between atoms: C_21  and  C_44
   14  A    between atoms: C_21  and  N_65
   15  A    between atoms: N_22  and  C_49
   16  A    between atoms: N_24  and  C_56
   17  A    between atoms: C_26  and  C_34
   18  A    between atoms: C_26  and  C_38
   19  A    between atoms: C_30  and  C_59
   20  A    between atoms: C_32  and  C_56
   21  A    between atoms: C_34  and  C_55
   22  A    between atoms: C_34  and  C_64
   23  A    between atoms: C_35  and  C_50
   24  A    between atoms: C_36  and  C_54
   25  A    between atoms: C_36  and  C_60
   26  A    between atoms: C_38  and  C_43
   27  A    between atoms: C_40  and  C_49
   28  A    between atoms: C_48  and  C_50
   29  A    between atoms: C_54  and  C_67
   30  A    between atoms: C_59  and  N_68
                            x       y       z     vdW  Elec       q    Type
                         _______ _______ _______ _____ _____    ______ ____

>  <TORSDO>
F 30

$$$$
=
 OpenBabel11042411073D

 68 74  0  0  1  0  0  0  0  0999 V2000
  188.8240  177.5360  138.4880 C   0  0  2  0  0  0  0  0  0  0  0  0
  189.2510  178.8690  138.5500 O   0  0  0  0  0  1  0  0  0  0  0  0
  185.3830  176.4360  137.0540 C   0  0  0  0  0  0  0  0  0  0  0  0
  183.1560  177.6770  137.3170 C   0  0  2  0  0  3  0  0  0  0  0  0
  183.2440  175.4400  136.2430 C   0  0  0  0  0  2  0  0  0  0  0  0
  185.3120  178.8560  137.3800 N   0  0  0  0  0  2  0  0  0  0  0  0
  182.5470  176.2800  137.3030 C   0  0  0  0  0  2  0  0  0  0  0  0
  184.7390  175.4170  136.4360 C   0  0  0  0  0  0  0  0  0  0  0  0
  186.7180  178.8900  137.8230 C   0  0  0  0  0  2  0  0  0  0  0  0
  186.8790  176.4180  137.2280 C   0  0  0  0  0  2  0  0  0  0  0  0
  187.3080  177.5140  138.2090 C   0  0  1  0  0  3  0  0  0  0  0  0
  184.6370  177.5940  137.7040 C   0  0  2  0  0  3  0  0  0  0  0  0
  185.4990  174.2630  135.8550 C   0  0  0  0  0  2  0  0  0  0  0  0
  184.5860  173.3570  135.1760 N   0  0  0  0  0  2  0  0  0  0  0  0
  184.8650  172.0710  135.6580 N   0  0  0  0  0  2  0  0  0  0  0  0
  183.6380  171.3990  135.7330 N   0  0  0  0  0  2  0  0  0  0  0  0
  182.6810  172.1540  134.9420 C   0  0  0  0  0  2  0  0  0  0  0  0
  180.9660  173.1790  136.3930 C   0  0  0  0  0  2  0  0  0  0  0  0
  181.2830  171.9890  135.5100 C   0  0  0  0  0  3  0  0  0  0  0  0
  181.3620  171.8570  137.0160 C   0  0  0  0  0  2  0  0  0  0  0  0
  182.4210  178.5370  138.3350 C   0  0  0  0  0  2  0  0  0  0  0  0
  181.4190  177.7060  139.1150 C   0  0  0  0  0  2  0  0  0  0  0  0
  181.3310  178.2130  140.4750 N   0  0  0  0  0  2  0  0  0  0  0  0
  179.1540  178.1570  141.3420 O   0  0  0  0  0  1  0  0  0  0  0  0
  180.3350  177.4180  141.1850 C   0  0  1  0  0  3  0  0  0  0  0  0
  179.0170  174.4570  142.0860 O   0  0  0  0  0  0  0  0  0  0  0  0
  180.1080  176.0900  140.4440 C   0  0  1  0  0  3  0  0  0  0  0  0
  181.1430  175.2170  140.6540 O   0  0  0  0  0  0  0  0  0  0  0  0
  179.8040  175.0600  141.3110 C   0  0  0  0  0  0  0  0  0  0  0  0
  189.1320  176.8750  139.8050 C   0  0  0  0  0  3  0  0  0  0  0  0
  190.3680  176.8820  140.3060 C   0  0  0  0  0  3  0  0  0  0  0  0
  190.6650  176.2750  141.6300 C   0  0  0  0  0  2  0  0  0  0  0  0
  191.0510  177.3830  142.5920 C   0  0  0  0  0  2  0  0  0  0  0  0
  190.8450  176.8830  145.0270 C   0  0  0  0  0  3  0  0  0  0  0  0
  188.1090  177.5680  144.9980 C   0  0  0  0  0  0  0  0  0  0  0  0
  188.7380  177.1470  146.2000 C   0  0  0  0  0  0  0  0  0  0  0  0
  188.0350  177.1000  147.4380 N   0  0  0  0  0  1  0  0  0  0  0  0
  188.8880  177.6430  143.8290 C   0  0  0  0  0  3  0  0  0  0  0  0
  190.2420  177.3000  143.8390 C   0  0  0  0  0  0  0  0  0  0  0  0
  190.0940  176.8100  146.2000 C   0  0  0  0  0  3  0  0  0  0  0  0
  186.0310  178.0170  143.6650 C   0  0  0  0  0  3  0  0  0  0  0  0
  186.6650  177.9300  144.9180 C   0  0  0  0  0  0  0  0  0  0  0  0
  183.9340  178.5900  144.7270 C   0  0  0  0  0  0  0  0  0  0  0  0
  184.6760  178.3470  143.5700 C   0  0  0  0  0  3  0  0  0  0  0  0
  184.5480  178.5040  145.9790 C   0  0  0  0  0  3  0  0  0  0  0  0
  185.9020  178.1730  146.0720 C   0  0  0  0  0  3  0  0  0  0  0  0
  182.5900  178.9250  144.6310 O   0  0  0  0  0  1  0  0  0  0  0  0
  189.5820  176.7910  137.3690 C   0  0  0  0  0  2  0  0  0  0  0  0
  189.4340  175.2650  137.3370 C   0  0  1  0  0  3  0  0  0  0  0  0
  189.1530  174.7840  136.0560 O   0  0  0  0  0  0  0  0  0  0  0  0
  188.3360  173.6690  136.2690 C   0  0  0  0  0  1  0  0  0  0  0  0
  190.6820  174.6000  137.8900 C   0  0  0  0  0  2  0  0  0  0  0  0
  191.3430  173.8150  136.8130 C   0  0  0  0  0  3  0  0  0  0  0  0
  192.4220  174.2950  136.2000 C   0  0  0  0  0  3  0  0  0  0  0  0
  193.0860  173.5120  135.1150 C   0  0  0  0  0  2  0  0  0  0  0  0
  194.4510  173.9830  134.9280 N   0  0  0  0  0  2  0  0  0  0  0  0
  196.1290  175.2690  135.9750 O   0  0  0  0  0  0  0  0  0  0  0  0
  194.8260  174.7620  136.1020 C   0  0  2  0  0  0  0  0  0  0  0  0
  195.9230  174.3270  137.0060 C   0  0  1  0  0  3  0  0  0  0  0  0
  193.9440  175.7570  136.5240 O   0  0  0  0  0  1  0  0  0  0  0  0
  196.5520  172.9950  136.6030 C   0  0  2  0  0  3  0  0  0  0  0  0
  196.3330  171.9070  137.6660 C   0  0  2  0  0  3  0  0  0  0  0  0
  197.5230  171.2480  137.9650 O   0  0  0  0  0  1  0  0  0  0  0  0
  195.2800  170.8880  137.2430 C   0  0  0  0  0  2  0  0  0  0  0  0
  195.4650  170.5080  135.9100 O   0  0  0  0  0  0  0  0  0  0  0  0
  194.2360  169.9760  135.5230 C   0  0  0  0  0  1  0  0  0  0  0  0
  199.0440  174.0480  137.3350 S   0  0  0  0  0  1  0  0  0  0  0  0
  198.0020  173.1590  136.1310 C   0  0  0  0  0  2  0  0  0  0  0  0
  1  2  1  1  0  0  0
  1 30  1  0  0  0  0
  3 10  1  0  0  0  0
  4 12  1  0  0  0  0
  4 21  1  1  0  0  0
  5  8  1  0  0  0  0
  5  7  1  0  0  0  0
  6 12  1  0  0  0  0
  6  9  1  0  0  0  0
  7  4  1  0  0  0  0
  8  3  2  0  0  0  0
  9 11  1  0  0  0  0
 10 11  1  0  0  0  0
 11  1  1  6  0  0  0
 12  3  1  6  0  0  0
 13  8  1  0  0  0  0
 14 15  1  0  0  0  0
 14 13  1  0  0  0  0
 15 16  1  0  0  0  0
 17 19  1  0  0  0  0
 17 16  1  0  0  0  0
 18 20  1  0  0  0  0
 19 18  1  0  0  0  0
 19 20  1  0  0  0  0
 21 22  1  0  0  0  0
 22 23  1  0  0  0  0
 23 25  1  0  0  0  0
 25 24  1  6  0  0  0
 27 28  1  0  0  0  0
 27 25  1  1  0  0  0
 27 29  1  0  0  0  0
 28 29  1  0  0  0  0
 29 26  2  0  0  0  0
 30 31  2  0  0  0  0
 31 32  1  0  0  0  0
 32 33  1  0  0  0  0
 33 39  1  0  0  0  0
 34 40  1  0  0  0  0
 35 36  1  0  0  0  0
 36 40  2  0  0  0  0
 36 37  1  0  0  0  0
 38 39  1  0  0  0  0
 38 35  2  0  0  0  0
 39 34  2  0  0  0  0
 41 42  1  0  0  0  0
 42 35  1  0  0  0  0
 42 46  2  0  0  0  0
 43 45  2  0  0  0  0
 44 41  2  0  0  0  0
 44 43  1  0  0  0  0
 45 46  1  0  0  0  0
 47 43  1  0  0  0  0
 48  1  1  0  0  0  0
 49 48  1  6  0  0  0
 49 52  1  0  0  0  0
 50 51  1  0  0  0  0
 50 49  1  0  0  0  0
 53 52  1  0  0  0  0
 54 53  2  0  0  0  0
 55 54  1  0  0  0  0
 56 55  1  0  0  0  0
 56 58  1  0  0  0  0
 57 58  1  0  0  0  0
 57 59  1  0  0  0  0
 58 60  1  1  0  0  0
 58 59  1  0  0  0  0
 59 61  1  6  0  0  0
 61 68  1  1  0  0  0
 61 62  1  0  0  0  0
 62 63  1  6  0  0  0
 64 62  1  0  0  0  0
 65 64  1  0  0  0  0
 66 65  1  0  0  0  0
 68 67  1  0  0  0  0
M  END
>  <MODEL>
5

>  <REMARK>
 VINA RESULT:      -3.9      3.677     10.100
  Name = 
  30 active torsions:
  status: ('A' for Active; 'I' for Inactive)
    1  A    between atoms: C_4  and  C_25
    2  A    between atoms: C_4  and  N_65
    3  A    between atoms: O_6  and  C_38
    4  A    between atoms: N_7  and  N_22
    5  A    between atoms: N_7  and  N_68
    6  A    between atoms: C_8  and  C_12
    7  A    between atoms: C_9  and  C_25
    8  A    between atoms: C_13  and  N_24
    9  A    between atoms: O_14  and  C_63
   10  A    between atoms: C_17  and  C_43
   11  A    between atoms: C_20  and  C_50
   12  A    between atoms: C_20  and  C_63
   13  A    between atoms: C_21  and  C_44
   14  A    between atoms: C_21  and  N_65
   15  A    between atoms: N_22  and  C_49
   16  A    between atoms: N_24  and  C_56
   17  A    between atoms: C_26  and  C_34
   18  A    between atoms: C_26  and  C_38
   19  A    between atoms: C_30  and  C_59
   20  A    between atoms: C_32  and  C_56
   21  A    between atoms: C_34  and  C_55
   22  A    between atoms: C_34  and  C_64
   23  A    between atoms: C_35  and  C_50
   24  A    between atoms: C_36  and  C_54
   25  A    between atoms: C_36  and  C_60
   26  A    between atoms: C_38  and  C_43
   27  A    between atoms: C_40  and  C_49
   28  A    between atoms: C_48  and  C_50
   29  A    between atoms: C_54  and  C_67
   30  A    between atoms: C_59  and  N_68
                            x       y       z     vdW  Elec       q    Type
                         _______ _______ _______ _____ _____    ______ ____

>  <TORSDO>
F 30

$$$$
=
 OpenBabel11042411073D

 68 74  0  0  1  0  0  0  0  0999 V2000
  187.5360  178.3640  139.2180 C   0  0  2  0  0  0  0  0  0  0  0  0
  187.2710  179.5290  139.9500 O   0  0  0  0  0  1  0  0  0  0  0  0
  183.8820  178.3940  137.8930 C   0  0  0  0  0  0  0  0  0  0  0  0
  182.9040  176.8610  136.0870 C   0  0  2  0  0  3  0  0  0  0  0  0
  181.5650  178.7290  137.0280 C   0  0  0  0  0  2  0  0  0  0  0  0
  184.8000  176.1670  137.4880 N   0  0  0  0  0  2  0  0  0  0  0  0
  182.0390  178.0670  135.7420 C   0  0  0  0  0  2  0  0  0  0  0  0
  182.7160  179.0820  137.9360 C   0  0  0  0  0  0  0  0  0  0  0  0
  186.0710  176.5130  138.1520 C   0  0  0  0  0  2  0  0  0  0  0  0
  185.0220  178.7380  138.8140 C   0  0  0  0  0  2  0  0  0  0  0  0
  186.3000  178.0280  138.3590 C   0  0  1  0  0  3  0  0  0  0  0  0
  184.1520  177.3180  136.8490 C   0  0  2  0  0  3  0  0  0  0  0  0
  182.5010  180.1740  138.9410 C   0  0  0  0  0  2  0  0  0  0  0  0
  181.8860  181.3260  138.3000 N   0  0  0  0  0  2  0  0  0  0  0  0
  181.2050  182.0270  139.3040 N   0  0  0  0  0  2  0  0  0  0  0  0
  179.9750  182.4150  138.7540 N   0  0  0  0  0  2  0  0  0  0  0  0
  180.1730  183.7070  138.1210 C   0  0  0  0  0  2  0  0  0  0  0  0
  181.2120  184.8470  136.1920 C   0  0  0  0  0  2  0  0  0  0  0  0
  180.6740  183.5240  136.6990 C   0  0  0  0  0  3  0  0  0  0  0  0
  179.8420  184.3690  135.7570 C   0  0  0  0  0  2  0  0  0  0  0  0
  183.3290  176.1630  134.8030 C   0  0  0  0  0  2  0  0  0  0  0  0
  182.6260  174.8260  134.6600 C   0  0  0  0  0  2  0  0  0  0  0  0
  183.3810  173.8080  135.3740 N   0  0  0  0  0  2  0  0  0  0  0  0
  181.2430  173.8270  136.3340 O   0  0  0  0  0  1  0  0  0  0  0  0
  182.4770  173.1610  136.3170 C   0  0  1  0  0  3  0  0  0  0  0  0
  184.6460  170.5900  136.2360 O   0  0  0  0  0  0  0  0  0  0  0  0
  182.3400  171.6700  135.9660 C   0  0  1  0  0  3  0  0  0  0  0  0
  182.6610  171.4340  134.6550 O   0  0  0  0  0  0  0  0  0  0  0  0
  183.5690  171.0650  135.7900 C   0  0  0  0  0  0  0  0  0  0  0  0
  187.8290  177.2490  140.1860 C   0  0  0  0  0  3  0  0  0  0  0  0
  188.1980  177.5070  141.4410 C   0  0  0  0  0  3  0  0  0  0  0  0
  188.4390  176.4080  142.4130 C   0  0  0  0  0  2  0  0  0  0  0  0
  188.8500  177.0190  143.7400 C   0  0  0  0  0  2  0  0  0  0  0  0
  187.7380  177.7270  145.8580 C   0  0  0  0  0  3  0  0  0  0  0  0
  185.3260  178.2440  144.4900 C   0  0  0  0  0  0  0  0  0  0  0  0
  185.4250  178.4590  145.8910 C   0  0  0  0  0  0  0  0  0  0  0  0
  184.3390  178.9850  146.6480 N   0  0  0  0  0  1  0  0  0  0  0  0
  186.4630  177.7760  143.8050 C   0  0  0  0  0  3  0  0  0  0  0  0
  187.6570  177.5150  144.4800 C   0  0  0  0  0  0  0  0  0  0  0  0
  186.6270  178.1980  146.5560 C   0  0  0  0  0  3  0  0  0  0  0  0
  182.9090  178.9090  144.3780 C   0  0  0  0  0  3  0  0  0  0  0  0
  184.0750  178.4860  143.7160 C   0  0  0  0  0  0  0  0  0  0  0  0
  181.7000  178.9750  142.2840 C   0  0  0  0  0  0  0  0  0  0  0  0
  181.7290  179.1500  143.6680 C   0  0  0  0  0  3  0  0  0  0  0  0
  182.8510  178.5580  141.6100 C   0  0  0  0  0  3  0  0  0  0  0  0
  184.0290  178.3200  142.3220 C   0  0  0  0  0  3  0  0  0  0  0  0
  180.5260  179.2070  141.5800 O   0  0  0  0  0  1  0  0  0  0  0  0
  188.7690  178.5770  138.3160 C   0  0  0  0  0  2  0  0  0  0  0  0
  189.7780  177.4240  138.2480 C   0  0  1  0  0  3  0  0  0  0  0  0
  190.5360  177.3100  139.4150 O   0  0  0  0  0  0  0  0  0  0  0  0
  191.8640  177.3000  138.9750 C   0  0  0  0  0  1  0  0  0  0  0  0
  189.0670  176.1160  137.9500 C   0  0  0  0  0  2  0  0  0  0  0  0
  189.7760  175.4060  136.8510 C   0  0  0  0  0  3  0  0  0  0  0  0
  190.3430  176.0960  135.8640 C   0  0  0  0  0  3  0  0  0  0  0  0
  191.0510  175.3880  134.7560 C   0  0  0  0  0  2  0  0  0  0  0  0
  192.3100  174.8410  135.2410 N   0  0  0  0  0  2  0  0  0  0  0  0
  194.4730  175.5330  134.6050 O   0  0  0  0  0  0  0  0  0  0  0  0
  193.2930  175.9170  135.2610 C   0  0  2  0  0  0  0  0  0  0  0  0
  194.5810  175.7820  135.9910 C   0  0  1  0  0  3  0  0  0  0  0  0
  192.8760  177.1790  134.8360 O   0  0  0  0  0  1  0  0  0  0  0  0
  194.7240  174.4530  136.7290 C   0  0  2  0  0  3  0  0  0  0  0  0
  194.8680  174.6460  138.2470 C   0  0  2  0  0  3  0  0  0  0  0  0
  194.7600  175.9910  138.5960 O   0  0  0  0  0  1  0  0  0  0  0  0
  196.1820  174.0860  138.7800 C   0  0  0  0  0  2  0  0  0  0  0  0
  197.0510  175.1200  139.1420 O   0  0  0  0  0  0  0  0  0  0  0  0
  198.2840  174.4950  139.3230 C   0  0  0  0  0  1  0  0  0  0  0  0
  195.0700  172.0270  135.3670 S   0  0  0  0  0  1  0  0  0  0  0  0
  195.7810  173.5440  136.0880 C   0  0  0  0  0  2  0  0  0  0  0  0
  1  2  1  1  0  0  0
  1 30  1  0  0  0  0
  3  8  2  0  0  0  0
  3 10  1  0  0  0  0
  4 21  1  6  0  0  0
  4 12  1  0  0  0  0
  5  8  1  0  0  0  0
  6  9  1  0  0  0  0
  7  4  1  0  0  0  0
  7  5  1  0  0  0  0
  8 13  1  0  0  0  0
  9 11  1  0  0  0  0
 11 10  1  0  0  0  0
 11  1  1  1  0  0  0
 12  6  1  1  0  0  0
 12  3  1  0  0  0  0
 14 13  1  0  0  0  0
 14 15  1  0  0  0  0
 16 15  1  0  0  0  0
 17 16  1  0  0  0  0
 18 19  1  0  0  0  0
 19 17  1  0  0  0  0
 20 18  1  0  0  0  0
 20 19  1  0  0  0  0
 22 21  1  0  0  0  0
 22 23  1  0  0  0  0
 23 25  1  0  0  0  0
 25 24  1  6  0  0  0
 27 25  1  6  0  0  0
 28 29  1  0  0  0  0
 28 27  1  0  0  0  0
 29 27  1  0  0  0  0
 29 26  2  0  0  0  0
 30 31  2  0  0  0  0
 31 32  1  0  0  0  0
 32 33  1  0  0  0  0
 33 39  1  0  0  0  0
 34 40  1  0  0  0  0
 35 36  1  0  0  0  0
 36 40  2  0  0  0  0
 36 37  1  0  0  0  0
 38 39  1  0  0  0  0
 38 35  2  0  0  0  0
 39 34  2  0  0  0  0
 42 41  1  0  0  0  0
 42 35  1  0  0  0  0
 43 44  1  0  0  0  0
 44 41  2  0  0  0  0
 45 43  2  0  0  0  0
 45 46  1  0  0  0  0
 46 42  2  0  0  0  0
 47 43  1  0  0  0  0
 48  1  1  0  0  0  0
 49 52  1  1  0  0  0
 49 48  1  0  0  0  0
 49 50  1  0  0  0  0
 51 50  1  0  0  0  0
 53 52  1  0  0  0  0
 54 53  2  0  0  0  0
 55 56  1  0  0  0  0
 55 54  1  0  0  0  0
 56 58  1  0  0  0  0
 57 58  1  0  0  0  0
 57 59  1  0  0  0  0
 58 60  1  6  0  0  0
 58 59  1  0  0  0  0
 59 61  1  1  0  0  0
 61 68  1  6  0  0  0
 61 62  1  0  0  0  0
 62 63  1  6  0  0  0
 62 64  1  0  0  0  0
 64 65  1  0  0  0  0
 65 66  1  0  0  0  0
 67 68  1  0  0  0  0
M  END
>  <MODEL>
6

>  <REMARK>
 VINA RESULT:      -3.8      3.953     10.462
  Name = 
  30 active torsions:
  status: ('A' for Active; 'I' for Inactive)
    1  A    between atoms: C_4  and  C_25
    2  A    between atoms: C_4  and  N_65
    3  A    between atoms: O_6  and  C_38
    4  A    between atoms: N_7  and  N_22
    5  A    between atoms: N_7  and  N_68
    6  A    between atoms: C_8  and  C_12
    7  A    between atoms: C_9  and  C_25
    8  A    between atoms: C_13  and  N_24
    9  A    between atoms: O_14  and  C_63
   10  A    between atoms: C_17  and  C_43
   11  A    between atoms: C_20  and  C_50
   12  A    between atoms: C_20  and  C_63
   13  A    between atoms: C_21  and  C_44
   14  A    between atoms: C_21  and  N_65
   15  A    between atoms: N_22  and  C_49
   16  A    between atoms: N_24  and  C_56
   17  A    between atoms: C_26  and  C_34
   18  A    between atoms: C_26  and  C_38
   19  A    between atoms: C_30  and  C_59
   20  A    between atoms: C_32  and  C_56
   21  A    between atoms: C_34  and  C_55
   22  A    between atoms: C_34  and  C_64
   23  A    between atoms: C_35  and  C_50
   24  A    between atoms: C_36  and  C_54
   25  A    between atoms: C_36  and  C_60
   26  A    between atoms: C_38  and  C_43
   27  A    between atoms: C_40  and  C_49
   28  A    between atoms: C_48  and  C_50
   29  A    between atoms: C_54  and  C_67
   30  A    between atoms: C_59  and  N_68
                            x       y       z     vdW  Elec       q    Type
                         _______ _______ _______ _____ _____    ______ ____

>  <TORSDO>
F 30

$$$$
=
 OpenBabel11042411073D

 68 74  0  0  1  0  0  0  0  0999 V2000
  188.8730  178.5340  138.4290 C   0  0  2  0  0  0  0  0  0  0  0  0
  189.2080  179.8180  137.9800 O   0  0  0  0  0  1  0  0  0  0  0  0
  190.4350  175.2940  136.9560 C   0  0  0  0  0  0  0  0  0  0  0  0
  192.9350  174.7740  136.7320 C   0  0  2  0  0  3  0  0  0  0  0  0
  191.2280  173.2450  135.7740 C   0  0  0  0  0  2  0  0  0  0  0  0
  192.0770  176.2900  138.4660 N   0  0  0  0  0  2  0  0  0  0  0  0
  192.5110  174.0110  135.4830 C   0  0  0  0  0  2  0  0  0  0  0  0
  190.1400  174.1490  136.2970 C   0  0  0  0  0  0  0  0  0  0  0  0
  191.1460  177.3680  138.8510 C   0  0  0  0  0  2  0  0  0  0  0  0
  189.3460  176.1850  137.4930 C   0  0  0  0  0  2  0  0  0  0  0  0
  189.9290  177.5370  137.9130 C   0  0  1  0  0  3  0  0  0  0  0  0
  191.8630  175.8060  137.0970 C   0  0  2  0  0  3  0  0  0  0  0  0
  188.7200  173.6990  136.1260 C   0  0  0  0  0  2  0  0  0  0  0  0
  188.6760  172.4780  135.3380 N   0  0  0  0  0  2  0  0  0  0  0  0
  187.3350  172.2760  134.9870 N   0  0  0  0  0  2  0  0  0  0  0  0
  186.5780  172.5370  136.1370 N   0  0  0  0  0  2  0  0  0  0  0  0
  185.1840  172.3020  135.8010 C   0  0  0  0  0  2  0  0  0  0  0  0
  183.8610  170.4980  134.7540 C   0  0  0  0  0  2  0  0  0  0  0  0
  185.0820  171.3820  134.5970 C   0  0  0  0  0  3  0  0  0  0  0  0
  185.2410  169.9440  135.0440 C   0  0  0  0  0  2  0  0  0  0  0  0
  194.2490  175.4920  136.4610 C   0  0  0  0  0  2  0  0  0  0  0  0
  195.3530  174.4950  136.1600 C   0  0  0  0  0  2  0  0  0  0  0  0
  196.6210  175.2000  136.0570 N   0  0  0  0  0  2  0  0  0  0  0  0
  196.9950  174.5380  138.2740 O   0  0  0  0  0  1  0  0  0  0  0  0
  197.5550  174.5780  136.9890 C   0  0  1  0  0  3  0  0  0  0  0  0
  197.0320  171.4510  138.1150 O   0  0  0  0  0  0  0  0  0  0  0  0
  197.9520  173.1850  136.4720 C   0  0  1  0  0  3  0  0  0  0  0  0
  199.1150  172.7500  137.0520 O   0  0  0  0  0  0  0  0  0  0  0  0
  197.7680  172.2070  137.4280 C   0  0  0  0  0  0  0  0  0  0  0  0
  187.5080  178.1840  137.8980 C   0  0  0  0  0  3  0  0  0  0  0  0
  187.2040  178.3620  136.6120 C   0  0  0  0  0  3  0  0  0  0  0  0
  185.8740  177.9700  136.0750 C   0  0  0  0  0  2  0  0  0  0  0  0
  185.1380  177.1790  137.1410 C   0  0  0  0  0  2  0  0  0  0  0  0
  182.9720  177.3900  135.9220 C   0  0  0  0  0  3  0  0  0  0  0  0
  181.6530  178.1970  138.2800 C   0  0  0  0  0  0  0  0  0  0  0  0
  180.9420  178.0780  137.0570 C   0  0  0  0  0  0  0  0  0  0  0  0
  179.5390  178.3130  136.9790 N   0  0  0  0  0  1  0  0  0  0  0  0
  183.0260  177.8910  138.2850 C   0  0  0  0  0  3  0  0  0  0  0  0
  183.6840  177.4960  137.1180 C   0  0  0  0  0  0  0  0  0  0  0  0
  181.6080  177.6780  135.8950 C   0  0  0  0  0  3  0  0  0  0  0  0
  180.8990  177.7270  140.6270 C   0  0  0  0  0  3  0  0  0  0  0  0
  181.0130  178.6310  139.5560 C   0  0  0  0  0  0  0  0  0  0  0  0
  179.8310  179.4200  141.9870 C   0  0  0  0  0  0  0  0  0  0  0  0
  180.3110  178.1180  141.8340 C   0  0  0  0  0  3  0  0  0  0  0  0
  179.9400  180.3310  140.9330 C   0  0  0  0  0  3  0  0  0  0  0  0
  180.5310  179.9380  139.7290 C   0  0  0  0  0  3  0  0  0  0  0  0
  179.2410  179.8050  143.1820 O   0  0  0  0  0  1  0  0  0  0  0  0
  188.8270  178.5100  139.9710 C   0  0  0  0  0  2  0  0  0  0  0  0
  187.6690  177.7350  140.6120 C   0  0  1  0  0  3  0  0  0  0  0  0
  188.1030  176.8530  141.6050 O   0  0  0  0  0  0  0  0  0  0  0  0
  189.4210  176.5460  141.2520 C   0  0  0  0  0  1  0  0  0  0  0  0
  186.6360  178.6960  141.1740 C   0  0  0  0  0  2  0  0  0  0  0  0
  186.2050  178.2290  142.5190 C   0  0  0  0  0  3  0  0  0  0  0  0
  187.1070  178.0120  143.4740 C   0  0  0  0  0  3  0  0  0  0  0  0
  186.6790  177.5380  144.8240 C   0  0  0  0  0  2  0  0  0  0  0  0
  187.7090  176.6850  145.3990 N   0  0  0  0  0  2  0  0  0  0  0  0
  188.7050  178.7580  145.9230 O   0  0  0  0  0  0  0  0  0  0  0  0
  188.4390  177.4630  146.3930 C   0  0  2  0  0  0  0  0  0  0  0  0
  189.8280  177.9310  146.1490 C   0  0  1  0  0  3  0  0  0  0  0  0
  187.9210  177.5010  147.6890 O   0  0  0  0  0  1  0  0  0  0  0  0
  190.3950  177.4780  144.8050 C   0  0  2  0  0  3  0  0  0  0  0  0
  191.6770  176.6450  144.9700 C   0  0  2  0  0  3  0  0  0  0  0  0
  191.5410  175.3900  144.3810 O   0  0  0  0  0  1  0  0  0  0  0  0
  192.0770  176.4820  146.4320 C   0  0  0  0  0  2  0  0  0  0  0  0
  192.3760  175.1460  146.7170 O   0  0  0  0  0  0  0  0  0  0  0  0
  193.4190  175.2100  147.6410 C   0  0  0  0  0  1  0  0  0  0  0  0
  191.3670  180.0850  144.4720 S   0  0  0  0  0  1  0  0  0  0  0  0
  190.4950  178.6310  143.7990 C   0  0  0  0  0  2  0  0  0  0  0  0
  1  2  1  6  0  0  0
  1 48  1  0  0  0  0
  3 10  1  0  0  0  0
  4 21  1  6  0  0  0
  4 12  1  0  0  0  0
  5  8  1  0  0  0  0
  6  9  1  0  0  0  0
  7  5  1  0  0  0  0
  7  4  1  0  0  0  0
  8  3  2  0  0  0  0
 10 11  1  0  0  0  0
 11  1  1  1  0  0  0
 11  9  1  0  0  0  0
 12  3  1  1  0  0  0
 12  6  1  0  0  0  0
 13  8  1  0  0  0  0
 14 13  1  0  0  0  0
 15 14  1  0  0  0  0
 15 16  1  0  0  0  0
 17 16  1  0  0  0  0
 18 20  1  0  0  0  0
 19 18  1  0  0  0  0
 19 20  1  0  0  0  0
 19 17  1  0  0  0  0
 22 21  1  0  0  0  0
 23 22  1  0  0  0  0
 23 25  1  0  0  0  0
 25 24  1  1  0  0  0
 27 25  1  1  0  0  0
 27 28  1  0  0  0  0
 27 29  1  0  0  0  0
 28 29  1  0  0  0  0
 29 26  2  0  0  0  0
 30  1  1  0  0  0  0
 31 30  2  0  0  0  0
 32 31  1  0  0  0  0
 32 33  1  0  0  0  0
 34 39  1  0  0  0  0
 35 38  1  0  0  0  0
 35 42  1  0  0  0  0
 36 35  2  0  0  0  0
 37 36  1  0  0  0  0
 39 33  1  0  0  0  0
 39 38  2  0  0  0  0
 40 34  2  0  0  0  0
 40 36  1  0  0  0  0
 41 44  1  0  0  0  0
 42 46  1  0  0  0  0
 42 41  2  0  0  0  0
 43 47  1  0  0  0  0
 44 43  2  0  0  0  0
 45 43  1  0  0  0  0
 46 45  2  0  0  0  0
 49 48  1  1  0  0  0
 49 52  1  0  0  0  0
 49 50  1  0  0  0  0
 51 50  1  0  0  0  0
 52 53  1  0  0  0  0
 53 54  2  0  0  0  0
 54 55  1  0  0  0  0
 55 56  1  0  0  0  0
 56 58  1  0  0  0  0
 57 59  1  0  0  0  0
 57 58  1  0  0  0  0
 58 60  1  1  0  0  0
 59 61  1  6  0  0  0
 59 58  1  0  0  0  0
 61 68  1  6  0  0  0
 61 62  1  0  0  0  0
 62 63  1  1  0  0  0
 62 64  1  0  0  0  0
 64 65  1  0  0  0  0
 65 66  1  0  0  0  0
 68 67  1  0  0  0  0
M  END
>  <MODEL>
7

>  <REMARK>
 VINA RESULT:      -3.6      3.413      9.094
  Name = 
  30 active torsions:
  status: ('A' for Active; 'I' for Inactive)
    1  A    between atoms: C_4  and  C_25
    2  A    between atoms: C_4  and  N_65
    3  A    between atoms: O_6  and  C_38
    4  A    between atoms: N_7  and  N_22
    5  A    between atoms: N_7  and  N_68
    6  A    between atoms: C_8  and  C_12
    7  A    between atoms: C_9  and  C_25
    8  A    between atoms: C_13  and  N_24
    9  A    between atoms: O_14  and  C_63
   10  A    between atoms: C_17  and  C_43
   11  A    between atoms: C_20  and  C_50
   12  A    between atoms: C_20  and  C_63
   13  A    between atoms: C_21  and  C_44
   14  A    between atoms: C_21  and  N_65
   15  A    between atoms: N_22  and  C_49
   16  A    between atoms: N_24  and  C_56
   17  A    between atoms: C_26  and  C_34
   18  A    between atoms: C_26  and  C_38
   19  A    between atoms: C_30  and  C_59
   20  A    between atoms: C_32  and  C_56
   21  A    between atoms: C_34  and  C_55
   22  A    between atoms: C_34  and  C_64
   23  A    between atoms: C_35  and  C_50
   24  A    between atoms: C_36  and  C_54
   25  A    between atoms: C_36  and  C_60
   26  A    between atoms: C_38  and  C_43
   27  A    between atoms: C_40  and  C_49
   28  A    between atoms: C_48  and  C_50
   29  A    between atoms: C_54  and  C_67
   30  A    between atoms: C_59  and  N_68
                            x       y       z     vdW  Elec       q    Type
                         _______ _______ _______ _____ _____    ______ ____

>  <TORSDO>
F 30

$$$$
=
 OpenBabel11042411073D

 68 74  0  0  1  0  0  0  0  0999 V2000
  188.4320  178.5470  138.5310 C   0  0  2  0  0  0  0  0  0  0  0  0
  188.9350  179.8550  138.5240 O   0  0  0  0  0  1  0  0  0  0  0  0
  184.9200  178.7250  140.1860 C   0  0  0  0  0  0  0  0  0  0  0  0
  182.6610  178.5310  138.9900 C   0  0  2  0  0  3  0  0  0  0  0  0
  182.7750  179.0910  141.4070 C   0  0  0  0  0  2  0  0  0  0  0  0
  184.6940  177.4770  138.0980 N   0  0  0  0  0  2  0  0  0  0  0  0
  182.1780  179.4950  140.0670 C   0  0  0  0  0  2  0  0  0  0  0  0
  184.2790  178.9970  141.3470 C   0  0  0  0  0  0  0  0  0  0  0  0
  186.1430  177.5550  137.8340 C   0  0  0  0  0  2  0  0  0  0  0  0
  186.4210  178.6140  140.1340 C   0  0  0  0  0  2  0  0  0  0  0  0
  186.8990  178.6070  138.6790 C   0  0  1  0  0  3  0  0  0  0  0  0
  184.1850  178.6260  138.8560 C   0  0  2  0  0  3  0  0  0  0  0  0
  185.0370  179.1440  142.6320 C   0  0  0  0  0  2  0  0  0  0  0  0
  184.1750  178.8220  143.7580 N   0  0  0  0  0  2  0  0  0  0  0  0
  184.9660  178.9240  144.9110 N   0  0  0  0  0  2  0  0  0  0  0  0
  184.1360  178.6010  145.9930 N   0  0  0  0  0  2  0  0  0  0  0  0
  184.9430  178.6860  147.1980 C   0  0  0  0  0  2  0  0  0  0  0  0
  187.1830  179.1690  148.1200 C   0  0  0  0  0  2  0  0  0  0  0  0
  186.3380  179.1820  146.8610 C   0  0  0  0  0  3  0  0  0  0  0  0
  186.6090  180.4730  147.6050 C   0  0  0  0  0  2  0  0  0  0  0  0
  182.0170  178.8970  137.6610 C   0  0  0  0  0  2  0  0  0  0  0  0
  181.8880  180.4030  137.5250 C   0  0  0  0  0  2  0  0  0  0  0  0
  180.6980  180.7140  136.7480 N   0  0  0  0  0  2  0  0  0  0  0  0
  180.6500  182.1210  138.6210 O   0  0  0  0  0  1  0  0  0  0  0  0
  179.9770  181.7760  137.4410 C   0  0  1  0  0  3  0  0  0  0  0  0
  181.7980  184.5270  136.7850 O   0  0  0  0  0  0  0  0  0  0  0  0
  179.7840  182.9740  136.4970 C   0  0  1  0  0  3  0  0  0  0  0  0
  179.1950  184.0290  137.1420 O   0  0  0  0  0  0  0  0  0  0  0  0
  180.6520  184.0070  136.7880 C   0  0  0  0  0  0  0  0  0  0  0  0
  189.0490  177.8050  139.6870 C   0  0  0  0  0  3  0  0  0  0  0  0
  190.3110  178.0300  140.0540 C   0  0  0  0  0  3  0  0  0  0  0  0
  190.9060  177.3370  141.2270 C   0  0  0  0  0  2  0  0  0  0  0  0
  191.1220  178.3560  142.3310 C   0  0  0  0  0  2  0  0  0  0  0  0
  189.0320  177.8110  143.5790 C   0  0  0  0  0  3  0  0  0  0  0  0
  190.5030  177.2570  145.9220 C   0  0  0  0  0  0  0  0  0  0  0  0
  189.0880  177.1310  145.9070 C   0  0  0  0  0  0  0  0  0  0  0  0
  188.3640  176.6790  147.0470 N   0  0  0  0  0  1  0  0  0  0  0  0
  191.1490  177.6540  144.7360 C   0  0  0  0  0  3  0  0  0  0  0  0
  190.4230  177.9350  143.5760 C   0  0  0  0  0  0  0  0  0  0  0  0
  188.3720  177.4100  144.7400 C   0  0  0  0  0  3  0  0  0  0  0  0
  191.3000  177.8850  148.2160 C   0  0  0  0  0  3  0  0  0  0  0  0
  191.3320  176.9900  147.1320 C   0  0  0  0  0  0  0  0  0  0  0  0
  192.8690  176.5100  149.4420 C   0  0  0  0  0  0  0  0  0  0  0  0
  192.0640  177.6470  149.3630 C   0  0  0  0  0  3  0  0  0  0  0  0
  192.9100  175.6100  148.3740 C   0  0  0  0  0  3  0  0  0  0  0  0
  192.1430  175.8480  147.2300 C   0  0  0  0  0  3  0  0  0  0  0  0
  193.6330  176.2790  150.5780 O   0  0  0  0  0  1  0  0  0  0  0  0
  188.8130  177.8290  137.2200 C   0  0  0  0  0  2  0  0  0  0  0  0
  188.9630  176.3040  137.2900 C   0  0  1  0  0  3  0  0  0  0  0  0
  188.5820  175.6760  136.1020 O   0  0  0  0  0  0  0  0  0  0  0  0
  188.0670  176.7050  135.3080 C   0  0  0  0  0  1  0  0  0  0  0  0
  190.3890  175.9290  137.6530 C   0  0  0  0  0  2  0  0  0  0  0  0
  190.8130  174.7540  136.8450 C   0  0  0  0  0  3  0  0  0  0  0  0
  192.0900  174.6020  136.5010 C   0  0  0  0  0  3  0  0  0  0  0  0
  192.5190  173.4270  135.6860 C   0  0  0  0  0  2  0  0  0  0  0  0
  193.6750  173.7810  134.8750 N   0  0  0  0  0  2  0  0  0  0  0  0
  195.5180  175.2540  134.9050 O   0  0  0  0  0  0  0  0  0  0  0  0
  194.2160  175.0360  135.3830 C   0  0  2  0  0  0  0  0  0  0  0  0
  195.3870  175.0650  136.2980 C   0  0  1  0  0  3  0  0  0  0  0  0
  193.4340  176.1820  135.2340 O   0  0  0  0  0  1  0  0  0  0  0  0
  195.9040  173.6770  136.6680 C   0  0  2  0  0  3  0  0  0  0  0  0
  196.5140  173.6430  138.0790 C   0  0  2  0  0  3  0  0  0  0  0  0
  195.8790  172.6950  138.8790 O   0  0  0  0  0  1  0  0  0  0  0  0
  196.4630  175.0040  138.7640 C   0  0  0  0  0  2  0  0  0  0  0  0
  197.6320  175.7300  138.5120 O   0  0  0  0  0  0  0  0  0  0  0  0
  198.6640  174.8860  138.9190 C   0  0  0  0  0  1  0  0  0  0  0  0
  198.4410  172.5970  136.1640 S   0  0  0  0  0  1  0  0  0  0  0  0
  196.7860  173.0750  135.5660 C   0  0  0  0  0  2  0  0  0  0  0  0
  1  2  1  6  0  0  0
  1 30  1  0  0  0  0
  3  8  2  0  0  0  0
  4 21  1  6  0  0  0
  4  7  1  0  0  0  0
  7  5  1  0  0  0  0
  8  5  1  0  0  0  0
  8 13  1  0  0  0  0
  9  6  1  0  0  0  0
  9 11  1  0  0  0  0
 10  3  1  0  0  0  0
 11  1  1  1  0  0  0
 11 10  1  0  0  0  0
 12  6  1  1  0  0  0
 12  4  1  0  0  0  0
 12  3  1  0  0  0  0
 13 14  1  0  0  0  0
 14 15  1  0  0  0  0
 15 16  1  0  0  0  0
 16 17  1  0  0  0  0
 19 17  1  0  0  0  0
 19 20  1  0  0  0  0
 19 18  1  0  0  0  0
 20 18  1  0  0  0  0
 22 21  1  0  0  0  0
 23 25  1  0  0  0  0
 23 22  1  0  0  0  0
 25 24  1  1  0  0  0
 26 29  2  0  0  0  0
 27 29  1  0  0  0  0
 27 28  1  0  0  0  0
 27 25  1  1  0  0  0
 29 28  1  0  0  0  0
 30 31  2  0  0  0  0
 31 32  1  0  0  0  0
 32 33  1  0  0  0  0
 33 39  1  0  0  0  0
 34 40  1  0  0  0  0
 35 42  1  0  0  0  0
 36 35  1  0  0  0  0
 36 37  1  0  0  0  0
 38 35  2  0  0  0  0
 39 34  2  0  0  0  0
 39 38  1  0  0  0  0
 40 36  2  0  0  0  0
 41 44  1  0  0  0  0
 42 46  1  0  0  0  0
 42 41  2  0  0  0  0
 43 47  1  0  0  0  0
 44 43  2  0  0  0  0
 45 43  1  0  0  0  0
 46 45  2  0  0  0  0
 48  1  1  0  0  0  0
 49 48  1  6  0  0  0
 49 52  1  0  0  0  0
 50 49  1  0  0  0  0
 51 50  1  0  0  0  0
 53 52  1  0  0  0  0
 54 53  2  0  0  0  0
 55 54  1  0  0  0  0
 56 58  1  0  0  0  0
 56 55  1  0  0  0  0
 57 58  1  0  0  0  0
 57 59  1  0  0  0  0
 58 60  1  1  0  0  0
 58 59  1  0  0  0  0
 59 61  1  6  0  0  0
 61 68  1  6  0  0  0
 61 62  1  0  0  0  0
 62 64  1  0  0  0  0
 62 63  1  1  0  0  0
 65 64  1  0  0  0  0
 65 66  1  0  0  0  0
 68 67  1  0  0  0  0
M  END
>  <MODEL>
8

>  <REMARK>
 VINA RESULT:      -3.5      4.152     10.953
  Name = 
  30 active torsions:
  status: ('A' for Active; 'I' for Inactive)
    1  A    between atoms: C_4  and  C_25
    2  A    between atoms: C_4  and  N_65
    3  A    between atoms: O_6  and  C_38
    4  A    between atoms: N_7  and  N_22
    5  A    between atoms: N_7  and  N_68
    6  A    between atoms: C_8  and  C_12
    7  A    between atoms: C_9  and  C_25
    8  A    between atoms: C_13  and  N_24
    9  A    between atoms: O_14  and  C_63
   10  A    between atoms: C_17  and  C_43
   11  A    between atoms: C_20  and  C_50
   12  A    between atoms: C_20  and  C_63
   13  A    between atoms: C_21  and  C_44
   14  A    between atoms: C_21  and  N_65
   15  A    between atoms: N_22  and  C_49
   16  A    between atoms: N_24  and  C_56
   17  A    between atoms: C_26  and  C_34
   18  A    between atoms: C_26  and  C_38
   19  A    between atoms: C_30  and  C_59
   20  A    between atoms: C_32  and  C_56
   21  A    between atoms: C_34  and  C_55
   22  A    between atoms: C_34  and  C_64
   23  A    between atoms: C_35  and  C_50
   24  A    between atoms: C_36  and  C_54
   25  A    between atoms: C_36  and  C_60
   26  A    between atoms: C_38  and  C_43
   27  A    between atoms: C_40  and  C_49
   28  A    between atoms: C_48  and  C_50
   29  A    between atoms: C_54  and  C_67
   30  A    between atoms: C_59  and  N_68
                            x       y       z     vdW  Elec       q    Type
                         _______ _______ _______ _____ _____    ______ ____

>  <TORSDO>
F 30

$$$$
=
 OpenBabel11042411073D

 68 74  0  0  1  0  0  0  0  0999 V2000
  187.9460  177.9580  140.9720 C   0  0  2  0  0  0  0  0  0  0  0  0
  188.1520  179.3000  140.6290 O   0  0  0  0  0  1  0  0  0  0  0  0
  186.6210  178.1980  144.6180 C   0  0  0  0  0  0  0  0  0  0  0  0
  187.9430  177.6970  146.7550 C   0  0  2  0  0  3  0  0  0  0  0  0
  185.5130  178.1990  146.8530 C   0  0  0  0  0  2  0  0  0  0  0  0
  189.0500  178.4470  144.6930 N   0  0  0  0  0  2  0  0  0  0  0  0
  186.5980  177.2300  147.2990 C   0  0  0  0  0  2  0  0  0  0  0  0
  185.5000  178.3800  145.3560 C   0  0  0  0  0  0  0  0  0  0  0  0
  189.1540  178.3840  143.2230 C   0  0  0  0  0  2  0  0  0  0  0  0
  186.6090  178.3980  143.1250 C   0  0  0  0  0  2  0  0  0  0  0  0
  187.8950  177.8410  142.5080 C   0  0  1  0  0  3  0  0  0  0  0  0
  187.9180  177.6780  145.2230 C   0  0  2  0  0  3  0  0  0  0  0  0
  184.2230  178.8400  144.7210 C   0  0  0  0  0  2  0  0  0  0  0  0
  184.4810  179.9690  143.8420 N   0  0  0  0  0  2  0  0  0  0  0  0
  183.3040  180.1900  143.1150 N   0  0  0  0  0  2  0  0  0  0  0  0
  182.5640  179.0010  143.1850 N   0  0  0  0  0  2  0  0  0  0  0  0
  182.3790  178.5260  141.8240 C   0  0  0  0  0  2  0  0  0  0  0  0
  180.0880  177.6760  142.1800 C   0  0  0  0  0  2  0  0  0  0  0  0
  180.9260  178.6760  141.4090 C   0  0  0  0  0  3  0  0  0  0  0  0
  180.4590  177.4010  140.7380 C   0  0  0  0  0  2  0  0  0  0  0  0
  189.0380  176.7630  147.2490 C   0  0  0  0  0  2  0  0  0  0  0  0
  190.1240  177.5420  147.9670 C   0  0  0  0  0  2  0  0  0  0  0  0
  191.3870  177.3620  147.2660 N   0  0  0  0  0  2  0  0  0  0  0  0
  192.1320  175.5940  145.9210 O   0  0  0  0  0  1  0  0  0  0  0  0
  191.6580  175.9310  147.1970 C   0  0  1  0  0  3  0  0  0  0  0  0
  193.0920  177.6170  149.7310 O   0  0  0  0  0  0  0  0  0  0  0  0
  192.6360  175.5330  148.3150 C   0  0  1  0  0  3  0  0  0  0  0  0
  193.9330  175.7960  147.9620 O   0  0  0  0  0  0  0  0  0  0  0  0
  193.1750  176.6350  148.9470 C   0  0  0  0  0  0  0  0  0  0  0  0
  189.0840  177.1430  140.4140 C   0  0  0  0  0  3  0  0  0  0  0  0
  189.8910  177.6400  139.4760 C   0  0  0  0  0  3  0  0  0  0  0  0
  191.0450  176.8570  138.9620 C   0  0  0  0  0  2  0  0  0  0  0  0
  190.8590  176.6490  137.4700 C   0  0  0  0  0  2  0  0  0  0  0  0
  190.7370  174.3560  136.4950 C   0  0  0  0  0  3  0  0  0  0  0  0
  193.5290  174.0370  136.7380 C   0  0  0  0  0  0  0  0  0  0  0  0
  192.7260  173.0020  136.1900 C   0  0  0  0  0  0  0  0  0  0  0  0
  193.2950  171.7910  135.7000 N   0  0  0  0  0  1  0  0  0  0  0  0
  192.8960  175.2260  137.1460 C   0  0  0  0  0  3  0  0  0  0  0  0
  191.5130  175.3860  137.0320 C   0  0  0  0  0  0  0  0  0  0  0  0
  191.3430  173.1730  136.0760 C   0  0  0  0  0  3  0  0  0  0  0  0
  195.8190  175.0600  136.7640 C   0  0  0  0  0  3  0  0  0  0  0  0
  195.0060  173.9220  136.9040 C   0  0  0  0  0  0  0  0  0  0  0  0
  197.7970  173.7470  137.2310 C   0  0  0  0  0  0  0  0  0  0  0  0
  197.2060  174.9740  136.9240 C   0  0  0  0  0  3  0  0  0  0  0  0
  197.0030  172.6070  137.3770 C   0  0  0  0  0  3  0  0  0  0  0  0
  195.6170  172.6970  137.2180 C   0  0  0  0  0  3  0  0  0  0  0  0
  199.1740  173.6610  137.3830 O   0  0  0  0  0  1  0  0  0  0  0  0
  186.6250  177.4530  140.3550 C   0  0  0  0  0  2  0  0  0  0  0  0
  185.9990  178.3260  139.2620 C   0  0  1  0  0  3  0  0  0  0  0  0
  185.3340  179.4380  139.7840 O   0  0  0  0  0  0  0  0  0  0  0  0
  184.1780  179.5570  139.0050 C   0  0  0  0  0  1  0  0  0  0  0  0
  187.0550  178.7620  138.2620 C   0  0  0  0  0  2  0  0  0  0  0  0
  186.8600  178.0280  136.9830 C   0  0  0  0  0  3  0  0  0  0  0  0
  187.2270  176.7530  136.8800 C   0  0  0  0  0  3  0  0  0  0  0  0
  187.0380  176.0140  135.5960 C   0  0  0  0  0  2  0  0  0  0  0  0
  185.8520  175.1730  135.6780 N   0  0  0  0  0  2  0  0  0  0  0  0
  185.6840  172.9040  136.3000 O   0  0  0  0  0  0  0  0  0  0  0  0
  186.0690  174.1850  136.7270 C   0  0  2  0  0  0  0  0  0  0  0  0
  184.9360  173.4610  137.3610 C   0  0  1  0  0  3  0  0  0  0  0  0
  187.3270  174.1500  137.3300 O   0  0  0  0  0  1  0  0  0  0  0  0
  183.5690  173.8950  136.8370 C   0  0  2  0  0  3  0  0  0  0  0  0
  183.2020  175.3180  137.2860 C   0  0  2  0  0  3  0  0  0  0  0  0
  183.1620  175.4140  138.6750 O   0  0  0  0  0  1  0  0  0  0  0  0
  181.8710  175.7840  136.7050 C   0  0  0  0  0  2  0  0  0  0  0  0
  180.8660  174.8440  136.9530 O   0  0  0  0  0  0  0  0  0  0  0  0
  179.7980  175.2540  136.1560 C   0  0  0  0  0  1  0  0  0  0  0  0
  182.4740  171.5190  135.8290 S   0  0  0  0  0  1  0  0  0  0  0  0
  182.4880  172.8360  137.0910 C   0  0  0  0  0  2  0  0  0  0  0  0
  1  2  1  6  0  0  0
  3  8  2  0  0  0  0
  4 21  1  1  0  0  0
  4  7  1  0  0  0  0
  5  7  1  0  0  0  0
  6 12  1  0  0  0  0
  8  5  1  0  0  0  0
  9  6  1  0  0  0  0
 10  3  1  0  0  0  0
 11  1  1  6  0  0  0
 11 10  1  0  0  0  0
 11  9  1  0  0  0  0
 12  3  1  6  0  0  0
 12  4  1  0  0  0  0
 13  8  1  0  0  0  0
 14 13  1  0  0  0  0
 15 16  1  0  0  0  0
 15 14  1  0  0  0  0
 17 16  1  0  0  0  0
 19 17  1  0  0  0  0
 19 18  1  0  0  0  0
 20 19  1  0  0  0  0
 20 18  1  0  0  0  0
 21 22  1  0  0  0  0
 23 22  1  0  0  0  0
 25 24  1  6  0  0  0
 25 23  1  0  0  0  0
 27 25  1  6  0  0  0
 27 29  1  0  0  0  0
 28 27  1  0  0  0  0
 28 29  1  0  0  0  0
 29 26  2  0  0  0  0
 30  1  1  0  0  0  0
 31 30  2  0  0  0  0
 32 31  1  0  0  0  0
 33 32  1  0  0  0  0
 34 39  1  0  0  0  0
 35 42  1  0  0  0  0
 35 38  1  0  0  0  0
 36 35  2  0  0  0  0
 37 36  1  0  0  0  0
 39 38  2  0  0  0  0
 39 33  1  0  0  0  0
 40 36  1  0  0  0  0
 40 34  2  0  0  0  0
 41 42  2  0  0  0  0
 41 44  1  0  0  0  0
 42 46  1  0  0  0  0
 43 45  1  0  0  0  0
 43 47  1  0  0  0  0
 44 43  2  0  0  0  0
 46 45  2  0  0  0  0
 48  1  1  0  0  0  0
 49 52  1  6  0  0  0
 49 50  1  0  0  0  0
 49 48  1  0  0  0  0
 51 50  1  0  0  0  0
 53 52  1  0  0  0  0
 54 53  2  0  0  0  0
 55 56  1  0  0  0  0
 55 54  1  0  0  0  0
 56 58  1  0  0  0  0
 57 58  1  0  0  0  0
 57 59  1  0  0  0  0
 58 60  1  1  0  0  0
 58 59  1  0  0  0  0
 59 61  1  6  0  0  0
 61 68  1  1  0  0  0
 61 62  1  0  0  0  0
 62 63  1  1  0  0  0
 64 65  1  0  0  0  0
 64 62  1  0  0  0  0
 66 65  1  0  0  0  0
 67 68  1  0  0  0  0
M  END
>  <MODEL>
9

>  <REMARK>
 VINA RESULT:      -3.4      3.112     10.919
  Name = 
  30 active torsions:
  status: ('A' for Active; 'I' for Inactive)
    1  A    between atoms: C_4  and  C_25
    2  A    between atoms: C_4  and  N_65
    3  A    between atoms: O_6  and  C_38
    4  A    between atoms: N_7  and  N_22
    5  A    between atoms: N_7  and  N_68
    6  A    between atoms: C_8  and  C_12
    7  A    between atoms: C_9  and  C_25
    8  A    between atoms: C_13  and  N_24
    9  A    between atoms: O_14  and  C_63
   10  A    between atoms: C_17  and  C_43
   11  A    between atoms: C_20  and  C_50
   12  A    between atoms: C_20  and  C_63
   13  A    between atoms: C_21  and  C_44
   14  A    between atoms: C_21  and  N_65
   15  A    between atoms: N_22  and  C_49
   16  A    between atoms: N_24  and  C_56
   17  A    between atoms: C_26  and  C_34
   18  A    between atoms: C_26  and  C_38
   19  A    between atoms: C_30  and  C_59
   20  A    between atoms: C_32  and  C_56
   21  A    between atoms: C_34  and  C_55
   22  A    between atoms: C_34  and  C_64
   23  A    between atoms: C_35  and  C_50
   24  A    between atoms: C_36  and  C_54
   25  A    between atoms: C_36  and  C_60
   26  A    between atoms: C_38  and  C_43
   27  A    between atoms: C_40  and  C_49
   28  A    between atoms: C_48  and  C_50
   29  A    between atoms: C_54  and  C_67
   30  A    between atoms: C_59  and  N_68
                            x       y       z     vdW  Elec       q    Type
                         _______ _______ _______ _____ _____    ______ ____

>  <TORSDO>
F 30

$$$$
