=
 OpenBabel11032421103D

 50 54  0  0  1  0  0  0  0  0999 V2000
  184.4590  179.1240  139.1270 C   0  0  0  0  0  0  0  0  0  0  0  0
  188.6950  178.6120  139.5400 C   0  0  0  0  0  2  0  0  0  0  0  0
  185.9500  177.3700  143.0180 C   0  0  0  0  0  2  0  0  0  0  0  0
  185.5650  176.1690  137.0520 O   0  0  0  0  0  1  0  0  0  0  0  0
  186.3420  178.4630  140.6280 C   0  0  0  0  0  0  0  0  0  0  0  0
  186.9000  177.8790  138.2290 C   0  0  0  0  0  0  0  0  0  0  0  0
  181.9820  179.1780  138.7690 C   0  0  0  0  0  0  0  0  0  0  0  0
  183.1690  177.1780  138.0000 C   0  0  0  0  0  3  0  0  0  0  0  0
  185.1240  179.7860  142.9520 C   0  0  0  0  0  2  0  0  0  0  0  0
  188.0990  178.3780  142.3710 O   0  0  0  0  0  1  0  0  0  0  0  0
  187.9310  178.3360  136.1370 O   0  0  0  0  0  1  0  0  0  0  0  0
  185.5950  177.2880  137.8980 C   0  0  0  0  0  0  0  0  0  0  0  0
  184.2850  179.4700  141.7050 C   0  0  1  0  0  3  0  0  0  0  0  0
  189.2390  178.3020  138.1350 C   0  0  2  0  0  3  0  0  0  0  0  0
  185.0670  178.9260  140.5170 C   0  0  0  0  0  0  0  0  0  0  0  0
  185.3670  178.5380  143.8260 C   0  0  2  0  0  3  0  0  0  0  0  0
  183.1090  179.8050  139.1220 C   0  0  0  0  0  3  0  0  0  0  0  0
  187.2310  178.3530  139.4310 C   0  0  0  0  0  0  0  0  0  0  0  0
  184.4450  177.8440  138.3100 C   0  0  2  0  0  3  0  0  0  0  0  0
  182.0110  177.8050  138.2140 C   0  0  0  0  0  3  0  0  0  0  0  0
  186.8960  177.8230  141.9040 C   0  0  1  0  0  3  0  0  0  0  0  0
  183.0430  178.6420  142.0180 C   0  0  0  0  0  1  0  0  0  0  0  0
  188.0820  177.6680  137.3580 C   0  0  1  0  0  3  0  0  0  0  0  0
  186.0330  178.7380  145.2140 C   0  0  1  0  0  3  0  0  0  0  0  0
  185.0440  178.9500  146.1780 O   0  0  0  0  0  1  0  0  0  0  0  0
  187.0480  177.6900  145.7470 C   0  0  1  0  0  3  0  0  0  0  0  0
  188.5370  177.9120  145.4520 C   0  0  0  0  0  2  0  0  0  0  0  0
  189.0110  176.7030  144.8000 N   0  0  0  0  0  2  0  0  0  0  0  0
  190.4690  175.9790  143.1560 O   0  0  0  0  0  0  0  0  0  0  0  0
  190.3310  176.5940  144.2510 C   0  0  0  0  0  0  0  0  0  0  0  0
  191.8600  178.2910  144.9710 F   0  0  0  0  0  0  0  0  0  0  0  0
  191.5480  176.9360  145.0570 C   0  0  1  0  0  3  0  0  0  0  0  0
  191.3680  176.4990  146.5110 C   0  0  2  0  0  3  0  0  0  0  0  0
  191.3310  177.6060  147.3530 F   0  0  0  0  0  0  0  0  0  0  0  0
  192.4310  175.5290  146.9370 C   0  0  0  0  0  0  0  0  0  0  0  0
  192.7100  174.5610  146.1660 O   0  0  0  0  0  0  0  0  0  0  0  0
  193.1610  175.7010  148.1510 N   0  0  0  0  0  1  0  0  0  0  0  0
  186.8070  177.2980  147.2050 C   0  0  0  0  0  2  0  0  0  0  0  0
  188.1320  177.1520  147.9530 C   0  0  0  0  0  2  0  0  0  0  0  0
  188.3800  178.3750  148.8140 C   0  0  0  0  0  1  0  0  0  0  0  0
  180.7100  179.9700  138.7740 C   0  0  2  0  0  3  0  0  0  0  0  0
  179.5480  179.0790  138.7880 N   0  0  0  0  0  1  0  0  0  0  0  0
  180.5520  180.5940  136.3150 C   0  0  0  0  0  3  0  0  0  0  0  0
  180.8200  183.3030  136.9300 C   0  0  0  0  0  3  0  0  0  0  0  0
  180.6110  180.9910  137.6650 C   0  0  0  0  0  0  0  0  0  0  0  0
  180.7560  182.3590  137.9620 C   0  0  0  0  0  3  0  0  0  0  0  0
  180.7530  182.8970  135.5970 C   0  0  0  0  0  3  0  0  0  0  0  0
  180.6290  181.5380  135.2890 C   0  0  0  0  0  3  0  0  0  0  0  0
  190.8690  176.9510  139.5900 C   0  0  0  0  0  1  0  0  0  0  0  0
  190.5360  177.4560  138.1730 C   0  0  0  0  0  2  0  0  0  0  0  0
  1 15  2  0  0  0  0
  3 16  1  0  0  0  0
  4 12  1  0  0  0  0
  5 21  1  0  0  0  0
  6 18  1  0  0  0  0
  7 41  1  0  0  0  0
  7 17  2  0  0  0  0
  8 20  2  0  0  0  0
  9 16  1  0  0  0  0
 12  6  2  0  0  0  0
 12 19  1  0  0  0  0
 13 22  1  1  0  0  0
 13  9  1  0  0  0  0
 14 50  1  1  0  0  0
 14  2  1  0  0  0  0
 15  5  1  0  0  0  0
 15 13  1  0  0  0  0
 16 24  1  1  0  0  0
 17  1  1  0  0  0  0
 18  2  1  0  0  0  0
 18  5  2  0  0  0  0
 19  8  1  1  0  0  0
 19  1  1  0  0  0  0
 20  7  1  0  0  0  0
 21 10  1  1  0  0  0
 21  3  1  0  0  0  0
 23 11  1  6  0  0  0
 23 14  1  0  0  0  0
 23  6  1  0  0  0  0
 24 26  1  0  0  0  0
 24 25  1  1  0  0  0
 26 27  1  1  0  0  0
 26 38  1  0  0  0  0
 28 27  1  0  0  0  0
 29 30  2  0  0  0  0
 30 28  1  0  0  0  0
 30 32  1  0  0  0  0
 32 31  1  1  0  0  0
 32 33  1  0  0  0  0
 33 35  1  0  0  0  0
 33 34  1  1  0  0  0
 35 37  1  0  0  0  0
 36 35  2  0  0  0  0
 38 39  1  0  0  0  0
 39 40  1  0  0  0  0
 41 42  1  6  0  0  0
 43 45  1  0  0  0  0
 44 46  1  0  0  0  0
 45 46  2  0  0  0  0
 45 41  1  0  0  0  0
 47 44  2  0  0  0  0
 48 47  1  0  0  0  0
 48 43  2  0  0  0  0
 50 49  1  0  0  0  0
M  END
>  <MODEL>
1

>  <REMARK>
 VINA RESULT:      -8.9      0.000      0.000
  Name = 
  12 active torsions:
  status: ('A' for Active; 'I' for Inactive)
    1  A    between atoms: C_4  and  C_6
    2  A    between atoms: C_4  and  C_30
    3  A    between atoms: C_6  and  C_13
    4  A    between atoms: C_6  and  C_50
    5  A    between atoms: C_11  and  C_14
    6  A    between atoms: N_12  and  C_13
    7  A    between atoms: C_14  and  C_16
    8  A    between atoms: C_15  and  C_22
    9  A    between atoms: C_22  and  C_31
   10  A    between atoms: C_27  and  C_48
   11  A    between atoms: C_31  and  C_47
   12  A    between atoms: C_41  and  C_50
                            x       y       z     vdW  Elec       q    Type
                         _______ _______ _______ _____ _____    ______ ____

>  <TORSDO>
F 12

$$$$
=
 OpenBabel11032421103D

 50 54  0  0  1  0  0  0  0  0999 V2000
  188.0220  177.7670  138.3790 C   0  0  0  0  0  0  0  0  0  0  0  0
  192.2190  176.9110  138.5350 C   0  0  0  0  0  2  0  0  0  0  0  0
  189.6920  176.3760  142.3440 C   0  0  0  0  0  2  0  0  0  0  0  0
  188.6890  174.4870  136.6340 O   0  0  0  0  0  1  0  0  0  0  0  0
  189.9660  177.1220  139.8080 C   0  0  0  0  0  0  0  0  0  0  0  0
  190.2620  176.1940  137.4710 C   0  0  0  0  0  0  0  0  0  0  0  0
  185.5370  178.0110  138.2050 C   0  0  0  0  0  0  0  0  0  0  0  0
  186.4790  175.8280  137.6190 C   0  0  0  0  0  3  0  0  0  0  0  0
  189.0710  178.8320  142.0230 C   0  0  0  0  0  2  0  0  0  0  0  0
  191.8540  177.0880  141.4090 O   0  0  0  0  0  1  0  0  0  0  0  0
  191.1410  176.2880  135.2650 O   0  0  0  0  0  1  0  0  0  0  0  0
  188.8870  175.6930  137.3200 C   0  0  0  0  0  0  0  0  0  0  0  0
  188.1030  178.4460  140.8960 C   0  0  1  0  0  3  0  0  0  0  0  0
  192.6110  176.3790  137.1460 C   0  0  2  0  0  3  0  0  0  0  0  0
  188.7300  177.6860  139.7330 C   0  0  0  0  0  0  0  0  0  0  0  0
  189.2820  177.6860  143.0330 C   0  0  2  0  0  3  0  0  0  0  0  0
  186.7390  178.5670  138.3860 C   0  0  0  0  0  3  0  0  0  0  0  0
  190.7350  176.7800  138.5710 C   0  0  0  0  0  0  0  0  0  0  0  0
  187.8290  176.4030  137.7410 C   0  0  2  0  0  3  0  0  0  0  0  0
  185.4010  176.5840  137.8350 C   0  0  0  0  0  3  0  0  0  0  0  0
  190.5720  176.5950  141.1110 C   0  0  1  0  0  3  0  0  0  0  0  0
  186.8270  177.7840  141.4070 C   0  0  0  0  0  1  0  0  0  0  0  0
  191.3420  175.7660  136.5490 C   0  0  1  0  0  3  0  0  0  0  0  0
  190.0810  177.9920  144.3280 C   0  0  1  0  0  3  0  0  0  0  0  0
  190.6380  179.2700  144.2400 O   0  0  0  0  0  1  0  0  0  0  0  0
  189.4050  177.8250  145.7170 C   0  0  1  0  0  3  0  0  0  0  0  0
  187.9770  177.2680  145.7620 C   0  0  0  0  0  2  0  0  0  0  0  0
  187.2970  177.9670  146.8400 N   0  0  0  0  0  2  0  0  0  0  0  0
  185.9260  179.7860  147.2440 O   0  0  0  0  0  0  0  0  0  0  0  0
  186.0750  178.6880  146.6370 C   0  0  0  0  0  0  0  0  0  0  0  0
  183.7030  178.3630  146.6230 F   0  0  0  0  0  0  0  0  0  0  0  0
  184.8930  178.0550  145.9670 C   0  0  1  0  0  3  0  0  0  0  0  0
  184.8340  178.4560  144.4920 C   0  0  2  0  0  3  0  0  0  0  0  0
  185.9670  179.1810  144.1380 F   0  0  0  0  0  0  0  0  0  0  0  0
  183.5810  179.2160  144.1710 C   0  0  0  0  0  0  0  0  0  0  0  0
  183.6460  180.4800  144.0850 O   0  0  0  0  0  0  0  0  0  0  0  0
  182.3440  178.5510  143.9150 N   0  0  0  0  0  1  0  0  0  0  0  0
  190.3090  177.1650  146.7570 C   0  0  0  0  0  2  0  0  0  0  0  0
  191.5390  176.5470  146.0920 C   0  0  0  0  0  2  0  0  0  0  0  0
  192.2500  175.6280  147.0650 C   0  0  0  0  0  1  0  0  0  0  0  0
  184.3410  178.9150  138.2030 C   0  0  2  0  0  3  0  0  0  0  0  0
  184.5670  180.0720  139.0720 N   0  0  0  0  0  1  0  0  0  0  0  0
  182.0510  178.0260  137.5510 C   0  0  0  0  0  3  0  0  0  0  0  0
  181.4680  177.4220  140.2120 C   0  0  0  0  0  3  0  0  0  0  0  0
  183.0400  178.2220  138.5330 C   0  0  0  0  0  0  0  0  0  0  0  0
  182.7310  177.9230  139.8740 C   0  0  0  0  0  3  0  0  0  0  0  0
  180.5000  177.2260  139.2280 C   0  0  0  0  0  3  0  0  0  0  0  0
  180.7880  177.5380  137.8960 C   0  0  0  0  0  3  0  0  0  0  0  0
  193.4170  173.9510  137.3820 C   0  0  0  0  0  1  0  0  0  0  0  0
  193.8300  175.4250  137.1970 C   0  0  0  0  0  2  0  0  0  0  0  0
  1 17  1  0  0  0  0
  1 15  2  0  0  0  0
  2 18  1  0  0  0  0
  3 16  1  0  0  0  0
  4 12  1  0  0  0  0
  5 21  1  0  0  0  0
  6 18  1  0  0  0  0
  7 17  2  0  0  0  0
  8 20  2  0  0  0  0
  9 16  1  0  0  0  0
 12  6  2  0  0  0  0
 12 19  1  0  0  0  0
 13 22  1  1  0  0  0
 13  9  1  0  0  0  0
 14 50  1  1  0  0  0
 14  2  1  0  0  0  0
 15  5  1  0  0  0  0
 15 13  1  0  0  0  0
 16 24  1  1  0  0  0
 18  5  2  0  0  0  0
 19  8  1  1  0  0  0
 19  1  1  0  0  0  0
 20  7  1  0  0  0  0
 21 10  1  1  0  0  0
 21  3  1  0  0  0  0
 23 11  1  6  0  0  0
 23 14  1  0  0  0  0
 23  6  1  0  0  0  0
 24 25  1  6  0  0  0
 24 26  1  0  0  0  0
 26 27  1  6  0  0  0
 26 38  1  0  0  0  0
 27 28  1  0  0  0  0
 30 28  1  0  0  0  0
 30 29  2  0  0  0  0
 32 31  1  1  0  0  0
 32 30  1  0  0  0  0
 33 34  1  1  0  0  0
 33 32  1  0  0  0  0
 35 33  1  0  0  0  0
 36 35  2  0  0  0  0
 37 35  1  0  0  0  0
 39 38  1  0  0  0  0
 39 40  1  0  0  0  0
 41  7  1  0  0  0  0
 41 45  1  0  0  0  0
 41 42  1  1  0  0  0
 43 48  2  0  0  0  0
 43 45  1  0  0  0  0
 45 46  2  0  0  0  0
 46 44  1  0  0  0  0
 47 44  2  0  0  0  0
 48 47  1  0  0  0  0
 50 49  1  0  0  0  0
M  END
>  <MODEL>
2

>  <REMARK>
 VINA RESULT:      -8.8      2.921      5.225
  Name = 
  12 active torsions:
  status: ('A' for Active; 'I' for Inactive)
    1  A    between atoms: C_4  and  C_6
    2  A    between atoms: C_4  and  C_30
    3  A    between atoms: C_6  and  C_13
    4  A    between atoms: C_6  and  C_50
    5  A    between atoms: C_11  and  C_14
    6  A    between atoms: N_12  and  C_13
    7  A    between atoms: C_14  and  C_16
    8  A    between atoms: C_15  and  C_22
    9  A    between atoms: C_22  and  C_31
   10  A    between atoms: C_27  and  C_48
   11  A    between atoms: C_31  and  C_47
   12  A    between atoms: C_41  and  C_50
                            x       y       z     vdW  Elec       q    Type
                         _______ _______ _______ _____ _____    ______ ____

>  <TORSDO>
F 12

$$$$
=
 OpenBabel11032421103D

 50 54  0  0  1  0  0  0  0  0999 V2000
  190.5790  176.4030  140.3520 C   0  0  0  0  0  0  0  0  0  0  0  0
  191.9480  175.4090  136.4140 C   0  0  0  0  0  2  0  0  0  0  0  0
  188.7330  178.6660  136.9010 C   0  0  0  0  0  2  0  0  0  0  0  0
  194.0220  177.8590  139.8270 O   0  0  0  0  0  1  0  0  0  0  0  0
  190.3130  176.7760  137.8980 C   0  0  0  0  0  0  0  0  0  0  0  0
  192.7340  176.2740  138.4420 C   0  0  0  0  0  0  0  0  0  0  0  0
  189.9860  177.1570  142.6650 C   0  0  0  0  0  0  0  0  0  0  0  0
  191.9510  178.1920  141.6310 C   0  0  0  0  0  3  0  0  0  0  0  0
  187.3830  176.8580  138.0960 C   0  0  0  0  0  2  0  0  0  0  0  0
  189.5400  176.7780  135.5450 O   0  0  0  0  0  1  0  0  0  0  0  0
  194.5860  174.7970  138.6290 O   0  0  0  0  0  1  0  0  0  0  0  0
  192.8250  177.1610  139.6110 C   0  0  0  0  0  0  0  0  0  0  0  0
  188.2550  177.0270  139.3480 C   0  0  1  0  0  3  0  0  0  0  0  0
  193.4260  175.0060  136.5510 C   0  0  2  0  0  3  0  0  0  0  0  0
  189.7470  176.8110  139.1350 C   0  0  0  0  0  0  0  0  0  0  0  0
  187.3320  178.1400  137.2400 C   0  0  2  0  0  3  0  0  0  0  0  0
  189.7990  176.3130  141.6450 C   0  0  0  0  0  3  0  0  0  0  0  0
  191.6490  176.1410  137.6770 C   0  0  0  0  0  0  0  0  0  0  0  0
  191.8320  177.2440  140.5110 C   0  0  2  0  0  3  0  0  0  0  0  0
  191.0850  178.1500  142.6450 C   0  0  0  0  0  3  0  0  0  0  0  0
  189.7610  177.5500  136.6980 C   0  0  1  0  0  3  0  0  0  0  0  0
  187.9520  178.3110  140.1150 C   0  0  0  0  0  1  0  0  0  0  0  0
  193.9520  175.7260  137.7960 C   0  0  1  0  0  3  0  0  0  0  0  0
  186.3380  178.1830  136.0480 C   0  0  1  0  0  3  0  0  0  0  0  0
  187.0150  178.5830  134.8930 O   0  0  0  0  0  1  0  0  0  0  0  0
  185.4620  176.9420  135.7210 C   0  0  1  0  0  3  0  0  0  0  0  0
  183.9480  177.1450  135.5830 C   0  0  0  0  0  2  0  0  0  0  0  0
  183.3200  176.0640  136.3260 N   0  0  0  0  0  2  0  0  0  0  0  0
  183.4330  174.9470  138.3490 O   0  0  0  0  0  0  0  0  0  0  0  0
  183.2620  176.0510  137.7580 C   0  0  0  0  0  0  0  0  0  0  0  0
  182.0160  176.8180  139.6540 F   0  0  0  0  0  0  0  0  0  0  0  0
  182.7390  177.2220  138.5340 C   0  0  1  0  0  3  0  0  0  0  0  0
  183.8810  178.1630  138.9200 C   0  0  2  0  0  3  0  0  0  0  0  0
  184.5000  177.7260  140.0880 F   0  0  0  0  0  0  0  0  0  0  0  0
  183.4140  179.5820  139.0520 C   0  0  0  0  0  0  0  0  0  0  0  0
  184.2830  180.5050  139.0830 O   0  0  0  0  0  0  0  0  0  0  0  0
  182.0260  179.9140  139.0930 N   0  0  0  0  0  1  0  0  0  0  0  0
  186.0280  176.0800  134.5940 C   0  0  0  0  0  2  0  0  0  0  0  0
  186.6760  174.8130  135.1540 C   0  0  0  0  0  2  0  0  0  0  0  0
  185.9860  173.5850  134.5940 C   0  0  0  0  0  1  0  0  0  0  0  0
  189.1740  176.9460  143.9060 C   0  0  2  0  0  3  0  0  0  0  0  0
  188.0550  177.8890  143.9580 N   0  0  0  0  0  1  0  0  0  0  0  0
  191.2530  176.3820  145.2550 C   0  0  0  0  0  3  0  0  0  0  0  0
  190.0590  177.3250  147.5940 C   0  0  0  0  0  3  0  0  0  0  0  0
  189.9780  176.9730  145.1850 C   0  0  0  0  0  0  0  0  0  0  0  0
  189.3810  177.4360  146.3730 C   0  0  0  0  0  3  0  0  0  0  0  0
  191.3250  176.7440  147.6470 C   0  0  0  0  0  3  0  0  0  0  0  0
  191.9190  176.2610  146.4760 C   0  0  0  0  0  3  0  0  0  0  0  0
  195.7580  175.1710  135.4870 C   0  0  0  0  0  1  0  0  0  0  0  0
  194.2370  175.2700  135.2580 C   0  0  0  0  0  2  0  0  0  0  0  0
  1 19  1  0  0  0  0
  1 17  1  0  0  0  0
  2 14  1  0  0  0  0
  2 18  1  0  0  0  0
  3 16  1  0  0  0  0
  5 15  1  0  0  0  0
  6 12  2  0  0  0  0
  7 41  1  0  0  0  0
  8 20  2  0  0  0  0
  9 13  1  0  0  0  0
 12  4  1  0  0  0  0
 12 19  1  0  0  0  0
 13 22  1  6  0  0  0
 14 50  1  6  0  0  0
 14 23  1  0  0  0  0
 15 13  1  0  0  0  0
 15  1  2  0  0  0  0
 16 24  1  6  0  0  0
 16  9  1  0  0  0  0
 17  7  2  0  0  0  0
 18  5  2  0  0  0  0
 18  6  1  0  0  0  0
 19  8  1  6  0  0  0
 20  7  1  0  0  0  0
 21 10  1  6  0  0  0
 21  3  1  0  0  0  0
 21  5  1  0  0  0  0
 23  6  1  0  0  0  0
 23 11  1  1  0  0  0
 24 25  1  6  0  0  0
 26 38  1  6  0  0  0
 26 24  1  0  0  0  0
 27 26  1  0  0  0  0
 27 28  1  0  0  0  0
 28 30  1  0  0  0  0
 30 29  2  0  0  0  0
 30 32  1  0  0  0  0
 32 33  1  0  0  0  0
 32 31  1  1  0  0  0
 33 35  1  0  0  0  0
 33 34  1  1  0  0  0
 35 36  2  0  0  0  0
 35 37  1  0  0  0  0
 38 39  1  0  0  0  0
 40 39  1  0  0  0  0
 41 42  1  1  0  0  0
 41 45  1  0  0  0  0
 43 48  1  0  0  0  0
 44 47  1  0  0  0  0
 45 43  2  0  0  0  0
 45 46  1  0  0  0  0
 46 44  2  0  0  0  0
 48 47  2  0  0  0  0
 50 49  1  0  0  0  0
M  END
>  <MODEL>
3

>  <REMARK>
 VINA RESULT:      -7.7      3.680     10.045
  Name = 
  12 active torsions:
  status: ('A' for Active; 'I' for Inactive)
    1  A    between atoms: C_4  and  C_6
    2  A    between atoms: C_4  and  C_30
    3  A    between atoms: C_6  and  C_13
    4  A    between atoms: C_6  and  C_50
    5  A    between atoms: C_11  and  C_14
    6  A    between atoms: N_12  and  C_13
    7  A    between atoms: C_14  and  C_16
    8  A    between atoms: C_15  and  C_22
    9  A    between atoms: C_22  and  C_31
   10  A    between atoms: C_27  and  C_48
   11  A    between atoms: C_31  and  C_47
   12  A    between atoms: C_41  and  C_50
                            x       y       z     vdW  Elec       q    Type
                         _______ _______ _______ _____ _____    ______ ____

>  <TORSDO>
F 12

$$$$
=
 OpenBabel11032421103D

 50 54  0  0  1  0  0  0  0  0999 V2000
  188.9460  178.2950  141.3730 C   0  0  0  0  0  0  0  0  0  0  0  0
  188.5380  178.3190  145.6390 C   0  0  0  0  0  2  0  0  0  0  0  0
  184.8640  177.3180  143.0540 C   0  0  0  0  0  2  0  0  0  0  0  0
  190.5780  175.2030  142.7960 O   0  0  0  0  0  1  0  0  0  0  0  0
  187.3970  178.0770  143.3190 C   0  0  0  0  0  0  0  0  0  0  0  0
  189.6920  177.2050  143.9350 C   0  0  0  0  0  0  0  0  0  0  0  0
  189.2630  178.0230  138.9040 C   0  0  0  0  0  0  0  0  0  0  0  0
  189.7470  176.0730  140.3040 C   0  0  0  0  0  2  0  0  0  0  0  0
  185.2740  179.5910  141.9650 C   0  0  0  0  0  2  0  0  0  0  0  0
  185.6930  178.4470  145.0770 O   0  0  0  0  0  1  0  0  0  0  0  0
  191.8480  177.4550  144.9060 O   0  0  0  0  0  1  0  0  0  0  0  0
  189.9090  176.4320  142.7030 C   0  0  0  0  0  0  0  0  0  0  0  0
  186.4440  179.0020  141.1650 C   0  0  1  0  0  3  0  0  0  0  0  0
  189.8900  177.8640  146.2130 C   0  0  2  0  0  3  0  0  0  0  0  0
  187.5530  178.3760  142.0010 C   0  0  0  0  0  0  0  0  0  0  0  0
  184.2290  178.5220  142.3460 C   0  0  2  0  0  3  0  0  0  0  0  0
  189.0280  178.8160  139.9550 C   0  0  0  0  0  3  0  0  0  0  0  0
  188.5810  177.8870  144.2130 C   0  0  0  0  0  0  0  0  0  0  0  0
  189.5630  176.9140  141.4990 C   0  0  0  0  0  0  0  0  0  0  0  0
  189.6080  176.5940  139.0850 C   0  0  0  0  0  3  0  0  0  0  0  0
  186.0500  177.7000  143.9420 C   0  0  1  0  0  3  0  0  0  0  0  0
  185.9900  178.0990  140.0230 C   0  0  0  0  0  1  0  0  0  0  0  0
  190.5430  176.9980  145.1320 C   0  0  1  0  0  3  0  0  0  0  0  0
  182.8980  178.9990  142.9880 C   0  0  1  0  0  3  0  0  0  0  0  0
  183.1500  180.0890  143.8250 O   0  0  0  0  0  1  0  0  0  0  0  0
  181.6720  179.3200  142.0900 C   0  0  1  0  0  3  0  0  0  0  0  0
  181.3450  178.3550  140.9430 C   0  0  0  0  0  2  0  0  0  0  0  0
  180.5380  179.1040  139.9940 N   0  0  0  0  0  2  0  0  0  0  0  0
  180.4040  181.1650  138.9540 O   0  0  0  0  0  0  0  0  0  0  0  0
  181.0910  180.1240  139.1530 C   0  0  0  0  0  0  0  0  0  0  0  0
  183.4800  180.1560  138.9920 F   0  0  0  0  0  0  0  0  0  0  0  0
  182.3020  179.8720  138.3060 C   0  0  1  0  0  3  0  0  0  0  0  0
  182.2980  178.4360  137.7780 C   0  0  2  0  0  3  0  0  0  0  0  0
  183.5850  177.9070  137.7950 F   0  0  0  0  0  0  0  0  0  0  0  0
  181.6930  178.3470  136.4090 C   0  0  0  0  0  0  0  0  0  0  0  0
  182.4430  178.0370  135.4340 O   0  0  0  0  0  0  0  0  0  0  0  0
  180.2970  178.5520  136.1900 N   0  0  0  0  0  1  0  0  0  0  0  0
  180.4250  179.7110  142.8810 C   0  0  0  0  0  2  0  0  0  0  0  0
  180.0400  178.6060  143.8660 C   0  0  0  0  0  2  0  0  0  0  0  0
  178.9570  179.1000  144.8040 C   0  0  0  0  0  1  0  0  0  0  0  0
  189.3520  178.6630  137.5520 C   0  0  2  0  0  3  0  0  0  0  0  0
  189.0740  180.0980  137.6400 N   0  0  0  0  0  1  0  0  0  0  0  0
  187.1090  178.2070  136.4470 C   0  0  0  0  0  3  0  0  0  0  0  0
  188.2590  176.2900  134.7770 C   0  0  0  0  0  3  0  0  0  0  0  0
  188.5000  177.9990  136.4950 C   0  0  0  0  0  0  0  0  0  0  0  0
  189.0670  177.0230  135.6550 C   0  0  0  0  0  3  0  0  0  0  0  0
  186.8830  176.5120  134.7340 C   0  0  0  0  0  3  0  0  0  0  0  0
  186.3050  177.4650  135.5800 C   0  0  0  0  0  3  0  0  0  0  0  0
  188.7980  177.9430  148.5360 C   0  0  0  0  0  1  0  0  0  0  0  0
  189.7510  177.1800  147.5950 C   0  0  0  0  0  2  0  0  0  0  0  0
  1 19  1  0  0  0  0
  1 15  1  0  0  0  0
  2 14  1  0  0  0  0
  3 21  1  0  0  0  0
  5 21  1  0  0  0  0
  5 18  1  0  0  0  0
  6 18  2  0  0  0  0
  6 23  1  0  0  0  0
  7 20  2  0  0  0  0
  7 17  1  0  0  0  0
  8 19  1  0  0  0  0
  9 16  1  0  0  0  0
 12  4  1  0  0  0  0
 12  6  1  0  0  0  0
 13 22  1  6  0  0  0
 13  9  1  0  0  0  0
 13 15  1  0  0  0  0
 14 50  1  1  0  0  0
 15  5  2  0  0  0  0
 16 24  1  1  0  0  0
 16  3  1  0  0  0  0
 17  1  2  0  0  0  0
 18  2  1  0  0  0  0
 19 12  2  0  0  0  0
 20  8  1  0  0  0  0
 21 10  1  6  0  0  0
 23 11  1  6  0  0  0
 23 14  1  0  0  0  0
 24 25  1  6  0  0  0
 26 27  1  1  0  0  0
 26 38  1  0  0  0  0
 26 24  1  0  0  0  0
 28 27  1  0  0  0  0
 29 30  2  0  0  0  0
 30 28  1  0  0  0  0
 32 31  1  1  0  0  0
 32 30  1  0  0  0  0
 33 34  1  6  0  0  0
 33 32  1  0  0  0  0
 35 33  1  0  0  0  0
 36 35  2  0  0  0  0
 37 35  1  0  0  0  0
 38 39  1  0  0  0  0
 39 40  1  0  0  0  0
 41 42  1  1  0  0  0
 41  7  1  0  0  0  0
 43 45  1  0  0  0  0
 44 46  1  0  0  0  0
 45 41  1  0  0  0  0
 46 45  2  0  0  0  0
 47 44  2  0  0  0  0
 47 48  1  0  0  0  0
 48 43  2  0  0  0  0
 50 49  1  0  0  0  0
M  END
>  <MODEL>
4

>  <REMARK>
 VINA RESULT:      -7.4      3.639      8.572
  Name = 
  12 active torsions:
  status: ('A' for Active; 'I' for Inactive)
    1  A    between atoms: C_4  and  C_6
    2  A    between atoms: C_4  and  C_30
    3  A    between atoms: C_6  and  C_13
    4  A    between atoms: C_6  and  C_50
    5  A    between atoms: C_11  and  C_14
    6  A    between atoms: N_12  and  C_13
    7  A    between atoms: C_14  and  C_16
    8  A    between atoms: C_15  and  C_22
    9  A    between atoms: C_22  and  C_31
   10  A    between atoms: C_27  and  C_48
   11  A    between atoms: C_31  and  C_47
   12  A    between atoms: C_41  and  C_50
                            x       y       z     vdW  Elec       q    Type
                         _______ _______ _______ _____ _____    ______ ____

>  <TORSDO>
F 12

$$$$
=
 OpenBabel11032421103D

 50 54  0  0  1  0  0  0  0  0999 V2000
  188.8860  178.3150  141.3390 C   0  0  0  0  0  0  0  0  0  0  0  0
  188.3290  178.2980  145.5890 C   0  0  0  0  0  2  0  0  0  0  0  0
  184.7710  177.2350  142.8690 C   0  0  0  0  0  2  0  0  0  0  0  0
  190.5360  175.2490  142.7980 O   0  0  0  0  0  1  0  0  0  0  0  0
  187.2750  178.0480  143.2280 C   0  0  0  0  0  0  0  0  0  0  0  0
  189.5670  177.2230  143.9180 C   0  0  0  0  0  0  0  0  0  0  0  0
  189.2950  178.0690  138.8810 C   0  0  0  0  0  0  0  0  0  0  0  0
  189.7730  176.1190  140.2850 C   0  0  0  0  0  2  0  0  0  0  0  0
  185.1670  179.5250  141.8110 C   0  0  0  0  0  2  0  0  0  0  0  0
  185.5030  178.3670  144.9280 O   0  0  0  0  0  1  0  0  0  0  0  0
  191.6800  177.5130  144.9660 O   0  0  0  0  0  1  0  0  0  0  0  0
  189.8430  176.4640  142.6900 C   0  0  0  0  0  0  0  0  0  0  0  0
  186.3780  178.9680  141.0480 C   0  0  1  0  0  3  0  0  0  0  0  0
  189.6700  177.8690  146.2060 C   0  0  2  0  0  3  0  0  0  0  0  0
  187.4700  178.3600  141.9180 C   0  0  0  0  0  0  0  0  0  0  0  0
  184.1340  178.4300  142.1470 C   0  0  2  0  0  3  0  0  0  0  0  0
  189.0050  178.8470  139.9290 C   0  0  0  0  0  3  0  0  0  0  0  0
  188.4310  177.8780  144.1620 C   0  0  0  0  0  0  0  0  0  0  0  0
  189.5290  176.9460  141.4780 C   0  0  0  0  0  0  0  0  0  0  0  0
  189.6660  176.6460  139.0640 C   0  0  0  0  0  3  0  0  0  0  0  0
  185.9160  177.6370  143.8010 C   0  0  1  0  0  3  0  0  0  0  0  0
  185.9840  178.0630  139.8850 C   0  0  0  0  0  1  0  0  0  0  0  0
  190.3800  177.0250  145.1430 C   0  0  1  0  0  3  0  0  0  0  0  0
  182.7710  178.8730  142.7450 C   0  0  1  0  0  3  0  0  0  0  0  0
  182.9690  179.9620  143.5980 O   0  0  0  0  0  1  0  0  0  0  0  0
  181.5700  179.1730  141.8070 C   0  0  1  0  0  3  0  0  0  0  0  0
  181.0230  178.0270  140.9460 C   0  0  0  0  0  2  0  0  0  0  0  0
  181.2570  178.4050  139.5620 N   0  0  0  0  0  2  0  0  0  0  0  0
  182.9600  178.6970  138.0230 O   0  0  0  0  0  0  0  0  0  0  0  0
  182.3670  177.9020  138.8070 C   0  0  0  0  0  0  0  0  0  0  0  0
  183.0500  175.9080  139.9420 F   0  0  0  0  0  0  0  0  0  0  0  0
  182.6530  176.4340  138.7150 C   0  0  1  0  0  3  0  0  0  0  0  0
  181.4430  175.6850  138.1550 C   0  0  2  0  0  3  0  0  0  0  0  0
  180.7550  175.0360  139.1760 F   0  0  0  0  0  0  0  0  0  0  0  0
  181.8340  174.7270  137.0700 C   0  0  0  0  0  0  0  0  0  0  0  0
  181.1470  174.7060  136.0030 O   0  0  0  0  0  0  0  0  0  0  0  0
  182.9800  173.8840  137.1900 N   0  0  0  0  0  1  0  0  0  0  0  0
  180.4510  179.9620  142.4860 C   0  0  0  0  0  2  0  0  0  0  0  0
  179.2990  179.0380  142.8810 C   0  0  0  0  0  2  0  0  0  0  0  0
  179.3760  178.7140  144.3590 C   0  0  0  0  0  1  0  0  0  0  0  0
  189.4170  178.7200  137.5370 C   0  0  2  0  0  3  0  0  0  0  0  0
  189.0560  180.1370  137.6150 N   0  0  0  0  0  1  0  0  0  0  0  0
  187.2770  178.2320  136.2540 C   0  0  0  0  0  3  0  0  0  0  0  0
  188.5530  176.2370  134.7780 C   0  0  0  0  0  3  0  0  0  0  0  0
  188.6560  178.0170  136.4370 C   0  0  0  0  0  0  0  0  0  0  0  0
  189.2870  177.0010  135.6940 C   0  0  0  0  0  3  0  0  0  0  0  0
  187.1890  176.4660  134.6010 C   0  0  0  0  0  3  0  0  0  0  0  0
  186.5470  177.4580  135.3490 C   0  0  0  0  0  3  0  0  0  0  0  0
  188.4730  177.8890  148.4790 C   0  0  0  0  0  1  0  0  0  0  0  0
  189.4980  177.1720  147.5780 C   0  0  0  0  0  2  0  0  0  0  0  0
  1 19  1  0  0  0  0
  1 15  1  0  0  0  0
  2 14  1  0  0  0  0
  3 21  1  0  0  0  0
  5 21  1  0  0  0  0
  5 18  1  0  0  0  0
  6 18  2  0  0  0  0
  6 23  1  0  0  0  0
  7 20  2  0  0  0  0
  7 17  1  0  0  0  0
  8 19  1  0  0  0  0
  9 16  1  0  0  0  0
 12  4  1  0  0  0  0
 12  6  1  0  0  0  0
 13 22  1  6  0  0  0
 13  9  1  0  0  0  0
 13 15  1  0  0  0  0
 14 50  1  1  0  0  0
 15  5  2  0  0  0  0
 16 24  1  1  0  0  0
 16  3  1  0  0  0  0
 17  1  2  0  0  0  0
 18  2  1  0  0  0  0
 19 12  2  0  0  0  0
 20  8  1  0  0  0  0
 21 10  1  6  0  0  0
 23 11  1  6  0  0  0
 23 14  1  0  0  0  0
 24 25  1  6  0  0  0
 26 27  1  1  0  0  0
 26 38  1  0  0  0  0
 26 24  1  0  0  0  0
 28 27  1  0  0  0  0
 29 30  2  0  0  0  0
 30 28  1  0  0  0  0
 32 30  1  0  0  0  0
 32 31  1  1  0  0  0
 33 32  1  0  0  0  0
 33 34  1  1  0  0  0
 35 37  1  0  0  0  0
 35 33  1  0  0  0  0
 36 35  2  0  0  0  0
 38 39  1  0  0  0  0
 39 40  1  0  0  0  0
 41 42  1  1  0  0  0
 41  7  1  0  0  0  0
 43 45  1  0  0  0  0
 44 46  1  0  0  0  0
 45 41  1  0  0  0  0
 46 45  2  0  0  0  0
 47 44  2  0  0  0  0
 47 48  1  0  0  0  0
 48 43  2  0  0  0  0
 50 49  1  0  0  0  0
M  END
>  <MODEL>
5

>  <REMARK>
 VINA RESULT:      -7.2      3.871      8.416
  Name = 
  12 active torsions:
  status: ('A' for Active; 'I' for Inactive)
    1  A    between atoms: C_4  and  C_6
    2  A    between atoms: C_4  and  C_30
    3  A    between atoms: C_6  and  C_13
    4  A    between atoms: C_6  and  C_50
    5  A    between atoms: C_11  and  C_14
    6  A    between atoms: N_12  and  C_13
    7  A    between atoms: C_14  and  C_16
    8  A    between atoms: C_15  and  C_22
    9  A    between atoms: C_22  and  C_31
   10  A    between atoms: C_27  and  C_48
   11  A    between atoms: C_31  and  C_47
   12  A    between atoms: C_41  and  C_50
                            x       y       z     vdW  Elec       q    Type
                         _______ _______ _______ _____ _____    ______ ____

>  <TORSDO>
F 12

$$$$
=
 OpenBabel11032421103D

 50 54  0  0  1  0  0  0  0  0999 V2000
  190.6790  176.4280  140.4840 C   0  0  0  0  0  0  0  0  0  0  0  0
  191.9580  175.3800  136.5290 C   0  0  0  0  0  2  0  0  0  0  0  0
  188.8310  178.7160  137.0510 C   0  0  0  0  0  2  0  0  0  0  0  0
  194.1470  177.7980  139.8930 O   0  0  0  0  0  1  0  0  0  0  0  0
  190.3810  176.7950  138.0320 C   0  0  0  0  0  0  0  0  0  0  0  0
  192.7980  176.2370  138.5390 C   0  0  0  0  0  0  0  0  0  0  0  0
  190.1440  177.2090  142.8010 C   0  0  0  0  0  0  0  0  0  0  0  0
  192.1140  178.1910  141.7300 C   0  0  0  0  0  3  0  0  0  0  0  0
  187.4570  176.9480  138.2780 C   0  0  0  0  0  2  0  0  0  0  0  0
  189.5700  176.8020  135.6920 O   0  0  0  0  0  1  0  0  0  0  0  0
  194.6180  174.7170  138.7030 O   0  0  0  0  0  1  0  0  0  0  0  0
  192.9300  177.1280  139.7010 C   0  0  0  0  0  0  0  0  0  0  0  0
  188.3540  177.1030  139.5150 C   0  0  1  0  0  3  0  0  0  0  0  0
  193.4280  174.9430  136.6440 C   0  0  2  0  0  3  0  0  0  0  0  0
  189.8370  176.8500  139.2780 C   0  0  0  0  0  0  0  0  0  0  0  0
  187.4230  178.2260  137.4160 C   0  0  2  0  0  3  0  0  0  0  0  0
  189.9190  176.3640  141.7900 C   0  0  0  0  0  3  0  0  0  0  0  0
  191.6980  176.1260  137.7930 C   0  0  0  0  0  0  0  0  0  0  0  0
  191.9550  177.2400  140.6170 C   0  0  2  0  0  3  0  0  0  0  0  0
  191.2650  178.1750  142.7570 C   0  0  0  0  0  3  0  0  0  0  0  0
  189.8280  177.5750  136.8370 C   0  0  1  0  0  3  0  0  0  0  0  0
  188.0960  178.3980  140.2790 C   0  0  0  0  0  1  0  0  0  0  0  0
  193.9920  175.6570  137.8750 C   0  0  1  0  0  3  0  0  0  0  0  0
  186.4110  178.2860  136.2400 C   0  0  1  0  0  3  0  0  0  0  0  0
  187.0970  178.5330  135.0480 O   0  0  0  0  0  1  0  0  0  0  0  0
  185.4070  177.1220  136.0180 C   0  0  1  0  0  3  0  0  0  0  0  0
  183.9600  177.3180  136.4890 C   0  0  0  0  0  2  0  0  0  0  0  0
  183.8820  176.7490  137.8250 N   0  0  0  0  0  2  0  0  0  0  0  0
  182.3860  175.7920  139.3060 O   0  0  0  0  0  0  0  0  0  0  0  0
  182.9370  175.7290  138.1710 C   0  0  0  0  0  0  0  0  0  0  0  0
  183.7020  173.4960  137.7690 F   0  0  0  0  0  0  0  0  0  0  0  0
  182.8010  174.4770  137.3590 C   0  0  1  0  0  3  0  0  0  0  0  0
  181.3610  173.9620  137.4040 C   0  0  2  0  0  3  0  0  0  0  0  0
  181.3360  172.5740  137.3040 F   0  0  0  0  0  0  0  0  0  0  0  0
  180.5090  174.5980  136.3460 C   0  0  0  0  0  0  0  0  0  0  0  0
  181.0610  174.9620  135.2620 O   0  0  0  0  0  0  0  0  0  0  0  0
  179.1000  174.7530  136.5090 N   0  0  0  0  0  1  0  0  0  0  0  0
  185.4740  176.5210  134.6150 C   0  0  0  0  0  2  0  0  0  0  0  0
  185.4500  174.9940  134.6780 C   0  0  0  0  0  2  0  0  0  0  0  0
  186.5160  174.4960  135.6340 C   0  0  0  0  0  1  0  0  0  0  0  0
  189.3470  177.0240  144.0570 C   0  0  2  0  0  3  0  0  0  0  0  0
  188.3200  178.0620  144.1750 N   0  0  0  0  0  1  0  0  0  0  0  0
  191.4220  176.2620  145.3120 C   0  0  0  0  0  3  0  0  0  0  0  0
  190.3440  177.1330  147.7340 C   0  0  0  0  0  3  0  0  0  0  0  0
  190.1820  176.9290  145.3130 C   0  0  0  0  0  0  0  0  0  0  0  0
  189.6440  177.3550  146.5410 C   0  0  0  0  0  3  0  0  0  0  0  0
  191.5740  176.4780  147.7190 C   0  0  0  0  0  3  0  0  0  0  0  0
  192.1090  176.0310  146.5060 C   0  0  0  0  0  3  0  0  0  0  0  0
  194.8410  176.5910  135.2700 C   0  0  0  0  0  1  0  0  0  0  0  0
  194.2230  175.1800  135.3370 C   0  0  0  0  0  2  0  0  0  0  0  0
  1 19  1  0  0  0  0
  1 17  1  0  0  0  0
  2 14  1  0  0  0  0
  2 18  1  0  0  0  0
  3 16  1  0  0  0  0
  5 15  1  0  0  0  0
  6 12  2  0  0  0  0
  7 41  1  0  0  0  0
  8 20  2  0  0  0  0
  9 13  1  0  0  0  0
 12  4  1  0  0  0  0
 12 19  1  0  0  0  0
 13 22  1  6  0  0  0
 14 50  1  6  0  0  0
 14 23  1  0  0  0  0
 15 13  1  0  0  0  0
 15  1  2  0  0  0  0
 16 24  1  6  0  0  0
 16  9  1  0  0  0  0
 17  7  2  0  0  0  0
 18  5  2  0  0  0  0
 18  6  1  0  0  0  0
 19  8  1  6  0  0  0
 20  7  1  0  0  0  0
 21 10  1  6  0  0  0
 21  3  1  0  0  0  0
 21  5  1  0  0  0  0
 23  6  1  0  0  0  0
 23 11  1  1  0  0  0
 24 25  1  6  0  0  0
 26 38  1  6  0  0  0
 26 24  1  0  0  0  0
 26 27  1  0  0  0  0
 27 28  1  0  0  0  0
 28 30  1  0  0  0  0
 30 29  2  0  0  0  0
 32 33  1  0  0  0  0
 32 31  1  1  0  0  0
 32 30  1  0  0  0  0
 33 34  1  6  0  0  0
 35 37  1  0  0  0  0
 35 33  1  0  0  0  0
 36 35  2  0  0  0  0
 38 39  1  0  0  0  0
 39 40  1  0  0  0  0
 41 42  1  1  0  0  0
 41 45  1  0  0  0  0
 43 45  2  0  0  0  0
 43 48  1  0  0  0  0
 45 46  1  0  0  0  0
 46 44  2  0  0  0  0
 47 44  1  0  0  0  0
 48 47  2  0  0  0  0
 49 50  1  0  0  0  0
M  END
>  <MODEL>
6

>  <REMARK>
 VINA RESULT:      -7.1      4.521     10.560
  Name = 
  12 active torsions:
  status: ('A' for Active; 'I' for Inactive)
    1  A    between atoms: C_4  and  C_6
    2  A    between atoms: C_4  and  C_30
    3  A    between atoms: C_6  and  C_13
    4  A    between atoms: C_6  and  C_50
    5  A    between atoms: C_11  and  C_14
    6  A    between atoms: N_12  and  C_13
    7  A    between atoms: C_14  and  C_16
    8  A    between atoms: C_15  and  C_22
    9  A    between atoms: C_22  and  C_31
   10  A    between atoms: C_27  and  C_48
   11  A    between atoms: C_31  and  C_47
   12  A    between atoms: C_41  and  C_50
                            x       y       z     vdW  Elec       q    Type
                         _______ _______ _______ _____ _____    ______ ____

>  <TORSDO>
F 12

$$$$
=
 OpenBabel11032421103D

 50 54  0  0  1  0  0  0  0  0999 V2000
  187.8320  178.5350  141.0650 C   0  0  0  0  0  0  0  0  0  0  0  0
  185.9670  178.9250  144.9040 C   0  0  0  0  0  2  0  0  0  0  0  0
  183.4700  177.3820  141.3600 C   0  0  0  0  0  2  0  0  0  0  0  0
  189.0080  175.7370  143.3100 O   0  0  0  0  0  1  0  0  0  0  0  0
  185.7150  178.3720  142.3790 C   0  0  0  0  0  0  0  0  0  0  0  0
  187.6920  177.7560  143.8370 C   0  0  0  0  0  0  0  0  0  0  0  0
  188.9980  178.0600  138.9010 C   0  0  0  0  0  0  0  0  0  0  0  0
  189.0550  176.2970  140.6000 C   0  0  0  0  0  2  0  0  0  0  0  0
  184.1270  179.5690  140.2170 C   0  0  0  0  0  2  0  0  0  0  0  0
  183.4920  178.7620  143.3970 O   0  0  0  0  0  1  0  0  0  0  0  0
  189.3620  178.2750  145.4460 O   0  0  0  0  0  1  0  0  0  0  0  0
  188.3570  176.8920  142.8510 C   0  0  0  0  0  0  0  0  0  0  0  0
  185.5280  179.0080  139.9370 C   0  0  1  0  0  3  0  0  0  0  0  0
  187.0560  178.6400  145.9520 C   0  0  2  0  0  3  0  0  0  0  0  0
  186.3050  178.5570  141.1680 C   0  0  0  0  0  0  0  0  0  0  0  0
  183.0650  178.4580  140.3420 C   0  0  2  0  0  3  0  0  0  0  0  0
  188.3760  178.9250  139.7090 C   0  0  0  0  0  3  0  0  0  0  0  0
  186.5230  178.3660  143.6390 C   0  0  0  0  0  0  0  0  0  0  0  0
  188.4290  177.2280  141.5540 C   0  0  0  0  0  0  0  0  0  0  0  0
  189.3250  176.6880  139.3540 C   0  0  0  0  0  3  0  0  0  0  0  0
  184.2550  177.9430  142.5470 C   0  0  1  0  0  3  0  0  0  0  0  0
  185.5410  177.9660  138.8230 C   0  0  0  0  0  1  0  0  0  0  0  0
  188.0830  177.7340  145.2680 C   0  0  1  0  0  3  0  0  0  0  0  0
  181.5740  178.8800  140.4330 C   0  0  1  0  0  3  0  0  0  0  0  0
  181.3120  179.8690  139.4810 O   0  0  0  0  0  1  0  0  0  0  0  0
  180.4560  177.8030  140.3700 C   0  0  1  0  0  3  0  0  0  0  0  0
  180.8060  176.4320  139.7790 C   0  0  0  0  0  2  0  0  0  0  0  0
  181.0110  176.6400  138.3550 N   0  0  0  0  0  2  0  0  0  0  0  0
  182.6650  177.1230  136.8110 O   0  0  0  0  0  0  0  0  0  0  0  0
  182.2520  176.3330  137.7060 C   0  0  0  0  0  0  0  0  0  0  0  0
  181.9750  173.9600  137.8730 F   0  0  0  0  0  0  0  0  0  0  0  0
  182.9080  174.9940  137.8590 C   0  0  1  0  0  3  0  0  0  0  0  0
  183.9560  174.7810  136.7660 C   0  0  2  0  0  3  0  0  0  0  0  0
  183.3560  174.3240  135.5970 F   0  0  0  0  0  0  0  0  0  0  0  0
  185.0480  173.8560  137.2130 C   0  0  0  0  0  0  0  0  0  0  0  0
  184.7390  172.6720  137.5500 O   0  0  0  0  0  0  0  0  0  0  0  0
  186.4180  174.2580  137.2200 N   0  0  0  0  0  1  0  0  0  0  0  0
  179.6590  177.6790  141.6680 C   0  0  0  0  0  2  0  0  0  0  0  0
  180.0360  178.7940  142.6450 C   0  0  0  0  0  2  0  0  0  0  0  0
  180.0550  178.2590  144.0620 C   0  0  0  0  0  1  0  0  0  0  0  0
  189.5220  178.5750  137.5950 C   0  0  2  0  0  3  0  0  0  0  0  0
  188.8540  179.8250  137.2280 N   0  0  0  0  0  1  0  0  0  0  0  0
  188.2800  177.3420  135.7510 C   0  0  0  0  0  3  0  0  0  0  0  0
  190.4800  175.6850  135.3020 C   0  0  0  0  0  3  0  0  0  0  0  0
  189.4700  177.5700  136.4670 C   0  0  0  0  0  0  0  0  0  0  0  0
  190.5700  176.7220  136.2400 C   0  0  0  0  0  3  0  0  0  0  0  0
  189.2980  175.4750  134.5940 C   0  0  0  0  0  3  0  0  0  0  0  0
  188.1920  176.2990  134.8270 C   0  0  0  0  0  3  0  0  0  0  0  0
  187.5520  177.4070  148.1510 C   0  0  0  0  0  1  0  0  0  0  0  0
  186.4770  178.0800  147.2750 C   0  0  0  0  0  2  0  0  0  0  0  0
  1 15  1  0  0  0  0
  1 19  1  0  0  0  0
  2 14  1  0  0  0  0
  3 21  1  0  0  0  0
  5 21  1  0  0  0  0
  5 18  1  0  0  0  0
  6 23  1  0  0  0  0
  7 20  2  0  0  0  0
  7 17  1  0  0  0  0
  8 19  1  0  0  0  0
  9 16  1  0  0  0  0
 12  4  1  0  0  0  0
 12  6  1  0  0  0  0
 13 22  1  6  0  0  0
 13  9  1  0  0  0  0
 13 15  1  0  0  0  0
 14 50  1  1  0  0  0
 15  5  2  0  0  0  0
 16 24  1  1  0  0  0
 16  3  1  0  0  0  0
 17  1  2  0  0  0  0
 18  6  2  0  0  0  0
 18  2  1  0  0  0  0
 19 12  2  0  0  0  0
 20  8  1  0  0  0  0
 21 10  1  6  0  0  0
 23 11  1  6  0  0  0
 23 14  1  0  0  0  0
 24 25  1  6  0  0  0
 26 27  1  1  0  0  0
 26 24  1  0  0  0  0
 26 38  1  0  0  0  0
 28 27  1  0  0  0  0
 29 30  2  0  0  0  0
 30 32  1  0  0  0  0
 30 28  1  0  0  0  0
 32 31  1  6  0  0  0
 33 34  1  6  0  0  0
 33 35  1  0  0  0  0
 33 32  1  0  0  0  0
 35 37  1  0  0  0  0
 35 36  2  0  0  0  0
 38 39  1  0  0  0  0
 39 40  1  0  0  0  0
 41 42  1  6  0  0  0
 41  7  1  0  0  0  0
 43 45  1  0  0  0  0
 44 46  1  0  0  0  0
 45 41  1  0  0  0  0
 46 45  2  0  0  0  0
 47 48  1  0  0  0  0
 47 44  2  0  0  0  0
 48 43  2  0  0  0  0
 50 49  1  0  0  0  0
M  END
>  <MODEL>
7

>  <REMARK>
 VINA RESULT:      -7.0      4.331      8.595
  Name = 
  12 active torsions:
  status: ('A' for Active; 'I' for Inactive)
    1  A    between atoms: C_4  and  C_6
    2  A    between atoms: C_4  and  C_30
    3  A    between atoms: C_6  and  C_13
    4  A    between atoms: C_6  and  C_50
    5  A    between atoms: C_11  and  C_14
    6  A    between atoms: N_12  and  C_13
    7  A    between atoms: C_14  and  C_16
    8  A    between atoms: C_15  and  C_22
    9  A    between atoms: C_22  and  C_31
   10  A    between atoms: C_27  and  C_48
   11  A    between atoms: C_31  and  C_47
   12  A    between atoms: C_41  and  C_50
                            x       y       z     vdW  Elec       q    Type
                         _______ _______ _______ _____ _____    ______ ____

>  <TORSDO>
F 12

$$$$
=
 OpenBabel11032421103D

 50 54  0  0  1  0  0  0  0  0999 V2000
  182.1220  176.5600  138.9050 C   0  0  0  0  0  0  0  0  0  0  0  0
  184.3650  178.2960  142.1180 C   0  0  0  0  0  2  0  0  0  0  0  0
  185.7340  179.0390  137.7870 C   0  0  0  0  0  2  0  0  0  0  0  0
  180.2060  179.4880  140.3210 O   0  0  0  0  0  1  0  0  0  0  0  0
  184.1400  177.8740  139.5660 C   0  0  0  0  0  0  0  0  0  0  0  0
  182.2310  178.3550  141.1580 C   0  0  0  0  0  0  0  0  0  0  0  0
  180.6560  175.7660  137.0380 C   0  0  0  0  0  0  0  0  0  0  0  0
  180.1060  177.9360  138.0320 C   0  0  0  0  0  2  0  0  0  0  0  0
  185.8410  176.4940  137.6080 C   0  0  0  0  0  2  0  0  0  0  0  0
  186.4350  178.6280  140.1100 O   0  0  0  0  0  1  0  0  0  0  0  0
  181.0470  178.0070  143.1900 O   0  0  0  0  0  1  0  0  0  0  0  0
  181.1950  178.5130  140.1270 C   0  0  0  0  0  0  0  0  0  0  0  0
  184.3110  176.4330  137.4930 C   0  0  1  0  0  3  0  0  0  0  0  0
  183.3590  178.6090  143.2380 C   0  0  2  0  0  3  0  0  0  0  0  0
  183.5470  177.0580  138.6530 C   0  0  0  0  0  0  0  0  0  0  0  0
  186.4120  177.8380  137.1130 C   0  0  2  0  0  3  0  0  0  0  0  0
  181.6340  175.5250  137.9170 C   0  0  0  0  0  3  0  0  0  0  0  0
  183.5190  178.1150  140.9050 C   0  0  0  0  0  0  0  0  0  0  0  0
  181.1280  177.6960  139.0650 C   0  0  0  0  0  0  0  0  0  0  0  0
  179.8820  177.0280  137.0810 C   0  0  0  0  0  3  0  0  0  0  0  0
  185.3400  178.7680  139.2410 C   0  0  1  0  0  3  0  0  0  0  0  0
  183.7970  176.8990  136.1340 C   0  0  0  0  0  1  0  0  0  0  0  0
  182.0040  178.8070  142.5530 C   0  0  1  0  0  3  0  0  0  0  0  0
  187.9530  177.9740  136.9880 C   0  0  1  0  0  3  0  0  0  0  0  0
  188.3220  179.3050  137.2020 O   0  0  0  0  0  1  0  0  0  0  0  0
  188.8860  177.0490  137.8170 C   0  0  1  0  0  3  0  0  0  0  0  0
  189.0090  177.3110  139.3230 C   0  0  0  0  0  2  0  0  0  0  0  0
  190.3280  176.8400  139.7150 N   0  0  0  0  0  2  0  0  0  0  0  0
  192.2290  177.5040  140.8530 O   0  0  0  0  0  0  0  0  0  0  0  0
  190.9830  177.2960  140.9050 C   0  0  0  0  0  0  0  0  0  0  0  0
  189.0410  176.6770  142.1600 F   0  0  0  0  0  0  0  0  0  0  0  0
  190.3010  177.2640  142.2390 C   0  0  1  0  0  3  0  0  0  0  0  0
  191.1790  176.5560  143.2730 C   0  0  2  0  0  3  0  0  0  0  0  0
  190.9230  175.1890  143.2760 F   0  0  0  0  0  0  0  0  0  0  0  0
  191.0080  177.1430  144.6430 C   0  0  0  0  0  0  0  0  0  0  0  0
  190.2080  178.1170  144.7890 O   0  0  0  0  0  0  0  0  0  0  0  0
  191.6810  176.6030  145.7800 N   0  0  0  0  0  1  0  0  0  0  0  0
  188.6970  175.5640  137.5090 C   0  0  0  0  0  2  0  0  0  0  0  0
  189.6880  175.1020  136.4400 C   0  0  0  0  0  2  0  0  0  0  0  0
  189.8910  173.6030  136.5320 C   0  0  0  0  0  1  0  0  0  0  0  0
  180.2380  174.6480  136.1310 C   0  0  2  0  0  3  0  0  0  0  0  0
  178.9310  174.1220  136.5270 N   0  0  0  0  0  1  0  0  0  0  0  0
  181.2710  172.4520  136.8860 C   0  0  0  0  0  3  0  0  0  0  0  0
  183.3640  172.7460  135.0650 C   0  0  0  0  0  3  0  0  0  0  0  0
  181.2610  173.5430  135.9980 C   0  0  0  0  0  0  0  0  0  0  0  0
  182.3270  173.6870  135.0900 C   0  0  0  0  0  3  0  0  0  0  0  0
  183.3580  171.6650  135.9450 C   0  0  0  0  0  3  0  0  0  0  0  0
  182.3140  171.5240  136.8660 C   0  0  0  0  0  3  0  0  0  0  0  0
  184.9280  179.3890  145.1160 C   0  0  0  0  0  1  0  0  0  0  0  0
  183.8110  179.7900  144.1330 C   0  0  0  0  0  2  0  0  0  0  0  0
  1 19  1  0  0  0  0
  2 14  1  0  0  0  0
  3 21  1  0  0  0  0
  5 18  1  0  0  0  0
  6 23  1  0  0  0  0
  7 20  2  0  0  0  0
  7 17  1  0  0  0  0
  8 19  1  0  0  0  0
 12  4  1  0  0  0  0
 12  6  1  0  0  0  0
 13 22  1  6  0  0  0
 13  9  1  0  0  0  0
 13 15  1  0  0  0  0
 14 50  1  6  0  0  0
 15  1  1  0  0  0  0
 15  5  2  0  0  0  0
 16 24  1  1  0  0  0
 16  9  1  0  0  0  0
 16  3  1  0  0  0  0
 17  1  2  0  0  0  0
 18  6  2  0  0  0  0
 18  2  1  0  0  0  0
 19 12  2  0  0  0  0
 20  8  1  0  0  0  0
 21  5  1  0  0  0  0
 21 10  1  1  0  0  0
 23 11  1  1  0  0  0
 23 14  1  0  0  0  0
 24 25  1  1  0  0  0
 24 26  1  0  0  0  0
 26 38  1  1  0  0  0
 26 27  1  0  0  0  0
 27 28  1  0  0  0  0
 28 30  1  0  0  0  0
 29 30  2  0  0  0  0
 30 32  1  0  0  0  0
 32 31  1  6  0  0  0
 32 33  1  0  0  0  0
 33 34  1  1  0  0  0
 33 35  1  0  0  0  0
 35 36  2  0  0  0  0
 35 37  1  0  0  0  0
 39 40  1  0  0  0  0
 39 38  1  0  0  0  0
 41 42  1  1  0  0  0
 41  7  1  0  0  0  0
 44 46  2  0  0  0  0
 44 47  1  0  0  0  0
 45 41  1  0  0  0  0
 45 43  2  0  0  0  0
 46 45  1  0  0  0  0
 47 48  2  0  0  0  0
 48 43  1  0  0  0  0
 50 49  1  0  0  0  0
M  END
>  <MODEL>
8

>  <REMARK>
 VINA RESULT:      -7.0      3.117      6.777
  Name = 
  12 active torsions:
  status: ('A' for Active; 'I' for Inactive)
    1  A    between atoms: C_4  and  C_6
    2  A    between atoms: C_4  and  C_30
    3  A    between atoms: C_6  and  C_13
    4  A    between atoms: C_6  and  C_50
    5  A    between atoms: C_11  and  C_14
    6  A    between atoms: N_12  and  C_13
    7  A    between atoms: C_14  and  C_16
    8  A    between atoms: C_15  and  C_22
    9  A    between atoms: C_22  and  C_31
   10  A    between atoms: C_27  and  C_48
   11  A    between atoms: C_31  and  C_47
   12  A    between atoms: C_41  and  C_50
                            x       y       z     vdW  Elec       q    Type
                         _______ _______ _______ _____ _____    ______ ____

>  <TORSDO>
F 12

$$$$
=
 OpenBabel11032421103D

 50 54  0  0  1  0  0  0  0  0999 V2000
  190.6170  176.3770  140.2390 C   0  0  0  0  0  0  0  0  0  0  0  0
  192.1400  175.3900  136.3560 C   0  0  0  0  0  2  0  0  0  0  0  0
  188.8610  178.6000  136.7150 C   0  0  0  0  0  2  0  0  0  0  0  0
  194.0540  177.8830  139.8310 O   0  0  0  0  0  1  0  0  0  0  0  0
  190.4320  176.7380  137.7760 C   0  0  0  0  0  0  0  0  0  0  0  0
  192.8400  176.2740  138.4070 C   0  0  0  0  0  0  0  0  0  0  0  0
  189.9310  177.1300  142.5260 C   0  0  0  0  0  0  0  0  0  0  0  0
  191.9150  178.1910  141.5590 C   0  0  0  0  0  3  0  0  0  0  0  0
  187.4960  176.7770  137.8690 C   0  0  0  0  0  2  0  0  0  0  0  0
  189.7440  176.7200  135.3970 O   0  0  0  0  0  1  0  0  0  0  0  0
  194.7060  174.8250  138.6660 O   0  0  0  0  0  1  0  0  0  0  0  0
  192.8760  177.1660  139.5760 C   0  0  0  0  0  0  0  0  0  0  0  0
  188.3200  176.9630  139.1510 C   0  0  1  0  0  3  0  0  0  0  0  0
  193.6170  175.0100  136.5470 C   0  0  2  0  0  3  0  0  0  0  0  0
  189.8230  176.7690  138.9910 C   0  0  0  0  0  0  0  0  0  0  0  0
  187.4570  178.0550  137.0070 C   0  0  2  0  0  3  0  0  0  0  0  0
  189.7930  176.2800  141.5040 C   0  0  0  0  0  3  0  0  0  0  0  0
  191.7850  176.1220  137.6050 C   0  0  0  0  0  0  0  0  0  0  0  0
  191.8510  177.2380  140.4390 C   0  0  2  0  0  3  0  0  0  0  0  0
  191.0140  178.1400  142.5410 C   0  0  0  0  0  3  0  0  0  0  0  0
  189.9120  177.4990  136.5540 C   0  0  1  0  0  3  0  0  0  0  0  0
  187.9720  178.2450  139.9010 C   0  0  0  0  0  1  0  0  0  0  0  0
  194.0880  175.7420  137.8070 C   0  0  1  0  0  3  0  0  0  0  0  0
  186.5060  178.0780  135.7800 C   0  0  1  0  0  3  0  0  0  0  0  0
  187.0960  178.8140  134.7480 O   0  0  0  0  0  1  0  0  0  0  0  0
  185.9480  176.7480  135.2020 C   0  0  1  0  0  3  0  0  0  0  0  0
  186.7640  175.4680  135.4210 C   0  0  0  0  0  2  0  0  0  0  0  0
  186.0100  174.3900  134.8010 N   0  0  0  0  0  2  0  0  0  0  0  0
  185.9200  172.0830  134.6650 O   0  0  0  0  0  0  0  0  0  0  0  0
  185.8730  173.1010  135.4120 C   0  0  0  0  0  0  0  0  0  0  0  0
  186.2930  173.5350  137.7290 F   0  0  0  0  0  0  0  0  0  0  0  0
  185.4070  172.9480  136.8280 C   0  0  1  0  0  3  0  0  0  0  0  0
  183.9940  173.5110  136.9920 C   0  0  2  0  0  3  0  0  0  0  0  0
  183.8510  174.1140  138.2380 F   0  0  0  0  0  0  0  0  0  0  0  0
  182.9470  172.4600  136.7730 C   0  0  0  0  0  0  0  0  0  0  0  0
  183.1660  171.2880  137.2070 O   0  0  0  0  0  0  0  0  0  0  0  0
  181.7030  172.7600  136.1400 N   0  0  0  0  0  1  0  0  0  0  0  0
  184.4630  176.5360  135.4930 C   0  0  0  0  0  2  0  0  0  0  0  0
  184.0480  177.2760  136.7640 C   0  0  0  0  0  2  0  0  0  0  0  0
  182.5410  177.4300  136.8080 C   0  0  0  0  0  1  0  0  0  0  0  0
  189.0780  176.9110  143.7390 C   0  0  2  0  0  3  0  0  0  0  0  0
  187.9160  177.8030  143.7210 N   0  0  0  0  0  1  0  0  0  0  0  0
  191.1330  176.5010  145.1760 C   0  0  0  0  0  3  0  0  0  0  0  0
  189.7860  177.3900  147.4520 C   0  0  0  0  0  3  0  0  0  0  0  0
  189.8260  177.0060  145.0480 C   0  0  0  0  0  0  0  0  0  0  0  0
  189.1530  177.4420  146.2050 C   0  0  0  0  0  3  0  0  0  0  0  0
  191.0850  176.8950  147.5640 C   0  0  0  0  0  3  0  0  0  0  0  0
  191.7560  176.4380  146.4250 C   0  0  0  0  0  3  0  0  0  0  0  0
  194.9430  176.7460  135.1950 C   0  0  0  0  0  1  0  0  0  0  0  0
  194.4700  175.2810  135.2830 C   0  0  0  0  0  2  0  0  0  0  0  0
  1 19  1  0  0  0  0
  1 17  1  0  0  0  0
  2 14  1  0  0  0  0
  2 18  1  0  0  0  0
  3 16  1  0  0  0  0
  5 15  1  0  0  0  0
  6 12  2  0  0  0  0
  7 20  1  0  0  0  0
  7 41  1  0  0  0  0
  8 20  2  0  0  0  0
  9 13  1  0  0  0  0
 12  4  1  0  0  0  0
 12 19  1  0  0  0  0
 13 22  1  6  0  0  0
 14 50  1  6  0  0  0
 14 23  1  0  0  0  0
 15 13  1  0  0  0  0
 15  1  2  0  0  0  0
 16 24  1  6  0  0  0
 16  9  1  0  0  0  0
 17  7  2  0  0  0  0
 18  5  2  0  0  0  0
 18  6  1  0  0  0  0
 19  8  1  6  0  0  0
 21 10  1  6  0  0  0
 21  3  1  0  0  0  0
 21  5  1  0  0  0  0
 23  6  1  0  0  0  0
 23 11  1  1  0  0  0
 24 25  1  6  0  0  0
 26 27  1  1  0  0  0
 26 38  1  0  0  0  0
 26 24  1  0  0  0  0
 28 30  1  0  0  0  0
 28 27  1  0  0  0  0
 29 30  2  0  0  0  0
 30 32  1  0  0  0  0
 32 33  1  0  0  0  0
 32 31  1  1  0  0  0
 33 34  1  1  0  0  0
 35 33  1  0  0  0  0
 35 36  2  0  0  0  0
 37 35  1  0  0  0  0
 38 39  1  0  0  0  0
 39 40  1  0  0  0  0
 41 42  1  1  0  0  0
 41 45  1  0  0  0  0
 43 48  1  0  0  0  0
 44 47  1  0  0  0  0
 45 43  2  0  0  0  0
 45 46  1  0  0  0  0
 46 44  2  0  0  0  0
 48 47  2  0  0  0  0
 49 50  1  0  0  0  0
M  END
>  <MODEL>
9

>  <REMARK>
 VINA RESULT:      -6.9      4.410     10.184
  Name = 
  12 active torsions:
  status: ('A' for Active; 'I' for Inactive)
    1  A    between atoms: C_4  and  C_6
    2  A    between atoms: C_4  and  C_30
    3  A    between atoms: C_6  and  C_13
    4  A    between atoms: C_6  and  C_50
    5  A    between atoms: C_11  and  C_14
    6  A    between atoms: N_12  and  C_13
    7  A    between atoms: C_14  and  C_16
    8  A    between atoms: C_15  and  C_22
    9  A    between atoms: C_22  and  C_31
   10  A    between atoms: C_27  and  C_48
   11  A    between atoms: C_31  and  C_47
   12  A    between atoms: C_41  and  C_50
                            x       y       z     vdW  Elec       q    Type
                         _______ _______ _______ _____ _____    ______ ____

>  <TORSDO>
F 12

$$$$
