=
 OpenBabel11032419153D

 30 33  0  0  1  0  0  0  0  0999 V2000
  188.8190  177.8590  142.8980 C   0  0  1  0  0  3  0  0  0  0  0  0
  191.2400  176.2180  145.3510 C   0  0  0  0  0  0  0  0  0  0  0  0
  190.0920  177.5690  147.9540 C   0  0  0  0  0  2  0  0  0  0  0  0
  191.7570  176.4090  146.7520 C   0  0  2  0  0  3  0  0  0  0  0  0
  189.1330  177.9690  146.8370 C   0  0  0  0  0  2  0  0  0  0  0  0
  192.8150  175.4590  147.0610 N   0  0  0  0  0  1  0  0  0  0  0  0
  191.5990  175.1160  144.6330 N   0  0  0  0  0  0  0  0  0  0  0  0
  191.1170  174.8800  143.3860 C   0  0  0  0  0  3  0  0  0  0  0  0
  190.2200  175.7710  142.8030 C   0  0  0  0  0  3  0  0  0  0  0  0
  190.3300  177.1440  144.7990 C   0  0  0  0  0  0  0  0  0  0  0  0
  189.8210  176.9130  143.5060 C   0  0  0  0  0  0  0  0  0  0  0  0
  190.6670  176.2520  147.7040 N   0  0  0  0  0  2  0  0  0  0  0  0
  189.8970  178.3580  145.5770 C   0  0  0  0  0  2  0  0  0  0  0  0
  188.6270  177.3030  139.3460 C   0  0  0  0  0  0  0  0  0  0  0  0
  188.3390  179.3100  140.8610 C   0  0  0  0  0  2  0  0  0  0  0  0
  190.6840  176.0610  139.2380 N   0  0  0  0  0  1  0  0  0  0  0  0
  189.8700  177.0840  139.8090 C   0  0  0  0  0  0  0  0  0  0  0  0
  189.4140  178.6800  141.7420 C   0  0  2  0  0  3  0  0  0  0  0  0
  190.4640  177.9430  140.8950 C   0  0  0  0  0  2  0  0  0  0  0  0
  187.8080  178.3300  139.9190 N   0  0  0  0  0  2  0  0  0  0  0  0
  188.0520  176.4600  138.2560 C   0  0  0  0  0  2  0  0  0  0  0  0
  187.0590  177.1720  137.5850 O   0  0  0  0  0  1  0  0  0  0  0  0
  187.4940  177.1680  142.5710 C   0  0  0  0  0  2  0  0  0  0  0  0
  184.3940  178.7120  145.1140 C   0  0  0  0  0  3  0  0  0  0  0  0
  185.2240  178.2390  142.8860 C   0  0  0  0  0  0  0  0  0  0  0  0
  186.5530  177.6570  144.8310 C   0  0  0  0  0  3  0  0  0  0  0  0
  184.2300  178.7480  143.7270 C   0  0  0  0  0  3  0  0  0  0  0  0
  186.3940  177.6860  143.4400 C   0  0  0  0  0  0  0  0  0  0  0  0
  185.5560  178.1660  145.6670 C   0  0  0  0  0  3  0  0  0  0  0  0
  185.0410  178.2920  141.4740 N   0  0  0  0  0  1  0  0  0  0  0  0
  1 23  1  6  0  0  0
  1 11  1  0  0  0  0
  2  4  1  0  0  0  0
  4  6  1  1  0  0  0
  4 12  1  0  0  0  0
  5  3  1  0  0  0  0
  7  2  2  0  0  0  0
  8  7  1  0  0  0  0
  9  8  2  0  0  0  0
  9 11  1  0  0  0  0
 10  2  1  0  0  0  0
 10 13  1  0  0  0  0
 11 10  2  0  0  0  0
 12  3  1  0  0  0  0
 13  5  1  0  0  0  0
 14 17  2  0  0  0  0
 14 20  1  0  0  0  0
 15 18  1  0  0  0  0
 16 17  1  0  0  0  0
 17 19  1  0  0  0  0
 18  1  1  1  0  0  0
 19 18  1  0  0  0  0
 20 15  1  0  0  0  0
 21 14  1  0  0  0  0
 22 21  1  0  0  0  0
 23 28  1  0  0  0  0
 24 29  1  0  0  0  0
 25 28  2  0  0  0  0
 25 27  1  0  0  0  0
 26 29  2  0  0  0  0
 27 24  2  0  0  0  0
 28 26  1  0  0  0  0
 30 25  1  0  0  0  0
M  END
>  <MODEL>
1

>  <REMARK>
 VINA RESULT:      -7.0      0.000      0.000
  Name = 
  5 active torsions:
  status: ('A' for Active; 'I' for Inactive)
    1  A    between atoms: CA_1  and  C_2
    2  A    between atoms: C_10  and  C_20
    3  A    between atoms: C_10  and  C_24
    4  A    between atoms: C_13  and  C_24
    5  A    between atoms: C_24  and  C_26
                            x       y       z     vdW  Elec       q    Type
                         _______ _______ _______ _____ _____    ______ ____

>  <TORSDO>
F 5

$$$$
=
 OpenBabel11032419153D

 30 33  0  0  1  0  0  0  0  0999 V2000
  189.9050  177.1280  138.0200 C   0  0  1  0  0  3  0  0  0  0  0  0
  191.7630  174.0800  136.6670 C   0  0  0  0  0  0  0  0  0  0  0  0
  194.6120  174.8860  137.7390 C   0  0  0  0  0  2  0  0  0  0  0  0
  193.1680  173.6410  136.3510 C   0  0  2  0  0  3  0  0  0  0  0  0
  193.6550  175.9150  138.3310 C   0  0  0  0  0  2  0  0  0  0  0  0
  193.1850  172.3360  135.7090 N   0  0  0  0  0  1  0  0  0  0  0  0
  190.7300  173.1970  136.5610 N   0  0  0  0  0  0  0  0  0  0  0  0
  189.4550  173.5350  136.8830 C   0  0  0  0  0  3  0  0  0  0  0  0
  189.1700  174.8160  137.3490 C   0  0  0  0  0  3  0  0  0  0  0  0
  191.5170  175.3870  137.1390 C   0  0  0  0  0  0  0  0  0  0  0  0
  190.2000  175.7540  137.4770 C   0  0  0  0  0  0  0  0  0  0  0  0
  193.9560  173.5940  137.5750 N   0  0  0  0  0  2  0  0  0  0  0  0
  192.6410  176.3760  137.2890 C   0  0  0  0  0  2  0  0  0  0  0  0
  186.7490  177.7570  136.4050 C   0  0  0  0  0  0  0  0  0  0  0  0
  188.5780  179.2060  137.3850 C   0  0  0  0  0  2  0  0  0  0  0  0
  187.1560  176.2270  134.5940 N   0  0  0  0  0  1  0  0  0  0  0  0
  187.6160  177.1610  135.5680 C   0  0  0  0  0  0  0  0  0  0  0  0
  189.5530  178.1320  136.9100 C   0  0  2  0  0  3  0  0  0  0  0  0
  189.0840  177.5020  135.5890 C   0  0  0  0  0  2  0  0  0  0  0  0
  187.2110  178.6950  137.3840 N   0  0  0  0  0  2  0  0  0  0  0  0
  185.2930  177.4280  136.3660 C   0  0  0  0  0  2  0  0  0  0  0  0
  184.7720  177.4460  137.6580 O   0  0  0  0  0  1  0  0  0  0  0  0
  188.9110  177.0900  139.1830 C   0  0  0  0  0  2  0  0  0  0  0  0
  190.9490  177.9650  142.8630 C   0  0  0  0  0  3  0  0  0  0  0  0
  188.9040  177.9530  141.5600 C   0  0  0  0  0  0  0  0  0  0  0  0
  190.9650  177.1050  140.6010 C   0  0  0  0  0  3  0  0  0  0  0  0
  189.5840  178.2420  142.7470 C   0  0  0  0  0  3  0  0  0  0  0  0
  189.5970  177.3770  140.4790 C   0  0  0  0  0  0  0  0  0  0  0  0
  191.6400  177.3960  141.7890 C   0  0  0  0  0  3  0  0  0  0  0  0
  187.5150  178.2500  141.4600 N   0  0  0  0  0  1  0  0  0  0  0  0
  1 23  1  1  0  0  0
  2 10  1  0  0  0  0
  3  5  1  0  0  0  0
  4  6  1  1  0  0  0
  4  2  1  0  0  0  0
  4 12  1  0  0  0  0
  7  2  2  0  0  0  0
  7  8  1  0  0  0  0
  8  9  2  0  0  0  0
  9 11  1  0  0  0  0
 10 13  1  0  0  0  0
 10 11  2  0  0  0  0
 11  1  1  0  0  0  0
 12  3  1  0  0  0  0
 13  5  1  0  0  0  0
 14 20  1  0  0  0  0
 16 17  1  0  0  0  0
 17 19  1  0  0  0  0
 17 14  2  0  0  0  0
 18 15  1  0  0  0  0
 18  1  1  1  0  0  0
 19 18  1  0  0  0  0
 20 15  1  0  0  0  0
 21 14  1  0  0  0  0
 21 22  1  0  0  0  0
 23 28  1  0  0  0  0
 25 27  2  0  0  0  0
 26 29  1  0  0  0  0
 27 24  1  0  0  0  0
 28 26  2  0  0  0  0
 28 25  1  0  0  0  0
 29 24  2  0  0  0  0
 30 25  1  0  0  0  0
M  END
>  <MODEL>
2

>  <REMARK>
 VINA RESULT:      -6.8      3.754      6.890
  Name = 
  5 active torsions:
  status: ('A' for Active; 'I' for Inactive)
    1  A    between atoms: CA_1  and  C_2
    2  A    between atoms: C_10  and  C_20
    3  A    between atoms: C_10  and  C_24
    4  A    between atoms: C_13  and  C_24
    5  A    between atoms: C_24  and  C_26
                            x       y       z     vdW  Elec       q    Type
                         _______ _______ _______ _____ _____    ______ ____

>  <TORSDO>
F 5

$$$$
=
 OpenBabel11032419153D

 30 33  0  0  1  0  0  0  0  0999 V2000
  180.8880  178.0770  139.7070 C   0  0  1  0  0  3  0  0  0  0  0  0
  183.0990  178.7610  142.7420 C   0  0  0  0  0  0  0  0  0  0  0  0
  185.8290  178.9080  141.1780 C   0  0  0  0  0  2  0  0  0  0  0  0
  184.5480  178.6840  143.1450 C   0  0  2  0  0  3  0  0  0  0  0  0
  184.7540  178.8050  140.1000 C   0  0  0  0  0  2  0  0  0  0  0  0
  184.7220  178.9820  144.5590 N   0  0  0  0  0  1  0  0  0  0  0  0
  182.1790  179.2930  143.5950 N   0  0  0  0  0  0  0  0  0  0  0  0
  180.8720  179.4260  143.2530 C   0  0  0  0  0  3  0  0  0  0  0  0
  180.4350  179.0240  141.9930 C   0  0  0  0  0  3  0  0  0  0  0  0
  182.6990  178.3440  141.4550 C   0  0  0  0  0  0  0  0  0  0  0  0
  181.3460  178.4760  141.0850 C   0  0  0  0  0  0  0  0  0  0  0  0
  185.3300  179.6200  142.3490 N   0  0  0  0  0  2  0  0  0  0  0  0
  183.6970  177.7740  140.4830 C   0  0  0  0  0  2  0  0  0  0  0  0
  180.1700  174.8770  138.2210 C   0  0  0  0  0  0  0  0  0  0  0  0
  179.7610  175.9300  140.4860 C   0  0  0  0  0  2  0  0  0  0  0  0
  179.2740  175.8070  136.1930 N   0  0  0  0  0  1  0  0  0  0  0  0
  179.5050  175.8650  137.5990 C   0  0  0  0  0  0  0  0  0  0  0  0
  179.5930  177.2490  139.7370 C   0  0  2  0  0  3  0  0  0  0  0  0
  178.9310  177.0280  138.3670 C   0  0  0  0  0  2  0  0  0  0  0  0
  180.4020  174.9340  139.6340 N   0  0  0  0  0  2  0  0  0  0  0  0
  180.7190  173.7180  137.4560 C   0  0  0  0  0  2  0  0  0  0  0  0
  180.2040  172.5290  137.9710 O   0  0  0  0  0  1  0  0  0  0  0  0
  180.8640  179.2620  138.7390 C   0  0  0  0  0  2  0  0  0  0  0  0
  182.2370  177.9960  134.8690 C   0  0  0  0  0  3  0  0  0  0  0  0
  180.7510  179.3610  136.2140 C   0  0  0  0  0  0  0  0  0  0  0  0
  182.3800  177.9150  137.2830 C   0  0  0  0  0  3  0  0  0  0  0  0
  181.2010  178.9300  134.9620 C   0  0  0  0  0  3  0  0  0  0  0  0
  181.3450  178.8530  137.3840 C   0  0  0  0  0  0  0  0  0  0  0  0
  182.8260  177.4890  136.0300 C   0  0  0  0  0  3  0  0  0  0  0  0
  179.6890  180.3070  136.2870 N   0  0  0  0  0  1  0  0  0  0  0  0
  1 23  1  6  0  0  0
  1 11  1  0  0  0  0
  2  4  1  0  0  0  0
  2  7  1  0  0  0  0
  3 12  1  0  0  0  0
  4  6  1  1  0  0  0
  5 13  1  0  0  0  0
  5  3  1  0  0  0  0
  8  7  2  0  0  0  0
  9  8  1  0  0  0  0
 10  2  2  0  0  0  0
 11 10  1  0  0  0  0
 11  9  2  0  0  0  0
 12  4  1  0  0  0  0
 13 10  1  0  0  0  0
 14 20  1  0  0  0  0
 16 17  1  0  0  0  0
 17 14  2  0  0  0  0
 17 19  1  0  0  0  0
 18  1  1  6  0  0  0
 18 15  1  0  0  0  0
 19 18  1  0  0  0  0
 20 15  1  0  0  0  0
 21 22  1  0  0  0  0
 21 14  1  0  0  0  0
 24 27  2  0  0  0  0
 24 29  1  0  0  0  0
 25 30  1  0  0  0  0
 25 28  2  0  0  0  0
 26 28  1  0  0  0  0
 27 25  1  0  0  0  0
 28 23  1  0  0  0  0
 29 26  2  0  0  0  0
M  END
>  <MODEL>
3

>  <REMARK>
 VINA RESULT:      -6.6      5.814      9.206
  Name = 
  5 active torsions:
  status: ('A' for Active; 'I' for Inactive)
    1  A    between atoms: CA_1  and  C_2
    2  A    between atoms: C_10  and  C_20
    3  A    between atoms: C_10  and  C_24
    4  A    between atoms: C_13  and  C_24
    5  A    between atoms: C_24  and  C_26
                            x       y       z     vdW  Elec       q    Type
                         _______ _______ _______ _____ _____    ______ ____

>  <TORSDO>
F 5

$$$$
=
 OpenBabel11032419153D

 30 33  0  0  1  0  0  0  0  0999 V2000
  188.5030  177.1680  137.2540 C   0  0  1  0  0  3  0  0  0  0  0  0
  189.1430  173.7590  135.6600 C   0  0  0  0  0  0  0  0  0  0  0  0
  186.3840  172.4630  136.4540 C   0  0  0  0  0  2  0  0  0  0  0  0
  188.6250  172.3470  135.7280 C   0  0  2  0  0  3  0  0  0  0  0  0
  186.2710  173.9290  136.8600 C   0  0  0  0  0  2  0  0  0  0  0  0
  189.4250  171.4490  134.9090 N   0  0  0  0  0  1  0  0  0  0  0  0
  190.0820  174.1000  134.7330 N   0  0  0  0  0  0  0  0  0  0  0  0
  190.5400  175.3720  134.6040 C   0  0  0  0  0  3  0  0  0  0  0  0
  190.0420  176.3800  135.4270 C   0  0  0  0  0  3  0  0  0  0  0  0
  188.6100  174.7510  136.5110 C   0  0  0  0  0  0  0  0  0  0  0  0
  189.0750  176.0750  136.3900 C   0  0  0  0  0  0  0  0  0  0  0  0
  187.2390  172.3090  135.2820 N   0  0  0  0  0  2  0  0  0  0  0  0
  187.5550  174.4090  137.5280 C   0  0  0  0  0  2  0  0  0  0  0  0
  189.3380  177.0690  140.7550 C   0  0  0  0  0  0  0  0  0  0  0  0
  190.6600  177.0080  138.5990 C   0  0  0  0  0  2  0  0  0  0  0  0
  187.9210  178.9230  141.3390 N   0  0  0  0  0  1  0  0  0  0  0  0
  188.7730  178.2420  140.4200 C   0  0  0  0  0  0  0  0  0  0  0  0
  189.5910  177.9340  138.0270 C   0  0  2  0  0  3  0  0  0  0  0  0
  189.0660  178.9030  139.0980 C   0  0  0  0  0  2  0  0  0  0  0  0
  190.1940  176.3850  139.8320 N   0  0  0  0  0  2  0  0  0  0  0  0
  189.0580  176.4300  142.0750 C   0  0  0  0  0  2  0  0  0  0  0  0
  190.1590  175.6750  142.4740 O   0  0  0  0  0  1  0  0  0  0  0  0
  187.5200  178.0570  136.4900 C   0  0  0  0  0  2  0  0  0  0  0  0
  183.4550  177.2580  137.6260 C   0  0  0  0  0  3  0  0  0  0  0  0
  185.2260  177.1260  135.9760 C   0  0  0  0  0  0  0  0  0  0  0  0
  185.6540  178.1240  138.1450 C   0  0  0  0  0  3  0  0  0  0  0  0
  183.9020  176.8830  136.3560 C   0  0  0  0  0  3  0  0  0  0  0  0
  186.1100  177.7480  136.8760 C   0  0  0  0  0  0  0  0  0  0  0  0
  184.3300  177.8790  138.5210 C   0  0  0  0  0  3  0  0  0  0  0  0
  185.6600  176.7420  134.6750 N   0  0  0  0  0  1  0  0  0  0  0  0
  1 23  1  6  0  0  0
  2  4  1  0  0  0  0
  2 10  1  0  0  0  0
  3  5  1  0  0  0  0
  4  6  1  6  0  0  0
  5 13  1  0  0  0  0
  7  2  2  0  0  0  0
  8  7  1  0  0  0  0
  8  9  2  0  0  0  0
  9 11  1  0  0  0  0
 10 13  1  0  0  0  0
 11 10  2  0  0  0  0
 11  1  1  0  0  0  0
 12  4  1  0  0  0  0
 12  3  1  0  0  0  0
 14 21  1  0  0  0  0
 15 20  1  0  0  0  0
 17 14  2  0  0  0  0
 17 16  1  0  0  0  0
 18  1  1  1  0  0  0
 18 15  1  0  0  0  0
 18 19  1  0  0  0  0
 19 17  1  0  0  0  0
 20 14  1  0  0  0  0
 21 22  1  0  0  0  0
 23 28  1  0  0  0  0
 24 29  1  0  0  0  0
 25 27  1  0  0  0  0
 25 28  2  0  0  0  0
 26 29  2  0  0  0  0
 27 24  2  0  0  0  0
 28 26  1  0  0  0  0
 30 25  1  0  0  0  0
M  END
>  <MODEL>
4

>  <REMARK>
 VINA RESULT:      -6.5      4.039      7.966
  Name = 
  5 active torsions:
  status: ('A' for Active; 'I' for Inactive)
    1  A    between atoms: CA_1  and  C_2
    2  A    between atoms: C_10  and  C_20
    3  A    between atoms: C_10  and  C_24
    4  A    between atoms: C_13  and  C_24
    5  A    between atoms: C_24  and  C_26
                            x       y       z     vdW  Elec       q    Type
                         _______ _______ _______ _____ _____    ______ ____

>  <TORSDO>
F 5

$$$$
=
 OpenBabel11032419153D

 30 33  0  0  1  0  0  0  0  0999 V2000
  183.4800  178.9250  139.6070 C   0  0  1  0  0  3  0  0  0  0  0  0
  187.1050  178.3870  140.6770 C   0  0  0  0  0  0  0  0  0  0  0  0
  186.5120  177.8790  143.7280 C   0  0  0  0  0  2  0  0  0  0  0  0
  187.9440  178.3960  141.9270 C   0  0  2  0  0  3  0  0  0  0  0  0
  185.1430  177.9520  143.0590 C   0  0  0  0  0  2  0  0  0  0  0  0
  189.3560  178.2300  141.6180 N   0  0  0  0  0  1  0  0  0  0  0  0
  187.6540  178.0150  139.4860 N   0  0  0  0  0  0  0  0  0  0  0  0
  186.9220  177.9460  138.3450 C   0  0  0  0  0  3  0  0  0  0  0  0
  185.5630  178.2510  138.3670 C   0  0  0  0  0  3  0  0  0  0  0  0
  185.7300  178.7010  140.7440 C   0  0  0  0  0  0  0  0  0  0  0  0
  184.9570  178.6340  139.5680 C   0  0  0  0  0  0  0  0  0  0  0  0
  187.5100  177.3290  142.8170 N   0  0  0  0  0  2  0  0  0  0  0  0
  185.0910  179.0930  142.0490 C   0  0  0  0  0  2  0  0  0  0  0  0
  180.2880  180.4570  138.9500 C   0  0  0  0  0  0  0  0  0  0  0  0
  182.7020  181.1780  138.7090 C   0  0  0  0  0  2  0  0  0  0  0  0
  179.3980  178.5470  137.7910 N   0  0  0  0  0  1  0  0  0  0  0  0
  180.4890  179.3870  138.1610 C   0  0  0  0  0  0  0  0  0  0  0  0
  183.0060  179.7190  138.3790 C   0  0  2  0  0  3  0  0  0  0  0  0
  181.8510  179.0750  137.5950 C   0  0  0  0  0  2  0  0  0  0  0  0
  181.3840  181.3010  139.3220 N   0  0  0  0  0  2  0  0  0  0  0  0
  178.9320  180.7700  139.4910 C   0  0  0  0  0  2  0  0  0  0  0  0
  179.0540  181.3790  140.7390 O   0  0  0  0  0  1  0  0  0  0  0  0
  182.6520  177.6760  139.9160 C   0  0  0  0  0  2  0  0  0  0  0  0
  179.7140  178.5870  142.9160 C   0  0  0  0  0  3  0  0  0  0  0  0
  180.4200  177.2450  141.0240 C   0  0  0  0  0  0  0  0  0  0  0  0
  181.8670  178.9900  141.8880 C   0  0  0  0  0  3  0  0  0  0  0  0
  179.4690  177.5610  141.9990 C   0  0  0  0  0  3  0  0  0  0  0  0
  181.6290  177.9610  140.9680 C   0  0  0  0  0  0  0  0  0  0  0  0
  180.9140  179.3010  142.8610 C   0  0  0  0  0  3  0  0  0  0  0  0
  180.1470  176.2010  140.0940 N   0  0  0  0  0  1  0  0  0  0  0  0
  1 23  1  6  0  0  0
  2 10  1  0  0  0  0
  2  4  1  0  0  0  0
  4  6  1  6  0  0  0
  4 12  1  0  0  0  0
  5  3  1  0  0  0  0
  7  2  2  0  0  0  0
  8  9  2  0  0  0  0
  8  7  1  0  0  0  0
  9 11  1  0  0  0  0
 10 13  1  0  0  0  0
 11  1  1  0  0  0  0
 11 10  2  0  0  0  0
 12  3  1  0  0  0  0
 13  5  1  0  0  0  0
 14 20  1  0  0  0  0
 14 21  1  0  0  0  0
 15 20  1  0  0  0  0
 16 17  1  0  0  0  0
 17 14  2  0  0  0  0
 18 15  1  0  0  0  0
 18  1  1  1  0  0  0
 19 17  1  0  0  0  0
 19 18  1  0  0  0  0
 21 22  1  0  0  0  0
 23 28  1  0  0  0  0
 25 27  1  0  0  0  0
 26 29  2  0  0  0  0
 27 24  2  0  0  0  0
 28 25  2  0  0  0  0
 28 26  1  0  0  0  0
 29 24  1  0  0  0  0
 30 25  1  0  0  0  0
M  END
>  <MODEL>
5

>  <REMARK>
 VINA RESULT:      -6.5      4.543      7.096
  Name = 
  5 active torsions:
  status: ('A' for Active; 'I' for Inactive)
    1  A    between atoms: CA_1  and  C_2
    2  A    between atoms: C_10  and  C_20
    3  A    between atoms: C_10  and  C_24
    4  A    between atoms: C_13  and  C_24
    5  A    between atoms: C_24  and  C_26
                            x       y       z     vdW  Elec       q    Type
                         _______ _______ _______ _____ _____    ______ ____

>  <TORSDO>
F 5

$$$$
=
 OpenBabel11032419153D

 30 33  0  0  1  0  0  0  0  0999 V2000
  184.9000  177.4800  137.3190 C   0  0  1  0  0  3  0  0  0  0  0  0
  181.5000  175.8800  136.6460 C   0  0  0  0  0  0  0  0  0  0  0  0
  180.9070  175.0230  139.6180 C   0  0  0  0  0  2  0  0  0  0  0  0
  180.5390  174.9170  137.2900 C   0  0  2  0  0  3  0  0  0  0  0  0
  182.1820  175.8570  139.6870 C   0  0  0  0  0  2  0  0  0  0  0  0
  179.4210  174.6140  136.4100 N   0  0  0  0  0  1  0  0  0  0  0  0
  181.1560  176.5230  135.4940 N   0  0  0  0  0  0  0  0  0  0  0  0
  181.9720  177.4350  134.9060 C   0  0  0  0  0  3  0  0  0  0  0  0
  183.2000  177.7480  135.4840 C   0  0  0  0  0  3  0  0  0  0  0  0
  182.7340  176.1710  137.2650 C   0  0  0  0  0  0  0  0  0  0  0  0
  183.5910  177.1150  136.6680 C   0  0  0  0  0  0  0  0  0  0  0  0
  180.0400  175.4810  138.5370 N   0  0  0  0  0  2  0  0  0  0  0  0
  183.1310  175.4940  138.5500 C   0  0  0  0  0  2  0  0  0  0  0  0
  188.3860  177.1130  138.1420 C   0  0  0  0  0  0  0  0  0  0  0  0
  186.7580  175.8700  136.6560 C   0  0  0  0  0  2  0  0  0  0  0  0
  188.9020  179.4390  137.8150 N   0  0  0  0  0  1  0  0  0  0  0  0
  188.1550  178.2680  137.4930 C   0  0  0  0  0  0  0  0  0  0  0  0
  186.1040  177.2250  136.3980 C   0  0  2  0  0  3  0  0  0  0  0  0
  187.1520  178.3500  136.3720 C   0  0  0  0  0  2  0  0  0  0  0  0
  187.6350  175.9360  137.8200 N   0  0  0  0  0  2  0  0  0  0  0  0
  189.3950  177.0350  139.2390 C   0  0  0  0  0  2  0  0  0  0  0  0
  190.2800  175.9870  138.9900 O   0  0  0  0  0  1  0  0  0  0  0  0
  184.8640  178.8750  137.9490 C   0  0  0  0  0  2  0  0  0  0  0  0
  184.1380  178.6930  142.1790 C   0  0  0  0  0  3  0  0  0  0  0  0
  183.2990  179.0290  139.9290 C   0  0  0  0  0  0  0  0  0  0  0  0
  185.6420  178.5090  140.2920 C   0  0  0  0  0  3  0  0  0  0  0  0
  183.0810  178.9780  141.3100 C   0  0  0  0  0  3  0  0  0  0  0  0
  184.5870  178.7900  139.4150 C   0  0  0  0  0  0  0  0  0  0  0  0
  185.4180  178.4580  141.6700 C   0  0  0  0  0  3  0  0  0  0  0  0
  182.2110  179.3290  139.0610 N   0  0  0  0  0  1  0  0  0  0  0  0
  1 23  1  6  0  0  0
  2 10  1  0  0  0  0
  2  4  1  0  0  0  0
  3  5  1  0  0  0  0
  4  6  1  6  0  0  0
  4 12  1  0  0  0  0
  7  2  2  0  0  0  0
  8  9  2  0  0  0  0
  8  7  1  0  0  0  0
  9 11  1  0  0  0  0
 10 13  1  0  0  0  0
 11 10  2  0  0  0  0
 11  1  1  0  0  0  0
 12  3  1  0  0  0  0
 13  5  1  0  0  0  0
 14 21  1  0  0  0  0
 15 20  1  0  0  0  0
 17 16  1  0  0  0  0
 17 14  2  0  0  0  0
 18 15  1  0  0  0  0
 18  1  1  1  0  0  0
 19 18  1  0  0  0  0
 19 17  1  0  0  0  0
 20 14  1  0  0  0  0
 22 21  1  0  0  0  0
 23 28  1  0  0  0  0
 25 27  1  0  0  0  0
 26 29  2  0  0  0  0
 27 24  2  0  0  0  0
 28 25  2  0  0  0  0
 28 26  1  0  0  0  0
 29 24  1  0  0  0  0
 30 25  1  0  0  0  0
M  END
>  <MODEL>
6

>  <REMARK>
 VINA RESULT:      -6.5      4.996      8.664
  Name = 
  5 active torsions:
  status: ('A' for Active; 'I' for Inactive)
    1  A    between atoms: CA_1  and  C_2
    2  A    between atoms: C_10  and  C_20
    3  A    between atoms: C_10  and  C_24
    4  A    between atoms: C_13  and  C_24
    5  A    between atoms: C_24  and  C_26
                            x       y       z     vdW  Elec       q    Type
                         _______ _______ _______ _____ _____    ______ ____

>  <TORSDO>
F 5

$$$$
=
 OpenBabel11032419153D

 30 33  0  0  1  0  0  0  0  0999 V2000
  180.4930  179.0210  140.2830 C   0  0  1  0  0  3  0  0  0  0  0  0
  183.5140  178.6110  142.5800 C   0  0  0  0  0  0  0  0  0  0  0  0
  185.7150  179.0060  140.3610 C   0  0  0  0  0  2  0  0  0  0  0  0
  184.9870  178.3090  142.4940 C   0  0  2  0  0  3  0  0  0  0  0  0
  184.3880  179.3070  139.6700 C   0  0  0  0  0  2  0  0  0  0  0  0
  185.5770  178.1640  143.8160 N   0  0  0  0  0  1  0  0  0  0  0  0
  182.9510  178.9360  143.7780 N   0  0  0  0  0  0  0  0  0  0  0  0
  181.6380  179.2630  143.8920 C   0  0  0  0  0  3  0  0  0  0  0  0
  180.8230  179.2830  142.7640 C   0  0  0  0  0  3  0  0  0  0  0  0
  182.7240  178.6230  141.4110 C   0  0  0  0  0  0  0  0  0  0  0  0
  181.3600  178.9600  141.5130 C   0  0  0  0  0  0  0  0  0  0  0  0
  185.6660  179.3760  141.7720 N   0  0  0  0  0  2  0  0  0  0  0  0
  183.3240  178.2920  140.0710 C   0  0  0  0  0  2  0  0  0  0  0  0
  180.6920  175.7920  138.7030 C   0  0  0  0  0  0  0  0  0  0  0  0
  179.9370  176.6320  140.9670 C   0  0  0  0  0  2  0  0  0  0  0  0
  179.6620  176.5200  136.6560 N   0  0  0  0  0  1  0  0  0  0  0  0
  179.8170  176.5920  138.0710 C   0  0  0  0  0  0  0  0  0  0  0  0
  179.4590  177.8840  140.2380 C   0  0  2  0  0  3  0  0  0  0  0  0
  178.9310  177.5420  138.8360 C   0  0  0  0  0  2  0  0  0  0  0  0
  180.8480  175.8640  140.1260 N   0  0  0  0  0  2  0  0  0  0  0  0
  181.5530  174.8400  137.9400 C   0  0  0  0  0  2  0  0  0  0  0  0
  182.8830  175.2530  138.0050 O   0  0  0  0  0  1  0  0  0  0  0  0
  179.9140  180.4180  140.0510 C   0  0  0  0  0  2  0  0  0  0  0  0
  180.7210  181.7010  136.0300 C   0  0  0  0  0  3  0  0  0  0  0  0
  179.7300  182.1330  138.2010 C   0  0  0  0  0  0  0  0  0  0  0  0
  180.9340  180.0640  137.8000 C   0  0  0  0  0  3  0  0  0  0  0  0
  179.9900  182.5310  136.8860 C   0  0  0  0  0  3  0  0  0  0  0  0
  180.2070  180.8930  138.6640 C   0  0  0  0  0  0  0  0  0  0  0  0
  181.1920  180.4670  136.4880 C   0  0  0  0  0  3  0  0  0  0  0  0
  178.9780  182.9900  139.0540 N   0  0  0  0  0  1  0  0  0  0  0  0
  1 23  1  1  0  0  0
  1 11  1  0  0  0  0
  2  7  1  0  0  0  0
  3 12  1  0  0  0  0
  4  2  1  0  0  0  0
  4  6  1  1  0  0  0
  5 13  1  0  0  0  0
  5  3  1  0  0  0  0
  7  8  2  0  0  0  0
  9  8  1  0  0  0  0
 10 11  1  0  0  0  0
 10  2  2  0  0  0  0
 11  9  2  0  0  0  0
 12  4  1  0  0  0  0
 13 10  1  0  0  0  0
 14 20  1  0  0  0  0
 16 17  1  0  0  0  0
 17 14  2  0  0  0  0
 17 19  1  0  0  0  0
 18  1  1  6  0  0  0
 18 15  1  0  0  0  0
 19 18  1  0  0  0  0
 20 15  1  0  0  0  0
 21 22  1  0  0  0  0
 21 14  1  0  0  0  0
 24 29  2  0  0  0  0
 24 27  1  0  0  0  0
 25 28  1  0  0  0  0
 25 30  1  0  0  0  0
 26 28  2  0  0  0  0
 27 25  2  0  0  0  0
 28 23  1  0  0  0  0
 29 26  1  0  0  0  0
M  END
>  <MODEL>
7

>  <REMARK>
 VINA RESULT:      -6.5      5.654      9.002
  Name = 
  5 active torsions:
  status: ('A' for Active; 'I' for Inactive)
    1  A    between atoms: CA_1  and  C_2
    2  A    between atoms: C_10  and  C_20
    3  A    between atoms: C_10  and  C_24
    4  A    between atoms: C_13  and  C_24
    5  A    between atoms: C_24  and  C_26
                            x       y       z     vdW  Elec       q    Type
                         _______ _______ _______ _____ _____    ______ ____

>  <TORSDO>
F 5

$$$$
=
 OpenBabel11032419153D

 30 33  0  0  1  0  0  0  0  0999 V2000
  189.0430  177.5180  139.2080 C   0  0  1  0  0  3  0  0  0  0  0  0
  188.5440  177.4090  142.9920 C   0  0  0  0  0  0  0  0  0  0  0  0
  191.5640  176.9250  143.7420 C   0  0  0  0  0  2  0  0  0  0  0  0
  189.2560  176.9290  144.2280 C   0  0  2  0  0  3  0  0  0  0  0  0
  191.5600  177.1750  142.2380 C   0  0  0  0  0  2  0  0  0  0  0  0
  188.4260  177.0840  145.4130 N   0  0  0  0  0  1  0  0  0  0  0  0
  187.3820  178.1120  143.1010 N   0  0  0  0  0  0  0  0  0  0  0  0
  186.7330  178.6060  142.0150 C   0  0  0  0  0  3  0  0  0  0  0  0
  187.2570  178.4100  140.7400 C   0  0  0  0  0  3  0  0  0  0  0  0
  189.1110  177.1910  141.7180 C   0  0  0  0  0  0  0  0  0  0  0  0
  188.4500  177.6980  140.5810 C   0  0  0  0  0  0  0  0  0  0  0  0
  190.4970  177.6710  144.4000 N   0  0  0  0  0  2  0  0  0  0  0  0
  190.4050  176.4380  141.5680 C   0  0  0  0  0  2  0  0  0  0  0  0
  187.9120  176.4990  135.9460 C   0  0  0  0  0  0  0  0  0  0  0  0
  186.8880  177.7760  137.8760 C   0  0  0  0  0  2  0  0  0  0  0  0
  189.8950  177.2550  134.8140 N   0  0  0  0  0  1  0  0  0  0  0  0
  188.9310  177.3700  135.8600 C   0  0  0  0  0  0  0  0  0  0  0  0
  188.2900  178.3210  138.1350 C   0  0  2  0  0  3  0  0  0  0  0  0
  189.0580  178.5260  136.8190 C   0  0  0  0  0  2  0  0  0  0  0  0
  186.9430  176.6140  136.9960 N   0  0  0  0  0  2  0  0  0  0  0  0
  187.7820  175.3680  134.9790 C   0  0  0  0  0  2  0  0  0  0  0  0
  188.0950  174.1680  135.6160 O   0  0  0  0  0  1  0  0  0  0  0  0
  190.5600  177.7140  139.2030 C   0  0  0  0  0  2  0  0  0  0  0  0
  192.4840  174.3450  137.3550 C   0  0  0  0  0  3  0  0  0  0  0  0
  192.6510  176.4570  138.5360 C   0  0  0  0  0  0  0  0  0  0  0  0
  190.4740  175.5200  138.0160 C   0  0  0  0  0  3  0  0  0  0  0  0
  193.2620  175.3600  137.9200 C   0  0  0  0  0  3  0  0  0  0  0  0
  191.2470  176.5370  138.5870 C   0  0  0  0  0  0  0  0  0  0  0  0
  191.0900  174.4250  137.4030 C   0  0  0  0  0  3  0  0  0  0  0  0
  193.4620  177.4830  139.0990 N   0  0  0  0  0  1  0  0  0  0  0  0
  1 23  1  1  0  0  0
  1 11  1  0  0  0  0
  2  7  1  0  0  0  0
  2  4  1  0  0  0  0
  3 12  1  0  0  0  0
  4 12  1  0  0  0  0
  4  6  1  1  0  0  0
  5  3  1  0  0  0  0
  8  7  2  0  0  0  0
  9  8  1  0  0  0  0
 10  2  2  0  0  0  0
 11  9  2  0  0  0  0
 11 10  1  0  0  0  0
 13 10  1  0  0  0  0
 13  5  1  0  0  0  0
 14 20  1  0  0  0  0
 15 18  1  0  0  0  0
 16 17  1  0  0  0  0
 17 14  2  0  0  0  0
 17 19  1  0  0  0  0
 18  1  1  1  0  0  0
 19 18  1  0  0  0  0
 20 15  1  0  0  0  0
 21 22  1  0  0  0  0
 21 14  1  0  0  0  0
 24 29  2  0  0  0  0
 24 27  1  0  0  0  0
 25 28  1  0  0  0  0
 25 30  1  0  0  0  0
 26 28  2  0  0  0  0
 27 25  2  0  0  0  0
 28 23  1  0  0  0  0
 29 26  1  0  0  0  0
M  END
>  <MODEL>
8

>  <REMARK>
 VINA RESULT:      -6.4      2.670      5.953
  Name = 
  5 active torsions:
  status: ('A' for Active; 'I' for Inactive)
    1  A    between atoms: CA_1  and  C_2
    2  A    between atoms: C_10  and  C_20
    3  A    between atoms: C_10  and  C_24
    4  A    between atoms: C_13  and  C_24
    5  A    between atoms: C_24  and  C_26
                            x       y       z     vdW  Elec       q    Type
                         _______ _______ _______ _____ _____    ______ ____

>  <TORSDO>
F 5

$$$$
=
 OpenBabel11032419153D

 30 33  0  0  1  0  0  0  0  0999 V2000
  180.9680  178.4430  140.4940 C   0  0  1  0  0  3  0  0  0  0  0  0
  180.7540  175.1110  138.6450 C   0  0  0  0  0  0  0  0  0  0  0  0
  183.5050  175.3580  137.1310 C   0  0  0  0  0  2  0  0  0  0  0  0
  181.3660  174.4190  137.4560 C   0  0  2  0  0  3  0  0  0  0  0  0
  183.4650  176.5450  138.0880 C   0  0  0  0  0  2  0  0  0  0  0  0
  180.7240  173.1380  137.1990 N   0  0  0  0  0  1  0  0  0  0  0  0
  179.8930  174.4390  139.4590 N   0  0  0  0  0  0  0  0  0  0  0  0
  179.3570  175.0090  140.5690 C   0  0  0  0  0  3  0  0  0  0  0  0
  179.6890  176.3170  140.9120 C   0  0  0  0  0  3  0  0  0  0  0  0
  181.1200  176.4370  138.9580 C   0  0  0  0  0  0  0  0  0  0  0  0
  180.5720  177.0430  140.1060 C   0  0  0  0  0  0  0  0  0  0  0  0
  182.7900  174.2140  137.6850 N   0  0  0  0  0  2  0  0  0  0  0  0
  182.0870  177.1970  138.0900 C   0  0  0  0  0  2  0  0  0  0  0  0
  180.3740  180.4260  137.5480 C   0  0  0  0  0  0  0  0  0  0  0  0
  178.9310  179.0200  139.0790 C   0  0  0  0  0  2  0  0  0  0  0  0
  181.6200  182.3230  138.3440 N   0  0  0  0  0  1  0  0  0  0  0  0
  180.7880  181.1880  138.5750 C   0  0  0  0  0  0  0  0  0  0  0  0
  179.8570  179.4670  140.2070 C   0  0  2  0  0  3  0  0  0  0  0  0
  180.3430  180.9090  139.9870 C   0  0  0  0  0  2  0  0  0  0  0  0
  179.5390  179.2850  137.7800 N   0  0  0  0  0  2  0  0  0  0  0  0
  180.8040  180.7210  136.1490 C   0  0  0  0  0  2  0  0  0  0  0  0
  179.8270  181.4790  135.5070 O   0  0  0  0  0  1  0  0  0  0  0  0
  181.5450  178.5110  141.9100 C   0  0  0  0  0  2  0  0  0  0  0  0
  185.8020  179.0690  141.7470 C   0  0  0  0  0  3  0  0  0  0  0  0
  183.7870  178.7470  143.0560 C   0  0  0  0  0  0  0  0  0  0  0  0
  183.6690  178.8120  140.6330 C   0  0  0  0  0  3  0  0  0  0  0  0
  185.1700  178.9410  142.9870 C   0  0  0  0  0  3  0  0  0  0  0  0
  183.0300  178.6790  141.8720 C   0  0  0  0  0  0  0  0  0  0  0  0
  185.0510  179.0040  140.5700 C   0  0  0  0  0  3  0  0  0  0  0  0
  183.1610  178.6260  144.3300 N   0  0  0  0  0  1  0  0  0  0  0  0
  1 23  1  1  0  0  0
  2 10  2  0  0  0  0
  2  7  1  0  0  0  0
  3 12  1  0  0  0  0
  3  5  1  0  0  0  0
  4  6  1  1  0  0  0
  4 12  1  0  0  0  0
  4  2  1  0  0  0  0
  5 13  1  0  0  0  0
  7  8  2  0  0  0  0
  8  9  1  0  0  0  0
 10 11  1  0  0  0  0
 11  1  1  0  0  0  0
 11  9  2  0  0  0  0
 13 10  1  0  0  0  0
 14 20  1  0  0  0  0
 14 17  2  0  0  0  0
 15 18  1  0  0  0  0
 16 17  1  0  0  0  0
 17 19  1  0  0  0  0
 18  1  1  6  0  0  0
 19 18  1  0  0  0  0
 20 15  1  0  0  0  0
 21 14  1  0  0  0  0
 22 21  1  0  0  0  0
 24 27  1  0  0  0  0
 25 30  1  0  0  0  0
 26 28  2  0  0  0  0
 27 25  2  0  0  0  0
 28 23  1  0  0  0  0
 28 25  1  0  0  0  0
 29 26  1  0  0  0  0
 29 24  2  0  0  0  0
M  END
>  <MODEL>
9

>  <REMARK>
 VINA RESULT:      -6.4      5.709      9.723
  Name = 
  5 active torsions:
  status: ('A' for Active; 'I' for Inactive)
    1  A    between atoms: CA_1  and  C_2
    2  A    between atoms: C_10  and  C_20
    3  A    between atoms: C_10  and  C_24
    4  A    between atoms: C_13  and  C_24
    5  A    between atoms: C_24  and  C_26
                            x       y       z     vdW  Elec       q    Type
                         _______ _______ _______ _____ _____    ______ ____

>  <TORSDO>
F 5

$$$$
