=
 OpenBabel11032419543D

 41 47  0  0  1  0  0  0  0  0999 V2000
  184.2820  178.4010  143.0550 C   0  0  0  0  0  0  0  0  0  0  0  0
  188.0110  178.0090  140.9270 C   0  0  0  0  0  0  0  0  0  0  0  0
  184.6850  178.6310  140.5980 C   0  0  1  0  0  3  0  0  0  0  0  0
  180.8690  179.5500  143.2530 C   0  0  0  0  0  1  0  0  0  0  0  0
  189.6010  177.0090  143.9930 C   0  0  0  0  0  3  0  0  0  0  0  0
  189.2570  177.3790  141.4240 C   0  0  0  0  0  0  0  0  0  0  0  0
  189.0320  177.9930  144.9580 C   0  0  0  0  0  2  0  0  0  0  0  0
  186.5380  178.8610  139.4500 C   0  0  1  0  0  3  0  0  0  0  0  0
  186.9180  178.3160  141.6430 C   0  0  1  0  0  3  0  0  0  0  0  0
  185.5900  178.1130  143.6960 C   0  0  0  0  0  0  0  0  0  0  0  0
  185.6060  177.8130  145.1690 C   0  0  0  0  0  2  0  0  0  0  0  0
  185.4980  178.6040  138.5220 N   0  0  0  0  0  0  0  0  0  0  0  0
  183.8710  177.9630  141.6670 C   0  0  2  0  0  3  0  0  0  0  0  0
  185.9660  178.9020  140.7400 C   0  0  2  0  0  3  0  0  0  0  0  0
  184.4170  178.4810  139.1920 N   0  0  0  0  0  0  0  0  0  0  0  0
  183.3140  178.9630  143.7040 N   0  0  0  0  0  0  0  0  0  0  0  0
  182.4620  178.4590  141.6600 C   0  0  0  0  0  0  0  0  0  0  0  0
  186.7040  178.0200  143.0280 N   0  0  0  0  0  0  0  0  0  0  0  0
  187.7240  178.2610  139.4910 C   0  0  0  0  0  3  0  0  0  0  0  0
  182.1930  179.0060  142.8360 C   0  0  0  0  0  0  0  0  0  0  0  0
  187.9530  177.3720  145.7190 N   0  0  0  0  0  0  0  0  0  0  0  0
  186.8640  178.3340  145.8610 C   0  0  0  0  0  2  0  0  0  0  0  0
  189.4440  177.1920  142.7100 C   0  0  0  0  0  0  0  0  0  0  0  0
  190.2650  177.0170  140.4660 N   0  0  0  0  0  2  0  0  0  0  0  0
  192.1640  177.9410  141.4940 O   0  0  0  0  0  0  0  0  0  0  0  0
  191.6690  177.3080  140.5210 C   0  0  0  0  0  0  0  0  0  0  0  0
  192.0230  176.4580  138.2570 C   0  0  0  0  0  3  0  0  0  0  0  0
  192.5250  176.8520  139.4220 C   0  0  0  0  0  3  0  0  0  0  0  0
  192.9190  176.0000  137.1550 C   0  0  2  0  0  3  0  0  0  0  0  0
  192.1570  175.1190  136.1860 C   0  0  0  0  0  2  0  0  0  0  0  0
  193.7910  173.3030  136.0940 N   0  0  0  0  0  2  0  0  0  0  0  0
  193.5720  173.6720  137.5010 C   0  0  1  0  0  3  0  0  0  0  0  0
  194.0020  175.1120  137.7240 C   0  0  0  0  0  2  0  0  0  0  0  0
  192.4480  173.6760  136.5630 C   0  0  1  0  0  3  0  0  0  0  0  0
  181.4800  178.2340  140.5530 C   0  0  0  0  0  2  0  0  0  0  0  0
  181.4230  176.7630  140.1880 C   0  0  0  0  0  1  0  0  0  0  0  0
  188.4320  176.9560  147.0450 C   0  0  0  0  0  2  0  0  0  0  0  0
  189.8020  177.5340  147.4270 C   0  0  0  0  0  2  0  0  0  0  0  0
  190.8870  176.4720  147.3590 C   0  0  0  0  0  2  0  0  0  0  0  0
  192.8100  175.7790  148.1870 C   0  0  0  0  0  1  0  0  0  0  0  0
  192.0420  176.9270  147.9960 O   0  0  0  0  0  0  0  0  0  0  0  0
  1 10  1  0  0  0  0
  1 16  2  0  0  0  0
  2  6  1  0  0  0  0
  3 15  1  6  0  0  0
  3 14  1  0  0  0  0
  3 13  1  0  0  0  0
  5  7  1  0  0  0  0
  6 23  2  0  0  0  0
  7 21  1  0  0  0  0
  8 19  1  1  0  0  0
  8 14  1  0  0  0  0
  9  2  1  6  0  0  0
  9 18  1  0  0  0  0
 10 11  1  0  0  0  0
 11 22  1  0  0  0  0
 12 15  2  0  0  0  0
 12  8  1  0  0  0  0
 13 17  1  6  0  0  0
 13  1  1  0  0  0  0
 14  9  1  0  0  0  0
 17 20  2  0  0  0  0
 18 10  2  0  0  0  0
 19  2  2  0  0  0  0
 20  4  1  0  0  0  0
 20 16  1  0  0  0  0
 21 22  1  0  0  0  0
 21 37  1  0  0  0  0
 23  5  2  0  0  0  0
 24 26  1  0  0  0  0
 24  6  1  0  0  0  0
 26 25  2  0  0  0  0
 27 28  2  0  0  0  0
 28 26  1  0  0  0  0
 29 33  1  0  0  0  0
 29 27  1  0  0  0  0
 30 34  1  0  0  0  0
 30 29  1  0  0  0  0
 31 34  1  0  0  0  0
 31 32  1  0  0  0  0
 32 33  1  0  0  0  0
 34 32  1  0  0  0  0
 35 17  1  0  0  0  0
 36 35  1  0  0  0  0
 37 38  1  0  0  0  0
 39 38  1  0  0  0  0
 39 41  1  0  0  0  0
 41 40  1  0  0  0  0
M  END
>  <MODEL>
1

>  <REMARK>
 VINA RESULT:      -9.0      0.000      0.000
  Name = 
  8 active torsions:
  status: ('A' for Active; 'I' for Inactive)
    1  A    between atoms: C_2  and  C_33
    2  A    between atoms: C_8  and  C_16
    3  A    between atoms: C_8  and  C_20
    4  A    between atoms: C_9  and  C_26
    5  A    between atoms: N_10  and  C_11
    6  A    between atoms: C_16  and  O_24
    7  A    between atoms: C_20  and  N_39
    8  A    between atoms: C_34  and  C_38
                            x       y       z     vdW  Elec       q    Type
                         _______ _______ _______ _____ _____    ______ ____

>  <TORSDO>
F 8

$$$$
=
 OpenBabel11032419543D

 41 47  0  0  1  0  0  0  0  0999 V2000
  188.5260  177.5400  142.9590 C   0  0  0  0  0  0  0  0  0  0  0  0
  185.6030  178.6100  139.9760 C   0  0  0  0  0  0  0  0  0  0  0  0
  186.1910  178.3610  143.3150 C   0  0  1  0  0  3  0  0  0  0  0  0
  189.7670  177.6580  146.3430 C   0  0  0  0  0  1  0  0  0  0  0  0
  187.8670  177.4830  137.4210 C   0  0  0  0  0  3  0  0  0  0  0  0
  185.6280  178.2550  138.5370 C   0  0  0  0  0  0  0  0  0  0  0  0
  189.1590  178.0600  137.8910 C   0  0  0  0  0  2  0  0  0  0  0  0
  184.7660  179.3110  141.9470 C   0  0  1  0  0  3  0  0  0  0  0  0
  186.5970  178.4590  140.8640 C   0  0  1  0  0  3  0  0  0  0  0  0
  188.7630  177.4940  141.4940 C   0  0  0  0  0  0  0  0  0  0  0  0
  190.0630  176.9200  141.0050 C   0  0  0  0  0  2  0  0  0  0  0  0
  184.0550  178.9740  143.1270 N   0  0  0  0  0  0  0  0  0  0  0  0
  187.1970  177.2960  143.6390 C   0  0  2  0  0  3  0  0  0  0  0  0
  186.1130  178.9340  142.1310 C   0  0  2  0  0  3  0  0  0  0  0  0
  184.8900  178.4300  143.9270 N   0  0  0  0  0  0  0  0  0  0  0  0
  189.4960  177.6770  143.8030 N   0  0  0  0  0  0  0  0  0  0  0  0
  187.6310  177.3830  145.0660 C   0  0  0  0  0  0  0  0  0  0  0  0
  187.8660  177.8430  140.6170 N   0  0  0  0  0  0  0  0  0  0  0  0
  184.3840  179.0590  140.6980 C   0  0  0  0  0  3  0  0  0  0  0  0
  188.9400  177.5880  145.1040 C   0  0  0  0  0  0  0  0  0  0  0  0
  189.9470  177.0300  138.5590 N   0  0  0  0  0  0  0  0  0  0  0  0
  190.5740  177.6120  139.7420 C   0  0  0  0  0  2  0  0  0  0  0  0
  186.7450  177.8710  137.9640 C   0  0  0  0  0  0  0  0  0  0  0  0
  184.4110  178.3790  137.7830 N   0  0  0  0  0  2  0  0  0  0  0  0
  183.5840  176.1890  137.9670 O   0  0  0  0  0  0  0  0  0  0  0  0
  183.4400  177.3590  137.5160 C   0  0  0  0  0  0  0  0  0  0  0  0
  181.6170  178.8500  136.8600 C   0  0  0  0  0  3  0  0  0  0  0  0
  182.2660  177.6990  136.7070 C   0  0  0  0  0  3  0  0  0  0  0  0
  180.4250  179.1710  136.0210 C   0  0  2  0  0  3  0  0  0  0  0  0
  180.8580  179.6880  134.6640 C   0  0  0  0  0  2  0  0  0  0  0  0
  179.4060  181.6540  134.6220 N   0  0  0  0  0  2  0  0  0  0  0  0
  180.0740  181.5860  135.9310 C   0  0  1  0  0  3  0  0  0  0  0  0
  179.6600  180.3130  136.6510 C   0  0  0  0  0  2  0  0  0  0  0  0
  180.8030  181.2050  134.7210 C   0  0  1  0  0  3  0  0  0  0  0  0
  186.7500  177.1270  146.2470 C   0  0  0  0  0  2  0  0  0  0  0  0
  186.4410  178.4260  146.9680 C   0  0  0  0  0  1  0  0  0  0  0  0
  190.9760  176.5020  137.6530 C   0  0  0  0  0  2  0  0  0  0  0  0
  192.3800  176.4370  138.2680 C   0  0  0  0  0  2  0  0  0  0  0  0
  193.3710  175.7890  137.3150 C   0  0  0  0  0  2  0  0  0  0  0  0
  194.6870  176.2210  135.5990 C   0  0  0  0  0  1  0  0  0  0  0  0
  194.2480  176.7500  136.8120 O   0  0  0  0  0  0  0  0  0  0  0  0
  1 16  2  0  0  0  0
  2 19  2  0  0  0  0
  3 13  1  0  0  0  0
  3 15  1  6  0  0  0
  5  7  1  0  0  0  0
  5 23  2  0  0  0  0
  6  2  1  0  0  0  0
  7 21  1  0  0  0  0
  8 19  1  6  0  0  0
  8 14  1  0  0  0  0
  8 12  1  0  0  0  0
  9  2  1  1  0  0  0
  9 14  1  0  0  0  0
 10  1  1  0  0  0  0
 11 10  1  0  0  0  0
 12 15  2  0  0  0  0
 13  1  1  6  0  0  0
 13 17  1  0  0  0  0
 14  3  1  0  0  0  0
 16 20  1  0  0  0  0
 17 20  2  0  0  0  0
 17 35  1  0  0  0  0
 18  9  1  0  0  0  0
 18 10  2  0  0  0  0
 20  4  1  0  0  0  0
 21 22  1  0  0  0  0
 22 11  1  0  0  0  0
 23  6  2  0  0  0  0
 24  6  1  0  0  0  0
 26 24  1  0  0  0  0
 26 25  2  0  0  0  0
 28 27  2  0  0  0  0
 28 26  1  0  0  0  0
 29 33  1  0  0  0  0
 29 27  1  0  0  0  0
 30 34  1  0  0  0  0
 30 29  1  0  0  0  0
 31 34  1  0  0  0  0
 31 32  1  0  0  0  0
 32 33  1  0  0  0  0
 34 32  1  0  0  0  0
 35 36  1  0  0  0  0
 37 38  1  0  0  0  0
 37 21  1  0  0  0  0
 39 38  1  0  0  0  0
 40 41  1  0  0  0  0
 41 39  1  0  0  0  0
M  END
>  <MODEL>
2

>  <REMARK>
 VINA RESULT:      -8.7      3.263      8.692
  Name = 
  8 active torsions:
  status: ('A' for Active; 'I' for Inactive)
    1  A    between atoms: C_2  and  C_33
    2  A    between atoms: C_8  and  C_16
    3  A    between atoms: C_8  and  C_20
    4  A    between atoms: C_9  and  C_26
    5  A    between atoms: N_10  and  C_11
    6  A    between atoms: C_16  and  O_24
    7  A    between atoms: C_20  and  N_39
    8  A    between atoms: C_34  and  C_38
                            x       y       z     vdW  Elec       q    Type
                         _______ _______ _______ _____ _____    ______ ____

>  <TORSDO>
F 8

$$$$
=
 OpenBabel11032419543D

 41 47  0  0  1  0  0  0  0  0999 V2000
  186.3890  178.1840  143.9850 C   0  0  0  0  0  0  0  0  0  0  0  0
  189.2990  177.0740  141.0040 C   0  0  0  0  0  0  0  0  0  0  0  0
  188.6420  177.1600  144.3380 C   0  0  1  0  0  3  0  0  0  0  0  0
  185.0510  177.9540  147.3260 C   0  0  0  0  0  1  0  0  0  0  0  0
  187.2000  178.5350  138.4780 C   0  0  0  0  0  3  0  0  0  0  0  0
  189.3400  177.5190  139.5910 C   0  0  0  0  0  0  0  0  0  0  0  0
  185.8550  178.0340  138.8810 C   0  0  0  0  0  2  0  0  0  0  0  0
  190.0250  176.1870  142.9440 C   0  0  1  0  0  3  0  0  0  0  0  0
  188.2960  177.2470  141.8780 C   0  0  1  0  0  3  0  0  0  0  0  0
  186.1950  178.3400  142.5210 C   0  0  0  0  0  0  0  0  0  0  0  0
  184.9570  179.0450  142.0410 C   0  0  0  0  0  2  0  0  0  0  0  0
  190.7280  176.3920  144.1580 N   0  0  0  0  0  0  0  0  0  0  0  0
  187.7130  178.2790  144.7080 C   0  0  2  0  0  3  0  0  0  0  0  0
  188.7070  176.6570  143.1220 C   0  0  2  0  0  3  0  0  0  0  0  0
  189.9160  176.9490  144.9730 N   0  0  0  0  0  0  0  0  0  0  0  0
  185.3880  178.0730  144.7960 N   0  0  0  0  0  0  0  0  0  0  0  0
  187.2350  178.1370  146.1160 C   0  0  0  0  0  0  0  0  0  0  0  0
  187.0860  177.9760  141.6430 N   0  0  0  0  0  0  0  0  0  0  0  0
  190.4600  176.4850  141.7220 C   0  0  0  0  0  3  0  0  0  0  0  0
  185.9140  178.0350  146.1130 C   0  0  0  0  0  0  0  0  0  0  0  0
  185.1310  179.0790  139.5970 N   0  0  0  0  0  0  0  0  0  0  0  0
  184.4290  178.4770  140.7260 C   0  0  0  0  0  2  0  0  0  0  0  0
  188.2730  178.0260  139.0190 C   0  0  0  0  0  0  0  0  0  0  0  0
  190.5640  177.3460  138.8570 N   0  0  0  0  0  2  0  0  0  0  0  0
  190.3610  175.0880  138.2420 O   0  0  0  0  0  0  0  0  0  0  0  0
  191.0390  176.1520  138.2190 C   0  0  0  0  0  0  0  0  0  0  0  0
  193.1580  175.1490  137.5270 C   0  0  0  0  0  3  0  0  0  0  0  0
  192.3320  176.1910  137.5300 C   0  0  0  0  0  3  0  0  0  0  0  0
  194.4680  175.2160  136.8160 C   0  0  2  0  0  3  0  0  0  0  0  0
  194.2950  174.8530  135.3550 C   0  0  0  0  0  2  0  0  0  0  0  0
  196.1380  173.2520  135.2300 N   0  0  0  0  0  2  0  0  0  0  0  0
  195.3450  172.9680  136.4360 C   0  0  1  0  0  3  0  0  0  0  0  0
  195.3980  174.1620  137.3740 C   0  0  0  0  0  2  0  0  0  0  0  0
  194.6740  173.3890  135.2050 C   0  0  1  0  0  3  0  0  0  0  0  0
  188.1020  178.2480  147.3310 C   0  0  0  0  0  2  0  0  0  0  0  0
  188.2960  176.8840  147.9670 C   0  0  0  0  0  1  0  0  0  0  0  0
  184.1710  179.7440  138.7040 C   0  0  0  0  0  2  0  0  0  0  0  0
  182.7040  179.4060  138.9980 C   0  0  0  0  0  2  0  0  0  0  0  0
  181.7620  180.3060  138.2130 C   0  0  0  0  0  2  0  0  0  0  0  0
  181.0690  182.3540  137.7800 C   0  0  0  0  0  1  0  0  0  0  0  0
  181.9940  181.6420  138.5410 O   0  0  0  0  0  0  0  0  0  0  0  0
  1 16  2  0  0  0  0
  2 19  2  0  0  0  0
  3 13  1  0  0  0  0
  3 15  1  6  0  0  0
  5  7  1  0  0  0  0
  5 23  2  0  0  0  0
  6  2  1  0  0  0  0
  7 21  1  0  0  0  0
  8 19  1  6  0  0  0
  8 14  1  0  0  0  0
  8 12  1  0  0  0  0
  9  2  1  1  0  0  0
  9 14  1  0  0  0  0
 10  1  1  0  0  0  0
 11 10  1  0  0  0  0
 12 15  2  0  0  0  0
 13  1  1  6  0  0  0
 13 17  1  0  0  0  0
 14  3  1  0  0  0  0
 16 20  1  0  0  0  0
 17 35  1  0  0  0  0
 18  9  1  0  0  0  0
 18 10  2  0  0  0  0
 20 17  2  0  0  0  0
 20  4  1  0  0  0  0
 21 22  1  0  0  0  0
 22 11  1  0  0  0  0
 23  6  2  0  0  0  0
 24  6  1  0  0  0  0
 26 25  2  0  0  0  0
 26 24  1  0  0  0  0
 27 28  2  0  0  0  0
 28 26  1  0  0  0  0
 29 33  1  0  0  0  0
 29 27  1  0  0  0  0
 30 29  1  0  0  0  0
 31 32  1  0  0  0  0
 32 33  1  0  0  0  0
 34 31  1  0  0  0  0
 34 30  1  0  0  0  0
 34 32  1  0  0  0  0
 35 36  1  0  0  0  0
 37 38  1  0  0  0  0
 37 21  1  0  0  0  0
 39 41  1  0  0  0  0
 39 38  1  0  0  0  0
 40 41  1  0  0  0  0
M  END
>  <MODEL>
3

>  <REMARK>
 VINA RESULT:      -8.5      2.601      6.523
  Name = 
  8 active torsions:
  status: ('A' for Active; 'I' for Inactive)
    1  A    between atoms: C_2  and  C_33
    2  A    between atoms: C_8  and  C_16
    3  A    between atoms: C_8  and  C_20
    4  A    between atoms: C_9  and  C_26
    5  A    between atoms: N_10  and  C_11
    6  A    between atoms: C_16  and  O_24
    7  A    between atoms: C_20  and  N_39
    8  A    between atoms: C_34  and  C_38
                            x       y       z     vdW  Elec       q    Type
                         _______ _______ _______ _____ _____    ______ ____

>  <TORSDO>
F 8

$$$$
=
 OpenBabel11032419543D

 41 47  0  0  1  0  0  0  0  0999 V2000
  189.0020  177.2790  143.9920 C   0  0  0  0  0  0  0  0  0  0  0  0
  185.6510  178.8540  141.7830 C   0  0  0  0  0  0  0  0  0  0  0  0
  186.8760  178.2370  144.8940 C   0  0  1  0  0  3  0  0  0  0  0  0
  190.9080  176.9730  147.0380 C   0  0  0  0  0  1  0  0  0  0  0  0
  187.2350  177.8120  138.7290 C   0  0  0  0  0  3  0  0  0  0  0  0
  185.3510  178.6390  140.3470 C   0  0  0  0  0  0  0  0  0  0  0  0
  188.6440  178.2400  138.9610 C   0  0  0  0  0  2  0  0  0  0  0  0
  185.3000  179.4210  143.9350 C   0  0  1  0  0  3  0  0  0  0  0  0
  186.7860  178.5420  142.4280 C   0  0  1  0  0  3  0  0  0  0  0  0
  188.9340  177.3590  142.5100 C   0  0  0  0  0  0  0  0  0  0  0  0
  190.0480  176.7380  141.7150 C   0  0  0  0  0  2  0  0  0  0  0  0
  184.8140  179.0260  145.2070 N   0  0  0  0  0  0  0  0  0  0  0  0
  187.8220  177.0720  144.9130 C   0  0  2  0  0  3  0  0  0  0  0  0
  186.6150  178.9270  143.8020 C   0  0  2  0  0  3  0  0  0  0  0  0
  185.7390  178.3450  145.7690 N   0  0  0  0  0  0  0  0  0  0  0  0
  190.1320  177.2590  144.6210 N   0  0  0  0  0  0  0  0  0  0  0  0
  188.5420  176.9870  146.2190 C   0  0  0  0  0  0  0  0  0  0  0  0
  187.9140  177.8590  141.8720 N   0  0  0  0  0  0  0  0  0  0  0  0
  184.6510  179.3220  142.7780 C   0  0  0  0  0  3  0  0  0  0  0  0
  189.8450  177.0870  145.9990 C   0  0  0  0  0  0  0  0  0  0  0  0
  189.4500  177.0940  139.3650 N   0  0  0  0  0  0  0  0  0  0  0  0
  190.3550  177.5080  140.4330 C   0  0  0  0  0  2  0  0  0  0  0  0
  186.2880  178.2290  139.5240 C   0  0  0  0  0  0  0  0  0  0  0  0
  184.0240  178.9290  139.8780 N   0  0  0  0  0  2  0  0  0  0  0  0
  183.0400  176.8070  140.0860 O   0  0  0  0  0  0  0  0  0  0  0  0
  182.9220  178.0190  139.7550 C   0  0  0  0  0  0  0  0  0  0  0  0
  181.3820  179.8250  139.1720 C   0  0  0  0  0  3  0  0  0  0  0  0
  181.6480  178.5250  139.2370 C   0  0  0  0  0  3  0  0  0  0  0  0
  180.0750  180.3120  138.6390 C   0  0  2  0  0  3  0  0  0  0  0  0
  180.0720  180.2620  137.1240 C   0  0  0  0  0  2  0  0  0  0  0  0
  179.2290  182.5270  136.7580 N   0  0  0  0  0  2  0  0  0  0  0  0
  180.3060  182.5780  137.7590 C   0  0  1  0  0  3  0  0  0  0  0  0
  179.9050  181.7740  138.9840 C   0  0  0  0  0  2  0  0  0  0  0  0
  180.4070  181.6570  136.6260 C   0  0  1  0  0  3  0  0  0  0  0  0
  187.8980  176.6850  147.5360 C   0  0  0  0  0  2  0  0  0  0  0  0
  187.9770  177.8920  148.4520 C   0  0  0  0  0  1  0  0  0  0  0  0
  190.2190  176.5790  138.2240 C   0  0  0  0  0  2  0  0  0  0  0  0
  191.7400  176.7150  138.3800 C   0  0  0  0  0  2  0  0  0  0  0  0
  192.4720  176.1270  137.1850 C   0  0  0  0  0  2  0  0  0  0  0  0
  194.2530  176.3650  135.9070 C   0  0  0  0  0  1  0  0  0  0  0  0
  193.8200  176.4870  137.2260 O   0  0  0  0  0  0  0  0  0  0  0  0
  1 16  2  0  0  0  0
  2 19  2  0  0  0  0
  3 13  1  0  0  0  0
  3 15  1  6  0  0  0
  5  7  1  0  0  0  0
  5 23  2  0  0  0  0
  6  2  1  0  0  0  0
  7 21  1  0  0  0  0
  8 19  1  6  0  0  0
  8 12  1  0  0  0  0
  9  2  1  1  0  0  0
  9 14  1  0  0  0  0
 10  1  1  0  0  0  0
 11 10  1  0  0  0  0
 12 15  2  0  0  0  0
 13  1  1  6  0  0  0
 13 17  1  0  0  0  0
 14  8  1  0  0  0  0
 14  3  1  0  0  0  0
 16 20  1  0  0  0  0
 17 35  1  0  0  0  0
 18  9  1  0  0  0  0
 18 10  2  0  0  0  0
 20 17  2  0  0  0  0
 20  4  1  0  0  0  0
 21 22  1  0  0  0  0
 22 11  1  0  0  0  0
 23  6  2  0  0  0  0
 24  6  1  0  0  0  0
 26 24  1  0  0  0  0
 26 25  2  0  0  0  0
 27 28  2  0  0  0  0
 28 26  1  0  0  0  0
 29 33  1  0  0  0  0
 29 27  1  0  0  0  0
 30 29  1  0  0  0  0
 31 32  1  0  0  0  0
 32 33  1  0  0  0  0
 34 31  1  0  0  0  0
 34 30  1  0  0  0  0
 34 32  1  0  0  0  0
 35 36  1  0  0  0  0
 37 38  1  0  0  0  0
 37 21  1  0  0  0  0
 39 41  1  0  0  0  0
 39 38  1  0  0  0  0
 40 41  1  0  0  0  0
M  END
>  <MODEL>
4

>  <REMARK>
 VINA RESULT:      -8.2      2.802      9.030
  Name = 
  8 active torsions:
  status: ('A' for Active; 'I' for Inactive)
    1  A    between atoms: C_2  and  C_33
    2  A    between atoms: C_8  and  C_16
    3  A    between atoms: C_8  and  C_20
    4  A    between atoms: C_9  and  C_26
    5  A    between atoms: N_10  and  C_11
    6  A    between atoms: C_16  and  O_24
    7  A    between atoms: C_20  and  N_39
    8  A    between atoms: C_34  and  C_38
                            x       y       z     vdW  Elec       q    Type
                         _______ _______ _______ _____ _____    ______ ____

>  <TORSDO>
F 8

$$$$
=
 OpenBabel11032419543D

 41 47  0  0  1  0  0  0  0  0999 V2000
  190.0160  176.5580  138.9810 C   0  0  0  0  0  0  0  0  0  0  0  0
  186.0610  178.2570  138.7390 C   0  0  0  0  0  0  0  0  0  0  0  0
  188.6290  176.9460  136.9370 C   0  0  1  0  0  3  0  0  0  0  0  0
  192.7060  174.6160  137.5680 C   0  0  0  0  0  1  0  0  0  0  0  0
  186.1930  178.9460  142.2650 C   0  0  0  0  0  3  0  0  0  0  0  0
  185.3670  179.0480  139.7830 C   0  0  0  0  0  0  0  0  0  0  0  0
  186.7680  177.6770  142.7960 C   0  0  0  0  0  2  0  0  0  0  0  0
  186.4990  177.4060  136.6990 C   0  0  1  0  0  3  0  0  0  0  0  0
  187.1980  177.5570  138.8760 C   0  0  1  0  0  3  0  0  0  0  0  0
  189.2210  177.0080  140.1510 C   0  0  0  0  0  0  0  0  0  0  0  0
  189.8780  176.9900  141.5030 C   0  0  0  0  0  2  0  0  0  0  0  0
  187.1140  177.5960  135.4360 N   0  0  0  0  0  0  0  0  0  0  0  0
  189.9590  177.1640  137.5970 C   0  0  2  0  0  3  0  0  0  0  0  0
  187.4910  176.9640  137.6000 C   0  0  2  0  0  3  0  0  0  0  0  0
  188.3530  177.3160  135.5740 N   0  0  0  0  0  0  0  0  0  0  0  0
  190.9410  175.6600  139.0900 N   0  0  0  0  0  0  0  0  0  0  0  0
  191.0270  176.3600  136.9320 C   0  0  0  0  0  0  0  0  0  0  0  0
  188.0190  177.5000  140.0480 N   0  0  0  0  0  0  0  0  0  0  0  0
  185.6680  178.2490  137.3060 C   0  0  0  0  0  3  0  0  0  0  0  0
  191.5580  175.5330  137.8200 C   0  0  0  0  0  0  0  0  0  0  0  0
  188.1920  177.8520  143.0590 N   0  0  0  0  0  0  0  0  0  0  0  0
  188.9010  176.6510  142.6270 C   0  0  0  0  0  2  0  0  0  0  0  0
  185.7670  179.0020  141.0320 C   0  0  0  0  0  0  0  0  0  0  0  0
  184.2250  179.8300  139.3970 N   0  0  0  0  0  2  0  0  0  0  0  0
  182.6130  178.1350  139.1910 O   0  0  0  0  0  0  0  0  0  0  0  0
  182.9000  179.3610  139.1090 C   0  0  0  0  0  0  0  0  0  0  0  0
  181.2580  180.2720  137.5440 C   0  0  0  0  0  3  0  0  0  0  0  0
  181.8780  180.3360  138.7180 C   0  0  0  0  0  3  0  0  0  0  0  0
  180.2200  181.2790  137.1730 C   0  0  2  0  0  3  0  0  0  0  0  0
  180.4020  181.7190  135.7350 C   0  0  0  0  0  2  0  0  0  0  0  0
  180.2770  184.1250  136.1470 N   0  0  0  0  0  2  0  0  0  0  0  0
  181.1850  183.5220  137.1350 C   0  0  1  0  0  3  0  0  0  0  0  0
  180.4180  182.5320  137.9960 C   0  0  0  0  0  2  0  0  0  0  0  0
  181.1740  183.0270  135.7570 C   0  0  1  0  0  3  0  0  0  0  0  0
  191.5120  176.5710  135.5320 C   0  0  0  0  0  2  0  0  0  0  0  0
  191.0960  175.4100  134.6480 C   0  0  0  0  0  1  0  0  0  0  0  0
  188.4250  178.0850  144.4920 C   0  0  0  0  0  2  0  0  0  0  0  0
  189.4430  177.1280  145.1260 C   0  0  0  0  0  2  0  0  0  0  0  0
  189.3440  177.1420  146.6430 C   0  0  0  0  0  2  0  0  0  0  0  0
  188.1740  177.8780  148.3610 C   0  0  0  0  0  1  0  0  0  0  0  0
  188.0460  177.4730  147.0340 O   0  0  0  0  0  0  0  0  0  0  0  0
  1 16  2  0  0  0  0
  1 10  1  0  0  0  0
  2  6  1  0  0  0  0
  3 15  1  6  0  0  0
  3 13  1  0  0  0  0
  3 14  1  0  0  0  0
  4 20  1  0  0  0  0
  5  7  1  0  0  0  0
  6 23  2  0  0  0  0
  7 21  1  0  0  0  0
  8 19  1  1  0  0  0
  8 14  1  0  0  0  0
  9  2  1  6  0  0  0
  9 18  1  0  0  0  0
 10 11  1  0  0  0  0
 11 22  1  0  0  0  0
 12 15  2  0  0  0  0
 12  8  1  0  0  0  0
 13 17  1  6  0  0  0
 13  1  1  0  0  0  0
 14  9  1  0  0  0  0
 17 20  2  0  0  0  0
 18 10  2  0  0  0  0
 19  2  2  0  0  0  0
 20 16  1  0  0  0  0
 21 37  1  0  0  0  0
 22 21  1  0  0  0  0
 23  5  2  0  0  0  0
 24  6  1  0  0  0  0
 26 25  2  0  0  0  0
 26 24  1  0  0  0  0
 27 28  2  0  0  0  0
 28 26  1  0  0  0  0
 29 27  1  0  0  0  0
 29 33  1  0  0  0  0
 30 34  1  0  0  0  0
 30 29  1  0  0  0  0
 31 32  1  0  0  0  0
 32 33  1  0  0  0  0
 34 31  1  0  0  0  0
 34 32  1  0  0  0  0
 35 17  1  0  0  0  0
 36 35  1  0  0  0  0
 37 38  1  0  0  0  0
 38 39  1  0  0  0  0
 39 41  1  0  0  0  0
 41 40  1  0  0  0  0
M  END
>  <MODEL>
5

>  <REMARK>
 VINA RESULT:      -7.7      3.426      8.670
  Name = 
  8 active torsions:
  status: ('A' for Active; 'I' for Inactive)
    1  A    between atoms: C_2  and  C_33
    2  A    between atoms: C_8  and  C_16
    3  A    between atoms: C_8  and  C_20
    4  A    between atoms: C_9  and  C_26
    5  A    between atoms: N_10  and  C_11
    6  A    between atoms: C_16  and  O_24
    7  A    between atoms: C_20  and  N_39
    8  A    between atoms: C_34  and  C_38
                            x       y       z     vdW  Elec       q    Type
                         _______ _______ _______ _____ _____    ______ ____

>  <TORSDO>
F 8

$$$$
=
 OpenBabel11032419543D

 41 47  0  0  1  0  0  0  0  0999 V2000
  185.9040  178.5300  139.6140 C   0  0  0  0  0  0  0  0  0  0  0  0
  189.7520  177.3220  138.0900 C   0  0  0  0  0  0  0  0  0  0  0  0
  186.5680  178.1490  137.2340 C   0  0  1  0  0  3  0  0  0  0  0  0
  182.6450  179.9980  139.1420 C   0  0  0  0  0  1  0  0  0  0  0  0
  190.9110  176.9190  141.4690 C   0  0  0  0  0  3  0  0  0  0  0  0
  190.8630  176.7140  138.8600 C   0  0  0  0  0  0  0  0  0  0  0  0
  190.3690  178.1460  142.1190 C   0  0  0  0  0  2  0  0  0  0  0  0
  188.5380  177.9400  136.2960 C   0  0  1  0  0  3  0  0  0  0  0  0
  188.6380  177.8840  138.5840 C   0  0  1  0  0  3  0  0  0  0  0  0
  187.1020  178.2820  140.4560 C   0  0  0  0  0  0  0  0  0  0  0  0
  186.9410  178.3310  141.9490 C   0  0  0  0  0  2  0  0  0  0  0  0
  187.5700  177.5700  135.3280 N   0  0  0  0  0  0  0  0  0  0  0  0
  185.5830  177.8230  138.3180 C   0  0  2  0  0  3  0  0  0  0  0  0
  187.8520  178.3280  137.4660 C   0  0  2  0  0  3  0  0  0  0  0  0
  186.4220  177.7030  135.8740 N   0  0  0  0  0  0  0  0  0  0  0  0
  184.9500  179.3130  140.0020 N   0  0  0  0  0  0  0  0  0  0  0  0
  184.2480  178.4290  138.0310 C   0  0  0  0  0  0  0  0  0  0  0  0
  188.2580  177.9370  139.9640 N   0  0  0  0  0  0  0  0  0  0  0  0
  189.6370  177.2600  136.6100 C   0  0  0  0  0  3  0  0  0  0  0  0
  183.9310  179.2550  139.0180 C   0  0  0  0  0  0  0  0  0  0  0  0
  189.1570  177.8190  142.8620 N   0  0  0  0  0  0  0  0  0  0  0  0
  188.1780  178.8810  142.6570 C   0  0  0  0  0  2  0  0  0  0  0  0
  190.9020  176.8140  140.1680 C   0  0  0  0  0  0  0  0  0  0  0  0
  191.9110  176.0500  138.1340 N   0  0  0  0  0  2  0  0  0  0  0  0
  190.8750  173.9870  137.7070 O   0  0  0  0  0  0  0  0  0  0  0  0
  191.8930  174.7230  137.5910 C   0  0  0  0  0  0  0  0  0  0  0  0
  194.0960  173.6640  137.5390 C   0  0  0  0  0  3  0  0  0  0  0  0
  193.0850  174.2330  136.8910 C   0  0  0  0  0  3  0  0  0  0  0  0
  195.2970  173.1740  136.8000 C   0  0  2  0  0  3  0  0  0  0  0  0
  196.5010  173.1320  137.7180 C   0  0  0  0  0  2  0  0  0  0  0  0
  198.0500  174.2880  136.2220 N   0  0  0  0  0  2  0  0  0  0  0  0
  196.7830  175.0350  136.2600 C   0  0  1  0  0  3  0  0  0  0  0  0
  195.6610  174.1650  135.7180 C   0  0  0  0  0  2  0  0  0  0  0  0
  197.2950  174.4050  137.4790 C   0  0  1  0  0  3  0  0  0  0  0  0
  183.3580  178.0440  136.8920 C   0  0  0  0  0  2  0  0  0  0  0  0
  183.0720  176.5540  136.9230 C   0  0  0  0  0  1  0  0  0  0  0  0
  189.4550  177.6790  144.2950 C   0  0  0  0  0  2  0  0  0  0  0  0
  188.2180  177.4380  145.1710 C   0  0  0  0  0  2  0  0  0  0  0  0
  188.5990  177.3000  146.6360 C   0  0  0  0  0  2  0  0  0  0  0  0
  188.2290  178.0150  148.6890 C   0  0  0  0  0  1  0  0  0  0  0  0
  187.6220  177.8860  147.4410 O   0  0  0  0  0  0  0  0  0  0  0  0
  1 16  2  0  0  0  0
  1 10  1  0  0  0  0
  2  6  1  0  0  0  0
  3 15  1  6  0  0  0
  3 14  1  0  0  0  0
  3 13  1  0  0  0  0
  5  7  1  0  0  0  0
  6 23  2  0  0  0  0
  7 21  1  0  0  0  0
  8 19  1  1  0  0  0
  8 14  1  0  0  0  0
  9  2  1  6  0  0  0
  9 18  1  0  0  0  0
 10 11  1  0  0  0  0
 11 22  1  0  0  0  0
 12 15  2  0  0  0  0
 12  8  1  0  0  0  0
 13 17  1  6  0  0  0
 13  1  1  0  0  0  0
 14  9  1  0  0  0  0
 17 20  2  0  0  0  0
 18 10  2  0  0  0  0
 19  2  2  0  0  0  0
 20  4  1  0  0  0  0
 20 16  1  0  0  0  0
 21 37  1  0  0  0  0
 22 21  1  0  0  0  0
 23  5  2  0  0  0  0
 24  6  1  0  0  0  0
 26 25  2  0  0  0  0
 26 24  1  0  0  0  0
 28 27  2  0  0  0  0
 28 26  1  0  0  0  0
 29 27  1  0  0  0  0
 29 30  1  0  0  0  0
 31 32  1  0  0  0  0
 31 34  1  0  0  0  0
 32 34  1  0  0  0  0
 33 32  1  0  0  0  0
 33 29  1  0  0  0  0
 34 30  1  0  0  0  0
 35 36  1  0  0  0  0
 35 17  1  0  0  0  0
 37 38  1  0  0  0  0
 38 39  1  0  0  0  0
 39 41  1  0  0  0  0
 41 40  1  0  0  0  0
M  END
>  <MODEL>
6

>  <REMARK>
 VINA RESULT:      -7.7      2.548      3.809
  Name = 
  8 active torsions:
  status: ('A' for Active; 'I' for Inactive)
    1  A    between atoms: C_2  and  C_33
    2  A    between atoms: C_8  and  C_16
    3  A    between atoms: C_8  and  C_20
    4  A    between atoms: C_9  and  C_26
    5  A    between atoms: N_10  and  C_11
    6  A    between atoms: C_16  and  O_24
    7  A    between atoms: C_20  and  N_39
    8  A    between atoms: C_34  and  C_38
                            x       y       z     vdW  Elec       q    Type
                         _______ _______ _______ _____ _____    ______ ____

>  <TORSDO>
F 8

$$$$
=
 OpenBabel11032419543D

 41 47  0  0  1  0  0  0  0  0999 V2000
  190.6920  176.1410  138.5060 C   0  0  0  0  0  0  0  0  0  0  0  0
  186.7180  177.8110  138.4070 C   0  0  0  0  0  0  0  0  0  0  0  0
  189.1770  176.3970  136.5330 C   0  0  1  0  0  3  0  0  0  0  0  0
  193.3010  174.1210  137.0510 C   0  0  0  0  0  1  0  0  0  0  0  0
  187.0640  178.7190  141.8680 C   0  0  0  0  0  3  0  0  0  0  0  0
  186.0850  178.6640  139.4410 C   0  0  0  0  0  0  0  0  0  0  0  0
  187.6790  177.4870  142.4400 C   0  0  0  0  0  2  0  0  0  0  0  0
  187.0340  176.8360  136.4000 C   0  0  1  0  0  3  0  0  0  0  0  0
  187.8660  177.1240  138.5160 C   0  0  1  0  0  3  0  0  0  0  0  0
  189.9680  176.6610  139.6940 C   0  0  0  0  0  0  0  0  0  0  0  0
  190.7070  176.7290  141.0000 C   0  0  0  0  0  2  0  0  0  0  0  0
  187.5670  176.9480  135.0920 N   0  0  0  0  0  0  0  0  0  0  0  0
  190.5440  176.6600  137.0940 C   0  0  2  0  0  3  0  0  0  0  0  0
  188.0820  176.4530  137.2640 C   0  0  2  0  0  3  0  0  0  0  0  0
  188.8150  176.6810  135.1700 N   0  0  0  0  0  0  0  0  0  0  0  0
  191.6260  175.2530  138.6130 N   0  0  0  0  0  0  0  0  0  0  0  0
  191.5740  175.8180  136.4140 C   0  0  0  0  0  0  0  0  0  0  0  0
  188.7590  177.1420  139.6350 N   0  0  0  0  0  0  0  0  0  0  0  0
  186.2360  177.7130  137.0040 C   0  0  0  0  0  3  0  0  0  0  0  0
  192.1650  175.0490  137.3170 C   0  0  0  0  0  0  0  0  0  0  0  0
  189.1160  177.6820  142.6030 N   0  0  0  0  0  0  0  0  0  0  0  0
  189.8040  176.4580  142.2020 C   0  0  0  0  0  2  0  0  0  0  0  0
  186.5630  178.6970  140.6630 C   0  0  0  0  0  0  0  0  0  0  0  0
  184.9160  179.4180  139.0790 N   0  0  0  0  0  2  0  0  0  0  0  0
  183.2390  178.0230  139.9480 O   0  0  0  0  0  0  0  0  0  0  0  0
  183.5450  179.0800  139.3320 C   0  0  0  0  0  0  0  0  0  0  0  0
  181.2320  179.6050  138.7390 C   0  0  0  0  0  3  0  0  0  0  0  0
  182.4980  179.9920  138.8620 C   0  0  0  0  0  3  0  0  0  0  0  0
  180.1870  180.5560  138.2590 C   0  0  2  0  0  3  0  0  0  0  0  0
  179.2510  179.8660  137.2880 C   0  0  0  0  0  2  0  0  0  0  0  0
  179.3160  181.5810  135.5480 N   0  0  0  0  0  2  0  0  0  0  0  0
  180.6910  181.3010  135.9890 C   0  0  1  0  0  3  0  0  0  0  0  0
  180.8400  181.6590  137.4580 C   0  0  0  0  0  2  0  0  0  0  0  0
  179.7220  180.2080  135.8850 C   0  0  1  0  0  3  0  0  0  0  0  0
  191.9700  175.9420  134.9760 C   0  0  0  0  0  2  0  0  0  0  0  0
  193.4190  176.3780  134.8620 C   0  0  0  0  0  1  0  0  0  0  0  0
  189.4360  178.0040  144.0000 C   0  0  0  0  0  2  0  0  0  0  0  0
  188.6930  177.1410  145.0290 C   0  0  0  0  0  2  0  0  0  0  0  0
  189.1010  177.5000  146.4490 C   0  0  0  0  0  2  0  0  0  0  0  0
  188.4160  178.0980  148.4580 C   0  0  0  0  0  1  0  0  0  0  0  0
  187.9870  177.4740  147.2870 O   0  0  0  0  0  0  0  0  0  0  0  0
  1 16  2  0  0  0  0
  1 10  1  0  0  0  0
  2  6  1  0  0  0  0
  3 15  1  6  0  0  0
  3 13  1  0  0  0  0
  3 14  1  0  0  0  0
  4 20  1  0  0  0  0
  5  7  1  0  0  0  0
  6 23  2  0  0  0  0
  7 21  1  0  0  0  0
  8 19  1  1  0  0  0
  8 14  1  0  0  0  0
  9  2  1  6  0  0  0
  9 18  1  0  0  0  0
 10 11  1  0  0  0  0
 11 22  1  0  0  0  0
 12 15  2  0  0  0  0
 12  8  1  0  0  0  0
 13 17  1  6  0  0  0
 13  1  1  0  0  0  0
 14  9  1  0  0  0  0
 17 20  2  0  0  0  0
 18 10  2  0  0  0  0
 19  2  2  0  0  0  0
 20 16  1  0  0  0  0
 21 37  1  0  0  0  0
 22 21  1  0  0  0  0
 23  5  2  0  0  0  0
 24 26  1  0  0  0  0
 24  6  1  0  0  0  0
 26 25  2  0  0  0  0
 27 28  2  0  0  0  0
 28 26  1  0  0  0  0
 29 27  1  0  0  0  0
 30 29  1  0  0  0  0
 31 34  1  0  0  0  0
 31 32  1  0  0  0  0
 32 33  1  0  0  0  0
 33 29  1  0  0  0  0
 34 32  1  0  0  0  0
 34 30  1  0  0  0  0
 35 17  1  0  0  0  0
 36 35  1  0  0  0  0
 37 38  1  0  0  0  0
 38 39  1  0  0  0  0
 39 41  1  0  0  0  0
 41 40  1  0  0  0  0
M  END
>  <MODEL>
7

>  <REMARK>
 VINA RESULT:      -7.3      3.172      8.823
  Name = 
  8 active torsions:
  status: ('A' for Active; 'I' for Inactive)
    1  A    between atoms: C_2  and  C_33
    2  A    between atoms: C_8  and  C_16
    3  A    between atoms: C_8  and  C_20
    4  A    between atoms: C_9  and  C_26
    5  A    between atoms: N_10  and  C_11
    6  A    between atoms: C_16  and  O_24
    7  A    between atoms: C_20  and  N_39
    8  A    between atoms: C_34  and  C_38
                            x       y       z     vdW  Elec       q    Type
                         _______ _______ _______ _____ _____    ______ ____

>  <TORSDO>
F 8

$$$$
=
 OpenBabel11032419543D

 41 47  0  0  1  0  0  0  0  0999 V2000
  189.2380  177.4140  143.2880 C   0  0  0  0  0  0  0  0  0  0  0  0
  185.8010  178.4990  140.9220 C   0  0  0  0  0  0  0  0  0  0  0  0
  186.9850  178.1470  144.0890 C   0  0  1  0  0  3  0  0  0  0  0  0
  191.0640  177.4480  146.3970 C   0  0  0  0  0  1  0  0  0  0  0  0
  187.5950  177.5390  137.9590 C   0  0  0  0  0  3  0  0  0  0  0  0
  185.5750  178.1980  139.4890 C   0  0  0  0  0  0  0  0  0  0  0  0
  188.9360  178.1400  138.2140 C   0  0  0  0  0  2  0  0  0  0  0  0
  185.3140  179.1000  143.0390 C   0  0  1  0  0  3  0  0  0  0  0  0
  186.9420  178.3480  141.6120 C   0  0  1  0  0  3  0  0  0  0  0  0
  189.2090  177.4300  141.8030 C   0  0  0  0  0  0  0  0  0  0  0  0
  190.4140  176.9170  141.0660 C   0  0  0  0  0  2  0  0  0  0  0  0
  184.8360  178.6970  144.3110 N   0  0  0  0  0  0  0  0  0  0  0  0
  188.0600  177.1030  144.1830 C   0  0  2  0  0  3  0  0  0  0  0  0
  186.6810  178.7600  142.9640 C   0  0  2  0  0  3  0  0  0  0  0  0
  185.8150  178.1520  144.9260 N   0  0  0  0  0  0  0  0  0  0  0  0
  190.3410  177.5510  143.9500 N   0  0  0  0  0  0  0  0  0  0  0  0
  188.7410  177.1520  145.5120 C   0  0  0  0  0  0  0  0  0  0  0  0
  188.1600  177.7830  141.1160 N   0  0  0  0  0  0  0  0  0  0  0  0
  184.7200  178.8820  141.8690 C   0  0  0  0  0  3  0  0  0  0  0  0
  190.0300  177.3970  145.3240 C   0  0  0  0  0  0  0  0  0  0  0  0
  189.8570  177.1120  138.6880 N   0  0  0  0  0  0  0  0  0  0  0  0
  190.6720  177.6700  139.7630 C   0  0  0  0  0  2  0  0  0  0  0  0
  186.5800  177.8710  138.7090 C   0  0  0  0  0  0  0  0  0  0  0  0
  184.2400  178.3110  138.9700 N   0  0  0  0  0  2  0  0  0  0  0  0
  184.0210  180.6480  138.8990 O   0  0  0  0  0  0  0  0  0  0  0  0
  183.5060  179.5130  138.7000 C   0  0  0  0  0  0  0  0  0  0  0  0
  181.8430  178.6280  137.1420 C   0  0  0  0  0  3  0  0  0  0  0  0
  182.1390  179.4020  138.1810 C   0  0  0  0  0  3  0  0  0  0  0  0
  180.4430  178.5320  136.6360 C   0  0  2  0  0  3  0  0  0  0  0  0
  179.8550  177.1740  136.9630 C   0  0  0  0  0  2  0  0  0  0  0  0
  178.9820  176.6870  134.7320 N   0  0  0  0  0  2  0  0  0  0  0  0
  180.3630  177.1790  134.6040 C   0  0  1  0  0  3  0  0  0  0  0  0
  180.4480  178.6040  135.1260 C   0  0  0  0  0  2  0  0  0  0  0  0
  180.0010  176.3080  135.7240 C   0  0  1  0  0  3  0  0  0  0  0  0
  188.0930  176.8250  146.8200 C   0  0  0  0  0  2  0  0  0  0  0  0
  187.6540  178.0950  147.5250 C   0  0  0  0  0  1  0  0  0  0  0  0
  190.7190  176.6500  137.5910 C   0  0  0  0  0  2  0  0  0  0  0  0
  191.6830  175.5230  137.9830 C   0  0  0  0  0  2  0  0  0  0  0  0
  192.1290  174.7300  136.7650 C   0  0  0  0  0  2  0  0  0  0  0  0
  193.5180  173.2400  135.9190 C   0  0  0  0  0  1  0  0  0  0  0  0
  193.2660  173.9810  137.0720 O   0  0  0  0  0  0  0  0  0  0  0  0
  1 16  2  0  0  0  0
  2 19  2  0  0  0  0
  3 13  1  0  0  0  0
  3 15  1  6  0  0  0
  5  7  1  0  0  0  0
  5 23  2  0  0  0  0
  6  2  1  0  0  0  0
  7 21  1  0  0  0  0
  8 19  1  6  0  0  0
  8 12  1  0  0  0  0
  9  2  1  1  0  0  0
  9 14  1  0  0  0  0
 10  1  1  0  0  0  0
 11 10  1  0  0  0  0
 12 15  2  0  0  0  0
 13  1  1  6  0  0  0
 13 17  1  0  0  0  0
 14  8  1  0  0  0  0
 14  3  1  0  0  0  0
 16 20  1  0  0  0  0
 17 35  1  0  0  0  0
 18  9  1  0  0  0  0
 18 10  2  0  0  0  0
 20 17  2  0  0  0  0
 20  4  1  0  0  0  0
 21 22  1  0  0  0  0
 22 11  1  0  0  0  0
 23  6  2  0  0  0  0
 24  6  1  0  0  0  0
 26 25  2  0  0  0  0
 26 24  1  0  0  0  0
 27 28  2  0  0  0  0
 28 26  1  0  0  0  0
 29 30  1  0  0  0  0
 29 27  1  0  0  0  0
 31 34  1  0  0  0  0
 32 31  1  0  0  0  0
 32 33  1  0  0  0  0
 32 34  1  0  0  0  0
 33 29  1  0  0  0  0
 34 30  1  0  0  0  0
 35 36  1  0  0  0  0
 37 38  1  0  0  0  0
 37 21  1  0  0  0  0
 39 41  1  0  0  0  0
 39 38  1  0  0  0  0
 40 41  1  0  0  0  0
M  END
>  <MODEL>
8

>  <REMARK>
 VINA RESULT:      -7.2      2.998      8.664
  Name = 
  8 active torsions:
  status: ('A' for Active; 'I' for Inactive)
    1  A    between atoms: C_2  and  C_33
    2  A    between atoms: C_8  and  C_16
    3  A    between atoms: C_8  and  C_20
    4  A    between atoms: C_9  and  C_26
    5  A    between atoms: N_10  and  C_11
    6  A    between atoms: C_16  and  O_24
    7  A    between atoms: C_20  and  N_39
    8  A    between atoms: C_34  and  C_38
                            x       y       z     vdW  Elec       q    Type
                         _______ _______ _______ _____ _____    ______ ____

>  <TORSDO>
F 8

$$$$
=
 OpenBabel11032419543D

 41 47  0  0  1  0  0  0  0  0999 V2000
  184.6200  178.2650  138.6840 C   0  0  0  0  0  0  0  0  0  0  0  0
  188.8240  177.7970  137.8510 C   0  0  0  0  0  0  0  0  0  0  0  0
  185.7330  178.0400  136.4570 C   0  0  1  0  0  3  0  0  0  0  0  0
  181.2750  179.1200  137.6440 C   0  0  0  0  0  1  0  0  0  0  0  0
  189.4510  177.5700  141.3830 C   0  0  0  0  0  3  0  0  0  0  0  0
  189.8810  177.3920  138.8070 C   0  0  0  0  0  0  0  0  0  0  0  0
  188.5940  178.6710  141.9100 C   0  0  0  0  0  2  0  0  0  0  0  0
  187.8370  178.2040  135.8660 C   0  0  1  0  0  3  0  0  0  0  0  0
  187.5590  178.1400  138.1400 C   0  0  1  0  0  3  0  0  0  0  0  0
  185.6840  178.2290  139.7200 C   0  0  0  0  0  0  0  0  0  0  0  0
  185.2680  178.2290  141.1640 C   0  0  0  0  0  2  0  0  0  0  0  0
  187.1300  177.6760  134.7570 N   0  0  0  0  0  0  0  0  0  0  0  0
  184.6550  177.5260  137.3660 C   0  0  2  0  0  3  0  0  0  0  0  0
  186.9060  178.4470  136.8970 C   0  0  2  0  0  3  0  0  0  0  0  0
  185.9010  177.5910  135.1000 N   0  0  0  0  0  0  0  0  0  0  0  0
  183.4880  178.8560  138.8910 N   0  0  0  0  0  0  0  0  0  0  0  0
  183.3000  177.8830  136.8480 C   0  0  0  0  0  0  0  0  0  0  0  0
  186.9490  178.1060  139.4350 N   0  0  0  0  0  0  0  0  0  0  0  0
  188.9730  177.7320  136.3730 C   0  0  0  0  0  3  0  0  0  0  0  0
  182.6770  178.6250  137.7510 C   0  0  0  0  0  0  0  0  0  0  0  0
  187.3540  178.1180  142.4450 N   0  0  0  0  0  0  0  0  0  0  0  0
  186.2470  178.9880  142.0580 C   0  0  0  0  0  2  0  0  0  0  0  0
  189.6810  177.4810  140.1010 C   0  0  0  0  0  0  0  0  0  0  0  0
  191.1390  176.9390  138.2800 N   0  0  0  0  0  2  0  0  0  0  0  0
  190.6580  174.6630  137.9590 O   0  0  0  0  0  0  0  0  0  0  0  0
  191.4920  175.6060  137.8830 C   0  0  0  0  0  0  0  0  0  0  0  0
  193.6870  174.5380  138.0010 C   0  0  0  0  0  3  0  0  0  0  0  0
  192.8460  175.3580  137.3790 C   0  0  0  0  0  3  0  0  0  0  0  0
  195.0600  174.3020  137.4640 C   0  0  2  0  0  3  0  0  0  0  0  0
  194.9920  173.5400  136.1570 C   0  0  0  0  0  2  0  0  0  0  0  0
  196.6680  171.8500  136.7160 N   0  0  0  0  0  2  0  0  0  0  0  0
  195.7380  171.9880  137.8480 C   0  0  1  0  0  3  0  0  0  0  0  0
  195.8200  173.3980  138.4080 C   0  0  0  0  0  2  0  0  0  0  0  0
  195.2340  172.0740  136.4760 C   0  0  1  0  0  3  0  0  0  0  0  0
  182.7000  177.3560  135.5830 C   0  0  0  0  0  2  0  0  0  0  0  0
  182.6980  175.8390  135.5900 C   0  0  0  0  0  1  0  0  0  0  0  0
  187.4260  178.0180  143.9090 C   0  0  0  0  0  2  0  0  0  0  0  0
  186.0600  177.8960  144.5980 C   0  0  0  0  0  2  0  0  0  0  0  0
  186.1530  178.2470  146.0740 C   0  0  0  0  0  2  0  0  0  0  0  0
  184.0810  178.7390  145.4990 C   0  0  0  0  0  1  0  0  0  0  0  0
  185.0600  179.0290  146.4480 O   0  0  0  0  0  0  0  0  0  0  0  0
  1 16  2  0  0  0  0
  1 10  1  0  0  0  0
  2  6  1  0  0  0  0
  3 15  1  6  0  0  0
  3 14  1  0  0  0  0
  3 13  1  0  0  0  0
  4 20  1  0  0  0  0
  5  7  1  0  0  0  0
  6 23  2  0  0  0  0
  7 21  1  0  0  0  0
  8 19  1  1  0  0  0
  8 14  1  0  0  0  0
  9  2  1  6  0  0  0
  9 18  1  0  0  0  0
 10 11  1  0  0  0  0
 11 22  1  0  0  0  0
 12 15  2  0  0  0  0
 12  8  1  0  0  0  0
 13 17  1  6  0  0  0
 13  1  1  0  0  0  0
 14  9  1  0  0  0  0
 17 20  2  0  0  0  0
 18 10  2  0  0  0  0
 19  2  2  0  0  0  0
 20 16  1  0  0  0  0
 21 37  1  0  0  0  0
 22 21  1  0  0  0  0
 23  5  2  0  0  0  0
 24  6  1  0  0  0  0
 26 25  2  0  0  0  0
 26 24  1  0  0  0  0
 28 26  1  0  0  0  0
 28 27  2  0  0  0  0
 29 27  1  0  0  0  0
 29 33  1  0  0  0  0
 30 34  1  0  0  0  0
 30 29  1  0  0  0  0
 31 32  1  0  0  0  0
 32 33  1  0  0  0  0
 34 31  1  0  0  0  0
 34 32  1  0  0  0  0
 35 36  1  0  0  0  0
 35 17  1  0  0  0  0
 37 38  1  0  0  0  0
 38 39  1  0  0  0  0
 39 41  1  0  0  0  0
 40 41  1  0  0  0  0
M  END
>  <MODEL>
9

>  <REMARK>
 VINA RESULT:      -7.1      2.863      4.236
  Name = 
  8 active torsions:
  status: ('A' for Active; 'I' for Inactive)
    1  A    between atoms: C_2  and  C_33
    2  A    between atoms: C_8  and  C_16
    3  A    between atoms: C_8  and  C_20
    4  A    between atoms: C_9  and  C_26
    5  A    between atoms: N_10  and  C_11
    6  A    between atoms: C_16  and  O_24
    7  A    between atoms: C_20  and  N_39
    8  A    between atoms: C_34  and  C_38
                            x       y       z     vdW  Elec       q    Type
                         _______ _______ _______ _____ _____    ______ ____

>  <TORSDO>
F 8

$$$$
