=
 OpenBabel11042409483D

 33 38  0  0  1  0  0  0  0  0999 V2000
  191.2670  176.5970  144.6830 C   0  0  0  0  0  3  0  0  0  0  0  0
  186.8520  178.3010  141.3690 C   0  0  0  0  0  0  0  0  0  0  0  0
  185.4020  178.7780  142.1000 S   0  0  0  0  0  0  0  0  0  0  0  0
  189.4990  177.2420  146.7110 C   0  0  0  0  0  0  0  0  0  0  0  0
  187.3460  178.0620  143.6210 C   0  0  0  0  0  0  0  0  0  0  0  0
  187.8070  177.8720  144.9380 C   0  0  0  0  0  0  0  0  0  0  0  0
  187.2360  178.2300  140.0330 C   0  0  0  0  0  3  0  0  0  0  0  0
  186.0570  178.5060  143.6410 C   0  0  0  0  0  0  0  0  0  0  0  0
  191.6140  176.4690  145.9810 N   0  0  0  0  0  0  0  0  0  0  0  0
  186.6330  178.2690  145.7650 C   0  0  0  0  0  0  0  0  0  0  0  0
  190.0000  177.0630  144.3680 C   0  0  0  0  0  3  0  0  0  0  0  0
  187.4780  177.9620  148.0710 C   0  0  0  0  0  3  0  0  0  0  0  0
  188.5610  177.7910  139.9460 C   0  0  0  0  0  0  0  0  0  0  0  0
  187.8000  177.9480  142.3010 C   0  0  0  0  0  0  0  0  0  0  0  0
  189.0740  177.4040  145.3580 C   0  0  0  0  0  0  0  0  0  0  0  0
  188.7660  177.5040  147.8650 C   0  0  0  0  0  3  0  0  0  0  0  0
  190.7590  176.7810  146.9510 N   0  0  0  0  0  0  0  0  0  0  0  0
  189.2110  177.5220  141.4970 S   0  0  0  0  0  0  0  0  0  0  0  0
  186.5220  178.3020  147.1410 C   0  0  0  0  0  3  0  0  0  0  0  0
  185.5840  178.6460  144.9140 C   0  0  0  0  0  0  0  0  0  0  0  0
  183.1560  178.7220  144.6020 C   0  0  0  0  0  0  0  0  0  0  0  0
  184.2240  179.1190  145.2390 C   0  0  0  0  0  3  0  0  0  0  0  0
  182.0970  178.3210  143.9580 C   0  0  0  0  0  3  0  0  0  0  0  0
  181.6620  179.0370  142.7270 C   0  0  0  0  0  2  0  0  0  0  0  0
  179.7060  177.6920  143.1510 O   0  0  0  0  0  0  0  0  0  0  0  0
  180.1710  178.8480  142.5040 C   0  0  2  0  0  0  0  0  0  0  0  0
  179.7150  177.6710  141.7380 C   0  0  0  0  0  2  0  0  0  0  0  0
  179.2050  180.0060  142.6920 C   0  0  0  0  0  2  0  0  0  0  0  0
  179.6940  181.1870  141.9980 N   0  0  0  0  0  2  0  0  0  0  0  0
  179.2480  181.0770  140.6210 C   0  0  0  0  0  1  0  0  0  0  0  0
  189.3050  177.6340  138.6630 C   0  0  2  0  0  3  0  0  0  0  0  0
  190.6680  177.4700  138.9160 O   0  0  0  0  0  1  0  0  0  0  0  0
  189.0920  178.8470  137.7790 C   0  0  0  0  0  1  0  0  0  0  0  0
  1  9  1  0  0  0  0
  2  3  1  0  0  0  0
  2 14  2  0  0  0  0
  3  8  1  0  0  0  0
  4 17  1  0  0  0  0
  4 16  1  0  0  0  0
  5  8  1  0  0  0  0
  5  6  2  0  0  0  0
  6 15  1  0  0  0  0
  6 10  1  0  0  0  0
  7  2  1  0  0  0  0
  8 20  2  0  0  0  0
  9 17  2  0  0  0  0
 10 19  2  0  0  0  0
 11  1  2  0  0  0  0
 11 15  1  0  0  0  0
 13  7  2  0  0  0  0
 13 18  1  0  0  0  0
 14  5  1  0  0  0  0
 15  4  2  0  0  0  0
 16 12  2  0  0  0  0
 18 14  1  0  0  0  0
 19 12  1  0  0  0  0
 20 22  1  0  0  0  0
 20 10  1  0  0  0  0
 21 22  2  0  0  0  0
 23 21  2  0  0  0  0
 24 23  1  0  0  0  0
 26 28  1  1  0  0  0
 26 24  1  0  0  0  0
 26 25  1  0  0  0  0
 27 26  1  0  0  0  0
 27 25  1  0  0  0  0
 29 28  1  0  0  0  0
 30 29  1  0  0  0  0
 31 33  1  6  0  0  0
 31 32  1  0  0  0  0
 31 13  1  0  0  0  0
M  END
>  <MODEL>
1

>  <REMARK>
 VINA RESULT:     -10.5      0.000      0.000
  Name = 
  6 active torsions:
  status: ('A' for Active; 'I' for Inactive)
    1  A    between atoms: N_3  and  C_30
    2  A    between atoms: C_5  and  C_23
    3  A    between atoms: C_9  and  C_17
    4  A    between atoms: C_9  and  C_33
    5  A    between atoms: C_13  and  C_32
    6  A    between atoms: C_17  and  C_30
                            x       y       z     vdW  Elec       q    Type
                         _______ _______ _______ _____ _____    ______ ____

>  <TORSDO>
F 6

$$$$
=
 OpenBabel11042409483D

 33 38  0  0  1  0  0  0  0  0999 V2000
  189.9380  177.4470  141.2740 C   0  0  0  0  0  3  0  0  0  0  0  0
  187.8150  177.5710  146.6460 C   0  0  0  0  0  0  0  0  0  0  0  0
  186.2170  178.0700  146.8950 S   0  0  0  0  0  0  0  0  0  0  0  0
  187.3650  178.2460  140.6460 C   0  0  0  0  0  0  0  0  0  0  0  0
  187.1010  178.0000  144.4820 C   0  0  0  0  0  0  0  0  0  0  0  0
  186.8250  178.2050  143.1170 C   0  0  0  0  0  0  0  0  0  0  0  0
  188.8020  177.1480  147.5320 C   0  0  0  0  0  3  0  0  0  0  0  0
  185.9970  178.2920  145.2280 C   0  0  0  0  0  0  0  0  0  0  0  0
  189.5620  177.6540  139.9950 N   0  0  0  0  0  0  0  0  0  0  0  0
  185.4040  178.6510  143.1260 C   0  0  0  0  0  0  0  0  0  0  0  0
  189.0110  177.6370  142.2860 C   0  0  0  0  0  3  0  0  0  0  0  0
  184.9300  178.9680  140.7170 C   0  0  0  0  0  3  0  0  0  0  0  0
  189.9620  176.8190  146.8240 C   0  0  0  0  0  0  0  0  0  0  0  0
  188.1490  177.5800  145.3120 C   0  0  0  0  0  0  0  0  0  0  0  0
  187.6990  178.0380  142.0180 C   0  0  0  0  0  0  0  0  0  0  0  0
  186.1380  178.6490  140.1250 C   0  0  0  0  0  3  0  0  0  0  0  0
  188.3230  178.0390  139.6990 N   0  0  0  0  0  0  0  0  0  0  0  0
  189.7310  177.0440  145.1500 S   0  0  0  0  0  0  0  0  0  0  0  0
  184.5970  178.9740  142.0530 C   0  0  0  0  0  3  0  0  0  0  0  0
  184.9480  178.6900  144.4520 C   0  0  0  0  0  0  0  0  0  0  0  0
  182.5030  178.8100  144.3630 C   0  0  0  0  0  0  0  0  0  0  0  0
  183.6220  179.0600  144.9870 C   0  0  0  0  0  3  0  0  0  0  0  0
  181.3920  178.5580  143.7310 C   0  0  0  0  0  3  0  0  0  0  0  0
  180.8640  179.5360  142.7390 C   0  0  0  0  0  2  0  0  0  0  0  0
  181.5530  178.0350  140.9820 O   0  0  0  0  0  0  0  0  0  0  0  0
  180.4930  178.8300  141.4460 C   0  0  2  0  0  0  0  0  0  0  0  0
  181.2310  179.1770  140.2150 C   0  0  0  0  0  2  0  0  0  0  0  0
  179.1640  178.1040  141.3120 C   0  0  0  0  0  2  0  0  0  0  0  0
  179.3120  176.7100  141.6960 N   0  0  0  0  0  2  0  0  0  0  0  0
  178.9390  175.9160  140.5390 C   0  0  0  0  0  1  0  0  0  0  0  0
  191.2070  176.2950  147.4570 C   0  0  2  0  0  3  0  0  0  0  0  0
  191.8610  177.3180  148.1450 O   0  0  0  0  0  1  0  0  0  0  0  0
  192.1290  175.7170  146.4030 C   0  0  0  0  0  1  0  0  0  0  0  0
  1 11  1  0  0  0  0
  2  3  1  0  0  0  0
  2  7  1  0  0  0  0
  4 15  1  0  0  0  0
  5  8  1  0  0  0  0
  5 14  1  0  0  0  0
  6 10  1  0  0  0  0
  6  5  2  0  0  0  0
  8  3  1  0  0  0  0
  9  1  2  0  0  0  0
 10 20  1  0  0  0  0
 12 19  1  0  0  0  0
 13 31  1  0  0  0  0
 13  7  2  0  0  0  0
 14  2  2  0  0  0  0
 15 11  2  0  0  0  0
 15  6  1  0  0  0  0
 16  4  1  0  0  0  0
 16 12  2  0  0  0  0
 17  9  1  0  0  0  0
 17  4  2  0  0  0  0
 18 14  1  0  0  0  0
 18 13  1  0  0  0  0
 19 10  2  0  0  0  0
 20 22  1  0  0  0  0
 20  8  2  0  0  0  0
 21 22  2  0  0  0  0
 23 21  2  0  0  0  0
 24 23  1  0  0  0  0
 25 26  1  0  0  0  0
 26 28  1  6  0  0  0
 26 24  1  0  0  0  0
 27 25  1  0  0  0  0
 27 26  1  0  0  0  0
 28 29  1  0  0  0  0
 30 29  1  0  0  0  0
 31 33  1  6  0  0  0
 31 32  1  0  0  0  0
M  END
>  <MODEL>
2

>  <REMARK>
 VINA RESULT:     -10.2      3.014      5.148
  Name = 
  6 active torsions:
  status: ('A' for Active; 'I' for Inactive)
    1  A    between atoms: N_3  and  C_30
    2  A    between atoms: C_5  and  C_23
    3  A    between atoms: C_9  and  C_17
    4  A    between atoms: C_9  and  C_33
    5  A    between atoms: C_13  and  C_32
    6  A    between atoms: C_17  and  C_30
                            x       y       z     vdW  Elec       q    Type
                         _______ _______ _______ _____ _____    ______ ____

>  <TORSDO>
F 6

$$$$
=
 OpenBabel11042409483D

 33 38  0  0  1  0  0  0  0  0999 V2000
  185.4230  178.1430  146.5140 C   0  0  0  0  0  3  0  0  0  0  0  0
  190.5720  177.0300  144.1400 C   0  0  0  0  0  0  0  0  0  0  0  0
  190.7640  177.1820  142.4650 S   0  0  0  0  0  0  0  0  0  0  0  0
  184.7720  178.7530  143.8960 C   0  0  0  0  0  0  0  0  0  0  0  0
  188.4620  177.7230  143.4740 C   0  0  0  0  0  0  0  0  0  0  0  0
  187.1390  178.1430  143.2400 C   0  0  0  0  0  0  0  0  0  0  0  0
  191.4640  176.6670  145.1450 C   0  0  0  0  0  3  0  0  0  0  0  0
  189.1480  177.6710  142.2970 C   0  0  0  0  0  0  0  0  0  0  0  0
  184.1880  178.5720  146.1820 N   0  0  0  0  0  0  0  0  0  0  0  0
  187.1100  178.3520  141.7660 C   0  0  0  0  0  0  0  0  0  0  0  0
  186.3790  178.0100  145.5190 C   0  0  0  0  0  3  0  0  0  0  0  0
  184.7900  179.1250  141.3820 C   0  0  0  0  0  3  0  0  0  0  0  0
  190.8210  176.7130  146.3860 C   0  0  0  0  0  0  0  0  0  0  0  0
  189.2960  177.3520  144.5380 C   0  0  0  0  0  0  0  0  0  0  0  0
  186.0980  178.3090  144.1830 C   0  0  0  0  0  0  0  0  0  0  0  0
  184.2480  179.1030  142.6550 C   0  0  0  0  0  3  0  0  0  0  0  0
  183.8820  178.8640  144.9210 N   0  0  0  0  0  0  0  0  0  0  0  0
  189.2000  177.2070  146.2070 S   0  0  0  0  0  0  0  0  0  0  0  0
  186.0620  178.7900  140.9790 C   0  0  0  0  0  3  0  0  0  0  0  0
  188.3720  178.0420  141.2380 C   0  0  0  0  0  0  0  0  0  0  0  0
  188.1660  177.6300  138.8320 C   0  0  0  0  0  0  0  0  0  0  0  0
  188.8520  178.0900  139.8420 C   0  0  0  0  0  3  0  0  0  0  0  0
  187.4730  177.1660  137.8310 C   0  0  0  0  0  3  0  0  0  0  0  0
  187.5970  175.7330  137.4440 C   0  0  0  0  0  2  0  0  0  0  0  0
  188.2040  176.5440  135.2560 O   0  0  0  0  0  0  0  0  0  0  0  0
  188.5080  175.5870  136.2380 C   0  0  2  0  0  0  0  0  0  0  0  0
  187.9110  175.1970  134.9450 C   0  0  0  0  0  2  0  0  0  0  0  0
  190.0110  175.4410  136.4130 C   0  0  0  0  0  2  0  0  0  0  0  0
  190.3140  174.9090  137.7320 N   0  0  0  0  0  2  0  0  0  0  0  0
  191.3540  175.7510  138.2940 C   0  0  0  0  0  1  0  0  0  0  0  0
  191.4920  176.4180  147.6850 C   0  0  2  0  0  3  0  0  0  0  0  0
  191.9600  177.5990  148.2620 O   0  0  0  0  0  1  0  0  0  0  0  0
  192.6470  175.4590  147.4740 C   0  0  0  0  0  1  0  0  0  0  0  0
  2 14  2  0  0  0  0
  2  7  1  0  0  0  0
  3  2  1  0  0  0  0
  4 15  1  0  0  0  0
  4 17  1  0  0  0  0
  5 14  1  0  0  0  0
  6  5  1  0  0  0  0
  6 15  2  0  0  0  0
  7 13  2  0  0  0  0
  8  3  1  0  0  0  0
  8  5  2  0  0  0  0
  9  1  1  0  0  0  0
 10  6  1  0  0  0  0
 11  1  2  0  0  0  0
 12 16  1  0  0  0  0
 13 31  1  0  0  0  0
 14 18  1  0  0  0  0
 15 11  1  0  0  0  0
 16  4  2  0  0  0  0
 17  9  2  0  0  0  0
 18 13  1  0  0  0  0
 19 12  2  0  0  0  0
 19 10  1  0  0  0  0
 20 10  2  0  0  0  0
 20  8  1  0  0  0  0
 21 22  2  0  0  0  0
 22 20  1  0  0  0  0
 23 21  2  0  0  0  0
 24 23  1  0  0  0  0
 25 26  1  0  0  0  0
 26 28  1  1  0  0  0
 26 24  1  0  0  0  0
 27 25  1  0  0  0  0
 27 26  1  0  0  0  0
 28 29  1  0  0  0  0
 29 30  1  0  0  0  0
 31 33  1  6  0  0  0
 31 32  1  0  0  0  0
M  END
>  <MODEL>
3

>  <REMARK>
 VINA RESULT:      -9.9      3.810      7.862
  Name = 
  6 active torsions:
  status: ('A' for Active; 'I' for Inactive)
    1  A    between atoms: N_3  and  C_30
    2  A    between atoms: C_5  and  C_23
    3  A    between atoms: C_9  and  C_17
    4  A    between atoms: C_9  and  C_33
    5  A    between atoms: C_13  and  C_32
    6  A    between atoms: C_17  and  C_30
                            x       y       z     vdW  Elec       q    Type
                         _______ _______ _______ _____ _____    ______ ____

>  <TORSDO>
F 6

$$$$
=
 OpenBabel11042409483D

 33 38  0  0  1  0  0  0  0  0999 V2000
  185.5820  178.1180  146.5720 C   0  0  0  0  0  3  0  0  0  0  0  0
  190.7170  176.9140  144.2130 C   0  0  0  0  0  0  0  0  0  0  0  0
  190.9130  177.0490  142.5380 S   0  0  0  0  0  0  0  0  0  0  0  0
  184.9420  178.7130  143.9470 C   0  0  0  0  0  0  0  0  0  0  0  0
  188.6180  177.6300  143.5390 C   0  0  0  0  0  0  0  0  0  0  0  0
  187.3010  178.0660  143.2990 C   0  0  0  0  0  0  0  0  0  0  0  0
  191.6040  176.5490  145.2230 C   0  0  0  0  0  3  0  0  0  0  0  0
  189.3040  177.5580  142.3630 C   0  0  0  0  0  0  0  0  0  0  0  0
  184.3530  178.5610  146.2340 N   0  0  0  0  0  0  0  0  0  0  0  0
  187.2760  178.2620  141.8230 C   0  0  0  0  0  0  0  0  0  0  0  0
  186.5370  177.9630  145.5790 C   0  0  0  0  0  3  0  0  0  0  0  0
  184.9670  179.0630  141.4300 C   0  0  0  0  0  3  0  0  0  0  0  0
  190.9600  176.6150  146.4620 C   0  0  0  0  0  0  0  0  0  0  0  0
  189.4450  177.2570  144.6070 C   0  0  0  0  0  0  0  0  0  0  0  0
  186.2610  178.2540  144.2400 C   0  0  0  0  0  0  0  0  0  0  0  0
  184.4240  179.0590  142.7020 C   0  0  0  0  0  3  0  0  0  0  0  0
  184.0510  178.8460  144.9700 N   0  0  0  0  0  0  0  0  0  0  0  0
  189.3460  177.1280  146.2770 S   0  0  0  0  0  0  0  0  0  0  0  0
  186.2350  178.7070  141.0320 C   0  0  0  0  0  3  0  0  0  0  0  0
  188.5340  177.9310  141.2990 C   0  0  0  0  0  0  0  0  0  0  0  0
  188.3100  177.5340  138.8930 C   0  0  0  0  0  0  0  0  0  0  0  0
  189.0170  177.9600  139.9040 C   0  0  0  0  0  3  0  0  0  0  0  0
  187.5970  177.1050  137.8910 C   0  0  0  0  0  3  0  0  0  0  0  0
  187.6540  175.6690  137.5000 C   0  0  0  0  0  2  0  0  0  0  0  0
  185.8370  174.0850  137.4320 O   0  0  0  0  0  0  0  0  0  0  0  0
  186.3530  175.2480  136.8380 C   0  0  2  0  0  0  0  0  0  0  0  0
  186.3160  173.9660  136.1080 C   0  0  0  0  0  2  0  0  0  0  0  0
  185.2530  176.2630  136.5740 C   0  0  0  0  0  2  0  0  0  0  0  0
  184.1680  176.0860  137.5250 N   0  0  0  0  0  2  0  0  0  0  0  0
  183.9570  177.3730  138.1630 C   0  0  0  0  0  1  0  0  0  0  0  0
  191.6250  176.3220  147.7650 C   0  0  2  0  0  3  0  0  0  0  0  0
  192.0380  177.5090  148.3700 O   0  0  0  0  0  1  0  0  0  0  0  0
  192.8200  175.4140  147.5520 C   0  0  0  0  0  1  0  0  0  0  0  0
  2 14  2  0  0  0  0
  2  7  1  0  0  0  0
  3  2  1  0  0  0  0
  4 15  1  0  0  0  0
  4 17  1  0  0  0  0
  5 14  1  0  0  0  0
  6  5  1  0  0  0  0
  6 15  2  0  0  0  0
  7 13  2  0  0  0  0
  8  3  1  0  0  0  0
  8  5  2  0  0  0  0
  9  1  1  0  0  0  0
 10  6  1  0  0  0  0
 11  1  2  0  0  0  0
 12 16  1  0  0  0  0
 13 31  1  0  0  0  0
 14 18  1  0  0  0  0
 15 11  1  0  0  0  0
 16  4  2  0  0  0  0
 17  9  2  0  0  0  0
 18 13  1  0  0  0  0
 19 12  2  0  0  0  0
 19 10  1  0  0  0  0
 20 10  2  0  0  0  0
 20  8  1  0  0  0  0
 21 22  2  0  0  0  0
 22 20  1  0  0  0  0
 23 21  2  0  0  0  0
 24 23  1  0  0  0  0
 26 28  1  6  0  0  0
 26 25  1  0  0  0  0
 26 24  1  0  0  0  0
 27 26  1  0  0  0  0
 27 25  1  0  0  0  0
 28 29  1  0  0  0  0
 29 30  1  0  0  0  0
 31 33  1  6  0  0  0
 31 32  1  0  0  0  0
M  END
>  <MODEL>
4

>  <REMARK>
 VINA RESULT:      -9.5      3.699      6.953
  Name = 
  6 active torsions:
  status: ('A' for Active; 'I' for Inactive)
    1  A    between atoms: N_3  and  C_30
    2  A    between atoms: C_5  and  C_23
    3  A    between atoms: C_9  and  C_17
    4  A    between atoms: C_9  and  C_33
    5  A    between atoms: C_13  and  C_32
    6  A    between atoms: C_17  and  C_30
                            x       y       z     vdW  Elec       q    Type
                         _______ _______ _______ _____ _____    ______ ____

>  <TORSDO>
F 6

$$$$
=
 OpenBabel11042409483D

 33 38  0  0  1  0  0  0  0  0999 V2000
  191.4890  176.5130  145.4930 C   0  0  0  0  0  3  0  0  0  0  0  0
  188.4450  177.7580  140.7420 C   0  0  0  0  0  0  0  0  0  0  0  0
  186.8330  178.2490  140.8950 S   0  0  0  0  0  0  0  0  0  0  0  0
  189.1390  177.2770  146.7380 C   0  0  0  0  0  0  0  0  0  0  0  0
  188.1520  177.7410  143.0420 C   0  0  0  0  0  0  0  0  0  0  0  0
  188.1420  177.6870  144.4480 C   0  0  0  0  0  0  0  0  0  0  0  0
  189.2570  177.5800  139.6250 C   0  0  0  0  0  3  0  0  0  0  0  0
  186.9310  178.1400  142.5850 C   0  0  0  0  0  0  0  0  0  0  0  0
  191.3780  176.5150  146.8370 N   0  0  0  0  0  0  0  0  0  0  0  0
  186.7580  178.1150  144.7910 C   0  0  0  0  0  0  0  0  0  0  0  0
  190.4010  176.9050  144.7280 C   0  0  0  0  0  3  0  0  0  0  0  0
  186.7770  178.0480  147.2660 C   0  0  0  0  0  3  0  0  0  0  0  0
  190.5340  177.1800  140.0300 C   0  0  0  0  0  0  0  0  0  0  0  0
  189.0240  177.5240  141.9670 C   0  0  0  0  0  0  0  0  0  0  0  0
  189.1950  177.3020  145.3120 C   0  0  0  0  0  0  0  0  0  0  0  0
  188.0600  177.6170  147.5480 C   0  0  0  0  0  3  0  0  0  0  0  0
  190.2450  176.8840  147.4300 N   0  0  0  0  0  0  0  0  0  0  0  0
  190.6240  177.0750  141.7280 S   0  0  0  0  0  0  0  0  0  0  0  0
  186.1900  178.2700  146.0410 C   0  0  0  0  0  3  0  0  0  0  0  0
  186.0560  178.3780  143.6060 C   0  0  0  0  0  0  0  0  0  0  0  0
  183.9370  178.4830  142.3830 C   0  0  0  0  0  0  0  0  0  0  0  0
  184.6650  178.8310  143.4090 C   0  0  0  0  0  3  0  0  0  0  0  0
  183.2190  178.1320  141.3550 C   0  0  0  0  0  3  0  0  0  0  0  0
  183.2760  178.9340  140.1010 C   0  0  0  0  0  2  0  0  0  0  0  0
  182.1340  178.0830  138.1550 O   0  0  0  0  0  0  0  0  0  0  0  0
  181.9670  178.8200  139.3390 C   0  0  2  0  0  0  0  0  0  0  0  0
  181.8630  179.4630  138.0140 C   0  0  0  0  0  2  0  0  0  0  0  0
  180.6850  178.4250  140.0530 C   0  0  0  0  0  2  0  0  0  0  0  0
  180.3210  177.0590  139.7140 N   0  0  0  0  0  2  0  0  0  0  0  0
  179.5990  176.5240  140.8540 C   0  0  0  0  0  1  0  0  0  0  0  0
  191.6680  176.9330  139.0930 C   0  0  2  0  0  3  0  0  0  0  0  0
  191.6070  175.6300  138.5990 O   0  0  0  0  0  1  0  0  0  0  0  0
  192.9910  177.1510  139.7990 C   0  0  0  0  0  1  0  0  0  0  0  0
  1  9  1  0  0  0  0
  2  3  1  0  0  0  0
  2 14  2  0  0  0  0
  3  8  1  0  0  0  0
  4 17  1  0  0  0  0
  4 16  1  0  0  0  0
  5  6  2  0  0  0  0
  6 10  1  0  0  0  0
  6 15  1  0  0  0  0
  7 13  2  0  0  0  0
  7  2  1  0  0  0  0
  8  5  1  0  0  0  0
  8 20  2  0  0  0  0
  9 17  2  0  0  0  0
 10 19  2  0  0  0  0
 11 15  1  0  0  0  0
 11  1  2  0  0  0  0
 12 16  2  0  0  0  0
 13 18  1  0  0  0  0
 14  5  1  0  0  0  0
 15  4  2  0  0  0  0
 18 14  1  0  0  0  0
 19 12  1  0  0  0  0
 20 10  1  0  0  0  0
 21 22  2  0  0  0  0
 22 20  1  0  0  0  0
 23 21  2  0  0  0  0
 24 23  1  0  0  0  0
 25 26  1  0  0  0  0
 26 28  1  1  0  0  0
 26 24  1  0  0  0  0
 27 25  1  0  0  0  0
 27 26  1  0  0  0  0
 29 28  1  0  0  0  0
 29 30  1  0  0  0  0
 31 33  1  1  0  0  0
 31 13  1  0  0  0  0
 32 31  1  0  0  0  0
M  END
>  <MODEL>
5

>  <REMARK>
 VINA RESULT:      -9.3      2.166      2.539
  Name = 
  6 active torsions:
  status: ('A' for Active; 'I' for Inactive)
    1  A    between atoms: N_3  and  C_30
    2  A    between atoms: C_5  and  C_23
    3  A    between atoms: C_9  and  C_17
    4  A    between atoms: C_9  and  C_33
    5  A    between atoms: C_13  and  C_32
    6  A    between atoms: C_17  and  C_30
                            x       y       z     vdW  Elec       q    Type
                         _______ _______ _______ _____ _____    ______ ____

>  <TORSDO>
F 6

$$$$
=
 OpenBabel11042409483D

 33 38  0  0  1  0  0  0  0  0999 V2000
  186.7480  177.8370  147.2930 C   0  0  0  0  0  3  0  0  0  0  0  0
  186.7560  178.4260  141.5460 C   0  0  0  0  0  0  0  0  0  0  0  0
  188.1990  178.2000  140.6900 S   0  0  0  0  0  0  0  0  0  0  0  0
  189.4020  177.1940  146.8500 C   0  0  0  0  0  0  0  0  0  0  0  0
  188.2430  177.8920  143.2420 C   0  0  0  0  0  0  0  0  0  0  0  0
  189.0090  177.5770  144.3800 C   0  0  0  0  0  0  0  0  0  0  0  0
  185.4690  178.7460  141.1220 C   0  0  0  0  0  3  0  0  0  0  0  0
  189.0270  177.8450  142.1280 C   0  0  0  0  0  0  0  0  0  0  0  0
  187.5660  177.5020  148.3120 N   0  0  0  0  0  0  0  0  0  0  0  0
  190.3620  177.3210  143.8130 C   0  0  0  0  0  0  0  0  0  0  0  0
  187.2530  177.8530  146.0030 C   0  0  0  0  0  3  0  0  0  0  0  0
  191.6810  176.7340  145.8250 C   0  0  0  0  0  3  0  0  0  0  0  0
  184.6090  178.7980  142.2240 C   0  0  0  0  0  0  0  0  0  0  0  0
  186.9270  178.2280  142.8950 C   0  0  0  0  0  0  0  0  0  0  0  0
  188.5860  177.5330  145.7300 C   0  0  0  0  0  0  0  0  0  0  0  0
  190.7500  176.8460  146.8410 C   0  0  0  0  0  3  0  0  0  0  0  0
  188.8420  177.1940  148.0930 N   0  0  0  0  0  0  0  0  0  0  0  0
  185.4490  178.4380  143.6620 S   0  0  0  0  0  0  0  0  0  0  0  0
  191.5160  176.9470  144.4750 C   0  0  0  0  0  3  0  0  0  0  0  0
  190.3150  177.5040  142.4240 C   0  0  0  0  0  0  0  0  0  0  0  0
  191.1480  177.1880  140.1420 C   0  0  0  0  0  0  0  0  0  0  0  0
  191.3830  177.3670  141.4130 C   0  0  0  0  0  3  0  0  0  0  0  0
  190.9020  177.0070  138.8760 C   0  0  0  0  0  3  0  0  0  0  0  0
  190.7190  175.6280  138.3450 C   0  0  0  0  0  2  0  0  0  0  0  0
  189.0890  174.4050  137.0560 O   0  0  0  0  0  0  0  0  0  0  0  0
  189.7560  175.6360  137.1700 C   0  0  2  0  0  0  0  0  0  0  0  0
  190.0150  174.7250  136.0380 C   0  0  0  0  0  2  0  0  0  0  0  0
  188.7990  176.7980  136.9590 C   0  0  0  0  0  2  0  0  0  0  0  0
  187.5040  176.4960  137.5450 N   0  0  0  0  0  2  0  0  0  0  0  0
  186.6230  177.6000  137.2050 C   0  0  0  0  0  1  0  0  0  0  0  0
  183.1480  179.0800  142.1300 C   0  0  2  0  0  3  0  0  0  0  0  0
  182.5240  178.7910  143.3440 O   0  0  0  0  0  1  0  0  0  0  0  0
  182.5230  178.2530  141.0250 C   0  0  0  0  0  1  0  0  0  0  0  0
  1  9  1  0  0  0  0
  2 14  2  0  0  0  0
  3  2  1  0  0  0  0
  3  8  1  0  0  0  0
  4 17  1  0  0  0  0
  5  6  2  0  0  0  0
  6 15  1  0  0  0  0
  7  2  1  0  0  0  0
  7 13  2  0  0  0  0
  8 20  2  0  0  0  0
  8  5  1  0  0  0  0
 10  6  1  0  0  0  0
 10 19  2  0  0  0  0
 11  1  2  0  0  0  0
 12 16  2  0  0  0  0
 13 18  1  0  0  0  0
 14  5  1  0  0  0  0
 14 18  1  0  0  0  0
 15 11  1  0  0  0  0
 15  4  2  0  0  0  0
 16  4  1  0  0  0  0
 17  9  2  0  0  0  0
 19 12  1  0  0  0  0
 20 10  1  0  0  0  0
 21 22  2  0  0  0  0
 22 20  1  0  0  0  0
 23 21  2  0  0  0  0
 24 23  1  0  0  0  0
 25 26  1  0  0  0  0
 26 28  1  6  0  0  0
 26 24  1  0  0  0  0
 27 25  1  0  0  0  0
 27 26  1  0  0  0  0
 28 29  1  0  0  0  0
 30 29  1  0  0  0  0
 31 33  1  6  0  0  0
 31 13  1  0  0  0  0
 31 32  1  0  0  0  0
M  END
>  <MODEL>
6

>  <REMARK>
 VINA RESULT:      -9.1      2.779      6.851
  Name = 
  6 active torsions:
  status: ('A' for Active; 'I' for Inactive)
    1  A    between atoms: N_3  and  C_30
    2  A    between atoms: C_5  and  C_23
    3  A    between atoms: C_9  and  C_17
    4  A    between atoms: C_9  and  C_33
    5  A    between atoms: C_13  and  C_32
    6  A    between atoms: C_17  and  C_30
                            x       y       z     vdW  Elec       q    Type
                         _______ _______ _______ _____ _____    ______ ____

>  <TORSDO>
F 6

$$$$
=
 OpenBabel11042409483D

 33 38  0  0  1  0  0  0  0  0999 V2000
  187.1430  178.1630  147.9280 C   0  0  0  0  0  3  0  0  0  0  0  0
  186.1700  178.2680  142.2340 C   0  0  0  0  0  0  0  0  0  0  0  0
  187.4260  177.8740  141.1700 S   0  0  0  0  0  0  0  0  0  0  0  0
  189.6410  177.3080  147.1020 C   0  0  0  0  0  0  0  0  0  0  0  0
  187.9030  177.7780  143.6940 C   0  0  0  0  0  0  0  0  0  0  0  0
  188.8400  177.5090  144.7100 C   0  0  0  0  0  0  0  0  0  0  0  0
  184.8470  178.6370  142.0080 C   0  0  0  0  0  3  0  0  0  0  0  0
  188.4750  177.5850  142.4720 C   0  0  0  0  0  0  0  0  0  0  0  0
  188.1100  177.8610  148.8200 N   0  0  0  0  0  0  0  0  0  0  0  0
  190.0570  177.1160  143.9470 C   0  0  0  0  0  0  0  0  0  0  0  0
  187.4140  178.0380  146.5750 C   0  0  0  0  0  3  0  0  0  0  0  0
  191.6770  176.6120  145.7500 C   0  0  0  0  0  3  0  0  0  0  0  0
  184.1990  178.8390  143.2300 C   0  0  0  0  0  0  0  0  0  0  0  0
  186.5660  178.1720  143.5470 C   0  0  0  0  0  0  0  0  0  0  0  0
  188.6590  177.6070  146.1100 C   0  0  0  0  0  0  0  0  0  0  0  0
  190.9460  176.8710  146.8950 C   0  0  0  0  0  3  0  0  0  0  0  0
  189.3090  177.4500  148.4160 N   0  0  0  0  0  0  0  0  0  0  0  0
  185.2590  178.5450  144.5320 S   0  0  0  0  0  0  0  0  0  0  0  0
  191.2880  176.7210  144.4340 C   0  0  0  0  0  3  0  0  0  0  0  0
  189.7760  177.1850  142.5750 C   0  0  0  0  0  0  0  0  0  0  0  0
  190.3800  177.3050  140.2050 C   0  0  0  0  0  0  0  0  0  0  0  0
  190.6410  176.8920  141.4150 C   0  0  0  0  0  3  0  0  0  0  0  0
  190.1100  177.7220  139.0000 C   0  0  0  0  0  3  0  0  0  0  0  0
  189.2470  176.8990  138.1070 C   0  0  0  0  0  2  0  0  0  0  0  0
  188.2910  179.0560  137.6090 O   0  0  0  0  0  0  0  0  0  0  0  0
  188.5530  177.7810  137.0830 C   0  0  2  0  0  0  0  0  0  0  0  0
  187.1730  178.2290  137.3570 C   0  0  0  0  0  2  0  0  0  0  0  0
  189.0730  177.8730  135.6580 C   0  0  0  0  0  2  0  0  0  0  0  0
  189.4090  176.5490  135.1590 N   0  0  0  0  0  2  0  0  0  0  0  0
  188.1790  175.9700  134.6490 C   0  0  0  0  0  1  0  0  0  0  0  0
  182.7600  179.2100  143.3610 C   0  0  2  0  0  3  0  0  0  0  0  0
  182.2170  178.6300  144.5080 O   0  0  0  0  0  1  0  0  0  0  0  0
  181.9860  178.7510  142.1410 C   0  0  0  0  0  1  0  0  0  0  0  0
  1  9  1  0  0  0  0
  2 14  2  0  0  0  0
  3  2  1  0  0  0  0
  3  8  1  0  0  0  0
  4 17  1  0  0  0  0
  5  6  2  0  0  0  0
  6 15  1  0  0  0  0
  7  2  1  0  0  0  0
  7 13  2  0  0  0  0
  8 20  2  0  0  0  0
  8  5  1  0  0  0  0
 10 19  2  0  0  0  0
 10  6  1  0  0  0  0
 11  1  2  0  0  0  0
 12 16  2  0  0  0  0
 13 31  1  0  0  0  0
 13 18  1  0  0  0  0
 14  5  1  0  0  0  0
 14 18  1  0  0  0  0
 15 11  1  0  0  0  0
 15  4  2  0  0  0  0
 16  4  1  0  0  0  0
 17  9  2  0  0  0  0
 19 12  1  0  0  0  0
 20 10  1  0  0  0  0
 21 22  2  0  0  0  0
 22 20  1  0  0  0  0
 23 21  2  0  0  0  0
 24 23  1  0  0  0  0
 26 28  1  6  0  0  0
 26 27  1  0  0  0  0
 26 25  1  0  0  0  0
 26 24  1  0  0  0  0
 27 25  1  0  0  0  0
 29 28  1  0  0  0  0
 30 29  1  0  0  0  0
 31 33  1  6  0  0  0
 31 32  1  0  0  0  0
M  END
>  <MODEL>
7

>  <REMARK>
 VINA RESULT:      -9.1      2.697      6.848
  Name = 
  6 active torsions:
  status: ('A' for Active; 'I' for Inactive)
    1  A    between atoms: N_3  and  C_30
    2  A    between atoms: C_5  and  C_23
    3  A    between atoms: C_9  and  C_17
    4  A    between atoms: C_9  and  C_33
    5  A    between atoms: C_13  and  C_32
    6  A    between atoms: C_17  and  C_30
                            x       y       z     vdW  Elec       q    Type
                         _______ _______ _______ _____ _____    ______ ____

>  <TORSDO>
F 6

$$$$
=
 OpenBabel11042409483D

 33 38  0  0  1  0  0  0  0  0999 V2000
  186.6720  177.7210  146.8570 C   0  0  0  0  0  3  0  0  0  0  0  0
  186.8440  178.4190  141.1240 C   0  0  0  0  0  0  0  0  0  0  0  0
  188.3190  178.2530  140.3120 S   0  0  0  0  0  0  0  0  0  0  0  0
  189.3570  177.1670  146.4880 C   0  0  0  0  0  0  0  0  0  0  0  0
  188.2920  177.8980  142.8570 C   0  0  0  0  0  0  0  0  0  0  0  0
  189.0310  177.5850  144.0140 C   0  0  0  0  0  0  0  0  0  0  0  0
  185.5610  178.7070  140.6650 C   0  0  0  0  0  3  0  0  0  0  0  0
  189.1120  177.8950  141.7680 C   0  0  0  0  0  0  0  0  0  0  0  0
  187.4680  177.3920  147.8960 N   0  0  0  0  0  0  0  0  0  0  0  0
  190.4090  177.3810  143.4860 C   0  0  0  0  0  0  0  0  0  0  0  0
  187.2170  177.7770  145.5840 C   0  0  0  0  0  3  0  0  0  0  0  0
  191.6800  176.7970  145.5280 C   0  0  0  0  0  3  0  0  0  0  0  0
  184.6660  178.7120  141.7390 C   0  0  0  0  0  0  0  0  0  0  0  0
  186.9780  178.2000  142.4750 C   0  0  0  0  0  0  0  0  0  0  0  0
  188.5670  177.5030  145.3480 C   0  0  0  0  0  0  0  0  0  0  0  0
  190.7150  176.8610  146.5160 C   0  0  0  0  0  3  0  0  0  0  0  0
  188.7590  177.1270  147.7120 N   0  0  0  0  0  0  0  0  0  0  0  0
  185.4710  178.3510  143.1970 S   0  0  0  0  0  0  0  0  0  0  0  0
  191.5510  177.0290  144.1780 C   0  0  0  0  0  3  0  0  0  0  0  0
  190.4000  177.5890  142.1000 C   0  0  0  0  0  0  0  0  0  0  0  0
  191.3350  177.1280  139.8830 C   0  0  0  0  0  0  0  0  0  0  0  0
  191.5030  177.5030  141.1220 C   0  0  0  0  0  3  0  0  0  0  0  0
  191.1570  176.7500  138.6500 C   0  0  0  0  0  3  0  0  0  0  0  0
  191.2160  175.3040  138.3000 C   0  0  0  0  0  2  0  0  0  0  0  0
  191.4280  175.2150  135.9000 O   0  0  0  0  0  0  0  0  0  0  0  0
  192.1320  175.0830  137.1080 C   0  0  2  0  0  0  0  0  0  0  0  0
  191.8840  173.9200  136.2340 C   0  0  0  0  0  2  0  0  0  0  0  0
  193.4850  175.7710  137.0320 C   0  0  0  0  0  2  0  0  0  0  0  0
  194.2140  175.5860  138.2760 N   0  0  0  0  0  2  0  0  0  0  0  0
  195.0500  174.4120  138.1000 C   0  0  0  0  0  1  0  0  0  0  0  0
  183.2000  178.9520  141.6030 C   0  0  2  0  0  3  0  0  0  0  0  0
  182.5810  178.8550  142.8500 O   0  0  0  0  0  1  0  0  0  0  0  0
  182.5890  177.9440  140.6500 C   0  0  0  0  0  1  0  0  0  0  0  0
  1  9  1  0  0  0  0
  2 14  2  0  0  0  0
  3  2  1  0  0  0  0
  3  8  1  0  0  0  0
  4 16  1  0  0  0  0
  4 17  1  0  0  0  0
  5  6  2  0  0  0  0
  6 15  1  0  0  0  0
  7  2  1  0  0  0  0
  7 13  2  0  0  0  0
  8 20  2  0  0  0  0
  8  5  1  0  0  0  0
 10  6  1  0  0  0  0
 10 19  2  0  0  0  0
 11  1  2  0  0  0  0
 12 16  2  0  0  0  0
 13 18  1  0  0  0  0
 14  5  1  0  0  0  0
 14 18  1  0  0  0  0
 15 11  1  0  0  0  0
 15  4  2  0  0  0  0
 17  9  2  0  0  0  0
 19 12  1  0  0  0  0
 20 10  1  0  0  0  0
 21 22  2  0  0  0  0
 22 20  1  0  0  0  0
 23 21  2  0  0  0  0
 24 23  1  0  0  0  0
 25 27  1  0  0  0  0
 25 26  1  0  0  0  0
 26 28  1  1  0  0  0
 26 24  1  0  0  0  0
 27 26  1  0  0  0  0
 28 29  1  0  0  0  0
 30 29  1  0  0  0  0
 31 33  1  6  0  0  0
 31 13  1  0  0  0  0
 31 32  1  0  0  0  0
M  END
>  <MODEL>
8

>  <REMARK>
 VINA RESULT:      -9.0      2.942      8.206
  Name = 
  6 active torsions:
  status: ('A' for Active; 'I' for Inactive)
    1  A    between atoms: N_3  and  C_30
    2  A    between atoms: C_5  and  C_23
    3  A    between atoms: C_9  and  C_17
    4  A    between atoms: C_9  and  C_33
    5  A    between atoms: C_13  and  C_32
    6  A    between atoms: C_17  and  C_30
                            x       y       z     vdW  Elec       q    Type
                         _______ _______ _______ _____ _____    ______ ____

>  <TORSDO>
F 6

$$$$
=
 OpenBabel11042409483D

 33 38  0  0  1  0  0  0  0  0999 V2000
  186.3370  178.4340  139.4460 C   0  0  0  0  0  3  0  0  0  0  0  0
  183.2920  178.6350  144.3520 C   0  0  0  0  0  0  0  0  0  0  0  0
  184.0850  178.4160  145.8310 S   0  0  0  0  0  0  0  0  0  0  0  0
  188.4400  178.0920  141.2110 C   0  0  0  0  0  0  0  0  0  0  0  0
  185.4920  178.3510  143.6810 C   0  0  0  0  0  0  0  0  0  0  0  0
  186.7710  178.2070  143.1100 C   0  0  0  0  0  0  0  0  0  0  0  0
  181.9550  178.8760  144.0450 C   0  0  0  0  0  3  0  0  0  0  0  0
  185.5750  178.2470  145.0380 C   0  0  0  0  0  0  0  0  0  0  0  0
  187.6050  178.3030  139.0060 N   0  0  0  0  0  0  0  0  0  0  0  0
  187.6480  178.0120  144.2980 C   0  0  0  0  0  0  0  0  0  0  0  0
  186.0910  178.3970  140.8100 C   0  0  0  0  0  3  0  0  0  0  0  0
  189.8920  177.7980  143.2750 C   0  0  0  0  0  3  0  0  0  0  0  0
  181.8050  179.0060  142.6610 C   0  0  0  0  0  0  0  0  0  0  0  0
  184.1650  178.5780  143.2920 C   0  0  0  0  0  0  0  0  0  0  0  0
  187.1210  178.2300  141.7400 C   0  0  0  0  0  0  0  0  0  0  0  0
  189.6220  177.9100  141.9230 C   0  0  0  0  0  3  0  0  0  0  0  0
  188.6130  178.1400  139.8600 N   0  0  0  0  0  0  0  0  0  0  0  0
  183.3070  178.8370  141.8730 S   0  0  0  0  0  0  0  0  0  0  0  0
  189.0180  177.8400  144.3370 C   0  0  0  0  0  3  0  0  0  0  0  0
  186.8580  178.0410  145.4560 C   0  0  0  0  0  0  0  0  0  0  0  0
  188.4790  177.7040  147.2610 C   0  0  0  0  0  0  0  0  0  0  0  0
  187.2480  177.9000  146.8730 C   0  0  0  0  0  3  0  0  0  0  0  0
  189.7110  177.5070  147.6360 C   0  0  0  0  0  3  0  0  0  0  0  0
  190.2470  176.1200  147.7250 C   0  0  0  0  0  2  0  0  0  0  0  0
  191.9960  177.0940  146.3810 O   0  0  0  0  0  0  0  0  0  0  0  0
  191.7110  176.0920  147.3220 C   0  0  2  0  0  0  0  0  0  0  0  0
  192.0530  175.7580  145.9250 C   0  0  0  0  0  2  0  0  0  0  0  0
  192.8040  176.0030  148.3740 C   0  0  0  0  0  2  0  0  0  0  0  0
  192.8060  177.2000  149.1990 N   0  0  0  0  0  2  0  0  0  0  0  0
  193.8220  177.0040  150.2180 C   0  0  0  0  0  1  0  0  0  0  0  0
  180.5090  179.3030  141.9860 C   0  0  2  0  0  3  0  0  0  0  0  0
  180.7370  179.9830  140.7890 O   0  0  0  0  0  1  0  0  0  0  0  0
  179.6270  180.1420  142.8890 C   0  0  0  0  0  1  0  0  0  0  0  0
  1 11  1  0  0  0  0
  2  3  1  0  0  0  0
  4 15  1  0  0  0  0
  4 16  1  0  0  0  0
  5  8  1  0  0  0  0
  6  5  2  0  0  0  0
  6 10  1  0  0  0  0
  7  2  1  0  0  0  0
  8 20  2  0  0  0  0
  8  3  1  0  0  0  0
  9  1  2  0  0  0  0
  9 17  1  0  0  0  0
 10 19  2  0  0  0  0
 10 20  1  0  0  0  0
 11 15  2  0  0  0  0
 12 19  1  0  0  0  0
 13  7  2  0  0  0  0
 14  5  1  0  0  0  0
 14  2  2  0  0  0  0
 15  6  1  0  0  0  0
 16 12  2  0  0  0  0
 17  4  2  0  0  0  0
 18 13  1  0  0  0  0
 18 14  1  0  0  0  0
 20 22  1  0  0  0  0
 21 23  2  0  0  0  0
 22 21  2  0  0  0  0
 23 24  1  0  0  0  0
 25 26  1  0  0  0  0
 26 24  1  1  0  0  0
 26 28  1  0  0  0  0
 27 25  1  0  0  0  0
 27 26  1  0  0  0  0
 28 29  1  0  0  0  0
 29 30  1  0  0  0  0
 31 13  1  0  0  0  0
 31 33  1  1  0  0  0
 32 31  1  0  0  0  0
M  END
>  <MODEL>
9

>  <REMARK>
 VINA RESULT:      -8.9      2.982      8.495
  Name = 
  6 active torsions:
  status: ('A' for Active; 'I' for Inactive)
    1  A    between atoms: N_3  and  C_30
    2  A    between atoms: C_5  and  C_23
    3  A    between atoms: C_9  and  C_17
    4  A    between atoms: C_9  and  C_33
    5  A    between atoms: C_13  and  C_32
    6  A    between atoms: C_17  and  C_30
                            x       y       z     vdW  Elec       q    Type
                         _______ _______ _______ _____ _____    ______ ____

>  <TORSDO>
F 6

$$$$
