=
 OpenBabel11032419323D

 31 34  0  0  1  0  0  0  0  0999 V2000
  183.3920  179.1760  145.0880 N   0  0  0  0  0  0  0  0  0  0  0  0
  186.1680  178.0510  144.3100 C   0  0  0  0  0  0  0  0  0  0  0  0
  187.4470  177.4870  144.3150 C   0  0  0  0  0  3  0  0  0  0  0  0
  187.7920  178.1140  142.0040 C   0  0  0  0  0  0  0  0  0  0  0  0
  184.4010  178.9840  145.8760 C   0  0  0  0  0  3  0  0  0  0  0  0
  186.4880  178.6270  141.9730 C   0  0  0  0  0  3  0  0  0  0  0  0
  185.6490  178.5560  143.0850 C   0  0  0  0  0  0  0  0  0  0  0  0
  183.2400  178.5460  143.7890 C   0  0  0  0  0  2  0  0  0  0  0  0
  188.2590  177.4750  143.1720 C   0  0  0  0  0  0  0  0  0  0  0  0
  185.6170  178.2260  145.5220 C   0  0  0  0  0  2  0  0  0  0  0  0
  184.3680  178.8650  142.8670 C   0  0  0  0  0  2  0  0  0  0  0  0
  188.6440  178.2480  140.8610 N   0  0  0  0  0  0  0  0  0  0  0  0
  188.1850  178.5340  139.7080 N   0  0  0  0  0  0  0  0  0  0  0  0
  190.1330  177.5850  138.6340 C   0  0  0  0  0  3  0  0  0  0  0  0
  189.4060  176.6630  136.5060 C   0  0  0  0  0  0  0  0  0  0  0  0
  188.2840  178.6740  137.2820 C   0  0  0  0  0  3  0  0  0  0  0  0
  189.0790  178.6670  138.5690 C   0  0  1  0  0  3  0  0  0  0  0  0
  189.5180  175.7660  135.6300 O   0  0  0  0  0  0  0  0  0  0  0  0
  190.2730  176.6530  137.6890 C   0  0  0  0  0  3  0  0  0  0  0  0
  188.4270  177.7410  136.3370 C   0  0  0  0  0  3  0  0  0  0  0  0
  189.5680  176.8720  143.2390 N   0  0  0  0  0  0  0  0  0  0  0  0
  189.7920  175.5070  142.7900 C   0  0  0  0  0  1  0  0  0  0  0  0
  190.6520  177.5160  143.9690 C   0  0  0  0  0  2  0  0  0  0  0  0
  191.7060  176.4910  144.3470 C   0  0  0  0  0  2  0  0  0  0  0  0
  191.7090  176.2920  145.8200 C   0  0  0  0  0  0  0  0  0  0  0  0
  192.4000  175.3660  146.3190 O   0  0  0  0  0  0  0  0  0  0  0  0
  190.9670  177.1530  146.6310 O   0  0  0  0  0  0  0  0  0  0  0  0
  189.8110  176.7290  147.3400 C   0  0  0  0  0  2  0  0  0  0  0  0
  188.9470  178.4990  148.8240 C   0  0  0  0  0  2  0  0  0  0  0  0
  188.8170  177.8720  147.4520 C   0  0  0  0  0  3  0  0  0  0  0  0
  187.8110  177.5450  148.5360 C   0  0  0  0  0  2  0  0  0  0  0  0
  1  5  2  0  0  0  0
  2  3  1  0  0  0  0
  2 10  1  0  0  0  0
  4  9  1  0  0  0  0
  6  4  2  0  0  0  0
  6  7  1  0  0  0  0
  7  2  2  0  0  0  0
  8  1  1  0  0  0  0
  9 21  1  0  0  0  0
  9  3  2  0  0  0  0
 10  5  1  0  0  0  0
 11  7  1  0  0  0  0
 11  8  1  0  0  0  0
 12  4  1  0  0  0  0
 13 12  2  0  0  0  0
 15 19  1  0  0  0  0
 16 17  1  0  0  0  0
 17 14  1  0  0  0  0
 17 13  1  1  0  0  0
 18 15  2  0  0  0  0
 19 14  2  0  0  0  0
 20 15  1  0  0  0  0
 20 16  2  0  0  0  0
 21 23  1  0  0  0  0
 22 21  1  0  0  0  0
 23 24  1  0  0  0  0
 24 25  1  0  0  0  0
 25 26  2  0  0  0  0
 25 27  1  0  0  0  0
 27 28  1  0  0  0  0
 28 30  1  0  0  0  0
 30 31  1  0  0  0  0
 30 29  1  0  0  0  0
 31 29  1  0  0  0  0
M  END
>  <MODEL>
1

>  <REMARK>
 VINA RESULT:      -8.6      0.000      0.000
  Name = 
  9 active torsions:
  status: ('A' for Active; 'I' for Inactive)
    1  A    between atoms: C_1  and  C_7
    2  A    between atoms: C_1  and  N_9
    3  A    between atoms: C_7  and  C_11
    4  A    between atoms: N_8  and  C_12
    5  A    between atoms: N_9  and  C_23
    6  A    between atoms: C_11  and  O_30
    7  A    between atoms: C_15  and  N_17
    8  A    between atoms: C_16  and  C_24
    9  A    between atoms: C_24  and  O_30
                            x       y       z     vdW  Elec       q    Type
                         _______ _______ _______ _____ _____    ______ ____

>  <TORSDO>
F 9

$$$$
=
 OpenBabel11032419323D

 31 34  0  0  1  0  0  0  0  0999 V2000
  181.4480  179.2940  142.7250 N   0  0  0  0  0  0  0  0  0  0  0  0
  184.4020  178.4090  142.9860 C   0  0  0  0  0  0  0  0  0  0  0  0
  185.6430  177.9640  143.4490 C   0  0  0  0  0  3  0  0  0  0  0  0
  186.7020  178.5700  141.3600 C   0  0  0  0  0  0  0  0  0  0  0  0
  182.1410  179.2120  143.8150 C   0  0  0  0  0  3  0  0  0  0  0  0
  185.4500  178.9610  140.8660 C   0  0  0  0  0  3  0  0  0  0  0  0
  184.2910  178.8380  141.6330 C   0  0  0  0  0  0  0  0  0  0  0  0
  181.7950  178.6240  141.4850 C   0  0  0  0  0  2  0  0  0  0  0  0
  186.7930  178.0020  142.6480 C   0  0  0  0  0  0  0  0  0  0  0  0
  183.4600  178.5600  143.9310 C   0  0  0  0  0  2  0  0  0  0  0  0
  183.1410  179.0250  140.9810 C   0  0  0  0  0  2  0  0  0  0  0  0
  187.8780  178.7560  140.5640 N   0  0  0  0  0  0  0  0  0  0  0  0
  188.1800  177.9660  139.6130 N   0  0  0  0  0  0  0  0  0  0  0  0
  190.5690  177.5990  139.5460 C   0  0  0  0  0  3  0  0  0  0  0  0
  191.0130  176.0730  137.7070 C   0  0  0  0  0  0  0  0  0  0  0  0
  189.1850  177.6480  137.4210 C   0  0  0  0  0  3  0  0  0  0  0  0
  189.3790  178.1860  138.8220 C   0  0  1  0  0  3  0  0  0  0  0  0
  191.6950  175.1240  137.2400 O   0  0  0  0  0  0  0  0  0  0  0  0
  191.3120  176.6140  139.0370 C   0  0  0  0  0  3  0  0  0  0  0  0
  189.9320  176.6630  136.9130 C   0  0  0  0  0  3  0  0  0  0  0  0
  188.0450  177.5220  143.1820 N   0  0  0  0  0  0  0  0  0  0  0  0
  188.3820  176.1070  143.1560 C   0  0  0  0  0  1  0  0  0  0  0  0
  188.9030  178.3930  143.9730 C   0  0  0  0  0  2  0  0  0  0  0  0
  189.6140  177.5890  145.0470 C   0  0  0  0  0  2  0  0  0  0  0  0
  188.8220  177.6210  146.3050 C   0  0  0  0  0  0  0  0  0  0  0  0
  187.6180  177.9860  146.2710 O   0  0  0  0  0  0  0  0  0  0  0  0
  189.4180  177.2180  147.5020 O   0  0  0  0  0  0  0  0  0  0  0  0
  190.8280  177.1480  147.6680 C   0  0  0  0  0  2  0  0  0  0  0  0
  192.7490  175.6490  148.0430 C   0  0  0  0  0  2  0  0  0  0  0  0
  191.2840  175.7000  147.6680 C   0  0  0  0  0  3  0  0  0  0  0  0
  192.3360  175.5150  146.5960 C   0  0  0  0  0  2  0  0  0  0  0  0
  1  5  2  0  0  0  0
  2  3  1  0  0  0  0
  2 10  1  0  0  0  0
  4  9  1  0  0  0  0
  5 10  1  0  0  0  0
  6  4  2  0  0  0  0
  6  7  1  0  0  0  0
  7  2  2  0  0  0  0
  8  1  1  0  0  0  0
  9 21  1  0  0  0  0
  9  3  2  0  0  0  0
 11  8  1  0  0  0  0
 11  7  1  0  0  0  0
 12  4  1  0  0  0  0
 13 12  2  0  0  0  0
 15 19  1  0  0  0  0
 16 17  1  0  0  0  0
 17 14  1  0  0  0  0
 17 13  1  1  0  0  0
 18 15  2  0  0  0  0
 19 14  2  0  0  0  0
 20 16  2  0  0  0  0
 20 15  1  0  0  0  0
 21 23  1  0  0  0  0
 22 21  1  0  0  0  0
 23 24  1  0  0  0  0
 24 25  1  0  0  0  0
 25 27  1  0  0  0  0
 26 25  2  0  0  0  0
 27 28  1  0  0  0  0
 28 30  1  0  0  0  0
 30 29  1  0  0  0  0
 31 30  1  0  0  0  0
 31 29  1  0  0  0  0
M  END
>  <MODEL>
2

>  <REMARK>
 VINA RESULT:      -7.4      1.702      2.566
  Name = 
  9 active torsions:
  status: ('A' for Active; 'I' for Inactive)
    1  A    between atoms: C_1  and  C_7
    2  A    between atoms: C_1  and  N_9
    3  A    between atoms: C_7  and  C_11
    4  A    between atoms: N_8  and  C_12
    5  A    between atoms: N_9  and  C_23
    6  A    between atoms: C_11  and  O_30
    7  A    between atoms: C_15  and  N_17
    8  A    between atoms: C_16  and  C_24
    9  A    between atoms: C_24  and  O_30
                            x       y       z     vdW  Elec       q    Type
                         _______ _______ _______ _____ _____    ______ ____

>  <TORSDO>
F 9

$$$$
=
 OpenBabel11032419323D

 31 34  0  0  1  0  0  0  0  0999 V2000
  185.5750  178.7030  147.4930 N   0  0  0  0  0  0  0  0  0  0  0  0
  186.9170  178.0900  144.7730 C   0  0  0  0  0  0  0  0  0  0  0  0
  187.8090  177.7460  143.7540 C   0  0  0  0  0  3  0  0  0  0  0  0
  186.2670  178.5320  142.0630 C   0  0  0  0  0  0  0  0  0  0  0  0
  186.8450  178.6430  147.2500 C   0  0  0  0  0  3  0  0  0  0  0  0
  185.3430  178.8230  143.0760 C   0  0  0  0  0  3  0  0  0  0  0  0
  185.6220  178.5600  144.4170 C   0  0  0  0  0  0  0  0  0  0  0  0
  184.5520  178.1190  146.6440 C   0  0  0  0  0  2  0  0  0  0  0  0
  187.4950  177.9240  142.3990 C   0  0  0  0  0  0  0  0  0  0  0  0
  187.4420  178.1140  146.0080 C   0  0  0  0  0  2  0  0  0  0  0  0
  184.5880  178.6640  145.2560 C   0  0  0  0  0  2  0  0  0  0  0  0
  185.9690  178.8590  140.7020 N   0  0  0  0  0  0  0  0  0  0  0  0
  184.7780  178.8470  140.2510 N   0  0  0  0  0  0  0  0  0  0  0  0
  185.2800  178.2530  137.9610 C   0  0  0  0  0  3  0  0  0  0  0  0
  183.2230  177.4240  136.9650 C   0  0  0  0  0  0  0  0  0  0  0  0
  183.0180  179.2010  138.6100 C   0  0  0  0  0  3  0  0  0  0  0  0
  184.5100  179.1900  138.8630 C   0  0  1  0  0  3  0  0  0  0  0  0
  182.6610  176.6260  136.1710 O   0  0  0  0  0  0  0  0  0  0  0  0
  184.6840  177.4280  137.0960 C   0  0  0  0  0  3  0  0  0  0  0  0
  182.4250  178.3760  137.7420 C   0  0  0  0  0  3  0  0  0  0  0  0
  188.4570  177.5430  141.3930 N   0  0  0  0  0  0  0  0  0  0  0  0
  188.3220  177.9900  140.0150 C   0  0  0  0  0  1  0  0  0  0  0  0
  189.4540  176.5160  141.6620 C   0  0  0  0  0  2  0  0  0  0  0  0
  190.8500  177.0940  141.5170 C   0  0  0  0  0  2  0  0  0  0  0  0
  191.3550  177.5270  142.8460 C   0  0  0  0  0  0  0  0  0  0  0  0
  191.2740  178.7390  143.1760 O   0  0  0  0  0  0  0  0  0  0  0  0
  191.8890  176.5780  143.7210 O   0  0  0  0  0  0  0  0  0  0  0  0
  191.1910  176.1230  144.8720 C   0  0  0  0  0  2  0  0  0  0  0  0
  191.9550  175.8710  147.2040 C   0  0  0  0  0  2  0  0  0  0  0  0
  191.6680  176.8710  146.1040 C   0  0  0  0  0  3  0  0  0  0  0  0
  190.6690  176.6660  147.2230 C   0  0  0  0  0  2  0  0  0  0  0  0
  2 10  1  0  0  0  0
  3  2  2  0  0  0  0
  4  9  2  0  0  0  0
  4  6  1  0  0  0  0
  5  1  2  0  0  0  0
  6  7  2  0  0  0  0
  7  2  1  0  0  0  0
  7 11  1  0  0  0  0
  8  1  1  0  0  0  0
  9  3  1  0  0  0  0
 10  5  1  0  0  0  0
 11  8  1  0  0  0  0
 12  4  1  0  0  0  0
 13 12  2  0  0  0  0
 14 17  1  0  0  0  0
 15 19  1  0  0  0  0
 15 20  1  0  0  0  0
 16 17  1  0  0  0  0
 17 13  1  1  0  0  0
 18 15  2  0  0  0  0
 19 14  2  0  0  0  0
 20 16  2  0  0  0  0
 21 23  1  0  0  0  0
 21  9  1  0  0  0  0
 22 21  1  0  0  0  0
 24 23  1  0  0  0  0
 24 25  1  0  0  0  0
 25 26  2  0  0  0  0
 25 27  1  0  0  0  0
 27 28  1  0  0  0  0
 28 30  1  0  0  0  0
 29 31  1  0  0  0  0
 30 29  1  0  0  0  0
 30 31  1  0  0  0  0
M  END
>  <MODEL>
3

>  <REMARK>
 VINA RESULT:      -7.2      2.807      3.722
  Name = 
  9 active torsions:
  status: ('A' for Active; 'I' for Inactive)
    1  A    between atoms: C_1  and  C_7
    2  A    between atoms: C_1  and  N_9
    3  A    between atoms: C_7  and  C_11
    4  A    between atoms: N_8  and  C_12
    5  A    between atoms: N_9  and  C_23
    6  A    between atoms: C_11  and  O_30
    7  A    between atoms: C_15  and  N_17
    8  A    between atoms: C_16  and  C_24
    9  A    between atoms: C_24  and  O_30
                            x       y       z     vdW  Elec       q    Type
                         _______ _______ _______ _____ _____    ______ ____

>  <TORSDO>
F 9

$$$$
=
 OpenBabel11032419323D

 31 34  0  0  1  0  0  0  0  0999 V2000
  189.1930  177.1330  145.2870 N   0  0  0  0  0  0  0  0  0  0  0  0
  188.8990  177.5620  142.2360 C   0  0  0  0  0  0  0  0  0  0  0  0
  188.4290  177.8430  140.9500 C   0  0  0  0  0  3  0  0  0  0  0  0
  190.4290  176.9130  139.9560 C   0  0  0  0  0  0  0  0  0  0  0  0
  188.0890  177.1930  144.6130 C   0  0  0  0  0  3  0  0  0  0  0  0
  190.9330  176.6840  141.2430 C   0  0  0  0  0  3  0  0  0  0  0  0
  190.2180  177.0490  142.3840 C   0  0  0  0  0  0  0  0  0  0  0  0
  190.4670  177.6380  144.8110 C   0  0  0  0  0  2  0  0  0  0  0  0
  189.1850  177.5620  139.8040 C   0  0  0  0  0  0  0  0  0  0  0  0
  187.9780  177.6370  143.2100 C   0  0  0  0  0  2  0  0  0  0  0  0
  190.8930  176.9920  143.5350 C   0  0  0  0  0  2  0  0  0  0  0  0
  191.1670  176.4820  138.8070 N   0  0  0  0  0  0  0  0  0  0  0  0
  191.0130  175.3240  138.3020 N   0  0  0  0  0  0  0  0  0  0  0  0
  192.4490  176.1350  136.5330 C   0  0  0  0  0  3  0  0  0  0  0  0
  194.6490  175.1660  136.8900 C   0  0  0  0  0  0  0  0  0  0  0  0
  192.7300  173.8030  137.4930 C   0  0  0  0  0  3  0  0  0  0  0  0
  191.7750  174.9210  137.1320 C   0  0  1  0  0  3  0  0  0  0  0  0
  195.9000  175.2900  136.8260 O   0  0  0  0  0  0  0  0  0  0  0  0
  193.7750  176.2520  136.4360 C   0  0  0  0  0  3  0  0  0  0  0  0
  194.0570  173.9230  137.3930 C   0  0  0  0  0  3  0  0  0  0  0  0
  188.6460  177.8810  138.5040 N   0  0  0  0  0  0  0  0  0  0  0  0
  189.0880  179.0600  137.7740 C   0  0  0  0  0  1  0  0  0  0  0  0
  187.4830  177.1770  137.9830 C   0  0  0  0  0  2  0  0  0  0  0  0
  186.4530  178.1730  137.4810 C   0  0  0  0  0  2  0  0  0  0  0  0
  185.3070  178.2310  138.4260 C   0  0  0  0  0  0  0  0  0  0  0  0
  184.2740  177.5520  138.1890 O   0  0  0  0  0  0  0  0  0  0  0  0
  185.4030  179.0160  139.5760 O   0  0  0  0  0  0  0  0  0  0  0  0
  184.3420  179.1310  140.5150 C   0  0  0  0  0  2  0  0  0  0  0  0
  183.6000  178.6270  142.8110 C   0  0  0  0  0  2  0  0  0  0  0  0
  184.6820  178.3710  141.7840 C   0  0  0  0  0  3  0  0  0  0  0  0
  184.9170  179.3620  142.9040 C   0  0  0  0  0  2  0  0  0  0  0  0
  2  7  1  0  0  0  0
  2 10  1  0  0  0  0
  3  2  2  0  0  0  0
  4  6  1  0  0  0  0
  5  1  2  0  0  0  0
  6  7  2  0  0  0  0
  7 11  1  0  0  0  0
  8  1  1  0  0  0  0
  9  4  2  0  0  0  0
  9  3  1  0  0  0  0
 10  5  1  0  0  0  0
 11  8  1  0  0  0  0
 12  4  1  0  0  0  0
 13 12  2  0  0  0  0
 14 17  1  0  0  0  0
 15 20  1  0  0  0  0
 17 16  1  0  0  0  0
 17 13  1  1  0  0  0
 18 15  2  0  0  0  0
 19 14  2  0  0  0  0
 19 15  1  0  0  0  0
 20 16  2  0  0  0  0
 21  9  1  0  0  0  0
 22 21  1  0  0  0  0
 23 21  1  0  0  0  0
 24 23  1  0  0  0  0
 24 25  1  0  0  0  0
 25 27  1  0  0  0  0
 26 25  2  0  0  0  0
 27 28  1  0  0  0  0
 28 30  1  0  0  0  0
 29 31  1  0  0  0  0
 30 29  1  0  0  0  0
 30 31  1  0  0  0  0
M  END
>  <MODEL>
4

>  <REMARK>
 VINA RESULT:      -7.2      3.520      6.370
  Name = 
  9 active torsions:
  status: ('A' for Active; 'I' for Inactive)
    1  A    between atoms: C_1  and  C_7
    2  A    between atoms: C_1  and  N_9
    3  A    between atoms: C_7  and  C_11
    4  A    between atoms: N_8  and  C_12
    5  A    between atoms: N_9  and  C_23
    6  A    between atoms: C_11  and  O_30
    7  A    between atoms: C_15  and  N_17
    8  A    between atoms: C_16  and  C_24
    9  A    between atoms: C_24  and  O_30
                            x       y       z     vdW  Elec       q    Type
                         _______ _______ _______ _____ _____    ______ ____

>  <TORSDO>
F 9

$$$$
=
 OpenBabel11032419323D

 31 34  0  0  1  0  0  0  0  0999 V2000
  188.8610  177.6560  148.2330 N   0  0  0  0  0  0  0  0  0  0  0  0
  188.9590  177.4630  145.1460 C   0  0  0  0  0  0  0  0  0  0  0  0
  189.3590  177.3540  143.8110 C   0  0  0  0  0  3  0  0  0  0  0  0
  187.1330  177.9090  143.0420 C   0  0  0  0  0  0  0  0  0  0  0  0
  189.8900  177.8590  147.4740 C   0  0  0  0  0  3  0  0  0  0  0  0
  186.7100  177.9590  144.3770 C   0  0  0  0  0  3  0  0  0  0  0  0
  187.5830  177.6860  145.4300 C   0  0  0  0  0  0  0  0  0  0  0  0
  187.6750  176.9280  147.8210 C   0  0  0  0  0  2  0  0  0  0  0  0
  188.4620  177.5370  142.7490 C   0  0  0  0  0  0  0  0  0  0  0  0
  189.9600  177.5240  146.0390 C   0  0  0  0  0  2  0  0  0  0  0  0
  187.0160  177.5410  146.6310 C   0  0  0  0  0  2  0  0  0  0  0  0
  186.2240  178.2420  141.9870 N   0  0  0  0  0  0  0  0  0  0  0  0
  184.9790  178.4030  142.1960 N   0  0  0  0  0  0  0  0  0  0  0  0
  184.8980  178.9980  139.8530 C   0  0  0  0  0  3  0  0  0  0  0  0
  183.7830  177.1800  138.6860 C   0  0  0  0  0  0  0  0  0  0  0  0
  183.0260  177.6760  140.9410 C   0  0  0  0  0  3  0  0  0  0  0  0
  184.0840  178.7460  141.1020 C   0  0  1  0  0  3  0  0  0  0  0  0
  183.6830  176.4710  137.6510 O   0  0  0  0  0  0  0  0  0  0  0  0
  184.7680  178.2660  138.7450 C   0  0  0  0  0  3  0  0  0  0  0  0
  182.8970  176.9460  139.8300 C   0  0  0  0  0  3  0  0  0  0  0  0
  188.9350  177.4060  141.3910 N   0  0  0  0  0  0  0  0  0  0  0  0
  190.0960  176.5900  141.0740 C   0  0  0  0  0  1  0  0  0  0  0  0
  188.4190  178.2650  140.3340 C   0  0  0  0  0  2  0  0  0  0  0  0
  188.3320  177.4910  139.0310 C   0  0  0  0  0  2  0  0  0  0  0  0
  188.9510  178.2810  137.9340 C   0  0  0  0  0  0  0  0  0  0  0  0
  189.0590  179.5290  138.0540 O   0  0  0  0  0  0  0  0  0  0  0  0
  189.4280  177.6240  136.7980 O   0  0  0  0  0  0  0  0  0  0  0  0
  190.1380  176.3950  136.8680 C   0  0  0  0  0  2  0  0  0  0  0  0
  192.5750  176.0240  136.8220 C   0  0  0  0  0  2  0  0  0  0  0  0
  191.4310  176.5800  137.6420 C   0  0  0  0  0  3  0  0  0  0  0  0
  192.0080  175.2190  137.9690 C   0  0  0  0  0  2  0  0  0  0  0  0
  2  7  1  0  0  0  0
  2 10  1  0  0  0  0
  3  2  2  0  0  0  0
  4  6  1  0  0  0  0
  5  1  2  0  0  0  0
  6  7  2  0  0  0  0
  7 11  1  0  0  0  0
  8  1  1  0  0  0  0
  9  4  2  0  0  0  0
  9  3  1  0  0  0  0
 10  5  1  0  0  0  0
 11  8  1  0  0  0  0
 12 13  2  0  0  0  0
 12  4  1  0  0  0  0
 14 17  1  0  0  0  0
 15 19  1  0  0  0  0
 15 20  1  0  0  0  0
 16 17  1  0  0  0  0
 17 13  1  1  0  0  0
 18 15  2  0  0  0  0
 19 14  2  0  0  0  0
 20 16  2  0  0  0  0
 21  9  1  0  0  0  0
 22 21  1  0  0  0  0
 23 21  1  0  0  0  0
 24 23  1  0  0  0  0
 25 26  2  0  0  0  0
 25 24  1  0  0  0  0
 27 28  1  0  0  0  0
 27 25  1  0  0  0  0
 28 30  1  0  0  0  0
 29 30  1  0  0  0  0
 29 31  1  0  0  0  0
 30 31  1  0  0  0  0
M  END
>  <MODEL>
5

>  <REMARK>
 VINA RESULT:      -6.9      2.939      6.522
  Name = 
  9 active torsions:
  status: ('A' for Active; 'I' for Inactive)
    1  A    between atoms: C_1  and  C_7
    2  A    between atoms: C_1  and  N_9
    3  A    between atoms: C_7  and  C_11
    4  A    between atoms: N_8  and  C_12
    5  A    between atoms: N_9  and  C_23
    6  A    between atoms: C_11  and  O_30
    7  A    between atoms: C_15  and  N_17
    8  A    between atoms: C_16  and  C_24
    9  A    between atoms: C_24  and  O_30
                            x       y       z     vdW  Elec       q    Type
                         _______ _______ _______ _____ _____    ______ ____

>  <TORSDO>
F 9

$$$$
=
 OpenBabel11032419323D

 31 34  0  0  1  0  0  0  0  0999 V2000
  181.3660  179.1490  142.9600 N   0  0  0  0  0  0  0  0  0  0  0  0
  184.3850  178.5950  142.5710 C   0  0  0  0  0  0  0  0  0  0  0  0
  185.7540  178.3770  142.7550 C   0  0  0  0  0  3  0  0  0  0  0  0
  186.1570  178.5450  140.3760 C   0  0  0  0  0  0  0  0  0  0  0  0
  182.3150  179.3890  143.8070 C   0  0  0  0  0  3  0  0  0  0  0  0
  184.7780  178.7030  140.1780 C   0  0  0  0  0  3  0  0  0  0  0  0
  183.8790  178.6750  141.2440 C   0  0  0  0  0  0  0  0  0  0  0  0
  181.4830  178.2310  141.8420 C   0  0  0  0  0  2  0  0  0  0  0  0
  186.6480  178.3130  141.6780 C   0  0  0  0  0  0  0  0  0  0  0  0
  183.7000  178.8930  143.6870 C   0  0  0  0  0  2  0  0  0  0  0  0
  182.5870  178.6060  140.9120 C   0  0  0  0  0  2  0  0  0  0  0  0
  187.0570  178.6280  139.2650 N   0  0  0  0  0  0  0  0  0  0  0  0
  186.6520  178.5410  138.0610 N   0  0  0  0  0  0  0  0  0  0  0  0
  188.9990  178.4680  137.4850 C   0  0  0  0  0  3  0  0  0  0  0  0
  189.3450  176.4890  136.1170 C   0  0  0  0  0  0  0  0  0  0  0  0
  187.2220  177.6450  135.8730 C   0  0  0  0  0  3  0  0  0  0  0  0
  187.5920  178.6340  136.9570 C   0  0  1  0  0  3  0  0  0  0  0  0
  190.0900  175.5310  135.7850 O   0  0  0  0  0  0  0  0  0  0  0  0
  189.8010  177.4700  137.1080 C   0  0  0  0  0  3  0  0  0  0  0  0
  188.0270  176.6480  135.4960 C   0  0  0  0  0  3  0  0  0  0  0  0
  188.0490  178.0790  141.9320 N   0  0  0  0  0  0  0  0  0  0  0  0
  189.0310  179.1400  141.7720 C   0  0  0  0  0  1  0  0  0  0  0  0
  188.5590  176.7290  142.1260 C   0  0  0  0  0  2  0  0  0  0  0  0
  188.4780  176.3470  143.5940 C   0  0  0  0  0  2  0  0  0  0  0  0
  189.6650  176.8740  144.3170 C   0  0  0  0  0  0  0  0  0  0  0  0
  190.8000  176.3790  144.0880 O   0  0  0  0  0  0  0  0  0  0  0  0
  189.5090  177.9280  145.2190 O   0  0  0  0  0  0  0  0  0  0  0  0
  189.7470  177.7830  146.6130 C   0  0  0  0  0  2  0  0  0  0  0  0
  187.3500  177.9440  147.1700 C   0  0  0  0  0  2  0  0  0  0  0  0
  188.5810  177.0680  147.2720 C   0  0  0  0  0  3  0  0  0  0  0  0
  188.1220  177.8750  148.4680 C   0  0  0  0  0  2  0  0  0  0  0  0
  1  5  2  0  0  0  0
  2  3  1  0  0  0  0
  2 10  1  0  0  0  0
  4  9  1  0  0  0  0
  6  4  2  0  0  0  0
  6  7  1  0  0  0  0
  7  2  2  0  0  0  0
  8  1  1  0  0  0  0
  9 21  1  0  0  0  0
  9  3  2  0  0  0  0
 10  5  1  0  0  0  0
 11  7  1  0  0  0  0
 11  8  1  0  0  0  0
 12  4  1  0  0  0  0
 13 12  2  0  0  0  0
 15 19  1  0  0  0  0
 16 17  1  0  0  0  0
 17 14  1  0  0  0  0
 17 13  1  1  0  0  0
 18 15  2  0  0  0  0
 19 14  2  0  0  0  0
 20 16  2  0  0  0  0
 20 15  1  0  0  0  0
 21 23  1  0  0  0  0
 22 21  1  0  0  0  0
 23 24  1  0  0  0  0
 24 25  1  0  0  0  0
 25 27  1  0  0  0  0
 26 25  2  0  0  0  0
 27 28  1  0  0  0  0
 28 30  1  0  0  0  0
 29 30  1  0  0  0  0
 29 31  1  0  0  0  0
 30 31  1  0  0  0  0
M  END
>  <MODEL>
6

>  <REMARK>
 VINA RESULT:      -6.7      1.586      2.340
  Name = 
  9 active torsions:
  status: ('A' for Active; 'I' for Inactive)
    1  A    between atoms: C_1  and  C_7
    2  A    between atoms: C_1  and  N_9
    3  A    between atoms: C_7  and  C_11
    4  A    between atoms: N_8  and  C_12
    5  A    between atoms: N_9  and  C_23
    6  A    between atoms: C_11  and  O_30
    7  A    between atoms: C_15  and  N_17
    8  A    between atoms: C_16  and  C_24
    9  A    between atoms: C_24  and  O_30
                            x       y       z     vdW  Elec       q    Type
                         _______ _______ _______ _____ _____    ______ ____

>  <TORSDO>
F 9

$$$$
=
 OpenBabel11032419323D

 31 34  0  0  1  0  0  0  0  0999 V2000
  180.4730  179.4480  140.2040 N   0  0  0  0  0  0  0  0  0  0  0  0
  183.1050  178.6970  141.6480 C   0  0  0  0  0  0  0  0  0  0  0  0
  184.0820  178.3700  142.5920 C   0  0  0  0  0  3  0  0  0  0  0  0
  185.8370  178.6340  140.9480 C   0  0  0  0  0  0  0  0  0  0  0  0
  180.7290  179.5720  141.4670 C   0  0  0  0  0  3  0  0  0  0  0  0
  184.8590  178.9030  139.9810 C   0  0  0  0  0  3  0  0  0  0  0  0
  183.4990  178.8840  140.2940 C   0  0  0  0  0  0  0  0  0  0  0  0
  181.2130  178.5850  139.3030 C   0  0  0  0  0  2  0  0  0  0  0  0
  185.4430  178.2980  142.2600 C   0  0  0  0  0  0  0  0  0  0  0  0
  181.8950  178.9830  142.1540 C   0  0  0  0  0  2  0  0  0  0  0  0
  182.6640  178.9270  139.2520 C   0  0  0  0  0  2  0  0  0  0  0  0
  187.2260  178.7110  140.6050 N   0  0  0  0  0  0  0  0  0  0  0  0
  187.6530  178.3970  139.4480 N   0  0  0  0  0  0  0  0  0  0  0  0
  189.8650  177.7660  140.1950 C   0  0  0  0  0  3  0  0  0  0  0  0
  190.7670  176.2190  138.5510 C   0  0  0  0  0  0  0  0  0  0  0  0
  189.3230  177.9910  137.7270 C   0  0  0  0  0  3  0  0  0  0  0  0
  189.0690  178.4900  139.1330 C   0  0  1  0  0  3  0  0  0  0  0  0
  191.4700  175.2050  138.3050 O   0  0  0  0  0  0  0  0  0  0  0  0
  190.6360  176.7100  139.9270 C   0  0  0  0  0  3  0  0  0  0  0  0
  190.0970  176.9350  137.4620 C   0  0  0  0  0  3  0  0  0  0  0  0
  186.4030  177.9490  143.2790 N   0  0  0  0  0  0  0  0  0  0  0  0
  185.9760  177.5150  144.6000 C   0  0  0  0  0  1  0  0  0  0  0  0
  187.8190  178.2430  143.1040 C   0  0  0  0  0  2  0  0  0  0  0  0
  188.6580  177.0810  143.6040 C   0  0  0  0  0  2  0  0  0  0  0  0
  189.7340  177.5840  144.4970 C   0  0  0  0  0  0  0  0  0  0  0  0
  190.3970  178.5990  144.1570 O   0  0  0  0  0  0  0  0  0  0  0  0
  189.9760  176.9410  145.7120 O   0  0  0  0  0  0  0  0  0  0  0  0
  188.9790  176.8030  146.7160 C   0  0  0  0  0  2  0  0  0  0  0  0
  188.3000  177.8900  148.8220 C   0  0  0  0  0  2  0  0  0  0  0  0
  188.7270  178.1390  147.3920 C   0  0  0  0  0  3  0  0  0  0  0  0
  187.2650  178.2300  147.7740 C   0  0  0  0  0  2  0  0  0  0  0  0
  1  5  2  0  0  0  0
  2 10  1  0  0  0  0
  2  3  1  0  0  0  0
  4  9  1  0  0  0  0
  5 10  1  0  0  0  0
  6  7  1  0  0  0  0
  6  4  2  0  0  0  0
  7  2  2  0  0  0  0
  8  1  1  0  0  0  0
  9  3  2  0  0  0  0
  9 21  1  0  0  0  0
 11  8  1  0  0  0  0
 11  7  1  0  0  0  0
 12  4  1  0  0  0  0
 13 12  2  0  0  0  0
 15 19  1  0  0  0  0
 16 17  1  0  0  0  0
 17 13  1  1  0  0  0
 17 14  1  0  0  0  0
 18 15  2  0  0  0  0
 19 14  2  0  0  0  0
 20 16  2  0  0  0  0
 20 15  1  0  0  0  0
 21 22  1  0  0  0  0
 23 21  1  0  0  0  0
 23 24  1  0  0  0  0
 24 25  1  0  0  0  0
 25 27  1  0  0  0  0
 26 25  2  0  0  0  0
 27 28  1  0  0  0  0
 28 30  1  0  0  0  0
 30 31  1  0  0  0  0
 30 29  1  0  0  0  0
 31 29  1  0  0  0  0
M  END
>  <MODEL>
7

>  <REMARK>
 VINA RESULT:      -6.7      2.251      3.194
  Name = 
  9 active torsions:
  status: ('A' for Active; 'I' for Inactive)
    1  A    between atoms: C_1  and  C_7
    2  A    between atoms: C_1  and  N_9
    3  A    between atoms: C_7  and  C_11
    4  A    between atoms: N_8  and  C_12
    5  A    between atoms: N_9  and  C_23
    6  A    between atoms: C_11  and  O_30
    7  A    between atoms: C_15  and  N_17
    8  A    between atoms: C_16  and  C_24
    9  A    between atoms: C_24  and  O_30
                            x       y       z     vdW  Elec       q    Type
                         _______ _______ _______ _____ _____    ______ ____

>  <TORSDO>
F 9

$$$$
=
 OpenBabel11032419323D

 31 34  0  0  1  0  0  0  0  0999 V2000
  190.5670  176.3740  147.1920 N   0  0  0  0  0  0  0  0  0  0  0  0
  189.3930  177.3240  144.4910 C   0  0  0  0  0  0  0  0  0  0  0  0
  188.5830  177.8450  143.4780 C   0  0  0  0  0  3  0  0  0  0  0  0
  190.0560  176.9680  141.7720 C   0  0  0  0  0  0  0  0  0  0  0  0
  189.3240  176.6160  146.9270 C   0  0  0  0  0  3  0  0  0  0  0  0
  190.9050  176.4960  142.7810 C   0  0  0  0  0  3  0  0  0  0  0  0
  190.6250  176.7100  144.1310 C   0  0  0  0  0  0  0  0  0  0  0  0
  191.6800  176.8690  146.4020 C   0  0  0  0  0  2  0  0  0  0  0  0
  188.9080  177.7110  142.1210 C   0  0  0  0  0  0  0  0  0  0  0  0
  188.8350  177.2940  145.7110 C   0  0  0  0  0  2  0  0  0  0  0  0
  191.6130  176.4200  144.9810 C   0  0  0  0  0  2  0  0  0  0  0  0
  190.3470  176.6880  140.3980 N   0  0  0  0  0  0  0  0  0  0  0  0
  191.3950  177.1310  139.8270 N   0  0  0  0  0  0  0  0  0  0  0  0
  193.1540  176.6670  138.2330 C   0  0  0  0  0  3  0  0  0  0  0  0
  192.8760  174.3650  137.5040 C   0  0  0  0  0  0  0  0  0  0  0  0
  190.8550  175.6200  138.0000 C   0  0  0  0  0  3  0  0  0  0  0  0
  191.6630  176.8240  138.4320 C   0  0  1  0  0  3  0  0  0  0  0  0
  193.4060  173.2820  137.1430 O   0  0  0  0  0  0  0  0  0  0  0  0
  193.7130  175.5280  137.8200 C   0  0  0  0  0  3  0  0  0  0  0  0
  191.4170  174.4810  137.5840 C   0  0  0  0  0  3  0  0  0  0  0  0
  188.0330  178.2760  141.1230 N   0  0  0  0  0  0  0  0  0  0  0  0
  188.3810  178.2430  139.7110 C   0  0  0  0  0  1  0  0  0  0  0  0
  186.8960  179.1010  141.5060 C   0  0  0  0  0  2  0  0  0  0  0  0
  185.6250  178.2710  141.4990 C   0  0  0  0  0  2  0  0  0  0  0  0
  184.5480  179.0070  140.7860 C   0  0  0  0  0  0  0  0  0  0  0  0
  184.8380  179.7130  139.7850 O   0  0  0  0  0  0  0  0  0  0  0  0
  183.2260  178.8820  141.2190 O   0  0  0  0  0  0  0  0  0  0  0  0
  182.8830  178.2900  142.4640 C   0  0  0  0  0  2  0  0  0  0  0  0
  184.1150  179.3830  144.3000 C   0  0  0  0  0  2  0  0  0  0  0  0
  182.8030  179.3530  143.5450 C   0  0  0  0  0  3  0  0  0  0  0  0
  182.9150  178.6870  144.9000 C   0  0  0  0  0  2  0  0  0  0  0  0
  2 10  1  0  0  0  0
  3  2  2  0  0  0  0
  4  9  2  0  0  0  0
  4  6  1  0  0  0  0
  5  1  2  0  0  0  0
  6  7  2  0  0  0  0
  7  2  1  0  0  0  0
  7 11  1  0  0  0  0
  8  1  1  0  0  0  0
  9  3  1  0  0  0  0
 10  5  1  0  0  0  0
 11  8  1  0  0  0  0
 12  4  1  0  0  0  0
 13 12  2  0  0  0  0
 14 17  1  0  0  0  0
 15 20  1  0  0  0  0
 15 19  1  0  0  0  0
 16 17  1  0  0  0  0
 17 13  1  1  0  0  0
 18 15  2  0  0  0  0
 19 14  2  0  0  0  0
 20 16  2  0  0  0  0
 21 23  1  0  0  0  0
 21  9  1  0  0  0  0
 22 21  1  0  0  0  0
 24 23  1  0  0  0  0
 25 27  1  0  0  0  0
 25 24  1  0  0  0  0
 26 25  2  0  0  0  0
 27 28  1  0  0  0  0
 28 30  1  0  0  0  0
 29 31  1  0  0  0  0
 30 29  1  0  0  0  0
 30 31  1  0  0  0  0
M  END
>  <MODEL>
8

>  <REMARK>
 VINA RESULT:      -6.6      3.246      5.848
  Name = 
  9 active torsions:
  status: ('A' for Active; 'I' for Inactive)
    1  A    between atoms: C_1  and  C_7
    2  A    between atoms: C_1  and  N_9
    3  A    between atoms: C_7  and  C_11
    4  A    between atoms: N_8  and  C_12
    5  A    between atoms: N_9  and  C_23
    6  A    between atoms: C_11  and  O_30
    7  A    between atoms: C_15  and  N_17
    8  A    between atoms: C_16  and  C_24
    9  A    between atoms: C_24  and  O_30
                            x       y       z     vdW  Elec       q    Type
                         _______ _______ _______ _____ _____    ______ ____

>  <TORSDO>
F 9

$$$$
=
 OpenBabel11032419323D

 31 34  0  0  1  0  0  0  0  0999 V2000
  188.7700  177.7720  148.1970 N   0  0  0  0  0  0  0  0  0  0  0  0
  188.8510  177.4840  145.1170 C   0  0  0  0  0  0  0  0  0  0  0  0
  189.2400  177.3060  143.7870 C   0  0  0  0  0  3  0  0  0  0  0  0
  187.0660  178.0150  142.9980 C   0  0  0  0  0  0  0  0  0  0  0  0
  189.8110  177.8710  147.4350 C   0  0  0  0  0  3  0  0  0  0  0  0
  186.6490  178.1370  144.3300 C   0  0  0  0  0  3  0  0  0  0  0  0
  187.4980  177.8260  145.3930 C   0  0  0  0  0  0  0  0  0  0  0  0
  187.5290  177.1300  147.8040 C   0  0  0  0  0  2  0  0  0  0  0  0
  188.3610  177.5300  142.7180 C   0  0  0  0  0  0  0  0  0  0  0  0
  189.8540  177.4910  146.0100 C   0  0  0  0  0  2  0  0  0  0  0  0
  186.9210  177.7600  146.5960 C   0  0  0  0  0  2  0  0  0  0  0  0
  186.1860  178.3900  141.9320 N   0  0  0  0  0  0  0  0  0  0  0  0
  184.9250  178.2340  142.0120 N   0  0  0  0  0  0  0  0  0  0  0  0
  184.9090  178.9920  139.7160 C   0  0  0  0  0  3  0  0  0  0  0  0
  183.8890  177.2330  138.3840 C   0  0  0  0  0  0  0  0  0  0  0  0
  183.0400  177.5470  140.6390 C   0  0  0  0  0  3  0  0  0  0  0  0
  184.0600  178.6300  140.9130 C   0  0  1  0  0  3  0  0  0  0  0  0
  183.8460  176.5970  137.2990 O   0  0  0  0  0  0  0  0  0  0  0  0
  184.8400  178.3370  138.5550 C   0  0  0  0  0  3  0  0  0  0  0  0
  182.9710  176.8940  139.4750 C   0  0  0  0  0  3  0  0  0  0  0  0
  188.8210  177.3230  141.3660 N   0  0  0  0  0  0  0  0  0  0  0  0
  189.9860  176.4990  141.0850 C   0  0  0  0  0  1  0  0  0  0  0  0
  188.2870  178.1140  140.2650 C   0  0  0  0  0  2  0  0  0  0  0  0
  189.4210  178.6290  139.3970 C   0  0  0  0  0  2  0  0  0  0  0  0
  189.0730  178.4580  137.9620 C   0  0  0  0  0  0  0  0  0  0  0  0
  188.4540  179.3750  137.3600 O   0  0  0  0  0  0  0  0  0  0  0  0
  189.4600  177.2950  137.2940 O   0  0  0  0  0  0  0  0  0  0  0  0
  188.7610  176.7930  136.1630 C   0  0  0  0  0  2  0  0  0  0  0  0
  187.1720  175.1640  137.1120 C   0  0  0  0  0  2  0  0  0  0  0  0
  187.3050  176.5480  136.5140 C   0  0  0  0  0  3  0  0  0  0  0  0
  186.7810  175.4040  135.6720 C   0  0  0  0  0  2  0  0  0  0  0  0
  2  7  1  0  0  0  0
  2 10  1  0  0  0  0
  3  2  2  0  0  0  0
  4  6  1  0  0  0  0
  5  1  2  0  0  0  0
  6  7  2  0  0  0  0
  7 11  1  0  0  0  0
  8  1  1  0  0  0  0
  9  4  2  0  0  0  0
  9  3  1  0  0  0  0
 10  5  1  0  0  0  0
 11  8  1  0  0  0  0
 12 13  2  0  0  0  0
 12  4  1  0  0  0  0
 14 17  1  0  0  0  0
 15 19  1  0  0  0  0
 15 20  1  0  0  0  0
 16 17  1  0  0  0  0
 17 13  1  1  0  0  0
 18 15  2  0  0  0  0
 19 14  2  0  0  0  0
 20 16  2  0  0  0  0
 21  9  1  0  0  0  0
 22 21  1  0  0  0  0
 23 21  1  0  0  0  0
 24 23  1  0  0  0  0
 25 24  1  0  0  0  0
 26 25  2  0  0  0  0
 27 25  1  0  0  0  0
 28 30  1  0  0  0  0
 28 27  1  0  0  0  0
 30 29  1  0  0  0  0
 31 30  1  0  0  0  0
 31 29  1  0  0  0  0
M  END
>  <MODEL>
9

>  <REMARK>
 VINA RESULT:      -6.6      2.981      6.613
  Name = 
  9 active torsions:
  status: ('A' for Active; 'I' for Inactive)
    1  A    between atoms: C_1  and  C_7
    2  A    between atoms: C_1  and  N_9
    3  A    between atoms: C_7  and  C_11
    4  A    between atoms: N_8  and  C_12
    5  A    between atoms: N_9  and  C_23
    6  A    between atoms: C_11  and  O_30
    7  A    between atoms: C_15  and  N_17
    8  A    between atoms: C_16  and  C_24
    9  A    between atoms: C_24  and  O_30
                            x       y       z     vdW  Elec       q    Type
                         _______ _______ _______ _____ _____    ______ ____

>  <TORSDO>
F 9

$$$$
