=
 OpenBabel11032419553D

 41 43  0  0  1  0  0  0  0  0999 V2000
  183.6800  177.9770  140.6050 C   0  0  1  0  0  3  0  0  0  0  0  0
  181.8370  179.0050  142.5330 C   0  0  0  0  0  0  0  0  0  0  0  0
  181.0310  179.5670  143.3210 O   0  0  0  0  0  0  0  0  0  0  0  0
  184.0760  178.2490  142.0370 C   0  0  0  0  0  3  0  0  0  0  0  0
  182.1780  178.0250  140.3730 C   0  0  0  0  0  0  0  0  0  0  0  0
  183.2340  178.7750  142.9240 C   0  0  0  0  0  0  0  0  0  0  0  0
  181.3780  178.5390  141.2600 N   0  0  0  0  0  0  0  0  0  0  0  0
  181.6230  177.5380  139.1860 O   0  0  0  0  0  0  0  0  0  0  0  0
  181.8240  176.2050  138.7350 C   0  0  0  0  0  1  0  0  0  0  0  0
  184.3660  178.9710  139.6800 C   0  0  0  0  0  2  0  0  0  0  0  0
  184.9400  178.2620  138.4660 C   0  0  0  0  0  2  0  0  0  0  0  0
  186.2910  178.7330  138.2240 N   0  0  0  0  0  2  0  0  0  0  0  0
  187.0000  178.5450  139.4170 N   0  0  0  0  0  2  0  0  0  0  0  0
  190.0190  176.8670  140.3810 N   0  0  0  0  0  0  0  0  0  0  0  0
  190.1630  176.4520  139.1020 C   0  0  0  0  0  0  0  0  0  0  0  0
  191.2770  175.6520  138.6840 N   0  0  0  0  0  2  0  0  0  0  0  0
  188.9320  177.6100  140.5740 N   0  0  0  0  0  0  0  0  0  0  0  0
  188.9140  177.0300  138.1200 S   0  0  0  0  0  0  0  0  0  0  0  0
  188.2140  177.7990  139.4460 C   0  0  0  0  0  0  0  0  0  0  0  0
  190.5600  173.9950  137.1480 C   0  0  0  0  0  3  0  0  0  0  0  0
  189.2390  172.5640  135.5290 C   0  0  0  0  0  1  0  0  0  0  0  0
  193.0240  173.1950  135.4990 C   0  0  0  0  0  3  0  0  0  0  0  0
  193.3960  174.3470  136.0560 C   0  0  0  0  0  3  0  0  0  0  0  0
  191.4380  174.9590  137.4390 C   0  0  0  0  0  0  0  0  0  0  0  0
  190.5410  173.1630  135.9260 C   0  0  0  0  0  0  0  0  0  0  0  0
  191.6290  172.7830  135.2440 C   0  0  0  0  0  3  0  0  0  0  0  0
  192.4280  175.4230  136.4170 C   0  0  0  0  0  2  0  0  0  0  0  0
  183.6940  179.0280  144.3210 C   0  0  0  0  0  2  0  0  0  0  0  0
  185.1810  178.7390  144.4380 C   0  0  0  0  0  2  0  0  0  0  0  0
  185.5980  178.7140  145.8950 C   0  0  1  0  0  3  0  0  0  0  0  0
  184.4650  178.7600  146.7100 O   0  0  0  0  0  1  0  0  0  0  0  0
  186.3780  177.4410  146.1650 C   0  0  0  0  0  2  0  0  0  0  0  0
  187.8260  177.7660  146.4900 C   0  0  0  0  0  2  0  0  0  0  0  0
  188.7200  177.4440  145.3020 C   0  0  0  0  0  2  0  0  0  0  0  0
  191.4900  176.5400  147.5030 O   0  0  0  0  0  0  0  0  0  0  0  0
  190.3250  176.7710  147.0840 C   0  0  0  0  0  3  0  0  0  0  0  0
  190.0890  177.1990  145.7340 N   0  0  0  0  0  0  0  0  0  0  0  0
  191.4750  175.9940  144.1040 C   0  0  0  0  0  1  0  0  0  0  0  0
  191.1590  177.3330  144.7430 C   0  0  1  0  0  3  0  0  0  0  0  0
  191.4280  179.7030  144.0110 C   0  0  0  0  0  1  0  0  0  0  0  0
  190.8080  178.3600  143.6750 C   0  0  0  0  0  2  0  0  0  0  0  0
  1 10  1  6  0  0  0
  1  4  1  0  0  0  0
  2  6  1  0  0  0  0
  2  3  2  0  0  0  0
  4  6  2  0  0  0  0
  5  1  1  0  0  0  0
  5  7  2  0  0  0  0
  6 28  1  0  0  0  0
  7  2  1  0  0  0  0
  8  5  1  0  0  0  0
  9  8  1  0  0  0  0
 11 10  1  0  0  0  0
 12 11  1  0  0  0  0
 12 13  1  0  0  0  0
 13 19  1  0  0  0  0
 14 17  1  0  0  0  0
 15 14  2  0  0  0  0
 16 15  1  0  0  0  0
 18 15  1  0  0  0  0
 18 19  1  0  0  0  0
 19 17  2  0  0  0  0
 20 24  2  0  0  0  0
 21 25  1  0  0  0  0
 22 23  2  0  0  0  0
 23 27  1  0  0  0  0
 24 16  1  0  0  0  0
 25 20  1  0  0  0  0
 26 22  1  0  0  0  0
 26 25  2  0  0  0  0
 27 24  1  0  0  0  0
 28 29  1  0  0  0  0
 29 30  1  0  0  0  0
 30 32  1  0  0  0  0
 30 31  1  1  0  0  0
 32 33  1  0  0  0  0
 34 37  1  0  0  0  0
 34 33  1  0  0  0  0
 36 35  2  0  0  0  0
 37 36  1  0  0  0  0
 39 38  1  6  0  0  0
 39 37  1  0  0  0  0
 41 40  1  0  0  0  0
 41 39  1  0  0  0  0
M  END
>  <MODEL>
1

>  <REMARK>
 VINA RESULT:      -8.3      0.000      0.000
  Name = 
  15 active torsions:
  status: ('A' for Active; 'I' for Inactive)
    1  A    between atoms: C_1  and  C_13
    2  A    between atoms: O_3  and  C_18
    3  A    between atoms: N_4  and  N_19
    4  A    between atoms: C_7  and  C_13
    5  A    between atoms: C_7  and  N_19
    6  A    between atoms: C_15  and  C_20
    7  A    between atoms: C_15  and  C_26
    8  A    between atoms: C_17  and  C_25
    9  A    between atoms: C_17  and  N_39
   10  A    between atoms: C_20  and  C_34
   11  A    between atoms: N_21  and  C_27
   12  A    between atoms: C_25  and  C_37
   13  A    between atoms: C_26  and  C_37
   14  A    between atoms: C_35  and  C_36
   15  A    between atoms: C_35  and  N_39
                            x       y       z     vdW  Elec       q    Type
                         _______ _______ _______ _____ _____    ______ ____

>  <TORSDO>
F 15

$$$$
=
 OpenBabel11032419553D

 41 43  0  0  1  0  0  0  0  0999 V2000
  184.7740  178.3320  143.2850 C   0  0  1  0  0  3  0  0  0  0  0  0
  184.9080  178.6890  146.1180 C   0  0  0  0  0  0  0  0  0  0  0  0
  185.0040  178.9640  147.3430 O   0  0  0  0  0  0  0  0  0  0  0  0
  185.8500  177.6940  144.1300 C   0  0  0  0  0  3  0  0  0  0  0  0
  183.6350  178.9220  144.1020 C   0  0  0  0  0  0  0  0  0  0  0  0
  185.9460  177.8990  145.4420 C   0  0  0  0  0  0  0  0  0  0  0  0
  183.7530  179.1060  145.3840 N   0  0  0  0  0  0  0  0  0  0  0  0
  182.4390  179.3060  143.4870 O   0  0  0  0  0  0  0  0  0  0  0  0
  181.1830  178.7370  143.8310 C   0  0  0  0  0  1  0  0  0  0  0  0
  185.3780  179.4150  142.4050 C   0  0  0  0  0  2  0  0  0  0  0  0
  185.7560  178.8510  141.0470 C   0  0  0  0  0  2  0  0  0  0  0  0
  184.9360  179.4670  140.0210 N   0  0  0  0  0  2  0  0  0  0  0  0
  183.6030  179.2200  140.3730 N   0  0  0  0  0  2  0  0  0  0  0  0
  181.1420  176.7430  139.5540 N   0  0  0  0  0  0  0  0  0  0  0  0
  182.0390  176.1670  138.7230 C   0  0  0  0  0  0  0  0  0  0  0  0
  181.7300  174.9860  137.9720 N   0  0  0  0  0  2  0  0  0  0  0  0
  181.6160  177.8220  140.1750 N   0  0  0  0  0  0  0  0  0  0  0  0
  183.5160  176.9890  138.7410 S   0  0  0  0  0  0  0  0  0  0  0  0
  182.8950  178.1000  139.8470 C   0  0  0  0  0  0  0  0  0  0  0  0
  182.9850  173.1840  137.0810 C   0  0  0  0  0  3  0  0  0  0  0  0
  183.7790  170.9270  136.2490 C   0  0  0  0  0  1  0  0  0  0  0  0
  184.8560  174.3760  134.9580 C   0  0  0  0  0  3  0  0  0  0  0  0
  183.9530  175.3400  135.1390 C   0  0  0  0  0  3  0  0  0  0  0  0
  182.4850  174.4080  136.8980 C   0  0  0  0  0  0  0  0  0  0  0  0
  183.7860  172.4070  136.1100 C   0  0  0  0  0  0  0  0  0  0  0  0
  184.6340  172.9400  135.2210 C   0  0  0  0  0  3  0  0  0  0  0  0
  182.5470  175.0670  135.5550 C   0  0  0  0  0  2  0  0  0  0  0  0
  187.0420  177.2460  146.2160 C   0  0  0  0  0  2  0  0  0  0  0  0
  188.3380  178.0170  146.0290 C   0  0  0  0  0  2  0  0  0  0  0  0
  189.2520  177.8040  147.2190 C   0  0  1  0  0  3  0  0  0  0  0  0
  188.4900  177.7000  148.3860 O   0  0  0  0  0  1  0  0  0  0  0  0
  190.0510  176.5320  147.0100 C   0  0  0  0  0  2  0  0  0  0  0  0
  191.4590  176.8620  146.5410 C   0  0  0  0  0  2  0  0  0  0  0  0
  191.6420  176.4530  145.0870 C   0  0  0  0  0  2  0  0  0  0  0  0
  191.3540  179.8780  143.8540 O   0  0  0  0  0  0  0  0  0  0  0  0
  191.6180  178.8950  144.5950 C   0  0  0  0  0  3  0  0  0  0  0  0
  191.3060  177.5520  144.1920 N   0  0  0  0  0  0  0  0  0  0  0  0
  191.7720  177.3290  141.7920 C   0  0  0  0  0  1  0  0  0  0  0  0
  190.7270  177.2260  142.8870 C   0  0  1  0  0  3  0  0  0  0  0  0
  188.5910  175.9520  143.0660 C   0  0  0  0  0  1  0  0  0  0  0  0
  190.0930  175.8420  142.8860 C   0  0  0  0  0  2  0  0  0  0  0  0
  1 10  1  1  0  0  0
  1  5  1  0  0  0  0
  1  4  1  0  0  0  0
  2  3  2  0  0  0  0
  4  6  2  0  0  0  0
  5  7  2  0  0  0  0
  6  2  1  0  0  0  0
  6 28  1  0  0  0  0
  7  2  1  0  0  0  0
  8  9  1  0  0  0  0
  8  5  1  0  0  0  0
 11 10  1  0  0  0  0
 12 13  1  0  0  0  0
 12 11  1  0  0  0  0
 14 17  1  0  0  0  0
 15 18  1  0  0  0  0
 15 14  2  0  0  0  0
 16 15  1  0  0  0  0
 18 19  1  0  0  0  0
 19 17  2  0  0  0  0
 19 13  1  0  0  0  0
 22 23  2  0  0  0  0
 22 26  1  0  0  0  0
 23 27  1  0  0  0  0
 24 20  2  0  0  0  0
 24 16  1  0  0  0  0
 25 21  1  0  0  0  0
 25 20  1  0  0  0  0
 26 25  2  0  0  0  0
 27 24  1  0  0  0  0
 29 28  1  0  0  0  0
 29 30  1  0  0  0  0
 30 31  1  1  0  0  0
 32 30  1  0  0  0  0
 33 32  1  0  0  0  0
 34 33  1  0  0  0  0
 35 36  2  0  0  0  0
 37 36  1  0  0  0  0
 37 34  1  0  0  0  0
 39 38  1  6  0  0  0
 39 37  1  0  0  0  0
 41 39  1  0  0  0  0
 41 40  1  0  0  0  0
M  END
>  <MODEL>
2

>  <REMARK>
 VINA RESULT:      -8.1      3.484      5.582
  Name = 
  15 active torsions:
  status: ('A' for Active; 'I' for Inactive)
    1  A    between atoms: C_1  and  C_13
    2  A    between atoms: O_3  and  C_18
    3  A    between atoms: N_4  and  N_19
    4  A    between atoms: C_7  and  C_13
    5  A    between atoms: C_7  and  N_19
    6  A    between atoms: C_15  and  C_20
    7  A    between atoms: C_15  and  C_26
    8  A    between atoms: C_17  and  C_25
    9  A    between atoms: C_17  and  N_39
   10  A    between atoms: C_20  and  C_34
   11  A    between atoms: N_21  and  C_27
   12  A    between atoms: C_25  and  C_37
   13  A    between atoms: C_26  and  C_37
   14  A    between atoms: C_35  and  C_36
   15  A    between atoms: C_35  and  N_39
                            x       y       z     vdW  Elec       q    Type
                         _______ _______ _______ _____ _____    ______ ____

>  <TORSDO>
F 15

$$$$
=
 OpenBabel11032419553D

 41 43  0  0  1  0  0  0  0  0999 V2000
  190.2590  177.4880  145.0060 C   0  0  1  0  0  3  0  0  0  0  0  0
  188.3500  177.2790  147.1230 C   0  0  0  0  0  0  0  0  0  0  0  0
  187.5060  177.0640  148.0320 O   0  0  0  0  0  0  0  0  0  0  0  0
  188.8440  177.9990  144.8720 C   0  0  0  0  0  3  0  0  0  0  0  0
  190.6400  177.1300  146.4340 C   0  0  0  0  0  0  0  0  0  0  0  0
  187.9380  177.8580  145.8380 C   0  0  0  0  0  0  0  0  0  0  0  0
  189.7340  177.0040  147.3580 N   0  0  0  0  0  0  0  0  0  0  0  0
  191.9750  176.9020  146.7810 O   0  0  0  0  0  0  0  0  0  0  0  0
  192.4240  175.6750  147.3400 C   0  0  0  0  0  1  0  0  0  0  0  0
  190.4600  176.2760  144.1100 C   0  0  0  0  0  2  0  0  0  0  0  0
  191.4520  176.5870  143.0040 C   0  0  0  0  0  2  0  0  0  0  0  0
  190.8260  177.4490  142.0200 N   0  0  0  0  0  2  0  0  0  0  0  0
  191.5390  177.2800  140.8270 N   0  0  0  0  0  2  0  0  0  0  0  0
  190.7030  176.6860  137.3900 N   0  0  0  0  0  0  0  0  0  0  0  0
  189.3980  176.6510  137.7430 C   0  0  0  0  0  0  0  0  0  0  0  0
  188.3560  176.4420  136.7800 N   0  0  0  0  0  2  0  0  0  0  0  0
  191.5210  176.9050  138.4170 N   0  0  0  0  0  0  0  0  0  0  0  0
  189.1980  176.9230  139.4000 S   0  0  0  0  0  0  0  0  0  0  0  0
  190.8670  177.0570  139.5890 C   0  0  0  0  0  0  0  0  0  0  0  0
  186.5940  174.8760  137.0210 C   0  0  0  0  0  3  0  0  0  0  0  0
  185.0990  172.9620  137.7400 C   0  0  0  0  0  1  0  0  0  0  0  0
  183.9910  176.3700  136.3710 C   0  0  0  0  0  3  0  0  0  0  0  0
  184.8610  177.3580  136.5780 C   0  0  0  0  0  3  0  0  0  0  0  0
  186.9740  176.1560  137.0350 C   0  0  0  0  0  0  0  0  0  0  0  0
  185.2280  174.3630  137.2590 C   0  0  0  0  0  0  0  0  0  0  0  0
  184.1010  175.0070  136.9270 C   0  0  0  0  0  3  0  0  0  0  0  0
  186.0340  177.2280  137.4910 C   0  0  0  0  0  2  0  0  0  0  0  0
  186.5540  178.3760  145.6350 C   0  0  0  0  0  2  0  0  0  0  0  0
  185.8630  177.5920  144.5310 C   0  0  0  0  0  2  0  0  0  0  0  0
  185.2060  178.5390  143.5470 C   0  0  1  0  0  3  0  0  0  0  0  0
  184.9670  179.7690  144.1640 O   0  0  0  0  0  1  0  0  0  0  0  0
  186.1240  178.7290  142.3540 C   0  0  0  0  0  2  0  0  0  0  0  0
  185.3110  178.8920  141.0810 C   0  0  0  0  0  2  0  0  0  0  0  0
  183.9580  178.2120  141.2270 C   0  0  0  0  0  2  0  0  0  0  0  0
  182.5200  180.1520  138.4880 O   0  0  0  0  0  0  0  0  0  0  0  0
  183.3560  179.5610  139.2210 C   0  0  0  0  0  3  0  0  0  0  0  0
  182.9480  178.8860  140.4210 N   0  0  0  0  0  0  0  0  0  0  0  0
  180.9240  177.5010  140.3160 C   0  0  0  0  0  1  0  0  0  0  0  0
  181.5490  178.7800  140.8400 C   0  0  1  0  0  3  0  0  0  0  0  0
  179.9930  178.5100  142.7710 C   0  0  0  0  0  1  0  0  0  0  0  0
  181.4100  178.8570  142.3540 C   0  0  0  0  0  2  0  0  0  0  0  0
  1 10  1  6  0  0  0
  1  5  1  0  0  0  0
  2  7  1  0  0  0  0
  2  3  2  0  0  0  0
  4  1  1  0  0  0  0
  4  6  2  0  0  0  0
  5  8  1  0  0  0  0
  5  7  2  0  0  0  0
  6  2  1  0  0  0  0
  8  9  1  0  0  0  0
 11 10  1  0  0  0  0
 12 11  1  0  0  0  0
 13 12  1  0  0  0  0
 14 15  2  0  0  0  0
 14 17  1  0  0  0  0
 15 18  1  0  0  0  0
 16 24  1  0  0  0  0
 16 15  1  0  0  0  0
 17 19  2  0  0  0  0
 18 19  1  0  0  0  0
 19 13  1  0  0  0  0
 20 24  2  0  0  0  0
 20 25  1  0  0  0  0
 22 23  2  0  0  0  0
 22 26  1  0  0  0  0
 23 27  1  0  0  0  0
 24 27  1  0  0  0  0
 25 21  1  0  0  0  0
 26 25  2  0  0  0  0
 28  6  1  0  0  0  0
 29 28  1  0  0  0  0
 30 31  1  1  0  0  0
 30 29  1  0  0  0  0
 32 30  1  0  0  0  0
 33 34  1  0  0  0  0
 33 32  1  0  0  0  0
 35 36  2  0  0  0  0
 36 37  1  0  0  0  0
 37 39  1  0  0  0  0
 37 34  1  0  0  0  0
 39 38  1  1  0  0  0
 39 41  1  0  0  0  0
 41 40  1  0  0  0  0
M  END
>  <MODEL>
3

>  <REMARK>
 VINA RESULT:      -7.9      2.511      7.651
  Name = 
  15 active torsions:
  status: ('A' for Active; 'I' for Inactive)
    1  A    between atoms: C_1  and  C_13
    2  A    between atoms: O_3  and  C_18
    3  A    between atoms: N_4  and  N_19
    4  A    between atoms: C_7  and  C_13
    5  A    between atoms: C_7  and  N_19
    6  A    between atoms: C_15  and  C_20
    7  A    between atoms: C_15  and  C_26
    8  A    between atoms: C_17  and  C_25
    9  A    between atoms: C_17  and  N_39
   10  A    between atoms: C_20  and  C_34
   11  A    between atoms: N_21  and  C_27
   12  A    between atoms: C_25  and  C_37
   13  A    between atoms: C_26  and  C_37
   14  A    between atoms: C_35  and  C_36
   15  A    between atoms: C_35  and  N_39
                            x       y       z     vdW  Elec       q    Type
                         _______ _______ _______ _____ _____    ______ ____

>  <TORSDO>
F 15

$$$$
=
 OpenBabel11032419553D

 41 43  0  0  1  0  0  0  0  0999 V2000
  184.0350  177.9770  141.2400 C   0  0  1  0  0  3  0  0  0  0  0  0
  182.0480  179.2650  142.8410 C   0  0  0  0  0  0  0  0  0  0  0  0
  181.2020  179.9390  143.4860 O   0  0  0  0  0  0  0  0  0  0  0  0
  184.2330  178.2450  142.7130 C   0  0  0  0  0  3  0  0  0  0  0  0
  182.6040  178.1890  140.7740 C   0  0  0  0  0  0  0  0  0  0  0  0
  183.3310  178.8890  143.4510 C   0  0  0  0  0  0  0  0  0  0  0  0
  181.7420  178.8170  141.5180 N   0  0  0  0  0  0  0  0  0  0  0  0
  182.1860  177.7320  139.5200 O   0  0  0  0  0  0  0  0  0  0  0  0
  180.8500  177.8750  139.0570 C   0  0  0  0  0  1  0  0  0  0  0  0
  184.9680  178.8580  140.4230 C   0  0  0  0  0  2  0  0  0  0  0  0
  186.3430  178.9200  141.0640 C   0  0  0  0  0  2  0  0  0  0  0  0
  187.3310  178.3950  140.1410 N   0  0  0  0  0  2  0  0  0  0  0  0
  186.8100  178.5710  138.8530 N   0  0  0  0  0  2  0  0  0  0  0  0
  187.5020  177.2460  135.5930 N   0  0  0  0  0  0  0  0  0  0  0  0
  188.5160  176.5310  136.1300 C   0  0  0  0  0  0  0  0  0  0  0  0
  189.3320  175.6570  135.3390 N   0  0  0  0  0  2  0  0  0  0  0  0
  186.8500  177.9870  136.4860 N   0  0  0  0  0  0  0  0  0  0  0  0
  188.6360  176.7830  137.7980 S   0  0  0  0  0  0  0  0  0  0  0  0
  187.3370  177.8560  137.7380 C   0  0  0  0  0  0  0  0  0  0  0  0
  191.6840  175.7470  135.6210 C   0  0  0  0  0  3  0  0  0  0  0  0
  194.0470  176.3420  136.3120 C   0  0  0  0  0  1  0  0  0  0  0  0
  192.7080  172.8590  135.4190 C   0  0  0  0  0  3  0  0  0  0  0  0
  191.4010  172.7010  135.6240 C   0  0  0  0  0  3  0  0  0  0  0  0
  190.5630  175.0270  135.7180 C   0  0  0  0  0  0  0  0  0  0  0  0
  193.0510  175.2960  135.9600 C   0  0  0  0  0  0  0  0  0  0  0  0
  193.4970  174.0410  135.8220 C   0  0  0  0  0  3  0  0  0  0  0  0
  190.5730  173.6840  136.3810 C   0  0  0  0  0  2  0  0  0  0  0  0
  183.5950  179.1310  144.8990 C   0  0  0  0  0  2  0  0  0  0  0  0
  184.6330  178.1450  145.4080 C   0  0  0  0  0  2  0  0  0  0  0  0
  185.8360  178.8850  145.9590 C   0  0  1  0  0  3  0  0  0  0  0  0
  185.5360  179.3950  147.2250 O   0  0  0  0  0  1  0  0  0  0  0  0
  187.0080  177.9270  146.0530 C   0  0  0  0  0  2  0  0  0  0  0  0
  187.3920  177.4240  144.6720 C   0  0  0  0  0  2  0  0  0  0  0  0
  188.6710  178.0990  144.1990 C   0  0  0  0  0  2  0  0  0  0  0  0
  190.3240  175.1660  142.7850 O   0  0  0  0  0  0  0  0  0  0  0  0
  189.4510  176.0370  143.0380 C   0  0  0  0  0  3  0  0  0  0  0  0
  189.7160  177.1150  143.9500 N   0  0  0  0  0  0  0  0  0  0  0  0
  191.5820  178.6800  144.2540 C   0  0  0  0  0  1  0  0  0  0  0  0
  191.0160  177.3130  144.5930 C   0  0  1  0  0  3  0  0  0  0  0  0
  191.9270  176.0910  146.5670 C   0  0  0  0  0  1  0  0  0  0  0  0
  190.9290  177.1350  146.1020 C   0  0  0  0  0  2  0  0  0  0  0  0
  1 10  1  6  0  0  0
  1  4  1  0  0  0  0
  2  6  1  0  0  0  0
  2  3  2  0  0  0  0
  4  6  2  0  0  0  0
  5  1  1  0  0  0  0
  5  7  2  0  0  0  0
  6 28  1  0  0  0  0
  7  2  1  0  0  0  0
  8  5  1  0  0  0  0
  9  8  1  0  0  0  0
 10 11  1  0  0  0  0
 12 11  1  0  0  0  0
 13 12  1  0  0  0  0
 14 15  2  0  0  0  0
 14 17  1  0  0  0  0
 15 18  1  0  0  0  0
 16 24  1  0  0  0  0
 16 15  1  0  0  0  0
 17 19  2  0  0  0  0
 19 18  1  0  0  0  0
 19 13  1  0  0  0  0
 20 24  2  0  0  0  0
 20 25  1  0  0  0  0
 22 23  2  0  0  0  0
 22 26  1  0  0  0  0
 23 27  1  0  0  0  0
 24 27  1  0  0  0  0
 25 21  1  0  0  0  0
 26 25  2  0  0  0  0
 28 29  1  0  0  0  0
 29 30  1  0  0  0  0
 30 32  1  0  0  0  0
 30 31  1  1  0  0  0
 33 32  1  0  0  0  0
 34 33  1  0  0  0  0
 35 36  2  0  0  0  0
 36 37  1  0  0  0  0
 37 34  1  0  0  0  0
 37 39  1  0  0  0  0
 39 38  1  1  0  0  0
 39 41  1  0  0  0  0
 41 40  1  0  0  0  0
M  END
>  <MODEL>
4

>  <REMARK>
 VINA RESULT:      -7.9      1.687      2.576
  Name = 
  15 active torsions:
  status: ('A' for Active; 'I' for Inactive)
    1  A    between atoms: C_1  and  C_13
    2  A    between atoms: O_3  and  C_18
    3  A    between atoms: N_4  and  N_19
    4  A    between atoms: C_7  and  C_13
    5  A    between atoms: C_7  and  N_19
    6  A    between atoms: C_15  and  C_20
    7  A    between atoms: C_15  and  C_26
    8  A    between atoms: C_17  and  C_25
    9  A    between atoms: C_17  and  N_39
   10  A    between atoms: C_20  and  C_34
   11  A    between atoms: N_21  and  C_27
   12  A    between atoms: C_25  and  C_37
   13  A    between atoms: C_26  and  C_37
   14  A    between atoms: C_35  and  C_36
   15  A    between atoms: C_35  and  N_39
                            x       y       z     vdW  Elec       q    Type
                         _______ _______ _______ _____ _____    ______ ____

>  <TORSDO>
F 15

$$$$
=
 OpenBabel11032419553D

 41 43  0  0  1  0  0  0  0  0999 V2000
  189.1200  177.5390  144.8110 C   0  0  1  0  0  3  0  0  0  0  0  0
  188.1950  177.2290  147.4970 C   0  0  0  0  0  0  0  0  0  0  0  0
  187.7770  176.9690  148.6570 O   0  0  0  0  0  0  0  0  0  0  0  0
  187.7580  178.0170  145.2580 C   0  0  0  0  0  3  0  0  0  0  0  0
  190.0340  177.1560  145.9630 C   0  0  0  0  0  0  0  0  0  0  0  0
  187.3050  177.8290  146.4950 C   0  0  0  0  0  0  0  0  0  0  0  0
  189.5640  176.9840  147.1640 N   0  0  0  0  0  0  0  0  0  0  0  0
  191.4020  176.9540  145.7530 O   0  0  0  0  0  0  0  0  0  0  0  0
  192.1390  175.9390  146.4210 C   0  0  0  0  0  1  0  0  0  0  0  0
  188.9700  176.3550  143.8680 C   0  0  0  0  0  2  0  0  0  0  0  0
  188.6020  176.8260  142.4720 C   0  0  0  0  0  2  0  0  0  0  0  0
  189.6200  177.7370  141.9840 N   0  0  0  0  0  2  0  0  0  0  0  0
  189.0460  178.4470  140.9230 N   0  0  0  0  0  2  0  0  0  0  0  0
  189.0890  178.2090  137.3440 N   0  0  0  0  0  0  0  0  0  0  0  0
  189.9350  177.1600  137.4520 C   0  0  0  0  0  0  0  0  0  0  0  0
  190.4310  176.4610  136.3030 N   0  0  0  0  0  2  0  0  0  0  0  0
  188.7270  178.7170  138.5200 N   0  0  0  0  0  0  0  0  0  0  0  0
  190.2630  176.7930  139.0700 S   0  0  0  0  0  0  0  0  0  0  0  0
  189.2760  178.0660  139.5680 C   0  0  0  0  0  0  0  0  0  0  0  0
  192.6770  175.9060  135.7880 C   0  0  0  0  0  3  0  0  0  0  0  0
  195.2040  175.7960  135.6540 C   0  0  0  0  0  1  0  0  0  0  0  0
  192.7400  172.8810  135.2660 C   0  0  0  0  0  3  0  0  0  0  0  0
  191.5770  173.0530  135.8930 C   0  0  0  0  0  3  0  0  0  0  0  0
  191.4930  175.4990  136.2540 C   0  0  0  0  0  0  0  0  0  0  0  0
  193.8990  175.0840  135.6550 C   0  0  0  0  0  0  0  0  0  0  0  0
  193.9110  173.7730  135.3810 C   0  0  0  0  0  3  0  0  0  0  0  0
  191.3420  174.1470  136.8790 C   0  0  0  0  0  2  0  0  0  0  0  0
  185.9440  178.3160  146.8670 C   0  0  0  0  0  2  0  0  0  0  0  0
  185.5150  179.4260  145.9220 C   0  0  0  0  0  2  0  0  0  0  0  0
  184.5220  178.8970  144.9070 C   0  0  1  0  0  3  0  0  0  0  0  0
  183.2200  179.0780  145.3820 O   0  0  0  0  0  1  0  0  0  0  0  0
  184.7030  179.6440  143.6000 C   0  0  0  0  0  2  0  0  0  0  0  0
  185.1650  178.6950  142.5070 C   0  0  0  0  0  2  0  0  0  0  0  0
  183.9680  178.0950  141.7850 C   0  0  0  0  0  2  0  0  0  0  0  0
  185.3450  179.0180  138.5310 O   0  0  0  0  0  0  0  0  0  0  0  0
  185.2620  178.7390  139.7570 C   0  0  0  0  0  3  0  0  0  0  0  0
  184.0020  178.4180  140.3650 N   0  0  0  0  0  0  0  0  0  0  0  0
  181.6830  177.6120  140.4120 C   0  0  0  0  0  1  0  0  0  0  0  0
  182.7510  178.3310  139.6090 C   0  0  1  0  0  3  0  0  0  0  0  0
  181.6920  179.6490  137.7750 C   0  0  0  0  0  1  0  0  0  0  0  0
  182.2570  179.7060  139.1820 C   0  0  0  0  0  2  0  0  0  0  0  0
  1 10  1  6  0  0  0
  1  4  1  0  0  0  0
  1  5  1  0  0  0  0
  2  3  2  0  0  0  0
  4  6  2  0  0  0  0
  5  7  2  0  0  0  0
  6 28  1  0  0  0  0
  6  2  1  0  0  0  0
  7  2  1  0  0  0  0
  8  5  1  0  0  0  0
  8  9  1  0  0  0  0
 11 10  1  0  0  0  0
 12 11  1  0  0  0  0
 13 12  1  0  0  0  0
 14 15  2  0  0  0  0
 14 17  1  0  0  0  0
 15 18  1  0  0  0  0
 16 15  1  0  0  0  0
 17 19  2  0  0  0  0
 18 19  1  0  0  0  0
 19 13  1  0  0  0  0
 20 24  2  0  0  0  0
 21 25  1  0  0  0  0
 22 26  1  0  0  0  0
 22 23  2  0  0  0  0
 23 27  1  0  0  0  0
 24 16  1  0  0  0  0
 24 27  1  0  0  0  0
 25 20  1  0  0  0  0
 26 25  2  0  0  0  0
 29 28  1  0  0  0  0
 30 31  1  1  0  0  0
 30 29  1  0  0  0  0
 32 30  1  0  0  0  0
 33 32  1  0  0  0  0
 34 33  1  0  0  0  0
 35 36  2  0  0  0  0
 36 37  1  0  0  0  0
 37 34  1  0  0  0  0
 39 37  1  0  0  0  0
 39 38  1  1  0  0  0
 40 41  1  0  0  0  0
 41 39  1  0  0  0  0
M  END
>  <MODEL>
5

>  <REMARK>
 VINA RESULT:      -7.9      1.796      6.607
  Name = 
  15 active torsions:
  status: ('A' for Active; 'I' for Inactive)
    1  A    between atoms: C_1  and  C_13
    2  A    between atoms: O_3  and  C_18
    3  A    between atoms: N_4  and  N_19
    4  A    between atoms: C_7  and  C_13
    5  A    between atoms: C_7  and  N_19
    6  A    between atoms: C_15  and  C_20
    7  A    between atoms: C_15  and  C_26
    8  A    between atoms: C_17  and  C_25
    9  A    between atoms: C_17  and  N_39
   10  A    between atoms: C_20  and  C_34
   11  A    between atoms: N_21  and  C_27
   12  A    between atoms: C_25  and  C_37
   13  A    between atoms: C_26  and  C_37
   14  A    between atoms: C_35  and  C_36
   15  A    between atoms: C_35  and  N_39
                            x       y       z     vdW  Elec       q    Type
                         _______ _______ _______ _____ _____    ______ ____

>  <TORSDO>
F 15

$$$$
=
 OpenBabel11032419553D

 41 43  0  0  1  0  0  0  0  0999 V2000
  184.9190  178.2660  143.7110 C   0  0  1  0  0  3  0  0  0  0  0  0
  185.6830  179.0150  146.3610 C   0  0  0  0  0  0  0  0  0  0  0  0
  186.0530  179.4570  147.4810 O   0  0  0  0  0  0  0  0  0  0  0  0
  186.1460  177.7030  144.3880 C   0  0  0  0  0  3  0  0  0  0  0  0
  184.0000  179.0210  144.6570 C   0  0  0  0  0  0  0  0  0  0  0  0
  186.5330  178.0880  145.6030 C   0  0  0  0  0  0  0  0  0  0  0  0
  184.4020  179.3800  145.8400 N   0  0  0  0  0  0  0  0  0  0  0  0
  182.7030  179.3710  144.2650 O   0  0  0  0  0  0  0  0  0  0  0  0
  181.8070  178.4450  143.6650 C   0  0  0  0  0  1  0  0  0  0  0  0
  185.3310  179.1810  142.5680 C   0  0  0  0  0  2  0  0  0  0  0  0
  184.6580  178.7580  141.2740 C   0  0  0  0  0  2  0  0  0  0  0  0
  185.2280  179.5000  140.1660 N   0  0  0  0  0  2  0  0  0  0  0  0
  184.1540  179.9270  139.3760 N   0  0  0  0  0  2  0  0  0  0  0  0
  181.8670  178.3790  137.0880 N   0  0  0  0  0  0  0  0  0  0  0  0
  182.5120  177.2060  137.2800 C   0  0  0  0  0  0  0  0  0  0  0  0
  182.1040  175.9980  136.6250 N   0  0  0  0  0  2  0  0  0  0  0  0
  182.3820  179.3850  137.7910 N   0  0  0  0  0  0  0  0  0  0  0  0
  183.7800  177.3720  138.3870 S   0  0  0  0  0  0  0  0  0  0  0  0
  183.4310  179.0130  138.5540 C   0  0  0  0  0  0  0  0  0  0  0  0
  182.1190  173.6290  136.7020 C   0  0  0  0  0  3  0  0  0  0  0  0
  181.7080  171.1630  136.2960 C   0  0  0  0  0  1  0  0  0  0  0  0
  184.9500  172.7910  137.5460 C   0  0  0  0  0  3  0  0  0  0  0  0
  185.1110  174.0590  137.1700 C   0  0  0  0  0  3  0  0  0  0  0  0
  182.8190  174.7570  136.5540 C   0  0  0  0  0  0  0  0  0  0  0  0
  182.6530  172.2510  136.6610 C   0  0  0  0  0  0  0  0  0  0  0  0
  183.8750  171.8930  137.0770 C   0  0  0  0  0  3  0  0  0  0  0  0
  184.2570  174.7150  136.1380 C   0  0  0  0  0  2  0  0  0  0  0  0
  187.7630  177.4990  146.2090 C   0  0  0  0  0  2  0  0  0  0  0  0
  188.7360  177.0920  145.1150 C   0  0  0  0  0  2  0  0  0  0  0  0
  189.8580  178.1060  145.0060 C   0  0  1  0  0  3  0  0  0  0  0  0
  191.0830  177.4810  145.2520 O   0  0  0  0  0  1  0  0  0  0  0  0
  189.8540  178.7030  143.6120 C   0  0  0  0  0  2  0  0  0  0  0  0
  189.6040  177.6210  142.5740 C   0  0  0  0  0  2  0  0  0  0  0  0
  188.6970  178.1460  141.4710 C   0  0  0  0  0  2  0  0  0  0  0  0
  190.6300  176.2770  138.9990 O   0  0  0  0  0  0  0  0  0  0  0  0
  190.2200  176.7280  140.1020 C   0  0  0  0  0  3  0  0  0  0  0  0
  189.1340  177.6640  140.1670 N   0  0  0  0  0  0  0  0  0  0  0  0
  189.3170  178.7800  137.9880 C   0  0  0  0  0  1  0  0  0  0  0  0
  188.3920  178.1080  138.9850 C   0  0  1  0  0  3  0  0  0  0  0  0
  187.9110  176.9470  136.8300 C   0  0  0  0  0  1  0  0  0  0  0  0
  187.6490  176.9550  138.3240 C   0  0  0  0  0  2  0  0  0  0  0  0
  1 10  1  6  0  0  0
  1  4  1  0  0  0  0
  1  5  1  0  0  0  0
  2  3  2  0  0  0  0
  4  6  2  0  0  0  0
  5  7  2  0  0  0  0
  6 28  1  0  0  0  0
  6  2  1  0  0  0  0
  7  2  1  0  0  0  0
  8  5  1  0  0  0  0
  9  8  1  0  0  0  0
 11 10  1  0  0  0  0
 12 11  1  0  0  0  0
 13 12  1  0  0  0  0
 14 15  2  0  0  0  0
 14 17  1  0  0  0  0
 15 18  1  0  0  0  0
 16 15  1  0  0  0  0
 17 19  2  0  0  0  0
 18 19  1  0  0  0  0
 19 13  1  0  0  0  0
 21 25  1  0  0  0  0
 23 22  2  0  0  0  0
 24 16  1  0  0  0  0
 24 20  2  0  0  0  0
 25 20  1  0  0  0  0
 25 26  2  0  0  0  0
 26 22  1  0  0  0  0
 27 24  1  0  0  0  0
 27 23  1  0  0  0  0
 29 28  1  0  0  0  0
 30 29  1  0  0  0  0
 30 31  1  6  0  0  0
 32 30  1  0  0  0  0
 33 32  1  0  0  0  0
 34 33  1  0  0  0  0
 35 36  2  0  0  0  0
 36 37  1  0  0  0  0
 37 34  1  0  0  0  0
 39 38  1  6  0  0  0
 39 37  1  0  0  0  0
 40 41  1  0  0  0  0
 41 39  1  0  0  0  0
M  END
>  <MODEL>
6

>  <REMARK>
 VINA RESULT:      -7.8      3.156      6.346
  Name = 
  15 active torsions:
  status: ('A' for Active; 'I' for Inactive)
    1  A    between atoms: C_1  and  C_13
    2  A    between atoms: O_3  and  C_18
    3  A    between atoms: N_4  and  N_19
    4  A    between atoms: C_7  and  C_13
    5  A    between atoms: C_7  and  N_19
    6  A    between atoms: C_15  and  C_20
    7  A    between atoms: C_15  and  C_26
    8  A    between atoms: C_17  and  C_25
    9  A    between atoms: C_17  and  N_39
   10  A    between atoms: C_20  and  C_34
   11  A    between atoms: N_21  and  C_27
   12  A    between atoms: C_25  and  C_37
   13  A    between atoms: C_26  and  C_37
   14  A    between atoms: C_35  and  C_36
   15  A    between atoms: C_35  and  N_39
                            x       y       z     vdW  Elec       q    Type
                         _______ _______ _______ _____ _____    ______ ____

>  <TORSDO>
F 15

$$$$
=
 OpenBabel11032419553D

 41 43  0  0  1  0  0  0  0  0999 V2000
  183.5060  178.6570  139.4040 C   0  0  1  0  0  3  0  0  0  0  0  0
  182.6400  177.7570  136.8330 C   0  0  0  0  0  0  0  0  0  0  0  0
  182.1700  177.2940  135.7600 O   0  0  0  0  0  0  0  0  0  0  0  0
  184.3090  177.6830  138.5760 C   0  0  0  0  0  3  0  0  0  0  0  0
  182.3740  179.3160  138.6330 C   0  0  0  0  0  0  0  0  0  0  0  0
  183.8850  177.2230  137.4010 C   0  0  0  0  0  0  0  0  0  0  0  0
  181.9830  178.8490  137.4840 N   0  0  0  0  0  0  0  0  0  0  0  0
  181.7070  180.4300  139.1550 O   0  0  0  0  0  0  0  0  0  0  0  0
  181.5240  181.6300  138.4170 C   0  0  0  0  0  1  0  0  0  0  0  0
  182.9410  177.9540  140.6290 C   0  0  0  0  0  2  0  0  0  0  0  0
  183.9250  178.0170  141.7830 C   0  0  0  0  0  2  0  0  0  0  0  0
  183.9060  179.3460  142.3640 N   0  0  0  0  0  2  0  0  0  0  0  0
  183.4940  179.1960  143.6940 N   0  0  0  0  0  2  0  0  0  0  0  0
  185.0770  178.3500  146.7990 N   0  0  0  0  0  0  0  0  0  0  0  0
  186.2420  178.1940  146.1300 C   0  0  0  0  0  0  0  0  0  0  0  0
  187.4580  177.8290  146.7960 N   0  0  0  0  0  2  0  0  0  0  0  0
  184.0620  178.7040  146.0140 N   0  0  0  0  0  0  0  0  0  0  0  0
  186.0580  178.5230  144.4820 S   0  0  0  0  0  0  0  0  0  0  0  0
  184.4200  178.8430  144.7200 C   0  0  0  0  0  0  0  0  0  0  0  0
  189.7230  177.1650  147.0100 C   0  0  0  0  0  3  0  0  0  0  0  0
  191.8840  175.9910  147.6160 C   0  0  0  0  0  1  0  0  0  0  0  0
  191.0980  177.8460  144.3500 C   0  0  0  0  0  3  0  0  0  0  0  0
  189.8030  177.8930  144.0400 C   0  0  0  0  0  3  0  0  0  0  0  0
  188.6920  177.4110  146.1980 C   0  0  0  0  0  0  0  0  0  0  0  0
  191.0750  176.7230  146.6060 C   0  0  0  0  0  0  0  0  0  0  0  0
  191.6800  177.0680  145.4620 C   0  0  0  0  0  3  0  0  0  0  0  0
  188.7710  177.0750  144.7410 C   0  0  0  0  0  2  0  0  0  0  0  0
  184.7230  176.2520  136.6390 C   0  0  0  0  0  2  0  0  0  0  0  0
  186.1460  176.2640  137.1740 C   0  0  0  0  0  2  0  0  0  0  0  0
  187.1320  176.4570  136.0390 C   0  0  1  0  0  3  0  0  0  0  0  0
  186.5360  176.0930  134.8290 O   0  0  0  0  0  1  0  0  0  0  0  0
  187.5510  177.9140  135.9890 C   0  0  0  0  0  2  0  0  0  0  0  0
  189.0530  178.0400  136.1830 C   0  0  0  0  0  2  0  0  0  0  0  0
  189.3680  178.4710  137.6080 C   0  0  0  0  0  2  0  0  0  0  0  0
  190.8190  175.2130  138.3960 O   0  0  0  0  0  0  0  0  0  0  0  0
  190.4160  176.2150  137.7470 C   0  0  0  0  0  3  0  0  0  0  0  0
  189.8080  177.3360  138.4080 N   0  0  0  0  0  0  0  0  0  0  0  0
  191.0330  177.4710  140.5320 C   0  0  0  0  0  1  0  0  0  0  0  0
  189.6720  177.4240  139.8630 C   0  0  1  0  0  3  0  0  0  0  0  0
  187.5460  178.1760  140.9310 C   0  0  0  0  0  1  0  0  0  0  0  0
  188.8370  178.6290  140.2760 C   0  0  0  0  0  2  0  0  0  0  0  0
  1 10  1  1  0  0  0
  2  6  1  0  0  0  0
  2  7  1  0  0  0  0
  3  2  2  0  0  0  0
  4  1  1  0  0  0  0
  5  8  1  0  0  0  0
  5  1  1  0  0  0  0
  6  4  2  0  0  0  0
  7  5  2  0  0  0  0
  9  8  1  0  0  0  0
 10 11  1  0  0  0  0
 11 12  1  0  0  0  0
 12 13  1  0  0  0  0
 13 19  1  0  0  0  0
 15 16  1  0  0  0  0
 15 14  2  0  0  0  0
 17 14  1  0  0  0  0
 18 19  1  0  0  0  0
 18 15  1  0  0  0  0
 19 17  2  0  0  0  0
 22 26  1  0  0  0  0
 23 22  2  0  0  0  0
 23 27  1  0  0  0  0
 24 16  1  0  0  0  0
 24 20  2  0  0  0  0
 25 20  1  0  0  0  0
 25 21  1  0  0  0  0
 26 25  2  0  0  0  0
 27 24  1  0  0  0  0
 28 29  1  0  0  0  0
 28  6  1  0  0  0  0
 30 31  1  6  0  0  0
 30 29  1  0  0  0  0
 32 30  1  0  0  0  0
 32 33  1  0  0  0  0
 33 34  1  0  0  0  0
 34 37  1  0  0  0  0
 36 35  2  0  0  0  0
 36 37  1  0  0  0  0
 37 39  1  0  0  0  0
 39 41  1  0  0  0  0
 39 38  1  1  0  0  0
 41 40  1  0  0  0  0
M  END
>  <MODEL>
7

>  <REMARK>
 VINA RESULT:      -7.7      3.213      7.813
  Name = 
  15 active torsions:
  status: ('A' for Active; 'I' for Inactive)
    1  A    between atoms: C_1  and  C_13
    2  A    between atoms: O_3  and  C_18
    3  A    between atoms: N_4  and  N_19
    4  A    between atoms: C_7  and  C_13
    5  A    between atoms: C_7  and  N_19
    6  A    between atoms: C_15  and  C_20
    7  A    between atoms: C_15  and  C_26
    8  A    between atoms: C_17  and  C_25
    9  A    between atoms: C_17  and  N_39
   10  A    between atoms: C_20  and  C_34
   11  A    between atoms: N_21  and  C_27
   12  A    between atoms: C_25  and  C_37
   13  A    between atoms: C_26  and  C_37
   14  A    between atoms: C_35  and  C_36
   15  A    between atoms: C_35  and  N_39
                            x       y       z     vdW  Elec       q    Type
                         _______ _______ _______ _____ _____    ______ ____

>  <TORSDO>
F 15

$$$$
=
 OpenBabel11032419553D

 41 43  0  0  1  0  0  0  0  0999 V2000
  188.6600  177.7120  144.2210 C   0  0  1  0  0  3  0  0  0  0  0  0
  187.9250  177.8520  146.9790 C   0  0  0  0  0  0  0  0  0  0  0  0
  187.6090  177.7870  148.1970 O   0  0  0  0  0  0  0  0  0  0  0  0
  187.2650  178.0810  144.6680 C   0  0  0  0  0  3  0  0  0  0  0  0
  189.6770  177.7110  145.3510 C   0  0  0  0  0  0  0  0  0  0  0  0
  186.9060  178.0980  145.9500 C   0  0  0  0  0  0  0  0  0  0  0  0
  189.2980  177.7330  146.5940 N   0  0  0  0  0  0  0  0  0  0  0  0
  191.0470  177.6600  145.0780 O   0  0  0  0  0  0  0  0  0  0  0  0
  191.7050  178.6260  144.2700 C   0  0  0  0  0  1  0  0  0  0  0  0
  188.6460  176.3470  143.5510 C   0  0  0  0  0  2  0  0  0  0  0  0
  189.6190  176.3130  142.3860 C   0  0  0  0  0  2  0  0  0  0  0  0
  189.4730  177.5230  141.5990 N   0  0  0  0  0  2  0  0  0  0  0  0
  190.4750  177.4870  140.6210 N   0  0  0  0  0  2  0  0  0  0  0  0
  190.6180  176.7750  137.1080 N   0  0  0  0  0  0  0  0  0  0  0  0
  189.2920  176.5130  137.1360 C   0  0  0  0  0  0  0  0  0  0  0  0
  188.5680  176.1310  135.9590 N   0  0  0  0  0  2  0  0  0  0  0  0
  191.1100  177.1270  138.2940 N   0  0  0  0  0  0  0  0  0  0  0  0
  188.6490  176.7360  138.6840 S   0  0  0  0  0  0  0  0  0  0  0  0
  190.1740  177.1570  139.2660 C   0  0  0  0  0  0  0  0  0  0  0  0
  186.2400  176.4740  135.6770 C   0  0  0  0  0  3  0  0  0  0  0  0
  183.9440  177.1050  134.8130 C   0  0  0  0  0  1  0  0  0  0  0  0
  184.8270  174.1290  137.0680 C   0  0  0  0  0  3  0  0  0  0  0  0
  186.0800  173.6930  136.9410 C   0  0  0  0  0  3  0  0  0  0  0  0
  187.2350  175.6080  135.8820 C   0  0  0  0  0  0  0  0  0  0  0  0
  184.8020  176.1500  135.5640 C   0  0  0  0  0  0  0  0  0  0  0  0
  184.1910  175.1510  136.2140 C   0  0  0  0  0  3  0  0  0  0  0  0
  186.9850  174.1320  135.8390 C   0  0  0  0  0  2  0  0  0  0  0  0
  185.5070  178.4600  146.3230 C   0  0  0  0  0  2  0  0  0  0  0  0
  184.5550  178.0680  145.2050 C   0  0  0  0  0  2  0  0  0  0  0  0
  183.7840  179.2800  144.7230 C   0  0  1  0  0  3  0  0  0  0  0  0
  184.6760  180.2590  144.2760 O   0  0  0  0  0  1  0  0  0  0  0  0
  182.8650  178.8640  143.5900 C   0  0  0  0  0  2  0  0  0  0  0  0
  183.6760  178.3800  142.4000 C   0  0  0  0  0  2  0  0  0  0  0  0
  182.8470  178.4570  141.1270 C   0  0  0  0  0  2  0  0  0  0  0  0
  185.7090  178.9220  138.9080 O   0  0  0  0  0  0  0  0  0  0  0  0
  184.9410  179.0190  139.9010 C   0  0  0  0  0  3  0  0  0  0  0  0
  183.6910  178.3150  139.9480 N   0  0  0  0  0  0  0  0  0  0  0  0
  182.6490  176.1400  139.4870 C   0  0  0  0  0  1  0  0  0  0  0  0
  183.2510  177.4000  138.8930 C   0  0  1  0  0  3  0  0  0  0  0  0
  180.8450  177.6380  138.2820 C   0  0  0  0  0  1  0  0  0  0  0  0
  182.2610  178.0670  137.9490 C   0  0  0  0  0  2  0  0  0  0  0  0
  1 10  1  1  0  0  0
  1  4  1  0  0  0  0
  1  5  1  0  0  0  0
  2  3  2  0  0  0  0
  4  6  2  0  0  0  0
  5  7  2  0  0  0  0
  6 28  1  0  0  0  0
  6  2  1  0  0  0  0
  7  2  1  0  0  0  0
  8  5  1  0  0  0  0
  9  8  1  0  0  0  0
 11 10  1  0  0  0  0
 12 11  1  0  0  0  0
 13 12  1  0  0  0  0
 14 15  2  0  0  0  0
 14 17  1  0  0  0  0
 15 18  1  0  0  0  0
 16 15  1  0  0  0  0
 17 19  2  0  0  0  0
 18 19  1  0  0  0  0
 19 13  1  0  0  0  0
 20 24  2  0  0  0  0
 21 25  1  0  0  0  0
 23 22  2  0  0  0  0
 24 16  1  0  0  0  0
 25 20  1  0  0  0  0
 25 26  2  0  0  0  0
 26 22  1  0  0  0  0
 27 24  1  0  0  0  0
 27 23  1  0  0  0  0
 29 28  1  0  0  0  0
 30 31  1  6  0  0  0
 30 29  1  0  0  0  0
 32 30  1  0  0  0  0
 33 32  1  0  0  0  0
 34 33  1  0  0  0  0
 35 36  2  0  0  0  0
 36 37  1  0  0  0  0
 37 34  1  0  0  0  0
 39 38  1  1  0  0  0
 39 37  1  0  0  0  0
 41 40  1  0  0  0  0
 41 39  1  0  0  0  0
M  END
>  <MODEL>
8

>  <REMARK>
 VINA RESULT:      -7.6      2.413      7.010
  Name = 
  15 active torsions:
  status: ('A' for Active; 'I' for Inactive)
    1  A    between atoms: C_1  and  C_13
    2  A    between atoms: O_3  and  C_18
    3  A    between atoms: N_4  and  N_19
    4  A    between atoms: C_7  and  C_13
    5  A    between atoms: C_7  and  N_19
    6  A    between atoms: C_15  and  C_20
    7  A    between atoms: C_15  and  C_26
    8  A    between atoms: C_17  and  C_25
    9  A    between atoms: C_17  and  N_39
   10  A    between atoms: C_20  and  C_34
   11  A    between atoms: N_21  and  C_27
   12  A    between atoms: C_25  and  C_37
   13  A    between atoms: C_26  and  C_37
   14  A    between atoms: C_35  and  C_36
   15  A    between atoms: C_35  and  N_39
                            x       y       z     vdW  Elec       q    Type
                         _______ _______ _______ _____ _____    ______ ____

>  <TORSDO>
F 15

$$$$
=
 OpenBabel11032419553D

 41 43  0  0  1  0  0  0  0  0999 V2000
  188.9060  176.9970  145.9610 C   0  0  1  0  0  3  0  0  0  0  0  0
  190.8190  178.1610  144.1860 C   0  0  0  0  0  0  0  0  0  0  0  0
  191.6560  178.7770  143.4750 O   0  0  0  0  0  0  0  0  0  0  0  0
  188.5540  177.4110  144.5530 C   0  0  0  0  0  3  0  0  0  0  0  0
  190.4010  176.9890  146.2340 C   0  0  0  0  0  0  0  0  0  0  0  0
  189.4290  177.9990  143.7400 C   0  0  0  0  0  0  0  0  0  0  0  0
  191.2340  177.5680  145.4200 N   0  0  0  0  0  0  0  0  0  0  0  0
  190.9150  176.3800  147.3830 O   0  0  0  0  0  0  0  0  0  0  0  0
  192.1750  175.7240  147.4050 C   0  0  0  0  0  1  0  0  0  0  0  0
  188.2150  177.9130  146.9600 C   0  0  0  0  0  2  0  0  0  0  0  0
  186.7080  177.8610  146.7790 C   0  0  0  0  0  2  0  0  0  0  0  0
  186.3070  178.8260  145.7720 N   0  0  0  0  0  2  0  0  0  0  0  0
  184.9420  179.0680  145.9700 N   0  0  0  0  0  2  0  0  0  0  0  0
  181.9850  178.9390  143.9450 N   0  0  0  0  0  0  0  0  0  0  0  0
  182.7580  178.5960  142.8890 C   0  0  0  0  0  0  0  0  0  0  0  0
  182.2020  178.3410  141.5920 N   0  0  0  0  0  2  0  0  0  0  0  0
  182.6780  179.1210  145.0670 N   0  0  0  0  0  0  0  0  0  0  0  0
  184.3870  178.4790  143.3260 S   0  0  0  0  0  0  0  0  0  0  0  0
  184.0020  178.9110  144.9090 C   0  0  0  0  0  0  0  0  0  0  0  0
  182.7780  177.0420  139.6950 C   0  0  0  0  0  3  0  0  0  0  0  0
  182.7470  175.6390  137.5860 C   0  0  0  0  0  1  0  0  0  0  0  0
  185.4750  178.1050  138.6820 C   0  0  0  0  0  3  0  0  0  0  0  0
  185.0470  179.0820  139.4810 C   0  0  0  0  0  3  0  0  0  0  0  0
  182.9060  178.1980  140.3510 C   0  0  0  0  0  0  0  0  0  0  0  0
  183.4100  176.6870  138.4070 C   0  0  0  0  0  0  0  0  0  0  0  0
  184.6100  177.1230  138.0000 C   0  0  0  0  0  3  0  0  0  0  0  0
  183.6010  179.3630  139.7170 C   0  0  0  0  0  2  0  0  0  0  0  0
  189.0120  178.3940  142.3630 C   0  0  0  0  0  2  0  0  0  0  0  0
  189.1480  177.2090  141.4200 C   0  0  0  0  0  2  0  0  0  0  0  0
  190.1350  177.5290  140.3150 C   0  0  1  0  0  3  0  0  0  0  0  0
  191.3900  177.0080  140.6390 O   0  0  0  0  0  1  0  0  0  0  0  0
  189.6410  176.9170  139.0180 C   0  0  0  0  0  2  0  0  0  0  0  0
  189.0470  177.9880  138.1190 C   0  0  0  0  0  2  0  0  0  0  0  0
  189.4220  177.7290  136.6670 C   0  0  0  0  0  2  0  0  0  0  0  0
  186.3070  177.7390  134.7620 O   0  0  0  0  0  0  0  0  0  0  0  0
  187.3060  178.1360  135.4180 C   0  0  0  0  0  3  0  0  0  0  0  0
  188.2820  177.2120  135.9220 N   0  0  0  0  0  0  0  0  0  0  0  0
  189.6210  175.1880  135.5490 C   0  0  0  0  0  1  0  0  0  0  0  0
  188.2250  175.7720  135.6610 C   0  0  1  0  0  3  0  0  0  0  0  0
  187.4350  173.5470  136.4640 C   0  0  0  0  0  1  0  0  0  0  0  0
  187.4290  175.0400  136.7320 C   0  0  0  0  0  2  0  0  0  0  0  0
  1  5  1  0  0  0  0
  1 10  1  1  0  0  0
  2  7  1  0  0  0  0
  3  2  2  0  0  0  0
  4  1  1  0  0  0  0
  5  8  1  0  0  0  0
  6  2  1  0  0  0  0
  6  4  2  0  0  0  0
  7  5  2  0  0  0  0
  8  9  1  0  0  0  0
 11 10  1  0  0  0  0
 12 13  1  0  0  0  0
 12 11  1  0  0  0  0
 14 17  1  0  0  0  0
 15 18  1  0  0  0  0
 15 14  2  0  0  0  0
 16 15  1  0  0  0  0
 18 19  1  0  0  0  0
 19 17  2  0  0  0  0
 19 13  1  0  0  0  0
 20 24  2  0  0  0  0
 21 25  1  0  0  0  0
 22 23  2  0  0  0  0
 23 27  1  0  0  0  0
 24 16  1  0  0  0  0
 25 20  1  0  0  0  0
 26 25  2  0  0  0  0
 26 22  1  0  0  0  0
 27 24  1  0  0  0  0
 28  6  1  0  0  0  0
 29 28  1  0  0  0  0
 30 31  1  1  0  0  0
 30 29  1  0  0  0  0
 32 30  1  0  0  0  0
 33 32  1  0  0  0  0
 34 33  1  0  0  0  0
 35 36  2  0  0  0  0
 36 37  1  0  0  0  0
 37 34  1  0  0  0  0
 39 38  1  1  0  0  0
 39 37  1  0  0  0  0
 39 41  1  0  0  0  0
 40 41  1  0  0  0  0
M  END
>  <MODEL>
9

>  <REMARK>
 VINA RESULT:      -7.4      3.265      9.112
  Name = 
  15 active torsions:
  status: ('A' for Active; 'I' for Inactive)
    1  A    between atoms: C_1  and  C_13
    2  A    between atoms: O_3  and  C_18
    3  A    between atoms: N_4  and  N_19
    4  A    between atoms: C_7  and  C_13
    5  A    between atoms: C_7  and  N_19
    6  A    between atoms: C_15  and  C_20
    7  A    between atoms: C_15  and  C_26
    8  A    between atoms: C_17  and  C_25
    9  A    between atoms: C_17  and  N_39
   10  A    between atoms: C_20  and  C_34
   11  A    between atoms: N_21  and  C_27
   12  A    between atoms: C_25  and  C_37
   13  A    between atoms: C_26  and  C_37
   14  A    between atoms: C_35  and  C_36
   15  A    between atoms: C_35  and  N_39
                            x       y       z     vdW  Elec       q    Type
                         _______ _______ _______ _____ _____    ______ ____

>  <TORSDO>
F 15

$$$$
