=
 OpenBabel11032419323D

 31 34  0  0  0  0  0  0  0  0999 V2000
  182.5990  178.8220  143.2610 C   0  0  0  0  0  0  0  0  0  0  0  0
  180.2250  178.5030  143.6060 C   0  0  0  0  0  0  0  0  0  0  0  0
  181.5060  178.7010  144.1230 C   0  0  0  0  0  3  0  0  0  0  0  0
  183.5210  178.8590  140.9990 C   0  0  0  0  0  0  0  0  0  0  0  0
  184.9730  179.1220  142.9280 C   0  0  0  0  0  3  0  0  0  0  0  0
  181.1180  178.5470  141.3550 C   0  0  0  0  0  3  0  0  0  0  0  0
  183.8780  179.0120  143.7840 C   0  0  0  0  0  3  0  0  0  0  0  0
  180.0300  178.4270  142.2230 C   0  0  0  0  0  3  0  0  0  0  0  0
  184.8070  179.0430  141.5370 C   0  0  0  0  0  0  0  0  0  0  0  0
  182.4110  178.7450  141.8610 C   0  0  0  0  0  0  0  0  0  0  0  0
  179.1420  178.3780  144.4650 O   0  0  0  0  0  1  0  0  0  0  0  0
  183.3460  178.7870  139.5750 N   0  0  0  0  0  0  0  0  0  0  0  0
  184.5680  177.5280  137.8280 C   0  0  0  0  0  3  0  0  0  0  0  0
  182.9040  176.3890  139.1650 C   0  0  0  0  0  3  0  0  0  0  0  0
  183.1570  175.2060  138.4660 C   0  0  0  0  0  3  0  0  0  0  0  0
  184.1140  175.1850  137.4480 C   0  0  0  0  0  3  0  0  0  0  0  0
  184.8200  176.3460  137.1290 C   0  0  0  0  0  3  0  0  0  0  0  0
  183.6050  177.5660  138.8520 C   0  0  0  0  0  0  0  0  0  0  0  0
  184.0670  180.8690  138.7940 O   0  0  0  0  0  1  0  0  0  0  0  0
  182.9670  180.0110  138.8750 C   0  0  0  0  0  2  0  0  0  0  0  0
  185.9050  179.1460  140.6710 O   0  0  0  0  0  0  0  0  0  0  0  0
  186.9340  178.1670  140.5930 C   0  0  0  0  0  2  0  0  0  0  0  0
  188.1970  178.6790  141.2660 C   0  0  0  0  0  2  0  0  0  0  0  0
  188.8210  177.6340  142.0050 O   0  0  0  0  0  0  0  0  0  0  0  0
  190.0900  177.5480  145.5020 C   0  0  0  0  0  3  0  0  0  0  0  0
  187.6590  177.6080  144.1180 C   0  0  0  0  0  3  0  0  0  0  0  0
  188.8840  177.5460  146.2080 C   0  0  0  0  0  3  0  0  0  0  0  0
  188.8630  177.6060  143.4040 C   0  0  0  0  0  0  0  0  0  0  0  0
  190.0800  177.5760  144.1050 C   0  0  0  0  0  3  0  0  0  0  0  0
  186.3860  177.5570  146.2680 C   0  0  0  0  0  1  0  0  0  0  0  0
  187.6690  177.5760  145.5160 C   0  0  0  0  0  0  0  0  0  0  0  0
  1  7  1  0  0  0  0
  1  3  2  0  0  0  0
  2  3  1  0  0  0  0
  2 11  1  0  0  0  0
  4  9  2  0  0  0  0
  4 10  1  0  0  0  0
  5  7  2  0  0  0  0
  6 10  2  0  0  0  0
  6  8  1  0  0  0  0
  8  2  2  0  0  0  0
  9  5  1  0  0  0  0
 10  1  1  0  0  0  0
 12  4  1  0  0  0  0
 13 18  1  0  0  0  0
 15 14  1  0  0  0  0
 16 15  2  0  0  0  0
 17 16  1  0  0  0  0
 17 13  2  0  0  0  0
 18 14  2  0  0  0  0
 18 12  1  0  0  0  0
 19 20  1  0  0  0  0
 20 12  1  0  0  0  0
 21  9  1  0  0  0  0
 22 21  1  0  0  0  0
 22 23  1  0  0  0  0
 23 24  1  0  0  0  0
 24 28  1  0  0  0  0
 25 27  1  0  0  0  0
 26 31  1  0  0  0  0
 28 29  1  0  0  0  0
 28 26  2  0  0  0  0
 29 25  2  0  0  0  0
 31 27  2  0  0  0  0
 31 30  1  0  0  0  0
M  END
>  <MODEL>
1

>  <REMARK>
 VINA RESULT:      -8.2      0.000      0.000
  Name = 
  8 active torsions:
  status: ('A' for Active; 'I' for Inactive)
    1  A    between atoms: C_10  and  N_28
    2  A    between atoms: C_16  and  O_23
    3  A    between atoms: C_18  and  C_22
    4  A    between atoms: C_18  and  O_23
    5  A    between atoms: C_19  and  O_29
    6  A    between atoms: C_22  and  O_29
    7  A    between atoms: C_24  and  N_28
    8  A    between atoms: N_28  and  C_30
                            x       y       z     vdW  Elec       q    Type
                         _______ _______ _______ _____ _____    ______ ____

>  <TORSDO>
F 8

$$$$
=
 OpenBabel11032419323D

 31 34  0  0  0  0  0  0  0  0999 V2000
  185.8080  178.7090  140.5540 C   0  0  0  0  0  0  0  0  0  0  0  0
  183.5900  178.9670  139.6190 C   0  0  0  0  0  0  0  0  0  0  0  0
  184.4570  179.0260  140.7130 C   0  0  0  0  0  3  0  0  0  0  0  0
  187.6680  178.0030  139.1370 C   0  0  0  0  0  0  0  0  0  0  0  0
  188.0140  178.4360  141.5010 C   0  0  0  0  0  3  0  0  0  0  0  0
  185.4240  178.2760  138.1950 C   0  0  0  0  0  3  0  0  0  0  0  0
  186.6670  178.7630  141.6520 C   0  0  0  0  0  3  0  0  0  0  0  0
  184.0740  178.5940  138.3610 C   0  0  0  0  0  3  0  0  0  0  0  0
  188.5240  178.0520  140.2510 C   0  0  0  0  0  0  0  0  0  0  0  0
  186.3040  178.3290  139.2860 C   0  0  0  0  0  0  0  0  0  0  0  0
  182.2480  179.2760  139.7820 O   0  0  0  0  0  1  0  0  0  0  0  0
  188.1880  177.6200  137.8540 N   0  0  0  0  0  0  0  0  0  0  0  0
  189.6510  175.6560  137.4840 C   0  0  0  0  0  3  0  0  0  0  0  0
  187.2600  175.4260  137.1920 C   0  0  0  0  0  3  0  0  0  0  0  0
  187.4330  174.0800  136.8570 C   0  0  0  0  0  3  0  0  0  0  0  0
  188.7140  173.5240  136.8350 C   0  0  0  0  0  3  0  0  0  0  0  0
  189.8230  174.3110  137.1490 C   0  0  0  0  0  3  0  0  0  0  0  0
  188.3670  176.2310  137.5060 C   0  0  0  0  0  0  0  0  0  0  0  0
  189.0210  179.7960  137.6720 O   0  0  0  0  0  1  0  0  0  0  0  0
  188.5970  178.6830  136.9420 C   0  0  0  0  0  2  0  0  0  0  0  0
  189.8760  177.7170  140.0940 O   0  0  0  0  0  0  0  0  0  0  0  0
  190.5460  176.7650  140.9120 C   0  0  0  0  0  2  0  0  0  0  0  0
  191.3040  177.4700  142.0250 C   0  0  0  0  0  2  0  0  0  0  0  0
  191.5100  176.5840  143.1200 O   0  0  0  0  0  0  0  0  0  0  0  0
  190.9800  176.7440  146.8000 C   0  0  0  0  0  3  0  0  0  0  0  0
  189.5560  177.1350  144.4230 C   0  0  0  0  0  3  0  0  0  0  0  0
  189.6340  177.1170  146.8440 C   0  0  0  0  0  3  0  0  0  0  0  0
  190.9030  176.7570  144.3700 C   0  0  0  0  0  0  0  0  0  0  0  0
  191.6130  176.5640  145.5670 C   0  0  0  0  0  3  0  0  0  0  0  0
  187.4860  177.6920  145.7060 C   0  0  0  0  0  1  0  0  0  0  0  0
  188.9220  177.3120  145.6570 C   0  0  0  0  0  0  0  0  0  0  0  0
  1  3  2  0  0  0  0
  1  7  1  0  0  0  0
  2 11  1  0  0  0  0
  2  3  1  0  0  0  0
  4 10  1  0  0  0  0
  4  9  2  0  0  0  0
  5  7  2  0  0  0  0
  6  8  1  0  0  0  0
  6 10  2  0  0  0  0
  8  2  2  0  0  0  0
  9  5  1  0  0  0  0
 10  1  1  0  0  0  0
 12  4  1  0  0  0  0
 13 18  1  0  0  0  0
 14 18  2  0  0  0  0
 15 14  1  0  0  0  0
 16 15  2  0  0  0  0
 16 17  1  0  0  0  0
 17 13  2  0  0  0  0
 18 12  1  0  0  0  0
 20 19  1  0  0  0  0
 20 12  1  0  0  0  0
 21  9  1  0  0  0  0
 21 22  1  0  0  0  0
 22 23  1  0  0  0  0
 23 24  1  0  0  0  0
 24 28  1  0  0  0  0
 25 27  1  0  0  0  0
 26 31  1  0  0  0  0
 28 26  2  0  0  0  0
 28 29  1  0  0  0  0
 29 25  2  0  0  0  0
 31 30  1  0  0  0  0
 31 27  2  0  0  0  0
M  END
>  <MODEL>
2

>  <REMARK>
 VINA RESULT:      -7.9      2.801      4.273
  Name = 
  8 active torsions:
  status: ('A' for Active; 'I' for Inactive)
    1  A    between atoms: C_10  and  N_28
    2  A    between atoms: C_16  and  O_23
    3  A    between atoms: C_18  and  C_22
    4  A    between atoms: C_18  and  O_23
    5  A    between atoms: C_19  and  O_29
    6  A    between atoms: C_22  and  O_29
    7  A    between atoms: C_24  and  N_28
    8  A    between atoms: N_28  and  C_30
                            x       y       z     vdW  Elec       q    Type
                         _______ _______ _______ _____ _____    ______ ____

>  <TORSDO>
F 8

$$$$
=
 OpenBabel11032419323D

 31 34  0  0  0  0  0  0  0  0999 V2000
  186.4270  174.6430  136.8840 C   0  0  0  0  0  0  0  0  0  0  0  0
  187.9380  172.8170  136.3930 C   0  0  0  0  0  0  0  0  0  0  0  0
  186.6390  173.3220  136.4800 C   0  0  0  0  0  3  0  0  0  0  0  0
  187.3010  176.8010  137.6200 C   0  0  0  0  0  0  0  0  0  0  0  0
  184.9090  176.4530  137.3910 C   0  0  0  0  0  3  0  0  0  0  0  0
  188.8250  174.9540  137.1110 C   0  0  0  0  0  3  0  0  0  0  0  0
  185.1260  175.1390  136.9760 C   0  0  0  0  0  3  0  0  0  0  0  0
  189.0300  173.6320  136.7070 C   0  0  0  0  0  3  0  0  0  0  0  0
  185.9860  177.2900  137.7180 C   0  0  0  0  0  0  0  0  0  0  0  0
  187.5260  175.4730  137.2050 C   0  0  0  0  0  0  0  0  0  0  0  0
  188.1460  171.5040  135.9970 O   0  0  0  0  0  1  0  0  0  0  0  0
  188.4070  177.6590  137.9460 N   0  0  0  0  0  0  0  0  0  0  0  0
  188.3240  177.8430  140.4140 C   0  0  0  0  0  3  0  0  0  0  0  0
  190.4110  177.2600  139.3380 C   0  0  0  0  0  3  0  0  0  0  0  0
  191.0330  177.1910  140.5870 C   0  0  0  0  0  3  0  0  0  0  0  0
  190.3000  177.4490  141.7490 C   0  0  0  0  0  3  0  0  0  0  0  0
  188.9460  177.7750  141.6620 C   0  0  0  0  0  3  0  0  0  0  0  0
  189.0500  177.5900  139.2360 C   0  0  0  0  0  0  0  0  0  0  0  0
  188.9340  179.9030  137.5610 O   0  0  0  0  0  1  0  0  0  0  0  0
  188.8120  178.6500  136.9540 C   0  0  0  0  0  2  0  0  0  0  0  0
  185.7740  178.6100  138.1410 O   0  0  0  0  0  0  0  0  0  0  0  0
  184.7170  178.9910  139.0140 C   0  0  0  0  0  2  0  0  0  0  0  0
  185.2210  179.0730  140.4450 C   0  0  0  0  0  2  0  0  0  0  0  0
  184.2700  178.5000  141.3360 O   0  0  0  0  0  0  0  0  0  0  0  0
  183.5060  178.9670  144.9490 C   0  0  0  0  0  3  0  0  0  0  0  0
  185.6290  178.1810  143.3040 C   0  0  0  0  0  3  0  0  0  0  0  0
  184.7330  178.6090  145.5140 C   0  0  0  0  0  3  0  0  0  0  0  0
  184.4040  178.5420  142.7290 C   0  0  0  0  0  0  0  0  0  0  0  0
  183.3420  178.9350  143.5610 C   0  0  0  0  0  3  0  0  0  0  0  0
  187.1030  177.8510  145.2940 C   0  0  0  0  0  1  0  0  0  0  0  0
  185.7940  178.2160  144.6920 C   0  0  0  0  0  0  0  0  0  0  0  0
  1  7  2  0  0  0  0
  1 10  1  0  0  0  0
  2  3  2  0  0  0  0
  2  8  1  0  0  0  0
  3  1  1  0  0  0  0
  4  9  1  0  0  0  0
  4 12  1  0  0  0  0
  5  9  2  0  0  0  0
  6 10  1  0  0  0  0
  7  5  1  0  0  0  0
  8  6  2  0  0  0  0
  9 21  1  0  0  0  0
 10  4  2  0  0  0  0
 11  2  1  0  0  0  0
 12 18  1  0  0  0  0
 13 17  1  0  0  0  0
 14 15  2  0  0  0  0
 15 16  1  0  0  0  0
 17 16  2  0  0  0  0
 18 14  1  0  0  0  0
 18 13  2  0  0  0  0
 20 19  1  0  0  0  0
 20 12  1  0  0  0  0
 21 22  1  0  0  0  0
 22 23  1  0  0  0  0
 23 24  1  0  0  0  0
 24 28  1  0  0  0  0
 25 27  1  0  0  0  0
 26 31  1  0  0  0  0
 28 26  2  0  0  0  0
 28 29  1  0  0  0  0
 29 25  2  0  0  0  0
 31 30  1  0  0  0  0
 31 27  2  0  0  0  0
M  END
>  <MODEL>
3

>  <REMARK>
 VINA RESULT:      -7.8      3.115      7.024
  Name = 
  8 active torsions:
  status: ('A' for Active; 'I' for Inactive)
    1  A    between atoms: C_10  and  N_28
    2  A    between atoms: C_16  and  O_23
    3  A    between atoms: C_18  and  C_22
    4  A    between atoms: C_18  and  O_23
    5  A    between atoms: C_19  and  O_29
    6  A    between atoms: C_22  and  O_29
    7  A    between atoms: C_24  and  N_28
    8  A    between atoms: N_28  and  C_30
                            x       y       z     vdW  Elec       q    Type
                         _______ _______ _______ _____ _____    ______ ____

>  <TORSDO>
F 8

$$$$
=
 OpenBabel11032419323D

 31 34  0  0  0  0  0  0  0  0999 V2000
  190.2830  177.4810  139.9690 C   0  0  0  0  0  0  0  0  0  0  0  0
  192.2390  176.7060  138.7740 C   0  0  0  0  0  0  0  0  0  0  0  0
  191.6360  177.1330  139.9580 C   0  0  0  0  0  3  0  0  0  0  0  0
  188.1570  177.7640  138.7990 C   0  0  0  0  0  0  0  0  0  0  0  0
  188.3400  178.2740  141.1670 C   0  0  0  0  0  3  0  0  0  0  0  0
  190.1370  176.9700  137.5990 C   0  0  0  0  0  3  0  0  0  0  0  0
  189.6870  177.9140  141.1540 C   0  0  0  0  0  3  0  0  0  0  0  0
  191.4910  176.6230  137.5960 C   0  0  0  0  0  3  0  0  0  0  0  0
  187.5680  178.2070  139.9970 C   0  0  0  0  0  0  0  0  0  0  0  0
  189.5190  177.4020  138.7810 C   0  0  0  0  0  0  0  0  0  0  0  0
  193.5850  176.3670  138.7650 O   0  0  0  0  0  1  0  0  0  0  0  0
  187.3670  177.6840  137.6030 N   0  0  0  0  0  0  0  0  0  0  0  0
  185.1260  176.7140  137.1900 C   0  0  0  0  0  3  0  0  0  0  0  0
  187.0580  175.2580  137.2380 C   0  0  0  0  0  3  0  0  0  0  0  0
  186.2330  174.1590  136.9860 C   0  0  0  0  0  3  0  0  0  0  0  0
  184.8550  174.3380  136.8380 C   0  0  0  0  0  3  0  0  0  0  0  0
  184.3020  175.6150  136.9390 C   0  0  0  0  0  3  0  0  0  0  0  0
  186.5150  176.5480  137.3460 C   0  0  0  0  0  0  0  0  0  0  0  0
  187.6810  178.2120  135.3480 O   0  0  0  0  0  1  0  0  0  0  0  0
  187.5080  178.7570  136.6230 C   0  0  0  0  0  2  0  0  0  0  0  0
  186.2140  178.5730  140.0020 O   0  0  0  0  0  0  0  0  0  0  0  0
  185.5710  179.1720  141.1200 C   0  0  0  0  0  2  0  0  0  0  0  0
  184.6570  178.1670  141.8010 C   0  0  0  0  0  2  0  0  0  0  0  0
  184.2730  178.6420  143.0870 O   0  0  0  0  0  0  0  0  0  0  0  0
  185.3560  178.5690  146.6470 C   0  0  0  0  0  3  0  0  0  0  0  0
  186.3210  177.8850  144.1110 C   0  0  0  0  0  3  0  0  0  0  0  0
  186.6330  178.0170  146.5100 C   0  0  0  0  0  3  0  0  0  0  0  0
  185.0430  178.4410  144.2390 C   0  0  0  0  0  0  0  0  0  0  0  0
  184.5640  178.7810  145.5160 C   0  0  0  0  0  3  0  0  0  0  0  0
  188.4800  177.1050  145.0980 C   0  0  0  0  0  1  0  0  0  0  0  0
  187.1150  177.6760  145.2430 C   0  0  0  0  0  0  0  0  0  0  0  0
  1  7  1  0  0  0  0
  2  3  1  0  0  0  0
  3  1  2  0  0  0  0
  4  9  2  0  0  0  0
  6 10  2  0  0  0  0
  7  5  2  0  0  0  0
  8  6  1  0  0  0  0
  8  2  2  0  0  0  0
  9 21  1  0  0  0  0
  9  5  1  0  0  0  0
 10  4  1  0  0  0  0
 10  1  1  0  0  0  0
 11  2  1  0  0  0  0
 12  4  1  0  0  0  0
 13 18  1  0  0  0  0
 14 18  2  0  0  0  0
 15 14  1  0  0  0  0
 16 17  1  0  0  0  0
 16 15  2  0  0  0  0
 17 13  2  0  0  0  0
 18 12  1  0  0  0  0
 19 20  1  0  0  0  0
 20 12  1  0  0  0  0
 21 22  1  0  0  0  0
 22 23  1  0  0  0  0
 23 24  1  0  0  0  0
 24 28  1  0  0  0  0
 26 28  2  0  0  0  0
 26 31  1  0  0  0  0
 27 25  1  0  0  0  0
 28 29  1  0  0  0  0
 29 25  2  0  0  0  0
 30 31  1  0  0  0  0
 31 27  2  0  0  0  0
M  END
>  <MODEL>
4

>  <REMARK>
 VINA RESULT:      -7.8      2.875      6.427
  Name = 
  8 active torsions:
  status: ('A' for Active; 'I' for Inactive)
    1  A    between atoms: C_10  and  N_28
    2  A    between atoms: C_16  and  O_23
    3  A    between atoms: C_18  and  C_22
    4  A    between atoms: C_18  and  O_23
    5  A    between atoms: C_19  and  O_29
    6  A    between atoms: C_22  and  O_29
    7  A    between atoms: C_24  and  N_28
    8  A    between atoms: N_28  and  C_30
                            x       y       z     vdW  Elec       q    Type
                         _______ _______ _______ _____ _____    ______ ____

>  <TORSDO>
F 8

$$$$
=
 OpenBabel11032419323D

 31 34  0  0  0  0  0  0  0  0999 V2000
  186.6090  177.9740  144.2440 C   0  0  0  0  0  0  0  0  0  0  0  0
  185.7210  178.1760  146.4870 C   0  0  0  0  0  0  0  0  0  0  0  0
  185.5160  178.0250  145.1140 C   0  0  0  0  0  3  0  0  0  0  0  0
  189.0210  178.0300  143.8650 C   0  0  0  0  0  0  0  0  0  0  0  0
  187.4840  177.7910  142.0000 C   0  0  0  0  0  3  0  0  0  0  0  0
  188.1170  178.2230  146.1320 C   0  0  0  0  0  3  0  0  0  0  0  0
  186.3980  177.8300  142.8730 C   0  0  0  0  0  3  0  0  0  0  0  0
  187.0190  178.2740  146.9960 C   0  0  0  0  0  3  0  0  0  0  0  0
  188.7980  177.8940  142.4840 C   0  0  0  0  0  0  0  0  0  0  0  0
  187.9250  178.0740  144.7510 C   0  0  0  0  0  0  0  0  0  0  0  0
  184.6340  178.2320  147.3470 O   0  0  0  0  0  1  0  0  0  0  0  0
  190.3640  178.1260  144.3640 N   0  0  0  0  0  0  0  0  0  0  0  0
  191.4080  175.8940  144.1150 C   0  0  0  0  0  3  0  0  0  0  0  0
  191.3320  176.9300  146.3000 C   0  0  0  0  0  3  0  0  0  0  0  0
  191.9830  175.8200  146.8460 C   0  0  0  0  0  3  0  0  0  0  0  0
  192.3450  174.7480  146.0260 C   0  0  0  0  0  3  0  0  0  0  0  0
  192.0580  174.7850  144.6610 C   0  0  0  0  0  3  0  0  0  0  0  0
  191.0340  176.9790  144.9290 C   0  0  0  0  0  0  0  0  0  0  0  0
  192.3930  179.2870  144.3500 O   0  0  0  0  0  1  0  0  0  0  0  0
  191.0040  179.4380  144.3470 C   0  0  0  0  0  2  0  0  0  0  0  0
  189.8940  177.8610  141.6110 O   0  0  0  0  0  0  0  0  0  0  0  0
  190.1990  176.7470  140.7800 C   0  0  0  0  0  2  0  0  0  0  0  0
  190.6210  177.2220  139.3990 C   0  0  0  0  0  2  0  0  0  0  0  0
  189.7820  178.2880  138.9670 O   0  0  0  0  0  0  0  0  0  0  0  0
  188.0470  177.8690  135.7010 C   0  0  0  0  0  3  0  0  0  0  0  0
  187.4420  178.0700  138.4260 C   0  0  0  0  0  3  0  0  0  0  0  0
  186.7170  177.8150  136.1280 C   0  0  0  0  0  3  0  0  0  0  0  0
  188.7760  178.1290  138.0060 C   0  0  0  0  0  0  0  0  0  0  0  0
  189.0730  178.0270  136.6360 C   0  0  0  0  0  3  0  0  0  0  0  0
  184.9990  177.8740  137.9400 C   0  0  0  0  0  1  0  0  0  0  0  0
  186.4150  177.9150  137.4900 C   0  0  0  0  0  0  0  0  0  0  0  0
  1 10  1  0  0  0  0
  1  3  1  0  0  0  0
  2  8  1  0  0  0  0
  2 11  1  0  0  0  0
  3  2  2  0  0  0  0
  4 12  1  0  0  0  0
  4 10  2  0  0  0  0
  5  9  2  0  0  0  0
  5  7  1  0  0  0  0
  6  8  2  0  0  0  0
  7  1  2  0  0  0  0
  9  4  1  0  0  0  0
 10  6  1  0  0  0  0
 12 18  1  0  0  0  0
 13 17  2  0  0  0  0
 13 18  1  0  0  0  0
 14 15  1  0  0  0  0
 16 15  2  0  0  0  0
 17 16  1  0  0  0  0
 18 14  2  0  0  0  0
 20 19  1  0  0  0  0
 20 12  1  0  0  0  0
 21  9  1  0  0  0  0
 22 21  1  0  0  0  0
 23 22  1  0  0  0  0
 24 23  1  0  0  0  0
 25 27  2  0  0  0  0
 25 29  1  0  0  0  0
 27 31  1  0  0  0  0
 28 26  1  0  0  0  0
 28 24  1  0  0  0  0
 29 28  2  0  0  0  0
 31 30  1  0  0  0  0
 31 26  2  0  0  0  0
M  END
>  <MODEL>
5

>  <REMARK>
 VINA RESULT:      -7.8      3.574      7.750
  Name = 
  8 active torsions:
  status: ('A' for Active; 'I' for Inactive)
    1  A    between atoms: C_10  and  N_28
    2  A    between atoms: C_16  and  O_23
    3  A    between atoms: C_18  and  C_22
    4  A    between atoms: C_18  and  O_23
    5  A    between atoms: C_19  and  O_29
    6  A    between atoms: C_22  and  O_29
    7  A    between atoms: C_24  and  N_28
    8  A    between atoms: N_28  and  C_30
                            x       y       z     vdW  Elec       q    Type
                         _______ _______ _______ _____ _____    ______ ____

>  <TORSDO>
F 8

$$$$
=
 OpenBabel11032419323D

 31 34  0  0  0  0  0  0  0  0999 V2000
  182.6130  178.8080  143.0610 C   0  0  0  0  0  0  0  0  0  0  0  0
  180.2920  178.3820  143.6000 C   0  0  0  0  0  0  0  0  0  0  0  0
  181.5920  178.6890  144.0080 C   0  0  0  0  0  3  0  0  0  0  0  0
  183.3720  178.7330  140.7410 C   0  0  0  0  0  0  0  0  0  0  0  0
  184.9360  179.2160  142.5350 C   0  0  0  0  0  3  0  0  0  0  0  0
  181.0240  178.3130  141.2920 C   0  0  0  0  0  3  0  0  0  0  0  0
  183.9110  179.1080  143.4750 C   0  0  0  0  0  3  0  0  0  0  0  0
  180.0080  178.1950  142.2440 C   0  0  0  0  0  3  0  0  0  0  0  0
  184.6790  179.0270  141.1680 C   0  0  0  0  0  0  0  0  0  0  0  0
  182.3340  178.6190  141.6870 C   0  0  0  0  0  0  0  0  0  0  0  0
  179.2820  178.2580  144.5430 O   0  0  0  0  0  1  0  0  0  0  0  0
  183.1040  178.5490  139.3420 N   0  0  0  0  0  0  0  0  0  0  0  0
  181.4680  179.0960  137.5650 C   0  0  0  0  0  3  0  0  0  0  0  0
  182.4150  180.8810  138.8960 C   0  0  0  0  0  3  0  0  0  0  0  0
  181.6620  181.8140  138.1770 C   0  0  0  0  0  3  0  0  0  0  0  0
  180.8140  181.3860  137.1520 C   0  0  0  0  0  3  0  0  0  0  0  0
  180.7160  180.0280  136.8460 C   0  0  0  0  0  3  0  0  0  0  0  0
  182.3290  179.5120  138.5970 C   0  0  0  0  0  0  0  0  0  0  0  0
  184.3950  177.6340  137.6220 O   0  0  0  0  0  1  0  0  0  0  0  0
  183.5820  177.3210  138.7150 C   0  0  0  0  0  2  0  0  0  0  0  0
  185.7060  179.1290  140.2190 O   0  0  0  0  0  0  0  0  0  0  0  0
  186.7750  178.1960  140.1210 C   0  0  0  0  0  2  0  0  0  0  0  0
  187.9460  178.6470  140.9780 C   0  0  0  0  0  2  0  0  0  0  0  0
  188.4890  177.5420  141.6930 O   0  0  0  0  0  0  0  0  0  0  0  0
  190.0760  177.5360  145.0590 C   0  0  0  0  0  3  0  0  0  0  0  0
  187.5270  177.5340  143.9050 C   0  0  0  0  0  3  0  0  0  0  0  0
  188.9400  177.5280  145.8730 C   0  0  0  0  0  3  0  0  0  0  0  0
  188.6600  177.5380  143.0820 C   0  0  0  0  0  0  0  0  0  0  0  0
  189.9370  177.5400  143.6690 C   0  0  0  0  0  3  0  0  0  0  0  0
  186.4590  177.5010  146.1640 C   0  0  0  0  0  1  0  0  0  0  0  0
  187.6660  177.5270  145.2960 C   0  0  0  0  0  0  0  0  0  0  0  0
  1  7  1  0  0  0  0
  1  3  2  0  0  0  0
  2  3  1  0  0  0  0
  2 11  1  0  0  0  0
  4  9  2  0  0  0  0
  4 10  1  0  0  0  0
  5  7  2  0  0  0  0
  6 10  2  0  0  0  0
  6  8  1  0  0  0  0
  8  2  2  0  0  0  0
  9  5  1  0  0  0  0
 10  1  1  0  0  0  0
 12  4  1  0  0  0  0
 13 18  1  0  0  0  0
 15 14  1  0  0  0  0
 16 15  2  0  0  0  0
 17 16  1  0  0  0  0
 17 13  2  0  0  0  0
 18 14  2  0  0  0  0
 18 12  1  0  0  0  0
 19 20  1  0  0  0  0
 20 12  1  0  0  0  0
 21  9  1  0  0  0  0
 22 21  1  0  0  0  0
 22 23  1  0  0  0  0
 23 24  1  0  0  0  0
 24 28  1  0  0  0  0
 25 27  1  0  0  0  0
 26 31  1  0  0  0  0
 28 29  1  0  0  0  0
 28 26  2  0  0  0  0
 29 25  2  0  0  0  0
 31 27  2  0  0  0  0
 31 30  1  0  0  0  0
M  END
>  <MODEL>
6

>  <REMARK>
 VINA RESULT:      -7.7      1.210      2.451
  Name = 
  8 active torsions:
  status: ('A' for Active; 'I' for Inactive)
    1  A    between atoms: C_10  and  N_28
    2  A    between atoms: C_16  and  O_23
    3  A    between atoms: C_18  and  C_22
    4  A    between atoms: C_18  and  O_23
    5  A    between atoms: C_19  and  O_29
    6  A    between atoms: C_22  and  O_29
    7  A    between atoms: C_24  and  N_28
    8  A    between atoms: N_28  and  C_30
                            x       y       z     vdW  Elec       q    Type
                         _______ _______ _______ _____ _____    ______ ____

>  <TORSDO>
F 8

$$$$
=
 OpenBabel11032419323D

 31 34  0  0  0  0  0  0  0  0999 V2000
  187.8440  178.1500  139.4400 C   0  0  0  0  0  0  0  0  0  0  0  0
  188.7570  177.6530  137.2540 C   0  0  0  0  0  0  0  0  0  0  0  0
  188.9350  177.8340  138.6270 C   0  0  0  0  0  3  0  0  0  0  0  0
  185.4600  178.6160  139.7020 C   0  0  0  0  0  0  0  0  0  0  0  0
  186.9460  178.6660  141.6230 C   0  0  0  0  0  3  0  0  0  0  0  0
  186.3880  178.1010  137.4950 C   0  0  0  0  0  3  0  0  0  0  0  0
  188.0300  178.3380  140.8090 C   0  0  0  0  0  3  0  0  0  0  0  0
  187.4850  177.7850  136.6890 C   0  0  0  0  0  3  0  0  0  0  0  0
  185.6590  178.8110  141.0800 C   0  0  0  0  0  0  0  0  0  0  0  0
  186.5540  178.2880  138.8750 C   0  0  0  0  0  0  0  0  0  0  0  0
  189.8440  177.3440  136.4490 O   0  0  0  0  0  1  0  0  0  0  0  0
  184.1440  178.7540  139.1450 N   0  0  0  0  0  0  0  0  0  0  0  0
  183.1290  177.2220  137.4850 C   0  0  0  0  0  3  0  0  0  0  0  0
  182.7720  176.8190  139.8430 C   0  0  0  0  0  3  0  0  0  0  0  0
  182.0000  175.6960  139.5320 C   0  0  0  0  0  3  0  0  0  0  0  0
  181.7920  175.3390  138.1980 C   0  0  0  0  0  3  0  0  0  0  0  0
  182.3560  176.1010  137.1740 C   0  0  0  0  0  3  0  0  0  0  0  0
  183.3440  177.5970  138.8240 C   0  0  0  0  0  0  0  0  0  0  0  0
  182.2950  180.1830  139.0880 O   0  0  0  0  0  1  0  0  0  0  0  0
  183.6690  180.1030  138.8490 C   0  0  0  0  0  2  0  0  0  0  0  0
  184.5660  179.1460  141.8910 O   0  0  0  0  0  0  0  0  0  0  0  0
  184.2180  178.4300  143.0700 C   0  0  0  0  0  2  0  0  0  0  0  0
  184.6600  179.2020  144.3030 C   0  0  0  0  0  2  0  0  0  0  0  0
  184.9880  178.3030  145.3570 O   0  0  0  0  0  0  0  0  0  0  0  0
  188.5330  177.1820  145.2050 C   0  0  0  0  0  3  0  0  0  0  0  0
  186.7090  178.2390  147.0450 C   0  0  0  0  0  3  0  0  0  0  0  0
  188.9280  177.4180  146.5250 C   0  0  0  0  0  3  0  0  0  0  0  0
  186.3040  178.0020  145.7260 C   0  0  0  0  0  0  0  0  0  0  0  0
  187.2260  177.4720  144.8070 C   0  0  0  0  0  3  0  0  0  0  0  0
  188.4330  178.1810  148.8520 C   0  0  0  0  0  1  0  0  0  0  0  0
  188.0170  177.9460  147.4450 C   0  0  0  0  0  0  0  0  0  0  0  0
  1  7  1  0  0  0  0
  2  3  1  0  0  0  0
  3  1  2  0  0  0  0
  4  9  2  0  0  0  0
  6 10  2  0  0  0  0
  7  5  2  0  0  0  0
  8  2  2  0  0  0  0
  8  6  1  0  0  0  0
  9  5  1  0  0  0  0
  9 21  1  0  0  0  0
 10  1  1  0  0  0  0
 10  4  1  0  0  0  0
 11  2  1  0  0  0  0
 12  4  1  0  0  0  0
 13 18  1  0  0  0  0
 15 14  1  0  0  0  0
 16 15  2  0  0  0  0
 17 13  2  0  0  0  0
 17 16  1  0  0  0  0
 18 12  1  0  0  0  0
 18 14  2  0  0  0  0
 20 19  1  0  0  0  0
 20 12  1  0  0  0  0
 21 22  1  0  0  0  0
 22 23  1  0  0  0  0
 23 24  1  0  0  0  0
 24 28  1  0  0  0  0
 25 27  1  0  0  0  0
 26 31  1  0  0  0  0
 27 31  2  0  0  0  0
 28 26  2  0  0  0  0
 29 25  2  0  0  0  0
 29 28  1  0  0  0  0
 31 30  1  0  0  0  0
M  END
>  <MODEL>
7

>  <REMARK>
 VINA RESULT:      -7.6      2.225      4.931
  Name = 
  8 active torsions:
  status: ('A' for Active; 'I' for Inactive)
    1  A    between atoms: C_10  and  N_28
    2  A    between atoms: C_16  and  O_23
    3  A    between atoms: C_18  and  C_22
    4  A    between atoms: C_18  and  O_23
    5  A    between atoms: C_19  and  O_29
    6  A    between atoms: C_22  and  O_29
    7  A    between atoms: C_24  and  N_28
    8  A    between atoms: N_28  and  C_30
                            x       y       z     vdW  Elec       q    Type
                         _______ _______ _______ _____ _____    ______ ____

>  <TORSDO>
F 8

$$$$
=
 OpenBabel11032419323D

 31 34  0  0  0  0  0  0  0  0999 V2000
  185.6130  178.6720  140.1120 C   0  0  0  0  0  0  0  0  0  0  0  0
  183.5040  178.8150  138.9310 C   0  0  0  0  0  0  0  0  0  0  0  0
  184.2450  178.9600  140.1060 C   0  0  0  0  0  3  0  0  0  0  0  0
  187.6300  177.9400  138.9460 C   0  0  0  0  0  0  0  0  0  0  0  0
  187.7080  178.5140  141.3040 C   0  0  0  0  0  3  0  0  0  0  0  0
  185.4960  178.0970  137.7550 C   0  0  0  0  0  3  0  0  0  0  0  0
  186.3450  178.8120  141.2910 C   0  0  0  0  0  3  0  0  0  0  0  0
  184.1290  178.3860  137.7570 C   0  0  0  0  0  3  0  0  0  0  0  0
  188.3580  178.0750  140.1410 C   0  0  0  0  0  0  0  0  0  0  0  0
  186.2510  178.2350  138.9280 C   0  0  0  0  0  0  0  0  0  0  0  0
  182.1450  179.0960  138.9300 O   0  0  0  0  0  1  0  0  0  0  0  0
  188.2950  177.4990  137.7510 N   0  0  0  0  0  0  0  0  0  0  0  0
  189.7330  175.5030  137.4690 C   0  0  0  0  0  3  0  0  0  0  0  0
  187.3400  175.2920  137.1760 C   0  0  0  0  0  3  0  0  0  0  0  0
  187.4970  173.9310  136.8980 C   0  0  0  0  0  3  0  0  0  0  0  0
  188.7710  173.3580  136.9050 C   0  0  0  0  0  3  0  0  0  0  0  0
  189.8890  174.1440  137.1900 C   0  0  0  0  0  3  0  0  0  0  0  0
  188.4560  176.0950  137.4620 C   0  0  0  0  0  0  0  0  0  0  0  0
  188.9000  179.7470  137.5410 O   0  0  0  0  0  1  0  0  0  0  0  0
  188.8630  178.5190  136.8750 C   0  0  0  0  0  2  0  0  0  0  0  0
  189.7270  177.7690  140.1490 O   0  0  0  0  0  0  0  0  0  0  0  0
  190.4770  177.5760  141.3420 C   0  0  0  0  0  2  0  0  0  0  0  0
  189.9740  176.3510  142.0870 C   0  0  0  0  0  2  0  0  0  0  0  0
  190.1970  176.4980  143.4860 O   0  0  0  0  0  0  0  0  0  0  0  0
  186.8490  177.2090  144.9470 C   0  0  0  0  0  3  0  0  0  0  0  0
  189.5480  177.2460  145.6850 C   0  0  0  0  0  3  0  0  0  0  0  0
  187.2150  177.5970  146.2390 C   0  0  0  0  0  3  0  0  0  0  0  0
  189.1900  176.8600  144.3880 C   0  0  0  0  0  0  0  0  0  0  0  0
  187.8320  176.8420  144.0240 C   0  0  0  0  0  3  0  0  0  0  0  0
  188.9530  178.0440  147.9770 C   0  0  0  0  0  1  0  0  0  0  0  0
  188.5640  177.6150  146.6080 C   0  0  0  0  0  0  0  0  0  0  0  0
  1  7  1  0  0  0  0
  2  3  1  0  0  0  0
  3  1  2  0  0  0  0
  4  9  2  0  0  0  0
  6  8  1  0  0  0  0
  6 10  2  0  0  0  0
  7  5  2  0  0  0  0
  8  2  2  0  0  0  0
  9 21  1  0  0  0  0
  9  5  1  0  0  0  0
 10  4  1  0  0  0  0
 10  1  1  0  0  0  0
 11  2  1  0  0  0  0
 12  4  1  0  0  0  0
 14 18  2  0  0  0  0
 15 16  2  0  0  0  0
 15 14  1  0  0  0  0
 16 17  1  0  0  0  0
 17 13  2  0  0  0  0
 18 13  1  0  0  0  0
 18 12  1  0  0  0  0
 20 19  1  0  0  0  0
 20 12  1  0  0  0  0
 21 22  1  0  0  0  0
 22 23  1  0  0  0  0
 23 24  1  0  0  0  0
 24 28  1  0  0  0  0
 25 27  1  0  0  0  0
 26 31  1  0  0  0  0
 27 31  2  0  0  0  0
 28 26  2  0  0  0  0
 29 28  1  0  0  0  0
 29 25  2  0  0  0  0
 31 30  1  0  0  0  0
M  END
>  <MODEL>
8

>  <REMARK>
 VINA RESULT:      -7.5      2.937      4.440
  Name = 
  8 active torsions:
  status: ('A' for Active; 'I' for Inactive)
    1  A    between atoms: C_10  and  N_28
    2  A    between atoms: C_16  and  O_23
    3  A    between atoms: C_18  and  C_22
    4  A    between atoms: C_18  and  O_23
    5  A    between atoms: C_19  and  O_29
    6  A    between atoms: C_22  and  O_29
    7  A    between atoms: C_24  and  N_28
    8  A    between atoms: N_28  and  C_30
                            x       y       z     vdW  Elec       q    Type
                         _______ _______ _______ _____ _____    ______ ____

>  <TORSDO>
F 8

$$$$
=
 OpenBabel11032419323D

 31 34  0  0  0  0  0  0  0  0999 V2000
  191.5510  176.7640  139.0590 C   0  0  0  0  0  0  0  0  0  0  0  0
  193.1080  175.9860  137.3760 C   0  0  0  0  0  0  0  0  0  0  0  0
  192.8280  176.3210  138.7030 C   0  0  0  0  0  3  0  0  0  0  0  0
  189.2560  177.3310  138.4450 C   0  0  0  0  0  0  0  0  0  0  0  0
  190.0110  177.5580  140.7420 C   0  0  0  0  0  3  0  0  0  0  0  0
  190.8320  176.5330  136.7500 C   0  0  0  0  0  3  0  0  0  0  0  0
  191.2800  177.1040  140.3840 C   0  0  0  0  0  3  0  0  0  0  0  0
  192.1110  176.0910  136.4010 C   0  0  0  0  0  3  0  0  0  0  0  0
  188.9940  177.6780  139.7820 C   0  0  0  0  0  0  0  0  0  0  0  0
  190.5380  176.8750  138.0780 C   0  0  0  0  0  0  0  0  0  0  0  0
  194.3780  175.5520  137.0250 O   0  0  0  0  0  1  0  0  0  0  0  0
  188.2150  177.4440  137.4620 N   0  0  0  0  0  0  0  0  0  0  0  0
  185.8250  176.8070  137.3340 C   0  0  0  0  0  3  0  0  0  0  0  0
  187.5180  175.0820  137.2410 C   0  0  0  0  0  3  0  0  0  0  0  0
  186.5200  174.1110  137.1290 C   0  0  0  0  0  3  0  0  0  0  0  0
  185.1740  174.4890  137.1200 C   0  0  0  0  0  3  0  0  0  0  0  0
  184.8270  175.8370  137.2230 C   0  0  0  0  0  3  0  0  0  0  0  0
  187.1840  176.4410  137.3480 C   0  0  0  0  0  0  0  0  0  0  0  0
  188.4900  179.7550  137.2460 O   0  0  0  0  0  1  0  0  0  0  0  0
  188.2750  178.5700  136.5360 C   0  0  0  0  0  2  0  0  0  0  0  0
  187.7180  178.1400  140.1350 O   0  0  0  0  0  0  0  0  0  0  0  0
  187.4640  178.9280  141.2910 C   0  0  0  0  0  2  0  0  0  0  0  0
  186.5060  178.2030  142.2210 C   0  0  0  0  0  2  0  0  0  0  0  0
  187.1730  177.1290  142.8760 O   0  0  0  0  0  0  0  0  0  0  0  0
  187.6370  177.6250  146.5350 C   0  0  0  0  0  3  0  0  0  0  0  0
  189.1600  177.1220  144.2430 C   0  0  0  0  0  3  0  0  0  0  0  0
  189.0250  177.4960  146.6330 C   0  0  0  0  0  3  0  0  0  0  0  0
  187.7710  177.2540  144.1360 C   0  0  0  0  0  0  0  0  0  0  0  0
  187.0110  177.5050  145.2910 C   0  0  0  0  0  3  0  0  0  0  0  0
  191.2650  177.1240  145.5900 C   0  0  0  0  0  1  0  0  0  0  0  0
  189.7860  177.2450  145.4870 C   0  0  0  0  0  0  0  0  0  0  0  0
  1  7  1  0  0  0  0
  2  3  1  0  0  0  0
  3  1  2  0  0  0  0
  4  9  2  0  0  0  0
  6 10  2  0  0  0  0
  7  5  2  0  0  0  0
  8  6  1  0  0  0  0
  8  2  2  0  0  0  0
  9 21  1  0  0  0  0
  9  5  1  0  0  0  0
 10  4  1  0  0  0  0
 10  1  1  0  0  0  0
 11  2  1  0  0  0  0
 12  4  1  0  0  0  0
 13 18  1  0  0  0  0
 14 18  2  0  0  0  0
 15 14  1  0  0  0  0
 16 15  2  0  0  0  0
 16 17  1  0  0  0  0
 17 13  2  0  0  0  0
 18 12  1  0  0  0  0
 20 19  1  0  0  0  0
 20 12  1  0  0  0  0
 21 22  1  0  0  0  0
 22 23  1  0  0  0  0
 23 24  1  0  0  0  0
 24 28  1  0  0  0  0
 25 27  1  0  0  0  0
 26 31  1  0  0  0  0
 28 26  2  0  0  0  0
 28 29  1  0  0  0  0
 29 25  2  0  0  0  0
 31 30  1  0  0  0  0
 31 27  2  0  0  0  0
M  END
>  <MODEL>
9

>  <REMARK>
 VINA RESULT:      -7.5      3.570      7.056
  Name = 
  8 active torsions:
  status: ('A' for Active; 'I' for Inactive)
    1  A    between atoms: C_10  and  N_28
    2  A    between atoms: C_16  and  O_23
    3  A    between atoms: C_18  and  C_22
    4  A    between atoms: C_18  and  O_23
    5  A    between atoms: C_19  and  O_29
    6  A    between atoms: C_22  and  O_29
    7  A    between atoms: C_24  and  N_28
    8  A    between atoms: N_28  and  C_30
                            x       y       z     vdW  Elec       q    Type
                         _______ _______ _______ _____ _____    ______ ____

>  <TORSDO>
F 8

$$$$
