=
 OpenBabel11042410203D

 37 41  0  0  1  0  0  0  0  0999 V2000
  184.7690  178.5800  141.7040 C   0  0  0  0  0  0  0  0  0  0  0  0
  183.8650  178.8330  142.7650 C   0  0  0  0  0  0  0  0  0  0  0  0
  180.6700  178.2750  141.0010 N   0  0  0  0  0  0  0  0  0  0  0  0
  182.9140  178.0940  140.2110 C   0  0  0  0  0  3  0  0  0  0  0  0
  184.2860  178.2070  140.4450 C   0  0  0  0  0  3  0  0  0  0  0  0
  180.1620  178.8650  143.2180 C   0  0  0  0  0  0  0  0  0  0  0  0
  179.1430  179.1380  144.2660 C   0  0  0  0  0  1  0  0  0  0  0  0
  181.5220  178.9760  143.5130 C   0  0  0  0  0  3  0  0  0  0  0  0
  182.4720  178.7260  142.5180 C   0  0  0  0  0  0  0  0  0  0  0  0
  179.7740  178.5220  141.9600 N   0  0  0  0  0  0  0  0  0  0  0  0
  182.0090  178.3570  141.2360 C   0  0  0  0  0  0  0  0  0  0  0  0
  183.6070  178.7700  145.3210 C   0  0  0  0  0  2  0  0  0  0  0  0
  185.0090  178.2500  145.0470 C   0  0  1  0  0  3  0  0  0  0  0  0
  184.3730  179.2810  144.1190 C   0  0  1  0  0  0  0  0  0  0  0  0
  184.7960  180.6050  144.2460 O   0  0  0  0  0  1  0  0  0  0  0  0
  185.9810  178.8850  146.0340 C   0  0  0  0  0  2  0  0  0  0  0  0
  187.7860  178.4800  147.5640 O   0  0  0  0  0  1  0  0  0  0  0  0
  186.9520  177.8640  146.6290 C   0  0  2  0  0  3  0  0  0  0  0  0
  187.7920  177.1720  145.5600 C   0  0  0  0  0  2  0  0  0  0  0  0
  189.6380  176.5370  147.1110 N   0  0  0  0  0  2  0  0  0  0  0  0
  189.1950  177.1520  145.9350 N   0  0  0  0  0  0  0  0  0  0  0  0
  191.5300  177.4210  145.8200 C   0  0  0  0  0  2  0  0  0  0  0  0
  191.8100  175.4400  147.3300 C   0  0  0  0  0  1  0  0  0  0  0  0
  190.0970  178.4140  144.1380 N   0  0  0  0  0  2  0  0  0  0  0  0
  190.2550  177.5940  145.1230 C   0  0  0  0  0  0  0  0  0  0  0  0
  191.0900  176.7630  147.1360 C   0  0  2  0  0  3  0  0  0  0  0  0
  186.2470  178.7180  141.8710 C   0  0  0  0  0  2  0  0  0  0  0  0
  186.8970  178.6290  140.5760 N   0  0  0  0  0  2  0  0  0  0  0  0
  188.8560  177.2640  141.0350 C   0  0  0  0  0  2  0  0  0  0  0  0
  188.3340  178.6750  140.8220 C   0  0  1  0  0  3  0  0  0  0  0  0
  189.1520  177.9730  139.7250 C   0  0  2  0  0  3  0  0  0  0  0  0
  188.3100  177.3840  138.5970 C   0  0  2  0  0  3  0  0  0  0  0  0
  188.8710  176.1770  138.1740 O   0  0  0  0  0  1  0  0  0  0  0  0
  188.8970  177.7250  135.7740 C   0  0  0  0  0  1  0  0  0  0  0  0
  189.0790  179.7390  137.5310 O   0  0  0  0  0  0  0  0  0  0  0  0
  186.8280  178.9420  136.9620 O   0  0  0  0  0  0  0  0  0  0  0  0
  188.2490  178.5230  137.2220 S   0  0  0  0  0  0  0  0  0  0  0  0
  1 27  1  0  0  0  0
  1  2  1  0  0  0  0
  2 14  1  0  0  0  0
  3 11  1  0  0  0  0
  3 10  2  0  0  0  0
  4  5  1  0  0  0  0
  4 11  2  0  0  0  0
  5  1  2  0  0  0  0
  6  8  2  0  0  0  0
  6  7  1  0  0  0  0
  9  2  2  0  0  0  0
  9  8  1  0  0  0  0
 10  6  1  0  0  0  0
 11  9  1  0  0  0  0
 13 12  1  0  0  0  0
 13 16  1  1  0  0  0
 14 15  1  1  0  0  0
 14 13  1  0  0  0  0
 14 12  1  0  0  0  0
 16 18  1  0  0  0  0
 18 17  1  1  0  0  0
 19 21  1  0  0  0  0
 19 18  1  0  0  0  0
 20 26  1  0  0  0  0
 21 20  1  0  0  0  0
 22 26  1  0  0  0  0
 24 25  2  0  0  0  0
 25 22  1  0  0  0  0
 25 21  1  0  0  0  0
 26 23  1  6  0  0  0
 28 27  1  0  0  0  0
 30 28  1  6  0  0  0
 30 29  1  0  0  0  0
 31 32  1  6  0  0  0
 31 30  1  0  0  0  0
 31 29  1  0  0  0  0
 32 33  1  6  0  0  0
 34 37  1  0  0  0  0
 36 37  2  0  0  0  0
 37 35  2  0  0  0  0
 37 32  1  0  0  0  0
M  END
>  <MODEL>
1

>  <REMARK>
 VINA RESULT:      -9.0      0.000      0.000
  Name = 
  10 active torsions:
  status: ('A' for Active; 'I' for Inactive)
    1  A    between atoms: C_2  and  S_30
    2  A    between atoms: C_2  and  C_33
    3  A    between atoms: C_3  and  C_11
    4  A    between atoms: C_5  and  C_22
    5  A    between atoms: N_6  and  C_13
    6  A    between atoms: C_11  and  N_27
    7  A    between atoms: C_12  and  C_15
    8  A    between atoms: C_13  and  C_36
    9  A    between atoms: C_15  and  C_36
   10  A    between atoms: N_27  and  C_29
                            x       y       z     vdW  Elec       q    Type
                         _______ _______ _______ _____ _____    ______ ____

>  <TORSDO>
F 10

$$$$
=
 OpenBabel11042410203D

 37 41  0  0  1  0  0  0  0  0999 V2000
  186.9460  177.9610  143.4940 C   0  0  0  0  0  0  0  0  0  0  0  0
  188.2700  177.6430  143.8900 C   0  0  0  0  0  0  0  0  0  0  0  0
  187.7740  177.3680  147.5380 N   0  0  0  0  0  0  0  0  0  0  0  0
  186.2030  177.8380  145.8050 C   0  0  0  0  0  3  0  0  0  0  0  0
  185.9300  178.0480  144.4530 C   0  0  0  0  0  3  0  0  0  0  0  0
  190.0460  176.9580  147.0990 C   0  0  0  0  0  0  0  0  0  0  0  0
  191.4090  176.6470  147.6040 C   0  0  0  0  0  1  0  0  0  0  0  0
  189.8260  177.1400  145.7320 C   0  0  0  0  0  3  0  0  0  0  0  0
  188.5420  177.4410  145.2670 C   0  0  0  0  0  0  0  0  0  0  0  0
  189.0070  177.0850  147.9680 N   0  0  0  0  0  0  0  0  0  0  0  0
  187.5010  177.5430  146.2160 C   0  0  0  0  0  0  0  0  0  0  0  0
  190.0410  176.2420  142.6670 C   0  0  0  0  0  2  0  0  0  0  0  0
  189.1640  176.8240  141.5700 C   0  0  1  0  0  3  0  0  0  0  0  0
  189.3870  177.5910  142.8700 C   0  0  1  0  0  0  0  0  0  0  0  0
  190.2850  178.6590  142.8380 O   0  0  0  0  0  1  0  0  0  0  0  0
  190.0490  177.3360  140.4410 C   0  0  0  0  0  2  0  0  0  0  0  0
  190.8820  175.7110  138.8810 O   0  0  0  0  0  1  0  0  0  0  0  0
  189.8160  176.5770  139.1330 C   0  0  2  0  0  3  0  0  0  0  0  0
  189.6190  177.5160  137.9460 C   0  0  0  0  0  2  0  0  0  0  0  0
  187.9940  175.9000  136.9610 N   0  0  0  0  0  2  0  0  0  0  0  0
  188.3820  177.2150  137.2470 N   0  0  0  0  0  0  0  0  0  0  0  0
  186.2820  177.4980  136.2250 C   0  0  0  0  0  2  0  0  0  0  0  0
  185.6670  175.1610  136.8890 C   0  0  0  0  0  1  0  0  0  0  0  0
  187.6140  179.4240  136.8440 N   0  0  0  0  0  2  0  0  0  0  0  0
  187.3880  178.1550  136.9200 C   0  0  0  0  0  0  0  0  0  0  0  0
  186.7250  176.0280  136.2310 C   0  0  2  0  0  3  0  0  0  0  0  0
  186.5890  178.2340  142.0710 C   0  0  0  0  0  2  0  0  0  0  0  0
  185.1510  178.3980  141.9490 N   0  0  0  0  0  2  0  0  0  0  0  0
  184.8370  178.4150  139.5380 C   0  0  0  0  0  2  0  0  0  0  0  0
  184.9210  179.2620  140.7970 C   0  0  1  0  0  3  0  0  0  0  0  0
  183.5650  179.0070  140.1180 C   0  0  2  0  0  3  0  0  0  0  0  0
  182.7270  177.9200  140.7850 C   0  0  2  0  0  3  0  0  0  0  0  0
  182.4400  176.9150  139.8590 O   0  0  0  0  0  1  0  0  0  0  0  0
  181.4230  179.1220  143.0830 C   0  0  0  0  0  1  0  0  0  0  0  0
  180.1060  177.5830  141.3290 O   0  0  0  0  0  0  0  0  0  0  0  0
  180.8080  179.8100  140.5690 O   0  0  0  0  0  0  0  0  0  0  0  0
  181.1990  178.6160  141.3960 S   0  0  0  0  0  0  0  0  0  0  0  0
  1  2  2  0  0  0  0
  1  5  1  0  0  0  0
  2  9  1  0  0  0  0
  3 10  1  0  0  0  0
  4 11  1  0  0  0  0
  5  4  2  0  0  0  0
  6  7  1  0  0  0  0
  6 10  2  0  0  0  0
  8  6  1  0  0  0  0
  9  8  2  0  0  0  0
  9 11  1  0  0  0  0
 11  3  2  0  0  0  0
 12 14  1  0  0  0  0
 13 16  1  6  0  0  0
 13 12  1  0  0  0  0
 13 14  1  0  0  0  0
 14 15  1  6  0  0  0
 14  2  1  0  0  0  0
 18 17  1  6  0  0  0
 18 16  1  0  0  0  0
 19 18  1  0  0  0  0
 20 21  1  0  0  0  0
 21 19  1  0  0  0  0
 22 26  1  0  0  0  0
 22 25  1  0  0  0  0
 24 25  2  0  0  0  0
 25 21  1  0  0  0  0
 26 23  1  1  0  0  0
 26 20  1  0  0  0  0
 27  1  1  0  0  0  0
 28 27  1  0  0  0  0
 29 31  1  0  0  0  0
 29 30  1  0  0  0  0
 30 28  1  1  0  0  0
 31 32  1  1  0  0  0
 31 30  1  0  0  0  0
 32 33  1  6  0  0  0
 32 37  1  0  0  0  0
 35 37  2  0  0  0  0
 36 37  2  0  0  0  0
 37 34  1  0  0  0  0
M  END
>  <MODEL>
2

>  <REMARK>
 VINA RESULT:      -8.9      2.996      8.047
  Name = 
  10 active torsions:
  status: ('A' for Active; 'I' for Inactive)
    1  A    between atoms: C_2  and  S_30
    2  A    between atoms: C_2  and  C_33
    3  A    between atoms: C_3  and  C_11
    4  A    between atoms: C_5  and  C_22
    5  A    between atoms: N_6  and  C_13
    6  A    between atoms: C_11  and  N_27
    7  A    between atoms: C_12  and  C_15
    8  A    between atoms: C_13  and  C_36
    9  A    between atoms: C_15  and  C_36
   10  A    between atoms: N_27  and  C_29
                            x       y       z     vdW  Elec       q    Type
                         _______ _______ _______ _____ _____    ______ ____

>  <TORSDO>
F 10

$$$$
=
 OpenBabel11042410203D

 37 41  0  0  1  0  0  0  0  0999 V2000
  185.8820  178.6160  142.4880 C   0  0  0  0  0  0  0  0  0  0  0  0
  186.8540  178.2080  143.4350 C   0  0  0  0  0  0  0  0  0  0  0  0
  184.9390  178.7290  146.5490 N   0  0  0  0  0  0  0  0  0  0  0  0
  184.2940  179.0540  144.2750 C   0  0  0  0  0  3  0  0  0  0  0  0
  184.6140  179.0260  142.9160 C   0  0  0  0  0  3  0  0  0  0  0  0
  187.0700  177.9390  147.1500 C   0  0  0  0  0  0  0  0  0  0  0  0
  188.0360  177.5540  148.2110 C   0  0  0  0  0  1  0  0  0  0  0  0
  187.4390  177.8750  145.8050 C   0  0  0  0  0  3  0  0  0  0  0  0
  186.5250  178.2480  144.8140 C   0  0  0  0  0  0  0  0  0  0  0  0
  185.8250  178.3740  147.4840 N   0  0  0  0  0  0  0  0  0  0  0  0
  185.2420  178.6740  145.2220 C   0  0  0  0  0  0  0  0  0  0  0  0
  188.6080  176.3490  143.1750 C   0  0  0  0  0  2  0  0  0  0  0  0
  188.3920  176.8950  141.7730 C   0  0  1  0  0  3  0  0  0  0  0  0
  188.2430  177.8060  142.9880 C   0  0  1  0  0  0  0  0  0  0  0  0
  189.2910  178.6850  143.2620 O   0  0  0  0  0  1  0  0  0  0  0  0
  189.7430  177.0640  141.0890 C   0  0  0  0  0  2  0  0  0  0  0  0
  190.9200  176.0600  139.2520 O   0  0  0  0  0  1  0  0  0  0  0  0
  189.7050  176.6420  139.6190 C   0  0  2  0  0  3  0  0  0  0  0  0
  189.3870  177.8080  138.6890 C   0  0  0  0  0  2  0  0  0  0  0  0
  187.9420  176.1200  137.5570 N   0  0  0  0  0  2  0  0  0  0  0  0
  188.3460  177.4480  137.7420 N   0  0  0  0  0  0  0  0  0  0  0  0
  186.5980  177.6450  136.1790 C   0  0  0  0  0  2  0  0  0  0  0  0
  185.6570  175.4680  136.9880 C   0  0  0  0  0  1  0  0  0  0  0  0
  187.8770  179.5930  136.8420 N   0  0  0  0  0  2  0  0  0  0  0  0
  187.5420  178.3620  137.0370 C   0  0  0  0  0  0  0  0  0  0  0  0
  186.9110  176.1790  136.5110 C   0  0  2  0  0  3  0  0  0  0  0  0
  186.1670  178.6480  141.0220 C   0  0  0  0  0  2  0  0  0  0  0  0
  185.1200  179.3830  140.3350 N   0  0  0  0  0  2  0  0  0  0  0  0
  183.7260  177.5660  139.5180 C   0  0  0  0  0  2  0  0  0  0  0  0
  184.7690  178.6080  139.1500 C   0  0  1  0  0  3  0  0  0  0  0  0
  183.3020  178.7920  138.7270 C   0  0  2  0  0  3  0  0  0  0  0  0
  182.5110  179.7500  139.6130 C   0  0  2  0  0  3  0  0  0  0  0  0
  181.6850  179.0220  140.4710 O   0  0  0  0  0  1  0  0  0  0  0  0
  179.9340  181.0680  139.3860 C   0  0  0  0  0  1  0  0  0  0  0  0
  181.3010  180.2110  137.2470 O   0  0  0  0  0  0  0  0  0  0  0  0
  182.1890  182.1630  138.4420 O   0  0  0  0  0  0  0  0  0  0  0  0
  181.5100  180.8300  138.6020 S   0  0  0  0  0  0  0  0  0  0  0  0
  1  5  2  0  0  0  0
  1  2  1  0  0  0  0
  2  9  2  0  0  0  0
  3 10  2  0  0  0  0
  4 11  2  0  0  0  0
  5  4  1  0  0  0  0
  6 10  1  0  0  0  0
  6  7  1  0  0  0  0
  8  6  2  0  0  0  0
  9 11  1  0  0  0  0
  9  8  1  0  0  0  0
 11  3  1  0  0  0  0
 13 16  1  6  0  0  0
 13 14  1  0  0  0  0
 13 12  1  0  0  0  0
 14 12  1  0  0  0  0
 14 15  1  1  0  0  0
 14  2  1  0  0  0  0
 18 17  1  6  0  0  0
 18 16  1  0  0  0  0
 19 18  1  0  0  0  0
 20 21  1  0  0  0  0
 21 19  1  0  0  0  0
 22 26  1  0  0  0  0
 22 25  1  0  0  0  0
 24 25  2  0  0  0  0
 25 21  1  0  0  0  0
 26 23  1  1  0  0  0
 26 20  1  0  0  0  0
 27  1  1  0  0  0  0
 28 27  1  0  0  0  0
 30 29  1  0  0  0  0
 30 28  1  1  0  0  0
 31 30  1  0  0  0  0
 31 29  1  0  0  0  0
 31 32  1  1  0  0  0
 32 33  1  1  0  0  0
 35 37  2  0  0  0  0
 36 37  2  0  0  0  0
 37 34  1  0  0  0  0
 37 32  1  0  0  0  0
M  END
>  <MODEL>
3

>  <REMARK>
 VINA RESULT:      -8.8      3.342      7.115
  Name = 
  10 active torsions:
  status: ('A' for Active; 'I' for Inactive)
    1  A    between atoms: C_2  and  S_30
    2  A    between atoms: C_2  and  C_33
    3  A    between atoms: C_3  and  C_11
    4  A    between atoms: C_5  and  C_22
    5  A    between atoms: N_6  and  C_13
    6  A    between atoms: C_11  and  N_27
    7  A    between atoms: C_12  and  C_15
    8  A    between atoms: C_13  and  C_36
    9  A    between atoms: C_15  and  C_36
   10  A    between atoms: N_27  and  C_29
                            x       y       z     vdW  Elec       q    Type
                         _______ _______ _______ _____ _____    ______ ____

>  <TORSDO>
F 10

$$$$
=
 OpenBabel11042410203D

 37 41  0  0  1  0  0  0  0  0999 V2000
  187.0170  177.9560  143.4450 C   0  0  0  0  0  0  0  0  0  0  0  0
  188.3330  177.6400  143.8680 C   0  0  0  0  0  0  0  0  0  0  0  0
  187.7590  177.3470  147.5040 N   0  0  0  0  0  0  0  0  0  0  0  0
  186.2250  177.8220  145.7390 C   0  0  0  0  0  3  0  0  0  0  0  0
  185.9800  178.0370  144.3820 C   0  0  0  0  0  3  0  0  0  0  0  0
  190.0400  176.9450  147.1120 C   0  0  0  0  0  0  0  0  0  0  0  0
  191.3930  176.6340  147.6450 C   0  0  0  0  0  1  0  0  0  0  0  0
  189.8500  177.1320  145.7420 C   0  0  0  0  0  3  0  0  0  0  0  0
  188.5760  177.4320  145.2500 C   0  0  0  0  0  0  0  0  0  0  0  0
  188.9830  177.0660  147.9580 N   0  0  0  0  0  0  0  0  0  0  0  0
  187.5140  177.5280  146.1760 C   0  0  0  0  0  0  0  0  0  0  0  0
  190.0130  176.2210  142.5410 C   0  0  0  0  0  2  0  0  0  0  0  0
  189.2230  176.9900  141.4940 C   0  0  1  0  0  3  0  0  0  0  0  0
  189.4720  177.5940  142.8720 C   0  0  1  0  0  0  0  0  0  0  0  0
  190.4590  178.5760  142.9730 O   0  0  0  0  0  1  0  0  0  0  0  0
  190.1830  177.5360  140.4440 C   0  0  0  0  0  2  0  0  0  0  0  0
  188.4930  178.8520  139.3590 O   0  0  0  0  0  1  0  0  0  0  0  0
  189.4730  177.8830  139.1340 C   0  0  2  0  0  3  0  0  0  0  0  0
  188.8500  176.6590  138.4710 C   0  0  0  0  0  2  0  0  0  0  0  0
  190.6390  175.0320  137.8630 N   0  0  0  0  0  2  0  0  0  0  0  0
  189.7650  176.0670  137.5110 N   0  0  0  0  0  0  0  0  0  0  0  0
  190.8280  175.5620  135.4740 C   0  0  0  0  0  2  0  0  0  0  0  0
  191.3260  173.2600  136.3280 C   0  0  0  0  0  1  0  0  0  0  0  0
  189.2680  177.4110  135.6190 N   0  0  0  0  0  2  0  0  0  0  0  0
  189.7790  176.3410  136.1320 C   0  0  0  0  0  0  0  0  0  0  0  0
  191.4010  174.7440  136.6400 C   0  0  2  0  0  3  0  0  0  0  0  0
  186.6900  178.2350  142.0150 C   0  0  0  0  0  2  0  0  0  0  0  0
  185.2530  178.3720  141.8590 N   0  0  0  0  0  2  0  0  0  0  0  0
  184.9830  178.4590  139.4440 C   0  0  0  0  0  2  0  0  0  0  0  0
  185.0350  179.2690  140.7290 C   0  0  1  0  0  3  0  0  0  0  0  0
  183.6940  179.0210  140.0190 C   0  0  2  0  0  3  0  0  0  0  0  0
  182.8550  177.9070  140.6360 C   0  0  2  0  0  3  0  0  0  0  0  0
  182.5720  176.9410  139.6690 O   0  0  0  0  0  1  0  0  0  0  0  0
  181.5650  179.0830  142.9560 C   0  0  0  0  0  1  0  0  0  0  0  0
  180.2490  177.5240  141.2190 O   0  0  0  0  0  0  0  0  0  0  0  0
  180.9010  179.7640  140.4520 O   0  0  0  0  0  0  0  0  0  0  0  0
  181.3250  178.5750  141.2720 S   0  0  0  0  0  0  0  0  0  0  0  0
  1  2  2  0  0  0  0
  1  5  1  0  0  0  0
  2  9  1  0  0  0  0
  3 10  1  0  0  0  0
  4 11  1  0  0  0  0
  5  4  2  0  0  0  0
  6  7  1  0  0  0  0
  6 10  2  0  0  0  0
  8  6  1  0  0  0  0
  9  8  2  0  0  0  0
  9 11  1  0  0  0  0
 11  3  2  0  0  0  0
 12 14  1  0  0  0  0
 13 16  1  6  0  0  0
 13 12  1  0  0  0  0
 13 14  1  0  0  0  0
 14 15  1  1  0  0  0
 14  2  1  0  0  0  0
 18 17  1  1  0  0  0
 18 16  1  0  0  0  0
 19 18  1  0  0  0  0
 21 20  1  0  0  0  0
 21 19  1  0  0  0  0
 22 25  1  0  0  0  0
 22 26  1  0  0  0  0
 24 25  2  0  0  0  0
 25 21  1  0  0  0  0
 26 23  1  6  0  0  0
 26 20  1  0  0  0  0
 27  1  1  0  0  0  0
 28 27  1  0  0  0  0
 29 31  1  0  0  0  0
 29 30  1  0  0  0  0
 30 28  1  1  0  0  0
 31 32  1  1  0  0  0
 31 30  1  0  0  0  0
 32 33  1  6  0  0  0
 32 37  1  0  0  0  0
 35 37  2  0  0  0  0
 36 37  2  0  0  0  0
 37 34  1  0  0  0  0
M  END
>  <MODEL>
4

>  <REMARK>
 VINA RESULT:      -8.7      3.207      7.863
  Name = 
  10 active torsions:
  status: ('A' for Active; 'I' for Inactive)
    1  A    between atoms: C_2  and  S_30
    2  A    between atoms: C_2  and  C_33
    3  A    between atoms: C_3  and  C_11
    4  A    between atoms: C_5  and  C_22
    5  A    between atoms: N_6  and  C_13
    6  A    between atoms: C_11  and  N_27
    7  A    between atoms: C_12  and  C_15
    8  A    between atoms: C_13  and  C_36
    9  A    between atoms: C_15  and  C_36
   10  A    between atoms: N_27  and  C_29
                            x       y       z     vdW  Elec       q    Type
                         _______ _______ _______ _____ _____    ______ ____

>  <TORSDO>
F 10

$$$$
=
 OpenBabel11042410203D

 37 41  0  0  1  0  0  0  0  0999 V2000
  185.8540  177.8750  144.0960 C   0  0  0  0  0  0  0  0  0  0  0  0
  187.1930  177.4420  144.2690 C   0  0  0  0  0  0  0  0  0  0  0  0
  187.5700  178.0320  147.8940 N   0  0  0  0  0  0  0  0  0  0  0  0
  185.6850  178.3670  146.4700 C   0  0  0  0  0  3  0  0  0  0  0  0
  185.1150  178.3240  145.1960 C   0  0  0  0  0  3  0  0  0  0  0  0
  189.6110  177.1820  147.0980 C   0  0  0  0  0  0  0  0  0  0  0  0
  191.0150  176.7720  147.3640 C   0  0  0  0  0  1  0  0  0  0  0  0
  189.0880  177.1020  145.8060 C   0  0  0  0  0  3  0  0  0  0  0  0
  187.7680  177.4970  145.5640 C   0  0  0  0  0  0  0  0  0  0  0  0
  188.8330  177.6550  148.1080 N   0  0  0  0  0  0  0  0  0  0  0  0
  187.0040  177.9630  146.6570 C   0  0  0  0  0  0  0  0  0  0  0  0
  187.6320  177.5900  141.7420 C   0  0  0  0  0  2  0  0  0  0  0  0
  188.9380  178.0070  142.4000 C   0  0  1  0  0  3  0  0  0  0  0  0
  188.0180  176.9970  143.0800 C   0  0  1  0  0  0  0  0  0  0  0  0
  188.3810  175.6510  143.0120 O   0  0  0  0  0  1  0  0  0  0  0  0
  190.0990  177.3330  141.6790 C   0  0  0  0  0  2  0  0  0  0  0  0
  190.6190  176.0060  139.7460 O   0  0  0  0  0  1  0  0  0  0  0  0
  189.7620  176.9990  140.2250 C   0  0  2  0  0  3  0  0  0  0  0  0
  189.8280  178.2240  139.3190 C   0  0  0  0  0  2  0  0  0  0  0  0
  189.8770  177.5100  136.9300 N   0  0  0  0  0  2  0  0  0  0  0  0
  189.1710  177.9670  138.0490 N   0  0  0  0  0  0  0  0  0  0  0  0
  187.4770  177.6830  136.4410 C   0  0  0  0  0  2  0  0  0  0  0  0
  188.9230  176.0240  135.2420 C   0  0  0  0  0  1  0  0  0  0  0  0
  186.9610  178.6220  138.6140 N   0  0  0  0  0  2  0  0  0  0  0  0
  187.7810  177.9960  137.8370 C   0  0  0  0  0  0  0  0  0  0  0  0
  188.8720  177.4090  135.8620 C   0  0  2  0  0  3  0  0  0  0  0  0
  185.1930  177.8920  142.7570 C   0  0  0  0  0  2  0  0  0  0  0  0
  183.9370  178.6160  142.8400 N   0  0  0  0  0  2  0  0  0  0  0  0
  183.8120  178.4110  140.4210 C   0  0  0  0  0  2  0  0  0  0  0  0
  183.8020  179.3700  141.5990 C   0  0  1  0  0  3  0  0  0  0  0  0
  182.5010  179.0510  140.8430 C   0  0  2  0  0  3  0  0  0  0  0  0
  181.6080  178.0290  141.5390 C   0  0  2  0  0  3  0  0  0  0  0  0
  181.1350  177.1060  140.6050 O   0  0  0  0  0  1  0  0  0  0  0  0
  178.9490  179.1080  141.1010 C   0  0  0  0  0  1  0  0  0  0  0  0
  180.6630  180.1850  142.8560 O   0  0  0  0  0  0  0  0  0  0  0  0
  179.6800  178.0100  143.4320 O   0  0  0  0  0  0  0  0  0  0  0  0
  180.2230  178.8530  142.3100 S   0  0  0  0  0  0  0  0  0  0  0  0
  1  2  2  0  0  0  0
  1  5  1  0  0  0  0
  2  9  1  0  0  0  0
  3 10  1  0  0  0  0
  4 11  1  0  0  0  0
  5  4  2  0  0  0  0
  6  7  1  0  0  0  0
  6 10  2  0  0  0  0
  8  6  1  0  0  0  0
  9  8  2  0  0  0  0
  9 11  1  0  0  0  0
 11  3  2  0  0  0  0
 12 13  1  0  0  0  0
 12 14  1  0  0  0  0
 13 16  1  6  0  0  0
 13 14  1  0  0  0  0
 14 15  1  6  0  0  0
 14  2  1  0  0  0  0
 18 17  1  6  0  0  0
 18 16  1  0  0  0  0
 19 18  1  0  0  0  0
 20 21  1  0  0  0  0
 21 19  1  0  0  0  0
 22 25  1  0  0  0  0
 25 21  1  0  0  0  0
 25 24  2  0  0  0  0
 26 23  1  1  0  0  0
 26 22  1  0  0  0  0
 26 20  1  0  0  0  0
 27 28  1  0  0  0  0
 27  1  1  0  0  0  0
 29 31  1  0  0  0  0
 29 30  1  0  0  0  0
 30 28  1  1  0  0  0
 31 32  1  1  0  0  0
 31 30  1  0  0  0  0
 32 33  1  6  0  0  0
 32 37  1  0  0  0  0
 34 37  1  0  0  0  0
 37 35  2  0  0  0  0
 37 36  2  0  0  0  0
M  END
>  <MODEL>
5

>  <REMARK>
 VINA RESULT:      -8.4      2.918      7.977
  Name = 
  10 active torsions:
  status: ('A' for Active; 'I' for Inactive)
    1  A    between atoms: C_2  and  S_30
    2  A    between atoms: C_2  and  C_33
    3  A    between atoms: C_3  and  C_11
    4  A    between atoms: C_5  and  C_22
    5  A    between atoms: N_6  and  C_13
    6  A    between atoms: C_11  and  N_27
    7  A    between atoms: C_12  and  C_15
    8  A    between atoms: C_13  and  C_36
    9  A    between atoms: C_15  and  C_36
   10  A    between atoms: N_27  and  C_29
                            x       y       z     vdW  Elec       q    Type
                         _______ _______ _______ _____ _____    ______ ____

>  <TORSDO>
F 10

$$$$
=
 OpenBabel11042410203D

 37 41  0  0  1  0  0  0  0  0999 V2000
  185.2090  178.3450  142.7780 C   0  0  0  0  0  0  0  0  0  0  0  0
  186.3110  178.0060  143.6040 C   0  0  0  0  0  0  0  0  0  0  0  0
  184.9300  178.9520  146.8950 N   0  0  0  0  0  0  0  0  0  0  0  0
  183.9370  179.0460  144.7270 C   0  0  0  0  0  3  0  0  0  0  0  0
  184.0360  178.8530  143.3480 C   0  0  0  0  0  3  0  0  0  0  0  0
  187.1100  178.1480  147.2450 C   0  0  0  0  0  0  0  0  0  0  0  0
  188.2240  177.8440  148.1810 C   0  0  0  0  0  1  0  0  0  0  0  0
  187.2580  177.9180  145.8760 C   0  0  0  0  0  3  0  0  0  0  0  0
  186.2070  178.2140  145.0030 C   0  0  0  0  0  0  0  0  0  0  0  0
  185.9440  178.6680  147.7160 N   0  0  0  0  0  0  0  0  0  0  0  0
  185.0150  178.7360  145.5530 C   0  0  0  0  0  0  0  0  0  0  0  0
  187.9110  177.9790  141.5940 C   0  0  0  0  0  2  0  0  0  0  0  0
  188.7430  178.4840  142.7620 C   0  0  1  0  0  3  0  0  0  0  0  0
  187.6010  177.5000  142.9960 C   0  0  1  0  0  0  0  0  0  0  0  0
  187.9410  176.1640  143.2190 O   0  0  0  0  0  1  0  0  0  0  0  0
  190.1020  177.7940  142.7430 C   0  0  0  0  0  2  0  0  0  0  0  0
  190.5970  175.6280  141.8330 O   0  0  0  0  0  1  0  0  0  0  0  0
  190.3040  176.9470  141.4850 C   0  0  2  0  0  3  0  0  0  0  0  0
  191.4020  177.5030  140.5830 C   0  0  0  0  0  2  0  0  0  0  0  0
  190.0210  176.8300  138.6190 N   0  0  0  0  0  2  0  0  0  0  0  0
  191.2700  176.9920  139.2300 N   0  0  0  0  0  0  0  0  0  0  0  0
  191.8360  176.2460  137.0710 C   0  0  0  0  0  2  0  0  0  0  0  0
  189.6410  177.1080  136.2210 C   0  0  0  0  0  1  0  0  0  0  0  0
  193.5560  176.5810  138.7440 N   0  0  0  0  0  2  0  0  0  0  0  0
  192.3390  176.7520  138.3480 C   0  0  0  0  0  0  0  0  0  0  0  0
  190.3170  176.2700  137.2920 C   0  0  2  0  0  3  0  0  0  0  0  0
  185.2580  178.2010  141.2930 C   0  0  0  0  0  2  0  0  0  0  0  0
  184.6830  179.3780  140.6670 N   0  0  0  0  0  2  0  0  0  0  0  0
  183.7260  177.7350  139.1510 C   0  0  0  0  0  2  0  0  0  0  0  0
  184.4800  179.0500  139.2600 C   0  0  1  0  0  3  0  0  0  0  0  0
  182.9950  179.0340  138.8580 C   0  0  2  0  0  3  0  0  0  0  0  0
  182.0360  179.3750  139.9940 C   0  0  2  0  0  3  0  0  0  0  0  0
  181.4130  178.2100  140.4470 O   0  0  0  0  0  1  0  0  0  0  0  0
  179.6460  179.6700  138.3720 C   0  0  0  0  0  1  0  0  0  0  0  0
  181.4500  181.6330  138.6410 O   0  0  0  0  0  0  0  0  0  0  0  0
  180.0540  181.1110  140.5920 O   0  0  0  0  0  0  0  0  0  0  0  0
  180.7950  180.5260  139.4210 S   0  0  0  0  0  0  0  0  0  0  0  0
  1  5  2  0  0  0  0
  1  2  1  0  0  0  0
  2  9  2  0  0  0  0
  3 10  2  0  0  0  0
  4 11  2  0  0  0  0
  5  4  1  0  0  0  0
  6 10  1  0  0  0  0
  6  7  1  0  0  0  0
  8  6  2  0  0  0  0
  9 11  1  0  0  0  0
  9  8  1  0  0  0  0
 11  3  1  0  0  0  0
 12 13  1  0  0  0  0
 12 14  1  0  0  0  0
 13 16  1  6  0  0  0
 13 14  1  0  0  0  0
 14 15  1  1  0  0  0
 14  2  1  0  0  0  0
 18 17  1  1  0  0  0
 18 16  1  0  0  0  0
 19 18  1  0  0  0  0
 20 21  1  0  0  0  0
 21 19  1  0  0  0  0
 22 26  1  0  0  0  0
 22 25  1  0  0  0  0
 25 24  2  0  0  0  0
 25 21  1  0  0  0  0
 26 23  1  6  0  0  0
 26 20  1  0  0  0  0
 27  1  1  0  0  0  0
 28 27  1  0  0  0  0
 29 30  1  0  0  0  0
 30 28  1  1  0  0  0
 31 29  1  0  0  0  0
 31 30  1  0  0  0  0
 31 32  1  1  0  0  0
 32 33  1  6  0  0  0
 34 37  1  0  0  0  0
 35 37  2  0  0  0  0
 37 32  1  0  0  0  0
 37 36  2  0  0  0  0
M  END
>  <MODEL>
6

>  <REMARK>
 VINA RESULT:      -8.3      3.477      6.747
  Name = 
  10 active torsions:
  status: ('A' for Active; 'I' for Inactive)
    1  A    between atoms: C_2  and  S_30
    2  A    between atoms: C_2  and  C_33
    3  A    between atoms: C_3  and  C_11
    4  A    between atoms: C_5  and  C_22
    5  A    between atoms: N_6  and  C_13
    6  A    between atoms: C_11  and  N_27
    7  A    between atoms: C_12  and  C_15
    8  A    between atoms: C_13  and  C_36
    9  A    between atoms: C_15  and  C_36
   10  A    between atoms: N_27  and  C_29
                            x       y       z     vdW  Elec       q    Type
                         _______ _______ _______ _____ _____    ______ ____

>  <TORSDO>
F 10

$$$$
=
 OpenBabel11042410203D

 37 41  0  0  1  0  0  0  0  0999 V2000
  185.3280  178.3600  142.8930 C   0  0  0  0  0  0  0  0  0  0  0  0
  186.4550  178.0000  143.6740 C   0  0  0  0  0  0  0  0  0  0  0  0
  185.2050  178.9200  147.0240 N   0  0  0  0  0  0  0  0  0  0  0  0
  184.1350  179.0500  144.8950 C   0  0  0  0  0  3  0  0  0  0  0  0
  184.1820  178.8720  143.5120 C   0  0  0  0  0  3  0  0  0  0  0  0
  187.3870  178.0900  147.2860 C   0  0  0  0  0  0  0  0  0  0  0  0
  188.5320  177.7640  148.1760 C   0  0  0  0  0  1  0  0  0  0  0  0
  187.4830  177.8750  145.9090 C   0  0  0  0  0  3  0  0  0  0  0  0
  186.4040  178.1920  145.0780 C   0  0  0  0  0  0  0  0  0  0  0  0
  186.2460  178.6160  147.8040 N   0  0  0  0  0  0  0  0  0  0  0  0
  185.2390  178.7200  145.6770 C   0  0  0  0  0  0  0  0  0  0  0  0
  187.9330  177.9050  141.5750 C   0  0  0  0  0  2  0  0  0  0  0  0
  188.8240  178.4790  142.6670 C   0  0  1  0  0  3  0  0  0  0  0  0
  187.7170  177.4870  143.0140 C   0  0  1  0  0  0  0  0  0  0  0  0
  188.0960  176.1700  143.2770 O   0  0  0  0  0  1  0  0  0  0  0  0
  190.1920  177.8130  142.5980 C   0  0  0  0  0  2  0  0  0  0  0  0
  190.8340  175.6270  141.8360 O   0  0  0  0  0  1  0  0  0  0  0  0
  190.3080  176.8500  141.4140 C   0  0  2  0  0  3  0  0  0  0  0  0
  191.1620  177.4210  140.2860 C   0  0  0  0  0  2  0  0  0  0  0  0
  191.1700  175.7170  138.4650 N   0  0  0  0  0  2  0  0  0  0  0  0
  190.7130  176.9290  138.9950 N   0  0  0  0  0  0  0  0  0  0  0  0
  189.5020  176.7450  136.9860 C   0  0  0  0  0  2  0  0  0  0  0  0
  189.8120  174.2590  137.0520 C   0  0  0  0  0  1  0  0  0  0  0  0
  189.3060  178.7310  138.3590 N   0  0  0  0  0  2  0  0  0  0  0  0
  189.6900  177.5070  138.2210 C   0  0  0  0  0  0  0  0  0  0  0  0
  190.5130  175.6020  137.1560 C   0  0  2  0  0  3  0  0  0  0  0  0
  185.3210  178.2320  141.4060 C   0  0  0  0  0  2  0  0  0  0  0  0
  183.9830  177.9030  140.9480 N   0  0  0  0  0  2  0  0  0  0  0  0
  182.7940  178.4410  138.8970 C   0  0  0  0  0  2  0  0  0  0  0  0
  183.5480  179.0000  140.0910 C   0  0  1  0  0  3  0  0  0  0  0  0
  182.0170  179.1250  140.0090 C   0  0  2  0  0  3  0  0  0  0  0  0
  181.2600  178.0960  140.8420 C   0  0  2  0  0  3  0  0  0  0  0  0
  180.4690  177.3060  140.0060 O   0  0  0  0  0  1  0  0  0  0  0  0
  178.9320  179.7980  141.1810 C   0  0  0  0  0  1  0  0  0  0  0  0
  181.0380  179.9010  142.8340 O   0  0  0  0  0  0  0  0  0  0  0  0
  179.6000  177.9150  142.9660 O   0  0  0  0  0  0  0  0  0  0  0  0
  180.2190  178.9230  142.0360 S   0  0  0  0  0  0  0  0  0  0  0  0
  1  5  2  0  0  0  0
  1  2  1  0  0  0  0
  2  9  2  0  0  0  0
  3 10  2  0  0  0  0
  4 11  2  0  0  0  0
  5  4  1  0  0  0  0
  6 10  1  0  0  0  0
  6  7  1  0  0  0  0
  8  6  2  0  0  0  0
  9 11  1  0  0  0  0
  9  8  1  0  0  0  0
 11  3  1  0  0  0  0
 12 13  1  0  0  0  0
 12 14  1  0  0  0  0
 13 16  1  6  0  0  0
 13 14  1  0  0  0  0
 14 15  1  1  0  0  0
 14  2  1  0  0  0  0
 18 17  1  1  0  0  0
 18 16  1  0  0  0  0
 19 18  1  0  0  0  0
 20 21  1  0  0  0  0
 21 19  1  0  0  0  0
 22 26  1  0  0  0  0
 22 25  1  0  0  0  0
 25 24  2  0  0  0  0
 25 21  1  0  0  0  0
 26 23  1  1  0  0  0
 26 20  1  0  0  0  0
 27  1  1  0  0  0  0
 28 27  1  0  0  0  0
 29 31  1  0  0  0  0
 29 30  1  0  0  0  0
 30 28  1  1  0  0  0
 31 30  1  0  0  0  0
 31 32  1  1  0  0  0
 32 33  1  6  0  0  0
 32 37  1  0  0  0  0
 34 37  1  0  0  0  0
 37 35  2  0  0  0  0
 37 36  2  0  0  0  0
M  END
>  <MODEL>
7

>  <REMARK>
 VINA RESULT:      -8.1      3.384      7.119
  Name = 
  10 active torsions:
  status: ('A' for Active; 'I' for Inactive)
    1  A    between atoms: C_2  and  S_30
    2  A    between atoms: C_2  and  C_33
    3  A    between atoms: C_3  and  C_11
    4  A    between atoms: C_5  and  C_22
    5  A    between atoms: N_6  and  C_13
    6  A    between atoms: C_11  and  N_27
    7  A    between atoms: C_12  and  C_15
    8  A    between atoms: C_13  and  C_36
    9  A    between atoms: C_15  and  C_36
   10  A    between atoms: N_27  and  C_29
                            x       y       z     vdW  Elec       q    Type
                         _______ _______ _______ _____ _____    ______ ____

>  <TORSDO>
F 10

$$$$
=
 OpenBabel11042410203D

 37 41  0  0  1  0  0  0  0  0999 V2000
  188.5250  177.9120  140.3580 C   0  0  0  0  0  0  0  0  0  0  0  0
  189.8110  177.3140  140.3500 C   0  0  0  0  0  0  0  0  0  0  0  0
  190.3560  177.0650  136.7070 N   0  0  0  0  0  0  0  0  0  0  0  0
  188.5120  177.9620  137.9280 C   0  0  0  0  0  3  0  0  0  0  0  0
  187.8950  178.2340  139.1500 C   0  0  0  0  0  3  0  0  0  0  0  0
  192.2470  176.1630  137.7700 C   0  0  0  0  0  0  0  0  0  0  0  0
  193.5820  175.5150  137.6710 C   0  0  0  0  0  1  0  0  0  0  0  0
  191.6860  176.4290  139.0210 C   0  0  0  0  0  3  0  0  0  0  0  0
  190.4270  177.0310  139.1050 C   0  0  0  0  0  0  0  0  0  0  0  0
  191.5570  176.4850  136.6440 N   0  0  0  0  0  0  0  0  0  0  0  0
  189.7660  177.3580  137.9000 C   0  0  0  0  0  0  0  0  0  0  0  0
  191.8480  177.5210  141.9020 C   0  0  0  0  0  2  0  0  0  0  0  0
  190.6600  177.9720  142.7380 C   0  0  1  0  0  3  0  0  0  0  0  0
  190.4830  176.9190  141.6480 C   0  0  1  0  0  0  0  0  0  0  0  0
  190.3740  175.5880  142.0540 O   0  0  0  0  0  1  0  0  0  0  0  0
  190.7620  177.3510  144.1260 C   0  0  0  0  0  2  0  0  0  0  0  0
  190.5390  178.4370  146.2560 O   0  0  0  0  0  1  0  0  0  0  0  0
  189.8240  178.0240  145.1310 C   0  0  2  0  0  3  0  0  0  0  0  0
  188.6750  177.1130  145.5500 C   0  0  0  0  0  2  0  0  0  0  0  0
  186.5840  178.3690  145.0320 N   0  0  0  0  0  2  0  0  0  0  0  0
  187.5180  177.8910  145.9580 N   0  0  0  0  0  0  0  0  0  0  0  0
  185.9150  178.9390  147.3240 C   0  0  0  0  0  2  0  0  0  0  0  0
  184.2040  178.6250  145.5200 C   0  0  0  0  0  1  0  0  0  0  0  0
  187.9340  178.0120  148.2920 N   0  0  0  0  0  2  0  0  0  0  0  0
  187.1270  178.1200  147.2900 C   0  0  0  0  0  0  0  0  0  0  0  0
  185.6050  179.1190  145.8320 C   0  0  2  0  0  3  0  0  0  0  0  0
  187.7900  178.1970  141.6260 C   0  0  0  0  0  2  0  0  0  0  0  0
  186.6510  179.0540  141.3500 N   0  0  0  0  0  2  0  0  0  0  0  0
  184.3250  179.3920  141.9730 C   0  0  0  0  0  2  0  0  0  0  0  0
  185.4860  178.4120  141.9510 C   0  0  1  0  0  3  0  0  0  0  0  0
  184.3150  178.2550  140.9670 C   0  0  2  0  0  3  0  0  0  0  0  0
  184.6020  178.7820  139.5640 C   0  0  2  0  0  3  0  0  0  0  0  0
  184.1430  180.0960  139.4530 O   0  0  0  0  0  1  0  0  0  0  0  0
  182.3040  178.5830  137.8010 C   0  0  0  0  0  1  0  0  0  0  0  0
  183.4150  176.4370  138.9590 O   0  0  0  0  0  0  0  0  0  0  0  0
  184.6860  177.5350  137.1680 O   0  0  0  0  0  0  0  0  0  0  0  0
  183.7810  177.7630  138.3480 S   0  0  0  0  0  0  0  0  0  0  0  0
  1 27  1  0  0  0  0
  2  1  1  0  0  0  0
  2 14  1  0  0  0  0
  3 11  1  0  0  0  0
  4  5  1  0  0  0  0
  5  1  2  0  0  0  0
  6  8  2  0  0  0  0
  7  6  1  0  0  0  0
  8  9  1  0  0  0  0
  9  2  2  0  0  0  0
 10  3  2  0  0  0  0
 10  6  1  0  0  0  0
 11  4  2  0  0  0  0
 11  9  1  0  0  0  0
 12 13  1  0  0  0  0
 13 16  1  1  0  0  0
 14 12  1  0  0  0  0
 14 15  1  1  0  0  0
 14 13  1  0  0  0  0
 16 18  1  0  0  0  0
 18 19  1  0  0  0  0
 18 17  1  1  0  0  0
 19 21  1  0  0  0  0
 20 26  1  0  0  0  0
 20 21  1  0  0  0  0
 21 25  1  0  0  0  0
 25 22  1  0  0  0  0
 25 24  2  0  0  0  0
 26 23  1  1  0  0  0
 26 22  1  0  0  0  0
 28 27  1  0  0  0  0
 30 28  1  6  0  0  0
 30 29  1  0  0  0  0
 31 32  1  6  0  0  0
 31 30  1  0  0  0  0
 31 29  1  0  0  0  0
 32 33  1  1  0  0  0
 34 37  1  0  0  0  0
 36 37  2  0  0  0  0
 37 35  2  0  0  0  0
 37 32  1  0  0  0  0
M  END
>  <MODEL>
8

>  <REMARK>
 VINA RESULT:      -8.1      2.942      7.063
  Name = 
  10 active torsions:
  status: ('A' for Active; 'I' for Inactive)
    1  A    between atoms: C_2  and  S_30
    2  A    between atoms: C_2  and  C_33
    3  A    between atoms: C_3  and  C_11
    4  A    between atoms: C_5  and  C_22
    5  A    between atoms: N_6  and  C_13
    6  A    between atoms: C_11  and  N_27
    7  A    between atoms: C_12  and  C_15
    8  A    between atoms: C_13  and  C_36
    9  A    between atoms: C_15  and  C_36
   10  A    between atoms: N_27  and  C_29
                            x       y       z     vdW  Elec       q    Type
                         _______ _______ _______ _____ _____    ______ ____

>  <TORSDO>
F 10

$$$$
=
 OpenBabel11042410203D

 37 41  0  0  1  0  0  0  0  0999 V2000
  184.9970  178.4610  142.6740 C   0  0  0  0  0  0  0  0  0  0  0  0
  183.8810  178.4870  141.8000 C   0  0  0  0  0  0  0  0  0  0  0  0
  181.1690  178.8810  144.2740 N   0  0  0  0  0  0  0  0  0  0  0  0
  183.5310  178.7530  144.5900 C   0  0  0  0  0  3  0  0  0  0  0  0
  184.8110  178.6010  144.0540 C   0  0  0  0  0  3  0  0  0  0  0  0
  180.1790  178.7870  142.1450 C   0  0  0  0  0  0  0  0  0  0  0  0
  178.9520  178.8000  141.3050 C   0  0  0  0  0  1  0  0  0  0  0  0
  181.4360  178.6510  141.5530 C   0  0  0  0  0  3  0  0  0  0  0  0
  182.5830  178.6320  142.3530 C   0  0  0  0  0  0  0  0  0  0  0  0
  180.0820  178.8920  143.4980 N   0  0  0  0  0  0  0  0  0  0  0  0
  182.4210  178.7620  143.7500 C   0  0  0  0  0  0  0  0  0  0  0  0
  183.8180  179.5070  139.4430 C   0  0  0  0  0  2  0  0  0  0  0  0
  185.2350  178.9820  139.6140 C   0  0  1  0  0  3  0  0  0  0  0  0
  184.0650  178.2920  140.3100 C   0  0  1  0  0  0  0  0  0  0  0  0
  183.5990  177.1010  139.7520 O   0  0  0  0  0  1  0  0  0  0  0  0
  185.6560  178.2570  138.3420 C   0  0  0  0  0  2  0  0  0  0  0  0
  187.8920  178.7950  139.0370 O   0  0  0  0  0  1  0  0  0  0  0  0
  187.1260  177.8310  138.3790 C   0  0  2  0  0  3  0  0  0  0  0  0
  187.6910  177.5810  136.9840 C   0  0  0  0  0  2  0  0  0  0  0  0
  190.1620  177.2880  137.1470 N   0  0  0  0  0  2  0  0  0  0  0  0
  188.8760  176.7440  137.0470 N   0  0  0  0  0  0  0  0  0  0  0  0
  190.2430  174.8350  137.2060 C   0  0  0  0  0  2  0  0  0  0  0  0
  191.9980  176.2130  138.3480 C   0  0  0  0  0  1  0  0  0  0  0  0
  187.8580  174.6100  136.8440 N   0  0  0  0  0  2  0  0  0  0  0  0
  188.8710  175.3420  137.1660 C   0  0  0  0  0  0  0  0  0  0  0  0
  191.0660  176.1300  137.1510 C   0  0  2  0  0  3  0  0  0  0  0  0
  186.3910  178.2650  142.1750 C   0  0  0  0  0  2  0  0  0  0  0  0
  187.3140  178.2360  143.2950 N   0  0  0  0  0  2  0  0  0  0  0  0
  189.3870  176.9810  143.0960 C   0  0  0  0  0  2  0  0  0  0  0  0
  187.8880  176.8960  143.3340 C   0  0  1  0  0  3  0  0  0  0  0  0
  188.8740  176.7000  144.4980 C   0  0  2  0  0  3  0  0  0  0  0  0
  189.0460  177.9290  145.3850 C   0  0  2  0  0  3  0  0  0  0  0  0
  190.1740  178.6450  144.9820 O   0  0  0  0  0  1  0  0  0  0  0  0
  190.8650  176.7540  147.3190 C   0  0  0  0  0  1  0  0  0  0  0  0
  188.2130  176.3830  147.4330 O   0  0  0  0  0  0  0  0  0  0  0  0
  189.0640  178.6160  147.9980 O   0  0  0  0  0  0  0  0  0  0  0  0
  189.2390  177.4300  147.0900 S   0  0  0  0  0  0  0  0  0  0  0  0
  1  5  1  0  0  0  0
  2  9  1  0  0  0  0
  2  1  2  0  0  0  0
  5  4  2  0  0  0  0
  6 10  1  0  0  0  0
  7  6  1  0  0  0  0
  8  6  2  0  0  0  0
  8  9  1  0  0  0  0
  9 11  2  0  0  0  0
 10  3  2  0  0  0  0
 11  3  1  0  0  0  0
 11  4  1  0  0  0  0
 12 13  1  0  0  0  0
 12 14  1  0  0  0  0
 13 16  1  6  0  0  0
 13 14  1  0  0  0  0
 14 15  1  6  0  0  0
 14  2  1  0  0  0  0
 16 18  1  0  0  0  0
 18 17  1  6  0  0  0
 19 21  1  0  0  0  0
 19 18  1  0  0  0  0
 20 26  1  0  0  0  0
 21 20  1  0  0  0  0
 21 25  1  0  0  0  0
 24 25  2  0  0  0  0
 25 22  1  0  0  0  0
 26 22  1  0  0  0  0
 26 23  1  1  0  0  0
 27  1  1  0  0  0  0
 27 28  1  0  0  0  0
 29 30  1  0  0  0  0
 29 31  1  0  0  0  0
 30 28  1  1  0  0  0
 30 31  1  0  0  0  0
 31 32  1  1  0  0  0
 32 33  1  6  0  0  0
 32 37  1  0  0  0  0
 37 34  1  0  0  0  0
 37 35  2  0  0  0  0
 37 36  2  0  0  0  0
M  END
>  <MODEL>
9

>  <REMARK>
 VINA RESULT:      -7.8      2.938      6.714
  Name = 
  10 active torsions:
  status: ('A' for Active; 'I' for Inactive)
    1  A    between atoms: C_2  and  S_30
    2  A    between atoms: C_2  and  C_33
    3  A    between atoms: C_3  and  C_11
    4  A    between atoms: C_5  and  C_22
    5  A    between atoms: N_6  and  C_13
    6  A    between atoms: C_11  and  N_27
    7  A    between atoms: C_12  and  C_15
    8  A    between atoms: C_13  and  C_36
    9  A    between atoms: C_15  and  C_36
   10  A    between atoms: N_27  and  C_29
                            x       y       z     vdW  Elec       q    Type
                         _______ _______ _______ _____ _____    ______ ____

>  <TORSDO>
F 10

$$$$
