=
 OpenBabel11042413253D

 50 52  0  0  1  0  0  0  0  0999 V2000
  190.0940  176.7970  140.6340 C   0  0  0  0  0  0  0  0  0  0  0  0
  189.3800  175.7990  141.2680 O   0  0  0  0  0  0  0  0  0  0  0  0
  190.7080  177.7250  141.6150 C   0  0  0  0  0  2  0  0  0  0  0  0
  190.3980  176.9300  138.0460 C   0  0  0  0  0  0  0  0  0  0  0  0
  189.4960  175.9990  142.6330 C   0  0  0  0  0  3  0  0  0  0  0  0
  190.2380  176.8730  139.3410 C   0  0  0  0  0  0  0  0  0  0  0  0
  190.2440  177.0740  142.8770 C   0  0  0  0  0  0  0  0  0  0  0  0
  190.9010  179.0780  144.2240 C   0  0  0  0  0  1  0  0  0  0  0  0
  190.5890  177.5910  144.2460 C   0  0  1  0  0  3  0  0  0  0  0  0
  189.5570  177.2450  145.3280 C   0  0  0  0  0  3  0  0  0  0  0  0
  189.0320  177.0590  147.7770 C   0  0  0  0  0  2  0  0  0  0  0  0
  190.0890  177.4550  146.7500 C   0  0  0  0  0  2  0  0  0  0  0  0
  188.2590  178.0260  145.1110 C   0  0  0  0  0  2  0  0  0  0  0  0
  187.7540  177.8640  147.5560 C   0  0  0  0  0  2  0  0  0  0  0  0
  187.2170  177.6210  146.1480 C   0  0  0  0  0  2  0  0  0  0  0  0
  188.4070  176.5980  136.6130 C   0  0  0  0  0  0  0  0  0  0  0  0
  189.3080  177.4420  137.1770 C   0  0  0  0  0  0  0  0  0  0  0  0
  187.3230  177.0250  135.8250 O   0  0  0  0  0  0  0  0  0  0  0  0
  186.2360  177.8210  136.2780 C   0  0  0  0  0  1  0  0  0  0  0  0
  188.8940  179.7590  137.8220 O   0  0  0  0  0  1  0  0  0  0  0  0
  189.2550  178.8460  136.8910 N   0  0  0  0  0  2  0  0  0  0  0  0
  188.5410  175.1160  136.7770 C   0  0  0  0  0  2  0  0  0  0  0  0
  186.1560  174.0260  137.2880 C   0  0  0  0  0  0  0  0  0  0  0  0
  187.2310  174.5180  137.0510 C   0  0  0  0  0  0  0  0  0  0  0  0
  184.8510  173.4320  137.5860 C   0  0  0  0  0  2  0  0  0  0  0  0
  183.7340  174.3760  137.1780 C   0  0  0  0  0  2  0  0  0  0  0  0
  183.3480  175.2120  138.3050 N   0  0  0  0  0  2  0  0  0  0  0  0
  181.1280  175.6790  136.8910 O   0  0  0  0  0  1  0  0  0  0  0  0
  182.1840  176.3820  137.7120 P   0  0  2  0  0  0  0  0  0  0  0  0
  182.9690  177.5280  136.7450 O   0  0  0  0  0  0  0  0  0  0  0  0
  181.3860  177.2130  139.1240 C   0  0  1  0  0  3  0  0  0  0  0  0
  181.4000  176.3480  140.2190 O   0  0  0  0  0  1  0  0  0  0  0  0
  182.0950  178.5310  139.4730 C   0  0  1  0  0  3  0  0  0  0  0  0
  181.2740  179.3280  140.2740 O   0  0  0  0  0  1  0  0  0  0  0  0
  183.3430  178.5070  141.6830 C   0  0  0  0  0  1  0  0  0  0  0  0
  183.4470  178.3450  140.1760 C   0  0  2  0  0  3  0  0  0  0  0  0
  185.8520  178.7140  139.6160 O   0  0  0  0  0  1  0  0  0  0  0  0
  184.2920  180.2920  139.0530 O   0  0  0  0  0  0  0  0  0  0  0  0
  184.5460  179.1840  139.5940 C   0  0  0  0  0  0  0  0  0  0  0  0
  191.5970  176.2700  137.4460 C   0  0  0  0  0  2  0  0  0  0  0  0
  192.6460  176.2170  138.3780 O   0  0  0  0  0  0  0  0  0  0  0  0
  194.7070  175.0350  135.5120 C   0  0  0  0  0  1  0  0  0  0  0  0
  194.8920  173.1860  137.9300 N   0  0  0  0  0  0  0  0  0  0  0  0
  193.7010  173.4040  137.1150 C   0  0  0  0  0  2  0  0  0  0  0  0
  195.5160  171.8750  137.9220 C   0  0  0  0  0  1  0  0  0  0  0  0
  193.6480  174.8360  136.5820 C   0  0  1  0  0  3  0  0  0  0  0  0
  193.8410  175.8610  137.7150 C   0  0  2  0  0  3  0  0  0  0  0  0
  195.3930  174.2380  138.7670 C   0  0  0  0  0  0  0  0  0  0  0  0
  194.9000  175.5360  138.6240 O   0  0  0  0  0  0  0  0  0  0  0  0
  196.3080  174.0090  139.6030 O   0  0  0  0  0  0  0  0  0  0  0  0
  1  2  1  0  0  0  0
  1  3  1  0  0  0  0
  2  5  1  0  0  0  0
  3  7  1  0  0  0  0
  4  6  2  0  0  0  0
  5  7  2  0  0  0  0
  6  1  2  0  0  0  0
  7  9  1  0  0  0  0
  9  8  1  6  0  0  0
  9 10  1  0  0  0  0
 10 12  1  0  0  0  0
 12 11  1  0  0  0  0
 13 10  1  0  0  0  0
 13 15  1  0  0  0  0
 14 11  1  0  0  0  0
 15 14  1  0  0  0  0
 16 22  1  0  0  0  0
 16 17  2  0  0  0  0
 17  4  1  0  0  0  0
 18 19  1  0  0  0  0
 18 16  1  0  0  0  0
 21 17  1  0  0  0  0
 21 20  1  0  0  0  0
 22 24  1  0  0  0  0
 23 25  1  0  0  0  0
 24 23  3  0  0  0  0
 26 25  1  0  0  0  0
 26 27  1  0  0  0  0
 28 29  1  0  0  0  0
 29 30  2  6  0  0  0
 29 27  1  0  0  0  0
 29 31  1  0  0  0  0
 31 33  1  0  0  0  0
 31 32  1  1  0  0  0
 33 36  1  0  0  0  0
 33 34  1  1  0  0  0
 36 35  1  1  0  0  0
 38 39  2  0  0  0  0
 39 37  1  0  0  0  0
 39 36  1  0  0  0  0
 40  4  1  0  0  0  0
 40 41  1  0  0  0  0
 43 48  1  0  0  0  0
 44 43  1  0  0  0  0
 45 43  1  0  0  0  0
 46 42  1  6  0  0  0
 46 44  1  0  0  0  0
 46 47  1  0  0  0  0
 47 41  1  1  0  0  0
 47 49  1  0  0  0  0
 48 50  2  0  0  0  0
 49 48  1  0  0  0  0
M  END
>  <MODEL>
1

>  <REMARK>
 VINA RESULT:      -7.7      0.000      0.000
  Name = 
  18 active torsions:
  status: ('A' for Active; 'I' for Inactive)
    1  A    between atoms: O_1  and  C_10
    2  A    between atoms: O_1  and  C_34
    3  A    between atoms: O_2  and  C_13
    4  A    between atoms: C_3  and  C_42
    5  A    between atoms: C_5  and  C_8
    6  A    between atoms: C_5  and  C_27
    7  A    between atoms: C_8  and  P_36
    8  A    between atoms: C_9  and  C_37
    9  A    between atoms: C_10  and  C_32
   10  A    between atoms: C_13  and  C_35
   11  A    between atoms: N_18  and  P_36
   12  A    between atoms: N_18  and  C_43
   13  A    between atoms: C_26  and  C_32
   14  A    between atoms: C_26  and  N_41
   15  A    between atoms: C_27  and  C_40
   16  A    between atoms: C_30  and  C_35
   17  A    between atoms: C_37  and  C_43
   18  A    between atoms: C_42  and  C_49
                            x       y       z     vdW  Elec       q    Type
                         _______ _______ _______ _____ _____    ______ ____

>  <TORSDO>
F 18

$$$$
=
 OpenBabel11042413253D

 50 52  0  0  1  0  0  0  0  0999 V2000
  190.0890  176.4150  140.8830 C   0  0  0  0  0  0  0  0  0  0  0  0
  190.3500  175.5060  141.8900 O   0  0  0  0  0  0  0  0  0  0  0  0
  189.2520  177.5380  141.3750 C   0  0  0  0  0  2  0  0  0  0  0  0
  191.0590  176.2100  138.4700 C   0  0  0  0  0  0  0  0  0  0  0  0
  189.7420  175.9700  143.0440 C   0  0  0  0  0  3  0  0  0  0  0  0
  190.5620  176.3100  139.6740 C   0  0  0  0  0  0  0  0  0  0  0  0
  189.1150  177.1210  142.8030 C   0  0  0  0  0  0  0  0  0  0  0  0
  186.8760  178.0160  143.4720 C   0  0  0  0  0  1  0  0  0  0  0  0
  188.3520  177.9160  143.8240 C   0  0  1  0  0  3  0  0  0  0  0  0
  188.5580  177.4470  145.2700 C   0  0  0  0  0  3  0  0  0  0  0  0
  190.0880  177.3070  147.2580 C   0  0  0  0  0  2  0  0  0  0  0  0
  189.9300  177.8340  145.8350 C   0  0  0  0  0  2  0  0  0  0  0  0
  187.4340  177.9590  146.1740 C   0  0  0  0  0  2  0  0  0  0  0  0
  188.9690  177.8460  148.1460 C   0  0  0  0  0  2  0  0  0  0  0  0
  187.6100  177.4270  147.5920 C   0  0  0  0  0  2  0  0  0  0  0  0
  189.5780  175.6910  136.5540 C   0  0  0  0  0  0  0  0  0  0  0  0
  190.4660  175.2650  137.4890 C   0  0  0  0  0  0  0  0  0  0  0  0
  189.0230  174.8580  135.5670 O   0  0  0  0  0  0  0  0  0  0  0  0
  188.0720  173.8260  135.7960 C   0  0  0  0  0  1  0  0  0  0  0  0
  191.6740  173.2830  136.7330 O   0  0  0  0  0  1  0  0  0  0  0  0
  190.8000  173.8740  137.5820 N   0  0  0  0  0  2  0  0  0  0  0  0
  189.1020  177.1100  136.5430 C   0  0  0  0  0  2  0  0  0  0  0  0
  186.4650  177.1930  136.1260 C   0  0  0  0  0  0  0  0  0  0  0  0
  187.6540  177.1550  136.3210 C   0  0  0  0  0  0  0  0  0  0  0  0
  185.0220  177.2360  135.8800 C   0  0  0  0  0  2  0  0  0  0  0  0
  184.2570  177.1050  137.1850 C   0  0  0  0  0  2  0  0  0  0  0  0
  183.0510  176.3160  136.9820 N   0  0  0  0  0  2  0  0  0  0  0  0
  180.4070  176.6990  137.0490 O   0  0  0  0  0  0  0  0  0  0  0  0
  181.7030  177.2610  137.5860 P   0  0  2  0  0  0  0  0  0  0  0  0
  181.8630  178.8690  137.0850 O   0  0  0  0  0  1  0  0  0  0  0  0
  181.6760  177.1850  139.4070 C   0  0  1  0  0  3  0  0  0  0  0  0
  182.4540  176.1020  139.8220 O   0  0  0  0  0  1  0  0  0  0  0  0
  182.1970  178.4890  140.0300 C   0  0  1  0  0  3  0  0  0  0  0  0
  181.2910  178.9720  140.9770 O   0  0  0  0  0  1  0  0  0  0  0  0
  183.5350  178.5960  142.1860 C   0  0  0  0  0  1  0  0  0  0  0  0
  183.5800  178.3590  140.6850 C   0  0  2  0  0  3  0  0  0  0  0  0
  185.9780  178.8680  140.2140 O   0  0  0  0  0  1  0  0  0  0  0  0
  184.3290  180.1330  139.2510 O   0  0  0  0  0  0  0  0  0  0  0  0
  184.6400  179.1830  140.0180 C   0  0  0  0  0  0  0  0  0  0  0  0
  192.3550  176.8910  138.1740 C   0  0  0  0  0  2  0  0  0  0  0  0
  192.8040  176.5520  136.8880 O   0  0  0  0  0  0  0  0  0  0  0  0
  196.2320  176.1560  135.4920 C   0  0  0  0  0  1  0  0  0  0  0  0
  195.1280  173.5580  136.6450 N   0  0  0  0  0  0  0  0  0  0  0  0
  194.6180  174.2490  135.4650 C   0  0  0  0  0  2  0  0  0  0  0  0
  195.7440  172.2530  136.4810 C   0  0  0  0  0  1  0  0  0  0  0  0
  194.7700  175.7640  135.6020 C   0  0  1  0  0  3  0  0  0  0  0  0
  194.1870  176.2660  136.9360 C   0  0  2  0  0  3  0  0  0  0  0  0
  194.9650  174.1380  137.9460 C   0  0  0  0  0  0  0  0  0  0  0  0
  194.5430  175.4640  138.0690 O   0  0  0  0  0  0  0  0  0  0  0  0
  195.2390  173.4750  138.9820 O   0  0  0  0  0  0  0  0  0  0  0  0
  1  3  1  0  0  0  0
  1  2  1  0  0  0  0
  2  5  1  0  0  0  0
  3  7  1  0  0  0  0
  4  6  2  0  0  0  0
  6  1  2  0  0  0  0
  7  5  2  0  0  0  0
  7  9  1  0  0  0  0
  9  8  1  6  0  0  0
  9 10  1  0  0  0  0
 10 12  1  0  0  0  0
 10 13  1  0  0  0  0
 11 14  1  0  0  0  0
 12 11  1  0  0  0  0
 13 15  1  0  0  0  0
 15 14  1  0  0  0  0
 16 17  2  0  0  0  0
 17 21  1  0  0  0  0
 17  4  1  0  0  0  0
 18 19  1  0  0  0  0
 18 16  1  0  0  0  0
 20 21  1  0  0  0  0
 22 16  1  0  0  0  0
 23 24  3  0  0  0  0
 24 22  1  0  0  0  0
 25 23  1  0  0  0  0
 25 26  1  0  0  0  0
 27 26  1  0  0  0  0
 27 29  1  0  0  0  0
 29 28  2  6  0  0  0
 29 31  1  0  0  0  0
 30 29  1  0  0  0  0
 31 32  1  6  0  0  0
 31 33  1  0  0  0  0
 33 36  1  0  0  0  0
 33 34  1  1  0  0  0
 36 35  1  1  0  0  0
 38 39  2  0  0  0  0
 39 37  1  0  0  0  0
 39 36  1  0  0  0  0
 40  4  1  0  0  0  0
 41 40  1  0  0  0  0
 43 48  1  0  0  0  0
 44 46  1  0  0  0  0
 44 43  1  0  0  0  0
 45 43  1  0  0  0  0
 46 42  1  1  0  0  0
 46 47  1  0  0  0  0
 47 41  1  6  0  0  0
 47 49  1  0  0  0  0
 48 49  1  0  0  0  0
 48 50  2  0  0  0  0
M  END
>  <MODEL>
2

>  <REMARK>
 VINA RESULT:      -7.5      1.622      2.180
  Name = 
  18 active torsions:
  status: ('A' for Active; 'I' for Inactive)
    1  A    between atoms: O_1  and  C_10
    2  A    between atoms: O_1  and  C_34
    3  A    between atoms: O_2  and  C_13
    4  A    between atoms: C_3  and  C_42
    5  A    between atoms: C_5  and  C_8
    6  A    between atoms: C_5  and  C_27
    7  A    between atoms: C_8  and  P_36
    8  A    between atoms: C_9  and  C_37
    9  A    between atoms: C_10  and  C_32
   10  A    between atoms: C_13  and  C_35
   11  A    between atoms: N_18  and  P_36
   12  A    between atoms: N_18  and  C_43
   13  A    between atoms: C_26  and  C_32
   14  A    between atoms: C_26  and  N_41
   15  A    between atoms: C_27  and  C_40
   16  A    between atoms: C_30  and  C_35
   17  A    between atoms: C_37  and  C_43
   18  A    between atoms: C_42  and  C_49
                            x       y       z     vdW  Elec       q    Type
                         _______ _______ _______ _____ _____    ______ ____

>  <TORSDO>
F 18

$$$$
=
 OpenBabel11042413253D

 50 52  0  0  1  0  0  0  0  0999 V2000
  190.5440  176.6160  141.0940 C   0  0  0  0  0  0  0  0  0  0  0  0
  190.5330  175.5190  141.9350 O   0  0  0  0  0  0  0  0  0  0  0  0
  190.6250  177.8830  141.8640 C   0  0  0  0  0  2  0  0  0  0  0  0
  190.5390  176.4360  138.4920 C   0  0  0  0  0  0  0  0  0  0  0  0
  190.6200  175.9850  143.2360 C   0  0  0  0  0  3  0  0  0  0  0  0
  190.5300  176.5300  139.7940 C   0  0  0  0  0  0  0  0  0  0  0  0
  190.6810  177.3160  143.2450 C   0  0  0  0  0  0  0  0  0  0  0  0
  191.3600  179.5400  144.1700 C   0  0  0  0  0  1  0  0  0  0  0  0
  190.7880  178.1660  144.4800 C   0  0  1  0  0  3  0  0  0  0  0  0
  189.4890  178.2640  145.2910 C   0  0  0  0  0  3  0  0  0  0  0  0
  187.0000  177.9280  145.3600 C   0  0  0  0  0  2  0  0  0  0  0  0
  188.2610  177.7700  144.5160 C   0  0  0  0  0  2  0  0  0  0  0  0
  189.6230  177.5260  146.6250 C   0  0  0  0  0  2  0  0  0  0  0  0
  187.1470  177.1680  146.6760 C   0  0  0  0  0  2  0  0  0  0  0  0
  188.3530  177.6910  147.4520 C   0  0  0  0  0  2  0  0  0  0  0  0
  188.3310  177.0880  137.5820 C   0  0  0  0  0  0  0  0  0  0  0  0
  189.2860  176.1390  137.7520 C   0  0  0  0  0  0  0  0  0  0  0  0
  187.1490  176.8850  136.8480 O   0  0  0  0  0  0  0  0  0  0  0  0
  186.7190  177.6670  135.7410 C   0  0  0  0  0  1  0  0  0  0  0  0
  189.3330  174.4550  135.9850 O   0  0  0  0  0  1  0  0  0  0  0  0
  189.0710  174.8070  137.2660 N   0  0  0  0  0  2  0  0  0  0  0  0
  188.4720  178.4380  138.2160 C   0  0  0  0  0  2  0  0  0  0  0  0
  187.0830  178.5360  140.4950 C   0  0  0  0  0  0  0  0  0  0  0  0
  187.7050  178.4930  139.4620 C   0  0  0  0  0  0  0  0  0  0  0  0
  186.3360  178.5930  141.7530 C   0  0  0  0  0  2  0  0  0  0  0  0
  184.8900  178.9750  141.4950 C   0  0  0  0  0  2  0  0  0  0  0  0
  184.7610  179.5920  140.1840 N   0  0  0  0  0  2  0  0  0  0  0  0
  182.6560  180.2020  138.6530 O   0  0  0  0  0  0  0  0  0  0  0  0
  183.2120  179.1000  139.5250 P   0  0  2  0  0  0  0  0  0  0  0  0
  182.1280  178.7890  140.7870 O   0  0  0  0  0  1  0  0  0  0  0  0
  183.4310  177.5970  138.5190 C   0  0  1  0  0  3  0  0  0  0  0  0
  183.0410  176.4900  139.2760 O   0  0  0  0  0  1  0  0  0  0  0  0
  182.6150  177.6700  137.2180 C   0  0  1  0  0  3  0  0  0  0  0  0
  183.3660  177.1850  136.1450 O   0  0  0  0  0  1  0  0  0  0  0  0
  181.0470  176.0570  136.0400 C   0  0  0  0  0  1  0  0  0  0  0  0
  181.2810  176.9110  137.2750 C   0  0  2  0  0  3  0  0  0  0  0  0
  179.4530  178.4480  136.5490 O   0  0  0  0  0  0  0  0  0  0  0  0
  179.6780  177.9040  138.7620 O   0  0  0  0  0  1  0  0  0  0  0  0
  180.1040  177.7890  137.5820 C   0  0  0  0  0  0  0  0  0  0  0  0
  191.8570  176.4120  137.7880 C   0  0  0  0  0  2  0  0  0  0  0  0
  192.5140  175.1920  138.0200 O   0  0  0  0  0  0  0  0  0  0  0  0
  195.1030  174.9340  135.3580 C   0  0  0  0  0  1  0  0  0  0  0  0
  195.5820  172.9830  137.6530 N   0  0  0  0  0  0  0  0  0  0  0  0
  194.4660  172.9340  136.7130 C   0  0  0  0  0  2  0  0  0  0  0  0
  196.5600  171.9090  137.6350 C   0  0  0  0  0  1  0  0  0  0  0  0
  194.0490  174.3380  136.2740 C   0  0  1  0  0  3  0  0  0  0  0  0
  193.8210  175.2580  137.4870 C   0  0  2  0  0  3  0  0  0  0  0  0
  195.6680  174.0450  138.6130 C   0  0  0  0  0  0  0  0  0  0  0  0
  194.8330  175.1570  138.4970 O   0  0  0  0  0  0  0  0  0  0  0  0
  196.5220  174.0030  139.5380 O   0  0  0  0  0  0  0  0  0  0  0  0
  1  3  1  0  0  0  0
  1  2  1  0  0  0  0
  2  5  1  0  0  0  0
  3  7  1  0  0  0  0
  4  6  2  0  0  0  0
  5  7  2  0  0  0  0
  6  1  2  0  0  0  0
  7  9  1  0  0  0  0
  9  8  1  6  0  0  0
  9 10  1  0  0  0  0
 10 13  1  0  0  0  0
 11 14  1  0  0  0  0
 12 10  1  0  0  0  0
 12 11  1  0  0  0  0
 13 15  1  0  0  0  0
 14 15  1  0  0  0  0
 16 17  2  0  0  0  0
 16 22  1  0  0  0  0
 17  4  1  0  0  0  0
 18 16  1  0  0  0  0
 19 18  1  0  0  0  0
 20 21  1  0  0  0  0
 21 17  1  0  0  0  0
 22 24  1  0  0  0  0
 23 25  1  0  0  0  0
 24 23  3  0  0  0  0
 26 25  1  0  0  0  0
 27 26  1  0  0  0  0
 29 28  2  6  0  0  0
 29 27  1  0  0  0  0
 29 30  1  0  0  0  0
 31 32  1  1  0  0  0
 31 29  1  0  0  0  0
 33 34  1  6  0  0  0
 33 36  1  0  0  0  0
 33 31  1  0  0  0  0
 36 35  1  6  0  0  0
 36 39  1  0  0  0  0
 37 39  2  0  0  0  0
 39 38  1  0  0  0  0
 40 41  1  0  0  0  0
 40  4  1  0  0  0  0
 43 48  1  0  0  0  0
 44 43  1  0  0  0  0
 45 43  1  0  0  0  0
 46 42  1  6  0  0  0
 46 44  1  0  0  0  0
 46 47  1  0  0  0  0
 47 41  1  1  0  0  0
 47 49  1  0  0  0  0
 48 50  2  0  0  0  0
 49 48  1  0  0  0  0
M  END
>  <MODEL>
3

>  <REMARK>
 VINA RESULT:      -7.4      1.928      3.258
  Name = 
  18 active torsions:
  status: ('A' for Active; 'I' for Inactive)
    1  A    between atoms: O_1  and  C_10
    2  A    between atoms: O_1  and  C_34
    3  A    between atoms: O_2  and  C_13
    4  A    between atoms: C_3  and  C_42
    5  A    between atoms: C_5  and  C_8
    6  A    between atoms: C_5  and  C_27
    7  A    between atoms: C_8  and  P_36
    8  A    between atoms: C_9  and  C_37
    9  A    between atoms: C_10  and  C_32
   10  A    between atoms: C_13  and  C_35
   11  A    between atoms: N_18  and  P_36
   12  A    between atoms: N_18  and  C_43
   13  A    between atoms: C_26  and  C_32
   14  A    between atoms: C_26  and  N_41
   15  A    between atoms: C_27  and  C_40
   16  A    between atoms: C_30  and  C_35
   17  A    between atoms: C_37  and  C_43
   18  A    between atoms: C_42  and  C_49
                            x       y       z     vdW  Elec       q    Type
                         _______ _______ _______ _____ _____    ______ ____

>  <TORSDO>
F 18

$$$$
=
 OpenBabel11042413253D

 50 52  0  0  1  0  0  0  0  0999 V2000
  189.8640  176.4540  141.0490 C   0  0  0  0  0  0  0  0  0  0  0  0
  190.0990  175.5040  142.0250 O   0  0  0  0  0  0  0  0  0  0  0  0
  189.0850  177.5960  141.5870 C   0  0  0  0  0  2  0  0  0  0  0  0
  190.7900  176.2800  138.6160 C   0  0  0  0  0  0  0  0  0  0  0  0
  189.5290  175.9590  143.2010 C   0  0  0  0  0  3  0  0  0  0  0  0
  190.3150  176.3640  139.8300 C   0  0  0  0  0  0  0  0  0  0  0  0
  188.9490  177.1430  143.0040 C   0  0  0  0  0  0  0  0  0  0  0  0
  186.7450  178.0390  143.7800 C   0  0  0  0  0  1  0  0  0  0  0  0
  188.2360  177.9400  144.0600 C   0  0  1  0  0  3  0  0  0  0  0  0
  188.5120  177.4720  145.4950 C   0  0  0  0  0  3  0  0  0  0  0  0
  190.1440  177.3140  147.3980 C   0  0  0  0  0  2  0  0  0  0  0  0
  189.9190  177.8380  145.9830 C   0  0  0  0  0  2  0  0  0  0  0  0
  187.4470  178.0050  146.4560 C   0  0  0  0  0  2  0  0  0  0  0  0
  189.0840  177.8740  148.3430 C   0  0  0  0  0  2  0  0  0  0  0  0
  187.6910  177.4750  147.8640 C   0  0  0  0  0  2  0  0  0  0  0  0
  189.2230  175.8740  136.7420 C   0  0  0  0  0  0  0  0  0  0  0  0
  190.1420  175.3910  137.6170 C   0  0  0  0  0  0  0  0  0  0  0  0
  188.6150  175.0970  135.7410 O   0  0  0  0  0  0  0  0  0  0  0  0
  187.6520  174.0730  135.9600 C   0  0  0  0  0  1  0  0  0  0  0  0
  191.3760  173.4540  136.7930 O   0  0  0  0  0  1  0  0  0  0  0  0
  190.4580  173.9930  137.6300 N   0  0  0  0  0  2  0  0  0  0  0  0
  188.7690  177.2990  136.8190 C   0  0  0  0  0  2  0  0  0  0  0  0
  186.1000  177.3990  136.8680 C   0  0  0  0  0  0  0  0  0  0  0  0
  187.3050  177.3600  136.8470 C   0  0  0  0  0  0  0  0  0  0  0  0
  184.6360  177.4370  136.8980 C   0  0  0  0  0  2  0  0  0  0  0  0
  184.1370  177.5530  138.3270 C   0  0  0  0  0  2  0  0  0  0  0  0
  182.7110  177.8400  138.3370 N   0  0  0  0  0  2  0  0  0  0  0  0
  183.6650  180.2480  138.9960 O   0  0  0  0  0  0  0  0  0  0  0  0
  182.4850  179.3320  139.2290 P   0  0  2  0  0  0  0  0  0  0  0  0
  182.3590  178.9960  140.8830 O   0  0  0  0  0  1  0  0  0  0  0  0
  180.9680  180.1600  138.6530 C   0  0  1  0  0  3  0  0  0  0  0  0
  180.5260  181.0320  139.6500 O   0  0  0  0  0  1  0  0  0  0  0  0
  181.2090  180.9250  137.3410 C   0  0  1  0  0  3  0  0  0  0  0  0
  181.0200  180.0810  136.2440 O   0  0  0  0  0  1  0  0  0  0  0  0
  179.3610  182.0380  136.0030 C   0  0  0  0  0  1  0  0  0  0  0  0
  180.3230  182.1670  137.1720 C   0  0  2  0  0  3  0  0  0  0  0  0
  182.1870  183.6270  137.9630 O   0  0  0  0  0  1  0  0  0  0  0  0
  180.7850  184.3600  136.3080 O   0  0  0  0  0  0  0  0  0  0  0  0
  181.0940  183.4530  137.1250 C   0  0  0  0  0  0  0  0  0  0  0  0
  192.1110  176.9120  138.3210 C   0  0  0  0  0  2  0  0  0  0  0  0
  192.4810  176.6740  136.9870 O   0  0  0  0  0  0  0  0  0  0  0  0
  195.8130  176.4550  135.3430 C   0  0  0  0  0  1  0  0  0  0  0  0
  194.8550  173.7650  136.4140 N   0  0  0  0  0  0  0  0  0  0  0  0
  194.2480  174.5080  135.3140 C   0  0  0  0  0  2  0  0  0  0  0  0
  195.4900  172.4900  136.1320 C   0  0  0  0  0  1  0  0  0  0  0  0
  194.3720  176.0170  135.5280 C   0  0  1  0  0  3  0  0  0  0  0  0
  193.8700  176.4250  136.9260 C   0  0  2  0  0  3  0  0  0  0  0  0
  194.7670  174.2670  137.7550 C   0  0  0  0  0  0  0  0  0  0  0  0
  194.3230  175.5700  137.9830 O   0  0  0  0  0  0  0  0  0  0  0  0
  195.1290  173.5540  138.7290 O   0  0  0  0  0  0  0  0  0  0  0  0
  1  3  1  0  0  0  0
  1  2  1  0  0  0  0
  2  5  1  0  0  0  0
  3  7  1  0  0  0  0
  4  6  2  0  0  0  0
  6  1  2  0  0  0  0
  7  5  2  0  0  0  0
  7  9  1  0  0  0  0
  9  8  1  6  0  0  0
  9 10  1  0  0  0  0
 10 12  1  0  0  0  0
 10 13  1  0  0  0  0
 11 14  1  0  0  0  0
 12 11  1  0  0  0  0
 13 15  1  0  0  0  0
 15 14  1  0  0  0  0
 16 22  1  0  0  0  0
 16 17  2  0  0  0  0
 17 21  1  0  0  0  0
 17  4  1  0  0  0  0
 18 19  1  0  0  0  0
 18 16  1  0  0  0  0
 20 21  1  0  0  0  0
 22 24  1  0  0  0  0
 23 25  1  0  0  0  0
 24 23  3  0  0  0  0
 25 26  1  0  0  0  0
 26 27  1  0  0  0  0
 27 29  1  0  0  0  0
 29 28  2  6  0  0  0
 29 30  1  0  0  0  0
 31 29  1  0  0  0  0
 31 32  1  1  0  0  0
 33 34  1  6  0  0  0
 33 31  1  0  0  0  0
 36 35  1  6  0  0  0
 36 33  1  0  0  0  0
 38 39  2  0  0  0  0
 39 36  1  0  0  0  0
 39 37  1  0  0  0  0
 40  4  1  0  0  0  0
 41 40  1  0  0  0  0
 43 48  1  0  0  0  0
 44 46  1  0  0  0  0
 44 43  1  0  0  0  0
 45 43  1  0  0  0  0
 46 42  1  1  0  0  0
 46 47  1  0  0  0  0
 47 41  1  6  0  0  0
 47 49  1  0  0  0  0
 48 49  1  0  0  0  0
 48 50  2  0  0  0  0
M  END
>  <MODEL>
4

>  <REMARK>
 VINA RESULT:      -7.0      2.353      3.345
  Name = 
  18 active torsions:
  status: ('A' for Active; 'I' for Inactive)
    1  A    between atoms: O_1  and  C_10
    2  A    between atoms: O_1  and  C_34
    3  A    between atoms: O_2  and  C_13
    4  A    between atoms: C_3  and  C_42
    5  A    between atoms: C_5  and  C_8
    6  A    between atoms: C_5  and  C_27
    7  A    between atoms: C_8  and  P_36
    8  A    between atoms: C_9  and  C_37
    9  A    between atoms: C_10  and  C_32
   10  A    between atoms: C_13  and  C_35
   11  A    between atoms: N_18  and  P_36
   12  A    between atoms: N_18  and  C_43
   13  A    between atoms: C_26  and  C_32
   14  A    between atoms: C_26  and  N_41
   15  A    between atoms: C_27  and  C_40
   16  A    between atoms: C_30  and  C_35
   17  A    between atoms: C_37  and  C_43
   18  A    between atoms: C_42  and  C_49
                            x       y       z     vdW  Elec       q    Type
                         _______ _______ _______ _____ _____    ______ ____

>  <TORSDO>
F 18

$$$$
=
 OpenBabel11042413253D

 50 52  0  0  1  0  0  0  0  0999 V2000
  182.7920  175.5340  137.9390 C   0  0  0  0  0  0  0  0  0  0  0  0
  181.8550  175.3450  136.9410 O   0  0  0  0  0  0  0  0  0  0  0  0
  183.6670  174.3440  138.0870 C   0  0  0  0  0  2  0  0  0  0  0  0
  183.0320  177.7540  139.2870 C   0  0  0  0  0  0  0  0  0  0  0  0
  182.0670  174.0900  136.3950 C   0  0  0  0  0  3  0  0  0  0  0  0
  182.9070  176.6370  138.6230 C   0  0  0  0  0  0  0  0  0  0  0  0
  183.0870  173.4890  137.0080 C   0  0  0  0  0  0  0  0  0  0  0  0
  182.5730  171.2930  135.9250 C   0  0  0  0  0  1  0  0  0  0  0  0
  183.6050  172.1180  136.6760 C   0  0  1  0  0  3  0  0  0  0  0  0
  184.9620  172.1150  135.9590 C   0  0  0  0  0  3  0  0  0  0  0  0
  187.4150  172.6480  136.0560 C   0  0  0  0  0  2  0  0  0  0  0  0
  186.1040  172.6400  136.8370 C   0  0  0  0  0  2  0  0  0  0  0  0
  185.2880  170.7210  135.4170 C   0  0  0  0  0  2  0  0  0  0  0  0
  187.7320  171.2450  135.5440 C   0  0  0  0  0  2  0  0  0  0  0  0
  186.6030  170.7470  134.6450 C   0  0  0  0  0  2  0  0  0  0  0  0
  182.5500  178.3960  141.6290 C   0  0  0  0  0  0  0  0  0  0  0  0
  182.0930  178.0800  140.3910 C   0  0  0  0  0  0  0  0  0  0  0  0
  181.7150  178.7650  142.6990 O   0  0  0  0  0  0  0  0  0  0  0  0
  180.6930  179.7530  142.6480 C   0  0  0  0  0  1  0  0  0  0  0  0
  180.0360  178.8860  139.3520 O   0  0  0  0  0  1  0  0  0  0  0  0
  180.6830  177.9980  140.1430 N   0  0  0  0  0  2  0  0  0  0  0  0
  184.0120  178.3350  141.9430 C   0  0  0  0  0  2  0  0  0  0  0  0
  184.4010  178.6980  144.5610 C   0  0  0  0  0  0  0  0  0  0  0  0
  184.2280  178.5280  143.3800 C   0  0  0  0  0  0  0  0  0  0  0  0
  184.6020  178.9100  145.9960 C   0  0  0  0  0  2  0  0  0  0  0  0
  186.0800  178.8610  146.3380 C   0  0  0  0  0  2  0  0  0  0  0  0
  186.5330  177.4800  146.4050 N   0  0  0  0  0  2  0  0  0  0  0  0
  188.2700  176.0650  147.8640 O   0  0  0  0  0  0  0  0  0  0  0  0
  188.0120  177.4620  147.3460 P   0  0  2  0  0  0  0  0  0  0  0  0
  187.8680  178.5230  148.6570 O   0  0  0  0  0  1  0  0  0  0  0  0
  189.4090  177.9730  146.2930 C   0  0  1  0  0  3  0  0  0  0  0  0
  190.5990  177.7420  146.9840 O   0  0  0  0  0  1  0  0  0  0  0  0
  189.4100  177.2150  144.9560 C   0  0  1  0  0  3  0  0  0  0  0  0
  188.4060  177.7040  144.1180 O   0  0  0  0  0  1  0  0  0  0  0  0
  190.8640  178.4840  143.3070 C   0  0  0  0  0  1  0  0  0  0  0  0
  190.7510  177.2670  144.2100 C   0  0  2  0  0  3  0  0  0  0  0  0
  190.4650  175.7140  142.2770 O   0  0  0  0  0  0  0  0  0  0  0  0
  191.9500  175.2040  143.9430 O   0  0  0  0  0  1  0  0  0  0  0  0
  191.0850  175.9970  143.4860 C   0  0  0  0  0  0  0  0  0  0  0  0
  183.9860  178.7850  138.7770 C   0  0  0  0  0  2  0  0  0  0  0  0
  185.3020  178.2970  138.8170 O   0  0  0  0  0  0  0  0  0  0  0  0
  185.8760  177.0050  135.3730 C   0  0  0  0  0  1  0  0  0  0  0  0
  188.4490  177.1890  136.9990 N   0  0  0  0  0  0  0  0  0  0  0  0
  187.3380  176.2800  137.2640 C   0  0  0  0  0  2  0  0  0  0  0  0
  189.7270  176.6330  136.5900 C   0  0  0  0  0  1  0  0  0  0  0  0
  186.0000  176.9140  136.8830 C   0  0  1  0  0  3  0  0  0  0  0  0
  185.8440  178.3110  137.5120 C   0  0  2  0  0  3  0  0  0  0  0  0
  188.2880  178.6000  137.2010 C   0  0  0  0  0  0  0  0  0  0  0  0
  187.0150  179.1320  137.4110 O   0  0  0  0  0  0  0  0  0  0  0  0
  189.2830  179.3720  137.1470 O   0  0  0  0  0  0  0  0  0  0  0  0
  1  3  1  0  0  0  0
  1  6  2  0  0  0  0
  2  1  1  0  0  0  0
  4 17  1  0  0  0  0
  5  2  1  0  0  0  0
  5  7  2  0  0  0  0
  6  4  2  0  0  0  0
  7  3  1  0  0  0  0
  9  8  1  6  0  0  0
  9  7  1  0  0  0  0
 10  9  1  0  0  0  0
 10 12  1  0  0  0  0
 11 12  1  0  0  0  0
 13 10  1  0  0  0  0
 14 11  1  0  0  0  0
 15 13  1  0  0  0  0
 15 14  1  0  0  0  0
 16 22  1  0  0  0  0
 16 18  1  0  0  0  0
 17 16  2  0  0  0  0
 19 18  1  0  0  0  0
 20 21  1  0  0  0  0
 21 17  1  0  0  0  0
 22 24  1  0  0  0  0
 23 25  1  0  0  0  0
 24 23  3  0  0  0  0
 25 26  1  0  0  0  0
 26 27  1  0  0  0  0
 27 29  1  0  0  0  0
 29 28  2  1  0  0  0
 29 30  1  0  0  0  0
 31 32  1  1  0  0  0
 31 29  1  0  0  0  0
 33 34  1  6  0  0  0
 33 31  1  0  0  0  0
 36 35  1  6  0  0  0
 36 33  1  0  0  0  0
 37 39  2  0  0  0  0
 39 38  1  0  0  0  0
 39 36  1  0  0  0  0
 40 41  1  0  0  0  0
 40  4  1  0  0  0  0
 43 48  1  0  0  0  0
 43 44  1  0  0  0  0
 45 43  1  0  0  0  0
 46 42  1  6  0  0  0
 46 44  1  0  0  0  0
 46 47  1  0  0  0  0
 47 41  1  1  0  0  0
 48 49  1  0  0  0  0
 49 47  1  0  0  0  0
 50 48  2  0  0  0  0
M  END
>  <MODEL>
5

>  <REMARK>
 VINA RESULT:      -7.0      3.461      9.695
  Name = 
  18 active torsions:
  status: ('A' for Active; 'I' for Inactive)
    1  A    between atoms: O_1  and  C_10
    2  A    between atoms: O_1  and  C_34
    3  A    between atoms: O_2  and  C_13
    4  A    between atoms: C_3  and  C_42
    5  A    between atoms: C_5  and  C_8
    6  A    between atoms: C_5  and  C_27
    7  A    between atoms: C_8  and  P_36
    8  A    between atoms: C_9  and  C_37
    9  A    between atoms: C_10  and  C_32
   10  A    between atoms: C_13  and  C_35
   11  A    between atoms: N_18  and  P_36
   12  A    between atoms: N_18  and  C_43
   13  A    between atoms: C_26  and  C_32
   14  A    between atoms: C_26  and  N_41
   15  A    between atoms: C_27  and  C_40
   16  A    between atoms: C_30  and  C_35
   17  A    between atoms: C_37  and  C_43
   18  A    between atoms: C_42  and  C_49
                            x       y       z     vdW  Elec       q    Type
                         _______ _______ _______ _____ _____    ______ ____

>  <TORSDO>
F 18

$$$$
=
 OpenBabel11042413253D

 50 52  0  0  1  0  0  0  0  0999 V2000
  182.4420  176.2730  137.4740 C   0  0  0  0  0  0  0  0  0  0  0  0
  181.9100  176.1070  136.2090 O   0  0  0  0  0  0  0  0  0  0  0  0
  182.7930  174.9670  138.0850 C   0  0  0  0  0  2  0  0  0  0  0  0
  182.8660  178.6050  138.5630 C   0  0  0  0  0  0  0  0  0  0  0  0
  181.9010  174.7510  135.9310 C   0  0  0  0  0  3  0  0  0  0  0  0
  182.6440  177.4360  138.0260 C   0  0  0  0  0  0  0  0  0  0  0  0
  182.3980  174.0670  136.9610 C   0  0  0  0  0  0  0  0  0  0  0  0
  181.2060  171.8670  136.8900 C   0  0  0  0  0  1  0  0  0  0  0  0
  182.5480  172.5720  137.0120 C   0  0  1  0  0  3  0  0  0  0  0  0
  183.5740  172.0090  136.0200 C   0  0  0  0  0  3  0  0  0  0  0  0
  185.9710  171.9100  135.2740 C   0  0  0  0  0  2  0  0  0  0  0  0
  185.0060  172.4710  136.3140 C   0  0  0  0  0  2  0  0  0  0  0  0
  183.4960  170.4810  135.9640 C   0  0  0  0  0  2  0  0  0  0  0  0
  185.8920  170.3860  135.2500 C   0  0  0  0  0  2  0  0  0  0  0  0
  184.4700  169.9380  134.9240 C   0  0  0  0  0  2  0  0  0  0  0  0
  181.3350  179.1600  140.4280 C   0  0  0  0  0  0  0  0  0  0  0  0
  181.7480  179.3840  139.1550 C   0  0  0  0  0  0  0  0  0  0  0  0
  180.3190  179.8970  141.0620 O   0  0  0  0  0  0  0  0  0  0  0  0
  180.1500  180.0320  142.4670 C   0  0  0  0  0  1  0  0  0  0  0  0
  181.0330  180.2440  136.9850 O   0  0  0  0  0  1  0  0  0  0  0  0
  181.0640  180.3420  138.3350 N   0  0  0  0  0  2  0  0  0  0  0  0
  181.9360  178.0570  141.2440 C   0  0  0  0  0  2  0  0  0  0  0  0
  184.3930  178.7380  142.0410 C   0  0  0  0  0  0  0  0  0  0  0  0
  183.2860  178.4270  141.6760 C   0  0  0  0  0  0  0  0  0  0  0  0
  185.7340  179.1140  142.4940 C   0  0  0  0  0  2  0  0  0  0  0  0
  186.6110  177.8830  142.6350 C   0  0  0  0  0  2  0  0  0  0  0  0
  187.9870  178.2070  142.2910 N   0  0  0  0  0  2  0  0  0  0  0  0
  190.0570  176.5550  141.9300 O   0  0  0  0  0  0  0  0  0  0  0  0
  189.0010  176.9340  142.9420 P   0  0  2  0  0  0  0  0  0  0  0  0
  188.0550  175.5750  143.2940 O   0  0  0  0  0  1  0  0  0  0  0  0
  189.8170  177.5240  144.4610 C   0  0  1  0  0  3  0  0  0  0  0  0
  189.8280  178.9200  144.4500 O   0  0  0  0  0  1  0  0  0  0  0  0
  189.1030  177.0040  145.7200 C   0  0  1  0  0  3  0  0  0  0  0  0
  190.0100  176.3550  146.5600 O   0  0  0  0  0  1  0  0  0  0  0  0
  188.8700  178.1880  147.9540 C   0  0  0  0  0  1  0  0  0  0  0  0
  188.3760  178.0950  146.5200 C   0  0  2  0  0  3  0  0  0  0  0  0
  186.1000  178.9580  147.0730 O   0  0  0  0  0  1  0  0  0  0  0  0
  186.3280  177.0760  145.7880 O   0  0  0  0  0  0  0  0  0  0  0  0
  186.8810  177.9970  146.4460 C   0  0  0  0  0  0  0  0  0  0  0  0
  184.2080  179.2350  138.3730 C   0  0  0  0  0  2  0  0  0  0  0  0
  185.2250  178.3440  138.7520 O   0  0  0  0  0  0  0  0  0  0  0  0
  186.7680  177.8710  135.3970 C   0  0  0  0  0  1  0  0  0  0  0  0
  188.1310  176.2070  137.5590 N   0  0  0  0  0  0  0  0  0  0  0  0
  186.7680  176.0170  137.0720 C   0  0  0  0  0  2  0  0  0  0  0  0
  189.1170  175.1710  137.3060 C   0  0  0  0  0  1  0  0  0  0  0  0
  186.1310  177.3480  136.6720 C   0  0  1  0  0  3  0  0  0  0  0  0
  186.2650  178.3910  137.7970 C   0  0  2  0  0  3  0  0  0  0  0  0
  188.4640  177.3730  138.3260 C   0  0  0  0  0  0  0  0  0  0  0  0
  187.5650  178.4380  138.4000 O   0  0  0  0  0  0  0  0  0  0  0  0
  189.5830  177.4630  138.8990 O   0  0  0  0  0  0  0  0  0  0  0  0
  1  6  2  0  0  0  0
  1  3  1  0  0  0  0
  2  1  1  0  0  0  0
  4 17  1  0  0  0  0
  5  2  1  0  0  0  0
  5  7  2  0  0  0  0
  6  4  2  0  0  0  0
  7  9  1  0  0  0  0
  7  3  1  0  0  0  0
  9  8  1  6  0  0  0
 10 12  1  0  0  0  0
 10  9  1  0  0  0  0
 11 12  1  0  0  0  0
 13 10  1  0  0  0  0
 14 11  1  0  0  0  0
 15 14  1  0  0  0  0
 15 13  1  0  0  0  0
 16 18  1  0  0  0  0
 16 22  1  0  0  0  0
 17 16  2  0  0  0  0
 18 19  1  0  0  0  0
 20 21  1  0  0  0  0
 21 17  1  0  0  0  0
 22 24  1  0  0  0  0
 23 25  1  0  0  0  0
 24 23  3  0  0  0  0
 25 26  1  0  0  0  0
 27 26  1  0  0  0  0
 27 29  1  0  0  0  0
 29 28  2  6  0  0  0
 29 30  1  0  0  0  0
 29 31  1  0  0  0  0
 31 32  1  1  0  0  0
 31 33  1  0  0  0  0
 33 36  1  0  0  0  0
 33 34  1  1  0  0  0
 36 35  1  1  0  0  0
 38 39  2  0  0  0  0
 39 36  1  0  0  0  0
 39 37  1  0  0  0  0
 40  4  1  0  0  0  0
 40 41  1  0  0  0  0
 43 48  1  0  0  0  0
 44 43  1  0  0  0  0
 45 43  1  0  0  0  0
 46 42  1  6  0  0  0
 46 44  1  0  0  0  0
 46 47  1  0  0  0  0
 47 49  1  0  0  0  0
 47 41  1  1  0  0  0
 48 49  1  0  0  0  0
 48 50  2  0  0  0  0
M  END
>  <MODEL>
6

>  <REMARK>
 VINA RESULT:      -7.0      3.388      9.341
  Name = 
  18 active torsions:
  status: ('A' for Active; 'I' for Inactive)
    1  A    between atoms: O_1  and  C_10
    2  A    between atoms: O_1  and  C_34
    3  A    between atoms: O_2  and  C_13
    4  A    between atoms: C_3  and  C_42
    5  A    between atoms: C_5  and  C_8
    6  A    between atoms: C_5  and  C_27
    7  A    between atoms: C_8  and  P_36
    8  A    between atoms: C_9  and  C_37
    9  A    between atoms: C_10  and  C_32
   10  A    between atoms: C_13  and  C_35
   11  A    between atoms: N_18  and  P_36
   12  A    between atoms: N_18  and  C_43
   13  A    between atoms: C_26  and  C_32
   14  A    between atoms: C_26  and  N_41
   15  A    between atoms: C_27  and  C_40
   16  A    between atoms: C_30  and  C_35
   17  A    between atoms: C_37  and  C_43
   18  A    between atoms: C_42  and  C_49
                            x       y       z     vdW  Elec       q    Type
                         _______ _______ _______ _____ _____    ______ ____

>  <TORSDO>
F 18

$$$$
=
 OpenBabel11042413253D

 50 52  0  0  1  0  0  0  0  0999 V2000
  189.2680  176.7350  141.0030 C   0  0  0  0  0  0  0  0  0  0  0  0
  189.3030  175.6540  141.8630 O   0  0  0  0  0  0  0  0  0  0  0  0
  188.7540  177.9480  141.6860 C   0  0  0  0  0  2  0  0  0  0  0  0
  190.1160  176.6430  138.5380 C   0  0  0  0  0  0  0  0  0  0  0  0
  188.8530  176.0840  143.1000 C   0  0  0  0  0  3  0  0  0  0  0  0
  189.6800  176.6900  139.7680 C   0  0  0  0  0  0  0  0  0  0  0  0
  188.5370  177.3780  143.0490 C   0  0  0  0  0  0  0  0  0  0  0  0
  186.5270  178.4530  144.0820 C   0  0  0  0  0  1  0  0  0  0  0  0
  188.0180  178.1840  144.2060 C   0  0  1  0  0  3  0  0  0  0  0  0
  188.3770  177.6100  145.5840 C   0  0  0  0  0  3  0  0  0  0  0  0
  190.0330  177.4970  147.4690 C   0  0  0  0  0  2  0  0  0  0  0  0
  189.7160  178.1310  146.1190 C   0  0  0  0  0  2  0  0  0  0  0  0
  187.2520  177.8670  146.5900 C   0  0  0  0  0  2  0  0  0  0  0  0
  188.9090  177.7820  148.4620 C   0  0  0  0  0  2  0  0  0  0  0  0
  187.5880  177.2300  147.9340 C   0  0  0  0  0  2  0  0  0  0  0  0
  188.1370  176.6160  137.0510 C   0  0  0  0  0  0  0  0  0  0  0  0
  189.2870  176.0290  137.4700 C   0  0  0  0  0  0  0  0  0  0  0  0
  187.3360  176.1130  136.0110 O   0  0  0  0  0  0  0  0  0  0  0  0
  187.4160  176.5020  134.6450 C   0  0  0  0  0  1  0  0  0  0  0  0
  190.4520  173.8890  137.6200 O   0  0  0  0  0  1  0  0  0  0  0  0
  189.6890  174.7640  136.9250 N   0  0  0  0  0  2  0  0  0  0  0  0
  187.6240  177.8550  137.7180 C   0  0  0  0  0  2  0  0  0  0  0  0
  184.9530  177.8850  137.6880 C   0  0  0  0  0  0  0  0  0  0  0  0
  186.1590  177.8710  137.6950 C   0  0  0  0  0  0  0  0  0  0  0  0
  183.4890  177.9080  137.6880 C   0  0  0  0  0  2  0  0  0  0  0  0
  182.9700  178.6800  138.8880 C   0  0  0  0  0  2  0  0  0  0  0  0
  181.5560  178.9750  138.7200 N   0  0  0  0  0  2  0  0  0  0  0  0
  181.6110  176.6880  140.1040 O   0  0  0  0  0  1  0  0  0  0  0  0
  180.6590  177.7420  139.5870 P   0  0  2  0  0  0  0  0  0  0  0  0
  179.5360  177.0170  138.5490 O   0  0  0  0  0  0  0  0  0  0  0  0
  179.7910  178.5020  140.9970 C   0  0  1  0  0  3  0  0  0  0  0  0
  179.2450  177.4880  141.7870 O   0  0  0  0  0  1  0  0  0  0  0  0
  180.7370  179.3810  141.8320 C   0  0  1  0  0  3  0  0  0  0  0  0
  180.0600  180.5030  142.3140 O   0  0  0  0  0  1  0  0  0  0  0  0
  180.6560  178.8870  144.3210 C   0  0  0  0  0  1  0  0  0  0  0  0
  181.3900  178.6480  143.0120 C   0  0  2  0  0  3  0  0  0  0  0  0
  183.7370  178.3580  142.2110 O   0  0  0  0  0  0  0  0  0  0  0  0
  183.3090  179.6470  144.0540 O   0  0  0  0  0  1  0  0  0  0  0  0
  182.8630  178.9070  143.1380 C   0  0  0  0  0  0  0  0  0  0  0  0
  191.5400  177.0120  138.2710 C   0  0  0  0  0  2  0  0  0  0  0  0
  192.3820  175.9110  138.4980 O   0  0  0  0  0  0  0  0  0  0  0  0
  194.4480  176.3600  135.4340 C   0  0  0  0  0  1  0  0  0  0  0  0
  195.1270  173.7970  136.9410 N   0  0  0  0  0  0  0  0  0  0  0  0
  193.8680  174.0730  136.2550 C   0  0  0  0  0  2  0  0  0  0  0  0
  195.9850  172.7410  136.4320 C   0  0  0  0  0  1  0  0  0  0  0  0
  193.5140  175.5590  136.3230 C   0  0  1  0  0  3  0  0  0  0  0  0
  193.5800  176.0830  137.7690 C   0  0  2  0  0  3  0  0  0  0  0  0
  195.4710  174.5200  138.1300 C   0  0  0  0  0  0  0  0  0  0  0  0
  194.7350  175.6470  138.4980 O   0  0  0  0  0  0  0  0  0  0  0  0
  196.4620  174.1710  138.8270 O   0  0  0  0  0  0  0  0  0  0  0  0
  1  3  1  0  0  0  0
  1  2  1  0  0  0  0
  2  5  1  0  0  0  0
  3  7  1  0  0  0  0
  4  6  2  0  0  0  0
  6  1  2  0  0  0  0
  7  5  2  0  0  0  0
  7  9  1  0  0  0  0
  9  8  1  6  0  0  0
  9 10  1  0  0  0  0
 10 12  1  0  0  0  0
 10 13  1  0  0  0  0
 11 14  1  0  0  0  0
 12 11  1  0  0  0  0
 13 15  1  0  0  0  0
 15 14  1  0  0  0  0
 16 17  2  0  0  0  0
 16 22  1  0  0  0  0
 17  4  1  0  0  0  0
 18 16  1  0  0  0  0
 19 18  1  0  0  0  0
 21 17  1  0  0  0  0
 21 20  1  0  0  0  0
 23 25  1  0  0  0  0
 23 24  3  0  0  0  0
 24 22  1  0  0  0  0
 25 26  1  0  0  0  0
 27 26  1  0  0  0  0
 27 29  1  0  0  0  0
 29 30  2  6  0  0  0
 29 28  1  0  0  0  0
 29 31  1  0  0  0  0
 31 32  1  1  0  0  0
 31 33  1  0  0  0  0
 33 34  1  1  0  0  0
 33 36  1  0  0  0  0
 36 39  1  0  0  0  0
 36 35  1  1  0  0  0
 37 39  2  0  0  0  0
 39 38  1  0  0  0  0
 40 41  1  0  0  0  0
 40  4  1  0  0  0  0
 43 48  1  0  0  0  0
 44 46  1  0  0  0  0
 44 43  1  0  0  0  0
 45 43  1  0  0  0  0
 46 42  1  6  0  0  0
 46 47  1  0  0  0  0
 47 41  1  1  0  0  0
 47 49  1  0  0  0  0
 48 49  1  0  0  0  0
 48 50  2  0  0  0  0
M  END
>  <MODEL>
7

>  <REMARK>
 VINA RESULT:      -6.6      2.091      2.715
  Name = 
  18 active torsions:
  status: ('A' for Active; 'I' for Inactive)
    1  A    between atoms: O_1  and  C_10
    2  A    between atoms: O_1  and  C_34
    3  A    between atoms: O_2  and  C_13
    4  A    between atoms: C_3  and  C_42
    5  A    between atoms: C_5  and  C_8
    6  A    between atoms: C_5  and  C_27
    7  A    between atoms: C_8  and  P_36
    8  A    between atoms: C_9  and  C_37
    9  A    between atoms: C_10  and  C_32
   10  A    between atoms: C_13  and  C_35
   11  A    between atoms: N_18  and  P_36
   12  A    between atoms: N_18  and  C_43
   13  A    between atoms: C_26  and  C_32
   14  A    between atoms: C_26  and  N_41
   15  A    between atoms: C_27  and  C_40
   16  A    between atoms: C_30  and  C_35
   17  A    between atoms: C_37  and  C_43
   18  A    between atoms: C_42  and  C_49
                            x       y       z     vdW  Elec       q    Type
                         _______ _______ _______ _____ _____    ______ ____

>  <TORSDO>
F 18

$$$$
=
 OpenBabel11042413253D

 50 52  0  0  1  0  0  0  0  0999 V2000
  189.9610  176.5590  140.9780 C   0  0  0  0  0  0  0  0  0  0  0  0
  190.1790  175.5760  141.9260 O   0  0  0  0  0  0  0  0  0  0  0  0
  189.1380  177.6640  141.5290 C   0  0  0  0  0  2  0  0  0  0  0  0
  190.9810  176.4970  138.5780 C   0  0  0  0  0  0  0  0  0  0  0  0
  189.5550  175.9740  143.0960 C   0  0  0  0  0  3  0  0  0  0  0  0
  190.4590  176.5250  139.7750 C   0  0  0  0  0  0  0  0  0  0  0  0
  188.9590  177.1530  142.9210 C   0  0  0  0  0  0  0  0  0  0  0  0
  186.6980  177.9060  143.6860 C   0  0  0  0  0  1  0  0  0  0  0  0
  188.1900  177.8950  143.9780 C   0  0  1  0  0  3  0  0  0  0  0  0
  188.4820  177.4300  145.4120 C   0  0  0  0  0  3  0  0  0  0  0  0
  190.1030  177.3570  147.3300 C   0  0  0  0  0  2  0  0  0  0  0  0
  189.8570  177.8810  145.9180 C   0  0  0  0  0  2  0  0  0  0  0  0
  187.3750  177.8830  146.3670 C   0  0  0  0  0  2  0  0  0  0  0  0
  189.0000  177.8370  148.2690 C   0  0  0  0  0  2  0  0  0  0  0  0
  187.6390  177.3550  147.7730 C   0  0  0  0  0  2  0  0  0  0  0  0
  189.6220  176.1640  136.5360 C   0  0  0  0  0  0  0  0  0  0  0  0
  190.3900  175.6350  137.5220 C   0  0  0  0  0  0  0  0  0  0  0  0
  189.0790  175.4110  135.4800 O   0  0  0  0  0  0  0  0  0  0  0  0
  187.7170  175.0170  135.3610 C   0  0  0  0  0  1  0  0  0  0  0  0
  189.5640  173.3390  137.5820 O   0  0  0  0  0  1  0  0  0  0  0  0
  190.5940  174.2180  137.5940 N   0  0  0  0  0  2  0  0  0  0  0  0
  189.2730  177.6200  136.5360 C   0  0  0  0  0  2  0  0  0  0  0  0
  187.2210  178.0630  138.1870 C   0  0  0  0  0  0  0  0  0  0  0  0
  188.1490  177.8690  137.4420 C   0  0  0  0  0  0  0  0  0  0  0  0
  186.0940  178.2880  139.0950 C   0  0  0  0  0  2  0  0  0  0  0  0
  184.8200  178.5400  138.3080 C   0  0  0  0  0  2  0  0  0  0  0  0
  183.7870  177.6010  138.7150 N   0  0  0  0  0  2  0  0  0  0  0  0
  184.7540  176.3130  136.5820 O   0  0  0  0  0  1  0  0  0  0  0  0
  183.4740  176.5460  137.3510 P   0  0  2  0  0  0  0  0  0  0  0  0
  182.3320  177.2610  136.3260 O   0  0  0  0  0  0  0  0  0  0  0  0
  182.8420  174.9460  137.9520 C   0  0  1  0  0  3  0  0  0  0  0  0
  181.7910  175.1840  138.8400 O   0  0  0  0  0  1  0  0  0  0  0  0
  182.3710  174.0560  136.7900 C   0  0  1  0  0  3  0  0  0  0  0  0
  183.2860  174.1060  135.7370 O   0  0  0  0  0  1  0  0  0  0  0  0
  183.2910  171.6900  136.7600 C   0  0  0  0  0  1  0  0  0  0  0  0
  182.1410  172.5890  137.1810 C   0  0  2  0  0  3  0  0  0  0  0  0
  179.7790  171.9330  137.6540 O   0  0  0  0  0  1  0  0  0  0  0  0
  180.6170  171.7390  135.5320 O   0  0  0  0  0  0  0  0  0  0  0  0
  180.8140  172.0500  136.7360 C   0  0  0  0  0  0  0  0  0  0  0  0
  192.2990  177.1660  138.3580 C   0  0  0  0  0  2  0  0  0  0  0  0
  193.3510  176.2710  138.6110 O   0  0  0  0  0  0  0  0  0  0  0  0
  193.8730  173.2190  136.5440 C   0  0  0  0  0  1  0  0  0  0  0  0
  196.3770  174.9500  136.7330 N   0  0  0  0  0  0  0  0  0  0  0  0
  195.7620  174.2200  137.8370 C   0  0  0  0  0  2  0  0  0  0  0  0
  197.6950  174.5480  136.2750 C   0  0  0  0  0  1  0  0  0  0  0  0
  194.2420  174.1550  137.6810 C   0  0  1  0  0  3  0  0  0  0  0  0
  193.6470  175.5530  137.4310 C   0  0  2  0  0  3  0  0  0  0  0  0
  195.7080  176.0800  136.1570 C   0  0  0  0  0  0  0  0  0  0  0  0
  194.3730  176.3370  136.4770 O   0  0  0  0  0  0  0  0  0  0  0  0
  196.3010  176.8220  135.3290 O   0  0  0  0  0  0  0  0  0  0  0  0
  1  3  1  0  0  0  0
  1  2  1  0  0  0  0
  2  5  1  0  0  0  0
  3  7  1  0  0  0  0
  4  6  2  0  0  0  0
  6  1  2  0  0  0  0
  7  5  2  0  0  0  0
  7  9  1  0  0  0  0
  9  8  1  6  0  0  0
  9 10  1  0  0  0  0
 10 12  1  0  0  0  0
 10 13  1  0  0  0  0
 11 14  1  0  0  0  0
 12 11  1  0  0  0  0
 13 15  1  0  0  0  0
 15 14  1  0  0  0  0
 16 22  1  0  0  0  0
 16 17  2  0  0  0  0
 17 21  1  0  0  0  0
 17  4  1  0  0  0  0
 18 16  1  0  0  0  0
 19 18  1  0  0  0  0
 20 21  1  0  0  0  0
 22 24  1  0  0  0  0
 23 25  1  0  0  0  0
 24 23  3  0  0  0  0
 26 27  1  0  0  0  0
 26 25  1  0  0  0  0
 28 29  1  0  0  0  0
 29 30  2  6  0  0  0
 29 31  1  0  0  0  0
 29 27  1  0  0  0  0
 31 32  1  1  0  0  0
 33 34  1  6  0  0  0
 33 36  1  0  0  0  0
 33 31  1  0  0  0  0
 36 35  1  6  0  0  0
 38 39  2  0  0  0  0
 39 36  1  0  0  0  0
 39 37  1  0  0  0  0
 40  4  1  0  0  0  0
 40 41  1  0  0  0  0
 43 44  1  0  0  0  0
 45 43  1  0  0  0  0
 46 42  1  6  0  0  0
 46 44  1  0  0  0  0
 47 46  1  0  0  0  0
 47 41  1  1  0  0  0
 48 49  1  0  0  0  0
 48 43  1  0  0  0  0
 49 47  1  0  0  0  0
 50 48  2  0  0  0  0
M  END
>  <MODEL>
8

>  <REMARK>
 VINA RESULT:      -6.6      2.229      3.953
  Name = 
  18 active torsions:
  status: ('A' for Active; 'I' for Inactive)
    1  A    between atoms: O_1  and  C_10
    2  A    between atoms: O_1  and  C_34
    3  A    between atoms: O_2  and  C_13
    4  A    between atoms: C_3  and  C_42
    5  A    between atoms: C_5  and  C_8
    6  A    between atoms: C_5  and  C_27
    7  A    between atoms: C_8  and  P_36
    8  A    between atoms: C_9  and  C_37
    9  A    between atoms: C_10  and  C_32
   10  A    between atoms: C_13  and  C_35
   11  A    between atoms: N_18  and  P_36
   12  A    between atoms: N_18  and  C_43
   13  A    between atoms: C_26  and  C_32
   14  A    between atoms: C_26  and  N_41
   15  A    between atoms: C_27  and  C_40
   16  A    between atoms: C_30  and  C_35
   17  A    between atoms: C_37  and  C_43
   18  A    between atoms: C_42  and  C_49
                            x       y       z     vdW  Elec       q    Type
                         _______ _______ _______ _____ _____    ______ ____

>  <TORSDO>
F 18

$$$$
=
 OpenBabel11042413253D

 50 52  0  0  1  0  0  0  0  0999 V2000
  189.3160  177.0570  141.4840 C   0  0  0  0  0  0  0  0  0  0  0  0
  188.8480  175.8030  141.8300 O   0  0  0  0  0  0  0  0  0  0  0  0
  189.3230  177.9690  142.6540 C   0  0  0  0  0  2  0  0  0  0  0  0
  190.1780  177.6650  139.0990 C   0  0  0  0  0  0  0  0  0  0  0  0
  188.5540  175.8210  143.1830 C   0  0  0  0  0  3  0  0  0  0  0  0
  189.7360  177.3670  140.2910 C   0  0  0  0  0  0  0  0  0  0  0  0
  188.8130  177.0250  143.6930 C   0  0  0  0  0  0  0  0  0  0  0  0
  189.8590  178.0780  145.7080 C   0  0  0  0  0  1  0  0  0  0  0  0
  188.6200  177.4100  145.1330 C   0  0  1  0  0  3  0  0  0  0  0  0
  187.3560  178.2380  145.3990 C   0  0  0  0  0  3  0  0  0  0  0  0
  184.9980  178.7870  144.7260 C   0  0  0  0  0  2  0  0  0  0  0  0
  186.2100  177.9060  144.4350 C   0  0  0  0  0  2  0  0  0  0  0  0
  186.9040  178.0900  146.8540 C   0  0  0  0  0  2  0  0  0  0  0  0
  184.5520  178.6080  146.1750 C   0  0  0  0  0  2  0  0  0  0  0  0
  185.6900  178.9730  147.1240 C   0  0  0  0  0  2  0  0  0  0  0  0
  188.5830  176.9320  137.3520 C   0  0  0  0  0  0  0  0  0  0  0  0
  189.2250  177.9420  137.9930 C   0  0  0  0  0  0  0  0  0  0  0  0
  187.6330  177.1310  136.3350 O   0  0  0  0  0  0  0  0  0  0  0  0
  187.9080  177.1600  134.9400 C   0  0  0  0  0  1  0  0  0  0  0  0
  187.8320  179.7670  137.1640 O   0  0  0  0  0  1  0  0  0  0  0  0
  189.0360  179.2980  137.5680 N   0  0  0  0  0  2  0  0  0  0  0  0
  188.8870  175.5030  137.6800 C   0  0  0  0  0  2  0  0  0  0  0  0
  186.8200  173.9550  136.9970 C   0  0  0  0  0  0  0  0  0  0  0  0
  187.7560  174.6490  137.3080 C   0  0  0  0  0  0  0  0  0  0  0  0
  185.6810  173.1190  136.6120 C   0  0  0  0  0  2  0  0  0  0  0  0
  184.4020  173.9380  136.5970 C   0  0  0  0  0  2  0  0  0  0  0  0
  184.0060  174.2730  137.9560 N   0  0  0  0  0  2  0  0  0  0  0  0
  182.1880  175.9040  136.8700 O   0  0  0  0  0  0  0  0  0  0  0  0
  183.2840  175.8690  137.9100 P   0  0  2  0  0  0  0  0  0  0  0  0
  184.4630  177.0180  137.5140 O   0  0  0  0  0  1  0  0  0  0  0  0
  182.5690  176.2600  139.5400 C   0  0  1  0  0  3  0  0  0  0  0  0
  183.3690  177.2220  140.1610 O   0  0  0  0  0  1  0  0  0  0  0  0
  181.1240  176.7660  139.4120 C   0  0  1  0  0  3  0  0  0  0  0  0
  181.0180  177.6780  138.3600 O   0  0  0  0  0  1  0  0  0  0  0  0
  178.9310  176.0870  138.3270 C   0  0  0  0  0  1  0  0  0  0  0  0
  180.0880  175.6510  139.2100 C   0  0  2  0  0  3  0  0  0  0  0  0
  179.9260  173.7100  140.7710 O   0  0  0  0  0  0  0  0  0  0  0  0
  178.9690  175.7120  141.3340 O   0  0  0  0  0  1  0  0  0  0  0  0
  179.6140  175.0330  140.4920 C   0  0  0  0  0  0  0  0  0  0  0  0
  191.6360  177.5040  138.8170 C   0  0  0  0  0  2  0  0  0  0  0  0
  191.9520  176.1490  138.6260 O   0  0  0  0  0  0  0  0  0  0  0  0
  194.0030  175.6550  135.5590 C   0  0  0  0  0  1  0  0  0  0  0  0
  194.5390  173.5320  137.6820 N   0  0  0  0  0  0  0  0  0  0  0  0
  193.2910  173.7000  136.9430 C   0  0  0  0  0  2  0  0  0  0  0  0
  195.3230  172.3280  137.4680 C   0  0  0  0  0  1  0  0  0  0  0  0
  193.0310  175.1720  136.6210 C   0  0  1  0  0  3  0  0  0  0  0  0
  193.1490  176.0480  137.8820 C   0  0  2  0  0  3  0  0  0  0  0  0
  194.9430  174.5150  138.6440 C   0  0  0  0  0  0  0  0  0  0  0  0
  194.2840  175.7440  138.7030 O   0  0  0  0  0  0  0  0  0  0  0  0
  195.9190  174.2970  139.4110 O   0  0  0  0  0  0  0  0  0  0  0  0
  1  2  1  0  0  0  0
  1  3  1  0  0  0  0
  2  5  1  0  0  0  0
  3  7  1  0  0  0  0
  4  6  2  0  0  0  0
  5  7  2  0  0  0  0
  6  1  2  0  0  0  0
  7  9  1  0  0  0  0
  9 10  1  0  0  0  0
  9  8  1  6  0  0  0
 10 13  1  0  0  0  0
 11 14  1  0  0  0  0
 12 11  1  0  0  0  0
 12 10  1  0  0  0  0
 13 15  1  0  0  0  0
 14 15  1  0  0  0  0
 16 22  1  0  0  0  0
 16 17  2  0  0  0  0
 17  4  1  0  0  0  0
 18 16  1  0  0  0  0
 19 18  1  0  0  0  0
 20 21  1  0  0  0  0
 21 17  1  0  0  0  0
 23 24  3  0  0  0  0
 24 22  1  0  0  0  0
 25 23  1  0  0  0  0
 26 25  1  0  0  0  0
 26 27  1  0  0  0  0
 29 28  2  6  0  0  0
 29 27  1  0  0  0  0
 29 31  1  0  0  0  0
 30 29  1  0  0  0  0
 31 32  1  6  0  0  0
 33 34  1  6  0  0  0
 33 31  1  0  0  0  0
 36 35  1  1  0  0  0
 36 33  1  0  0  0  0
 36 39  1  0  0  0  0
 39 37  2  0  0  0  0
 39 38  1  0  0  0  0
 40  4  1  0  0  0  0
 41 40  1  0  0  0  0
 43 48  1  0  0  0  0
 44 43  1  0  0  0  0
 45 43  1  0  0  0  0
 46 42  1  6  0  0  0
 46 44  1  0  0  0  0
 46 47  1  0  0  0  0
 47 41  1  1  0  0  0
 47 49  1  0  0  0  0
 48 49  1  0  0  0  0
 48 50  2  0  0  0  0
M  END
>  <MODEL>
9

>  <REMARK>
 VINA RESULT:      -6.3      1.543      2.683
  Name = 
  18 active torsions:
  status: ('A' for Active; 'I' for Inactive)
    1  A    between atoms: O_1  and  C_10
    2  A    between atoms: O_1  and  C_34
    3  A    between atoms: O_2  and  C_13
    4  A    between atoms: C_3  and  C_42
    5  A    between atoms: C_5  and  C_8
    6  A    between atoms: C_5  and  C_27
    7  A    between atoms: C_8  and  P_36
    8  A    between atoms: C_9  and  C_37
    9  A    between atoms: C_10  and  C_32
   10  A    between atoms: C_13  and  C_35
   11  A    between atoms: N_18  and  P_36
   12  A    between atoms: N_18  and  C_43
   13  A    between atoms: C_26  and  C_32
   14  A    between atoms: C_26  and  N_41
   15  A    between atoms: C_27  and  C_40
   16  A    between atoms: C_30  and  C_35
   17  A    between atoms: C_37  and  C_43
   18  A    between atoms: C_42  and  C_49
                            x       y       z     vdW  Elec       q    Type
                         _______ _______ _______ _____ _____    ______ ____

>  <TORSDO>
F 18

$$$$
