=
 OpenBabel11042412073D

 70 76  0  0  1  0  0  0  0  0999 V2000
  183.1660  178.0320  140.4960 C   0  0  2  0  0  3  0  0  0  0  0  0
  183.9850  178.8860  141.5150 C   0  0  1  0  0  3  0  0  0  0  0  0
  183.6940  178.5810  143.0050 C   0  0  1  0  0  3  0  0  0  0  0  0
  183.9640  179.7040  143.8200 O   0  0  0  0  0  0  0  0  0  0  0  0
  182.6130  179.3850  143.6260 C   0  0  0  0  0  2  0  0  0  0  0  0
  185.3960  178.7960  141.2300 O   0  0  0  0  0  0  0  0  0  0  0  0
  186.1590  177.6220  141.3110 C   0  0  0  0  0  3  0  0  0  0  0  0
  186.6660  177.2040  142.4710 C   0  0  0  0  0  3  0  0  0  0  0  0
  186.4930  177.9620  143.7530 C   0  0  0  0  0  2  0  0  0  0  0  0
  187.6600  178.6810  144.1040 O   0  0  0  0  0  0  0  0  0  0  0  0
  188.7570  177.9710  143.5840 C   0  0  0  0  0  2  0  0  0  0  0  0
  189.1890  178.5320  142.2410 C   0  0  0  0  0  2  0  0  0  0  0  0
  189.7570  177.6520  139.9410 N   0  0  0  0  0  2  0  0  0  0  0  0
  189.1810  176.2170  141.7120 O   0  0  0  0  0  0  0  0  0  0  0  0
  189.3400  177.4030  141.2860 C   0  0  0  0  0  0  0  0  0  0  0  0
  190.0640  176.5710  139.0150 C   0  0  0  0  0  2  0  0  0  0  0  0
  191.5340  176.4020  138.8720 C   0  0  0  0  0  0  0  0  0  0  0  0
  192.2330  176.2620  139.8600 O   0  0  0  0  0  0  0  0  0  0  0  0
  192.1500  176.3790  137.5220 C   0  0  0  0  0  2  0  0  0  0  0  0
  191.9410  175.0670  136.8100 C   0  0  0  0  0  0  0  0  0  0  0  0
  190.8300  174.8130  136.3590 O   0  0  0  0  0  0  0  0  0  0  0  0
  193.0430  174.0530  136.6230 C   0  0  0  0  0  2  0  0  0  0  0  0
  194.2970  174.6610  136.7030 O   0  0  0  0  0  0  0  0  0  0  0  0
  194.9010  174.4570  135.4560 C   0  0  2  0  0  3  0  0  0  0  0  0
  195.0790  176.9760  135.4680 C   0  0  0  0  0  2  0  0  0  0  0  0
  196.3090  176.3740  134.8190 C   0  0  0  0  0  2  0  0  0  0  0  0
  194.9350  175.7320  134.6090 C   0  0  0  0  0  3  0  0  0  0  0  0
  194.2190  173.3140  134.6780 C   0  0  0  0  0  2  0  0  0  0  0  0
  194.9330  171.9830  134.8440 C   0  0  0  0  0  2  0  0  0  0  0  0
  194.0000  171.0260  135.2430 O   0  0  0  0  0  0  0  0  0  0  0  0
  196.7090  170.7420  137.6850 C   0  0  0  0  0  2  0  0  0  0  0  0
  194.6280  170.3310  136.2640 C   0  0  2  0  0  3  0  0  0  0  0  0
  194.3620  170.9740  137.4800 O   0  0  0  0  0  0  0  0  0  0  0  0
  195.3690  170.5450  138.3530 C   0  0  0  0  0  2  0  0  0  0  0  0
  196.4260  170.2720  135.9770 S   0  0  0  0  0  0  0  0  0  0  0  0
  184.1590  177.0340  139.3510 S   0  0  0  0  0  0  0  0  0  0  0  0
  183.1980  177.4980  137.8920 C   0  0  1  0  0  3  0  0  0  0  0  0
  184.0260  178.0050  136.6860 C   0  0  2  0  0  3  0  0  0  0  0  0
  183.2160  178.1310  135.5570 O   0  0  0  0  0  1  0  0  0  0  0  0
  185.0760  175.9980  135.7370 O   0  0  0  0  0  1  0  0  0  0  0  0
  185.3200  177.2370  136.3340 C   0  0  1  0  0  3  0  0  0  0  0  0
  186.3080  178.0530  135.5070 C   0  0  0  0  0  1  0  0  0  0  0  0
  181.9870  176.5960  137.5890 C   0  0  0  0  0  2  0  0  0  0  0  0
  182.3670  175.2740  137.0770 N   0  0  0  0  0  0  0  0  0  0  0  0
  181.5300  174.2830  137.7380 C   0  0  0  0  0  2  0  0  0  0  0  0
  181.7010  174.9310  135.8000 C   0  0  1  0  0  3  0  0  0  0  0  0
  180.8050  173.9060  136.4780 C   0  0  1  0  0  3  0  0  0  0  0  0
  180.8590  176.0180  135.1390 C   0  0  0  0  0  1  0  0  0  0  0  0
  182.4830  171.0330  134.7520 C   0  0  0  0  0  3  0  0  0  0  0  0
  181.7100  169.9600  135.1770 C   0  0  0  0  0  3  0  0  0  0  0  0
  180.3910  171.4800  136.4590 N   0  0  0  0  0  0  0  0  0  0  0  0
  182.2000  172.2890  135.1790 N   0  0  0  0  0  0  0  0  0  0  0  0
  180.6490  170.2110  136.0500 C   0  0  0  0  0  3  0  0  0  0  0  0
  181.1530  172.5160  136.0330 C   0  0  0  0  0  0  0  0  0  0  0  0
  182.1500  178.8340  139.6770 C   0  0  0  0  0  2  0  0  0  0  0  0
  181.7640  180.0080  140.3840 O   0  0  0  0  0  0  0  0  0  0  0  0
  180.5080  180.1600  140.9850 C   0  0  0  0  0  0  0  0  0  0  0  0
  180.3720  180.4670  142.2090 O   0  0  0  0  0  0  0  0  0  0  0  0
  179.2860  179.9890  140.1160 C   0  0  0  0  0  2  0  0  0  0  0  0
  179.3530  180.7690  138.8730 N   0  0  0  0  0  0  0  0  0  0  0  0
  180.1750  181.9500  139.0920 C   0  0  0  0  0  2  0  0  0  0  0  0
  180.8460  182.3010  137.8520 N   0  0  0  0  0  2  0  0  0  0  0  0
  180.7850  183.5960  137.2290 C   0  0  0  0  0  0  0  0  0  0  0  0
  180.8620  184.7190  137.9400 C   0  0  0  0  0  2  0  0  0  0  0  0
  180.9470  183.6910  135.7580 C   0  0  0  0  0  1  0  0  0  0  0  0
  179.9720  179.9610  137.8100 C   0  0  0  0  0  2  0  0  0  0  0  0
  179.7650  179.2880  135.5140 C   0  0  2  0  0  3  0  0  0  0  0  0
  179.1270  178.2850  136.2700 O   0  0  0  0  0  0  0  0  0  0  0  0
  178.9570  179.6060  136.7180 C   0  0  1  0  0  0  0  0  0  0  0  0
  178.9860  180.5670  135.5400 C   0  0  0  0  0  2  0  0  0  0  0  0
  1 55  1  6  0  0  0
  1  2  1  0  0  0  0
  2  6  1  6  0  0  0
  3  2  1  6  0  0  0
  3  5  1  0  0  0  0
  3  4  1  0  0  0  0
  5  4  1  0  0  0  0
  6  7  1  0  0  0  0
  7  8  2  0  0  0  0
  8  9  1  0  0  0  0
  9 10  1  0  0  0  0
 11 10  1  0  0  0  0
 12 11  1  0  0  0  0
 13 15  1  0  0  0  0
 15 14  2  0  0  0  0
 15 12  1  0  0  0  0
 16 13  1  0  0  0  0
 17 16  1  0  0  0  0
 17 18  2  0  0  0  0
 19 17  1  0  0  0  0
 20 19  1  0  0  0  0
 21 20  2  0  0  0  0
 22 23  1  0  0  0  0
 22 20  1  0  0  0  0
 24 28  1  6  0  0  0
 24 23  1  0  0  0  0
 26 25  1  0  0  0  0
 27 26  1  0  0  0  0
 27 24  1  0  0  0  0
 27 25  1  0  0  0  0
 28 29  1  0  0  0  0
 29 30  1  0  0  0  0
 31 34  1  0  0  0  0
 32 30  1  6  0  0  0
 32 33  1  0  0  0  0
 33 34  1  0  0  0  0
 35 32  1  0  0  0  0
 35 31  1  0  0  0  0
 36  1  1  0  0  0  0
 37 43  1  6  0  0  0
 37 36  1  0  0  0  0
 38 39  1  6  0  0  0
 38 37  1  0  0  0  0
 40 41  1  0  0  0  0
 41 42  1  6  0  0  0
 41 38  1  0  0  0  0
 44 43  1  0  0  0  0
 44 45  1  0  0  0  0
 46 48  1  1  0  0  0
 46 47  1  0  0  0  0
 46 44  1  0  0  0  0
 47 54  1  6  0  0  0
 47 45  1  0  0  0  0
 49 50  1  0  0  0  0
 49 52  2  0  0  0  0
 50 53  2  0  0  0  0
 52 54  1  0  0  0  0
 53 51  1  0  0  0  0
 54 51  2  0  0  0  0
 55 56  1  0  0  0  0
 56 57  1  0  0  0  0
 57 58  2  0  0  0  0
 59 57  1  0  0  0  0
 60 61  1  0  0  0  0
 60 59  1  0  0  0  0
 62 61  1  0  0  0  0
 63 62  1  0  0  0  0
 63 64  2  0  0  0  0
 65 63  1  0  0  0  0
 66 60  1  0  0  0  0
 67 70  1  6  0  0  0
 67 68  1  0  0  0  0
 67 69  1  0  0  0  0
 68 69  1  0  0  0  0
 69 66  1  1  0  0  0
 70 69  1  0  0  0  0
M  END
>  <MODEL>
1

>  <REMARK>
 VINA RESULT:      -2.0      0.000      0.000
  Name = 
  38 active torsions:
  status: ('A' for Active; 'I' for Inactive)
    1  A    between atoms: N_1  and  C_51
    2  A    between atoms: C_2  and  C_12
    3  A    between atoms: C_2  and  C_26
    4  A    between atoms: O_3  and  C_9
    5  A    between atoms: O_3  and  C_57
    6  A    between atoms: C_4  and  C_52
    7  A    between atoms: C_6  and  C_57
    8  A    between atoms: C_6  and  C_70
    9  A    between atoms: C_7  and  C_24
   10  A    between atoms: C_7  and  C_51
   11  A    between atoms: C_7  and  S_66
   12  A    between atoms: C_9  and  C_61
   13  A    between atoms: C_10  and  C_52
   14  A    between atoms: C_10  and  S_66
   15  A    between atoms: C_10  and  C_69
   16  A    between atoms: C_11  and  C_26
   17  A    between atoms: C_11  and  N_59
   18  A    between atoms: C_12  and  C_33
   19  A    between atoms: N_15  and  C_27
   20  A    between atoms: N_15  and  C_42
   21  A    between atoms: C_18  and  O_54
   22  A    between atoms: C_19  and  C_45
   23  A    between atoms: C_19  and  N_58
   24  A    between atoms: C_20  and  C_35
   25  A    between atoms: C_20  and  O_54
   26  A    between atoms: C_24  and  C_46
   27  A    between atoms: O_28  and  C_39
   28  A    between atoms: O_28  and  C_69
   29  A    between atoms: C_31  and  O_53
   30  A    between atoms: C_32  and  C_35
   31  A    between atoms: C_32  and  C_62
   32  A    between atoms: C_32  and  O_63
   33  A    between atoms: C_33  and  O_63
   34  A    between atoms: C_37  and  C_49
   35  A    between atoms: C_39  and  C_60
   36  A    between atoms: C_42  and  N_58
   37  A    between atoms: C_52  and  O_53
   38  A    between atoms: N_58  and  C_60
                            x       y       z     vdW  Elec       q    Type
                         _______ _______ _______ _____ _____    ______ ____

>  <TORSDO>
F 38

$$$$
=
 OpenBabel11042412073D

 70 76  0  0  1  0  0  0  0  0999 V2000
  182.9370  176.3660  136.6040 C   0  0  2  0  0  3  0  0  0  0  0  0
  183.0480  174.9950  137.3440 C   0  0  1  0  0  3  0  0  0  0  0  0
  182.0600  173.9080  136.8550 C   0  0  1  0  0  3  0  0  0  0  0  0
  180.7220  174.3570  136.9330 O   0  0  0  0  0  0  0  0  0  0  0  0
  181.2720  174.2530  135.6470 C   0  0  0  0  0  2  0  0  0  0  0  0
  184.4080  174.5160  137.3180 O   0  0  0  0  0  0  0  0  0  0  0  0
  184.8950  173.5280  136.4490 C   0  0  0  0  0  3  0  0  0  0  0  0
  186.1190  173.0200  136.5950 C   0  0  0  0  0  3  0  0  0  0  0  0
  187.0680  173.4830  137.6600 C   0  0  0  0  0  2  0  0  0  0  0  0
  188.3650  173.7180  137.1480 O   0  0  0  0  0  0  0  0  0  0  0  0
  188.8170  172.5090  136.5880 C   0  0  0  0  0  2  0  0  0  0  0  0
  189.8700  172.7540  135.5230 C   0  0  0  0  0  2  0  0  0  0  0  0
  192.3610  173.1700  135.4300 N   0  0  0  0  0  2  0  0  0  0  0  0
  191.2750  172.5750  137.4280 O   0  0  0  0  0  0  0  0  0  0  0  0
  191.2030  172.7930  136.1790 C   0  0  0  0  0  0  0  0  0  0  0  0
  193.6580  173.3680  136.0600 C   0  0  0  0  0  2  0  0  0  0  0  0
  194.5470  174.1840  135.1920 C   0  0  0  0  0  0  0  0  0  0  0  0
  195.6680  173.7890  134.9210 O   0  0  0  0  0  0  0  0  0  0  0  0
  194.0610  175.4700  134.6330 C   0  0  0  0  0  2  0  0  0  0  0  0
  193.5380  176.4040  135.6930 C   0  0  0  0  0  0  0  0  0  0  0  0
  193.1150  177.5020  135.3530 O   0  0  0  0  0  0  0  0  0  0  0  0
  193.5060  176.0420  137.1590 C   0  0  0  0  0  2  0  0  0  0  0  0
  192.1930  175.9800  137.6260 O   0  0  0  0  0  0  0  0  0  0  0  0
  192.1580  176.7840  138.7730 C   0  0  2  0  0  3  0  0  0  0  0  0
  193.5170  177.7450  140.6720 C   0  0  0  0  0  2  0  0  0  0  0  0
  193.8170  176.2680  140.5180 C   0  0  0  0  0  2  0  0  0  0  0  0
  193.5590  177.1340  139.2820 C   0  0  0  0  0  3  0  0  0  0  0  0
  191.3270  176.1310  139.8950 C   0  0  0  0  0  2  0  0  0  0  0  0
  189.9150  176.6840  139.9780 C   0  0  0  0  0  2  0  0  0  0  0  0
  189.9350  177.8430  140.7530 O   0  0  0  0  0  0  0  0  0  0  0  0
  189.2930  177.8130  144.3540 C   0  0  0  0  0  2  0  0  0  0  0  0
  190.2620  177.4070  142.0260 C   0  0  2  0  0  3  0  0  0  0  0  0
  189.3310  176.4390  142.4270 O   0  0  0  0  0  0  0  0  0  0  0  0
  189.4110  176.4040  143.8240 C   0  0  0  0  0  2  0  0  0  0  0  0
  190.2420  178.8030  143.1970 S   0  0  0  0  0  0  0  0  0  0  0  0
  184.5010  177.0290  135.9660 S   0  0  0  0  0  0  0  0  0  0  0  0
  185.2180  177.2960  137.6030 C   0  0  1  0  0  3  0  0  0  0  0  0
  186.7560  177.4650  137.6340 C   0  0  2  0  0  3  0  0  0  0  0  0
  187.1440  178.1870  138.7640 O   0  0  0  0  0  1  0  0  0  0  0  0
  187.2370  179.4130  136.2180 O   0  0  0  0  0  1  0  0  0  0  0  0
  187.4380  178.0400  136.3710 C   0  0  1  0  0  3  0  0  0  0  0  0
  188.9200  177.6930  136.2670 C   0  0  0  0  0  1  0  0  0  0  0  0
  184.3880  178.1890  138.5450 C   0  0  0  0  0  2  0  0  0  0  0  0
  184.8260  178.1140  139.9440 N   0  0  0  0  0  0  0  0  0  0  0  0
  184.5140  179.3870  140.5770 C   0  0  0  0  0  2  0  0  0  0  0  0
  183.8300  177.4700  140.8310 C   0  0  1  0  0  3  0  0  0  0  0  0
  183.4780  178.7960  141.4890 C   0  0  1  0  0  3  0  0  0  0  0  0
  182.5980  176.8610  140.1700 C   0  0  0  0  0  1  0  0  0  0  0  0
  183.4270  178.8610  145.2370 C   0  0  0  0  0  3  0  0  0  0  0  0
  184.7830  178.9290  145.5350 C   0  0  0  0  0  3  0  0  0  0  0  0
  185.2500  178.8780  143.1950 N   0  0  0  0  0  0  0  0  0  0  0  0
  183.0150  178.8060  143.9460 N   0  0  0  0  0  0  0  0  0  0  0  0
  185.6960  178.9340  144.4770 C   0  0  0  0  0  3  0  0  0  0  0  0
  183.9250  178.8150  142.9220 C   0  0  0  0  0  0  0  0  0  0  0  0
  182.2460  177.4650  137.4170 C   0  0  0  0  0  2  0  0  0  0  0  0
  181.0700  177.9090  136.7490 O   0  0  0  0  0  0  0  0  0  0  0  0
  180.8200  179.2560  136.4550 C   0  0  0  0  0  0  0  0  0  0  0  0
  181.7520  180.1000  136.2900 O   0  0  0  0  0  0  0  0  0  0  0  0
  179.3820  179.6860  136.2950 C   0  0  0  0  0  2  0  0  0  0  0  0
  179.1570  181.0870  136.6760 N   0  0  0  0  0  0  0  0  0  0  0  0
  179.1480  181.1930  138.1270 C   0  0  0  0  0  2  0  0  0  0  0  0
  179.3210  179.8700  138.7030 N   0  0  0  0  0  0  0  0  0  0  0  0
  179.4970  179.6070  140.1060 C   0  0  0  0  0  0  0  0  0  0  0  0
  179.5090  180.5880  141.0060 C   0  0  0  0  0  1  0  0  0  0  0  0
  179.3580  178.2150  140.5960 C   0  0  0  0  0  1  0  0  0  0  0  0
  180.2480  181.9270  136.1540 C   0  0  0  0  0  2  0  0  0  0  0  0
  179.5370  184.1990  135.8420 C   0  0  2  0  0  3  0  0  0  0  0  0
  178.9320  183.7650  137.0370 O   0  0  0  0  0  0  0  0  0  0  0  0
  180.2420  183.3150  136.8030 C   0  0  1  0  0  0  0  0  0  0  0  0
  181.0190  184.3510  136.0050 C   0  0  0  0  0  2  0  0  0  0  0  0
  1  2  1  0  0  0  0
  1 55  1  1  0  0  0
  2  6  1  6  0  0  0
  3  4  1  0  0  0  0
  3  2  1  1  0  0  0
  5  3  1  0  0  0  0
  5  4  1  0  0  0  0
  7  8  2  0  0  0  0
  7  6  1  0  0  0  0
  8  9  1  0  0  0  0
 10  9  1  0  0  0  0
 11 10  1  0  0  0  0
 12 15  1  0  0  0  0
 12 11  1  0  0  0  0
 13 16  1  0  0  0  0
 13 15  1  0  0  0  0
 15 14  2  0  0  0  0
 17 16  1  0  0  0  0
 18 17  2  0  0  0  0
 19 17  1  0  0  0  0
 19 20  1  0  0  0  0
 20 22  1  0  0  0  0
 21 20  2  0  0  0  0
 22 23  1  0  0  0  0
 23 24  1  0  0  0  0
 24 27  1  0  0  0  0
 24 28  1  1  0  0  0
 26 25  1  0  0  0  0
 27 26  1  0  0  0  0
 27 25  1  0  0  0  0
 28 29  1  0  0  0  0
 29 30  1  0  0  0  0
 32 30  1  6  0  0  0
 32 33  1  0  0  0  0
 32 35  1  0  0  0  0
 33 34  1  0  0  0  0
 34 31  1  0  0  0  0
 35 31  1  0  0  0  0
 36  1  1  0  0  0  0
 36 37  1  0  0  0  0
 37 38  1  0  0  0  0
 37 43  1  6  0  0  0
 38 39  1  1  0  0  0
 40 41  1  0  0  0  0
 41 42  1  1  0  0  0
 41 38  1  0  0  0  0
 43 44  1  0  0  0  0
 44 45  1  0  0  0  0
 44 46  1  0  0  0  0
 45 47  1  0  0  0  0
 46 48  1  6  0  0  0
 46 47  1  0  0  0  0
 47 54  1  1  0  0  0
 49 50  1  0  0  0  0
 51 53  1  0  0  0  0
 52 49  2  0  0  0  0
 53 50  2  0  0  0  0
 54 51  2  0  0  0  0
 54 52  1  0  0  0  0
 56 55  1  0  0  0  0
 57 56  1  0  0  0  0
 58 57  2  0  0  0  0
 59 57  1  0  0  0  0
 59 60  1  0  0  0  0
 60 61  1  0  0  0  0
 61 62  1  0  0  0  0
 62 63  2  0  0  0  0
 63 65  1  0  0  0  0
 63 64  1  0  0  0  0
 66 60  1  0  0  0  0
 67 70  1  1  0  0  0
 67 69  1  0  0  0  0
 67 68  1  0  0  0  0
 69 66  1  6  0  0  0
 69 68  1  0  0  0  0
 70 69  1  0  0  0  0
M  END
>  <MODEL>
2

>  <REMARK>
 VINA RESULT:      -1.6      3.186      6.958
  Name = 
  38 active torsions:
  status: ('A' for Active; 'I' for Inactive)
    1  A    between atoms: N_1  and  C_51
    2  A    between atoms: C_2  and  C_12
    3  A    between atoms: C_2  and  C_26
    4  A    between atoms: O_3  and  C_9
    5  A    between atoms: O_3  and  C_57
    6  A    between atoms: C_4  and  C_52
    7  A    between atoms: C_6  and  C_57
    8  A    between atoms: C_6  and  C_70
    9  A    between atoms: C_7  and  C_24
   10  A    between atoms: C_7  and  C_51
   11  A    between atoms: C_7  and  S_66
   12  A    between atoms: C_9  and  C_61
   13  A    between atoms: C_10  and  C_52
   14  A    between atoms: C_10  and  S_66
   15  A    between atoms: C_10  and  C_69
   16  A    between atoms: C_11  and  C_26
   17  A    between atoms: C_11  and  N_59
   18  A    between atoms: C_12  and  C_33
   19  A    between atoms: N_15  and  C_27
   20  A    between atoms: N_15  and  C_42
   21  A    between atoms: C_18  and  O_54
   22  A    between atoms: C_19  and  C_45
   23  A    between atoms: C_19  and  N_58
   24  A    between atoms: C_20  and  C_35
   25  A    between atoms: C_20  and  O_54
   26  A    between atoms: C_24  and  C_46
   27  A    between atoms: O_28  and  C_39
   28  A    between atoms: O_28  and  C_69
   29  A    between atoms: C_31  and  O_53
   30  A    between atoms: C_32  and  C_35
   31  A    between atoms: C_32  and  C_62
   32  A    between atoms: C_32  and  O_63
   33  A    between atoms: C_33  and  O_63
   34  A    between atoms: C_37  and  C_49
   35  A    between atoms: C_39  and  C_60
   36  A    between atoms: C_42  and  N_58
   37  A    between atoms: C_52  and  O_53
   38  A    between atoms: N_58  and  C_60
                            x       y       z     vdW  Elec       q    Type
                         _______ _______ _______ _____ _____    ______ ____

>  <TORSDO>
F 38

$$$$
=
 OpenBabel11042412073D

 70 76  0  0  1  0  0  0  0  0999 V2000
  188.1720  179.1170  142.4120 C   0  0  2  0  0  3  0  0  0  0  0  0
  189.5520  178.3850  142.4030 C   0  0  1  0  0  3  0  0  0  0  0  0
  190.3480  178.4770  143.7280 C   0  0  1  0  0  3  0  0  0  0  0  0
  191.7310  178.6380  143.4850 O   0  0  0  0  0  0  0  0  0  0  0  0
  191.0470  179.7610  143.9700 C   0  0  0  0  0  2  0  0  0  0  0  0
  189.3930  177.0150  141.9820 O   0  0  0  0  0  0  0  0  0  0  0  0
  190.2150  175.9510  142.3830 C   0  0  0  0  0  3  0  0  0  0  0  0
  191.5330  175.9790  142.1810 C   0  0  0  0  0  3  0  0  0  0  0  0
  192.2240  177.1170  141.4900 C   0  0  0  0  0  2  0  0  0  0  0  0
  192.3840  176.8750  140.1050 O   0  0  0  0  0  0  0  0  0  0  0  0
  193.7610  176.9540  139.8270 C   0  0  0  0  0  2  0  0  0  0  0  0
  194.5760  176.1920  140.8550 C   0  0  0  0  0  2  0  0  0  0  0  0
  195.6490  174.6060  139.2050 N   0  0  0  0  0  2  0  0  0  0  0  0
  196.9120  176.1640  140.4320 O   0  0  0  0  0  0  0  0  0  0  0  0
  195.7820  175.6390  140.1850 C   0  0  0  0  0  0  0  0  0  0  0  0
  196.7790  174.1400  138.4150 C   0  0  0  0  0  2  0  0  0  0  0  0
  196.3310  173.6820  137.0740 C   0  0  0  0  0  0  0  0  0  0  0  0
  196.6190  172.5640  136.6820 O   0  0  0  0  0  0  0  0  0  0  0  0
  195.5120  174.5770  136.2190 C   0  0  0  0  0  2  0  0  0  0  0  0
  194.0330  174.4030  136.4470 C   0  0  0  0  0  0  0  0  0  0  0  0
  193.6390  173.3850  137.0050 O   0  0  0  0  0  0  0  0  0  0  0  0
  193.0130  175.4320  136.0230 C   0  0  0  0  0  2  0  0  0  0  0  0
  192.0790  174.8750  135.1480 O   0  0  0  0  0  0  0  0  0  0  0  0
  190.8750  174.8170  135.8620 C   0  0  2  0  0  3  0  0  0  0  0  0
  190.5750  177.2720  136.3730 C   0  0  0  0  0  2  0  0  0  0  0  0
  189.3860  176.4870  136.8910 C   0  0  0  0  0  2  0  0  0  0  0  0
  190.7940  175.8860  136.9550 C   0  0  0  0  0  3  0  0  0  0  0  0
  190.6420  173.4170  136.4630 C   0  0  0  0  0  2  0  0  0  0  0  0
  189.2040  172.9470  136.3170 C   0  0  0  0  0  2  0  0  0  0  0  0
  189.0560  172.3530  135.0650 O   0  0  0  0  0  0  0  0  0  0  0  0
  185.4600  172.6080  135.6870 C   0  0  0  0  0  2  0  0  0  0  0  0
  187.7900  172.7280  134.6470 C   0  0  2  0  0  3  0  0  0  0  0  0
  187.4150  173.8940  135.3280 O   0  0  0  0  0  0  0  0  0  0  0  0
  186.0180  173.9390  135.2430 C   0  0  0  0  0  2  0  0  0  0  0  0
  186.5900  171.4000  134.9920 S   0  0  0  0  0  0  0  0  0  0  0  0
  187.6700  179.7990  144.0180 S   0  0  0  0  0  0  0  0  0  0  0  0
  186.8130  178.2980  144.5460 C   0  0  1  0  0  3  0  0  0  0  0  0
  187.7200  177.1880  145.1300 C   0  0  2  0  0  3  0  0  0  0  0  0
  186.9960  176.0070  145.3000 O   0  0  0  0  0  1  0  0  0  0  0  0
  188.4320  178.8630  146.7800 O   0  0  0  0  0  1  0  0  0  0  0  0
  188.5160  177.5180  146.4140 C   0  0  1  0  0  3  0  0  0  0  0  0
  188.1740  176.6110  147.5930 C   0  0  0  0  0  1  0  0  0  0  0  0
  185.4470  178.5250  145.2210 C   0  0  0  0  0  2  0  0  0  0  0  0
  184.3120  178.2520  144.3310 N   0  0  0  0  0  0  0  0  0  0  0  0
  183.1010  178.2640  145.1380 C   0  0  0  0  0  2  0  0  0  0  0  0
  183.8170  179.4620  143.6340 C   0  0  1  0  0  3  0  0  0  0  0  0
  182.5540  179.4990  144.4820 C   0  0  1  0  0  3  0  0  0  0  0  0
  184.6170  180.7470  143.8140 C   0  0  0  0  0  1  0  0  0  0  0  0
  180.2700  177.9430  141.9500 C   0  0  0  0  0  3  0  0  0  0  0  0
  179.1270  178.7210  142.0870 C   0  0  0  0  0  3  0  0  0  0  0  0
  180.2370  179.9630  143.7960 N   0  0  0  0  0  0  0  0  0  0  0  0
  181.3570  178.1850  142.7240 N   0  0  0  0  0  0  0  0  0  0  0  0
  179.1310  179.7460  143.0370 C   0  0  0  0  0  3  0  0  0  0  0  0
  181.3440  179.1960  143.6490 C   0  0  0  0  0  0  0  0  0  0  0  0
  187.0130  178.2790  141.8630 C   0  0  0  0  0  2  0  0  0  0  0  0
  186.7610  178.6170  140.5030 O   0  0  0  0  0  0  0  0  0  0  0  0
  185.4740  178.6590  139.9520 C   0  0  0  0  0  0  0  0  0  0  0  0
  184.6100  179.5170  140.3070 O   0  0  0  0  0  0  0  0  0  0  0  0
  185.1390  177.6630  138.8690 C   0  0  0  0  0  2  0  0  0  0  0  0
  183.7300  177.7190  138.4550 N   0  0  0  0  0  0  0  0  0  0  0  0
  183.0690  176.4800  138.8390 C   0  0  0  0  0  2  0  0  0  0  0  0
  183.3350  175.4660  137.8330 N   0  0  0  0  0  2  0  0  0  0  0  0
  182.6570  175.3740  136.5680 C   0  0  0  0  0  0  0  0  0  0  0  0
  182.7530  176.3330  135.6500 C   0  0  0  0  0  2  0  0  0  0  0  0
  182.0920  174.0670  136.1520 C   0  0  0  0  0  1  0  0  0  0  0  0
  183.0550  178.8370  139.1340 C   0  0  0  0  0  2  0  0  0  0  0  0
  181.8480  180.7700  138.3760 C   0  0  2  0  0  3  0  0  0  0  0  0
  182.1530  180.0260  137.2190 O   0  0  0  0  0  0  0  0  0  0  0  0
  181.8090  179.2870  138.3630 C   0  0  1  0  0  0  0  0  0  0  0  0
  180.8270  180.0700  139.2190 C   0  0  0  0  0  2  0  0  0  0  0  0
  1 55  1  1  0  0  0
  1 36  1  0  0  0  0
  2  6  1  1  0  0  0
  2  1  1  0  0  0  0
  3  2  1  6  0  0  0
  3  5  1  0  0  0  0
  4  3  1  0  0  0  0
  4  5  1  0  0  0  0
  6  7  1  0  0  0  0
  8  7  2  0  0  0  0
  9  8  1  0  0  0  0
 10  9  1  0  0  0  0
 11 10  1  0  0  0  0
 11 12  1  0  0  0  0
 13 15  1  0  0  0  0
 15 14  2  0  0  0  0
 15 12  1  0  0  0  0
 16 13  1  0  0  0  0
 17 16  1  0  0  0  0
 18 17  2  0  0  0  0
 19 20  1  0  0  0  0
 19 17  1  0  0  0  0
 20 21  2  0  0  0  0
 22 20  1  0  0  0  0
 23 24  1  0  0  0  0
 23 22  1  0  0  0  0
 24 28  1  1  0  0  0
 24 27  1  0  0  0  0
 25 26  1  0  0  0  0
 25 27  1  0  0  0  0
 26 27  1  0  0  0  0
 29 28  1  0  0  0  0
 30 29  1  0  0  0  0
 32 35  1  0  0  0  0
 32 30  1  1  0  0  0
 32 33  1  0  0  0  0
 34 33  1  0  0  0  0
 34 31  1  0  0  0  0
 35 31  1  0  0  0  0
 36 37  1  0  0  0  0
 37 38  1  0  0  0  0
 37 43  1  1  0  0  0
 38 39  1  1  0  0  0
 38 41  1  0  0  0  0
 41 40  1  0  0  0  0
 41 42  1  1  0  0  0
 44 45  1  0  0  0  0
 44 43  1  0  0  0  0
 46 48  1  1  0  0  0
 46 44  1  0  0  0  0
 46 47  1  0  0  0  0
 47 54  1  6  0  0  0
 47 45  1  0  0  0  0
 49 50  1  0  0  0  0
 49 52  2  0  0  0  0
 50 53  2  0  0  0  0
 52 54  1  0  0  0  0
 53 51  1  0  0  0  0
 54 51  2  0  0  0  0
 56 55  1  0  0  0  0
 57 58  2  0  0  0  0
 57 56  1  0  0  0  0
 59 57  1  0  0  0  0
 60 61  1  0  0  0  0
 60 59  1  0  0  0  0
 60 66  1  0  0  0  0
 62 61  1  0  0  0  0
 63 62  1  0  0  0  0
 64 63  2  0  0  0  0
 65 63  1  0  0  0  0
 67 70  1  6  0  0  0
 68 69  1  0  0  0  0
 68 67  1  0  0  0  0
 69 67  1  0  0  0  0
 69 66  1  1  0  0  0
 69 70  1  0  0  0  0
M  END
>  <MODEL>
3

>  <REMARK>
 VINA RESULT:       0.3      3.097      7.487
  Name = 
  38 active torsions:
  status: ('A' for Active; 'I' for Inactive)
    1  A    between atoms: N_1  and  C_51
    2  A    between atoms: C_2  and  C_12
    3  A    between atoms: C_2  and  C_26
    4  A    between atoms: O_3  and  C_9
    5  A    between atoms: O_3  and  C_57
    6  A    between atoms: C_4  and  C_52
    7  A    between atoms: C_6  and  C_57
    8  A    between atoms: C_6  and  C_70
    9  A    between atoms: C_7  and  C_24
   10  A    between atoms: C_7  and  C_51
   11  A    between atoms: C_7  and  S_66
   12  A    between atoms: C_9  and  C_61
   13  A    between atoms: C_10  and  C_52
   14  A    between atoms: C_10  and  S_66
   15  A    between atoms: C_10  and  C_69
   16  A    between atoms: C_11  and  C_26
   17  A    between atoms: C_11  and  N_59
   18  A    between atoms: C_12  and  C_33
   19  A    between atoms: N_15  and  C_27
   20  A    between atoms: N_15  and  C_42
   21  A    between atoms: C_18  and  O_54
   22  A    between atoms: C_19  and  C_45
   23  A    between atoms: C_19  and  N_58
   24  A    between atoms: C_20  and  C_35
   25  A    between atoms: C_20  and  O_54
   26  A    between atoms: C_24  and  C_46
   27  A    between atoms: O_28  and  C_39
   28  A    between atoms: O_28  and  C_69
   29  A    between atoms: C_31  and  O_53
   30  A    between atoms: C_32  and  C_35
   31  A    between atoms: C_32  and  C_62
   32  A    between atoms: C_32  and  O_63
   33  A    between atoms: C_33  and  O_63
   34  A    between atoms: C_37  and  C_49
   35  A    between atoms: C_39  and  C_60
   36  A    between atoms: C_42  and  N_58
   37  A    between atoms: C_52  and  O_53
   38  A    between atoms: N_58  and  C_60
                            x       y       z     vdW  Elec       q    Type
                         _______ _______ _______ _____ _____    ______ ____

>  <TORSDO>
F 38

$$$$
=
 OpenBabel11042412073D

 70 76  0  0  1  0  0  0  0  0999 V2000
  184.5520  179.2030  141.9100 C   0  0  2  0  0  3  0  0  0  0  0  0
  183.9570  179.4180  143.3390 C   0  0  1  0  0  3  0  0  0  0  0  0
  182.7270  178.5390  143.6720 C   0  0  1  0  0  3  0  0  0  0  0  0
  182.4210  178.5860  145.0510 O   0  0  0  0  0  0  0  0  0  0  0  0
  181.5430  179.2630  144.1940 C   0  0  0  0  0  2  0  0  0  0  0  0
  184.9860  179.2770  144.3400 O   0  0  0  0  0  0  0  0  0  0  0  0
  186.3440  179.0500  144.0700 C   0  0  0  0  0  3  0  0  0  0  0  0
  187.1800  178.6360  145.0230 C   0  0  0  0  0  3  0  0  0  0  0  0
  186.7480  178.4180  146.4430 C   0  0  0  0  0  2  0  0  0  0  0  0
  186.9470  177.0810  146.8570 O   0  0  0  0  0  0  0  0  0  0  0  0
  187.8530  177.1090  147.9320 C   0  0  0  0  0  2  0  0  0  0  0  0
  189.1230  177.8550  147.5630 C   0  0  0  0  0  2  0  0  0  0  0  0
  189.0110  177.4230  145.0760 N   0  0  0  0  0  2  0  0  0  0  0  0
  190.8050  176.6590  146.3890 O   0  0  0  0  0  0  0  0  0  0  0  0
  189.6820  177.2490  146.3260 C   0  0  0  0  0  0  0  0  0  0  0  0
  189.5950  176.9790  143.8180 C   0  0  0  0  0  2  0  0  0  0  0  0
  190.9540  177.5540  143.6360 C   0  0  0  0  0  0  0  0  0  0  0  0
  191.2880  178.5440  144.2630 O   0  0  0  0  0  0  0  0  0  0  0  0
  191.9160  176.9070  142.7100 C   0  0  0  0  0  2  0  0  0  0  0  0
  192.0820  177.6680  141.4200 C   0  0  0  0  0  0  0  0  0  0  0  0
  191.5670  178.7760  141.3210 O   0  0  0  0  0  0  0  0  0  0  0  0
  192.8610  177.1280  140.2450 C   0  0  0  0  0  2  0  0  0  0  0  0
  194.2160  177.0140  140.5590 O   0  0  0  0  0  0  0  0  0  0  0  0
  194.5870  175.7180  140.1790 C   0  0  2  0  0  3  0  0  0  0  0  0
  197.0530  175.4000  139.7320 C   0  0  0  0  0  2  0  0  0  0  0  0
  196.8470  176.5380  140.7120 C   0  0  0  0  0  2  0  0  0  0  0  0
  195.9410  175.3040  140.7630 C   0  0  0  0  0  3  0  0  0  0  0  0
  194.5930  175.5580  138.6460 C   0  0  0  0  0  2  0  0  0  0  0  0
  194.7790  174.1160  138.2060 C   0  0  0  0  0  2  0  0  0  0  0  0
  193.6210  173.6980  137.5510 O   0  0  0  0  0  0  0  0  0  0  0  0
  195.8130  173.5860  134.6230 C   0  0  0  0  0  2  0  0  0  0  0  0
  194.0780  173.0450  136.4180 C   0  0  2  0  0  3  0  0  0  0  0  0
  195.3470  172.5130  136.6810 O   0  0  0  0  0  0  0  0  0  0  0  0
  195.9320  172.3120  135.4260 C   0  0  0  0  0  2  0  0  0  0  0  0
  194.1750  174.2040  135.0150 S   0  0  0  0  0  0  0  0  0  0  0  0
  183.9340  177.7430  141.0270 S   0  0  0  0  0  0  0  0  0  0  0  0
  182.2360  178.3550  140.9160 C   0  0  1  0  0  3  0  0  0  0  0  0
  182.0250  179.5550  139.9630 C   0  0  2  0  0  3  0  0  0  0  0  0
  183.0600  180.4800  140.1070 O   0  0  0  0  0  1  0  0  0  0  0  0
  180.5170  181.1160  141.1130 O   0  0  0  0  0  1  0  0  0  0  0  0
  180.6560  180.2720  140.0090 C   0  0  1  0  0  3  0  0  0  0  0  0
  180.3090  181.0060  138.7170 C   0  0  0  0  0  1  0  0  0  0  0  0
  181.1450  177.2680  140.9390 C   0  0  0  0  0  2  0  0  0  0  0  0
  180.7880  176.7820  139.6000 N   0  0  0  0  0  0  0  0  0  0  0  0
  181.8350  175.8690  139.1650 C   0  0  0  0  0  2  0  0  0  0  0  0
  179.8500  175.6360  139.6290 C   0  0  1  0  0  3  0  0  0  0  0  0
  180.9370  174.6650  139.1930 C   0  0  1  0  0  3  0  0  0  0  0  0
  179.2870  175.2300  140.9860 C   0  0  0  0  0  1  0  0  0  0  0  0
  181.3850  173.6730  135.6060 C   0  0  0  0  0  3  0  0  0  0  0  0
  180.1040  173.2540  135.2680 C   0  0  0  0  0  3  0  0  0  0  0  0
  179.4110  173.7370  137.5000 N   0  0  0  0  0  0  0  0  0  0  0  0
  181.6510  174.1100  136.8620 N   0  0  0  0  0  0  0  0  0  0  0  0
  179.1120  173.2930  136.2520 C   0  0  0  0  0  3  0  0  0  0  0  0
  180.6650  174.1440  137.8130 C   0  0  0  0  0  0  0  0  0  0  0  0
  186.0830  179.1790  141.8650 C   0  0  0  0  0  2  0  0  0  0  0  0
  186.5400  179.3710  140.5300 O   0  0  0  0  0  0  0  0  0  0  0  0
  186.9340  178.3150  139.6980 C   0  0  0  0  0  0  0  0  0  0  0  0
  186.1160  177.6910  138.9570 O   0  0  0  0  0  0  0  0  0  0  0  0
  188.3990  177.9520  139.6690 C   0  0  0  0  0  2  0  0  0  0  0  0
  188.9200  177.7800  138.3060 N   0  0  0  0  0  0  0  0  0  0  0  0
  190.1150  176.9510  138.3500 C   0  0  0  0  0  2  0  0  0  0  0  0
  189.7330  175.5560  138.2130 N   0  0  0  0  0  2  0  0  0  0  0  0
  189.8170  174.8030  136.9910 C   0  0  0  0  0  0  0  0  0  0  0  0
  188.8770  173.9280  136.6420 C   0  0  0  0  0  2  0  0  0  0  0  0
  190.7960  175.2200  135.9590 C   0  0  0  0  0  1  0  0  0  0  0  0
  187.9140  177.1030  137.4700 C   0  0  0  0  0  2  0  0  0  0  0  0
  186.1040  178.1440  136.2850 C   0  0  2  0  0  3  0  0  0  0  0  0
  187.0170  179.1760  136.5790 O   0  0  0  0  0  0  0  0  0  0  0  0
  187.5720  177.9340  136.2280 C   0  0  1  0  0  0  0  0  0  0  0  0
  186.6570  177.2060  135.2560 C   0  0  0  0  0  2  0  0  0  0  0  0
  1 55  1  1  0  0  0
  1  2  1  0  0  0  0
  2  6  1  1  0  0  0
  3  2  1  1  0  0  0
  3  5  1  0  0  0  0
  3  4  1  0  0  0  0
  5  4  1  0  0  0  0
  7  6  1  0  0  0  0
  7  8  2  0  0  0  0
  8  9  1  0  0  0  0
  9 10  1  0  0  0  0
 10 11  1  0  0  0  0
 12 11  1  0  0  0  0
 13 15  1  0  0  0  0
 15 14  2  0  0  0  0
 15 12  1  0  0  0  0
 16 13  1  0  0  0  0
 17 16  1  0  0  0  0
 17 18  2  0  0  0  0
 19 17  1  0  0  0  0
 20 19  1  0  0  0  0
 21 20  2  0  0  0  0
 22 23  1  0  0  0  0
 22 20  1  0  0  0  0
 24 28  1  6  0  0  0
 24 23  1  0  0  0  0
 24 27  1  0  0  0  0
 25 26  1  0  0  0  0
 25 27  1  0  0  0  0
 26 27  1  0  0  0  0
 29 28  1  0  0  0  0
 30 29  1  0  0  0  0
 31 35  1  0  0  0  0
 31 34  1  0  0  0  0
 32 33  1  0  0  0  0
 32 30  1  1  0  0  0
 34 33  1  0  0  0  0
 35 32  1  0  0  0  0
 36  1  1  0  0  0  0
 37 43  1  6  0  0  0
 37 36  1  0  0  0  0
 38 41  1  0  0  0  0
 38 39  1  1  0  0  0
 38 37  1  0  0  0  0
 41 42  1  6  0  0  0
 41 40  1  0  0  0  0
 44 46  1  0  0  0  0
 44 43  1  0  0  0  0
 45 47  1  0  0  0  0
 45 44  1  0  0  0  0
 46 48  1  1  0  0  0
 47 54  1  6  0  0  0
 47 46  1  0  0  0  0
 49 52  2  0  0  0  0
 50 49  1  0  0  0  0
 50 53  2  0  0  0  0
 51 54  2  0  0  0  0
 52 54  1  0  0  0  0
 53 51  1  0  0  0  0
 56 55  1  0  0  0  0
 57 56  1  0  0  0  0
 58 57  2  0  0  0  0
 59 57  1  0  0  0  0
 60 61  1  0  0  0  0
 60 59  1  0  0  0  0
 62 61  1  0  0  0  0
 63 62  1  0  0  0  0
 64 63  2  0  0  0  0
 65 63  1  0  0  0  0
 66 60  1  0  0  0  0
 67 70  1  6  0  0  0
 67 68  1  0  0  0  0
 69 67  1  0  0  0  0
 69 68  1  0  0  0  0
 69 66  1  1  0  0  0
 70 69  1  0  0  0  0
M  END
>  <MODEL>
4

>  <REMARK>
 VINA RESULT:       0.4      2.570      5.891
  Name = 
  38 active torsions:
  status: ('A' for Active; 'I' for Inactive)
    1  A    between atoms: N_1  and  C_51
    2  A    between atoms: C_2  and  C_12
    3  A    between atoms: C_2  and  C_26
    4  A    between atoms: O_3  and  C_9
    5  A    between atoms: O_3  and  C_57
    6  A    between atoms: C_4  and  C_52
    7  A    between atoms: C_6  and  C_57
    8  A    between atoms: C_6  and  C_70
    9  A    between atoms: C_7  and  C_24
   10  A    between atoms: C_7  and  C_51
   11  A    between atoms: C_7  and  S_66
   12  A    between atoms: C_9  and  C_61
   13  A    between atoms: C_10  and  C_52
   14  A    between atoms: C_10  and  S_66
   15  A    between atoms: C_10  and  C_69
   16  A    between atoms: C_11  and  C_26
   17  A    between atoms: C_11  and  N_59
   18  A    between atoms: C_12  and  C_33
   19  A    between atoms: N_15  and  C_27
   20  A    between atoms: N_15  and  C_42
   21  A    between atoms: C_18  and  O_54
   22  A    between atoms: C_19  and  C_45
   23  A    between atoms: C_19  and  N_58
   24  A    between atoms: C_20  and  C_35
   25  A    between atoms: C_20  and  O_54
   26  A    between atoms: C_24  and  C_46
   27  A    between atoms: O_28  and  C_39
   28  A    between atoms: O_28  and  C_69
   29  A    between atoms: C_31  and  O_53
   30  A    between atoms: C_32  and  C_35
   31  A    between atoms: C_32  and  C_62
   32  A    between atoms: C_32  and  O_63
   33  A    between atoms: C_33  and  O_63
   34  A    between atoms: C_37  and  C_49
   35  A    between atoms: C_39  and  C_60
   36  A    between atoms: C_42  and  N_58
   37  A    between atoms: C_52  and  O_53
   38  A    between atoms: N_58  and  C_60
                            x       y       z     vdW  Elec       q    Type
                         _______ _______ _______ _____ _____    ______ ____

>  <TORSDO>
F 38

$$$$
=
 OpenBabel11042412073D

 70 76  0  0  1  0  0  0  0  0999 V2000
  188.1720  179.1170  142.4120 C   0  0  2  0  0  3  0  0  0  0  0  0
  189.5520  178.3850  142.4030 C   0  0  1  0  0  3  0  0  0  0  0  0
  190.3190  178.4240  143.7470 C   0  0  1  0  0  3  0  0  0  0  0  0
  191.6260  178.9370  143.5770 O   0  0  0  0  0  0  0  0  0  0  0  0
  190.7060  179.7720  144.2270 C   0  0  0  0  0  2  0  0  0  0  0  0
  189.4020  177.0330  141.9250 O   0  0  0  0  0  0  0  0  0  0  0  0
  190.1970  175.9480  142.3230 C   0  0  0  0  0  3  0  0  0  0  0  0
  191.5250  175.9820  142.2070 C   0  0  0  0  0  3  0  0  0  0  0  0
  192.2580  177.1510  141.6190 C   0  0  0  0  0  2  0  0  0  0  0  0
  192.5070  176.9790  140.2370 O   0  0  0  0  0  0  0  0  0  0  0  0
  193.8780  177.2170  140.0290 C   0  0  0  0  0  2  0  0  0  0  0  0
  194.7240  176.5090  141.0710 C   0  0  0  0  0  2  0  0  0  0  0  0
  196.2750  175.3660  139.4360 N   0  0  0  0  0  2  0  0  0  0  0  0
  197.0410  177.0090  140.9320 O   0  0  0  0  0  0  0  0  0  0  0  0
  196.0820  176.2930  140.5080 C   0  0  0  0  0  0  0  0  0  0  0  0
  197.5530  175.2310  138.7520 C   0  0  0  0  0  2  0  0  0  0  0  0
  197.3520  174.8370  137.3330 C   0  0  0  0  0  0  0  0  0  0  0  0
  197.9130  173.8510  136.8860 O   0  0  0  0  0  0  0  0  0  0  0  0
  196.4480  175.6300  136.4640 C   0  0  0  0  0  2  0  0  0  0  0  0
  195.0260  175.1320  136.4960 C   0  0  0  0  0  0  0  0  0  0  0  0
  194.7730  174.1170  137.1350 O   0  0  0  0  0  0  0  0  0  0  0  0
  193.8970  175.8320  135.7790 C   0  0  0  0  0  2  0  0  0  0  0  0
  192.9520  174.9110  135.3240 O   0  0  0  0  0  0  0  0  0  0  0  0
  191.7930  175.1520  136.0750 C   0  0  2  0  0  3  0  0  0  0  0  0
  190.6830  177.3540  136.6210 C   0  0  0  0  0  2  0  0  0  0  0  0
  190.6930  176.4620  137.8460 C   0  0  0  0  0  2  0  0  0  0  0  0
  191.8790  176.4540  136.8780 C   0  0  0  0  0  3  0  0  0  0  0  0
  191.4670  173.9690  137.0060 C   0  0  0  0  0  2  0  0  0  0  0  0
  189.9750  173.7950  137.2350 C   0  0  0  0  0  2  0  0  0  0  0  0
  189.4380  173.0950  136.1560 O   0  0  0  0  0  0  0  0  0  0  0  0
  185.9960  173.9440  137.0600 C   0  0  0  0  0  2  0  0  0  0  0  0
  188.2490  173.7470  135.8730 C   0  0  2  0  0  3  0  0  0  0  0  0
  188.1430  174.8740  136.6990 O   0  0  0  0  0  0  0  0  0  0  0  0
  186.7790  175.1890  136.7210 C   0  0  0  0  0  2  0  0  0  0  0  0
  186.8340  172.6360  136.1610 S   0  0  0  0  0  0  0  0  0  0  0  0
  187.6700  179.7990  144.0180 S   0  0  0  0  0  0  0  0  0  0  0  0
  186.8130  178.2980  144.5460 C   0  0  1  0  0  3  0  0  0  0  0  0
  187.7200  177.1880  145.1300 C   0  0  2  0  0  3  0  0  0  0  0  0
  187.3980  175.9510  144.5710 O   0  0  0  0  0  1  0  0  0  0  0  0
  188.9960  176.4860  147.1080 O   0  0  0  0  0  1  0  0  0  0  0  0
  187.8070  177.0740  146.6700 C   0  0  1  0  0  3  0  0  0  0  0  0
  187.5530  178.3920  147.3940 C   0  0  0  0  0  1  0  0  0  0  0  0
  185.4470  178.5250  145.2210 C   0  0  0  0  0  2  0  0  0  0  0  0
  184.3130  178.2820  144.3220 N   0  0  0  0  0  0  0  0  0  0  0  0
  183.0970  178.3080  145.1220 C   0  0  0  0  0  2  0  0  0  0  0  0
  183.8430  179.5070  143.6340 C   0  0  1  0  0  3  0  0  0  0  0  0
  182.5770  179.5600  144.4750 C   0  0  1  0  0  3  0  0  0  0  0  0
  184.6660  180.7760  143.8310 C   0  0  0  0  0  1  0  0  0  0  0  0
  179.4770  177.9590  143.1060 C   0  0  0  0  0  3  0  0  0  0  0  0
  179.1970  178.7740  142.0160 C   0  0  0  0  0  3  0  0  0  0  0  0
  181.1060  180.0920  142.5750 N   0  0  0  0  0  0  0  0  0  0  0  0
  180.5470  178.2190  143.8960 N   0  0  0  0  0  0  0  0  0  0  0  0
  180.0420  179.8590  141.7650 C   0  0  0  0  0  3  0  0  0  0  0  0
  181.3660  179.2860  143.6330 C   0  0  0  0  0  0  0  0  0  0  0  0
  187.0130  178.2790  141.8630 C   0  0  0  0  0  2  0  0  0  0  0  0
  186.5980  178.7810  140.5970 O   0  0  0  0  0  0  0  0  0  0  0  0
  185.2580  179.0350  140.2780 C   0  0  0  0  0  0  0  0  0  0  0  0
  184.7320  180.1820  140.4120 O   0  0  0  0  0  0  0  0  0  0  0  0
  184.4400  177.8970  139.7170 C   0  0  0  0  0  2  0  0  0  0  0  0
  183.1030  178.3160  139.2730 N   0  0  0  0  0  0  0  0  0  0  0  0
  183.2280  179.0990  138.0530 C   0  0  0  0  0  2  0  0  0  0  0  0
  182.9370  180.4920  138.3480 N   0  0  0  0  0  2  0  0  0  0  0  0
  181.9050  181.2640  137.7090 C   0  0  0  0  0  0  0  0  0  0  0  0
  180.8530  180.6860  137.1340 C   0  0  0  0  0  2  0  0  0  0  0  0
  181.8490  182.7250  137.9550 C   0  0  0  0  0  1  0  0  0  0  0  0
  182.2790  177.1310  138.9850 C   0  0  0  0  0  2  0  0  0  0  0  0
  179.9160  176.7330  138.8310 C   0  0  2  0  0  3  0  0  0  0  0  0
  180.0620  178.1190  139.0350 O   0  0  0  0  0  0  0  0  0  0  0  0
  181.0160  177.5070  138.2040 C   0  0  1  0  0  0  0  0  0  0  0  0
  180.3940  176.3300  137.4700 C   0  0  0  0  0  2  0  0  0  0  0  0
  1 55  1  1  0  0  0
  1 36  1  0  0  0  0
  2  6  1  1  0  0  0
  2  1  1  0  0  0  0
  3  2  1  6  0  0  0
  3  5  1  0  0  0  0
  4  3  1  0  0  0  0
  4  5  1  0  0  0  0
  6  7  1  0  0  0  0
  8  7  2  0  0  0  0
  9  8  1  0  0  0  0
 10  9  1  0  0  0  0
 11 10  1  0  0  0  0
 11 12  1  0  0  0  0
 13 15  1  0  0  0  0
 15 14  2  0  0  0  0
 15 12  1  0  0  0  0
 16 13  1  0  0  0  0
 17 16  1  0  0  0  0
 18 17  2  0  0  0  0
 19 20  1  0  0  0  0
 19 17  1  0  0  0  0
 20 21  2  0  0  0  0
 22 20  1  0  0  0  0
 23 22  1  0  0  0  0
 23 24  1  0  0  0  0
 24 27  1  0  0  0  0
 24 28  1  1  0  0  0
 25 27  1  0  0  0  0
 25 26  1  0  0  0  0
 27 26  1  0  0  0  0
 28 29  1  0  0  0  0
 30 29  1  0  0  0  0
 32 30  1  1  0  0  0
 32 35  1  0  0  0  0
 32 33  1  0  0  0  0
 33 34  1  0  0  0  0
 34 31  1  0  0  0  0
 35 31  1  0  0  0  0
 36 37  1  0  0  0  0
 37 38  1  0  0  0  0
 37 43  1  1  0  0  0
 38 39  1  6  0  0  0
 38 41  1  0  0  0  0
 41 40  1  0  0  0  0
 41 42  1  1  0  0  0
 44 45  1  0  0  0  0
 44 43  1  0  0  0  0
 46 48  1  1  0  0  0
 46 44  1  0  0  0  0
 46 47  1  0  0  0  0
 47 54  1  6  0  0  0
 47 45  1  0  0  0  0
 49 52  2  0  0  0  0
 50 49  1  0  0  0  0
 51 54  2  0  0  0  0
 53 50  2  0  0  0  0
 53 51  1  0  0  0  0
 54 52  1  0  0  0  0
 56 55  1  0  0  0  0
 57 58  2  0  0  0  0
 57 56  1  0  0  0  0
 59 57  1  0  0  0  0
 60 59  1  0  0  0  0
 61 62  1  0  0  0  0
 61 60  1  0  0  0  0
 63 65  1  0  0  0  0
 63 62  1  0  0  0  0
 64 63  2  0  0  0  0
 66 60  1  0  0  0  0
 67 70  1  6  0  0  0
 67 68  1  0  0  0  0
 69 67  1  0  0  0  0
 69 66  1  1  0  0  0
 69 68  1  0  0  0  0
 70 69  1  0  0  0  0
M  END
>  <MODEL>
5

>  <REMARK>
 VINA RESULT:       1.0      3.343      7.166
  Name = 
  38 active torsions:
  status: ('A' for Active; 'I' for Inactive)
    1  A    between atoms: N_1  and  C_51
    2  A    between atoms: C_2  and  C_12
    3  A    between atoms: C_2  and  C_26
    4  A    between atoms: O_3  and  C_9
    5  A    between atoms: O_3  and  C_57
    6  A    between atoms: C_4  and  C_52
    7  A    between atoms: C_6  and  C_57
    8  A    between atoms: C_6  and  C_70
    9  A    between atoms: C_7  and  C_24
   10  A    between atoms: C_7  and  C_51
   11  A    between atoms: C_7  and  S_66
   12  A    between atoms: C_9  and  C_61
   13  A    between atoms: C_10  and  C_52
   14  A    between atoms: C_10  and  S_66
   15  A    between atoms: C_10  and  C_69
   16  A    between atoms: C_11  and  C_26
   17  A    between atoms: C_11  and  N_59
   18  A    between atoms: C_12  and  C_33
   19  A    between atoms: N_15  and  C_27
   20  A    between atoms: N_15  and  C_42
   21  A    between atoms: C_18  and  O_54
   22  A    between atoms: C_19  and  C_45
   23  A    between atoms: C_19  and  N_58
   24  A    between atoms: C_20  and  C_35
   25  A    between atoms: C_20  and  O_54
   26  A    between atoms: C_24  and  C_46
   27  A    between atoms: O_28  and  C_39
   28  A    between atoms: O_28  and  C_69
   29  A    between atoms: C_31  and  O_53
   30  A    between atoms: C_32  and  C_35
   31  A    between atoms: C_32  and  C_62
   32  A    between atoms: C_32  and  O_63
   33  A    between atoms: C_33  and  O_63
   34  A    between atoms: C_37  and  C_49
   35  A    between atoms: C_39  and  C_60
   36  A    between atoms: C_42  and  N_58
   37  A    between atoms: C_52  and  O_53
   38  A    between atoms: N_58  and  C_60
                            x       y       z     vdW  Elec       q    Type
                         _______ _______ _______ _____ _____    ______ ____

>  <TORSDO>
F 38

$$$$
