=
 OpenBabel11032419153D

 30 33  0  0  1  0  0  0  0  0999 V2000
  188.4530  177.2250  138.6570 C   0  0  0  0  0  2  0  0  0  0  0  0
  188.2100  177.5390  141.0870 N   0  0  0  0  0  0  0  0  0  0  0  0
  189.0400  177.3450  140.0300 C   0  0  0  0  0  0  0  0  0  0  0  0
  191.3810  176.9930  139.1430 C   0  0  0  0  0  2  0  0  0  0  0  0
  190.8930  177.3910  141.5230 N   0  0  0  0  0  0  0  0  0  0  0  0
  191.1390  175.6680  138.5860 N   0  0  0  0  0  2  0  0  0  0  0  0
  190.0730  177.6130  142.5860 C   0  0  0  0  0  0  0  0  0  0  0  0
  190.1730  175.8030  137.4990 C   0  0  2  0  0  3  0  0  0  0  0  0
  188.6730  177.6670  142.3600 C   0  0  0  0  0  0  0  0  0  0  0  0
  190.4210  177.2580  140.2580 C   0  0  0  0  0  0  0  0  0  0  0  0
  188.7450  175.8640  138.0390 C   0  0  0  0  0  2  0  0  0  0  0  0
  187.6800  177.7760  143.4540 C   0  0  0  0  0  0  0  0  0  0  0  0
  187.1370  177.5050  145.7990 C   0  0  0  0  0  3  0  0  0  0  0  0
  185.4380  178.2080  144.2990 C   0  0  0  0  0  0  0  0  0  0  0  0
  185.8830  178.5080  141.9390 C   0  0  0  0  0  3  0  0  0  0  0  0
  185.8570  177.8840  145.5500 N   0  0  0  0  0  0  0  0  0  0  0  0
  183.6930  178.9200  142.8540 C   0  0  0  0  0  3  0  0  0  0  0  0
  188.0660  177.4410  144.7580 C   0  0  0  0  0  3  0  0  0  0  0  0
  184.1490  178.5830  144.0910 N   0  0  0  0  0  0  0  0  0  0  0  0
  186.3440  178.1560  143.2150 C   0  0  0  0  0  0  0  0  0  0  0  0
  184.5540  178.8890  141.7550 C   0  0  0  0  0  3  0  0  0  0  0  0
  190.7040  177.8130  143.9110 C   0  0  0  0  0  0  0  0  0  0  0  0
  190.9620  176.7470  144.6870 C   0  0  0  0  0  3  0  0  0  0  0  0
  190.9240  179.1650  144.3440 N   0  0  0  0  0  2  0  0  0  0  0  0
  192.0420  179.7190  144.3260 O   0  0  0  0  0  1  0  0  0  0  0  0
  191.5210  176.7880  146.0700 C   0  0  0  0  0  2  0  0  0  0  0  0
  192.5010  175.6710  147.7010 C   0  0  0  0  0  1  0  0  0  0  0  0
  192.1970  175.5980  146.3430 O   0  0  0  0  0  0  0  0  0  0  0  0
  190.3220  174.6420  136.5270 C   0  0  0  0  0  2  0  0  0  0  0  0
  190.2600  173.4180  137.1990 O   0  0  0  0  0  1  0  0  0  0  0  0
  1  3  1  0  0  0  0
  2  9  1  0  0  0  0
  3 10  1  0  0  0  0
  3  2  2  0  0  0  0
  4 10  1  0  0  0  0
  5  7  1  0  0  0  0
  6  4  1  0  0  0  0
  7 22  1  0  0  0  0
  8 29  1  6  0  0  0
  8 11  1  0  0  0  0
  8  6  1  0  0  0  0
  9  7  2  0  0  0  0
  9 12  1  0  0  0  0
 10  5  2  0  0  0  0
 11  1  1  0  0  0  0
 12 18  1  0  0  0  0
 14 16  2  0  0  0  0
 15 20  1  0  0  0  0
 16 13  1  0  0  0  0
 17 19  2  0  0  0  0
 18 13  2  0  0  0  0
 19 14  1  0  0  0  0
 20 12  2  0  0  0  0
 20 14  1  0  0  0  0
 21 15  2  0  0  0  0
 21 17  1  0  0  0  0
 22 24  1  0  0  0  0
 22 23  2  0  0  0  0
 23 26  1  0  0  0  0
 25 24  1  0  0  0  0
 26 28  1  0  0  0  0
 28 27  1  0  0  0  0
 29 30  1  0  0  0  0
M  END
>  <MODEL>
1

>  <REMARK>
 VINA RESULT:      -8.5      0.000      0.000
  Name = 
  6 active torsions:
  status: ('A' for Active; 'I' for Inactive)
    1  A    between atoms: C_1  and  C_23
    2  A    between atoms: C_2  and  N_13
    3  A    between atoms: C_2  and  C_19
    4  A    between atoms: O_9  and  C_27
    5  A    between atoms: C_12  and  C_27
    6  A    between atoms: C_14  and  CA_21
                            x       y       z     vdW  Elec       q    Type
                         _______ _______ _______ _____ _____    ______ ____

>  <TORSDO>
F 6

$$$$
=
 OpenBabel11032419153D

 30 33  0  0  1  0  0  0  0  0999 V2000
  184.5290  179.5360  142.9970 C   0  0  0  0  0  2  0  0  0  0  0  0
  186.7880  178.7550  142.4090 N   0  0  0  0  0  0  0  0  0  0  0  0
  185.5410  179.0870  141.9880 C   0  0  0  0  0  0  0  0  0  0  0  0
  183.8680  179.2970  140.1040 C   0  0  0  0  0  2  0  0  0  0  0  0
  186.2030  178.5980  139.7540 N   0  0  0  0  0  0  0  0  0  0  0  0
  182.9150  178.3310  140.6340 N   0  0  0  0  0  2  0  0  0  0  0  0
  187.4640  178.2890  140.1610 C   0  0  0  0  0  0  0  0  0  0  0  0
  182.3780  178.8610  141.8840 C   0  0  2  0  0  3  0  0  0  0  0  0
  187.7610  178.3480  141.5480 C   0  0  0  0  0  0  0  0  0  0  0  0
  185.2370  178.9950  140.6220 C   0  0  0  0  0  0  0  0  0  0  0  0
  183.3320  178.5960  143.0480 C   0  0  0  0  0  2  0  0  0  0  0  0
  189.0570  177.9140  142.1170 C   0  0  0  0  0  0  0  0  0  0  0  0
  191.3800  177.3200  141.7730 C   0  0  0  0  0  3  0  0  0  0  0  0
  190.4620  177.1570  143.9550 C   0  0  0  0  0  0  0  0  0  0  0  0
  188.1530  177.7280  144.3990 C   0  0  0  0  0  3  0  0  0  0  0  0
  191.5060  177.0310  143.0950 N   0  0  0  0  0  0  0  0  0  0  0  0
  189.6090  176.9760  146.1640 C   0  0  0  0  0  3  0  0  0  0  0  0
  190.1580  177.7600  141.2640 C   0  0  0  0  0  3  0  0  0  0  0  0
  190.6280  176.8580  145.2710 N   0  0  0  0  0  0  0  0  0  0  0  0
  189.2050  177.5990  143.4820 C   0  0  0  0  0  0  0  0  0  0  0  0
  188.3520  177.4150  145.7430 C   0  0  0  0  0  3  0  0  0  0  0  0
  188.4550  177.9360  139.1190 C   0  0  0  0  0  0  0  0  0  0  0  0
  188.6510  176.6440  138.8050 C   0  0  0  0  0  3  0  0  0  0  0  0
  189.2350  179.0030  138.5550 N   0  0  0  0  0  2  0  0  0  0  0  0
  188.9110  179.6170  137.5180 O   0  0  0  0  0  1  0  0  0  0  0  0
  189.6610  176.1240  137.8370 C   0  0  0  0  0  2  0  0  0  0  0  0
  191.8410  176.2630  138.1460 C   0  0  0  0  0  1  0  0  0  0  0  0
  190.7180  175.5320  138.5290 O   0  0  0  0  0  0  0  0  0  0  0  0
  181.0150  178.2450  142.1660 C   0  0  0  0  0  2  0  0  0  0  0  0
  180.6110  178.5090  143.4770 O   0  0  0  0  0  1  0  0  0  0  0  0
  1 11  1  0  0  0  0
  3  2  1  0  0  0  0
  3  1  1  0  0  0  0
  4 10  1  0  0  0  0
  4  6  1  0  0  0  0
  5  7  2  0  0  0  0
  5 10  1  0  0  0  0
  6  8  1  0  0  0  0
  7  9  1  0  0  0  0
  8 29  1  1  0  0  0
  8 11  1  0  0  0  0
  9 12  1  0  0  0  0
  9  2  2  0  0  0  0
 10  3  2  0  0  0  0
 12 20  2  0  0  0  0
 13 16  1  0  0  0  0
 14 19  1  0  0  0  0
 15 21  2  0  0  0  0
 16 14  2  0  0  0  0
 18 13  2  0  0  0  0
 18 12  1  0  0  0  0
 19 17  2  0  0  0  0
 20 14  1  0  0  0  0
 20 15  1  0  0  0  0
 21 17  1  0  0  0  0
 22  7  1  0  0  0  0
 23 22  2  0  0  0  0
 24 22  1  0  0  0  0
 25 24  1  0  0  0  0
 26 28  1  0  0  0  0
 26 23  1  0  0  0  0
 27 28  1  0  0  0  0
 29 30  1  0  0  0  0
M  END
>  <MODEL>
2

>  <REMARK>
 VINA RESULT:      -8.1      2.953      6.769
  Name = 
  6 active torsions:
  status: ('A' for Active; 'I' for Inactive)
    1  A    between atoms: C_1  and  C_23
    2  A    between atoms: C_2  and  N_13
    3  A    between atoms: C_2  and  C_19
    4  A    between atoms: O_9  and  C_27
    5  A    between atoms: C_12  and  C_27
    6  A    between atoms: C_14  and  CA_21
                            x       y       z     vdW  Elec       q    Type
                         _______ _______ _______ _____ _____    ______ ____

>  <TORSDO>
F 6

$$$$
=
 OpenBabel11032419153D

 30 33  0  0  1  0  0  0  0  0999 V2000
  185.4660  178.7920  138.9810 C   0  0  0  0  0  2  0  0  0  0  0  0
  186.4190  178.3870  141.2140 N   0  0  0  0  0  0  0  0  0  0  0  0
  186.6140  178.4290  139.8720 C   0  0  0  0  0  0  0  0  0  0  0  0
  188.1480  178.1030  137.8890 C   0  0  0  0  0  2  0  0  0  0  0  0
  188.8890  177.8210  140.2190 N   0  0  0  0  0  0  0  0  0  0  0  0
  187.3700  177.0420  137.2620 N   0  0  0  0  0  2  0  0  0  0  0  0
  188.7120  177.8020  141.5680 C   0  0  0  0  0  0  0  0  0  0  0  0
  186.0840  177.6020  136.8540 C   0  0  2  0  0  3  0  0  0  0  0  0
  187.4180  178.0750  142.0840 C   0  0  0  0  0  0  0  0  0  0  0  0
  187.8840  178.1260  139.3590 C   0  0  0  0  0  0  0  0  0  0  0  0
  185.1110  177.6550  138.0310 C   0  0  0  0  0  2  0  0  0  0  0  0
  187.0800  177.9600  143.5210 C   0  0  0  0  0  0  0  0  0  0  0  0
  187.7020  177.2430  145.7500 C   0  0  0  0  0  3  0  0  0  0  0  0
  185.5540  178.1890  145.4040 C   0  0  0  0  0  0  0  0  0  0  0  0
  184.8410  178.9360  143.2160 C   0  0  0  0  0  3  0  0  0  0  0  0
  186.4920  177.6410  146.2200 N   0  0  0  0  0  0  0  0  0  0  0  0
  183.3920  179.1320  145.1300 C   0  0  0  0  0  3  0  0  0  0  0  0
  188.0140  177.3910  144.3970 C   0  0  0  0  0  3  0  0  0  0  0  0
  184.3540  178.5750  145.9130 N   0  0  0  0  0  0  0  0  0  0  0  0
  185.8260  178.3570  144.0270 C   0  0  0  0  0  0  0  0  0  0  0  0
  183.6190  179.3230  143.7660 C   0  0  0  0  0  3  0  0  0  0  0  0
  189.8970  177.5250  142.4130 C   0  0  0  0  0  0  0  0  0  0  0  0
  190.3860  178.4960  143.2030 C   0  0  0  0  0  3  0  0  0  0  0  0
  190.5280  176.2420  142.2710 N   0  0  0  0  0  2  0  0  0  0  0  0
  190.1320  175.2130  142.8550 O   0  0  0  0  0  1  0  0  0  0  0  0
  191.6100  178.3980  144.0500 C   0  0  0  0  0  2  0  0  0  0  0  0
  191.6460  176.8320  145.6040 C   0  0  0  0  0  1  0  0  0  0  0  0
  191.2510  178.1490  145.3750 O   0  0  0  0  0  0  0  0  0  0  0  0
  185.4970  176.7760  135.7180 C   0  0  0  0  0  2  0  0  0  0  0  0
  185.5030  175.4160  136.0370 O   0  0  0  0  0  1  0  0  0  0  0  0
  1  3  1  0  0  0  0
  2  9  1  0  0  0  0
  3  2  2  0  0  0  0
  4 10  1  0  0  0  0
  5  7  1  0  0  0  0
  6  4  1  0  0  0  0
  7  9  2  0  0  0  0
  7 22  1  0  0  0  0
  8 29  1  6  0  0  0
  8  6  1  0  0  0  0
  8 11  1  0  0  0  0
  9 12  1  0  0  0  0
 10  3  1  0  0  0  0
 10  5  2  0  0  0  0
 11  1  1  0  0  0  0
 12 20  2  0  0  0  0
 12 18  1  0  0  0  0
 13 16  1  0  0  0  0
 14 19  1  0  0  0  0
 14 16  2  0  0  0  0
 15 21  2  0  0  0  0
 15 20  1  0  0  0  0
 17 19  2  0  0  0  0
 18 13  2  0  0  0  0
 20 14  1  0  0  0  0
 21 17  1  0  0  0  0
 22 23  2  0  0  0  0
 23 26  1  0  0  0  0
 24 22  1  0  0  0  0
 24 25  1  0  0  0  0
 26 28  1  0  0  0  0
 28 27  1  0  0  0  0
 29 30  1  0  0  0  0
M  END
>  <MODEL>
3

>  <REMARK>
 VINA RESULT:      -7.9      2.209      2.918
  Name = 
  6 active torsions:
  status: ('A' for Active; 'I' for Inactive)
    1  A    between atoms: C_1  and  C_23
    2  A    between atoms: C_2  and  N_13
    3  A    between atoms: C_2  and  C_19
    4  A    between atoms: O_9  and  C_27
    5  A    between atoms: C_12  and  C_27
    6  A    between atoms: C_14  and  CA_21
                            x       y       z     vdW  Elec       q    Type
                         _______ _______ _______ _____ _____    ______ ____

>  <TORSDO>
F 6

$$$$
=
 OpenBabel11032419153D

 30 33  0  0  1  0  0  0  0  0999 V2000
  187.9980  176.5410  143.2630 C   0  0  0  0  0  2  0  0  0  0  0  0
  188.7590  176.9960  140.9660 N   0  0  0  0  0  0  0  0  0  0  0  0
  189.0880  176.6810  142.2450 C   0  0  0  0  0  0  0  0  0  0  0  0
  190.8690  176.2050  143.9740 C   0  0  0  0  0  2  0  0  0  0  0  0
  191.3800  176.6240  141.6030 N   0  0  0  0  0  0  0  0  0  0  0  0
  190.5530  177.3360  144.8380 N   0  0  0  0  0  2  0  0  0  0  0  0
  191.0580  176.9120  140.3120 C   0  0  0  0  0  0  0  0  0  0  0  0
  189.2140  177.1310  145.3830 C   0  0  2  0  0  3  0  0  0  0  0  0
  189.6940  177.1290  139.9870 C   0  0  0  0  0  0  0  0  0  0  0  0
  190.4390  176.5010  142.5740 C   0  0  0  0  0  0  0  0  0  0  0  0
  188.1430  177.5630  144.3840 C   0  0  0  0  0  2  0  0  0  0  0  0
  189.2430  177.5710  138.6470 C   0  0  2  0  0  3  0  0  0  0  0  0
  188.7940  179.3800  137.1000 C   0  0  0  0  0  3  0  0  0  0  0  0
  188.3100  177.1530  136.4380 C   0  0  0  0  0  0  0  0  0  0  0  0
  188.7240  175.2800  137.9120 C   0  0  0  0  0  3  0  0  0  0  0  0
  188.3410  178.4870  136.1820 N   0  0  0  0  0  0  0  0  0  0  0  0
  187.8080  174.9500  135.7080 C   0  0  0  0  0  3  0  0  0  0  0  0
  189.2470  178.9390  138.3450 C   0  0  0  0  0  3  0  0  0  0  0  0
  187.8500  176.2920  135.4920 N   0  0  0  0  0  0  0  0  0  0  0  0
  188.7580  176.6620  137.6850 C   0  0  0  0  0  0  0  0  0  0  0  0
  188.2450  174.4200  136.9230 C   0  0  0  0  0  2  0  0  0  0  0  0
  192.1600  176.9530  139.3230 C   0  0  0  0  0  0  0  0  0  0  0  0
  192.0310  176.2860  138.1640 C   0  0  0  0  0  3  0  0  0  0  0  0
  193.3670  177.6370  139.7010 N   0  0  0  0  0  2  0  0  0  0  0  0
  194.3720  177.0560  140.1580 O   0  0  0  0  0  1  0  0  0  0  0  0
  193.0750  176.1670  137.1040 C   0  0  0  0  0  2  0  0  0  0  0  0
  193.2340  173.9710  137.2370 C   0  0  0  0  0  1  0  0  0  0  0  0
  193.9640  175.1420  137.4290 O   0  0  0  0  0  0  0  0  0  0  0  0
  189.0620  177.8990  146.6880 C   0  0  0  0  0  2  0  0  0  0  0  0
  187.9180  177.4880  147.3770 O   0  0  0  0  0  1  0  0  0  0  0  0
  1 11  1  0  0  0  0
  2  3  1  0  0  0  0
  3 10  2  0  0  0  0
  3  1  1  0  0  0  0
  4  6  1  0  0  0  0
  5 10  1  0  0  0  0
  6  8  1  0  0  0  0
  7  5  2  0  0  0  0
  8 29  1  1  0  0  0
  9  7  1  0  0  0  0
  9  2  2  0  0  0  0
 10  4  1  0  0  0  0
 11  8  1  0  0  0  0
 12  9  1  1  0  0  0
 13 18  2  0  0  0  0
 14 20  1  0  0  0  0
 16 14  2  0  0  0  0
 16 13  1  0  0  0  0
 17 21  1  0  0  0  0
 18 12  1  0  0  0  0
 19 17  2  0  0  0  0
 19 14  1  0  0  0  0
 20 15  2  0  0  0  0
 20 12  1  0  0  0  0
 21 15  1  0  0  0  0
 22 24  1  0  0  0  0
 22  7  1  0  0  0  0
 23 22  2  0  0  0  0
 24 25  1  0  0  0  0
 26 28  1  0  0  0  0
 26 23  1  0  0  0  0
 27 28  1  0  0  0  0
 29 30  1  0  0  0  0
M  END
>  <MODEL>
4

>  <REMARK>
 VINA RESULT:      -7.9      2.885      7.060
  Name = 
  6 active torsions:
  status: ('A' for Active; 'I' for Inactive)
    1  A    between atoms: C_1  and  C_23
    2  A    between atoms: C_2  and  N_13
    3  A    between atoms: C_2  and  C_19
    4  A    between atoms: O_9  and  C_27
    5  A    between atoms: C_12  and  C_27
    6  A    between atoms: C_14  and  CA_21
                            x       y       z     vdW  Elec       q    Type
                         _______ _______ _______ _____ _____    ______ ____

>  <TORSDO>
F 6

$$$$
=
 OpenBabel11032419153D

 30 33  0  0  1  0  0  0  0  0999 V2000
  190.6860  176.2310  142.5690 C   0  0  0  0  0  2  0  0  0  0  0  0
  188.5880  177.1460  143.4760 N   0  0  0  0  0  0  0  0  0  0  0  0
  189.3390  176.8590  142.3820 C   0  0  0  0  0  0  0  0  0  0  0  0
  189.6320  176.9210  139.8720 C   0  0  0  0  0  2  0  0  0  0  0  0
  187.5970  177.7170  141.0050 N   0  0  0  0  0  0  0  0  0  0  0  0
  190.8180  177.7690  139.8750 N   0  0  0  0  0  2  0  0  0  0  0  0
  186.8240  177.9830  142.0930 C   0  0  0  0  0  0  0  0  0  0  0  0
  191.9020  177.0310  140.5190 C   0  0  2  0  0  3  0  0  0  0  0  0
  187.3510  177.7060  143.3820 C   0  0  0  0  0  0  0  0  0  0  0  0
  188.8320  177.1640  141.1110 C   0  0  0  0  0  0  0  0  0  0  0  0
  191.8000  177.1250  142.0410 C   0  0  0  0  0  2  0  0  0  0  0  0
  186.6540  178.0710  144.6360 C   0  0  0  0  0  0  0  0  0  0  0  0
  184.6900  178.9680  145.7350 C   0  0  0  0  0  3  0  0  0  0  0  0
  186.5690  178.3610  147.0520 C   0  0  0  0  0  0  0  0  0  0  0  0
  188.5760  177.4570  146.0470 C   0  0  0  0  0  3  0  0  0  0  0  0
  185.3050  178.8470  146.9400 N   0  0  0  0  0  0  0  0  0  0  0  0
  188.4110  177.7700  148.4300 C   0  0  0  0  0  3  0  0  0  0  0  0
  185.3540  178.5860  144.5670 C   0  0  0  0  0  3  0  0  0  0  0  0
  187.1500  178.2560  148.2760 N   0  0  0  0  0  0  0  0  0  0  0  0
  187.2790  177.9640  145.8950 C   0  0  0  0  0  0  0  0  0  0  0  0
  189.1460  177.3600  147.3160 C   0  0  0  0  0  3  0  0  0  0  0  0
  185.4650  178.5220  141.8550 C   0  0  0  0  0  0  0  0  0  0  0  0
  184.3950  177.7970  142.2230 C   0  0  0  0  0  3  0  0  0  0  0  0
  185.3590  179.7680  141.1480 N   0  0  0  0  0  2  0  0  0  0  0  0
  184.9680  179.8570  139.9660 O   0  0  0  0  0  1  0  0  0  0  0  0
  182.9680  178.1640  141.9830 C   0  0  0  0  0  2  0  0  0  0  0  0
  181.1630  179.1940  142.7250 C   0  0  0  0  0  1  0  0  0  0  0  0
  182.5080  178.9780  143.0190 O   0  0  0  0  0  0  0  0  0  0  0  0
  193.2460  177.5640  140.0440 C   0  0  0  0  0  2  0  0  0  0  0  0
  193.6720  176.8880  138.8980 O   0  0  0  0  0  1  0  0  0  0  0  0
  3  1  1  0  0  0  0
  3  2  2  0  0  0  0
  4  6  1  0  0  0  0
  4 10  1  0  0  0  0
  5 10  2  0  0  0  0
  5  7  1  0  0  0  0
  6  8  1  0  0  0  0
  7  9  2  0  0  0  0
  8 29  1  6  0  0  0
  8 11  1  0  0  0  0
  9  2  1  0  0  0  0
  9 12  1  0  0  0  0
 10  3  1  0  0  0  0
 11  1  1  0  0  0  0
 12 20  2  0  0  0  0
 13 16  1  0  0  0  0
 14 19  1  0  0  0  0
 15 21  2  0  0  0  0
 16 14  2  0  0  0  0
 18 12  1  0  0  0  0
 18 13  2  0  0  0  0
 19 17  2  0  0  0  0
 20 15  1  0  0  0  0
 20 14  1  0  0  0  0
 21 17  1  0  0  0  0
 22  7  1  0  0  0  0
 22 23  2  0  0  0  0
 24 22  1  0  0  0  0
 25 24  1  0  0  0  0
 26 23  1  0  0  0  0
 26 28  1  0  0  0  0
 27 28  1  0  0  0  0
 30 29  1  0  0  0  0
M  END
>  <MODEL>
5

>  <REMARK>
 VINA RESULT:      -7.8      3.020      5.583
  Name = 
  6 active torsions:
  status: ('A' for Active; 'I' for Inactive)
    1  A    between atoms: C_1  and  C_23
    2  A    between atoms: C_2  and  N_13
    3  A    between atoms: C_2  and  C_19
    4  A    between atoms: O_9  and  C_27
    5  A    between atoms: C_12  and  C_27
    6  A    between atoms: C_14  and  CA_21
                            x       y       z     vdW  Elec       q    Type
                         _______ _______ _______ _____ _____    ______ ____

>  <TORSDO>
F 6

$$$$
=
 OpenBabel11032419153D

 30 33  0  0  1  0  0  0  0  0999 V2000
  190.7070  176.7670  141.9350 C   0  0  0  0  0  2  0  0  0  0  0  0
  190.5490  176.0360  139.5900 N   0  0  0  0  0  0  0  0  0  0  0  0
  190.0730  176.8330  140.5800 C   0  0  0  0  0  0  0  0  0  0  0  0
  188.3940  178.5520  141.3660 C   0  0  0  0  0  2  0  0  0  0  0  0
  188.4760  177.7170  139.0520 N   0  0  0  0  0  0  0  0  0  0  0  0
  187.7880  177.7190  142.3960 N   0  0  0  0  0  2  0  0  0  0  0  0
  188.9640  176.9420  138.0450 C   0  0  0  0  0  0  0  0  0  0  0  0
  188.7970  177.4540  143.4180 C   0  0  2  0  0  3  0  0  0  0  0  0
  190.0290  176.0500  138.3330 C   0  0  0  0  0  0  0  0  0  0  0  0
  188.9970  177.6900  140.3050 C   0  0  0  0  0  0  0  0  0  0  0  0
  189.7160  176.3090  142.9980 C   0  0  0  0  0  2  0  0  0  0  0  0
  190.5530  175.0730  137.3510 C   0  0  2  0  0  3  0  0  0  0  0  0
  190.2630  173.0060  136.1220 C   0  0  0  0  0  3  0  0  0  0  0  0
  192.2890  174.2170  135.8740 C   0  0  0  0  0  0  0  0  0  0  0  0
  192.6720  176.2920  137.0590 C   0  0  0  0  0  3  0  0  0  0  0  0
  191.4970  173.1550  135.5730 N   0  0  0  0  0  0  0  0  0  0  0  0
  194.3370  175.3810  135.5750 C   0  0  0  0  0  3  0  0  0  0  0  0
  189.7740  173.9570  137.0190 C   0  0  0  0  0  3  0  0  0  0  0  0
  193.5170  174.3300  135.3030 N   0  0  0  0  0  0  0  0  0  0  0  0
  191.8350  175.2040  136.7790 C   0  0  0  0  0  0  0  0  0  0  0  0
  193.9280  176.3820  136.4580 C   0  0  0  0  0  2  0  0  0  0  0  0
  188.3630  177.1050  136.7010 C   0  0  0  0  0  0  0  0  0  0  0  0
  187.2080  176.4820  136.4140 C   0  0  0  0  0  3  0  0  0  0  0  0
  189.1070  177.8580  135.7280 N   0  0  0  0  0  2  0  0  0  0  0  0
  189.8170  177.3300  134.8470 O   0  0  0  0  0  1  0  0  0  0  0  0
  186.5190  176.4850  135.0900 C   0  0  0  0  0  2  0  0  0  0  0  0
  184.6360  177.1260  136.0420 C   0  0  0  0  0  1  0  0  0  0  0  0
  185.5540  177.4920  135.0600 O   0  0  0  0  0  0  0  0  0  0  0  0
  188.1200  177.1310  144.7430 C   0  0  0  0  0  2  0  0  0  0  0  0
  188.6840  177.8730  145.7830 O   0  0  0  0  0  1  0  0  0  0  0  0
  1 11  1  0  0  0  0
  2  3  1  0  0  0  0
  3  1  1  0  0  0  0
  4  6  1  0  0  0  0
  5 10  1  0  0  0  0
  6  8  1  0  0  0  0
  7  9  1  0  0  0  0
  7  5  2  0  0  0  0
  8 29  1  1  0  0  0
  9  2  2  0  0  0  0
 10  3  2  0  0  0  0
 10  4  1  0  0  0  0
 11  8  1  0  0  0  0
 12  9  1  1  0  0  0
 13 18  2  0  0  0  0
 14 20  1  0  0  0  0
 16 14  2  0  0  0  0
 16 13  1  0  0  0  0
 17 21  1  0  0  0  0
 18 12  1  0  0  0  0
 19 17  2  0  0  0  0
 19 14  1  0  0  0  0
 20 15  2  0  0  0  0
 20 12  1  0  0  0  0
 21 15  1  0  0  0  0
 22  7  1  0  0  0  0
 23 22  2  0  0  0  0
 24 22  1  0  0  0  0
 25 24  1  0  0  0  0
 26 23  1  0  0  0  0
 28 26  1  0  0  0  0
 28 27  1  0  0  0  0
 29 30  1  0  0  0  0
M  END
>  <MODEL>
6

>  <REMARK>
 VINA RESULT:      -7.7      2.844      8.926
  Name = 
  6 active torsions:
  status: ('A' for Active; 'I' for Inactive)
    1  A    between atoms: C_1  and  C_23
    2  A    between atoms: C_2  and  N_13
    3  A    between atoms: C_2  and  C_19
    4  A    between atoms: O_9  and  C_27
    5  A    between atoms: C_12  and  C_27
    6  A    between atoms: C_14  and  CA_21
                            x       y       z     vdW  Elec       q    Type
                         _______ _______ _______ _____ _____    ______ ____

>  <TORSDO>
F 6

$$$$
=
 OpenBabel11032419153D

 30 33  0  0  1  0  0  0  0  0999 V2000
  186.5890  178.2030  142.3420 C   0  0  0  0  0  2  0  0  0  0  0  0
  184.3980  177.9750  141.2410 N   0  0  0  0  0  0  0  0  0  0  0  0
  185.1000  178.3680  142.3350 C   0  0  0  0  0  0  0  0  0  0  0  0
  185.1180  179.3130  144.6790 C   0  0  0  0  0  2  0  0  0  0  0  0
  183.0600  179.0510  143.3540 N   0  0  0  0  0  0  0  0  0  0  0  0
  185.7010  178.1390  145.3160 N   0  0  0  0  0  2  0  0  0  0  0  0
  182.3500  178.6860  142.2520 C   0  0  0  0  0  0  0  0  0  0  0  0
  187.0560  177.9690  144.8010 C   0  0  2  0  0  3  0  0  0  0  0  0
  183.0460  178.1040  141.1600 C   0  0  0  0  0  0  0  0  0  0  0  0
  184.4080  178.9110  143.4270 C   0  0  0  0  0  0  0  0  0  0  0  0
  187.0440  177.2590  143.4480 C   0  0  0  0  0  2  0  0  0  0  0  0
  182.3640  177.5560  139.9660 C   0  0  2  0  0  3  0  0  0  0  0  0
  181.5510  175.6310  138.7400 C   0  0  0  0  0  3  0  0  0  0  0  0
  181.3430  177.7860  137.7680 C   0  0  0  0  0  0  0  0  0  0  0  0
  182.1240  179.7680  138.9140 C   0  0  0  0  0  3  0  0  0  0  0  0
  181.1570  176.4410  137.7230 N   0  0  0  0  0  0  0  0  0  0  0  0
  181.0980  179.9120  136.7390 C   0  0  0  0  0  3  0  0  0  0  0  0
  182.1620  176.1730  139.8730 C   0  0  0  0  0  3  0  0  0  0  0  0
  180.9350  178.5620  136.7290 N   0  0  0  0  0  0  0  0  0  0  0  0
  181.9590  178.3770  138.8950 C   0  0  0  0  0  0  0  0  0  0  0  0
  181.6960  180.5400  137.8330 C   0  0  0  0  0  2  0  0  0  0  0  0
  180.8920  178.9490  142.2560 C   0  0  0  0  0  0  0  0  0  0  0  0
  180.4250  180.0860  141.7130 C   0  0  0  0  0  3  0  0  0  0  0  0
  180.0480  178.0040  142.9340 N   0  0  0  0  0  2  0  0  0  0  0  0
  179.5050  177.0360  142.3640 O   0  0  0  0  0  1  0  0  0  0  0  0
  179.0010  180.5310  141.7070 C   0  0  0  0  0  2  0  0  0  0  0  0
  179.0430  181.9470  140.0160 C   0  0  0  0  0  1  0  0  0  0  0  0
  178.9310  181.8910  141.4040 O   0  0  0  0  0  0  0  0  0  0  0  0
  187.8970  177.1870  145.8000 C   0  0  0  0  0  2  0  0  0  0  0  0
  189.0160  177.9250  146.1940 O   0  0  0  0  0  1  0  0  0  0  0  0
  1 11  1  0  0  0  0
  2  3  1  0  0  0  0
  3  1  1  0  0  0  0
  3 10  2  0  0  0  0
  4  6  1  0  0  0  0
  5 10  1  0  0  0  0
  7 22  1  0  0  0  0
  7  5  2  0  0  0  0
  8  6  1  0  0  0  0
  8 29  1  1  0  0  0
  9  2  2  0  0  0  0
  9  7  1  0  0  0  0
 10  4  1  0  0  0  0
 11  8  1  0  0  0  0
 12  9  1  6  0  0  0
 13 18  2  0  0  0  0
 14 20  1  0  0  0  0
 16 14  2  0  0  0  0
 16 13  1  0  0  0  0
 17 21  1  0  0  0  0
 18 12  1  0  0  0  0
 19 17  2  0  0  0  0
 19 14  1  0  0  0  0
 20 15  2  0  0  0  0
 20 12  1  0  0  0  0
 21 15  1  0  0  0  0
 22 24  1  0  0  0  0
 23 22  2  0  0  0  0
 25 24  1  0  0  0  0
 26 23  1  0  0  0  0
 27 28  1  0  0  0  0
 28 26  1  0  0  0  0
 29 30  1  0  0  0  0
M  END
>  <MODEL>
7

>  <REMARK>
 VINA RESULT:      -7.6      5.096      9.099
  Name = 
  6 active torsions:
  status: ('A' for Active; 'I' for Inactive)
    1  A    between atoms: C_1  and  C_23
    2  A    between atoms: C_2  and  N_13
    3  A    between atoms: C_2  and  C_19
    4  A    between atoms: O_9  and  C_27
    5  A    between atoms: C_12  and  C_27
    6  A    between atoms: C_14  and  CA_21
                            x       y       z     vdW  Elec       q    Type
                         _______ _______ _______ _____ _____    ______ ____

>  <TORSDO>
F 6

$$$$
=
 OpenBabel11032419153D

 30 33  0  0  1  0  0  0  0  0999 V2000
  187.1690  179.0310  141.3550 C   0  0  0  0  0  2  0  0  0  0  0  0
  184.9190  179.0990  140.3580 N   0  0  0  0  0  0  0  0  0  0  0  0
  185.6810  178.8950  141.4620 C   0  0  0  0  0  0  0  0  0  0  0  0
  185.8390  178.2700  143.9070 C   0  0  0  0  0  2  0  0  0  0  0  0
  183.6980  178.4670  142.7080 N   0  0  0  0  0  0  0  0  0  0  0  0
  186.6510  177.0760  143.7100 N   0  0  0  0  0  2  0  0  0  0  0  0
  182.9230  178.6960  141.6130 C   0  0  0  0  0  0  0  0  0  0  0  0
  187.9480  177.4900  143.1820 C   0  0  2  0  0  3  0  0  0  0  0  0
  183.5620  179.0020  140.3840 C   0  0  0  0  0  0  0  0  0  0  0  0
  185.0520  178.5580  142.6700 C   0  0  0  0  0  0  0  0  0  0  0  0
  187.8770  177.7200  141.6730 C   0  0  0  0  0  2  0  0  0  0  0  0
  182.8290  179.1460  139.1050 C   0  0  2  0  0  3  0  0  0  0  0  0
  181.5430  180.5350  137.5940 C   0  0  0  0  0  3  0  0  0  0  0  0
  181.8960  178.2540  137.0410 C   0  0  0  0  0  0  0  0  0  0  0  0
  183.1680  176.7880  138.4850 C   0  0  0  0  0  3  0  0  0  0  0  0
  181.3750  179.4770  136.7580 N   0  0  0  0  0  0  0  0  0  0  0  0
  182.2170  175.9840  136.4230 C   0  0  0  0  0  3  0  0  0  0  0  0
  182.2660  180.3860  138.7790 C   0  0  0  0  0  3  0  0  0  0  0  0
  181.7070  177.2210  136.1780 N   0  0  0  0  0  0  0  0  0  0  0  0
  182.6350  178.0580  138.2300 C   0  0  0  0  0  0  0  0  0  0  0  0
  182.9570  175.7450  137.5820 C   0  0  0  0  0  2  0  0  0  0  0  0
  181.4530  178.6370  141.7880 C   0  0  0  0  0  0  0  0  0  0  0  0
  180.7670  177.6080  141.2630 C   0  0  0  0  0  3  0  0  0  0  0  0
  180.8170  179.7490  142.4400 N   0  0  0  0  0  2  0  0  0  0  0  0
  180.1620  180.6190  141.8310 O   0  0  0  0  0  1  0  0  0  0  0  0
  179.2830  177.4450  141.2870 C   0  0  0  0  0  2  0  0  0  0  0  0
  179.8110  175.5760  140.2400 C   0  0  0  0  0  1  0  0  0  0  0  0
  178.9550  176.0910  141.2110 O   0  0  0  0  0  0  0  0  0  0  0  0
  188.9990  176.4390  143.5080 C   0  0  0  0  0  2  0  0  0  0  0  0
  189.8300  176.2090  142.4080 O   0  0  0  0  0  1  0  0  0  0  0  0
  1  3  1  0  0  0  0
  1 11  1  0  0  0  0
  2  9  2  0  0  0  0
  2  3  1  0  0  0  0
  3 10  2  0  0  0  0
  6  4  1  0  0  0  0
  7 22  1  0  0  0  0
  7  5  2  0  0  0  0
  8 29  1  6  0  0  0
  8  6  1  0  0  0  0
  9  7  1  0  0  0  0
 10  5  1  0  0  0  0
 10  4  1  0  0  0  0
 11  8  1  0  0  0  0
 12  9  1  1  0  0  0
 13 18  2  0  0  0  0
 14 20  1  0  0  0  0
 16 14  2  0  0  0  0
 16 13  1  0  0  0  0
 17 21  1  0  0  0  0
 18 12  1  0  0  0  0
 19 17  2  0  0  0  0
 19 14  1  0  0  0  0
 20 15  2  0  0  0  0
 20 12  1  0  0  0  0
 21 15  1  0  0  0  0
 22 24  1  0  0  0  0
 23 26  1  0  0  0  0
 23 22  2  0  0  0  0
 25 24  1  0  0  0  0
 27 28  1  0  0  0  0
 28 26  1  0  0  0  0
 30 29  1  0  0  0  0
M  END
>  <MODEL>
8

>  <REMARK>
 VINA RESULT:      -7.5      5.052      8.424
  Name = 
  6 active torsions:
  status: ('A' for Active; 'I' for Inactive)
    1  A    between atoms: C_1  and  C_23
    2  A    between atoms: C_2  and  N_13
    3  A    between atoms: C_2  and  C_19
    4  A    between atoms: O_9  and  C_27
    5  A    between atoms: C_12  and  C_27
    6  A    between atoms: C_14  and  CA_21
                            x       y       z     vdW  Elec       q    Type
                         _______ _______ _______ _____ _____    ______ ____

>  <TORSDO>
F 6

$$$$
=
 OpenBabel11032419153D

 30 33  0  0  1  0  0  0  0  0999 V2000
  182.7780  177.4270  137.6930 C   0  0  0  0  0  2  0  0  0  0  0  0
  185.1310  176.9060  137.1910 N   0  0  0  0  0  0  0  0  0  0  0  0
  184.2440  177.6060  137.9420 C   0  0  0  0  0  0  0  0  0  0  0  0
  183.8050  179.3190  139.7490 C   0  0  0  0  0  2  0  0  0  0  0  0
  186.0690  178.5870  139.1160 N   0  0  0  0  0  0  0  0  0  0  0  0
  183.1070  180.2710  138.8960 N   0  0  0  0  0  2  0  0  0  0  0  0
  186.9660  177.8690  138.3860 C   0  0  0  0  0  0  0  0  0  0  0  0
  181.8670  179.6480  138.4400 C   0  0  2  0  0  3  0  0  0  0  0  0
  186.4770  177.0100  137.3680 C   0  0  0  0  0  0  0  0  0  0  0  0
  184.7290  178.4810  138.9260 C   0  0  0  0  0  0  0  0  0  0  0  0
  182.1210  178.7270  137.2480 C   0  0  0  0  0  2  0  0  0  0  0  0
  187.3610  176.2800  136.4320 C   0  0  0  0  0  0  0  0  0  0  0  0
  188.9810  176.3400  134.6320 C   0  0  0  0  0  3  0  0  0  0  0  0
  188.2250  174.2370  135.4280 C   0  0  0  0  0  0  0  0  0  0  0  0
  186.6090  174.0730  137.2220 C   0  0  0  0  0  3  0  0  0  0  0  0
  188.9950  174.9830  134.5940 N   0  0  0  0  0  0  0  0  0  0  0  0
  187.5150  172.0990  136.1810 C   0  0  0  0  0  3  0  0  0  0  0  0
  188.1650  177.0090  135.5460 C   0  0  0  0  0  3  0  0  0  0  0  0
  188.2670  172.8800  135.3590 N   0  0  0  0  0  0  0  0  0  0  0  0
  187.3820  174.8720  136.3680 C   0  0  0  0  0  0  0  0  0  0  0  0
  186.6730  172.6830  137.1280 C   0  0  0  0  0  3  0  0  0  0  0  0
  188.4000  178.0130  138.7270 C   0  0  0  0  0  0  0  0  0  0  0  0
  188.9820  177.1030  139.5270 C   0  0  0  0  0  3  0  0  0  0  0  0
  189.0810  179.1860  138.2540 N   0  0  0  0  0  2  0  0  0  0  0  0
  188.7310  179.8220  137.2380 O   0  0  0  0  0  1  0  0  0  0  0  0
  190.3900  177.1500  140.0220 C   0  0  0  0  0  2  0  0  0  0  0  0
  191.0730  177.0880  142.1190 C   0  0  0  0  0  1  0  0  0  0  0  0
  190.5370  176.2890  141.1110 O   0  0  0  0  0  0  0  0  0  0  0  0
  180.8520  180.7210  138.0730 C   0  0  0  0  0  2  0  0  0  0  0  0
  181.4050  181.9970  138.2120 O   0  0  0  0  0  1  0  0  0  0  0  0
  1  3  1  0  0  0  0
  2  9  2  0  0  0  0
  2  3  1  0  0  0  0
  3 10  2  0  0  0  0
  6  4  1  0  0  0  0
  7 22  1  0  0  0  0
  7  5  2  0  0  0  0
  8 29  1  6  0  0  0
  8  6  1  0  0  0  0
  9  7  1  0  0  0  0
 10  5  1  0  0  0  0
 10  4  1  0  0  0  0
 11  1  1  0  0  0  0
 11  8  1  0  0  0  0
 12  9  1  0  0  0  0
 13 18  2  0  0  0  0
 14 20  1  0  0  0  0
 16 13  1  0  0  0  0
 16 14  2  0  0  0  0
 17 21  1  0  0  0  0
 18 12  1  0  0  0  0
 19 14  1  0  0  0  0
 19 17  2  0  0  0  0
 20 12  2  0  0  0  0
 20 15  1  0  0  0  0
 21 15  2  0  0  0  0
 22 23  2  0  0  0  0
 23 26  1  0  0  0  0
 24 22  1  0  0  0  0
 25 24  1  0  0  0  0
 26 28  1  0  0  0  0
 28 27  1  0  0  0  0
 29 30  1  0  0  0  0
M  END
>  <MODEL>
9

>  <REMARK>
 VINA RESULT:      -7.5      4.291      8.062
  Name = 
  6 active torsions:
  status: ('A' for Active; 'I' for Inactive)
    1  A    between atoms: C_1  and  C_23
    2  A    between atoms: C_2  and  N_13
    3  A    between atoms: C_2  and  C_19
    4  A    between atoms: O_9  and  C_27
    5  A    between atoms: C_12  and  C_27
    6  A    between atoms: C_14  and  CA_21
                            x       y       z     vdW  Elec       q    Type
                         _______ _______ _______ _____ _____    ______ ____

>  <TORSDO>
F 6

$$$$
