=
 OpenBabel11042410313D

 35 38  0  0  1  0  0  0  0  0999 V2000
  190.3230  177.6590  141.0320 O   0  0  0  0  0  0  0  0  0  0  0  0
  190.5370  175.9480  142.7250 C   0  0  1  0  0  3  0  0  0  0  0  0
  190.5750  178.5640  144.0460 S   0  0  0  0  0  0  0  0  0  0  0  0
  191.6810  176.2140  144.9060 N   0  0  0  0  0  2  0  0  0  0  0  0
  189.6590  176.5840  141.6530 C   0  0  1  0  0  3  0  0  0  0  0  0
  190.4900  178.1790  145.8330 C   0  0  2  0  0  3  0  0  0  0  0  0
  191.5910  176.5370  147.2150 O   0  0  0  0  0  0  0  0  0  0  0  0
  191.9160  176.5050  142.4290 C   0  0  1  0  0  3  0  0  0  0  0  0
  191.2870  176.9340  146.0590 C   0  0  0  0  0  0  0  0  0  0  0  0
  191.6950  177.5200  141.3200 C   0  0  1  0  0  3  0  0  0  0  0  0
  191.2130  176.8820  143.7160 C   0  0  1  0  0  0  0  0  0  0  0  0
  187.2420  177.1290  147.3740 N   0  0  0  0  0  0  0  0  0  0  0  0
  189.0620  177.9850  146.2350 C   0  0  0  0  0  0  0  0  0  0  0  0
  186.6360  177.8730  146.4250 C   0  0  0  0  0  0  0  0  0  0  0  0
  187.7450  178.6280  145.4120 S   0  0  0  0  0  0  0  0  0  0  0  0
  185.1600  177.9950  146.2990 C   0  0  0  0  0  1  0  0  0  0  0  0
  188.5980  177.1790  147.2730 C   0  0  0  0  0  3  0  0  0  0  0  0
  187.8410  178.2280  140.2550 O   0  0  0  0  0  0  0  0  0  0  0  0
  188.3320  176.9660  142.1610 N   0  0  0  0  0  0  0  0  0  0  0  0
  187.5470  177.9480  141.4480 C   0  0  0  0  0  0  0  0  0  0  0  0
  187.8440  176.3780  143.4040 C   0  0  0  0  0  1  0  0  0  0  0  0
  186.3940  178.6530  142.0570 C   0  0  0  0  0  0  0  0  0  0  0  0
  186.4750  179.8930  142.2670 O   0  0  0  0  0  0  0  0  0  0  0  0
  185.1570  177.9350  142.5060 C   0  0  0  0  0  2  0  0  0  0  0  0
  183.2460  177.8780  140.9650 N   0  0  0  0  0  1  0  0  0  0  0  0
  183.8660  178.6180  142.0520 C   0  0  1  0  0  3  0  0  0  0  0  0
  183.3710  179.7530  144.0950 O   0  0  0  0  0  1  0  0  0  0  0  0
  182.8890  178.7930  143.2040 C   0  0  0  0  0  2  0  0  0  0  0  0
  192.4470  177.1280  140.0920 C   0  0  0  0  0  0  0  0  0  0  0  0
  191.7440  176.6100  138.9550 N   0  0  0  0  0  2  0  0  0  0  0  0
  193.7010  177.2400  140.0740 O   0  0  0  0  0  0  0  0  0  0  0  0
  192.7630  174.7350  137.8120 C   0  0  0  0  0  1  0  0  0  0  0  0
  193.5370  176.9530  137.4950 O   0  0  0  0  0  1  0  0  0  0  0  0
  192.3840  176.1970  137.7110 C   0  0  0  0  0  0  0  0  0  0  0  0
  191.4310  176.3780  136.5440 C   0  0  0  0  0  1  0  0  0  0  0  0
  1 10  1  0  0  0  0
  1  5  1  0  0  0  0
  2 11  1  0  0  0  0
  3  6  1  0  0  0  0
  4  9  1  0  0  0  0
  5 19  1  0  0  0  0
  5  2  1  0  0  0  0
  6  9  1  0  0  0  0
  6 13  1  0  0  0  0
  8  2  1  0  0  0  0
  8 11  1  0  0  0  0
  9  7  2  0  0  0  0
 10  8  1  0  0  0  0
 11  3  1  0  0  0  0
 11  4  1  0  0  0  0
 13 17  2  0  0  0  0
 14 12  2  0  0  0  0
 15 13  1  0  0  0  0
 15 14  1  0  0  0  0
 16 14  1  0  0  0  0
 17 12  1  0  0  0  0
 18 20  2  0  0  0  0
 19 21  1  0  0  0  0
 20 22  1  0  0  0  0
 20 19  1  0  0  0  0
 22 23  2  0  0  0  0
 22 24  1  0  0  0  0
 25 26  1  0  0  0  0
 26 24  1  0  0  0  0
 26 28  1  0  0  0  0
 28 27  1  0  0  0  0
 29 10  1  0  0  0  0
 30 29  1  0  0  0  0
 31 29  2  0  0  0  0
 33 34  1  0  0  0  0
 34 32  1  0  0  0  0
 34 30  1  0  0  0  0
 35 34  1  0  0  0  0
M  END
>  <MODEL>
1

>  <REMARK>
 VINA RESULT:      -6.8      0.000      0.000
  Name = 
  8 active torsions:
  status: ('A' for Active; 'I' for Inactive)
    1  A    between atoms: N_4  and  C_11
    2  A    between atoms: C_10  and  CA_30
    3  A    between atoms: C_12  and  C_19
    4  A    between atoms: C_12  and  C_29
    5  A    between atoms: C_14  and  C_15
    6  A    between atoms: C_20  and  C_22
    7  A    between atoms: N_23  and  C_26
    8  A    between atoms: C_29  and  CA_30
                            x       y       z     vdW  Elec       q    Type
                         _______ _______ _______ _____ _____    ______ ____

>  <TORSDO>
F 8

$$$$
=
 OpenBabel11042410313D

 35 38  0  0  1  0  0  0  0  0999 V2000
  184.6620  178.3050  141.4980 O   0  0  0  0  0  0  0  0  0  0  0  0
  185.5930  179.6260  143.2940 C   0  0  1  0  0  3  0  0  0  0  0  0
  186.4120  176.8380  143.6770 S   0  0  0  0  0  0  0  0  0  0  0  0
  186.1260  178.7960  145.5660 N   0  0  0  0  0  2  0  0  0  0  0  0
  185.5710  179.3370  141.7970 C   0  0  1  0  0  3  0  0  0  0  0  0
  187.6310  176.8990  145.0410 C   0  0  2  0  0  3  0  0  0  0  0  0
  187.6850  178.0760  147.1450 O   0  0  0  0  0  0  0  0  0  0  0  0
  184.3480  178.9300  143.8070 C   0  0  1  0  0  3  0  0  0  0  0  0
  187.1700  177.9460  146.0030 C   0  0  0  0  0  0  0  0  0  0  0  0
  183.7990  178.1790  142.6050 C   0  0  1  0  0  3  0  0  0  0  0  0
  185.7150  178.4360  144.2310 C   0  0  1  0  0  0  0  0  0  0  0  0
  190.9470  178.4030  144.1640 N   0  0  0  0  0  0  0  0  0  0  0  0
  188.9820  177.2310  144.4890 C   0  0  0  0  0  0  0  0  0  0  0  0
  191.0390  177.4570  143.2050 C   0  0  0  0  0  0  0  0  0  0  0  0
  189.7040  176.4360  143.1960 S   0  0  0  0  0  0  0  0  0  0  0  0
  192.1890  177.3490  142.2690 C   0  0  0  0  0  1  0  0  0  0  0  0
  189.7980  178.2890  144.8830 C   0  0  0  0  0  3  0  0  0  0  0  0
  186.0740  178.6040  139.1190 O   0  0  0  0  0  0  0  0  0  0  0  0
  186.9120  179.0740  141.2510 N   0  0  0  0  0  0  0  0  0  0  0  0
  187.0500  178.5390  139.9150 C   0  0  0  0  0  0  0  0  0  0  0  0
  188.0850  179.3170  142.0830 C   0  0  0  0  0  1  0  0  0  0  0  0
  188.2990  177.9120  139.4240 C   0  0  0  0  0  0  0  0  0  0  0  0
  188.6320  176.7800  139.8670 O   0  0  0  0  0  0  0  0  0  0  0  0
  189.2290  178.6050  138.4740 C   0  0  0  0  0  2  0  0  0  0  0  0
  190.3780  176.8310  137.2220 N   0  0  0  0  0  1  0  0  0  0  0  0
  189.3730  177.8780  137.1350 C   0  0  1  0  0  3  0  0  0  0  0  0
  187.3170  178.2900  135.9910 O   0  0  0  0  0  1  0  0  0  0  0  0
  188.0460  177.3070  136.6610 C   0  0  0  0  0  2  0  0  0  0  0  0
  182.4330  178.6710  142.2590 C   0  0  0  0  0  0  0  0  0  0  0  0
  181.4290  178.7750  143.2760 N   0  0  0  0  0  2  0  0  0  0  0  0
  182.1710  178.9750  141.0650 O   0  0  0  0  0  0  0  0  0  0  0  0
  179.4310  178.3900  141.9630 C   0  0  0  0  0  1  0  0  0  0  0  0
  180.0850  180.5720  142.6200 O   0  0  0  0  0  1  0  0  0  0  0  0
  180.0660  179.2410  143.0410 C   0  0  0  0  0  0  0  0  0  0  0  0
  179.2430  179.1200  144.3100 C   0  0  0  0  0  1  0  0  0  0  0  0
  1  5  1  0  0  0  0
  1 10  1  0  0  0  0
  2  8  1  0  0  0  0
  2 11  1  0  0  0  0
  3 11  1  0  0  0  0
  3  6  1  0  0  0  0
  4  9  1  0  0  0  0
  5  2  1  0  0  0  0
  6  9  1  0  0  0  0
  8 11  1  0  0  0  0
  9  7  2  0  0  0  0
 10  8  1  0  0  0  0
 11  4  1  0  0  0  0
 12 17  1  0  0  0  0
 13 17  2  0  0  0  0
 13  6  1  0  0  0  0
 14 12  2  0  0  0  0
 15 14  1  0  0  0  0
 15 13  1  0  0  0  0
 16 14  1  0  0  0  0
 18 20  2  0  0  0  0
 19  5  1  0  0  0  0
 19 21  1  0  0  0  0
 20 19  1  0  0  0  0
 22 23  2  0  0  0  0
 22 20  1  0  0  0  0
 24 22  1  0  0  0  0
 26 25  1  0  0  0  0
 26 24  1  0  0  0  0
 27 28  1  0  0  0  0
 28 26  1  0  0  0  0
 29 10  1  0  0  0  0
 29 30  1  0  0  0  0
 31 29  2  0  0  0  0
 32 34  1  0  0  0  0
 33 34  1  0  0  0  0
 34 30  1  0  0  0  0
 34 35  1  0  0  0  0
M  END
>  <MODEL>
2

>  <REMARK>
 VINA RESULT:      -6.6      2.572      7.716
  Name = 
  8 active torsions:
  status: ('A' for Active; 'I' for Inactive)
    1  A    between atoms: N_4  and  C_11
    2  A    between atoms: C_10  and  CA_30
    3  A    between atoms: C_12  and  C_19
    4  A    between atoms: C_12  and  C_29
    5  A    between atoms: C_14  and  C_15
    6  A    between atoms: C_20  and  C_22
    7  A    between atoms: N_23  and  C_26
    8  A    between atoms: C_29  and  CA_30
                            x       y       z     vdW  Elec       q    Type
                         _______ _______ _______ _____ _____    ______ ____

>  <TORSDO>
F 8

$$$$
=
 OpenBabel11042410313D

 35 38  0  0  1  0  0  0  0  0999 V2000
  184.7720  177.6550  142.1810 O   0  0  0  0  0  0  0  0  0  0  0  0
  185.5840  179.5820  143.3920 C   0  0  1  0  0  3  0  0  0  0  0  0
  185.5000  177.3030  145.2320 S   0  0  0  0  0  0  0  0  0  0  0  0
  185.3280  179.9680  145.8240 N   0  0  0  0  0  2  0  0  0  0  0  0
  185.8320  178.5760  142.2730 C   0  0  1  0  0  3  0  0  0  0  0  0
  186.3380  177.9010  146.7450 C   0  0  2  0  0  3  0  0  0  0  0  0
  186.2190  179.9690  147.9810 O   0  0  0  0  0  0  0  0  0  0  0  0
  184.1120  179.4020  143.7090 C   0  0  1  0  0  3  0  0  0  0  0  0
  185.9690  179.3390  146.9190 C   0  0  0  0  0  0  0  0  0  0  0  0
  183.6750  178.2160  142.8640 C   0  0  1  0  0  3  0  0  0  0  0  0
  185.1560  179.0310  144.7420 C   0  0  1  0  0  0  0  0  0  0  0  0
  189.9080  177.8540  145.6160 N   0  0  0  0  0  0  0  0  0  0  0  0
  187.8180  177.7380  146.5940 C   0  0  0  0  0  0  0  0  0  0  0  0
  190.1680  177.1140  146.7150 C   0  0  0  0  0  0  0  0  0  0  0  0
  188.7900  176.8520  147.6390 S   0  0  0  0  0  0  0  0  0  0  0  0
  191.5200  176.5930  147.0490 C   0  0  0  0  0  1  0  0  0  0  0  0
  188.5960  178.2030  145.5360 C   0  0  0  0  0  3  0  0  0  0  0  0
  188.2310  179.5990  141.1950 O   0  0  0  0  0  0  0  0  0  0  0  0
  187.1390  177.9110  142.3900 N   0  0  0  0  0  0  0  0  0  0  0  0
  188.2750  178.4280  141.6580 C   0  0  0  0  0  0  0  0  0  0  0  0
  187.2630  176.7110  143.2100 C   0  0  0  0  0  1  0  0  0  0  0  0
  189.5070  177.6390  141.4230 C   0  0  0  0  0  0  0  0  0  0  0  0
  190.4630  177.7380  142.2370 O   0  0  0  0  0  0  0  0  0  0  0  0
  189.6960  176.7830  140.2070 C   0  0  0  0  0  2  0  0  0  0  0  0
  191.1230  176.7990  138.2080 N   0  0  0  0  0  1  0  0  0  0  0  0
  190.1640  177.5710  138.9820 C   0  0  1  0  0  3  0  0  0  0  0  0
  188.9910  179.3870  137.9650 O   0  0  0  0  0  1  0  0  0  0  0  0
  188.9940  177.9990  138.1100 C   0  0  0  0  0  2  0  0  0  0  0  0
  182.6130  178.6250  141.8970 C   0  0  0  0  0  0  0  0  0  0  0  0
  181.3710  179.1540  142.3770 N   0  0  0  0  0  2  0  0  0  0  0  0
  182.8170  178.4850  140.6620 O   0  0  0  0  0  0  0  0  0  0  0  0
  179.4380  178.3720  141.1460 C   0  0  0  0  0  1  0  0  0  0  0  0
  180.7770  180.1600  140.3520 O   0  0  0  0  0  1  0  0  0  0  0  0
  180.2720  179.5800  141.5170 C   0  0  0  0  0  0  0  0  0  0  0  0
  179.3920  180.5790  142.2440 C   0  0  0  0  0  1  0  0  0  0  0  0
  1  5  1  0  0  0  0
  1 10  1  0  0  0  0
  2  8  1  0  0  0  0
  2 11  1  0  0  0  0
  3  6  1  0  0  0  0
  4  9  1  0  0  0  0
  5 19  1  0  0  0  0
  5  2  1  0  0  0  0
  6  9  1  0  0  0  0
  8 11  1  0  0  0  0
  9  7  2  0  0  0  0
 10  8  1  0  0  0  0
 11  3  1  0  0  0  0
 11  4  1  0  0  0  0
 12 14  2  0  0  0  0
 13  6  1  0  0  0  0
 13 15  1  0  0  0  0
 14 16  1  0  0  0  0
 14 15  1  0  0  0  0
 17 12  1  0  0  0  0
 17 13  2  0  0  0  0
 18 20  2  0  0  0  0
 19 21  1  0  0  0  0
 20 19  1  0  0  0  0
 22 20  1  0  0  0  0
 22 23  2  0  0  0  0
 24 22  1  0  0  0  0
 25 26  1  0  0  0  0
 26 24  1  0  0  0  0
 27 28  1  0  0  0  0
 28 26  1  0  0  0  0
 29 30  1  0  0  0  0
 29 10  1  0  0  0  0
 31 29  2  0  0  0  0
 32 34  1  0  0  0  0
 33 34  1  0  0  0  0
 34 35  1  0  0  0  0
 34 30  1  0  0  0  0
M  END
>  <MODEL>
3

>  <REMARK>
 VINA RESULT:      -6.6      2.519      7.462
  Name = 
  8 active torsions:
  status: ('A' for Active; 'I' for Inactive)
    1  A    between atoms: N_4  and  C_11
    2  A    between atoms: C_10  and  CA_30
    3  A    between atoms: C_12  and  C_19
    4  A    between atoms: C_12  and  C_29
    5  A    between atoms: C_14  and  C_15
    6  A    between atoms: C_20  and  C_22
    7  A    between atoms: N_23  and  C_26
    8  A    between atoms: C_29  and  CA_30
                            x       y       z     vdW  Elec       q    Type
                         _______ _______ _______ _____ _____    ______ ____

>  <TORSDO>
F 8

$$$$
=
 OpenBabel11042410313D

 35 38  0  0  1  0  0  0  0  0999 V2000
  191.8800  175.0160  135.9590 O   0  0  0  0  0  0  0  0  0  0  0  0
  190.6340  175.2190  138.0200 C   0  0  1  0  0  3  0  0  0  0  0  0
  190.0140  177.5340  136.3330 S   0  0  0  0  0  0  0  0  0  0  0  0
  189.9070  177.3460  139.0600 N   0  0  0  0  0  2  0  0  0  0  0  0
  190.8570  174.4330  136.7330 C   0  0  1  0  0  3  0  0  0  0  0  0
  188.6410  178.3800  137.1980 C   0  0  2  0  0  3  0  0  0  0  0  0
  188.2390  178.9120  139.5160 O   0  0  0  0  0  0  0  0  0  0  0  0
  191.8640  176.1000  138.1150 C   0  0  1  0  0  3  0  0  0  0  0  0
  188.8940  178.2530  138.6660 C   0  0  0  0  0  0  0  0  0  0  0  0
  192.6130  175.8640  136.8130 C   0  0  1  0  0  3  0  0  0  0  0  0
  190.5020  176.7290  137.9000 C   0  0  1  0  0  0  0  0  0  0  0  0
  185.4720  176.3940  136.9920 N   0  0  0  0  0  0  0  0  0  0  0  0
  187.3420  177.7410  136.8180 C   0  0  0  0  0  0  0  0  0  0  0  0
  185.3670  176.8340  135.7200 C   0  0  0  0  0  0  0  0  0  0  0  0
  186.6340  177.8540  135.2990 S   0  0  0  0  0  0  0  0  0  0  0  0
  184.2590  176.4440  134.8090 C   0  0  0  0  0  1  0  0  0  0  0  0
  186.5760  176.8910  137.6130 C   0  0  0  0  0  3  0  0  0  0  0  0
  188.7120  172.8030  137.5700 O   0  0  0  0  0  0  0  0  0  0  0  0
  189.6180  174.2410  135.9640 N   0  0  0  0  0  0  0  0  0  0  0  0
  188.6530  173.2540  136.3940 C   0  0  0  0  0  0  0  0  0  0  0  0
  189.3990  175.0200  134.7510 C   0  0  0  0  0  1  0  0  0  0  0  0
  187.5790  172.7390  135.5120 C   0  0  0  0  0  0  0  0  0  0  0  0
  187.8760  171.9280  134.5950 O   0  0  0  0  0  0  0  0  0  0  0  0
  186.1580  173.2050  135.6160 C   0  0  0  0  0  2  0  0  0  0  0  0
  185.3190  172.9320  137.9080 N   0  0  0  0  0  1  0  0  0  0  0  0
  185.3160  172.3590  136.5720 C   0  0  1  0  0  3  0  0  0  0  0  0
  183.1410  171.4620  136.9880 O   0  0  0  0  0  1  0  0  0  0  0  0
  183.8910  172.1920  136.0660 C   0  0  0  0  0  2  0  0  0  0  0  0
  193.9640  175.2890  137.0820 C   0  0  0  0  0  0  0  0  0  0  0  0
  194.0960  174.1170  137.8960 N   0  0  0  0  0  2  0  0  0  0  0  0
  194.9810  175.8560  136.6020 O   0  0  0  0  0  0  0  0  0  0  0  0
  196.0420  173.0440  136.9360 C   0  0  0  0  0  1  0  0  0  0  0  0
  195.1490  172.3600  139.0220 O   0  0  0  0  0  1  0  0  0  0  0  0
  195.3680  173.4800  138.2190 C   0  0  0  0  0  0  0  0  0  0  0  0
  196.2760  174.4560  138.9430 C   0  0  0  0  0  1  0  0  0  0  0  0
  1  5  1  0  0  0  0
  1 10  1  0  0  0  0
  2  8  1  0  0  0  0
  3  6  1  0  0  0  0
  3 11  1  0  0  0  0
  5  2  1  0  0  0  0
  6  9  1  0  0  0  0
  9  4  1  0  0  0  0
  9  7  2  0  0  0  0
 10 29  1  0  0  0  0
 10  8  1  0  0  0  0
 11  2  1  0  0  0  0
 11  8  1  0  0  0  0
 11  4  1  0  0  0  0
 12 17  1  0  0  0  0
 13  6  1  0  0  0  0
 13 17  2  0  0  0  0
 14 12  2  0  0  0  0
 15 14  1  0  0  0  0
 15 13  1  0  0  0  0
 16 14  1  0  0  0  0
 19 20  1  0  0  0  0
 19  5  1  0  0  0  0
 20 18  2  0  0  0  0
 21 19  1  0  0  0  0
 22 24  1  0  0  0  0
 22 20  1  0  0  0  0
 23 22  2  0  0  0  0
 24 26  1  0  0  0  0
 26 25  1  0  0  0  0
 28 26  1  0  0  0  0
 28 27  1  0  0  0  0
 29 30  1  0  0  0  0
 30 34  1  0  0  0  0
 31 29  2  0  0  0  0
 32 34  1  0  0  0  0
 34 35  1  0  0  0  0
 34 33  1  0  0  0  0
M  END
>  <MODEL>
4

>  <REMARK>
 VINA RESULT:      -5.9      5.659      7.714
  Name = 
  8 active torsions:
  status: ('A' for Active; 'I' for Inactive)
    1  A    between atoms: N_4  and  C_11
    2  A    between atoms: C_10  and  CA_30
    3  A    between atoms: C_12  and  C_19
    4  A    between atoms: C_12  and  C_29
    5  A    between atoms: C_14  and  C_15
    6  A    between atoms: C_20  and  C_22
    7  A    between atoms: N_23  and  C_26
    8  A    between atoms: C_29  and  CA_30
                            x       y       z     vdW  Elec       q    Type
                         _______ _______ _______ _____ _____    ______ ____

>  <TORSDO>
F 8

$$$$
=
 OpenBabel11042410313D

 35 38  0  0  1  0  0  0  0  0999 V2000
  190.8930  175.7740  138.1270 O   0  0  0  0  0  0  0  0  0  0  0  0
  189.8280  177.0170  136.3490 C   0  0  1  0  0  3  0  0  0  0  0  0
  187.8210  175.2830  137.5940 S   0  0  0  0  0  0  0  0  0  0  0  0
  187.8640  176.2660  135.0420 N   0  0  0  0  0  2  0  0  0  0  0  0
  190.5210  177.0660  137.7060 C   0  0  1  0  0  3  0  0  0  0  0  0
  186.2330  175.8070  136.8500 C   0  0  2  0  0  3  0  0  0  0  0  0
  185.5760  176.3490  134.5940 O   0  0  0  0  0  0  0  0  0  0  0  0
  190.1520  175.6290  135.8350 C   0  0  1  0  0  3  0  0  0  0  0  0
  186.5040  176.1560  135.4220 C   0  0  0  0  0  0  0  0  0  0  0  0
  190.8690  174.9450  136.9890 C   0  0  1  0  0  3  0  0  0  0  0  0
  188.7210  175.9920  136.1690 C   0  0  1  0  0  0  0  0  0  0  0  0
  185.6860  179.0230  138.6900 N   0  0  0  0  0  0  0  0  0  0  0  0
  185.6950  176.9860  137.5990 C   0  0  0  0  0  0  0  0  0  0  0  0
  184.4370  178.5800  138.9430 C   0  0  0  0  0  0  0  0  0  0  0  0
  184.1530  177.0700  138.2620 S   0  0  0  0  0  0  0  0  0  0  0  0
  183.4420  179.3460  139.7400 C   0  0  0  0  0  1  0  0  0  0  0  0
  186.4000  178.1370  137.9450 C   0  0  0  0  0  3  0  0  0  0  0  0
  190.5410  176.4340  140.4570 O   0  0  0  0  0  0  0  0  0  0  0  0
  189.7300  177.7770  138.7220 N   0  0  0  0  0  0  0  0  0  0  0  0
  189.6770  177.2690  140.0750 C   0  0  0  0  0  0  0  0  0  0  0  0
  188.9730  178.9630  138.3400 C   0  0  0  0  0  1  0  0  0  0  0  0
  188.6450  177.6880  141.0520 C   0  0  0  0  0  0  0  0  0  0  0  0
  188.0080  178.7570  140.8520 O   0  0  0  0  0  0  0  0  0  0  0  0
  188.3790  176.9300  142.3180 C   0  0  0  0  0  2  0  0  0  0  0  0
  188.1810  177.0940  144.7610 N   0  0  0  0  0  1  0  0  0  0  0  0
  188.7630  177.7080  143.5780 C   0  0  1  0  0  3  0  0  0  0  0  0
  190.8360  176.5600  143.8860 O   0  0  0  0  0  1  0  0  0  0  0  0
  190.2720  177.8260  143.7250 C   0  0  0  0  0  2  0  0  0  0  0  0
  192.2570  174.5650  136.5920 C   0  0  0  0  0  0  0  0  0  0  0  0
  193.2460  174.3080  137.5980 N   0  0  0  0  0  2  0  0  0  0  0  0
  192.5510  174.4910  135.3700 O   0  0  0  0  0  0  0  0  0  0  0  0
  195.3630  173.7380  138.6240 C   0  0  0  0  0  1  0  0  0  0  0  0
  195.2550  174.9430  136.5850 O   0  0  0  0  0  1  0  0  0  0  0  0
  194.6270  173.9330  137.3160 C   0  0  0  0  0  0  0  0  0  0  0  0
  194.6700  172.6350  136.5310 C   0  0  0  0  0  1  0  0  0  0  0  0
  2  5  1  0  0  0  0
  4  9  1  0  0  0  0
  4 11  1  0  0  0  0
  5  1  1  0  0  0  0
  5 19  1  0  0  0  0
  6  3  1  0  0  0  0
  6 13  1  0  0  0  0
  7  9  2  0  0  0  0
  8 11  1  0  0  0  0
  8  2  1  0  0  0  0
  8 10  1  0  0  0  0
  9  6  1  0  0  0  0
 10  1  1  0  0  0  0
 11  2  1  0  0  0  0
 11  3  1  0  0  0  0
 12 14  2  0  0  0  0
 13 17  2  0  0  0  0
 13 15  1  0  0  0  0
 14 16  1  0  0  0  0
 15 14  1  0  0  0  0
 17 12  1  0  0  0  0
 19 20  1  0  0  0  0
 20 18  2  0  0  0  0
 20 22  1  0  0  0  0
 21 19  1  0  0  0  0
 22 24  1  0  0  0  0
 23 22  2  0  0  0  0
 24 26  1  0  0  0  0
 26 28  1  0  0  0  0
 26 25  1  0  0  0  0
 28 27  1  0  0  0  0
 29 10  1  0  0  0  0
 29 30  1  0  0  0  0
 31 29  2  0  0  0  0
 33 34  1  0  0  0  0
 34 30  1  0  0  0  0
 34 32  1  0  0  0  0
 35 34  1  0  0  0  0
M  END
>  <MODEL>
5

>  <REMARK>
 VINA RESULT:      -5.8      3.546      6.849
  Name = 
  8 active torsions:
  status: ('A' for Active; 'I' for Inactive)
    1  A    between atoms: N_4  and  C_11
    2  A    between atoms: C_10  and  CA_30
    3  A    between atoms: C_12  and  C_19
    4  A    between atoms: C_12  and  C_29
    5  A    between atoms: C_14  and  C_15
    6  A    between atoms: C_20  and  C_22
    7  A    between atoms: N_23  and  C_26
    8  A    between atoms: C_29  and  CA_30
                            x       y       z     vdW  Elec       q    Type
                         _______ _______ _______ _____ _____    ______ ____

>  <TORSDO>
F 8

$$$$
=
 OpenBabel11042410313D

 35 38  0  0  1  0  0  0  0  0999 V2000
  191.2800  176.3070  136.0310 O   0  0  0  0  0  0  0  0  0  0  0  0
  190.2400  175.3440  137.9880 C   0  0  1  0  0  3  0  0  0  0  0  0
  189.7570  178.2340  138.0130 S   0  0  0  0  0  0  0  0  0  0  0  0
  189.8540  176.5130  140.1370 N   0  0  0  0  0  2  0  0  0  0  0  0
  190.2640  175.4350  136.4660 C   0  0  1  0  0  3  0  0  0  0  0  0
  188.5680  178.4910  139.3810 C   0  0  2  0  0  3  0  0  0  0  0  0
  188.4230  177.6070  141.6200 O   0  0  0  0  0  0  0  0  0  0  0  0
  191.5680  175.9490  138.4000 C   0  0  1  0  0  3  0  0  0  0  0  0
  188.9250  177.5280  140.4670 C   0  0  0  0  0  0  0  0  0  0  0  0
  192.1750  176.4710  137.1070 C   0  0  1  0  0  3  0  0  0  0  0  0
  190.2760  176.6500  138.7650 C   0  0  1  0  0  0  0  0  0  0  0  0
  185.4770  177.7250  137.4100 N   0  0  0  0  0  0  0  0  0  0  0  0
  187.1770  178.2520  138.8840 C   0  0  0  0  0  0  0  0  0  0  0  0
  184.7770  178.1530  138.4820 C   0  0  0  0  0  0  0  0  0  0  0  0
  185.7820  178.6270  139.7430 S   0  0  0  0  0  0  0  0  0  0  0  0
  183.2920  178.2030  138.5230 C   0  0  0  0  0  1  0  0  0  0  0  0
  186.8190  177.7810  137.6220 C   0  0  0  0  0  3  0  0  0  0  0  0
  187.8740  174.0500  137.0440 O   0  0  0  0  0  0  0  0  0  0  0  0
  188.9520  175.7810  135.8990 N   0  0  0  0  0  0  0  0  0  0  0  0
  187.8210  174.9080  136.1220 C   0  0  0  0  0  0  0  0  0  0  0  0
  188.8180  176.9820  135.0820 C   0  0  0  0  0  1  0  0  0  0  0  0
  186.5820  174.9720  135.3110 C   0  0  0  0  0  0  0  0  0  0  0  0
  186.3700  175.9860  134.5940 O   0  0  0  0  0  0  0  0  0  0  0  0
  185.5280  173.9080  135.3660 C   0  0  0  0  0  2  0  0  0  0  0  0
  183.1020  173.6080  135.6090 N   0  0  0  0  0  1  0  0  0  0  0  0
  184.2530  174.3600  136.0810 C   0  0  1  0  0  3  0  0  0  0  0  0
  184.9110  172.9940  137.9270 O   0  0  0  0  0  1  0  0  0  0  0  0
  184.3860  174.2420  137.5920 C   0  0  0  0  0  2  0  0  0  0  0  0
  193.4670  175.7820  136.8190 C   0  0  0  0  0  0  0  0  0  0  0  0
  194.1900  175.1410  137.8780 N   0  0  0  0  0  2  0  0  0  0  0  0
  193.9200  175.7870  135.6440 O   0  0  0  0  0  0  0  0  0  0  0  0
  196.0420  174.1280  139.0630 C   0  0  0  0  0  1  0  0  0  0  0  0
  196.3540  175.2540  137.0000 O   0  0  0  0  0  1  0  0  0  0  0  0
  195.4590  174.4440  137.7020 C   0  0  0  0  0  0  0  0  0  0  0  0
  195.2470  173.1460  136.9450 C   0  0  0  0  0  1  0  0  0  0  0  0
  1  5  1  0  0  0  0
  1 10  1  0  0  0  0
  2  8  1  0  0  0  0
  2 11  1  0  0  0  0
  3 11  1  0  0  0  0
  3  6  1  0  0  0  0
  4  9  1  0  0  0  0
  5  2  1  0  0  0  0
  6  9  1  0  0  0  0
  8 11  1  0  0  0  0
  9  7  2  0  0  0  0
 10  8  1  0  0  0  0
 11  4  1  0  0  0  0
 12 17  1  0  0  0  0
 12 14  2  0  0  0  0
 13  6  1  0  0  0  0
 13 15  1  0  0  0  0
 14 16  1  0  0  0  0
 14 15  1  0  0  0  0
 17 13  2  0  0  0  0
 19 20  1  0  0  0  0
 19  5  1  0  0  0  0
 20 18  2  0  0  0  0
 21 19  1  0  0  0  0
 22 24  1  0  0  0  0
 22 20  1  0  0  0  0
 23 22  2  0  0  0  0
 24 26  1  0  0  0  0
 25 26  1  0  0  0  0
 26 28  1  0  0  0  0
 28 27  1  0  0  0  0
 29 10  1  0  0  0  0
 29 30  1  0  0  0  0
 31 29  2  0  0  0  0
 33 34  1  0  0  0  0
 34 30  1  0  0  0  0
 34 32  1  0  0  0  0
 35 34  1  0  0  0  0
M  END
>  <MODEL>
6

>  <REMARK>
 VINA RESULT:      -5.7      4.417      6.498
  Name = 
  8 active torsions:
  status: ('A' for Active; 'I' for Inactive)
    1  A    between atoms: N_4  and  C_11
    2  A    between atoms: C_10  and  CA_30
    3  A    between atoms: C_12  and  C_19
    4  A    between atoms: C_12  and  C_29
    5  A    between atoms: C_14  and  C_15
    6  A    between atoms: C_20  and  C_22
    7  A    between atoms: N_23  and  C_26
    8  A    between atoms: C_29  and  CA_30
                            x       y       z     vdW  Elec       q    Type
                         _______ _______ _______ _____ _____    ______ ____

>  <TORSDO>
F 8

$$$$
=
 OpenBabel11042410313D

 35 38  0  0  1  0  0  0  0  0999 V2000
  186.7790  175.9900  137.3450 O   0  0  0  0  0  0  0  0  0  0  0  0
  185.1870  175.7090  135.5480 C   0  0  1  0  0  3  0  0  0  0  0  0
  184.0730  174.4900  137.9690 S   0  0  0  0  0  0  0  0  0  0  0  0
  183.5390  173.8710  135.3580 N   0  0  0  0  0  2  0  0  0  0  0  0
  185.9240  176.6800  136.4650 C   0  0  1  0  0  3  0  0  0  0  0  0
  182.3480  174.0710  137.5220 C   0  0  2  0  0  3  0  0  0  0  0  0
  181.3530  173.0810  135.5600 O   0  0  0  0  0  0  0  0  0  0  0  0
  185.9580  174.4140  135.7120 C   0  0  1  0  0  3  0  0  0  0  0  0
  182.3530  173.6310  136.0930 C   0  0  0  0  0  0  0  0  0  0  0  0
  186.9690  174.7000  136.8110 C   0  0  1  0  0  3  0  0  0  0  0  0
  184.5260  174.5040  136.1970 C   0  0  1  0  0  0  0  0  0  0  0  0
  180.0880  177.0360  137.1600 N   0  0  0  0  0  0  0  0  0  0  0  0
  181.4770  175.2730  137.7120 C   0  0  0  0  0  0  0  0  0  0  0  0
  180.3150  177.2750  138.4690 C   0  0  0  0  0  0  0  0  0  0  0  0
  181.3320  176.1260  139.1530 S   0  0  0  0  0  0  0  0  0  0  0  0
  179.7330  178.4290  139.2030 C   0  0  0  0  0  1  0  0  0  0  0  0
  180.7370  175.9220  136.7260 C   0  0  0  0  0  3  0  0  0  0  0  0
  186.7160  178.4020  138.5550 O   0  0  0  0  0  0  0  0  0  0  0  0
  185.0120  177.5920  137.1730 N   0  0  0  0  0  0  0  0  0  0  0  0
  185.4770  178.3060  138.3410 C   0  0  0  0  0  0  0  0  0  0  0  0
  183.6350  177.7300  136.7120 C   0  0  0  0  0  1  0  0  0  0  0  0
  184.5590  178.9440  139.3130 C   0  0  0  0  0  0  0  0  0  0  0  0
  184.1790  180.1280  139.1120 O   0  0  0  0  0  0  0  0  0  0  0  0
  184.1210  178.2630  140.5750 C   0  0  0  0  0  2  0  0  0  0  0  0
  183.8780  178.5250  143.0050 N   0  0  0  0  0  1  0  0  0  0  0  0
  184.6390  178.9490  141.8400 C   0  0  1  0  0  3  0  0  0  0  0  0
  186.3060  177.7670  143.0780 O   0  0  0  0  0  1  0  0  0  0  0  0
  186.1230  178.6930  142.0500 C   0  0  0  0  0  2  0  0  0  0  0  0
  188.3620  174.5510  136.2940 C   0  0  0  0  0  0  0  0  0  0  0  0
  189.4750  174.9350  137.1110 N   0  0  0  0  0  2  0  0  0  0  0  0
  188.5430  174.1020  135.1320 O   0  0  0  0  0  0  0  0  0  0  0  0
  191.7520  175.3970  137.7930 C   0  0  0  0  0  1  0  0  0  0  0  0
  191.0770  175.5570  135.5260 O   0  0  0  0  0  1  0  0  0  0  0  0
  190.8710  174.8300  136.7000 C   0  0  0  0  0  0  0  0  0  0  0  0
  191.2450  173.3780  136.4710 C   0  0  0  0  0  1  0  0  0  0  0  0
  2  8  1  0  0  0  0
  2 11  1  0  0  0  0
  2  5  1  0  0  0  0
  4  9  1  0  0  0  0
  4 11  1  0  0  0  0
  5 19  1  0  0  0  0
  5  1  1  0  0  0  0
  6 13  1  0  0  0  0
  6  3  1  0  0  0  0
  7  9  2  0  0  0  0
  8 11  1  0  0  0  0
  8 10  1  0  0  0  0
  9  6  1  0  0  0  0
 10  1  1  0  0  0  0
 11  3  1  0  0  0  0
 12 14  2  0  0  0  0
 13 15  1  0  0  0  0
 14 15  1  0  0  0  0
 14 16  1  0  0  0  0
 17 12  1  0  0  0  0
 17 13  2  0  0  0  0
 19 20  1  0  0  0  0
 20 18  2  0  0  0  0
 20 22  1  0  0  0  0
 21 19  1  0  0  0  0
 22 24  1  0  0  0  0
 23 22  2  0  0  0  0
 24 26  1  0  0  0  0
 26 28  1  0  0  0  0
 26 25  1  0  0  0  0
 28 27  1  0  0  0  0
 29 10  1  0  0  0  0
 29 30  1  0  0  0  0
 31 29  2  0  0  0  0
 33 34  1  0  0  0  0
 34 30  1  0  0  0  0
 34 32  1  0  0  0  0
 35 34  1  0  0  0  0
M  END
>  <MODEL>
7

>  <REMARK>
 VINA RESULT:      -5.7      5.216      8.111
  Name = 
  8 active torsions:
  status: ('A' for Active; 'I' for Inactive)
    1  A    between atoms: N_4  and  C_11
    2  A    between atoms: C_10  and  CA_30
    3  A    between atoms: C_12  and  C_19
    4  A    between atoms: C_12  and  C_29
    5  A    between atoms: C_14  and  C_15
    6  A    between atoms: C_20  and  C_22
    7  A    between atoms: N_23  and  C_26
    8  A    between atoms: C_29  and  CA_30
                            x       y       z     vdW  Elec       q    Type
                         _______ _______ _______ _____ _____    ______ ____

>  <TORSDO>
F 8

$$$$
=
 OpenBabel11042410313D

 35 38  0  0  1  0  0  0  0  0999 V2000
  184.6550  177.5780  142.4010 O   0  0  0  0  0  0  0  0  0  0  0  0
  185.5700  179.5310  143.4910 C   0  0  1  0  0  3  0  0  0  0  0  0
  185.3170  177.3960  145.4820 S   0  0  0  0  0  0  0  0  0  0  0  0
  185.3050  180.1020  145.8860 N   0  0  0  0  0  2  0  0  0  0  0  0
  185.7700  178.4360  142.4490 C   0  0  1  0  0  3  0  0  0  0  0  0
  186.1700  178.0460  146.9650 C   0  0  2  0  0  3  0  0  0  0  0  0
  186.1660  180.1990  148.0520 O   0  0  0  0  0  0  0  0  0  0  0  0
  184.0860  179.4660  143.7930 C   0  0  1  0  0  3  0  0  0  0  0  0
  185.8910  179.5130  147.0320 C   0  0  0  0  0  0  0  0  0  0  0  0
  183.5860  178.2530  143.0240 C   0  0  1  0  0  3  0  0  0  0  0  0
  185.0900  179.1040  144.8680 C   0  0  1  0  0  0  0  0  0  0  0  0
  189.7690  177.8060  145.9560 N   0  0  0  0  0  0  0  0  0  0  0  0
  187.6390  177.7820  146.8520 C   0  0  0  0  0  0  0  0  0  0  0  0
  189.9310  176.9730  147.0060 C   0  0  0  0  0  0  0  0  0  0  0  0
  188.5020  176.7530  147.8620 S   0  0  0  0  0  0  0  0  0  0  0  0
  191.2270  176.3280  147.3470 C   0  0  0  0  0  1  0  0  0  0  0  0
  188.4910  178.2590  145.8580 C   0  0  0  0  0  3  0  0  0  0  0  0
  188.2150  179.1540  141.2350 O   0  0  0  0  0  0  0  0  0  0  0  0
  187.0310  177.7010  142.6350 N   0  0  0  0  0  0  0  0  0  0  0  0
  188.1860  178.0460  141.8370 C   0  0  0  0  0  0  0  0  0  0  0  0
  187.0860  176.6040  143.5930 C   0  0  0  0  0  1  0  0  0  0  0  0
  189.3590  177.1520  141.6890 C   0  0  0  0  0  0  0  0  0  0  0  0
  189.9980  177.1530  140.6030 O   0  0  0  0  0  0  0  0  0  0  0  0
  189.7730  176.1830  142.7560 C   0  0  0  0  0  2  0  0  0  0  0  0
  191.8890  175.5770  143.8460 N   0  0  0  0  0  1  0  0  0  0  0  0
  190.9670  176.6690  143.5790 C   0  0  1  0  0  3  0  0  0  0  0  0
  191.9790  178.8190  143.8280 O   0  0  0  0  0  1  0  0  0  0  0  0
  191.6870  177.8220  142.8970 C   0  0  0  0  0  2  0  0  0  0  0  0
  182.5660  178.6580  142.0120 C   0  0  0  0  0  0  0  0  0  0  0  0
  182.7080  178.2480  140.6460 N   0  0  0  0  0  2  0  0  0  0  0  0
  181.5940  179.3740  142.3690 O   0  0  0  0  0  0  0  0  0  0  0  0
  182.3740  178.2070  138.2490 C   0  0  0  0  0  1  0  0  0  0  0  0
  181.5210  179.9640  139.5930 O   0  0  0  0  0  1  0  0  0  0  0  0
  181.7700  178.5910  139.5830 C   0  0  0  0  0  0  0  0  0  0  0  0
  180.4670  177.8350  139.7670 C   0  0  0  0  0  1  0  0  0  0  0  0
  1  5  1  0  0  0  0
  1 10  1  0  0  0  0
  2  8  1  0  0  0  0
  2 11  1  0  0  0  0
  3  6  1  0  0  0  0
  4  9  1  0  0  0  0
  5 19  1  0  0  0  0
  5  2  1  0  0  0  0
  6  9  1  0  0  0  0
  8 11  1  0  0  0  0
  9  7  2  0  0  0  0
 10  8  1  0  0  0  0
 11  3  1  0  0  0  0
 11  4  1  0  0  0  0
 12 14  2  0  0  0  0
 13  6  1  0  0  0  0
 13 15  1  0  0  0  0
 14 16  1  0  0  0  0
 14 15  1  0  0  0  0
 17 12  1  0  0  0  0
 17 13  2  0  0  0  0
 18 20  2  0  0  0  0
 19 21  1  0  0  0  0
 20 19  1  0  0  0  0
 22 20  1  0  0  0  0
 22 24  1  0  0  0  0
 23 22  2  0  0  0  0
 24 26  1  0  0  0  0
 26 25  1  0  0  0  0
 28 26  1  0  0  0  0
 28 27  1  0  0  0  0
 29 31  2  0  0  0  0
 29 10  1  0  0  0  0
 30 29  1  0  0  0  0
 32 34  1  0  0  0  0
 34 33  1  0  0  0  0
 34 35  1  0  0  0  0
 34 30  1  0  0  0  0
M  END
>  <MODEL>
8

>  <REMARK>
 VINA RESULT:      -5.6      2.686      7.139
  Name = 
  8 active torsions:
  status: ('A' for Active; 'I' for Inactive)
    1  A    between atoms: N_4  and  C_11
    2  A    between atoms: C_10  and  CA_30
    3  A    between atoms: C_12  and  C_19
    4  A    between atoms: C_12  and  C_29
    5  A    between atoms: C_14  and  C_15
    6  A    between atoms: C_20  and  C_22
    7  A    between atoms: N_23  and  C_26
    8  A    between atoms: C_29  and  CA_30
                            x       y       z     vdW  Elec       q    Type
                         _______ _______ _______ _____ _____    ______ ____

>  <TORSDO>
F 8

$$$$
=
 OpenBabel11042410313D

 35 38  0  0  1  0  0  0  0  0999 V2000
  189.6940  178.0090  140.7140 O   0  0  0  0  0  0  0  0  0  0  0  0
  189.6510  176.0000  142.0560 C   0  0  1  0  0  3  0  0  0  0  0  0
  191.3120  177.9890  143.4230 S   0  0  0  0  0  0  0  0  0  0  0  0
  191.4390  175.2630  143.6020 N   0  0  0  0  0  2  0  0  0  0  0  0
  188.8600  177.1670  141.4750 C   0  0  1  0  0  3  0  0  0  0  0  0
  191.6590  177.2530  145.0620 C   0  0  2  0  0  3  0  0  0  0  0  0
  192.2760  175.0300  145.7680 O   0  0  0  0  0  0  0  0  0  0  0  0
  190.9460  176.0220  141.2670 C   0  0  1  0  0  3  0  0  0  0  0  0
  191.8240  175.7800  144.8630 C   0  0  0  0  0  0  0  0  0  0  0  0
  190.8590  177.2770  140.4130 C   0  0  1  0  0  3  0  0  0  0  0  0
  190.9630  176.3250  142.7510 C   0  0  1  0  0  0  0  0  0  0  0  0
  188.5410  178.4630  146.7490 N   0  0  0  0  0  0  0  0  0  0  0  0
  190.5230  177.5460  145.9920 C   0  0  0  0  0  0  0  0  0  0  0  0
  189.0070  177.8720  147.8700 C   0  0  0  0  0  0  0  0  0  0  0  0
  190.4840  177.1120  147.6150 S   0  0  0  0  0  0  0  0  0  0  0  0
  188.2900  177.9060  149.1720 C   0  0  0  0  0  1  0  0  0  0  0  0
  189.3840  178.2910  145.6950 C   0  0  0  0  0  3  0  0  0  0  0  0
  187.2960  175.9440  143.4800 O   0  0  0  0  0  0  0  0  0  0  0  0
  188.1070  177.9060  142.4990 N   0  0  0  0  0  0  0  0  0  0  0  0
  187.2010  177.1970  143.3740 C   0  0  0  0  0  0  0  0  0  0  0  0
  188.2520  179.3540  142.5900 C   0  0  0  0  0  1  0  0  0  0  0  0
  186.1500  177.8770  144.1680 C   0  0  0  0  0  0  0  0  0  0  0  0
  185.9720  177.5370  145.3680 O   0  0  0  0  0  0  0  0  0  0  0  0
  185.2330  178.9050  143.5770 C   0  0  0  0  0  2  0  0  0  0  0  0
  182.7890  178.7290  143.4020 N   0  0  0  0  0  1  0  0  0  0  0  0
  184.0510  178.2940  142.8230 C   0  0  1  0  0  3  0  0  0  0  0  0
  185.2410  179.3790  141.0580 O   0  0  0  0  0  1  0  0  0  0  0  0
  184.1000  178.6260  141.3400 C   0  0  0  0  0  2  0  0  0  0  0  0
  190.8940  176.9270  138.9620 C   0  0  0  0  0  0  0  0  0  0  0  0
  189.7070  176.4650  138.3060 N   0  0  0  0  0  2  0  0  0  0  0  0
  191.9790  177.0270  138.3300 O   0  0  0  0  0  0  0  0  0  0  0  0
  190.4200  174.8190  136.6800 C   0  0  0  0  0  1  0  0  0  0  0  0
  190.1910  177.1100  136.1130 O   0  0  0  0  0  1  0  0  0  0  0  0
  189.6370  176.0970  136.8970 C   0  0  0  0  0  0  0  0  0  0  0  0
  188.1950  175.8650  136.4850 C   0  0  0  0  0  1  0  0  0  0  0  0
  1  5  1  0  0  0  0
  2 11  1  0  0  0  0
  3  6  1  0  0  0  0
  4  9  1  0  0  0  0
  5  2  1  0  0  0  0
  5 19  1  0  0  0  0
  6 13  1  0  0  0  0
  8  2  1  0  0  0  0
  8 11  1  0  0  0  0
  9  6  1  0  0  0  0
  9  7  2  0  0  0  0
 10  1  1  0  0  0  0
 10  8  1  0  0  0  0
 11  3  1  0  0  0  0
 11  4  1  0  0  0  0
 12 14  2  0  0  0  0
 13 15  1  0  0  0  0
 14 16  1  0  0  0  0
 15 14  1  0  0  0  0
 17 13  2  0  0  0  0
 17 12  1  0  0  0  0
 19 21  1  0  0  0  0
 19 20  1  0  0  0  0
 20 18  2  0  0  0  0
 20 22  1  0  0  0  0
 22 23  2  0  0  0  0
 24 22  1  0  0  0  0
 26 25  1  0  0  0  0
 26 24  1  0  0  0  0
 27 28  1  0  0  0  0
 28 26  1  0  0  0  0
 29 10  1  0  0  0  0
 30 29  1  0  0  0  0
 31 29  2  0  0  0  0
 32 34  1  0  0  0  0
 33 34  1  0  0  0  0
 34 30  1  0  0  0  0
 35 34  1  0  0  0  0
M  END
>  <MODEL>
9

>  <REMARK>
 VINA RESULT:      -5.6      1.988      2.428
  Name = 
  8 active torsions:
  status: ('A' for Active; 'I' for Inactive)
    1  A    between atoms: N_4  and  C_11
    2  A    between atoms: C_10  and  CA_30
    3  A    between atoms: C_12  and  C_19
    4  A    between atoms: C_12  and  C_29
    5  A    between atoms: C_14  and  C_15
    6  A    between atoms: C_20  and  C_22
    7  A    between atoms: N_23  and  C_26
    8  A    between atoms: C_29  and  CA_30
                            x       y       z     vdW  Elec       q    Type
                         _______ _______ _______ _____ _____    ______ ____

>  <TORSDO>
F 8

$$$$
