=
 OpenBabel11042410583D

 56 64  0  0  1  0  0  0  0  0999 V2000
  184.2130  179.3660  141.8760 C   0  0  1  0  0  3  0  0  0  0  0  0
  187.9100  177.9220  137.7240 C   0  0  2  0  0  3  0  0  0  0  0  0
  187.7990  178.0530  143.0010 C   0  0  1  0  0  3  0  0  0  0  0  0
  188.5040  177.3810  140.8930 C   0  0  2  0  0  3  0  0  0  0  0  0
  188.8010  178.2120  141.9990 O   0  0  0  0  0  0  0  0  0  0  0  0
  189.5660  175.7000  138.9200 S   0  0  0  0  0  0  0  0  0  0  0  0
  189.7850  177.0730  140.1120 C   0  0  0  0  0  2  0  0  0  0  0  0
  185.1660  178.9840  143.4000 S   0  0  0  0  0  0  0  0  0  0  0  0
  187.2680  177.9240  140.0970 C   0  0  1  0  0  3  0  0  0  0  0  0
  186.3720  178.7030  141.0580 C   0  0  2  0  0  3  0  0  0  0  0  0
  186.3700  178.0570  142.4160 C   0  0  1  0  0  3  0  0  0  0  0  0
  189.9630  176.6690  137.3850 C   0  0  1  0  0  3  0  0  0  0  0  0
  189.4030  178.0840  137.5270 C   0  0  1  0  0  3  0  0  0  0  0  0
  188.4360  178.5830  136.4730 C   0  0  0  0  0  2  0  0  0  0  0  0
  184.9260  178.7960  140.6550 C   0  0  0  0  0  2  0  0  0  0  0  0
  187.5920  178.8170  138.8960 C   0  0  0  0  0  2  0  0  0  0  0  0
  186.2970  176.0680  145.2420 O   0  0  0  0  0  0  0  0  0  0  0  0
  189.9950  177.3690  145.4610 N   0  0  0  0  0  0  0  0  0  0  0  0
  187.5710  177.7950  146.2110 C   0  0  0  0  0  2  0  0  0  0  0  0
  189.0540  177.9020  146.4230 C   0  0  0  0  0  0  0  0  0  0  0  0
  190.3450  176.0540  143.4570 C   0  0  0  0  0  2  0  0  0  0  0  0
  188.0680  176.8070  143.8700 C   0  0  2  0  0  3  0  0  0  0  0  0
  189.4720  178.5780  147.4850 C   0  0  0  0  0  2  0  0  0  0  0  0
  187.2450  176.8260  145.1220 C   0  0  0  0  0  0  0  0  0  0  0  0
  189.5160  176.7190  144.2590 C   0  0  0  0  0  0  0  0  0  0  0  0
  191.4310  177.4070  145.7480 C   0  0  0  0  0  2  0  0  0  0  0  0
  191.8170  176.2350  146.6360 C   0  0  0  0  0  1  0  0  0  0  0  0
  191.4880  176.7380  137.1550 C   0  0  1  0  0  3  0  0  0  0  0  0
  193.6380  175.5770  137.1730 C   0  0  2  0  0  3  0  0  0  0  0  0
  192.3550  175.7750  138.0010 C   0  0  2  0  0  3  0  0  0  0  0  0
  193.1760  175.8790  135.8000 C   0  0  0  0  0  0  0  0  0  0  0  0
  191.6960  174.5480  138.1620 O   0  0  0  0  0  1  0  0  0  0  0  0
  191.9110  176.5150  135.7740 N   0  0  0  0  0  0  0  0  0  0  0  0
  193.8340  175.6050  134.7620 O   0  0  0  0  0  0  0  0  0  0  0  0
  190.1420  175.2970  134.6170 C   0  0  0  0  0  1  0  0  0  0  0  0
  191.0480  176.5140  134.5940 C   0  0  0  0  0  2  0  0  0  0  0  0
  194.1150  174.2650  137.2640 O   0  0  0  0  0  0  0  0  0  0  0  0
  195.3600  175.2990  139.3150 O   0  0  0  0  0  1  0  0  0  0  0  0
  196.8020  174.9690  137.1650 O   0  0  0  0  0  0  0  0  0  0  0  0
  195.9870  172.8330  138.7200 O   0  0  0  0  0  1  0  0  0  0  0  0
  195.5600  174.3670  138.1450 P   0  0  0  0  0  0  0  0  0  0  0  0
  182.7650  178.8920  141.9690 C   0  0  0  0  0  2  0  0  0  0  0  0
  182.0300  179.0190  140.6420 C   0  0  0  0  0  2  0  0  0  0  0  0
  181.7830  177.7240  140.1130 O   0  0  0  0  0  0  0  0  0  0  0  0
  181.2670  175.7920  136.9070 N   0  0  1  0  0  0  0  0  0  0  0  0
  184.3600  176.6250  137.7430 C   0  0  0  0  0  1  0  0  0  0  0  0
  181.6880  177.4850  138.7410 C   0  0  0  0  0  0  0  0  0  0  0  0
  180.7210  176.9550  136.1830 C   0  0  0  0  0  2  0  0  0  0  0  0
  182.6460  175.5450  136.4760 C   0  0  2  0  0  3  0  0  0  0  0  0
  181.5250  178.4690  137.9090 N   0  0  0  0  0  0  0  0  0  0  0  0
  181.7910  176.0530  138.2510 C   0  0  2  0  0  3  0  0  0  0  0  0
  183.2650  174.3000  137.1160 C   0  0  0  0  0  0  0  0  0  0  0  0
  181.4760  178.2500  136.4740 C   0  0  2  0  0  3  0  0  0  0  0  0
  183.1860  175.6610  137.8080 C   0  0  2  0  0  0  0  0  0  0  0  0
  180.8420  179.3150  135.8630 F   0  0  0  0  0  0  0  0  0  0  0  0
  183.5690  173.1170  137.0980 O   0  0  0  0  0  0  0  0  0  0  0  0
  1 42  1  1  0  0  0
  1  8  1  0  0  0  0
  2 14  1  6  0  0  0
  2 16  1  0  0  0  0
  3  5  1  6  0  0  0
  3 22  1  0  0  0  0
  4  7  1  6  0  0  0
  4  5  1  0  0  0  0
  6  7  1  0  0  0  0
  9 16  1  6  0  0  0
  9  4  1  0  0  0  0
  9 10  1  0  0  0  0
 10 15  1  6  0  0  0
 10 11  1  0  0  0  0
 11  3  1  0  0  0  0
 11  8  1  1  0  0  0
 12 13  1  0  0  0  0
 12  6  1  1  0  0  0
 13 14  1  6  0  0  0
 13  2  1  0  0  0  0
 15  1  1  0  0  0  0
 18 26  1  0  0  0  0
 18 20  1  0  0  0  0
 19 20  1  0  0  0  0
 20 23  2  0  0  0  0
 21 25  2  0  0  0  0
 22 25  1  1  0  0  0
 22 24  1  0  0  0  0
 24 17  2  0  0  0  0
 24 19  1  0  0  0  0
 25 18  1  0  0  0  0
 26 27  1  0  0  0  0
 28 33  1  6  0  0  0
 28 12  1  0  0  0  0
 28 30  1  0  0  0  0
 29 37  1  6  0  0  0
 29 30  1  0  0  0  0
 30 32  1  6  0  0  0
 31 29  1  0  0  0  0
 33 31  1  0  0  0  0
 34 31  2  0  0  0  0
 36 35  1  0  0  0  0
 36 33  1  0  0  0  0
 37 41  1  0  0  0  0
 39 41  2  0  0  0  0
 41 40  1  0  0  0  0
 41 38  1  0  0  0  0
 43 42  1  0  0  0  0
 44 43  1  0  0  0  0
 45 48  1  6  0  0  0
 45 51  1  0  0  0  0
 47 44  1  0  0  0  0
 48 53  1  0  0  0  0
 49 45  1  0  0  0  0
 49 52  1  1  0  0  0
 49 54  1  0  0  0  0
 50 47  2  0  0  0  0
 51 47  1  6  0  0  0
 52 54  1  0  0  0  0
 53 55  1  6  0  0  0
 53 50  1  0  0  0  0
 54 46  1  1  0  0  0
 54 51  1  0  0  0  0
 56 52  2  0  0  0  0
M  END
>  <MODEL>
1

>  <REMARK>
 VINA RESULT:      -6.3      0.000      0.000
  Name = 
  10 active torsions:
  status: ('A' for Active; 'I' for Inactive)
    1  A    between atoms: C_1  and  C_54
    2  A    between atoms: C_4  and  C_44
    3  A    between atoms: C_5  and  C_34
    4  A    between atoms: N_11  and  C_19
    5  A    between atoms: C_13  and  O_23
    6  A    between atoms: C_17  and  N_55
    7  A    between atoms: C_18  and  O_25
    8  A    between atoms: O_23  and  C_40
    9  A    between atoms: O_25  and  P_41
   10  A    between atoms: C_40  and  C_54
                            x       y       z     vdW  Elec       q    Type
                         _______ _______ _______ _____ _____    ______ ____

>  <TORSDO>
F 10

$$$$
=
 OpenBabel11042410583D

 56 64  0  0  1  0  0  0  0  0999 V2000
  191.9040  176.8280  139.7660 C   0  0  1  0  0  3  0  0  0  0  0  0
  186.4530  177.7180  138.1900 C   0  0  2  0  0  3  0  0  0  0  0  0
  189.2050  177.2140  142.6670 C   0  0  1  0  0  3  0  0  0  0  0  0
  187.4450  177.8700  141.3010 C   0  0  2  0  0  3  0  0  0  0  0  0
  187.8760  176.9110  142.2480 O   0  0  0  0  0  0  0  0  0  0  0  0
  185.2900  179.4150  140.3990 S   0  0  0  0  0  0  0  0  0  0  0  0
  185.9150  177.9410  141.2880 C   0  0  0  0  0  2  0  0  0  0  0  0
  191.7930  176.8690  141.6000 S   0  0  0  0  0  0  0  0  0  0  0  0
  188.1860  177.6800  139.9330 C   0  0  1  0  0  3  0  0  0  0  0  0
  189.5510  177.0500  140.2000 C   0  0  2  0  0  3  0  0  0  0  0  0
  190.1310  177.5750  141.4850 C   0  0  1  0  0  3  0  0  0  0  0  0
  184.3380  178.5020  139.0910 C   0  0  1  0  0  3  0  0  0  0  0  0
  185.1070  177.2420  138.6980 C   0  0  1  0  0  3  0  0  0  0  0  0
  185.4840  177.0530  137.2430 C   0  0  0  0  0  2  0  0  0  0  0  0
  190.5970  177.3140  139.1510 C   0  0  0  0  0  2  0  0  0  0  0  0
  187.4500  176.8300  138.8920 C   0  0  0  0  0  2  0  0  0  0  0  0
  191.0500  179.7800  143.7760 O   0  0  0  0  0  0  0  0  0  0  0  0
  189.2630  177.1100  146.0330 N   0  0  0  0  0  0  0  0  0  0  0  0
  191.4790  177.7530  144.8940 C   0  0  0  0  0  2  0  0  0  0  0  0
  190.7090  177.0680  145.9870 C   0  0  0  0  0  0  0  0  0  0  0  0
  187.2150  178.0350  145.1270 C   0  0  0  0  0  2  0  0  0  0  0  0
  189.2140  178.2980  143.7640 C   0  0  2  0  0  3  0  0  0  0  0  0
  191.3990  176.3520  146.8650 C   0  0  0  0  0  2  0  0  0  0  0  0
  190.6120  178.6970  144.1270 C   0  0  0  0  0  0  0  0  0  0  0  0
  188.5240  177.8170  145.0080 C   0  0  0  0  0  0  0  0  0  0  0  0
  188.5520  176.5120  147.1660 C   0  0  0  0  0  2  0  0  0  0  0  0
  188.3590  177.5440  148.2650 C   0  0  0  0  0  1  0  0  0  0  0  0
  182.9340  178.1110  139.6020 C   0  0  1  0  0  3  0  0  0  0  0  0
  181.0580  178.6130  141.0840 C   0  0  2  0  0  3  0  0  0  0  0  0
  182.5940  178.5190  141.0560 C   0  0  2  0  0  3  0  0  0  0  0  0
  180.7320  178.8630  139.6620 C   0  0  0  0  0  0  0  0  0  0  0  0
  183.1540  179.7700  141.3490 O   0  0  0  0  0  1  0  0  0  0  0  0
  181.8250  178.6150  138.7960 N   0  0  0  0  0  0  0  0  0  0  0  0
  179.6040  179.2520  139.2590 O   0  0  0  0  0  0  0  0  0  0  0  0
  181.8430  178.0910  136.4130 C   0  0  0  0  0  1  0  0  0  0  0  0
  181.9200  179.1910  137.4560 C   0  0  0  0  0  2  0  0  0  0  0  0
  180.6190  179.6680  141.8910 O   0  0  0  0  0  0  0  0  0  0  0  0
  179.4140  177.6250  142.9880 O   0  0  0  0  0  0  0  0  0  0  0  0
  178.9310  179.9440  144.0820 O   0  0  0  0  0  1  0  0  0  0  0  0
  181.3700  178.6750  144.3660 O   0  0  0  0  0  1  0  0  0  0  0  0
  180.0650  178.9450  143.3220 P   0  0  0  0  0  0  0  0  0  0  0  0
  193.1090  177.6050  139.2440 C   0  0  0  0  0  2  0  0  0  0  0  0
  193.7330  176.9500  138.0200 C   0  0  0  0  0  2  0  0  0  0  0  0
  193.1730  175.6570  137.8380 O   0  0  0  0  0  0  0  0  0  0  0  0
  195.8680  173.1590  138.7150 N   0  0  1  0  0  0  0  0  0  0  0  0
  196.3760  175.1550  136.1230 C   0  0  0  0  0  1  0  0  0  0  0  0
  193.9610  174.5100  137.7430 C   0  0  0  0  0  0  0  0  0  0  0  0
  195.1060  172.0110  138.1930 C   0  0  0  0  0  2  0  0  0  0  0  0
  196.9320  173.5160  137.7720 C   0  0  2  0  0  3  0  0  0  0  0  0
  193.5680  173.4960  137.0320 N   0  0  0  0  0  0  0  0  0  0  0  0
  195.2880  174.4850  138.4780 C   0  0  2  0  0  3  0  0  0  0  0  0
  197.8300  174.6490  138.2750 C   0  0  0  0  0  0  0  0  0  0  0  0
  194.3950  172.3130  136.8750 C   0  0  2  0  0  3  0  0  0  0  0  0
  196.4690  174.8730  137.6140 C   0  0  2  0  0  0  0  0  0  0  0  0
  193.6070  171.2400  136.5060 F   0  0  0  0  0  0  0  0  0  0  0  0
  198.8470  175.0600  138.8130 O   0  0  0  0  0  0  0  0  0  0  0  0
  1 42  1  1  0  0  0
  1  8  1  0  0  0  0
  2 14  1  6  0  0  0
  2 13  1  0  0  0  0
  2 16  1  0  0  0  0
  3  5  1  6  0  0  0
  3 22  1  0  0  0  0
  4  7  1  6  0  0  0
  4  5  1  0  0  0  0
  6  7  1  0  0  0  0
  9 16  1  6  0  0  0
  9 10  1  0  0  0  0
  9  4  1  0  0  0  0
 10 15  1  6  0  0  0
 10 11  1  0  0  0  0
 11  8  1  1  0  0  0
 11  3  1  0  0  0  0
 12 28  1  0  0  0  0
 12  6  1  1  0  0  0
 13 14  1  6  0  0  0
 13 12  1  0  0  0  0
 15  1  1  0  0  0  0
 17 24  2  0  0  0  0
 18 26  1  0  0  0  0
 19 20  1  0  0  0  0
 20 18  1  0  0  0  0
 20 23  2  0  0  0  0
 22 24  1  1  0  0  0
 22 25  1  0  0  0  0
 24 19  1  0  0  0  0
 25 21  2  0  0  0  0
 25 18  1  0  0  0  0
 26 27  1  0  0  0  0
 28 33  1  6  0  0  0
 28 30  1  0  0  0  0
 29 37  1  1  0  0  0
 30 29  1  0  0  0  0
 30 32  1  6  0  0  0
 31 29  1  0  0  0  0
 33 31  1  0  0  0  0
 34 31  2  0  0  0  0
 35 36  1  0  0  0  0
 36 33  1  0  0  0  0
 37 41  1  0  0  0  0
 38 41  2  0  0  0  0
 41 39  1  0  0  0  0
 41 40  1  0  0  0  0
 43 42  1  0  0  0  0
 44 43  1  0  0  0  0
 45 48  1  6  0  0  0
 47 44  1  0  0  0  0
 49 52  1  1  0  0  0
 49 45  1  0  0  0  0
 50 47  2  0  0  0  0
 51 47  1  6  0  0  0
 51 45  1  0  0  0  0
 52 56  2  0  0  0  0
 53 55  1  1  0  0  0
 53 50  1  0  0  0  0
 53 48  1  0  0  0  0
 54 46  1  6  0  0  0
 54 49  1  0  0  0  0
 54 52  1  0  0  0  0
 54 51  1  0  0  0  0
M  END
>  <MODEL>
2

>  <REMARK>
 VINA RESULT:      -5.9      3.892     10.279
  Name = 
  10 active torsions:
  status: ('A' for Active; 'I' for Inactive)
    1  A    between atoms: C_1  and  C_54
    2  A    between atoms: C_4  and  C_44
    3  A    between atoms: C_5  and  C_34
    4  A    between atoms: N_11  and  C_19
    5  A    between atoms: C_13  and  O_23
    6  A    between atoms: C_17  and  N_55
    7  A    between atoms: C_18  and  O_25
    8  A    between atoms: O_23  and  C_40
    9  A    between atoms: O_25  and  P_41
   10  A    between atoms: C_40  and  C_54
                            x       y       z     vdW  Elec       q    Type
                         _______ _______ _______ _____ _____    ______ ____

>  <TORSDO>
F 10

$$$$
=
 OpenBabel11042410583D

 56 64  0  0  1  0  0  0  0  0999 V2000
  192.2580  175.5100  135.9030 C   0  0  1  0  0  3  0  0  0  0  0  0
  186.6040  176.4650  135.5590 C   0  0  2  0  0  3  0  0  0  0  0  0
  190.3520  176.4210  139.2770 C   0  0  1  0  0  3  0  0  0  0  0  0
  188.3250  176.9780  138.2900 C   0  0  2  0  0  3  0  0  0  0  0  0
  188.9550  176.1340  139.2340 O   0  0  0  0  0  0  0  0  0  0  0  0
  186.0440  178.4990  137.7160 S   0  0  0  0  0  0  0  0  0  0  0  0
  186.8390  177.1270  138.6310 C   0  0  0  0  0  2  0  0  0  0  0  0
  192.5970  175.8020  137.6860 S   0  0  0  0  0  0  0  0  0  0  0  0
  188.7080  176.5690  136.8260 C   0  0  1  0  0  3  0  0  0  0  0  0
  190.0850  175.9110  136.8480 C   0  0  2  0  0  3  0  0  0  0  0  0
  190.9690  176.5720  137.8700 C   0  0  1  0  0  3  0  0  0  0  0  0
  184.7860  177.4700  136.8160 C   0  0  1  0  0  3  0  0  0  0  0  0
  185.4140  176.1300  136.4350 C   0  0  1  0  0  3  0  0  0  0  0  0
  185.4230  175.7300  134.9740 C   0  0  0  0  0  2  0  0  0  0  0  0
  190.8500  175.9780  135.5530 C   0  0  0  0  0  2  0  0  0  0  0  0
  187.7260  175.6280  136.1230 C   0  0  0  0  0  2  0  0  0  0  0  0
  192.8960  178.3370  140.3130 O   0  0  0  0  0  0  0  0  0  0  0  0
  189.9580  177.0310  142.5660 N   0  0  0  0  0  0  0  0  0  0  0  0
  192.3700  176.5820  141.7910 C   0  0  0  0  0  2  0  0  0  0  0  0
  191.2700  176.4690  142.8070 C   0  0  0  0  0  0  0  0  0  0  0  0
  188.5530  178.4060  141.1500 C   0  0  0  0  0  2  0  0  0  0  0  0
  190.6470  177.6400  140.1750 C   0  0  2  0  0  3  0  0  0  0  0  0
  191.5190  175.7610  143.9020 C   0  0  0  0  0  2  0  0  0  0  0  0
  192.0350  177.5840  140.7350 C   0  0  0  0  0  0  0  0  0  0  0  0
  189.6790  177.7170  141.3210 C   0  0  0  0  0  0  0  0  0  0  0  0
  188.9400  176.9850  143.6190 C   0  0  0  0  0  2  0  0  0  0  0  0
  189.2460  178.0230  144.6860 C   0  0  0  0  0  1  0  0  0  0  0  0
  183.5420  177.2240  137.6970 C   0  0  1  0  0  3  0  0  0  0  0  0
  181.8800  178.1440  139.2330 C   0  0  2  0  0  3  0  0  0  0  0  0
  183.3920  178.1300  138.9420 C   0  0  2  0  0  3  0  0  0  0  0  0
  181.3020  177.8230  137.9090 C   0  0  0  0  0  0  0  0  0  0  0  0
  183.8340  179.4280  138.6510 O   0  0  0  0  0  1  0  0  0  0  0  0
  182.2640  177.3270  136.9950 N   0  0  0  0  0  0  0  0  0  0  0  0
  180.0850  177.9690  137.6210 O   0  0  0  0  0  0  0  0  0  0  0  0
  181.7750  175.9650  135.0310 C   0  0  0  0  0  1  0  0  0  0  0  0
  182.0710  177.3610  135.5470 C   0  0  0  0  0  2  0  0  0  0  0  0
  181.4500  179.4000  139.6760 O   0  0  0  0  0  0  0  0  0  0  0  0
  179.9380  177.9680  141.2550 O   0  0  0  0  0  0  0  0  0  0  0  0
  180.0360  180.5210  141.7900 O   0  0  0  0  0  1  0  0  0  0  0  0
  182.1730  178.8400  142.2920 O   0  0  0  0  0  1  0  0  0  0  0  0
  180.8740  179.1530  141.2520 P   0  0  0  0  0  0  0  0  0  0  0  0
  193.3140  176.1470  135.0040 C   0  0  0  0  0  2  0  0  0  0  0  0
  194.4420  175.1830  134.6650 C   0  0  0  0  0  2  0  0  0  0  0  0
  194.2570  173.9690  135.3790 O   0  0  0  0  0  0  0  0  0  0  0  0
  196.7990  172.6580  137.8470 N   0  0  1  0  0  0  0  0  0  0  0  0
  197.8200  174.8230  135.5600 C   0  0  0  0  0  1  0  0  0  0  0  0
  195.3280  173.2190  135.8650 C   0  0  0  0  0  0  0  0  0  0  0  0
  196.8770  171.3330  137.2060 C   0  0  0  0  0  2  0  0  0  0  0  0
  197.9880  173.4430  137.5040 C   0  0  2  0  0  3  0  0  0  0  0  0
  195.7450  172.1690  135.2220 N   0  0  0  0  0  0  0  0  0  0  0  0
  195.9970  173.6690  137.1500 C   0  0  2  0  0  3  0  0  0  0  0  0
  198.0320  174.8070  138.1980 C   0  0  0  0  0  0  0  0  0  0  0  0
  196.8910  171.4040  135.6810 C   0  0  2  0  0  3  0  0  0  0  0  0
  197.2270  174.5240  136.9280 C   0  0  2  0  0  0  0  0  0  0  0  0
  196.8430  170.1310  135.1470 F   0  0  0  0  0  0  0  0  0  0  0  0
  198.4050  175.5490  139.0920 O   0  0  0  0  0  0  0  0  0  0  0  0
  1 42  1  6  0  0  0
  1  8  1  0  0  0  0
  2 14  1  6  0  0  0
  2 16  1  0  0  0  0
  2 13  1  0  0  0  0
  3  5  1  6  0  0  0
  3 22  1  0  0  0  0
  4  7  1  6  0  0  0
  4  5  1  0  0  0  0
  6  7  1  0  0  0  0
  9 16  1  1  0  0  0
  9 10  1  0  0  0  0
  9  4  1  0  0  0  0
 10 15  1  6  0  0  0
 10 11  1  0  0  0  0
 11  8  1  1  0  0  0
 11  3  1  0  0  0  0
 12 28  1  0  0  0  0
 12  6  1  1  0  0  0
 13 14  1  6  0  0  0
 13 12  1  0  0  0  0
 15  1  1  0  0  0  0
 17 24  2  0  0  0  0
 18 20  1  0  0  0  0
 18 26  1  0  0  0  0
 19 20  1  0  0  0  0
 20 23  2  0  0  0  0
 21 25  2  0  0  0  0
 22 24  1  1  0  0  0
 22 25  1  0  0  0  0
 24 19  1  0  0  0  0
 25 18  1  0  0  0  0
 26 27  1  0  0  0  0
 28 33  1  6  0  0  0
 28 30  1  0  0  0  0
 29 37  1  6  0  0  0
 30 32  1  6  0  0  0
 30 29  1  0  0  0  0
 31 29  1  0  0  0  0
 33 31  1  0  0  0  0
 34 31  2  0  0  0  0
 35 36  1  0  0  0  0
 36 33  1  0  0  0  0
 37 41  1  0  0  0  0
 41 38  2  0  0  0  0
 41 39  1  0  0  0  0
 41 40  1  0  0  0  0
 43 42  1  0  0  0  0
 43 44  1  0  0  0  0
 44 47  1  0  0  0  0
 45 48  1  6  0  0  0
 49 45  1  0  0  0  0
 49 52  1  1  0  0  0
 50 53  1  0  0  0  0
 50 47  2  0  0  0  0
 51 47  1  6  0  0  0
 51 45  1  0  0  0  0
 52 56  2  0  0  0  0
 53 55  1  6  0  0  0
 53 48  1  0  0  0  0
 54 46  1  6  0  0  0
 54 51  1  0  0  0  0
 54 49  1  0  0  0  0
 54 52  1  0  0  0  0
M  END
>  <MODEL>
3

>  <REMARK>
 VINA RESULT:      -5.8      4.289     10.827
  Name = 
  10 active torsions:
  status: ('A' for Active; 'I' for Inactive)
    1  A    between atoms: C_1  and  C_54
    2  A    between atoms: C_4  and  C_44
    3  A    between atoms: C_5  and  C_34
    4  A    between atoms: N_11  and  C_19
    5  A    between atoms: C_13  and  O_23
    6  A    between atoms: C_17  and  N_55
    7  A    between atoms: C_18  and  O_25
    8  A    between atoms: O_23  and  C_40
    9  A    between atoms: O_25  and  P_41
   10  A    between atoms: C_40  and  C_54
                            x       y       z     vdW  Elec       q    Type
                         _______ _______ _______ _____ _____    ______ ____

>  <TORSDO>
F 10

$$$$
=
 OpenBabel11042410583D

 56 64  0  0  1  0  0  0  0  0999 V2000
  185.5510  179.0110  140.8260 C   0  0  1  0  0  3  0  0  0  0  0  0
  188.8650  176.8610  136.6550 C   0  0  2  0  0  3  0  0  0  0  0  0
  189.3350  178.1820  141.7450 C   0  0  1  0  0  3  0  0  0  0  0  0
  189.8520  177.0870  139.7630 C   0  0  2  0  0  3  0  0  0  0  0  0
  190.2020  178.1630  140.6130 O   0  0  0  0  0  0  0  0  0  0  0  0
  190.8180  175.0620  138.0880 S   0  0  0  0  0  0  0  0  0  0  0  0
  191.0580  176.6790  138.9120 C   0  0  0  0  0  2  0  0  0  0  0  0
  186.6970  179.0370  142.2630 S   0  0  0  0  0  0  0  0  0  0  0  0
  188.4940  177.3680  139.0320 C   0  0  1  0  0  3  0  0  0  0  0  0
  187.6520  178.2960  139.9040 C   0  0  2  0  0  3  0  0  0  0  0  0
  187.8540  177.9760  141.3610 C   0  0  1  0  0  3  0  0  0  0  0  0
  190.9610  175.6760  136.3400 C   0  0  1  0  0  3  0  0  0  0  0  0
  190.3090  177.0540  136.2390 C   0  0  1  0  0  3  0  0  0  0  0  0
  189.1920  177.2490  135.2330 C   0  0  0  0  0  2  0  0  0  0  0  0
  186.1670  178.2180  139.6780 C   0  0  0  0  0  2  0  0  0  0  0  0
  188.6090  177.9810  137.6330 C   0  0  0  0  0  2  0  0  0  0  0  0
  189.0780  174.9500  142.5830 O   0  0  0  0  0  0  0  0  0  0  0  0
  188.8670  177.9770  145.0740 N   0  0  0  0  0  0  0  0  0  0  0  0
  187.4970  176.3320  143.6470 C   0  0  0  0  0  2  0  0  0  0  0  0
  187.6470  177.2360  144.8370 C   0  0  0  0  0  0  0  0  0  0  0  0
  191.1720  178.3740  144.4420 C   0  0  0  0  0  2  0  0  0  0  0  0
  189.7990  177.1830  142.8240 C   0  0  2  0  0  3  0  0  0  0  0  0
  186.5870  177.3960  145.6200 C   0  0  0  0  0  2  0  0  0  0  0  0
  188.8150  176.0670  142.9960 C   0  0  0  0  0  0  0  0  0  0  0  0
  189.9780  177.8610  144.1520 C   0  0  0  0  0  0  0  0  0  0  0  0
  189.0110  178.7740  146.2960 C   0  0  0  0  0  2  0  0  0  0  0  0
  189.2200  177.8600  147.4920 C   0  0  0  0  0  1  0  0  0  0  0  0
  192.4410  175.7720  135.9080 C   0  0  1  0  0  3  0  0  0  0  0  0
  194.7910  175.4480  136.4890 C   0  0  2  0  0  3  0  0  0  0  0  0
  193.4710  176.0210  137.0360 C   0  0  2  0  0  3  0  0  0  0  0  0
  194.3170  174.4580  135.4970 C   0  0  0  0  0  0  0  0  0  0  0  0
  193.0930  175.3290  138.1950 O   0  0  0  0  0  1  0  0  0  0  0  0
  192.9440  174.6090  135.1820 N   0  0  0  0  0  0  0  0  0  0  0  0
  195.0520  173.5750  134.9810 O   0  0  0  0  0  0  0  0  0  0  0  0
  191.9790  172.4110  135.6150 C   0  0  0  0  0  1  0  0  0  0  0  0
  192.1410  173.5330  134.6060 C   0  0  0  0  0  2  0  0  0  0  0  0
  195.5410  174.8290  137.4950 O   0  0  0  0  0  0  0  0  0  0  0  0
  197.2590  176.2050  136.0860 O   0  0  0  0  0  0  0  0  0  0  0  0
  197.7570  173.6520  136.2980 O   0  0  0  0  0  1  0  0  0  0  0  0
  198.0910  175.3860  138.4240 O   0  0  0  0  0  1  0  0  0  0  0  0
  197.1630  175.0470  137.0500 P   0  0  0  0  0  0  0  0  0  0  0  0
  184.1660  178.4940  141.2030 C   0  0  0  0  0  2  0  0  0  0  0  0
  183.4600  177.8270  140.0320 C   0  0  0  0  0  2  0  0  0  0  0  0
  182.7950  178.8150  139.2560 O   0  0  0  0  0  0  0  0  0  0  0  0
  180.0850  180.2400  141.4690 N   0  0  1  0  0  0  0  0  0  0  0  0
  179.8140  177.0830  140.5110 C   0  0  0  0  0  1  0  0  0  0  0  0
  181.5500  179.3320  139.6160 C   0  0  0  0  0  0  0  0  0  0  0  0
  179.4890  181.0400  140.3840 C   0  0  0  0  0  2  0  0  0  0  0  0
  179.2530  179.0610  141.7280 C   0  0  2  0  0  3  0  0  0  0  0  0
  180.7420  179.7960  138.7110 N   0  0  0  0  0  0  0  0  0  0  0  0
  181.1650  179.3260  141.0830 C   0  0  2  0  0  3  0  0  0  0  0  0
  179.7540  178.2150  142.9020 C   0  0  0  0  0  0  0  0  0  0  0  0
  179.4210  180.2910  139.0550 C   0  0  2  0  0  3  0  0  0  0  0  0
  180.3280  178.1300  141.4870 C   0  0  2  0  0  0  0  0  0  0  0  0
  178.9660  181.1340  138.0590 F   0  0  0  0  0  0  0  0  0  0  0  0
  179.7290  177.8790  144.0750 O   0  0  0  0  0  0  0  0  0  0  0  0
  1 42  1  1  0  0  0
  1  8  1  0  0  0  0
  2 14  1  6  0  0  0
  2 16  1  0  0  0  0
  3  5  1  6  0  0  0
  3 22  1  0  0  0  0
  4  7  1  6  0  0  0
  4  5  1  0  0  0  0
  6  7  1  0  0  0  0
  9 16  1  6  0  0  0
  9  4  1  0  0  0  0
  9 10  1  0  0  0  0
 10 15  1  6  0  0  0
 10 11  1  0  0  0  0
 11  3  1  0  0  0  0
 11  8  1  1  0  0  0
 12  6  1  1  0  0  0
 13 14  1  6  0  0  0
 13 12  1  0  0  0  0
 13  2  1  0  0  0  0
 15  1  1  0  0  0  0
 17 24  2  0  0  0  0
 18 26  1  0  0  0  0
 19 20  1  0  0  0  0
 20 18  1  0  0  0  0
 20 23  2  0  0  0  0
 22 24  1  1  0  0  0
 22 25  1  0  0  0  0
 24 19  1  0  0  0  0
 25 21  2  0  0  0  0
 25 18  1  0  0  0  0
 26 27  1  0  0  0  0
 28 33  1  1  0  0  0
 28 12  1  0  0  0  0
 28 30  1  0  0  0  0
 29 30  1  0  0  0  0
 29 37  1  1  0  0  0
 30 32  1  1  0  0  0
 31 29  1  0  0  0  0
 33 31  1  0  0  0  0
 34 31  2  0  0  0  0
 36 33  1  0  0  0  0
 36 35  1  0  0  0  0
 38 41  2  0  0  0  0
 39 41  1  0  0  0  0
 41 37  1  0  0  0  0
 41 40  1  0  0  0  0
 43 42  1  0  0  0  0
 44 47  1  0  0  0  0
 44 43  1  0  0  0  0
 45 48  1  6  0  0  0
 45 49  1  0  0  0  0
 49 52  1  1  0  0  0
 50 53  1  0  0  0  0
 50 47  2  0  0  0  0
 51 47  1  6  0  0  0
 51 45  1  0  0  0  0
 51 54  1  0  0  0  0
 52 56  2  0  0  0  0
 53 55  1  6  0  0  0
 53 48  1  0  0  0  0
 54 46  1  6  0  0  0
 54 49  1  0  0  0  0
 54 52  1  0  0  0  0
M  END
>  <MODEL>
4

>  <REMARK>
 VINA RESULT:      -5.6      2.255      3.312
  Name = 
  10 active torsions:
  status: ('A' for Active; 'I' for Inactive)
    1  A    between atoms: C_1  and  C_54
    2  A    between atoms: C_4  and  C_44
    3  A    between atoms: C_5  and  C_34
    4  A    between atoms: N_11  and  C_19
    5  A    between atoms: C_13  and  O_23
    6  A    between atoms: C_17  and  N_55
    7  A    between atoms: C_18  and  O_25
    8  A    between atoms: O_23  and  C_40
    9  A    between atoms: O_25  and  P_41
   10  A    between atoms: C_40  and  C_54
                            x       y       z     vdW  Elec       q    Type
                         _______ _______ _______ _____ _____    ______ ____

>  <TORSDO>
F 10

$$$$
=
 OpenBabel11042410583D

 56 64  0  0  1  0  0  0  0  0999 V2000
  185.6970  179.0380  141.0810 C   0  0  1  0  0  3  0  0  0  0  0  0
  189.0090  176.9210  136.8930 C   0  0  2  0  0  3  0  0  0  0  0  0
  189.4800  178.1960  141.9940 C   0  0  1  0  0  3  0  0  0  0  0  0
  189.9960  177.1190  140.0030 C   0  0  2  0  0  3  0  0  0  0  0  0
  190.3470  178.1860  140.8620 O   0  0  0  0  0  0  0  0  0  0  0  0
  190.9600  175.1070  138.3100 S   0  0  0  0  0  0  0  0  0  0  0  0
  191.2020  176.7160  139.1490 C   0  0  0  0  0  2  0  0  0  0  0  0
  186.8430  179.0500  142.5180 S   0  0  0  0  0  0  0  0  0  0  0  0
  188.6390  177.4070  139.2740 C   0  0  1  0  0  3  0  0  0  0  0  0
  187.7970  178.3280  140.1540 C   0  0  2  0  0  3  0  0  0  0  0  0
  187.9990  177.9960  141.6080 C   0  0  1  0  0  3  0  0  0  0  0  0
  191.1040  175.7360  136.5680 C   0  0  1  0  0  3  0  0  0  0  0  0
  190.4530  177.1160  136.4780 C   0  0  1  0  0  3  0  0  0  0  0  0
  189.3380  177.3210  135.4740 C   0  0  0  0  0  2  0  0  0  0  0  0
  186.3120  178.2540  139.9270 C   0  0  0  0  0  2  0  0  0  0  0  0
  188.7550  178.0330  137.8800 C   0  0  0  0  0  2  0  0  0  0  0  0
  189.3490  174.9300  142.7210 O   0  0  0  0  0  0  0  0  0  0  0  0
  188.8640  177.8600  145.2880 N   0  0  0  0  0  0  0  0  0  0  0  0
  187.6500  176.1960  143.7460 C   0  0  0  0  0  2  0  0  0  0  0  0
  187.6960  177.0670  144.9690 C   0  0  0  0  0  0  0  0  0  0  0  0
  191.1720  178.3930  144.7840 C   0  0  0  0  0  2  0  0  0  0  0  0
  189.9420  177.1870  143.0640 C   0  0  2  0  0  3  0  0  0  0  0  0
  186.5930  177.1490  145.7020 C   0  0  0  0  0  2  0  0  0  0  0  0
  189.0090  176.0180  143.1530 C   0  0  0  0  0  0  0  0  0  0  0  0
  190.0220  177.8300  144.4190 C   0  0  0  0  0  0  0  0  0  0  0  0
  188.9070  178.6230  146.5380 C   0  0  0  0  0  2  0  0  0  0  0  0
  189.3560  177.7270  147.6810 C   0  0  0  0  0  1  0  0  0  0  0  0
  192.5840  175.8350  136.1370 C   0  0  1  0  0  3  0  0  0  0  0  0
  194.9270  175.3940  136.6680 C   0  0  2  0  0  3  0  0  0  0  0  0
  193.6250  175.9460  137.2760 C   0  0  2  0  0  3  0  0  0  0  0  0
  194.4230  174.5160  135.5890 C   0  0  0  0  0  0  0  0  0  0  0  0
  193.2340  175.1560  138.3660 O   0  0  0  0  0  1  0  0  0  0  0  0
  193.0530  174.7340  135.2990 N   0  0  0  0  0  0  0  0  0  0  0  0
  195.1310  173.6680  134.9850 O   0  0  0  0  0  0  0  0  0  0  0  0
  191.8570  172.6280  135.5960 C   0  0  0  0  0  1  0  0  0  0  0  0
  192.2180  173.7390  134.6280 C   0  0  0  0  0  2  0  0  0  0  0  0
  195.6650  174.6610  137.6050 O   0  0  0  0  0  0  0  0  0  0  0  0
  197.9780  173.7500  136.7970 O   0  0  0  0  0  1  0  0  0  0  0  0
  198.0670  175.5670  138.6690 O   0  0  0  0  0  1  0  0  0  0  0  0
  197.3870  176.1880  136.0620 O   0  0  0  0  0  0  0  0  0  0  0  0
  197.2910  175.0080  137.2730 P   0  0  0  0  0  0  0  0  0  0  0  0
  184.3110  178.5190  141.4540 C   0  0  0  0  0  2  0  0  0  0  0  0
  183.3820  178.4370  140.2510 C   0  0  0  0  0  2  0  0  0  0  0  0
  182.5100  177.3260  140.4020 O   0  0  0  0  0  0  0  0  0  0  0  0
  183.0380  174.7900  137.6520 N   0  0  1  0  0  0  0  0  0  0  0  0
  182.6040  177.9570  136.7880 C   0  0  0  0  0  1  0  0  0  0  0  0
  182.1960  176.4760  139.3410 C   0  0  0  0  0  0  0  0  0  0  0  0
  181.6840  174.2230  137.7860 C   0  0  0  0  0  2  0  0  0  0  0  0
  183.1010  175.6420  136.4610 C   0  0  2  0  0  3  0  0  0  0  0  0
  180.9640  176.1260  139.1180 N   0  0  0  0  0  0  0  0  0  0  0  0
  183.3230  175.9840  138.4540 C   0  0  2  0  0  3  0  0  0  0  0  0
  184.4990  176.2070  136.1950 C   0  0  0  0  0  0  0  0  0  0  0  0
  180.6070  175.2850  137.9890 C   0  0  2  0  0  3  0  0  0  0  0  0
  183.5140  176.8100  137.1990 C   0  0  2  0  0  0  0  0  0  0  0  0
  179.3860  174.6830  138.2270 F   0  0  0  0  0  0  0  0  0  0  0  0
  185.5810  176.1840  135.6300 O   0  0  0  0  0  0  0  0  0  0  0  0
  1 42  1  1  0  0  0
  1  8  1  0  0  0  0
  2 14  1  6  0  0  0
  2 16  1  0  0  0  0
  3  5  1  6  0  0  0
  3 22  1  0  0  0  0
  4  7  1  6  0  0  0
  4  5  1  0  0  0  0
  6  7  1  0  0  0  0
  9 16  1  6  0  0  0
  9  4  1  0  0  0  0
  9 10  1  0  0  0  0
 10 15  1  6  0  0  0
 10 11  1  0  0  0  0
 11  3  1  0  0  0  0
 11  8  1  1  0  0  0
 12  6  1  1  0  0  0
 13 14  1  6  0  0  0
 13 12  1  0  0  0  0
 13  2  1  0  0  0  0
 15  1  1  0  0  0  0
 17 24  2  0  0  0  0
 18 26  1  0  0  0  0
 19 20  1  0  0  0  0
 20 18  1  0  0  0  0
 20 23  2  0  0  0  0
 22 24  1  1  0  0  0
 22 25  1  0  0  0  0
 24 19  1  0  0  0  0
 25 21  2  0  0  0  0
 25 18  1  0  0  0  0
 26 27  1  0  0  0  0
 28 33  1  1  0  0  0
 28 12  1  0  0  0  0
 28 30  1  0  0  0  0
 29 30  1  0  0  0  0
 29 37  1  1  0  0  0
 30 32  1  1  0  0  0
 31 29  1  0  0  0  0
 33 31  1  0  0  0  0
 34 31  2  0  0  0  0
 36 33  1  0  0  0  0
 36 35  1  0  0  0  0
 38 41  1  0  0  0  0
 40 41  2  0  0  0  0
 41 37  1  0  0  0  0
 41 39  1  0  0  0  0
 43 44  1  0  0  0  0
 43 42  1  0  0  0  0
 45 48  1  1  0  0  0
 45 51  1  0  0  0  0
 47 44  1  0  0  0  0
 48 53  1  0  0  0  0
 49 52  1  6  0  0  0
 49 54  1  0  0  0  0
 49 45  1  0  0  0  0
 50 47  2  0  0  0  0
 51 47  1  1  0  0  0
 52 54  1  0  0  0  0
 53 55  1  1  0  0  0
 53 50  1  0  0  0  0
 54 46  1  6  0  0  0
 54 51  1  0  0  0  0
 56 52  2  0  0  0  0
M  END
>  <MODEL>
5

>  <REMARK>
 VINA RESULT:      -5.6      1.798      2.422
  Name = 
  10 active torsions:
  status: ('A' for Active; 'I' for Inactive)
    1  A    between atoms: C_1  and  C_54
    2  A    between atoms: C_4  and  C_44
    3  A    between atoms: C_5  and  C_34
    4  A    between atoms: N_11  and  C_19
    5  A    between atoms: C_13  and  O_23
    6  A    between atoms: C_17  and  N_55
    7  A    between atoms: C_18  and  O_25
    8  A    between atoms: O_23  and  C_40
    9  A    between atoms: O_25  and  P_41
   10  A    between atoms: C_40  and  C_54
                            x       y       z     vdW  Elec       q    Type
                         _______ _______ _______ _____ _____    ______ ____

>  <TORSDO>
F 10

$$$$
=
 OpenBabel11042410583D

 56 64  0  0  1  0  0  0  0  0999 V2000
  189.9650  177.5370  140.7990 C   0  0  1  0  0  3  0  0  0  0  0  0
  184.3450  178.4540  141.5560 C   0  0  2  0  0  3  0  0  0  0  0  0
  187.7700  178.2100  137.5460 C   0  0  1  0  0  3  0  0  0  0  0  0
  185.7040  178.1210  138.6020 C   0  0  2  0  0  3  0  0  0  0  0  0
  186.5640  178.9220  137.8140 O   0  0  0  0  0  0  0  0  0  0  0  0
  183.0520  177.3470  139.0640 S   0  0  0  0  0  0  0  0  0  0  0  0
  184.2510  178.5650  138.4070 C   0  0  0  0  0  2  0  0  0  0  0  0
  190.1320  177.6190  138.9710 S   0  0  0  0  0  0  0  0  0  0  0  0
  186.2450  177.9890  140.0670 C   0  0  1  0  0  3  0  0  0  0  0  0
  187.7640  178.1360  140.0420 C   0  0  2  0  0  3  0  0  0  0  0  0
  188.3340  177.5060  138.8000 C   0  0  1  0  0  3  0  0  0  0  0  0
  182.2570  178.4660  140.3160 C   0  0  1  0  0  3  0  0  0  0  0  0
  183.3230  179.3760  140.9240 C   0  0  1  0  0  3  0  0  0  0  0  0
  183.5100  179.3620  142.4270 C   0  0  0  0  0  2  0  0  0  0  0  0
  188.4920  177.4890  141.1890 C   0  0  0  0  0  2  0  0  0  0  0  0
  185.6720  178.9880  141.0780 C   0  0  0  0  0  2  0  0  0  0  0  0
  185.9910  175.5280  136.6210 O   0  0  0  0  0  0  0  0  0  0  0  0
  189.8340  176.0420  136.0020 N   0  0  0  0  0  0  0  0  0  0  0  0
  188.0800  174.9970  137.5680 C   0  0  0  0  0  2  0  0  0  0  0  0
  189.4540  175.0280  136.9610 C   0  0  0  0  0  0  0  0  0  0  0  0
  189.1380  177.8870  134.5950 C   0  0  0  0  0  2  0  0  0  0  0  0
  187.5970  177.2370  136.3630 C   0  0  2  0  0  3  0  0  0  0  0  0
  190.3350  174.1380  137.4010 C   0  0  0  0  0  2  0  0  0  0  0  0
  187.1380  175.8880  136.8260 C   0  0  0  0  0  0  0  0  0  0  0  0
  188.8850  177.0630  135.6100 C   0  0  0  0  0  0  0  0  0  0  0  0
  191.1500  175.9830  135.3610 C   0  0  0  0  0  2  0  0  0  0  0  0
  192.2320  176.3760  136.3540 C   0  0  0  0  0  1  0  0  0  0  0  0
  181.1530  179.3280  139.6650 C   0  0  1  0  0  3  0  0  0  0  0  0
  180.5760  181.1100  138.0970 C   0  0  2  0  0  3  0  0  0  0  0  0
  181.5670  180.7510  139.2190 C   0  0  2  0  0  3  0  0  0  0  0  0
  180.1560  179.7780  137.6100 C   0  0  0  0  0  0  0  0  0  0  0  0
  182.8750  180.7380  138.7150 O   0  0  0  0  0  1  0  0  0  0  0  0
  180.5210  178.7300  138.4910 N   0  0  0  0  0  0  0  0  0  0  0  0
  179.5350  179.5890  136.5300 O   0  0  0  0  0  0  0  0  0  0  0  0
  179.3560  176.5880  138.3970 C   0  0  0  0  0  1  0  0  0  0  0  0
  180.6330  177.3370  138.0620 C   0  0  0  0  0  2  0  0  0  0  0  0
  181.1930  181.8440  137.0780 O   0  0  0  0  0  0  0  0  0  0  0  0
  179.6280  183.4800  138.3830 O   0  0  0  0  0  1  0  0  0  0  0  0
  179.6140  183.7320  135.7860 O   0  0  0  0  0  0  0  0  0  0  0  0
  181.7660  184.5440  137.3200 O   0  0  0  0  0  1  0  0  0  0  0  0
  180.5260  183.4010  137.1720 P   0  0  0  0  0  0  0  0  0  0  0  0
  190.7550  176.3780  141.3990 C   0  0  0  0  0  2  0  0  0  0  0  0
  191.7480  176.8410  142.4560 C   0  0  0  0  0  2  0  0  0  0  0  0
  191.6780  175.9770  143.5810 O   0  0  0  0  0  0  0  0  0  0  0  0
  189.0320  176.4810  146.2300 N   0  0  1  0  0  0  0  0  0  0  0  0
  189.9830  179.1100  144.4570 C   0  0  0  0  0  1  0  0  0  0  0  0
  191.1130  176.3740  144.7930 C   0  0  0  0  0  0  0  0  0  0  0  0
  189.9930  176.3810  147.3430 C   0  0  0  0  0  2  0  0  0  0  0  0
  188.6600  177.8840  146.0250 C   0  0  2  0  0  3  0  0  0  0  0  0
  191.8670  176.6470  145.8160 N   0  0  0  0  0  0  0  0  0  0  0  0
  189.6030  176.4910  144.8800 C   0  0  2  0  0  3  0  0  0  0  0  0
  187.5970  178.0740  144.9390 C   0  0  0  0  0  0  0  0  0  0  0  0
  191.3050  177.1130  147.0710 C   0  0  2  0  0  3  0  0  0  0  0  0
  189.0880  177.8960  144.6470 C   0  0  2  0  0  0  0  0  0  0  0  0
  192.2010  176.8780  148.0960 F   0  0  0  0  0  0  0  0  0  0  0  0
  186.4400  178.2280  144.5800 O   0  0  0  0  0  0  0  0  0  0  0  0
  1 15  1  0  0  0  0
  1 42  1  6  0  0  0
  2 16  1  6  0  0  0
  2 14  1  0  0  0  0
  3  5  1  1  0  0  0
  3 11  1  0  0  0  0
  4  7  1  1  0  0  0
  4  9  1  0  0  0  0
  5  4  1  0  0  0  0
  7  6  1  0  0  0  0
  8  1  1  0  0  0  0
  9 16  1  1  0  0  0
 10  9  1  0  0  0  0
 10 15  1  1  0  0  0
 11  8  1  1  0  0  0
 11 10  1  0  0  0  0
 12  6  1  6  0  0  0
 12 13  1  0  0  0  0
 13  2  1  0  0  0  0
 13 14  1  1  0  0  0
 17 24  2  0  0  0  0
 18 20  1  0  0  0  0
 20 23  2  0  0  0  0
 20 19  1  0  0  0  0
 21 25  2  0  0  0  0
 22 25  1  1  0  0  0
 22 24  1  0  0  0  0
 22  3  1  0  0  0  0
 24 19  1  0  0  0  0
 25 18  1  0  0  0  0
 26 18  1  0  0  0  0
 26 27  1  0  0  0  0
 28 33  1  6  0  0  0
 28 12  1  0  0  0  0
 29 37  1  6  0  0  0
 29 30  1  0  0  0  0
 30 32  1  6  0  0  0
 30 28  1  0  0  0  0
 31 29  1  0  0  0  0
 31 33  1  0  0  0  0
 34 31  2  0  0  0  0
 36 35  1  0  0  0  0
 36 33  1  0  0  0  0
 37 41  1  0  0  0  0
 39 41  2  0  0  0  0
 41 40  1  0  0  0  0
 41 38  1  0  0  0  0
 42 43  1  0  0  0  0
 43 44  1  0  0  0  0
 44 47  1  0  0  0  0
 45 48  1  1  0  0  0
 47 50  2  0  0  0  0
 49 52  1  6  0  0  0
 49 45  1  0  0  0  0
 50 53  1  0  0  0  0
 51 47  1  1  0  0  0
 51 45  1  0  0  0  0
 53 48  1  0  0  0  0
 53 55  1  1  0  0  0
 54 46  1  6  0  0  0
 54 51  1  0  0  0  0
 54 52  1  0  0  0  0
 54 49  1  0  0  0  0
 56 52  2  0  0  0  0
M  END
>  <MODEL>
6

>  <REMARK>
 VINA RESULT:      -5.5      4.399     10.722
  Name = 
  10 active torsions:
  status: ('A' for Active; 'I' for Inactive)
    1  A    between atoms: C_1  and  C_54
    2  A    between atoms: C_4  and  C_44
    3  A    between atoms: C_5  and  C_34
    4  A    between atoms: N_11  and  C_19
    5  A    between atoms: C_13  and  O_23
    6  A    between atoms: C_17  and  N_55
    7  A    between atoms: C_18  and  O_25
    8  A    between atoms: O_23  and  C_40
    9  A    between atoms: O_25  and  P_41
   10  A    between atoms: C_40  and  C_54
                            x       y       z     vdW  Elec       q    Type
                         _______ _______ _______ _____ _____    ______ ____

>  <TORSDO>
F 10

$$$$
=
 OpenBabel11042410583D

 56 64  0  0  1  0  0  0  0  0999 V2000
  191.9770  176.9570  140.0260 C   0  0  1  0  0  3  0  0  0  0  0  0
  186.5450  177.7550  138.3400 C   0  0  2  0  0  3  0  0  0  0  0  0
  189.2050  177.2260  142.8700 C   0  0  1  0  0  3  0  0  0  0  0  0
  187.4620  177.8680  141.4750 C   0  0  2  0  0  3  0  0  0  0  0  0
  187.8930  176.9010  142.4140 O   0  0  0  0  0  0  0  0  0  0  0  0
  185.2940  179.3820  140.5520 S   0  0  0  0  0  0  0  0  0  0  0  0
  185.9310  177.9060  141.4280 C   0  0  0  0  0  2  0  0  0  0  0  0
  191.8240  176.9600  141.8570 S   0  0  0  0  0  0  0  0  0  0  0  0
  188.2380  177.7220  140.1210 C   0  0  1  0  0  3  0  0  0  0  0  0
  189.6110  177.1180  140.4080 C   0  0  2  0  0  3  0  0  0  0  0  0
  190.1480  177.6310  141.7170 C   0  0  1  0  0  3  0  0  0  0  0  0
  184.3920  178.4730  139.2060 C   0  0  1  0  0  3  0  0  0  0  0  0
  185.1990  177.2380  138.8070 C   0  0  1  0  0  3  0  0  0  0  0  0
  185.6130  177.0870  137.3580 C   0  0  0  0  0  2  0  0  0  0  0  0
  190.6740  177.4260  139.3890 C   0  0  0  0  0  2  0  0  0  0  0  0
  187.5450  176.8760  139.0480 C   0  0  0  0  0  2  0  0  0  0  0  0
  190.9390  179.8410  144.0390 O   0  0  0  0  0  0  0  0  0  0  0  0
  189.2460  177.0600  146.2330 N   0  0  0  0  0  0  0  0  0  0  0  0
  191.4410  177.8120  145.1220 C   0  0  0  0  0  2  0  0  0  0  0  0
  190.6920  177.0770  146.1970 C   0  0  0  0  0  0  0  0  0  0  0  0
  187.1690  177.9200  145.3310 C   0  0  0  0  0  2  0  0  0  0  0  0
  189.1640  178.2880  143.9870 C   0  0  2  0  0  3  0  0  0  0  0  0
  191.4060  176.3720  147.0650 C   0  0  0  0  0  2  0  0  0  0  0  0
  190.5420  178.7350  144.3670 C   0  0  0  0  0  0  0  0  0  0  0  0
  188.4850  177.7570  145.2170 C   0  0  0  0  0  0  0  0  0  0  0  0
  188.5520  176.4120  147.3500 C   0  0  0  0  0  2  0  0  0  0  0  0
  188.2450  177.4320  148.4340 C   0  0  0  0  0  1  0  0  0  0  0  0
  182.9860  178.0400  139.6770 C   0  0  1  0  0  3  0  0  0  0  0  0
  181.0320  178.5160  141.0620 C   0  0  2  0  0  3  0  0  0  0  0  0
  182.5700  178.4880  141.0980 C   0  0  2  0  0  3  0  0  0  0  0  0
  180.7540  178.6980  139.6200 C   0  0  0  0  0  0  0  0  0  0  0  0
  183.0650  179.7730  141.3630 O   0  0  0  0  0  1  0  0  0  0  0  0
  181.8910  178.4650  138.8080 N   0  0  0  0  0  0  0  0  0  0  0  0
  179.6280  179.0210  139.1570 O   0  0  0  0  0  0  0  0  0  0  0  0
  181.9850  177.8550  136.4470 C   0  0  0  0  0  1  0  0  0  0  0  0
  182.0160  178.9930  137.4510 C   0  0  0  0  0  2  0  0  0  0  0  0
  180.5160  179.5810  141.8090 O   0  0  0  0  0  0  0  0  0  0  0  0
  179.1170  179.7680  144.0080 O   0  0  0  0  0  1  0  0  0  0  0  0
  181.5900  178.9880  144.3030 O   0  0  0  0  0  1  0  0  0  0  0  0
  179.6610  177.3420  143.2010 O   0  0  0  0  0  0  0  0  0  0  0  0
  180.1950  178.9430  143.3470 P   0  0  0  0  0  0  0  0  0  0  0  0
  193.1750  177.7710  139.5470 C   0  0  0  0  0  2  0  0  0  0  0  0
  194.4430  176.9340  139.4530 C   0  0  0  0  0  2  0  0  0  0  0  0
  194.1680  175.7380  138.7380 O   0  0  0  0  0  0  0  0  0  0  0  0
  193.0750  176.0260  135.1330 N   0  0  1  0  0  0  0  0  0  0  0  0
  193.2300  173.0050  136.4770 C   0  0  0  0  0  1  0  0  0  0  0  0
  194.2480  175.6660  137.3460 C   0  0  0  0  0  0  0  0  0  0  0  0
  194.4350  176.3170  134.6450 C   0  0  0  0  0  2  0  0  0  0  0  0
  192.7210  174.6410  134.8110 C   0  0  2  0  0  3  0  0  0  0  0  0
  195.4020  175.5870  136.7540 N   0  0  0  0  0  0  0  0  0  0  0  0
  192.9570  175.6700  136.5500 C   0  0  2  0  0  3  0  0  0  0  0  0
  191.2880  174.2760  135.2070 C   0  0  0  0  0  0  0  0  0  0  0  0
  195.5080  175.4580  135.3120 C   0  0  2  0  0  3  0  0  0  0  0  0
  192.4640  174.2850  136.1850 C   0  0  2  0  0  0  0  0  0  0  0  0
  196.7620  175.8640  134.9000 F   0  0  0  0  0  0  0  0  0  0  0  0
  190.1050  174.1190  134.9470 O   0  0  0  0  0  0  0  0  0  0  0  0
  1 42  1  1  0  0  0
  1  8  1  0  0  0  0
  2 14  1  6  0  0  0
  2 13  1  0  0  0  0
  2 16  1  0  0  0  0
  3  5  1  6  0  0  0
  3 22  1  0  0  0  0
  4  7  1  6  0  0  0
  4  5  1  0  0  0  0
  6  7  1  0  0  0  0
  9 16  1  6  0  0  0
  9 10  1  0  0  0  0
  9  4  1  0  0  0  0
 10 15  1  6  0  0  0
 10 11  1  0  0  0  0
 11  8  1  1  0  0  0
 11  3  1  0  0  0  0
 12 28  1  0  0  0  0
 12  6  1  1  0  0  0
 13 14  1  6  0  0  0
 13 12  1  0  0  0  0
 15  1  1  0  0  0  0
 17 24  2  0  0  0  0
 18 26  1  0  0  0  0
 19 20  1  0  0  0  0
 20 18  1  0  0  0  0
 20 23  2  0  0  0  0
 22 24  1  1  0  0  0
 22 25  1  0  0  0  0
 24 19  1  0  0  0  0
 25 21  2  0  0  0  0
 25 18  1  0  0  0  0
 26 27  1  0  0  0  0
 28 33  1  6  0  0  0
 28 30  1  0  0  0  0
 29 30  1  0  0  0  0
 29 37  1  1  0  0  0
 30 32  1  6  0  0  0
 31 29  1  0  0  0  0
 33 31  1  0  0  0  0
 34 31  2  0  0  0  0
 35 36  1  0  0  0  0
 36 33  1  0  0  0  0
 37 41  1  0  0  0  0
 40 41  2  0  0  0  0
 41 38  1  0  0  0  0
 41 39  1  0  0  0  0
 43 42  1  0  0  0  0
 44 43  1  0  0  0  0
 45 48  1  1  0  0  0
 45 51  1  0  0  0  0
 47 44  1  0  0  0  0
 48 53  1  0  0  0  0
 49 45  1  0  0  0  0
 49 52  1  6  0  0  0
 49 54  1  0  0  0  0
 50 47  2  0  0  0  0
 51 47  1  6  0  0  0
 52 54  1  0  0  0  0
 53 55  1  6  0  0  0
 53 50  1  0  0  0  0
 54 46  1  1  0  0  0
 54 51  1  0  0  0  0
 56 52  2  0  0  0  0
M  END
>  <MODEL>
7

>  <REMARK>
 VINA RESULT:      -5.4      3.830      9.641
  Name = 
  10 active torsions:
  status: ('A' for Active; 'I' for Inactive)
    1  A    between atoms: C_1  and  C_54
    2  A    between atoms: C_4  and  C_44
    3  A    between atoms: C_5  and  C_34
    4  A    between atoms: N_11  and  C_19
    5  A    between atoms: C_13  and  O_23
    6  A    between atoms: C_17  and  N_55
    7  A    between atoms: C_18  and  O_25
    8  A    between atoms: O_23  and  C_40
    9  A    between atoms: O_25  and  P_41
   10  A    between atoms: C_40  and  C_54
                            x       y       z     vdW  Elec       q    Type
                         _______ _______ _______ _____ _____    ______ ____

>  <TORSDO>
F 10

$$$$
=
 OpenBabel11042410583D

 56 64  0  0  1  0  0  0  0  0999 V2000
  189.6310  177.8860  140.5880 C   0  0  1  0  0  3  0  0  0  0  0  0
  183.9400  178.2110  141.2970 C   0  0  2  0  0  3  0  0  0  0  0  0
  187.4130  178.4290  137.3270 C   0  0  1  0  0  3  0  0  0  0  0  0
  185.3550  178.1020  138.3530 C   0  0  2  0  0  3  0  0  0  0  0  0
  186.1380  179.0080  137.5980 O   0  0  0  0  0  0  0  0  0  0  0  0
  182.7900  177.0530  138.7590 S   0  0  0  0  0  0  0  0  0  0  0  0
  183.8670  178.4040  138.1520 C   0  0  0  0  0  2  0  0  0  0  0  0
  189.8080  178.0370  138.7650 S   0  0  0  0  0  0  0  0  0  0  0  0
  185.8920  177.9830  139.8210 C   0  0  1  0  0  3  0  0  0  0  0  0
  187.3890  178.2820  139.8190 C   0  0  2  0  0  3  0  0  0  0  0  0
  188.0320  177.7490  138.5670 C   0  0  1  0  0  3  0  0  0  0  0  0
  181.8740  178.0500  140.0310 C   0  0  1  0  0  3  0  0  0  0  0  0
  182.8370  179.0450  140.6770 C   0  0  1  0  0  3  0  0  0  0  0  0
  183.0100  179.0050  142.1820 C   0  0  0  0  0  2  0  0  0  0  0  0
  188.1660  177.6790  140.9580 C   0  0  0  0  0  2  0  0  0  0  0  0
  185.2120  178.8890  140.8510 C   0  0  0  0  0  2  0  0  0  0  0  0
  185.6220  175.8730  136.1130 O   0  0  0  0  0  0  0  0  0  0  0  0
  189.5380  176.1460  136.0560 N   0  0  0  0  0  0  0  0  0  0  0  0
  187.5160  175.2020  137.3390 C   0  0  0  0  0  2  0  0  0  0  0  0
  188.9620  175.1500  136.9340 C   0  0  0  0  0  0  0  0  0  0  0  0
  189.1660  178.0420  134.5950 C   0  0  0  0  0  2  0  0  0  0  0  0
  187.3500  177.4780  136.1140 C   0  0  2  0  0  3  0  0  0  0  0  0
  189.7150  174.2030  137.4790 C   0  0  0  0  0  2  0  0  0  0  0  0
  186.7470  176.1570  136.4850 C   0  0  0  0  0  0  0  0  0  0  0  0
  188.7190  177.2280  135.5490 C   0  0  0  0  0  0  0  0  0  0  0  0
  190.9260  176.0070  135.6080 C   0  0  0  0  0  2  0  0  0  0  0  0
  191.0690  174.7770  134.7260 C   0  0  0  0  0  1  0  0  0  0  0  0
  180.6960  178.8160  139.3900 C   0  0  1  0  0  3  0  0  0  0  0  0
  179.9510  180.4830  137.7680 C   0  0  2  0  0  3  0  0  0  0  0  0
  181.0070  180.2360  138.8600 C   0  0  2  0  0  3  0  0  0  0  0  0
  179.5900  179.1070  137.3620 C   0  0  0  0  0  0  0  0  0  0  0  0
  182.2920  180.2720  138.3000 O   0  0  0  0  0  1  0  0  0  0  0  0
  180.0520  178.1260  138.2740 N   0  0  0  0  0  0  0  0  0  0  0  0
  178.9370  178.8310  136.3210 O   0  0  0  0  0  0  0  0  0  0  0  0
  179.2280  175.8620  138.6560 C   0  0  0  0  0  1  0  0  0  0  0  0
  180.2270  176.7230  137.9060 C   0  0  0  0  0  2  0  0  0  0  0  0
  180.4810  181.2000  136.6890 O   0  0  0  0  0  0  0  0  0  0  0  0
  179.8640  183.5770  135.7950 O   0  0  0  0  0  0  0  0  0  0  0  0
  181.6270  183.5140  137.7190 O   0  0  0  0  0  1  0  0  0  0  0  0
  178.9530  182.9750  138.1700 O   0  0  0  0  0  1  0  0  0  0  0  0
  180.2240  182.8350  137.0600 P   0  0  0  0  0  0  0  0  0  0  0  0
  190.5280  176.7950  141.1650 C   0  0  0  0  0  2  0  0  0  0  0  0
  191.6730  177.3650  141.9910 C   0  0  0  0  0  2  0  0  0  0  0  0
  191.1490  178.2180  142.9990 O   0  0  0  0  0  0  0  0  0  0  0  0
  190.2630  177.5170  146.6040 N   0  0  1  0  0  0  0  0  0  0  0  0
  191.4730  175.0300  144.7840 C   0  0  0  0  0  1  0  0  0  0  0  0
  190.4250  177.7300  144.0870 C   0  0  0  0  0  0  0  0  0  0  0  0
  188.8110  177.5300  146.3480 C   0  0  0  0  0  2  0  0  0  0  0  0
  190.7230  176.1350  146.7660 C   0  0  2  0  0  3  0  0  0  0  0  0
  189.1820  177.3780  143.9490 N   0  0  0  0  0  0  0  0  0  0  0  0
  191.1300  177.6100  145.4250 C   0  0  2  0  0  3  0  0  0  0  0  0
  192.2090  176.0310  147.1210 C   0  0  0  0  0  0  0  0  0  0  0  0
  188.4240  176.8180  145.0530 C   0  0  2  0  0  3  0  0  0  0  0  0
  191.6860  176.2280  145.6970 C   0  0  2  0  0  0  0  0  0  0  0  0
  187.0720  176.9720  144.8140 F   0  0  0  0  0  0  0  0  0  0  0  0
  193.1180  175.9070  147.9270 O   0  0  0  0  0  0  0  0  0  0  0  0
  1 15  1  0  0  0  0
  1 42  1  6  0  0  0
  2 16  1  6  0  0  0
  2 14  1  0  0  0  0
  3  5  1  1  0  0  0
  3 11  1  0  0  0  0
  4  7  1  1  0  0  0
  4  9  1  0  0  0  0
  5  4  1  0  0  0  0
  7  6  1  0  0  0  0
  8  1  1  0  0  0  0
  9 16  1  1  0  0  0
 10  9  1  0  0  0  0
 10 15  1  1  0  0  0
 11  8  1  1  0  0  0
 11 10  1  0  0  0  0
 12  6  1  6  0  0  0
 12 13  1  0  0  0  0
 13  2  1  0  0  0  0
 13 14  1  1  0  0  0
 17 24  2  0  0  0  0
 18 20  1  0  0  0  0
 20 19  1  0  0  0  0
 20 23  2  0  0  0  0
 21 25  2  0  0  0  0
 22 25  1  1  0  0  0
 22 24  1  0  0  0  0
 22  3  1  0  0  0  0
 24 19  1  0  0  0  0
 25 18  1  0  0  0  0
 26 18  1  0  0  0  0
 27 26  1  0  0  0  0
 28 33  1  6  0  0  0
 28 12  1  0  0  0  0
 29 37  1  6  0  0  0
 29 30  1  0  0  0  0
 30 32  1  6  0  0  0
 30 28  1  0  0  0  0
 31 29  1  0  0  0  0
 31 33  1  0  0  0  0
 34 31  2  0  0  0  0
 36 33  1  0  0  0  0
 36 35  1  0  0  0  0
 37 41  1  0  0  0  0
 38 41  2  0  0  0  0
 41 39  1  0  0  0  0
 41 40  1  0  0  0  0
 42 43  1  0  0  0  0
 43 44  1  0  0  0  0
 44 47  1  0  0  0  0
 45 48  1  6  0  0  0
 45 49  1  0  0  0  0
 49 52  1  1  0  0  0
 50 47  2  0  0  0  0
 50 53  1  0  0  0  0
 51 47  1  6  0  0  0
 51 54  1  0  0  0  0
 51 45  1  0  0  0  0
 52 56  2  0  0  0  0
 53 55  1  6  0  0  0
 53 48  1  0  0  0  0
 54 46  1  6  0  0  0
 54 49  1  0  0  0  0
 54 52  1  0  0  0  0
M  END
>  <MODEL>
8

>  <REMARK>
 VINA RESULT:      -5.4      4.262     10.813
  Name = 
  10 active torsions:
  status: ('A' for Active; 'I' for Inactive)
    1  A    between atoms: C_1  and  C_54
    2  A    between atoms: C_4  and  C_44
    3  A    between atoms: C_5  and  C_34
    4  A    between atoms: N_11  and  C_19
    5  A    between atoms: C_13  and  O_23
    6  A    between atoms: C_17  and  N_55
    7  A    between atoms: C_18  and  O_25
    8  A    between atoms: O_23  and  C_40
    9  A    between atoms: O_25  and  P_41
   10  A    between atoms: C_40  and  C_54
                            x       y       z     vdW  Elec       q    Type
                         _______ _______ _______ _____ _____    ______ ____

>  <TORSDO>
F 10

$$$$
=
 OpenBabel11042410583D

 56 64  0  0  1  0  0  0  0  0999 V2000
  183.4560  179.3950  142.7880 C   0  0  1  0  0  3  0  0  0  0  0  0
  186.7420  178.1810  138.2360 C   0  0  2  0  0  3  0  0  0  0  0  0
  187.1730  178.1600  143.4970 C   0  0  1  0  0  3  0  0  0  0  0  0
  187.6750  177.5690  141.3080 C   0  0  2  0  0  3  0  0  0  0  0  0
  188.0610  178.3780  142.4030 O   0  0  0  0  0  0  0  0  0  0  0  0
  188.5720  175.9770  139.1850 S   0  0  0  0  0  0  0  0  0  0  0  0
  188.8760  177.3220  140.3910 C   0  0  0  0  0  2  0  0  0  0  0  0
  184.5720  179.0000  144.1930 S   0  0  0  0  0  0  0  0  0  0  0  0
  186.3480  178.0960  140.6610 C   0  0  1  0  0  3  0  0  0  0  0  0
  185.5360  178.8210  141.7320 C   0  0  2  0  0  3  0  0  0  0  0  0
  185.6920  178.1370  143.0630 C   0  0  1  0  0  3  0  0  0  0  0  0
  188.7820  177.0000  137.6490 C   0  0  1  0  0  3  0  0  0  0  0  0
  188.2020  178.3930  137.8910 C   0  0  1  0  0  3  0  0  0  0  0  0
  187.1180  178.8930  136.9590 C   0  0  0  0  0  2  0  0  0  0  0  0
  184.0540  178.8820  141.4820 C   0  0  0  0  0  2  0  0  0  0  0  0
  186.5230  179.0330  139.4610 C   0  0  0  0  0  2  0  0  0  0  0  0
  186.0170  176.1400  145.9060 O   0  0  0  0  0  0  0  0  0  0  0  0
  189.7120  177.4290  145.5860 N   0  0  0  0  0  0  0  0  0  0  0  0
  187.4300  177.8470  146.7000 C   0  0  0  0  0  2  0  0  0  0  0  0
  188.9290  177.9470  146.6880 C   0  0  0  0  0  0  0  0  0  0  0  0
  189.7500  176.1480  143.5300 C   0  0  0  0  0  2  0  0  0  0  0  0
  187.5640  176.8990  144.2940 C   0  0  2  0  0  3  0  0  0  0  0  0
  189.5060  178.6040  147.6860 C   0  0  0  0  0  2  0  0  0  0  0  0
  186.9400  176.8970  145.6570 C   0  0  0  0  0  0  0  0  0  0  0  0
  189.0540  176.8010  144.4590 C   0  0  0  0  0  0  0  0  0  0  0  0
  191.1750  177.4590  145.6540 C   0  0  0  0  0  2  0  0  0  0  0  0
  191.6810  176.3170  146.5200 C   0  0  0  0  0  1  0  0  0  0  0  0
  190.2730  177.1220  137.2650 C   0  0  1  0  0  3  0  0  0  0  0  0
  192.4390  176.0230  137.0080 C   0  0  2  0  0  3  0  0  0  0  0  0
  191.2460  176.1480  137.9720 C   0  0  2  0  0  3  0  0  0  0  0  0
  191.8290  176.3700  135.7060 C   0  0  0  0  0  0  0  0  0  0  0  0
  190.6360  174.8970  138.1440 O   0  0  0  0  0  1  0  0  0  0  0  0
  190.5530  176.9720  135.8390 N   0  0  0  0  0  0  0  0  0  0  0  0
  192.3820  176.1600  134.5940 O   0  0  0  0  0  0  0  0  0  0  0  0
  188.5360  175.9100  134.9710 C   0  0  0  0  0  1  0  0  0  0  0  0
  189.5730  176.9970  134.7560 C   0  0  0  0  0  2  0  0  0  0  0  0
  192.9530  174.7210  136.9880 O   0  0  0  0  0  0  0  0  0  0  0  0
  194.9290  175.2380  138.6190 O   0  0  0  0  0  1  0  0  0  0  0  0
  195.2090  176.1320  136.1830 O   0  0  0  0  0  0  0  0  0  0  0  0
  195.4010  173.4390  136.7820 O   0  0  0  0  0  1  0  0  0  0  0  0
  194.6290  174.8930  137.1800 P   0  0  0  0  0  0  0  0  0  0  0  0
  182.0390  178.8750  143.0130 C   0  0  0  0  0  2  0  0  0  0  0  0
  180.9930  179.7240  142.3050 C   0  0  0  0  0  2  0  0  0  0  0  0
  180.3430  178.9430  141.3130 O   0  0  0  0  0  0  0  0  0  0  0  0
  182.2360  179.6670  138.1240 N   0  0  1  0  0  0  0  0  0  0  0  0
  178.9310  179.5350  137.9790 C   0  0  0  0  0  1  0  0  0  0  0  0
  180.9040  178.7160  140.0550 C   0  0  0  0  0  0  0  0  0  0  0  0
  182.6980  178.2750  137.9720 C   0  0  0  0  0  2  0  0  0  0  0  0
  181.1480  179.9320  137.1790 C   0  0  2  0  0  3  0  0  0  0  0  0
  181.0860  177.5050  139.6220 N   0  0  0  0  0  0  0  0  0  0  0  0
  181.2810  179.9170  139.2090 C   0  0  2  0  0  3  0  0  0  0  0  0
  180.6610  181.3830  137.2090 C   0  0  0  0  0  0  0  0  0  0  0  0
  181.6180  177.2450  138.2960 C   0  0  2  0  0  3  0  0  0  0  0  0
  180.2150  180.3160  138.2100 C   0  0  2  0  0  0  0  0  0  0  0  0
  182.1500  175.9710  138.2510 F   0  0  0  0  0  0  0  0  0  0  0  0
  180.6530  182.5250  136.7780 O   0  0  0  0  0  0  0  0  0  0  0  0
  1 42  1  1  0  0  0
  1  8  1  0  0  0  0
  2 14  1  6  0  0  0
  2 16  1  0  0  0  0
  3  5  1  6  0  0  0
  3 22  1  0  0  0  0
  4  7  1  6  0  0  0
  4  5  1  0  0  0  0
  6  7  1  0  0  0  0
  9 16  1  6  0  0  0
  9  4  1  0  0  0  0
  9 10  1  0  0  0  0
 10 15  1  6  0  0  0
 10 11  1  0  0  0  0
 11  3  1  0  0  0  0
 11  8  1  1  0  0  0
 12 13  1  0  0  0  0
 12  6  1  1  0  0  0
 13 14  1  6  0  0  0
 13  2  1  0  0  0  0
 15  1  1  0  0  0  0
 18 26  1  0  0  0  0
 18 20  1  0  0  0  0
 20 19  1  0  0  0  0
 20 23  2  0  0  0  0
 21 25  2  0  0  0  0
 22 25  1  1  0  0  0
 22 24  1  0  0  0  0
 24 17  2  0  0  0  0
 24 19  1  0  0  0  0
 25 18  1  0  0  0  0
 26 27  1  0  0  0  0
 28 33  1  6  0  0  0
 28 12  1  0  0  0  0
 28 30  1  0  0  0  0
 29 37  1  6  0  0  0
 29 30  1  0  0  0  0
 30 32  1  6  0  0  0
 31 33  1  0  0  0  0
 31 29  1  0  0  0  0
 34 31  2  0  0  0  0
 36 35  1  0  0  0  0
 36 33  1  0  0  0  0
 37 41  1  0  0  0  0
 39 41  2  0  0  0  0
 40 41  1  0  0  0  0
 41 38  1  0  0  0  0
 43 42  1  0  0  0  0
 44 43  1  0  0  0  0
 45 48  1  1  0  0  0
 45 51  1  0  0  0  0
 47 44  1  0  0  0  0
 48 53  1  0  0  0  0
 49 52  1  6  0  0  0
 49 45  1  0  0  0  0
 49 54  1  0  0  0  0
 50 47  2  0  0  0  0
 51 47  1  6  0  0  0
 52 54  1  0  0  0  0
 53 55  1  1  0  0  0
 53 50  1  0  0  0  0
 54 46  1  1  0  0  0
 54 51  1  0  0  0  0
 56 52  2  0  0  0  0
M  END
>  <MODEL>
9

>  <REMARK>
 VINA RESULT:      -5.0      1.803      2.616
  Name = 
  10 active torsions:
  status: ('A' for Active; 'I' for Inactive)
    1  A    between atoms: C_1  and  C_54
    2  A    between atoms: C_4  and  C_44
    3  A    between atoms: C_5  and  C_34
    4  A    between atoms: N_11  and  C_19
    5  A    between atoms: C_13  and  O_23
    6  A    between atoms: C_17  and  N_55
    7  A    between atoms: C_18  and  O_25
    8  A    between atoms: O_23  and  C_40
    9  A    between atoms: O_25  and  P_41
   10  A    between atoms: C_40  and  C_54
                            x       y       z     vdW  Elec       q    Type
                         _______ _______ _______ _____ _____    ______ ____

>  <TORSDO>
F 10

$$$$
