=
 OpenBabel11032420123D

 36 40  0  0  1  0  0  0  0  0999 V2000
  181.4760  177.3290  138.5100 C   0  0  0  0  0  2  0  0  0  0  0  0
  186.1860  178.4280  141.5250 N   0  0  0  0  0  0  0  0  0  0  0  0
  187.4930  178.1570  141.0600 C   0  0  0  0  0  0  0  0  0  0  0  0
  181.4350  178.8610  138.4010 C   0  0  1  0  0  0  0  0  0  0  0  0
  189.8260  177.8020  141.1400 N   0  0  0  0  0  0  0  0  0  0  0  0
  183.0080  175.1950  138.7040 O   0  0  0  0  0  0  0  0  0  0  0  0
  188.6460  177.9460  141.8080 C   0  0  0  0  0  0  0  0  0  0  0  0
  188.6090  177.8900  143.2950 C   0  0  0  0  0  1  0  0  0  0  0  0
  185.4650  178.6460  140.4670 C   0  0  0  0  0  0  0  0  0  0  0  0
  187.5650  178.2250  139.7050 C   0  0  0  0  0  0  0  0  0  0  0  0
  183.4090  179.8250  139.5850 C   0  0  0  0  0  0  0  0  0  0  0  0
  184.0320  180.4960  138.7190 O   0  0  0  0  0  0  0  0  0  0  0  0
  188.7460  178.0960  139.0490 N   0  0  0  0  0  0  0  0  0  0  0  0
  184.1140  179.0990  140.5930 N   0  0  0  0  0  2  0  0  0  0  0  0
  189.8810  177.8770  139.7740 C   0  0  0  0  0  3  0  0  0  0  0  0
  186.2060  178.4760  139.1410 C   0  0  1  0  0  3  0  0  0  0  0  0
  183.0950  176.6870  138.9980 S   0  0  1  0  0  0  0  0  0  0  0  0
  185.7340  177.2290  138.3450 C   0  0  1  0  0  3  0  0  0  0  0  0
  181.5550  179.4410  137.0100 C   0  0  0  0  0  2  0  0  0  0  0  0
  180.2040  179.4420  137.7120 C   0  0  1  0  0  3  0  0  0  0  0  0
  181.9190  179.7530  139.5440 C   0  0  0  0  0  2  0  0  0  0  0  0
  184.2890  177.3580  137.8030 C   0  0  1  0  0  3  0  0  0  0  0  0
  187.9520  177.0990  135.4570 C   0  0  0  0  0  3  0  0  0  0  0  0
  187.0360  177.7290  136.2810 C   0  0  0  0  0  3  0  0  0  0  0  0
  186.6940  176.9020  137.2870 N   0  0  0  0  0  0  0  0  0  0  0  0
  187.3610  175.7410  137.1460 C   0  0  0  0  0  3  0  0  0  0  0  0
  188.1480  175.8530  136.0230 C   0  0  0  0  0  0  0  0  0  0  0  0
  189.0160  174.7780  135.4650 C   0  0  0  0  0  2  0  0  0  0  0  0
  190.0850  173.5570  137.2190 O   0  0  0  0  0  1  0  0  0  0  0  0
  188.9880  173.5460  136.3570 C   0  0  2  0  0  3  0  0  0  0  0  0
  189.0430  172.3030  135.4950 C   0  0  0  0  0  1  0  0  0  0  0  0
  184.0650  176.7730  136.4350 C   0  0  0  0  0  0  0  0  0  0  0  0
  183.7080  177.5620  135.4330 C   0  0  0  0  0  2  0  0  0  0  0  0
  184.2530  175.4170  136.2010 O   0  0  0  0  0  1  0  0  0  0  0  0
  179.3970  178.4450  137.1560 O   0  0  0  0  0  0  0  0  0  0  0  0
  178.9850  178.9690  135.9310 C   0  0  0  0  0  1  0  0  0  0  0  0
  1 17  1  0  0  0  0
  3  2  1  0  0  0  0
  3  7  1  0  0  0  0
  4 19  1  6  0  0  0
  4  1  1  0  0  0  0
  4 21  1  0  0  0  0
  5  7  2  0  0  0  0
  7  8  1  0  0  0  0
  9 14  1  0  0  0  0
  9  2  2  0  0  0  0
 10  3  2  0  0  0  0
 11 14  1  0  0  0  0
 12 11  2  0  0  0  0
 13 10  1  0  0  0  0
 13 15  2  0  0  0  0
 15  5  1  0  0  0  0
 16 10  1  1  0  0  0
 16  9  1  0  0  0  0
 17  6  2  6  0  0  0
 18 25  1  6  0  0  0
 18 16  1  0  0  0  0
 19 20  1  0  0  0  0
 20 35  1  6  0  0  0
 20  4  1  0  0  0  0
 21 11  1  0  0  0  0
 22 32  1  6  0  0  0
 22 18  1  0  0  0  0
 22 17  1  0  0  0  0
 23 27  1  0  0  0  0
 23 24  2  0  0  0  0
 24 25  1  0  0  0  0
 26 25  1  0  0  0  0
 27 26  2  0  0  0  0
 28 27  1  0  0  0  0
 28 30  1  0  0  0  0
 30 31  1  6  0  0  0
 30 29  1  0  0  0  0
 33 32  2  0  0  0  0
 34 32  1  0  0  0  0
 36 35  1  0  0  0  0
M  END
>  <MODEL>
1

>  <REMARK>
 VINA RESULT:      -5.4      0.000      0.000
  Name = 
  5 active torsions:
  status: ('A' for Active; 'I' for Inactive)
    1  A    between atoms: C_1  and  C_30
    2  A    between atoms: C_1  and  C_36
    3  A    between atoms: N_10  and  C_25
    4  A    between atoms: C_18  and  C_33
    5  A    between atoms: O_27  and  C_28
                            x       y       z     vdW  Elec       q    Type
                         _______ _______ _______ _____ _____    ______ ____

>  <TORSDO>
F 5

$$$$
=
 OpenBabel11032420123D

 36 40  0  0  1  0  0  0  0  0999 V2000
  180.8250  176.9870  137.6010 C   0  0  0  0  0  2  0  0  0  0  0  0
  184.4600  178.3140  141.7850 N   0  0  0  0  0  0  0  0  0  0  0  0
  185.8650  178.2750  141.6410 C   0  0  0  0  0  0  0  0  0  0  0  0
  180.5710  178.5020  137.6190 C   0  0  1  0  0  0  0  0  0  0  0  0
  188.1400  178.2220  142.2730 N   0  0  0  0  0  0  0  0  0  0  0  0
  182.5840  175.0650  137.9870 O   0  0  0  0  0  0  0  0  0  0  0  0
  186.8280  178.1270  142.6330 C   0  0  0  0  0  0  0  0  0  0  0  0
  186.4510  177.8850  144.0530 C   0  0  0  0  0  1  0  0  0  0  0  0
  183.9830  178.5640  140.6030 C   0  0  0  0  0  0  0  0  0  0  0  0
  186.2430  178.5180  140.3590 C   0  0  0  0  0  0  0  0  0  0  0  0
  182.0340  179.5630  139.3390 C   0  0  0  0  0  0  0  0  0  0  0  0
  182.7300  180.4110  138.7180 O   0  0  0  0  0  0  0  0  0  0  0  0
  187.5500  178.6260  140.0110 N   0  0  0  0  0  0  0  0  0  0  0  0
  182.5870  178.8180  140.4250 N   0  0  0  0  0  2  0  0  0  0  0  0
  188.5020  178.4700  140.9760 C   0  0  0  0  0  3  0  0  0  0  0  0
  185.0320  178.6570  139.4960 C   0  0  1  0  0  3  0  0  0  0  0  0
  182.3640  176.5080  138.4220 S   0  0  1  0  0  0  0  0  0  0  0  0
  184.9630  177.4650  138.5020 C   0  0  1  0  0  3  0  0  0  0  0  0
  180.9220  179.2590  136.3580 C   0  0  0  0  0  2  0  0  0  0  0  0
  179.4610  178.9970  136.6960 C   0  0  1  0  0  3  0  0  0  0  0  0
  180.6260  179.3020  138.9190 C   0  0  0  0  0  2  0  0  0  0  0  0
  183.6850  177.4700  137.6270 C   0  0  1  0  0  3  0  0  0  0  0  0
  187.8040  177.9930  136.2820 C   0  0  0  0  0  3  0  0  0  0  0  0
  186.6390  178.3960  136.9110 C   0  0  0  0  0  3  0  0  0  0  0  0
  186.1840  177.3990  137.6940 N   0  0  0  0  0  0  0  0  0  0  0  0
  187.0200  176.3480  137.5960 C   0  0  0  0  0  3  0  0  0  0  0  0
  188.0300  176.7050  136.7320 C   0  0  0  0  0  0  0  0  0  0  0  0
  189.1460  175.8200  136.2950 C   0  0  0  0  0  2  0  0  0  0  0  0
  191.5260  175.6260  136.2140 O   0  0  0  0  0  1  0  0  0  0  0  0
  190.4840  176.3650  136.7720 C   0  0  2  0  0  3  0  0  0  0  0  0
  190.5550  176.2680  138.2810 C   0  0  0  0  0  1  0  0  0  0  0  0
  183.8840  177.0330  136.2010 C   0  0  0  0  0  0  0  0  0  0  0  0
  183.6150  177.8730  135.2140 C   0  0  0  0  0  2  0  0  0  0  0  0
  184.3720  175.7670  135.9070 O   0  0  0  0  0  1  0  0  0  0  0  0
  178.9750  177.9790  135.8710 O   0  0  0  0  0  0  0  0  0  0  0  0
  178.9380  178.5470  134.5980 C   0  0  0  0  0  1  0  0  0  0  0  0
  1  4  1  0  0  0  0
  1 17  1  0  0  0  0
  3  2  1  0  0  0  0
  3  7  1  0  0  0  0
  4 19  1  6  0  0  0
  4 21  1  0  0  0  0
  5  7  2  0  0  0  0
  7  8  1  0  0  0  0
  9  2  2  0  0  0  0
 10  3  2  0  0  0  0
 11 14  1  0  0  0  0
 12 11  2  0  0  0  0
 13 10  1  0  0  0  0
 13 15  2  0  0  0  0
 14  9  1  0  0  0  0
 15  5  1  0  0  0  0
 16 10  1  1  0  0  0
 16  9  1  0  0  0  0
 17  6  2  6  0  0  0
 18 25  1  6  0  0  0
 18 16  1  0  0  0  0
 19 20  1  0  0  0  0
 20 35  1  6  0  0  0
 20  4  1  0  0  0  0
 21 11  1  0  0  0  0
 22 32  1  6  0  0  0
 22 17  1  0  0  0  0
 22 18  1  0  0  0  0
 23 27  1  0  0  0  0
 23 24  2  0  0  0  0
 24 25  1  0  0  0  0
 26 25  1  0  0  0  0
 27 26  2  0  0  0  0
 28 27  1  0  0  0  0
 28 30  1  0  0  0  0
 29 30  1  0  0  0  0
 30 31  1  1  0  0  0
 33 32  2  0  0  0  0
 34 32  1  0  0  0  0
 36 35  1  0  0  0  0
M  END
>  <MODEL>
2

>  <REMARK>
 VINA RESULT:      -5.2      1.417      1.696
  Name = 
  5 active torsions:
  status: ('A' for Active; 'I' for Inactive)
    1  A    between atoms: C_1  and  C_30
    2  A    between atoms: C_1  and  C_36
    3  A    between atoms: N_10  and  C_25
    4  A    between atoms: C_18  and  C_33
    5  A    between atoms: O_27  and  C_28
                            x       y       z     vdW  Elec       q    Type
                         _______ _______ _______ _____ _____    ______ ____

>  <TORSDO>
F 5

$$$$
=
 OpenBabel11032420123D

 36 40  0  0  1  0  0  0  0  0999 V2000
  184.1690  176.1700  135.0650 C   0  0  0  0  0  2  0  0  0  0  0  0
  189.2000  173.4940  135.2010 N   0  0  0  0  0  0  0  0  0  0  0  0
  190.2880  173.9150  135.9980 C   0  0  0  0  0  0  0  0  0  0  0  0
  183.7130  174.9160  135.8260 C   0  0  1  0  0  0  0  0  0  0  0  0
  192.5140  174.0870  136.7670 N   0  0  0  0  0  0  0  0  0  0  0  0
  186.1540  177.8380  134.6000 O   0  0  0  0  0  0  0  0  0  0  0  0
  191.6420  173.6660  135.8070 C   0  0  0  0  0  0  0  0  0  0  0  0
  192.1380  172.9500  134.6000 C   0  0  0  0  0  1  0  0  0  0  0  0
  188.1270  173.8800  135.8220 C   0  0  0  0  0  0  0  0  0  0  0  0
  189.8670  174.5520  137.1220 C   0  0  0  0  0  0  0  0  0  0  0  0
  185.6680  173.4040  136.1730 C   0  0  0  0  0  0  0  0  0  0  0  0
  185.7640  173.2520  137.4200 O   0  0  0  0  0  0  0  0  0  0  0  0
  190.7390  174.9540  138.0800 N   0  0  0  0  0  0  0  0  0  0  0  0
  186.8360  173.4790  135.3540 N   0  0  0  0  0  2  0  0  0  0  0  0
  192.0710  174.7240  137.8950 C   0  0  0  0  0  3  0  0  0  0  0  0
  188.3790  174.6790  137.1000 C   0  0  1  0  0  3  0  0  0  0  0  0
  185.9630  176.4050  135.0810 S   0  0  1  0  0  0  0  0  0  0  0  0
  187.9880  176.1760  136.9590 C   0  0  1  0  0  3  0  0  0  0  0  0
  183.1950  175.1300  137.2300 C   0  0  0  0  0  2  0  0  0  0  0  0
  182.2160  174.8210  136.1060 C   0  0  1  0  0  3  0  0  0  0  0  0
  184.3240  173.5450  135.5390 C   0  0  0  0  0  2  0  0  0  0  0  0
  186.4610  176.4010  136.8290 C   0  0  1  0  0  3  0  0  0  0  0  0
  189.8080  178.4810  139.1150 C   0  0  0  0  0  3  0  0  0  0  0  0
  189.4550  177.9660  137.8800 C   0  0  0  0  0  3  0  0  0  0  0  0
  188.5710  176.9640  138.0490 N   0  0  0  0  0  0  0  0  0  0  0  0
  188.3340  176.8050  139.3640 C   0  0  0  0  0  3  0  0  0  0  0  0
  189.0870  177.7410  140.0340 C   0  0  0  0  0  0  0  0  0  0  0  0
  189.1670  177.8870  141.5150 C   0  0  0  0  0  2  0  0  0  0  0  0
  190.2650  175.8960  142.2490 O   0  0  0  0  0  1  0  0  0  0  0  0
  190.4480  177.2650  142.0490 C   0  0  2  0  0  3  0  0  0  0  0  0
  190.8120  177.9180  143.3650 C   0  0  0  0  0  1  0  0  0  0  0  0
  185.9300  177.6140  137.5420 C   0  0  0  0  0  0  0  0  0  0  0  0
  184.9720  177.4790  138.4460 C   0  0  0  0  0  2  0  0  0  0  0  0
  186.4500  178.8760  137.2820 O   0  0  0  0  0  1  0  0  0  0  0  0
  181.5420  175.9920  135.7480 O   0  0  0  0  0  0  0  0  0  0  0  0
  180.2750  175.8550  136.3150 C   0  0  0  0  0  1  0  0  0  0  0  0
  1 17  1  0  0  0  0
  2  9  2  0  0  0  0
  2  3  1  0  0  0  0
  3 10  1  0  0  0  0
  4  1  1  6  0  0  0
  4 20  1  0  0  0  0
  4 19  1  0  0  0  0
  5 15  2  0  0  0  0
  7  3  2  0  0  0  0
  7  5  1  0  0  0  0
  8  7  1  0  0  0  0
 10 13  2  0  0  0  0
 11 12  2  0  0  0  0
 14  9  1  0  0  0  0
 14 11  1  0  0  0  0
 15 13  1  0  0  0  0
 16  9  1  6  0  0  0
 16 10  1  0  0  0  0
 17  6  2  1  0  0  0
 17 22  1  0  0  0  0
 18 16  1  0  0  0  0
 18 25  1  1  0  0  0
 20 35  1  6  0  0  0
 20 19  1  0  0  0  0
 21  4  1  0  0  0  0
 21 11  1  0  0  0  0
 22 18  1  0  0  0  0
 22 32  1  6  0  0  0
 23 27  1  0  0  0  0
 24 25  1  0  0  0  0
 24 23  2  0  0  0  0
 25 26  1  0  0  0  0
 26 27  2  0  0  0  0
 27 28  1  0  0  0  0
 28 30  1  0  0  0  0
 30 29  1  0  0  0  0
 30 31  1  1  0  0  0
 32 33  2  0  0  0  0
 34 32  1  0  0  0  0
 35 36  1  0  0  0  0
M  END
>  <MODEL>
3

>  <REMARK>
 VINA RESULT:      -5.1      2.837      5.831
  Name = 
  5 active torsions:
  status: ('A' for Active; 'I' for Inactive)
    1  A    between atoms: C_1  and  C_30
    2  A    between atoms: C_1  and  C_36
    3  A    between atoms: N_10  and  C_25
    4  A    between atoms: C_18  and  C_33
    5  A    between atoms: O_27  and  C_28
                            x       y       z     vdW  Elec       q    Type
                         _______ _______ _______ _____ _____    ______ ____

>  <TORSDO>
F 5

$$$$
=
 OpenBabel11032420123D

 36 40  0  0  1  0  0  0  0  0999 V2000
  189.9010  177.4120  136.4260 C   0  0  0  0  0  2  0  0  0  0  0  0
  185.0030  179.3200  138.6280 N   0  0  0  0  0  0  0  0  0  0  0  0
  183.7690  178.6450  138.4920 C   0  0  0  0  0  0  0  0  0  0  0  0
  190.2240  177.1440  137.9040 C   0  0  1  0  0  0  0  0  0  0  0  0
  181.4320  178.3110  138.5040 N   0  0  0  0  0  0  0  0  0  0  0  0
  188.0140  177.5410  134.5940 O   0  0  0  0  0  0  0  0  0  0  0  0
  182.4860  179.1740  138.5630 C   0  0  0  0  0  0  0  0  0  0  0  0
  182.2550  180.6370  138.7110 C   0  0  0  0  0  1  0  0  0  0  0  0
  185.9220  178.4030  138.5850 C   0  0  0  0  0  0  0  0  0  0  0  0
  183.9450  177.3020  138.3780 C   0  0  0  0  0  0  0  0  0  0  0  0
  188.2720  177.8100  139.3080 C   0  0  0  0  0  0  0  0  0  0  0  0
  187.9330  176.7710  139.9360 O   0  0  0  0  0  0  0  0  0  0  0  0
  182.8900  176.4490  138.3360 N   0  0  0  0  0  0  0  0  0  0  0  0
  187.2890  178.7370  138.8450 N   0  0  0  0  0  2  0  0  0  0  0  0
  181.6270  176.9610  138.3930 C   0  0  0  0  0  3  0  0  0  0  0  0
  185.4030  176.9870  138.3430 C   0  0  1  0  0  3  0  0  0  0  0  0
  188.1360  177.6460  136.1080 S   0  0  1  0  0  0  0  0  0  0  0  0
  185.7830  176.4400  136.9390 C   0  0  1  0  0  3  0  0  0  0  0  0
  190.4470  175.7000  138.2940 C   0  0  0  0  0  2  0  0  0  0  0  0
  191.6370  176.6450  138.1920 C   0  0  1  0  0  3  0  0  0  0  0  0
  189.7110  178.0650  139.0100 C   0  0  0  0  0  2  0  0  0  0  0  0
  187.3000  176.1760  136.7740 C   0  0  1  0  0  3  0  0  0  0  0  0
  183.5580  173.9160  135.5420 C   0  0  0  0  0  3  0  0  0  0  0  0
  184.1790  175.1530  135.5340 C   0  0  0  0  0  3  0  0  0  0  0  0
  184.9780  175.2600  136.6130 N   0  0  0  0  0  0  0  0  0  0  0  0
  184.8970  174.1250  137.3320 C   0  0  0  0  0  3  0  0  0  0  0  0
  184.0280  173.2830  136.6770 C   0  0  0  0  0  0  0  0  0  0  0  0
  183.6070  171.9350  137.1520 C   0  0  0  0  0  2  0  0  0  0  0  0
  181.7030  170.9760  136.0730 O   0  0  0  0  0  1  0  0  0  0  0  0
  183.0910  171.0930  135.9960 C   0  0  2  0  0  3  0  0  0  0  0  0
  183.7130  169.7140  136.0640 C   0  0  0  0  0  1  0  0  0  0  0  0
  187.6530  174.9500  135.9760 C   0  0  0  0  0  0  0  0  0  0  0  0
  188.1990  173.9070  136.5810 C   0  0  0  0  0  2  0  0  0  0  0  0
  187.3870  174.8880  134.6140 O   0  0  0  0  0  1  0  0  0  0  0  0
  192.3430  176.3690  137.0180 O   0  0  0  0  0  0  0  0  0  0  0  0
  193.5720  175.8770  137.4550 C   0  0  0  0  0  1  0  0  0  0  0  0
  3  7  1  0  0  0  0
  3  2  1  0  0  0  0
  4  1  1  6  0  0  0
  4 20  1  0  0  0  0
  4 19  1  0  0  0  0
  4 21  1  0  0  0  0
  5  7  2  0  0  0  0
  7  8  1  0  0  0  0
  9  2  2  0  0  0  0
  9 14  1  0  0  0  0
 10  3  2  0  0  0  0
 11 12  2  0  0  0  0
 13 10  1  0  0  0  0
 13 15  2  0  0  0  0
 14 11  1  0  0  0  0
 15  5  1  0  0  0  0
 16 10  1  6  0  0  0
 16  9  1  0  0  0  0
 17  6  2  6  0  0  0
 17  1  1  0  0  0  0
 17 22  1  0  0  0  0
 18 25  1  1  0  0  0
 18 16  1  0  0  0  0
 20 35  1  6  0  0  0
 20 19  1  0  0  0  0
 21 11  1  0  0  0  0
 22 32  1  6  0  0  0
 22 18  1  0  0  0  0
 23 27  1  0  0  0  0
 24 23  2  0  0  0  0
 24 25  1  0  0  0  0
 25 26  1  0  0  0  0
 27 28  1  0  0  0  0
 27 26  2  0  0  0  0
 30 31  1  1  0  0  0
 30 29  1  0  0  0  0
 30 28  1  0  0  0  0
 32 33  2  0  0  0  0
 34 32  1  0  0  0  0
 35 36  1  0  0  0  0
M  END
>  <MODEL>
4

>  <REMARK>
 VINA RESULT:      -5.0      3.139      6.911
  Name = 
  5 active torsions:
  status: ('A' for Active; 'I' for Inactive)
    1  A    between atoms: C_1  and  C_30
    2  A    between atoms: C_1  and  C_36
    3  A    between atoms: N_10  and  C_25
    4  A    between atoms: C_18  and  C_33
    5  A    between atoms: O_27  and  C_28
                            x       y       z     vdW  Elec       q    Type
                         _______ _______ _______ _____ _____    ______ ____

>  <TORSDO>
F 5

$$$$
=
 OpenBabel11032420123D

 36 40  0  0  1  0  0  0  0  0999 V2000
  182.2420  179.0450  138.7860 C   0  0  0  0  0  2  0  0  0  0  0  0
  186.9440  177.3640  136.0380 N   0  0  0  0  0  0  0  0  0  0  0  0
  188.2120  177.2570  136.6520 C   0  0  0  0  0  0  0  0  0  0  0  0
  181.8660  177.5640  138.6250 C   0  0  1  0  0  0  0  0  0  0  0  0
  190.5590  177.0780  136.8340 N   0  0  0  0  0  0  0  0  0  0  0  0
  184.2020  180.7770  139.0950 O   0  0  0  0  0  0  0  0  0  0  0  0
  189.4660  177.3080  136.0530 C   0  0  0  0  0  0  0  0  0  0  0  0
  189.6220  177.5930  134.6000 C   0  0  0  0  0  1  0  0  0  0  0  0
  186.0700  177.1610  136.9780 C   0  0  0  0  0  0  0  0  0  0  0  0
  188.1030  176.9720  137.9760 C   0  0  0  0  0  0  0  0  0  0  0  0
  183.7200  176.3640  137.4640 C   0  0  0  0  0  0  0  0  0  0  0  0
  184.0770  175.4470  138.2520 O   0  0  0  0  0  0  0  0  0  0  0  0
  189.1960  176.7290  138.7430 N   0  0  0  0  0  0  0  0  0  0  0  0
  184.6800  177.0510  136.6610 N   0  0  0  0  0  2  0  0  0  0  0  0
  190.4310  176.7890  138.1660 C   0  0  0  0  0  3  0  0  0  0  0  0
  186.6640  176.9560  138.3710 C   0  0  1  0  0  3  0  0  0  0  0  0
  184.0070  179.3660  138.5560 S   0  0  1  0  0  0  0  0  0  0  0  0
  186.3730  178.1450  139.3270 C   0  0  1  0  0  3  0  0  0  0  0  0
  181.6910  176.7700  139.9000 C   0  0  0  0  0  2  0  0  0  0  0  0
  180.4650  177.1830  139.0960 C   0  0  1  0  0  3  0  0  0  0  0  0
  182.2850  176.7670  137.3910 C   0  0  0  0  0  2  0  0  0  0  0  0
  184.8780  178.2700  139.7150 C   0  0  1  0  0  3  0  0  0  0  0  0
  188.8520  178.6060  141.9570 C   0  0  0  0  0  3  0  0  0  0  0  0
  188.2160  178.9720  140.7840 C   0  0  0  0  0  3  0  0  0  0  0  0
  187.2450  178.0830  140.5030 N   0  0  0  0  0  0  0  0  0  0  0  0
  187.2250  177.1380  141.4630 C   0  0  0  0  0  3  0  0  0  0  0  0
  188.2090  177.4540  142.3710 C   0  0  0  0  0  0  0  0  0  0  0  0
  188.5710  176.6450  143.5690 C   0  0  0  0  0  2  0  0  0  0  0  0
  189.6090  176.8920  145.7070 O   0  0  0  0  0  1  0  0  0  0  0  0
  188.7990  177.5420  144.7760 C   0  0  2  0  0  3  0  0  0  0  0  0
  187.4660  177.8690  145.4160 C   0  0  0  0  0  1  0  0  0  0  0  0
  184.6190  178.6790  141.1390 C   0  0  0  0  0  0  0  0  0  0  0  0
  183.7830  177.9710  141.8830 C   0  0  0  0  0  2  0  0  0  0  0  0
  185.2650  179.7760  141.6930 O   0  0  0  0  0  1  0  0  0  0  0  0
  179.8260  178.2430  139.7450 O   0  0  0  0  0  0  0  0  0  0  0  0
  179.1910  177.6540  140.8380 C   0  0  0  0  0  1  0  0  0  0  0  0
  2  3  1  0  0  0  0
  2  9  2  0  0  0  0
  3 10  1  0  0  0  0
  4 21  1  6  0  0  0
  4  1  1  0  0  0  0
  4 20  1  0  0  0  0
  4 19  1  0  0  0  0
  5 15  2  0  0  0  0
  7  3  2  0  0  0  0
  7  5  1  0  0  0  0
  8  7  1  0  0  0  0
 10 16  1  0  0  0  0
 10 13  2  0  0  0  0
 11 12  2  0  0  0  0
 14  9  1  0  0  0  0
 14 11  1  0  0  0  0
 15 13  1  0  0  0  0
 16  9  1  6  0  0  0
 16 18  1  0  0  0  0
 17  1  1  0  0  0  0
 17  6  2  1  0  0  0
 17 22  1  0  0  0  0
 18 22  1  0  0  0  0
 18 25  1  1  0  0  0
 20 35  1  1  0  0  0
 20 19  1  0  0  0  0
 21 11  1  0  0  0  0
 22 32  1  1  0  0  0
 23 27  1  0  0  0  0
 24 23  2  0  0  0  0
 25 24  1  0  0  0  0
 25 26  1  0  0  0  0
 26 27  2  0  0  0  0
 27 28  1  0  0  0  0
 28 30  1  0  0  0  0
 30 31  1  1  0  0  0
 30 29  1  0  0  0  0
 32 34  1  0  0  0  0
 32 33  2  0  0  0  0
 35 36  1  0  0  0  0
M  END
>  <MODEL>
5

>  <REMARK>
 VINA RESULT:      -4.5      2.297      5.350
  Name = 
  5 active torsions:
  status: ('A' for Active; 'I' for Inactive)
    1  A    between atoms: C_1  and  C_30
    2  A    between atoms: C_1  and  C_36
    3  A    between atoms: N_10  and  C_25
    4  A    between atoms: C_18  and  C_33
    5  A    between atoms: O_27  and  C_28
                            x       y       z     vdW  Elec       q    Type
                         _______ _______ _______ _____ _____    ______ ____

>  <TORSDO>
F 5

$$$$
=
 OpenBabel11032420123D

 36 40  0  0  1  0  0  0  0  0999 V2000
  181.0030  178.4420  137.1420 C   0  0  0  0  0  2  0  0  0  0  0  0
  180.2420  172.8150  136.6560 N   0  0  0  0  0  0  0  0  0  0  0  0
  181.2720  171.9140  136.3020 C   0  0  0  0  0  0  0  0  0  0  0  0
  180.8360  178.1290  138.6370 C   0  0  1  0  0  0  0  0  0  0  0  0
  182.2880  169.9140  135.5630 N   0  0  0  0  0  0  0  0  0  0  0  0
  181.8480  177.5590  134.8090 O   0  0  0  0  0  0  0  0  0  0  0  0
  181.1550  170.6560  135.7240 C   0  0  0  0  0  0  0  0  0  0  0  0
  179.8340  170.1160  135.2990 C   0  0  0  0  0  1  0  0  0  0  0  0
  180.8240  173.8130  137.2500 C   0  0  0  0  0  0  0  0  0  0  0  0
  182.4900  172.3680  136.6990 C   0  0  0  0  0  0  0  0  0  0  0  0
  180.5080  175.6730  138.9330 C   0  0  0  0  0  0  0  0  0  0  0  0
  181.4410  175.2930  139.6910 O   0  0  0  0  0  0  0  0  0  0  0  0
  183.6110  171.6170  136.5500 N   0  0  0  0  0  0  0  0  0  0  0  0
  180.0450  174.8390  137.8710 N   0  0  0  0  0  2  0  0  0  0  0  0
  183.5060  170.3860  135.9720 C   0  0  0  0  0  3  0  0  0  0  0  0
  182.3480  173.7250  137.3040 C   0  0  1  0  0  3  0  0  0  0  0  0
  181.3890  176.9850  136.1420 S   0  0  1  0  0  0  0  0  0  0  0  0
  183.0420  174.7750  136.3940 C   0  0  1  0  0  3  0  0  0  0  0  0
  182.0250  178.4230  139.5240 C   0  0  0  0  0  2  0  0  0  0  0  0
  180.8100  179.3390  139.5670 C   0  0  1  0  0  3  0  0  0  0  0  0
  179.8980  177.0230  139.1180 C   0  0  0  0  0  2  0  0  0  0  0  0
  182.8640  176.2310  136.8900 C   0  0  1  0  0  3  0  0  0  0  0  0
  186.3730  173.9510  135.1670 C   0  0  0  0  0  3  0  0  0  0  0  0
  185.0450  174.2980  134.9910 C   0  0  0  0  0  3  0  0  0  0  0  0
  184.4520  174.4290  136.1930 N   0  0  0  0  0  0  0  0  0  0  0  0
  185.3570  174.1770  137.1580 C   0  0  0  0  0  3  0  0  0  0  0  0
  186.5500  173.8870  136.5370 C   0  0  0  0  0  0  0  0  0  0  0  0
  187.8120  173.4970  137.2280 C   0  0  0  0  0  2  0  0  0  0  0  0
  190.1100  174.0770  137.5310 O   0  0  0  0  0  1  0  0  0  0  0  0
  188.9320  174.4690  136.8930 C   0  0  2  0  0  3  0  0  0  0  0  0
  188.5490  175.8570  137.3620 C   0  0  0  0  0  1  0  0  0  0  0  0
  184.0670  177.1180  136.7160 C   0  0  0  0  0  0  0  0  0  0  0  0
  184.7430  177.5240  137.7800 C   0  0  0  0  0  2  0  0  0  0  0  0
  184.4940  177.4980  135.4500 O   0  0  0  0  0  1  0  0  0  0  0  0
  181.1040  180.5250  138.8890 O   0  0  0  0  0  0  0  0  0  0  0  0
  180.2470  181.4710  139.4500 C   0  0  0  0  0  1  0  0  0  0  0  0
  2  9  2  0  0  0  0
  3  2  1  0  0  0  0
  3 10  1  0  0  0  0
  4  1  1  6  0  0  0
  4 21  1  0  0  0  0
  4 19  1  0  0  0  0
  4 20  1  0  0  0  0
  5  7  1  0  0  0  0
  5 15  2  0  0  0  0
  7  3  2  0  0  0  0
  8  7  1  0  0  0  0
  9 16  1  0  0  0  0
  9 14  1  0  0  0  0
 11 21  1  0  0  0  0
 11 12  2  0  0  0  0
 13 10  2  0  0  0  0
 14 11  1  0  0  0  0
 15 13  1  0  0  0  0
 16 10  1  6  0  0  0
 17  6  2  6  0  0  0
 17 22  1  0  0  0  0
 17  1  1  0  0  0  0
 18 25  1  1  0  0  0
 18 22  1  0  0  0  0
 18 16  1  0  0  0  0
 19 20  1  0  0  0  0
 20 35  1  6  0  0  0
 22 32  1  6  0  0  0
 23 27  1  0  0  0  0
 24 23  2  0  0  0  0
 24 25  1  0  0  0  0
 25 26  1  0  0  0  0
 27 26  2  0  0  0  0
 27 28  1  0  0  0  0
 30 28  1  0  0  0  0
 30 31  1  1  0  0  0
 30 29  1  0  0  0  0
 32 33  2  0  0  0  0
 34 32  1  0  0  0  0
 35 36  1  0  0  0  0
M  END
>  <MODEL>
6

>  <REMARK>
 VINA RESULT:      -4.4      3.895      6.115
  Name = 
  5 active torsions:
  status: ('A' for Active; 'I' for Inactive)
    1  A    between atoms: C_1  and  C_30
    2  A    between atoms: C_1  and  C_36
    3  A    between atoms: N_10  and  C_25
    4  A    between atoms: C_18  and  C_33
    5  A    between atoms: O_27  and  C_28
                            x       y       z     vdW  Elec       q    Type
                         _______ _______ _______ _____ _____    ______ ____

>  <TORSDO>
F 5

$$$$
=
 OpenBabel11032420123D

 36 40  0  0  1  0  0  0  0  0999 V2000
  179.0820  178.2690  139.1150 C   0  0  0  0  0  2  0  0  0  0  0  0
  180.2870  173.1050  137.0260 N   0  0  0  0  0  0  0  0  0  0  0  0
  181.4210  172.8290  136.2290 C   0  0  0  0  0  0  0  0  0  0  0  0
  179.4820  177.6010  140.4390 C   0  0  1  0  0  0  0  0  0  0  0  0
  182.8250  171.6640  134.7290 N   0  0  0  0  0  0  0  0  0  0  0  0
  179.4700  178.3560  136.5110 O   0  0  0  0  0  0  0  0  0  0  0  0
  181.6010  171.7980  135.3140 C   0  0  0  0  0  0  0  0  0  0  0  0
  180.4990  170.8520  134.9830 C   0  0  0  0  0  1  0  0  0  0  0  0
  180.6180  174.1020  137.7900 C   0  0  0  0  0  0  0  0  0  0  0  0
  182.4540  173.6610  136.5240 C   0  0  0  0  0  0  0  0  0  0  0  0
  180.1590  175.2400  140.0010 C   0  0  0  0  0  0  0  0  0  0  0  0
  181.3430  175.1410  140.4220 O   0  0  0  0  0  0  0  0  0  0  0  0
  183.6740  173.5120  135.9490 N   0  0  0  0  0  0  0  0  0  0  0  0
  179.7380  174.5380  138.8300 N   0  0  0  0  0  2  0  0  0  0  0  0
  183.8550  172.5100  135.0420 C   0  0  0  0  0  3  0  0  0  0  0  0
  182.0160  174.6640  137.5410 C   0  0  1  0  0  3  0  0  0  0  0  0
  179.6570  177.3680  137.6550 S   0  0  1  0  0  0  0  0  0  0  0  0
  181.9900  176.0780  136.8990 C   0  0  1  0  0  3  0  0  0  0  0  0
  180.6880  178.1760  141.1470 C   0  0  0  0  0  2  0  0  0  0  0  0
  179.2940  178.4530  141.6920 C   0  0  1  0  0  3  0  0  0  0  0  0
  179.1870  176.1260  140.7070 C   0  0  0  0  0  2  0  0  0  0  0  0
  181.4530  177.1740  137.8520 C   0  0  1  0  0  3  0  0  0  0  0  0
  184.8850  177.0250  134.8990 C   0  0  0  0  0  3  0  0  0  0  0  0
  183.5320  176.7940  135.0790 C   0  0  0  0  0  3  0  0  0  0  0  0
  183.3060  176.4180  136.3520 N   0  0  0  0  0  0  0  0  0  0  0  0
  184.4770  176.3940  137.0160 C   0  0  0  0  0  3  0  0  0  0  0  0
  185.4600  176.7740  136.1310 C   0  0  0  0  0  0  0  0  0  0  0  0
  186.9180  176.8360  136.4330 C   0  0  0  0  0  2  0  0  0  0  0  0
  186.8620  178.9860  137.4730 O   0  0  0  0  0  1  0  0  0  0  0  0
  187.1730  177.6450  137.6960 C   0  0  2  0  0  3  0  0  0  0  0  0
  188.6320  177.5270  138.0800 C   0  0  0  0  0  1  0  0  0  0  0  0
  182.1500  178.5040  137.7550 C   0  0  0  0  0  0  0  0  0  0  0  0
  183.0150  178.8620  138.6910 C   0  0  0  0  0  2  0  0  0  0  0  0
  181.9180  179.3520  136.6800 O   0  0  0  0  0  1  0  0  0  0  0  0
  178.9320  179.7660  141.3810 O   0  0  0  0  0  0  0  0  0  0  0  0
  179.3320  180.5120  142.4890 C   0  0  0  0  0  1  0  0  0  0  0  0
  2  9  2  0  0  0  0
  3 10  1  0  0  0  0
  3  2  1  0  0  0  0
  4  1  1  6  0  0  0
  4 21  1  0  0  0  0
  4 19  1  0  0  0  0
  4 20  1  0  0  0  0
  5 15  2  0  0  0  0
  5  7  1  0  0  0  0
  7  3  2  0  0  0  0
  8  7  1  0  0  0  0
  9 14  1  0  0  0  0
 11 12  2  0  0  0  0
 11 21  1  0  0  0  0
 13 10  2  0  0  0  0
 14 11  1  0  0  0  0
 15 13  1  0  0  0  0
 16 10  1  6  0  0  0
 16  9  1  0  0  0  0
 17  6  2  6  0  0  0
 17 22  1  0  0  0  0
 17  1  1  0  0  0  0
 18 25  1  1  0  0  0
 18 16  1  0  0  0  0
 18 22  1  0  0  0  0
 19 20  1  0  0  0  0
 20 35  1  6  0  0  0
 22 32  1  6  0  0  0
 23 24  2  0  0  0  0
 23 27  1  0  0  0  0
 24 25  1  0  0  0  0
 25 26  1  0  0  0  0
 27 28  1  0  0  0  0
 27 26  2  0  0  0  0
 28 30  1  0  0  0  0
 29 30  1  0  0  0  0
 30 31  1  6  0  0  0
 32 33  2  0  0  0  0
 34 32  1  0  0  0  0
 35 36  1  0  0  0  0
M  END
>  <MODEL>
7

>  <REMARK>
 VINA RESULT:      -4.4      3.678      6.289
  Name = 
  5 active torsions:
  status: ('A' for Active; 'I' for Inactive)
    1  A    between atoms: C_1  and  C_30
    2  A    between atoms: C_1  and  C_36
    3  A    between atoms: N_10  and  C_25
    4  A    between atoms: C_18  and  C_33
    5  A    between atoms: O_27  and  C_28
                            x       y       z     vdW  Elec       q    Type
                         _______ _______ _______ _____ _____    ______ ____

>  <TORSDO>
F 5

$$$$
=
 OpenBabel11032420123D

 36 40  0  0  1  0  0  0  0  0999 V2000
  189.8250  175.9450  144.2850 C   0  0  0  0  0  2  0  0  0  0  0  0
  187.7710  177.7940  139.3000 N   0  0  0  0  0  0  0  0  0  0  0  0
  186.4880  178.3650  139.1470 C   0  0  0  0  0  0  0  0  0  0  0  0
  190.7200  177.1860  144.1430 C   0  0  1  0  0  0  0  0  0  0  0  0
  184.5350  179.1270  138.0600 N   0  0  0  0  0  0  0  0  0  0  0  0
  187.4730  174.8800  143.7640 O   0  0  0  0  0  0  0  0  0  0  0  0
  185.7070  178.4330  137.9990 C   0  0  0  0  0  0  0  0  0  0  0  0
  186.1330  177.7820  136.7290 C   0  0  0  0  0  1  0  0  0  0  0  0
  188.1380  178.0540  140.5190 C   0  0  0  0  0  0  0  0  0  0  0  0
  186.0800  178.9890  140.2830 C   0  0  0  0  0  0  0  0  0  0  0  0
  190.1300  178.3920  142.0390 C   0  0  0  0  0  0  0  0  0  0  0  0
  189.7990  179.5550  142.3950 O   0  0  0  0  0  0  0  0  0  0  0  0
  184.9190  179.6910  140.3310 N   0  0  0  0  0  0  0  0  0  0  0  0
  189.4640  177.7420  140.9570 N   0  0  0  0  0  2  0  0  0  0  0  0
  184.1420  179.7530  139.2120 C   0  0  0  0  0  3  0  0  0  0  0  0
  187.0940  178.7860  141.3600 C   0  0  1  0  0  3  0  0  0  0  0  0
  188.3640  175.9880  143.2190 S   0  0  1  0  0  0  0  0  0  0  0  0
  186.4920  177.8930  142.4790 C   0  0  1  0  0  3  0  0  0  0  0  0
  190.5650  178.2530  145.2030 C   0  0  0  0  0  2  0  0  0  0  0  0
  191.7930  177.3530  145.2150 C   0  0  1  0  0  3  0  0  0  0  0  0
  191.2060  177.6640  142.7750 C   0  0  0  0  0  2  0  0  0  0  0  0
  187.5050  177.5440  143.5980 C   0  0  1  0  0  3  0  0  0  0  0  0
  183.9110  179.9110  144.0740 C   0  0  0  0  0  3  0  0  0  0  0  0
  185.2200  179.6430  143.7150 C   0  0  0  0  0  3  0  0  0  0  0  0
  185.2660  178.4950  143.0120 N   0  0  0  0  0  0  0  0  0  0  0  0
  184.0200  177.9990  142.9010 C   0  0  0  0  0  3  0  0  0  0  0  0
  183.1720  178.8690  143.5470 C   0  0  0  0  0  0  0  0  0  0  0  0
  181.7030  178.6800  143.7140 C   0  0  0  0  0  2  0  0  0  0  0  0
  180.4260  180.5020  142.8440 O   0  0  0  0  0  1  0  0  0  0  0  0
  180.9480  179.2490  142.5220 C   0  0  2  0  0  3  0  0  0  0  0  0
  179.8150  178.3160  142.1540 C   0  0  0  0  0  1  0  0  0  0  0  0
  186.9370  177.5190  144.9900 C   0  0  0  0  0  0  0  0  0  0  0  0
  187.4940  178.2530  145.9410 C   0  0  0  0  0  2  0  0  0  0  0  0
  185.8160  176.7530  145.2870 O   0  0  0  0  0  1  0  0  0  0  0  0
  191.6610  176.4100  146.2380 O   0  0  0  0  0  0  0  0  0  0  0  0
  191.2950  177.1550  147.3580 C   0  0  0  0  0  1  0  0  0  0  0  0
  2  9  2  0  0  0  0
  3  2  1  0  0  0  0
  3 10  1  0  0  0  0
  4 21  1  6  0  0  0
  4  1  1  0  0  0  0
  4 19  1  0  0  0  0
  4 20  1  0  0  0  0
  5 15  2  0  0  0  0
  7  5  1  0  0  0  0
  7  3  2  0  0  0  0
  8  7  1  0  0  0  0
  9 14  1  0  0  0  0
  9 16  1  0  0  0  0
 10 13  2  0  0  0  0
 11 12  2  0  0  0  0
 11 21  1  0  0  0  0
 14 11  1  0  0  0  0
 15 13  1  0  0  0  0
 16 10  1  6  0  0  0
 16 18  1  0  0  0  0
 17 22  1  0  0  0  0
 17  6  2  1  0  0  0
 17  1  1  0  0  0  0
 18 25  1  1  0  0  0
 18 22  1  0  0  0  0
 19 20  1  0  0  0  0
 20 35  1  1  0  0  0
 22 32  1  1  0  0  0
 24 23  2  0  0  0  0
 25 24  1  0  0  0  0
 26 25  1  0  0  0  0
 26 27  2  0  0  0  0
 27 28  1  0  0  0  0
 27 23  1  0  0  0  0
 30 31  1  1  0  0  0
 30 29  1  0  0  0  0
 30 28  1  0  0  0  0
 32 34  1  0  0  0  0
 32 33  2  0  0  0  0
 35 36  1  0  0  0  0
M  END
>  <MODEL>
8

>  <REMARK>
 VINA RESULT:      -4.1      3.794      9.005
  Name = 
  5 active torsions:
  status: ('A' for Active; 'I' for Inactive)
    1  A    between atoms: C_1  and  C_30
    2  A    between atoms: C_1  and  C_36
    3  A    between atoms: N_10  and  C_25
    4  A    between atoms: C_18  and  C_33
    5  A    between atoms: O_27  and  C_28
                            x       y       z     vdW  Elec       q    Type
                         _______ _______ _______ _____ _____    ______ ____

>  <TORSDO>
F 5

$$$$
=
 OpenBabel11032420123D

 36 40  0  0  1  0  0  0  0  0999 V2000
  189.0080  178.5920  138.4810 C   0  0  0  0  0  2  0  0  0  0  0  0
  183.5920  180.1700  139.3000 N   0  0  0  0  0  0  0  0  0  0  0  0
  182.4880  179.5060  138.7190 C   0  0  0  0  0  0  0  0  0  0  0  0
  188.8840  178.1450  139.9460 C   0  0  1  0  0  0  0  0  0  0  0  0
  180.2730  179.1540  137.9830 N   0  0  0  0  0  0  0  0  0  0  0  0
  187.7520  178.9320  136.1900 O   0  0  0  0  0  0  0  0  0  0  0  0
  181.2200  180.0110  138.4580 C   0  0  0  0  0  0  0  0  0  0  0  0
  180.8890  181.4430  138.6980 C   0  0  0  0  0  1  0  0  0  0  0  0
  184.5230  179.2730  139.4310 C   0  0  0  0  0  0  0  0  0  0  0  0
  182.7510  178.1900  138.5090 C   0  0  0  0  0  0  0  0  0  0  0  0
  186.5720  178.6150  140.7590 C   0  0  0  0  0  0  0  0  0  0  0  0
  186.1090  177.5030  141.1300 O   0  0  0  0  0  0  0  0  0  0  0  0
  181.7980  177.3390  138.0500 N   0  0  0  0  0  0  0  0  0  0  0  0
  185.7320  179.5840  140.1300 N   0  0  0  0  0  2  0  0  0  0  0  0
  180.5530  177.8290  137.7810 C   0  0  0  0  0  3  0  0  0  0  0  0
  184.1660  177.8940  138.8810 C   0  0  1  0  0  3  0  0  0  0  0  0
  187.4100  178.8480  137.6720 S   0  0  1  0  0  0  0  0  0  0  0  0
  184.9740  177.5290  137.6050 C   0  0  1  0  0  3  0  0  0  0  0  0
  189.0460  176.6660  140.2150 C   0  0  0  0  0  2  0  0  0  0  0  0
  190.1670  177.6260  140.5890 C   0  0  1  0  0  3  0  0  0  0  0  0
  188.0220  178.9180  140.9430 C   0  0  0  0  0  2  0  0  0  0  0  0
  186.4810  177.3000  137.8780 C   0  0  1  0  0  3  0  0  0  0  0  0
  183.4410  175.1610  135.2990 C   0  0  0  0  0  3  0  0  0  0  0  0
  184.0050  176.3840  135.6170 C   0  0  0  0  0  3  0  0  0  0  0  0
  184.3580  176.3910  136.9160 N   0  0  0  0  0  0  0  0  0  0  0  0
  184.0400  175.2030  137.4640 C   0  0  0  0  0  3  0  0  0  0  0  0
  183.4790  174.4310  136.4730 C   0  0  0  0  0  0  0  0  0  0  0  0
  182.9340  173.0550  136.6530 C   0  0  0  0  0  2  0  0  0  0  0  0
  185.1340  172.3840  136.0080 O   0  0  0  0  0  1  0  0  0  0  0  0
  184.0610  172.0490  136.8330 C   0  0  2  0  0  3  0  0  0  0  0  0
  183.5620  170.6680  136.4680 C   0  0  0  0  0  1  0  0  0  0  0  0
  187.1120  176.1860  137.0880 C   0  0  0  0  0  0  0  0  0  0  0  0
  187.5000  176.4030  135.8410 C   0  0  0  0  0  2  0  0  0  0  0  0
  187.3170  174.9370  137.6590 O   0  0  0  0  0  1  0  0  0  0  0  0
  191.2050  177.5050  139.6600 O   0  0  0  0  0  0  0  0  0  0  0  0
  192.3670  177.5030  140.4310 C   0  0  0  0  0  1  0  0  0  0  0  0
  2  9  2  0  0  0  0
  3  2  1  0  0  0  0
  4  1  1  6  0  0  0
  4 19  1  0  0  0  0
  4 20  1  0  0  0  0
  4 21  1  0  0  0  0
  5  7  1  0  0  0  0
  7  8  1  0  0  0  0
  7  3  2  0  0  0  0
  9 14  1  0  0  0  0
 10  3  1  0  0  0  0
 11 21  1  0  0  0  0
 11 12  2  0  0  0  0
 13 10  2  0  0  0  0
 14 11  1  0  0  0  0
 15  5  2  0  0  0  0
 15 13  1  0  0  0  0
 16 10  1  6  0  0  0
 16  9  1  0  0  0  0
 17  6  2  6  0  0  0
 17 22  1  0  0  0  0
 17  1  1  0  0  0  0
 18 25  1  1  0  0  0
 18 22  1  0  0  0  0
 18 16  1  0  0  0  0
 19 20  1  0  0  0  0
 20 35  1  6  0  0  0
 22 32  1  6  0  0  0
 23 24  2  0  0  0  0
 23 27  1  0  0  0  0
 24 25  1  0  0  0  0
 25 26  1  0  0  0  0
 27 28  1  0  0  0  0
 27 26  2  0  0  0  0
 28 30  1  0  0  0  0
 29 30  1  0  0  0  0
 30 31  1  6  0  0  0
 32 34  1  0  0  0  0
 33 32  2  0  0  0  0
 35 36  1  0  0  0  0
M  END
>  <MODEL>
9

>  <REMARK>
 VINA RESULT:      -3.9      2.768      6.516
  Name = 
  5 active torsions:
  status: ('A' for Active; 'I' for Inactive)
    1  A    between atoms: C_1  and  C_30
    2  A    between atoms: C_1  and  C_36
    3  A    between atoms: N_10  and  C_25
    4  A    between atoms: C_18  and  C_33
    5  A    between atoms: O_27  and  C_28
                            x       y       z     vdW  Elec       q    Type
                         _______ _______ _______ _____ _____    ______ ____

>  <TORSDO>
F 5

$$$$
