=
 OpenBabel11032420533D

 42 44  0  0  1  0  0  0  0  0999 V2000
  186.9430  178.4580  139.0170 C   0  0  0  0  0  0  0  0  0  0  0  0
  188.8860  177.9150  140.4360 C   0  0  0  0  0  0  0  0  0  0  0  0
  186.5330  178.4400  141.1810 N   0  0  0  0  0  0  0  0  0  0  0  0
  187.1300  178.7770  136.5390 C   0  0  0  0  0  1  0  0  0  0  0  0
  189.4070  178.0010  141.6280 N   0  0  0  0  0  0  0  0  0  0  0  0
  187.4720  178.2450  140.2420 C   0  0  1  0  0  3  0  0  0  0  0  0
  185.4320  178.7680  140.4580 C   0  0  0  0  0  3  0  0  0  0  0  0
  185.6500  178.7990  139.1180 N   0  0  0  0  0  0  0  0  0  0  0  0
  187.7230  178.4250  137.8200 N   0  0  0  0  0  0  0  0  0  0  0  0
  189.1260  178.1040  137.9310 C   0  0  0  0  0  0  0  0  0  0  0  0
  189.6830  177.4980  139.2110 C   0  0  2  0  0  3  0  0  0  0  0  0
  189.8990  178.2880  136.9540 O   0  0  0  0  0  0  0  0  0  0  0  0
  190.8870  176.3880  142.6940 C   0  0  0  0  0  2  0  0  0  0  0  0
  190.7980  177.7440  142.0100 C   0  0  1  0  0  0  0  0  0  0  0  0
  191.6470  176.6170  143.9960 C   0  0  1  0  0  3  0  0  0  0  0  0
  191.7130  177.7450  140.7980 C   0  0  0  0  0  1  0  0  0  0  0  0
  191.2770  178.7100  143.0420 C   0  0  0  0  0  3  0  0  0  0  0  0
  191.7380  178.0970  144.1200 C   0  0  0  0  0  3  0  0  0  0  0  0
  190.9170  176.0980  145.0660 O   0  0  0  0  0  0  0  0  0  0  0  0
  191.4080  176.7620  146.1890 C   0  0  0  0  0  2  0  0  0  0  0  0
  190.5500  176.4300  147.3940 C   0  0  0  0  0  2  0  0  0  0  0  0
  189.7610  177.5930  147.7570 N   0  0  0  0  0  2  0  0  0  0  0  0
  188.3720  177.3040  147.4360 C   0  0  0  0  0  2  0  0  0  0  0  0
  188.0330  177.7330  146.0070 C   0  0  0  0  0  2  0  0  0  0  0  0
  186.5410  177.6310  145.6740 C   0  0  2  0  0  3  0  0  0  0  0  0
  186.3640  177.2170  144.3520 O   0  0  0  0  0  1  0  0  0  0  0  0
  185.7970  178.9380  145.9380 C   0  0  2  0  0  3  0  0  0  0  0  0
  185.1600  178.8790  147.1790 O   0  0  0  0  0  1  0  0  0  0  0  0
  183.4800  179.1360  145.3990 O   0  0  0  0  0  1  0  0  0  0  0  0
  184.7620  179.1890  144.8540 C   0  0  0  0  0  2  0  0  0  0  0  0
  189.6570  175.9820  139.0930 C   0  0  0  0  0  2  0  0  0  0  0  0
  190.8910  175.4870  138.3600 C   0  0  0  0  0  2  0  0  0  0  0  0
  190.4870  174.6110  137.1840 C   0  0  2  0  0  3  0  0  0  0  0  0
  191.1350  175.1210  135.9090 C   0  0  0  0  0  1  0  0  0  0  0  0
  188.9690  174.5220  137.0330 C   0  0  0  0  0  2  0  0  0  0  0  0
  188.4930  174.9700  135.6570 C   0  0  0  0  0  2  0  0  0  0  0  0
  187.1860  175.4530  135.7420 O   0  0  0  0  0  0  0  0  0  0  0  0
  186.7370  175.0280  136.9930 C   0  0  0  0  0  2  0  0  0  0  0  0
  185.2280  174.8520  136.9820 C   0  0  0  0  0  2  0  0  0  0  0  0
  183.5720  173.0140  137.2700 O   0  0  0  0  0  0  0  0  0  0  0  0
  184.8500  173.5050  137.4950 C   0  0  0  0  0  0  0  0  0  0  0  0
  185.6900  172.8030  138.1150 O   0  0  0  0  0  1  0  0  0  0  0  0
  1  8  2  0  0  0  0
  2  5  2  0  0  0  0
  4  9  1  0  0  0  0
  5 14  1  0  0  0  0
  6  1  1  1  0  0  0
  6  2  1  0  0  0  0
  6  3  1  0  0  0  0
  7  3  2  0  0  0  0
  8  7  1  0  0  0  0
  9 10  1  0  0  0  0
  9  1  1  0  0  0  0
 10 11  1  0  0  0  0
 11 31  1  6  0  0  0
 11  2  1  0  0  0  0
 12 10  2  0  0  0  0
 13 15  1  0  0  0  0
 14 16  1  6  0  0  0
 14 13  1  0  0  0  0
 14 17  1  0  0  0  0
 15 18  1  0  0  0  0
 15 19  1  1  0  0  0
 17 18  2  0  0  0  0
 19 20  1  0  0  0  0
 20 21  1  0  0  0  0
 21 22  1  0  0  0  0
 23 22  1  0  0  0  0
 24 23  1  0  0  0  0
 25 26  1  6  0  0  0
 25 27  1  0  0  0  0
 25 24  1  0  0  0  0
 27 28  1  1  0  0  0
 30 29  1  0  0  0  0
 30 27  1  0  0  0  0
 32 31  1  0  0  0  0
 33 34  1  6  0  0  0
 33 32  1  0  0  0  0
 35 33  1  0  0  0  0
 36 37  1  0  0  0  0
 36 35  1  0  0  0  0
 37 38  1  0  0  0  0
 39 38  1  0  0  0  0
 39 41  1  0  0  0  0
 40 41  2  0  0  0  0
 41 42  1  0  0  0  0
M  END
>  <MODEL>
1

>  <REMARK>
 VINA RESULT:      -6.3      0.000      0.000
  Name = 
  19 active torsions:
  status: ('A' for Active; 'I' for Inactive)
    1  A    between atoms: C_2  and  N_13
    2  A    between atoms: C_3  and  C_16
    3  A    between atoms: C_3  and  C_22
    4  A    between atoms: C_4  and  O_34
    5  A    between atoms: C_6  and  C_25
    6  A    between atoms: C_6  and  C_31
    7  A    between atoms: C_8  and  C_24
    8  A    between atoms: C_8  and  O_38
    9  A    between atoms: C_15  and  C_25
   10  A    between atoms: C_15  and  C_33
   11  A    between atoms: C_16  and  C_40
   12  A    between atoms: C_17  and  C_21
   13  A    between atoms: C_17  and  O_34
   14  A    between atoms: C_19  and  C_24
   15  A    between atoms: C_21  and  N_29
   16  A    between atoms: C_22  and  C_23
   17  A    between atoms: C_23  and  O_38
   18  A    between atoms: N_29  and  C_33
   19  A    between atoms: C_36  and  C_40
                            x       y       z     vdW  Elec       q    Type
                         _______ _______ _______ _____ _____    ______ ____

>  <TORSDO>
F 19

$$$$
=
 OpenBabel11032420533D

 42 44  0  0  1  0  0  0  0  0999 V2000
  186.2630  178.2030  143.1960 C   0  0  0  0  0  0  0  0  0  0  0  0
  187.3470  178.1960  140.9810 C   0  0  0  0  0  0  0  0  0  0  0  0
  185.4030  179.6140  141.7390 N   0  0  0  0  0  0  0  0  0  0  0  0
  186.8580  176.5650  144.9950 C   0  0  0  0  0  1  0  0  0  0  0  0
  187.2180  178.4870  139.7170 N   0  0  0  0  0  0  0  0  0  0  0  0
  186.3590  178.6930  141.9400 C   0  0  0  0  0  0  0  0  0  0  0  0
  184.7480  179.6500  142.9280 C   0  0  0  0  0  3  0  0  0  0  0  0
  185.2450  178.7840  143.8490 N   0  0  0  0  0  2  0  0  0  0  0  0
  187.0810  177.1340  143.6760 N   0  0  0  0  0  0  0  0  0  0  0  0
  188.0810  176.5930  142.7870 C   0  0  0  0  0  0  0  0  0  0  0  0
  188.4810  177.3400  141.5230 C   0  0  2  0  0  3  0  0  0  0  0  0
  188.6620  175.5120  143.0680 O   0  0  0  0  0  0  0  0  0  0  0  0
  187.3070  178.1500  137.3080 C   0  0  0  0  0  2  0  0  0  0  0  0
  188.0820  178.0590  138.6140 C   0  0  1  0  0  0  0  0  0  0  0  0
  187.4840  176.8040  136.6130 C   0  0  1  0  0  3  0  0  0  0  0  0
  189.3220  178.9290  138.5130 C   0  0  0  0  0  1  0  0  0  0  0  0
  188.4490  176.6160  138.7250 C   0  0  0  0  0  3  0  0  0  0  0  0
  188.1240  175.9360  137.6380 C   0  0  0  0  0  3  0  0  0  0  0  0
  186.2360  176.2840  136.2670 O   0  0  0  0  0  0  0  0  0  0  0  0
  185.3670  177.3720  136.3260 C   0  0  0  0  0  2  0  0  0  0  0  0
  183.9810  176.8970  136.7170 C   0  0  0  0  0  2  0  0  0  0  0  0
  183.9900  176.4860  138.1100 N   0  0  0  0  0  2  0  0  0  0  0  0
  183.8370  177.6820  138.9250 C   0  0  0  0  0  2  0  0  0  0  0  0
  182.3830  178.1570  138.9420 C   0  0  0  0  0  2  0  0  0  0  0  0
  181.6200  177.7490  140.2060 C   0  0  2  0  0  3  0  0  0  0  0  0
  180.8830  176.5850  139.9770 O   0  0  0  0  0  1  0  0  0  0  0  0
  180.7200  178.8680  140.7260 C   0  0  2  0  0  3  0  0  0  0  0  0
  180.9070  180.0210  139.9620 O   0  0  0  0  0  1  0  0  0  0  0  0
  180.3620  180.3240  142.5840 O   0  0  0  0  0  1  0  0  0  0  0  0
  181.0380  179.1740  142.1810 C   0  0  0  0  0  2  0  0  0  0  0  0
  189.6740  178.2320  141.8310 C   0  0  0  0  0  2  0  0  0  0  0  0
  190.9720  177.4740  141.6120 C   0  0  0  0  0  2  0  0  0  0  0  0
  191.7180  177.3200  142.9280 C   0  0  2  0  0  3  0  0  0  0  0  0
  191.7360  175.8610  143.3480 C   0  0  0  0  0  1  0  0  0  0  0  0
  191.1260  178.2020  144.0270 C   0  0  0  0  0  2  0  0  0  0  0  0
  190.6740  177.3970  145.2400 C   0  0  0  0  0  2  0  0  0  0  0  0
  191.7200  177.3010  146.1600 O   0  0  0  0  0  0  0  0  0  0  0  0
  191.1080  176.8820  147.3420 C   0  0  0  0  0  2  0  0  0  0  0  0
  189.5990  176.8280  147.1660 C   0  0  0  0  0  2  0  0  0  0  0  0
  189.6750  178.5620  148.9520 O   0  0  0  0  0  1  0  0  0  0  0  0
  188.9210  177.7110  148.1570 C   0  0  0  0  0  0  0  0  0  0  0  0
  187.6680  177.7020  148.2620 O   0  0  0  0  0  0  0  0  0  0  0  0
  1  9  1  0  0  0  0
  1  8  1  0  0  0  0
  2 11  1  0  0  0  0
  2  6  1  0  0  0  0
  3  6  1  0  0  0  0
  3  7  2  0  0  0  0
  5  2  2  0  0  0  0
  6  1  2  0  0  0  0
  7  8  1  0  0  0  0
  9  4  1  0  0  0  0
 10 12  2  0  0  0  0
 10  9  1  0  0  0  0
 11 31  1  1  0  0  0
 11 10  1  0  0  0  0
 13 14  1  0  0  0  0
 14 16  1  6  0  0  0
 14 17  1  0  0  0  0
 14  5  1  0  0  0  0
 15 19  1  1  0  0  0
 15 13  1  0  0  0  0
 15 18  1  0  0  0  0
 18 17  2  0  0  0  0
 19 20  1  0  0  0  0
 20 21  1  0  0  0  0
 21 22  1  0  0  0  0
 22 23  1  0  0  0  0
 23 24  1  0  0  0  0
 24 25  1  0  0  0  0
 25 26  1  6  0  0  0
 25 27  1  0  0  0  0
 27 28  1  6  0  0  0
 27 30  1  0  0  0  0
 30 29  1  0  0  0  0
 32 31  1  0  0  0  0
 32 33  1  0  0  0  0
 33 34  1  1  0  0  0
 33 35  1  0  0  0  0
 35 36  1  0  0  0  0
 36 37  1  0  0  0  0
 37 38  1  0  0  0  0
 39 38  1  0  0  0  0
 39 41  1  0  0  0  0
 41 42  2  0  0  0  0
 41 40  1  0  0  0  0
M  END
>  <MODEL>
2

>  <REMARK>
 VINA RESULT:      -6.2      2.654      7.910
  Name = 
  19 active torsions:
  status: ('A' for Active; 'I' for Inactive)
    1  A    between atoms: C_2  and  N_13
    2  A    between atoms: C_3  and  C_16
    3  A    between atoms: C_3  and  C_22
    4  A    between atoms: C_4  and  O_34
    5  A    between atoms: C_6  and  C_25
    6  A    between atoms: C_6  and  C_31
    7  A    between atoms: C_8  and  C_24
    8  A    between atoms: C_8  and  O_38
    9  A    between atoms: C_15  and  C_25
   10  A    between atoms: C_15  and  C_33
   11  A    between atoms: C_16  and  C_40
   12  A    between atoms: C_17  and  C_21
   13  A    between atoms: C_17  and  O_34
   14  A    between atoms: C_19  and  C_24
   15  A    between atoms: C_21  and  N_29
   16  A    between atoms: C_22  and  C_23
   17  A    between atoms: C_23  and  O_38
   18  A    between atoms: N_29  and  C_33
   19  A    between atoms: C_36  and  C_40
                            x       y       z     vdW  Elec       q    Type
                         _______ _______ _______ _____ _____    ______ ____

>  <TORSDO>
F 19

$$$$
=
 OpenBabel11032420533D

 42 44  0  0  1  0  0  0  0  0999 V2000
  192.1590  174.1410  136.8720 C   0  0  0  0  0  0  0  0  0  0  0  0
  190.3250  175.7870  136.9720 C   0  0  0  0  0  0  0  0  0  0  0  0
  190.3210  173.5450  135.8140 N   0  0  0  0  0  0  0  0  0  0  0  0
  194.4450  174.6120  137.7810 C   0  0  0  0  0  1  0  0  0  0  0  0
  189.2220  176.2060  136.4180 N   0  0  0  0  0  0  0  0  0  0  0  0
  190.8930  174.5010  136.5630 C   0  0  1  0  0  3  0  0  0  0  0  0
  191.2980  172.6090  135.7010 C   0  0  0  0  0  3  0  0  0  0  0  0
  192.4510  172.9480  136.3340 N   0  0  0  0  0  0  0  0  0  0  0  0
  193.0580  174.9990  137.5780 N   0  0  0  0  0  0  0  0  0  0  0  0
  192.5690  176.2840  138.0150 C   0  0  0  0  0  0  0  0  0  0  0  0
  191.0760  176.5810  138.0280 C   0  0  2  0  0  3  0  0  0  0  0  0
  193.3720  177.1620  138.4270 O   0  0  0  0  0  0  0  0  0  0  0  0
  187.5760  177.2900  137.8470 C   0  0  0  0  0  2  0  0  0  0  0  0
  188.5250  177.4690  136.6720 C   0  0  1  0  0  0  0  0  0  0  0  0
  186.2230  177.8200  137.3870 C   0  0  1  0  0  3  0  0  0  0  0  0
  189.5030  178.5860  136.9940 C   0  0  0  0  0  1  0  0  0  0  0  0
  187.6360  177.8500  135.5350 C   0  0  0  0  0  3  0  0  0  0  0  0
  186.3860  178.0400  135.9240 C   0  0  0  0  0  3  0  0  0  0  0  0
  185.2380  176.8560  137.6110 O   0  0  0  0  0  0  0  0  0  0  0  0
  184.2360  177.5260  138.3120 C   0  0  0  0  0  2  0  0  0  0  0  0
  184.8610  178.5210  139.2690 C   0  0  0  0  0  2  0  0  0  0  0  0
  183.8120  179.2060  140.0030 N   0  0  0  0  0  2  0  0  0  0  0  0
  183.5880  178.4750  141.2410 C   0  0  0  0  0  2  0  0  0  0  0  0
  184.6360  178.8390  142.2950 C   0  0  0  0  0  2  0  0  0  0  0  0
  184.1700  178.5910  143.7330 C   0  0  2  0  0  3  0  0  0  0  0  0
  183.1330  179.4650  144.0670 O   0  0  0  0  0  1  0  0  0  0  0  0
  185.3140  178.6950  144.7390 C   0  0  2  0  0  3  0  0  0  0  0  0
  186.2570  177.6960  144.4910 O   0  0  0  0  0  1  0  0  0  0  0  0
  185.5370  179.3420  147.0270 O   0  0  0  0  0  1  0  0  0  0  0  0
  184.7890  178.5480  146.1580 C   0  0  0  0  0  2  0  0  0  0  0  0
  190.5160  176.2400  139.4000 C   0  0  0  0  0  2  0  0  0  0  0  0
  190.4770  177.4780  140.2790 C   0  0  0  0  0  2  0  0  0  0  0  0
  190.0990  177.1000  141.7020 C   0  0  2  0  0  3  0  0  0  0  0  0
  188.6030  177.2630  141.9040 C   0  0  0  0  0  1  0  0  0  0  0  0
  190.8860  177.9060  142.7360 C   0  0  0  0  0  2  0  0  0  0  0  0
  191.5290  177.0210  143.7970 C   0  0  0  0  0  2  0  0  0  0  0  0
  190.6010  176.7310  144.7970 O   0  0  0  0  0  0  0  0  0  0  0  0
  191.2160  177.1500  145.9770 C   0  0  0  0  0  2  0  0  0  0  0  0
  190.5220  176.5380  147.1830 C   0  0  0  0  0  2  0  0  0  0  0  0
  189.3970  178.4180  148.3660 O   0  0  0  0  0  1  0  0  0  0  0  0
  189.2980  177.3120  147.5350 C   0  0  0  0  0  0  0  0  0  0  0  0
  188.1790  176.9780  147.0670 O   0  0  0  0  0  0  0  0  0  0  0  0
  1  9  1  0  0  0  0
  2 11  1  0  0  0  0
  5 14  1  0  0  0  0
  5  2  2  0  0  0  0
  6  3  1  6  0  0  0
  6  1  1  0  0  0  0
  6  2  1  0  0  0  0
  7  3  2  0  0  0  0
  7  8  1  0  0  0  0
  8  1  2  0  0  0  0
  9  4  1  0  0  0  0
  9 10  1  0  0  0  0
 10 11  1  0  0  0  0
 10 12  2  0  0  0  0
 11 31  1  1  0  0  0
 14 16  1  1  0  0  0
 14 13  1  0  0  0  0
 15 19  1  6  0  0  0
 15 13  1  0  0  0  0
 17 18  2  0  0  0  0
 17 14  1  0  0  0  0
 18 15  1  0  0  0  0
 19 20  1  0  0  0  0
 20 21  1  0  0  0  0
 21 22  1  0  0  0  0
 22 23  1  0  0  0  0
 23 24  1  0  0  0  0
 24 25  1  0  0  0  0
 25 26  1  1  0  0  0
 25 27  1  0  0  0  0
 27 28  1  6  0  0  0
 27 30  1  0  0  0  0
 30 29  1  0  0  0  0
 31 32  1  0  0  0  0
 32 33  1  0  0  0  0
 33 34  1  6  0  0  0
 33 35  1  0  0  0  0
 35 36  1  0  0  0  0
 36 37  1  0  0  0  0
 37 38  1  0  0  0  0
 38 39  1  0  0  0  0
 39 41  1  0  0  0  0
 41 40  1  0  0  0  0
 42 41  2  0  0  0  0
M  END
>  <MODEL>
3

>  <REMARK>
 VINA RESULT:      -6.2      2.650      7.521
  Name = 
  19 active torsions:
  status: ('A' for Active; 'I' for Inactive)
    1  A    between atoms: C_2  and  N_13
    2  A    between atoms: C_3  and  C_16
    3  A    between atoms: C_3  and  C_22
    4  A    between atoms: C_4  and  O_34
    5  A    between atoms: C_6  and  C_25
    6  A    between atoms: C_6  and  C_31
    7  A    between atoms: C_8  and  C_24
    8  A    between atoms: C_8  and  O_38
    9  A    between atoms: C_15  and  C_25
   10  A    between atoms: C_15  and  C_33
   11  A    between atoms: C_16  and  C_40
   12  A    between atoms: C_17  and  C_21
   13  A    between atoms: C_17  and  O_34
   14  A    between atoms: C_19  and  C_24
   15  A    between atoms: C_21  and  N_29
   16  A    between atoms: C_22  and  C_23
   17  A    between atoms: C_23  and  O_38
   18  A    between atoms: N_29  and  C_33
   19  A    between atoms: C_36  and  C_40
                            x       y       z     vdW  Elec       q    Type
                         _______ _______ _______ _____ _____    ______ ____

>  <TORSDO>
F 19

$$$$
=
 OpenBabel11032420533D

 42 44  0  0  1  0  0  0  0  0999 V2000
  180.1000  180.7260  140.1910 C   0  0  0  0  0  0  0  0  0  0  0  0
  181.7510  179.1300  139.2920 C   0  0  0  0  0  0  0  0  0  0  0  0
  180.6470  181.0500  138.0820 N   0  0  0  0  0  0  0  0  0  0  0  0
  179.1080  180.4950  142.4800 C   0  0  0  0  0  1  0  0  0  0  0  0
  182.2490  178.5860  138.2170 N   0  0  0  0  0  0  0  0  0  0  0  0
  180.8720  180.2950  139.1690 C   0  0  0  0  0  0  0  0  0  0  0  0
  179.7200  181.9440  138.5090 C   0  0  0  0  0  3  0  0  0  0  0  0
  179.3500  181.7690  139.8040 N   0  0  0  0  0  2  0  0  0  0  0  0
  180.0430  180.0600  141.4540 N   0  0  0  0  0  0  0  0  0  0  0  0
  180.8830  178.9030  141.6510 C   0  0  0  0  0  0  0  0  0  0  0  0
  182.0260  178.6040  140.6920 C   0  0  2  0  0  3  0  0  0  0  0  0
  180.7030  178.1490  142.6430 O   0  0  0  0  0  0  0  0  0  0  0  0
  184.5220  177.7910  138.5740 C   0  0  0  0  0  2  0  0  0  0  0  0
  183.1160  177.4080  138.1380 C   0  0  1  0  0  0  0  0  0  0  0  0
  185.4600  177.2840  137.4840 C   0  0  1  0  0  3  0  0  0  0  0  0
  182.6110  176.2890  139.0320 C   0  0  0  0  0  1  0  0  0  0  0  0
  183.2820  176.9350  136.7330 C   0  0  0  0  0  3  0  0  0  0  0  0
  184.5550  176.8670  136.3780 C   0  0  0  0  0  3  0  0  0  0  0  0
  186.2850  178.3220  137.0510 O   0  0  0  0  0  0  0  0  0  0  0  0
  187.4150  177.6890  136.5340 C   0  0  0  0  0  2  0  0  0  0  0  0
  188.1750  177.0070  137.6550 C   0  0  0  0  0  2  0  0  0  0  0  0
  189.4150  177.7210  137.8980 N   0  0  0  0  0  2  0  0  0  0  0  0
  189.3110  178.3560  139.2040 C   0  0  0  0  0  2  0  0  0  0  0  0
  189.1230  177.3170  140.3100 C   0  0  0  0  0  2  0  0  0  0  0  0
  190.1530  177.4290  141.4380 C   0  0  2  0  0  3  0  0  0  0  0  0
  191.4500  177.4030  140.9180 O   0  0  0  0  0  1  0  0  0  0  0  0
  189.9720  176.3460  142.4990 C   0  0  2  0  0  3  0  0  0  0  0  0
  188.6220  176.0110  142.6090 O   0  0  0  0  0  1  0  0  0  0  0  0
  190.4130  178.2240  143.9070 O   0  0  0  0  0  1  0  0  0  0  0  0
  190.4800  176.8320  143.8470 C   0  0  0  0  0  2  0  0  0  0  0  0
  183.2990  179.2430  141.2230 C   0  0  0  0  0  2  0  0  0  0  0  0
  183.8790  178.4090  142.3520 C   0  0  0  0  0  2  0  0  0  0  0  0
  185.2440  178.9450  142.7530 C   0  0  2  0  0  3  0  0  0  0  0  0
  186.1680  178.9680  141.5500 C   0  0  0  0  0  1  0  0  0  0  0  0
  185.8560  178.1460  143.9040 C   0  0  0  0  0  2  0  0  0  0  0  0
  185.2310  178.4930  145.2510 C   0  0  0  0  0  2  0  0  0  0  0  0
  185.6880  177.6060  146.2270 O   0  0  0  0  0  0  0  0  0  0  0  0
  186.7680  178.2630  146.8170 C   0  0  0  0  0  2  0  0  0  0  0  0
  188.0560  177.4960  146.5660 C   0  0  0  0  0  2  0  0  0  0  0  0
  188.5520  178.2650  148.8820 O   0  0  0  0  0  1  0  0  0  0  0  0
  188.9750  177.6130  147.7330 C   0  0  0  0  0  0  0  0  0  0  0  0
  190.1260  177.1070  147.6880 O   0  0  0  0  0  0  0  0  0  0  0  0
  1  9  1  0  0  0  0
  2 11  1  0  0  0  0
  3  7  2  0  0  0  0
  3  6  1  0  0  0  0
  5  2  2  0  0  0  0
  6  2  1  0  0  0  0
  6  1  2  0  0  0  0
  7  8  1  0  0  0  0
  8  1  1  0  0  0  0
  9 10  1  0  0  0  0
  9  4  1  0  0  0  0
 10 12  2  0  0  0  0
 11 31  1  1  0  0  0
 11 10  1  0  0  0  0
 14  5  1  0  0  0  0
 14 13  1  0  0  0  0
 14 16  1  1  0  0  0
 15 19  1  6  0  0  0
 15 13  1  0  0  0  0
 17 14  1  0  0  0  0
 18 17  2  0  0  0  0
 18 15  1  0  0  0  0
 20 19  1  0  0  0  0
 20 21  1  0  0  0  0
 21 22  1  0  0  0  0
 22 23  1  0  0  0  0
 23 24  1  0  0  0  0
 24 25  1  0  0  0  0
 25 26  1  6  0  0  0
 25 27  1  0  0  0  0
 27 28  1  1  0  0  0
 27 30  1  0  0  0  0
 30 29  1  0  0  0  0
 31 32  1  0  0  0  0
 32 33  1  0  0  0  0
 33 34  1  6  0  0  0
 33 35  1  0  0  0  0
 35 36  1  0  0  0  0
 36 37  1  0  0  0  0
 37 38  1  0  0  0  0
 39 38  1  0  0  0  0
 39 41  1  0  0  0  0
 41 40  1  0  0  0  0
 42 41  2  0  0  0  0
M  END
>  <MODEL>
4

>  <REMARK>
 VINA RESULT:      -6.1      3.438      8.884
  Name = 
  19 active torsions:
  status: ('A' for Active; 'I' for Inactive)
    1  A    between atoms: C_2  and  N_13
    2  A    between atoms: C_3  and  C_16
    3  A    between atoms: C_3  and  C_22
    4  A    between atoms: C_4  and  O_34
    5  A    between atoms: C_6  and  C_25
    6  A    between atoms: C_6  and  C_31
    7  A    between atoms: C_8  and  C_24
    8  A    between atoms: C_8  and  O_38
    9  A    between atoms: C_15  and  C_25
   10  A    between atoms: C_15  and  C_33
   11  A    between atoms: C_16  and  C_40
   12  A    between atoms: C_17  and  C_21
   13  A    between atoms: C_17  and  O_34
   14  A    between atoms: C_19  and  C_24
   15  A    between atoms: C_21  and  N_29
   16  A    between atoms: C_22  and  C_23
   17  A    between atoms: C_23  and  O_38
   18  A    between atoms: N_29  and  C_33
   19  A    between atoms: C_36  and  C_40
                            x       y       z     vdW  Elec       q    Type
                         _______ _______ _______ _____ _____    ______ ____

>  <TORSDO>
F 19

$$$$
=
 OpenBabel11032420533D

 42 44  0  0  1  0  0  0  0  0999 V2000
  186.9530  178.4610  138.9790 C   0  0  0  0  0  0  0  0  0  0  0  0
  188.8960  177.9430  140.4080 C   0  0  0  0  0  0  0  0  0  0  0  0
  186.5290  178.4210  141.1410 N   0  0  0  0  0  0  0  0  0  0  0  0
  187.1510  178.8000  136.5050 C   0  0  0  0  0  1  0  0  0  0  0  0
  189.4070  178.0300  141.6040 N   0  0  0  0  0  0  0  0  0  0  0  0
  187.4780  178.2490  140.2070 C   0  0  1  0  0  3  0  0  0  0  0  0
  185.4270  178.7340  140.4120 C   0  0  0  0  0  3  0  0  0  0  0  0
  185.6540  178.7780  139.0740 N   0  0  0  0  0  0  0  0  0  0  0  0
  187.7420  178.4490  137.7870 N   0  0  0  0  0  0  0  0  0  0  0  0
  189.1490  178.1530  137.9060 C   0  0  0  0  0  0  0  0  0  0  0  0
  189.7080  177.5480  139.1860 C   0  0  2  0  0  3  0  0  0  0  0  0
  189.9250  178.3570  136.9350 O   0  0  0  0  0  0  0  0  0  0  0  0
  190.9120  176.4270  142.6500 C   0  0  0  0  0  2  0  0  0  0  0  0
  190.8000  177.7950  141.9930 C   0  0  1  0  0  0  0  0  0  0  0  0
  191.6550  176.6440  143.9630 C   0  0  1  0  0  3  0  0  0  0  0  0
  191.7260  177.8420  140.7910 C   0  0  0  0  0  1  0  0  0  0  0  0
  191.2480  178.7490  143.0500 C   0  0  0  0  0  3  0  0  0  0  0  0
  191.7130  178.1230  144.1190 C   0  0  0  0  0  3  0  0  0  0  0  0
  190.9270  176.0870  145.0150 O   0  0  0  0  0  0  0  0  0  0  0  0
  191.3750  176.7550  146.1540 C   0  0  0  0  0  2  0  0  0  0  0  0
  190.4430  176.4680  147.3140 C   0  0  0  0  0  2  0  0  0  0  0  0
  189.7670  177.6930  147.7020 N   0  0  0  0  0  2  0  0  0  0  0  0
  188.3440  177.5100  147.4550 C   0  0  0  0  0  2  0  0  0  0  0  0
  188.0100  177.7120  145.9750 C   0  0  0  0  0  2  0  0  0  0  0  0
  186.5120  177.6200  145.6680 C   0  0  2  0  0  3  0  0  0  0  0  0
  186.3090  177.1550  144.3660 O   0  0  0  0  0  1  0  0  0  0  0  0
  185.7930  178.9490  145.8880 C   0  0  2  0  0  3  0  0  0  0  0  0
  185.1480  178.9410  147.1260 O   0  0  0  0  0  1  0  0  0  0  0  0
  183.4820  179.1580  145.3260 O   0  0  0  0  0  1  0  0  0  0  0  0
  184.7690  179.1870  144.7900 C   0  0  0  0  0  2  0  0  0  0  0  0
  189.7100  176.0330  139.0570 C   0  0  0  0  0  2  0  0  0  0  0  0
  191.1070  175.5290  138.7400 C   0  0  0  0  0  2  0  0  0  0  0  0
  191.2150  175.1750  137.2650 C   0  0  2  0  0  3  0  0  0  0  0  0
  190.5000  173.8650  136.9910 C   0  0  0  0  0  1  0  0  0  0  0  0
  192.6690  175.1180  136.7960 C   0  0  0  0  0  2  0  0  0  0  0  0
  193.5110  174.1550  137.6260 C   0  0  0  0  0  2  0  0  0  0  0  0
  194.7720  174.7070  137.8550 O   0  0  0  0  0  0  0  0  0  0  0  0
  195.5200  173.6580  138.3900 C   0  0  0  0  0  2  0  0  0  0  0  0
  196.8770  173.5740  137.7100 C   0  0  0  0  0  2  0  0  0  0  0  0
  197.5730  175.6520  136.5260 O   0  0  0  0  0  0  0  0  0  0  0  0
  197.5420  174.9080  137.6960 C   0  0  0  0  0  0  0  0  0  0  0  0
  198.0610  175.3700  138.7460 O   0  0  0  0  0  1  0  0  0  0  0  0
  1  8  2  0  0  0  0
  2  5  2  0  0  0  0
  4  9  1  0  0  0  0
  5 14  1  0  0  0  0
  6  1  1  1  0  0  0
  6  2  1  0  0  0  0
  6  3  1  0  0  0  0
  7  3  2  0  0  0  0
  8  7  1  0  0  0  0
  9 10  1  0  0  0  0
  9  1  1  0  0  0  0
 10 11  1  0  0  0  0
 11 31  1  6  0  0  0
 11  2  1  0  0  0  0
 12 10  2  0  0  0  0
 13 15  1  0  0  0  0
 14 16  1  6  0  0  0
 14 13  1  0  0  0  0
 14 17  1  0  0  0  0
 15 18  1  0  0  0  0
 15 19  1  1  0  0  0
 17 18  2  0  0  0  0
 19 20  1  0  0  0  0
 20 21  1  0  0  0  0
 21 22  1  0  0  0  0
 23 22  1  0  0  0  0
 24 23  1  0  0  0  0
 25 26  1  6  0  0  0
 25 27  1  0  0  0  0
 25 24  1  0  0  0  0
 27 28  1  1  0  0  0
 30 29  1  0  0  0  0
 30 27  1  0  0  0  0
 32 31  1  0  0  0  0
 33 34  1  1  0  0  0
 33 32  1  0  0  0  0
 35 33  1  0  0  0  0
 35 36  1  0  0  0  0
 36 37  1  0  0  0  0
 37 38  1  0  0  0  0
 39 38  1  0  0  0  0
 40 41  2  0  0  0  0
 41 39  1  0  0  0  0
 41 42  1  0  0  0  0
M  END
>  <MODEL>
5

>  <REMARK>
 VINA RESULT:      -6.1      2.688      4.515
  Name = 
  19 active torsions:
  status: ('A' for Active; 'I' for Inactive)
    1  A    between atoms: C_2  and  N_13
    2  A    between atoms: C_3  and  C_16
    3  A    between atoms: C_3  and  C_22
    4  A    between atoms: C_4  and  O_34
    5  A    between atoms: C_6  and  C_25
    6  A    between atoms: C_6  and  C_31
    7  A    between atoms: C_8  and  C_24
    8  A    between atoms: C_8  and  O_38
    9  A    between atoms: C_15  and  C_25
   10  A    between atoms: C_15  and  C_33
   11  A    between atoms: C_16  and  C_40
   12  A    between atoms: C_17  and  C_21
   13  A    between atoms: C_17  and  O_34
   14  A    between atoms: C_19  and  C_24
   15  A    between atoms: C_21  and  N_29
   16  A    between atoms: C_22  and  C_23
   17  A    between atoms: C_23  and  O_38
   18  A    between atoms: N_29  and  C_33
   19  A    between atoms: C_36  and  C_40
                            x       y       z     vdW  Elec       q    Type
                         _______ _______ _______ _____ _____    ______ ____

>  <TORSDO>
F 19

$$$$
=
 OpenBabel11032420533D

 42 44  0  0  1  0  0  0  0  0999 V2000
  180.2700  180.8670  139.7900 C   0  0  0  0  0  0  0  0  0  0  0  0
  181.9070  179.2480  138.9060 C   0  0  0  0  0  0  0  0  0  0  0  0
  181.0860  181.3650  137.8050 N   0  0  0  0  0  0  0  0  0  0  0  0
  178.9980  180.4780  141.9130 C   0  0  0  0  0  1  0  0  0  0  0  0
  182.4920  178.7810  137.8390 N   0  0  0  0  0  0  0  0  0  0  0  0
  181.1280  180.4850  138.8190 C   0  0  0  0  0  0  0  0  0  0  0  0
  180.1750  182.2800  138.2240 C   0  0  0  0  0  3  0  0  0  0  0  0
  179.6430  182.0000  139.4420 N   0  0  0  0  0  2  0  0  0  0  0  0
  180.0180  180.0790  140.9560 N   0  0  0  0  0  0  0  0  0  0  0  0
  180.7500  178.8460  141.1130 C   0  0  0  0  0  0  0  0  0  0  0  0
  181.9770  178.5580  140.2590 C   0  0  2  0  0  3  0  0  0  0  0  0
  180.4030  178.0090  141.9880 O   0  0  0  0  0  0  0  0  0  0  0  0
  184.7020  177.8240  138.1980 C   0  0  0  0  0  2  0  0  0  0  0  0
  183.2820  177.5530  137.7250 C   0  0  1  0  0  0  0  0  0  0  0  0
  185.6240  177.3010  137.1020 C   0  0  1  0  0  3  0  0  0  0  0  0
  182.6890  176.4340  138.5640 C   0  0  0  0  0  1  0  0  0  0  0  0
  183.4420  177.1270  136.3030 C   0  0  0  0  0  3  0  0  0  0  0  0
  184.7140  176.9900  135.9660 C   0  0  0  0  0  3  0  0  0  0  0  0
  186.5230  178.2990  136.7250 O   0  0  0  0  0  0  0  0  0  0  0  0
  186.9340  177.9450  135.4410 C   0  0  0  0  0  2  0  0  0  0  0  0
  188.3840  177.5050  135.4720 C   0  0  0  0  0  2  0  0  0  0  0  0
  188.4440  176.0560  135.5340 N   0  0  0  0  0  2  0  0  0  0  0  0
  189.2020  175.6950  136.7230 C   0  0  0  0  0  2  0  0  0  0  0  0
  190.3100  176.7130  137.0030 C   0  0  0  0  0  2  0  0  0  0  0  0
  191.1370  176.3910  138.2510 C   0  0  2  0  0  3  0  0  0  0  0  0
  191.2520  175.0080  138.4150 O   0  0  0  0  0  1  0  0  0  0  0  0
  190.5650  177.0410  139.5090 C   0  0  2  0  0  3  0  0  0  0  0  0
  189.8120  178.1640  139.1620 O   0  0  0  0  0  1  0  0  0  0  0  0
  192.9200  177.2670  139.8290 O   0  0  0  0  0  1  0  0  0  0  0  0
  191.6860  177.4590  140.4480 C   0  0  0  0  0  2  0  0  0  0  0  0
  183.2170  179.0350  140.9980 C   0  0  0  0  0  2  0  0  0  0  0  0
  183.8420  177.8920  141.7770 C   0  0  0  0  0  2  0  0  0  0  0  0
  185.1250  178.3540  142.4500 C   0  0  2  0  0  3  0  0  0  0  0  0
  184.8010  179.2840  143.6050 C   0  0  0  0  0  1  0  0  0  0  0  0
  186.0820  179.0180  141.4590 C   0  0  0  0  0  2  0  0  0  0  0  0
  187.5240  178.5630  141.6490 C   0  0  0  0  0  2  0  0  0  0  0  0
  187.5810  177.5660  142.6250 O   0  0  0  0  0  0  0  0  0  0  0  0
  188.8340  177.7280  143.2170 C   0  0  0  0  0  2  0  0  0  0  0  0
  188.9580  176.8410  144.4440 C   0  0  0  0  0  2  0  0  0  0  0  0
  186.9580  177.6450  145.6900 O   0  0  0  0  0  0  0  0  0  0  0  0
  188.3350  177.4930  145.6310 C   0  0  0  0  0  0  0  0  0  0  0  0
  189.0510  177.8890  146.5870 O   0  0  0  0  0  1  0  0  0  0  0  0
  1  9  1  0  0  0  0
  2 11  1  0  0  0  0
  3  7  2  0  0  0  0
  3  6  1  0  0  0  0
  5  2  2  0  0  0  0
  6  2  1  0  0  0  0
  6  1  2  0  0  0  0
  7  8  1  0  0  0  0
  8  1  1  0  0  0  0
  9 10  1  0  0  0  0
  9  4  1  0  0  0  0
 10 12  2  0  0  0  0
 11 31  1  1  0  0  0
 11 10  1  0  0  0  0
 14  5  1  0  0  0  0
 14 13  1  0  0  0  0
 14 16  1  1  0  0  0
 15 19  1  6  0  0  0
 15 13  1  0  0  0  0
 17 14  1  0  0  0  0
 18 17  2  0  0  0  0
 18 15  1  0  0  0  0
 20 21  1  0  0  0  0
 20 19  1  0  0  0  0
 21 22  1  0  0  0  0
 22 23  1  0  0  0  0
 23 24  1  0  0  0  0
 24 25  1  0  0  0  0
 25 26  1  1  0  0  0
 25 27  1  0  0  0  0
 27 28  1  6  0  0  0
 27 30  1  0  0  0  0
 29 30  1  0  0  0  0
 31 32  1  0  0  0  0
 32 33  1  0  0  0  0
 33 34  1  1  0  0  0
 35 36  1  0  0  0  0
 35 33  1  0  0  0  0
 36 37  1  0  0  0  0
 37 38  1  0  0  0  0
 38 39  1  0  0  0  0
 39 41  1  0  0  0  0
 41 40  2  0  0  0  0
 41 42  1  0  0  0  0
M  END
>  <MODEL>
6

>  <REMARK>
 VINA RESULT:      -5.9      3.472      9.042
  Name = 
  19 active torsions:
  status: ('A' for Active; 'I' for Inactive)
    1  A    between atoms: C_2  and  N_13
    2  A    between atoms: C_3  and  C_16
    3  A    between atoms: C_3  and  C_22
    4  A    between atoms: C_4  and  O_34
    5  A    between atoms: C_6  and  C_25
    6  A    between atoms: C_6  and  C_31
    7  A    between atoms: C_8  and  C_24
    8  A    between atoms: C_8  and  O_38
    9  A    between atoms: C_15  and  C_25
   10  A    between atoms: C_15  and  C_33
   11  A    between atoms: C_16  and  C_40
   12  A    between atoms: C_17  and  C_21
   13  A    between atoms: C_17  and  O_34
   14  A    between atoms: C_19  and  C_24
   15  A    between atoms: C_21  and  N_29
   16  A    between atoms: C_22  and  C_23
   17  A    between atoms: C_23  and  O_38
   18  A    between atoms: N_29  and  C_33
   19  A    between atoms: C_36  and  C_40
                            x       y       z     vdW  Elec       q    Type
                         _______ _______ _______ _____ _____    ______ ____

>  <TORSDO>
F 19

$$$$
=
 OpenBabel11032420533D

 42 44  0  0  1  0  0  0  0  0999 V2000
  187.8140  175.2690  136.0930 C   0  0  0  0  0  0  0  0  0  0  0  0
  185.6900  175.9560  137.1400 C   0  0  0  0  0  0  0  0  0  0  0  0
  186.6990  173.6440  137.0780 N   0  0  0  0  0  0  0  0  0  0  0  0
  189.2020  176.8280  134.7080 C   0  0  0  0  0  1  0  0  0  0  0  0
  184.5250  175.5630  137.5720 N   0  0  0  0  0  0  0  0  0  0  0  0
  186.7090  174.9590  136.8060 C   0  0  1  0  0  3  0  0  0  0  0  0
  187.8440  173.1980  136.5020 C   0  0  0  0  0  3  0  0  0  0  0  0
  188.5540  174.1710  135.8760 N   0  0  0  0  0  0  0  0  0  0  0  0
  188.0570  176.5760  135.5680 N   0  0  0  0  0  0  0  0  0  0  0  0
  187.0970  177.6130  135.8580 C   0  0  0  0  0  0  0  0  0  0  0  0
  186.0520  177.4200  136.9470 C   0  0  2  0  0  3  0  0  0  0  0  0
  187.1370  178.7070  135.2350 O   0  0  0  0  0  0  0  0  0  0  0  0
  183.8380  177.5130  138.8580 C   0  0  0  0  0  2  0  0  0  0  0  0
  183.3780  176.4040  137.9240 C   0  0  1  0  0  0  0  0  0  0  0  0
  182.8840  177.4930  140.0470 C   0  0  1  0  0  3  0  0  0  0  0  0
  182.7500  177.0290  136.6900 C   0  0  0  0  0  1  0  0  0  0  0  0
  182.3610  175.6520  138.7170 C   0  0  0  0  0  3  0  0  0  0  0  0
  182.0940  176.2440  139.8690 C   0  0  0  0  0  3  0  0  0  0  0  0
  183.6120  177.4250  141.2350 O   0  0  0  0  0  0  0  0  0  0  0  0
  183.5140  178.7010  141.7880 C   0  0  0  0  0  2  0  0  0  0  0  0
  184.9000  179.2280  142.1030 C   0  0  0  0  0  2  0  0  0  0  0  0
  184.9190  179.7520  143.4570 N   0  0  0  0  0  2  0  0  0  0  0  0
  184.6770  178.6400  144.3650 C   0  0  0  0  0  2  0  0  0  0  0  0
  185.9670  178.2050  145.0620 C   0  0  0  0  0  2  0  0  0  0  0  0
  185.9040  178.3100  146.5890 C   0  0  2  0  0  3  0  0  0  0  0  0
  185.6700  179.6320  146.9760 O   0  0  0  0  0  1  0  0  0  0  0  0
  187.1620  177.7630  147.2600 C   0  0  2  0  0  3  0  0  0  0  0  0
  187.5760  178.6310  148.2710 O   0  0  0  0  0  1  0  0  0  0  0  0
  189.3790  176.9830  146.8360 O   0  0  0  0  0  1  0  0  0  0  0  0
  188.2820  177.6070  146.2430 C   0  0  0  0  0  2  0  0  0  0  0  0
  186.5930  177.9760  138.2550 C   0  0  0  0  0  2  0  0  0  0  0  0
  187.9470  178.6280  138.0340 C   0  0  0  0  0  2  0  0  0  0  0  0
  188.8800  178.3040  139.1900 C   0  0  2  0  0  3  0  0  0  0  0  0
  189.3670  176.8710  139.0790 C   0  0  0  0  0  1  0  0  0  0  0  0
  188.2200  178.5590  140.5460 C   0  0  0  0  0  2  0  0  0  0  0  0
  189.1670  178.3000  141.7110 C   0  0  0  0  0  2  0  0  0  0  0  0
  188.6260  177.3260  142.5530 O   0  0  0  0  0  0  0  0  0  0  0  0
  189.5900  176.3180  142.5860 C   0  0  0  0  0  2  0  0  0  0  0  0
  190.9850  176.9200  142.5870 C   0  0  0  0  0  2  0  0  0  0  0  0
  192.0170  175.6040  144.4320 O   0  0  0  0  0  0  0  0  0  0  0  0
  191.5960  176.8320  143.9430 C   0  0  0  0  0  0  0  0  0  0  0  0
  191.7490  177.8680  144.6400 O   0  0  0  0  0  1  0  0  0  0  0  0
  2  5  2  0  0  0  0
  4  9  1  0  0  0  0
  5 14  1  0  0  0  0
  6  1  1  6  0  0  0
  6  3  1  0  0  0  0
  6  2  1  0  0  0  0
  7  3  2  0  0  0  0
  8  1  2  0  0  0  0
  8  7  1  0  0  0  0
  9 10  1  0  0  0  0
  9  1  1  0  0  0  0
 10 11  1  0  0  0  0
 11  2  1  0  0  0  0
 11 31  1  1  0  0  0
 12 10  2  0  0  0  0
 13 15  1  0  0  0  0
 14 16  1  6  0  0  0
 14 17  1  0  0  0  0
 14 13  1  0  0  0  0
 15 19  1  1  0  0  0
 17 18  2  0  0  0  0
 18 15  1  0  0  0  0
 19 20  1  0  0  0  0
 20 21  1  0  0  0  0
 21 22  1  0  0  0  0
 22 23  1  0  0  0  0
 23 24  1  0  0  0  0
 24 25  1  0  0  0  0
 25 26  1  6  0  0  0
 25 27  1  0  0  0  0
 27 28  1  1  0  0  0
 30 29  1  0  0  0  0
 30 27  1  0  0  0  0
 32 31  1  0  0  0  0
 32 33  1  0  0  0  0
 33 34  1  1  0  0  0
 33 35  1  0  0  0  0
 35 36  1  0  0  0  0
 36 37  1  0  0  0  0
 37 38  1  0  0  0  0
 38 39  1  0  0  0  0
 39 41  1  0  0  0  0
 41 40  2  0  0  0  0
 41 42  1  0  0  0  0
M  END
>  <MODEL>
7

>  <REMARK>
 VINA RESULT:      -5.7      2.616      6.695
  Name = 
  19 active torsions:
  status: ('A' for Active; 'I' for Inactive)
    1  A    between atoms: C_2  and  N_13
    2  A    between atoms: C_3  and  C_16
    3  A    between atoms: C_3  and  C_22
    4  A    between atoms: C_4  and  O_34
    5  A    between atoms: C_6  and  C_25
    6  A    between atoms: C_6  and  C_31
    7  A    between atoms: C_8  and  C_24
    8  A    between atoms: C_8  and  O_38
    9  A    between atoms: C_15  and  C_25
   10  A    between atoms: C_15  and  C_33
   11  A    between atoms: C_16  and  C_40
   12  A    between atoms: C_17  and  C_21
   13  A    between atoms: C_17  and  O_34
   14  A    between atoms: C_19  and  C_24
   15  A    between atoms: C_21  and  N_29
   16  A    between atoms: C_22  and  C_23
   17  A    between atoms: C_23  and  O_38
   18  A    between atoms: N_29  and  C_33
   19  A    between atoms: C_36  and  C_40
                            x       y       z     vdW  Elec       q    Type
                         _______ _______ _______ _____ _____    ______ ____

>  <TORSDO>
F 19

$$$$
=
 OpenBabel11032420533D

 42 44  0  0  1  0  0  0  0  0999 V2000
  186.3280  176.1920  136.3120 C   0  0  0  0  0  0  0  0  0  0  0  0
  185.1210  177.4610  138.0480 C   0  0  0  0  0  0  0  0  0  0  0  0
  184.5930  175.1500  137.1820 N   0  0  0  0  0  0  0  0  0  0  0  0
  188.2030  177.1810  134.9760 C   0  0  0  0  0  1  0  0  0  0  0  0
  183.9980  177.6030  138.6940 N   0  0  0  0  0  0  0  0  0  0  0  0
  185.3330  176.2700  137.2220 C   0  0  1  0  0  3  0  0  0  0  0  0
  185.1980  174.4110  136.2190 C   0  0  0  0  0  3  0  0  0  0  0  0
  186.2680  175.0260  135.6510 N   0  0  0  0  0  0  0  0  0  0  0  0
  187.2240  177.2740  136.0480 N   0  0  0  0  0  0  0  0  0  0  0  0
  187.0790  178.4810  136.8250 C   0  0  0  0  0  0  0  0  0  0  0  0
  186.2400  178.4890  138.0950 C   0  0  2  0  0  3  0  0  0  0  0  0
  187.6780  179.5340  136.4800 O   0  0  0  0  0  0  0  0  0  0  0  0
  184.6640  178.9730  140.5930 C   0  0  0  0  0  2  0  0  0  0  0  0
  183.5950  178.7300  139.5390 C   0  0  1  0  0  0  0  0  0  0  0  0
  183.9360  179.0370  141.9320 C   0  0  1  0  0  3  0  0  0  0  0  0
  183.4140  179.9970  138.7210 C   0  0  0  0  0  1  0  0  0  0  0  0
  182.3650  178.4220  140.3250 C   0  0  0  0  0  3  0  0  0  0  0  0
  182.5510  178.5890  141.6240 C   0  0  0  0  0  3  0  0  0  0  0  0
  184.5280  178.1520  142.8340 O   0  0  0  0  0  0  0  0  0  0  0  0
  185.0830  178.9660  143.8210 C   0  0  0  0  0  2  0  0  0  0  0  0
  184.1940  178.9570  145.0480 C   0  0  0  0  0  2  0  0  0  0  0  0
  185.0120  178.7670  146.2320 N   0  0  0  0  0  2  0  0  0  0  0  0
  186.3540  178.4150  145.7920 C   0  0  0  0  0  2  0  0  0  0  0  0
  187.1900  177.8660  146.9500 C   0  0  0  0  0  2  0  0  0  0  0  0
  188.4680  177.1530  146.4980 C   0  0  2  0  0  3  0  0  0  0  0  0
  189.5090  177.4050  147.3940 O   0  0  0  0  0  1  0  0  0  0  0  0
  188.8720  177.5350  145.0750 C   0  0  2  0  0  3  0  0  0  0  0  0
  189.2020  176.3870  144.3520 O   0  0  0  0  0  1  0  0  0  0  0  0
  191.0180  178.0570  144.1660 O   0  0  0  0  0  1  0  0  0  0  0  0
  190.0670  178.4750  145.0960 C   0  0  0  0  0  2  0  0  0  0  0  0
  187.1400  178.1930  139.2850 C   0  0  0  0  0  2  0  0  0  0  0  0
  188.5950  178.1510  138.8510 C   0  0  0  0  0  2  0  0  0  0  0  0
  189.3600  177.1300  139.6780 C   0  0  2  0  0  3  0  0  0  0  0  0
  189.4500  177.5920  141.1210 C   0  0  0  0  0  1  0  0  0  0  0  0
  190.7480  176.8510  139.1000 C   0  0  0  0  0  2  0  0  0  0  0  0
  190.6920  175.9990  137.8370 C   0  0  0  0  0  2  0  0  0  0  0  0
  191.3770  174.8010  138.0450 O   0  0  0  0  0  0  0  0  0  0  0  0
  192.7250  175.1520  137.9750 C   0  0  0  0  0  2  0  0  0  0  0  0
  193.5600  173.9610  137.5330 C   0  0  0  0  0  2  0  0  0  0  0  0
  195.2740  173.0470  139.0910 O   0  0  0  0  0  1  0  0  0  0  0  0
  194.9130  174.0060  138.1570 C   0  0  0  0  0  0  0  0  0  0  0  0
  195.7350  174.8990  137.8260 O   0  0  0  0  0  0  0  0  0  0  0  0
  2 11  1  0  0  0  0
  2  5  2  0  0  0  0
  3  6  1  0  0  0  0
  4  9  1  0  0  0  0
  5 14  1  0  0  0  0
  6  1  1  6  0  0  0
  6  2  1  0  0  0  0
  7  3  2  0  0  0  0
  8  7  1  0  0  0  0
  8  1  2  0  0  0  0
  9  1  1  0  0  0  0
  9 10  1  0  0  0  0
 10 11  1  0  0  0  0
 11 31  1  1  0  0  0
 12 10  2  0  0  0  0
 13 15  1  0  0  0  0
 14 16  1  6  0  0  0
 14 17  1  0  0  0  0
 14 13  1  0  0  0  0
 15 19  1  1  0  0  0
 17 18  2  0  0  0  0
 18 15  1  0  0  0  0
 19 20  1  0  0  0  0
 20 21  1  0  0  0  0
 21 22  1  0  0  0  0
 23 22  1  0  0  0  0
 23 24  1  0  0  0  0
 25 24  1  0  0  0  0
 25 26  1  1  0  0  0
 27 28  1  6  0  0  0
 27 30  1  0  0  0  0
 27 25  1  0  0  0  0
 29 30  1  0  0  0  0
 32 31  1  0  0  0  0
 32 33  1  0  0  0  0
 33 34  1  1  0  0  0
 35 33  1  0  0  0  0
 36 37  1  0  0  0  0
 36 35  1  0  0  0  0
 38 37  1  0  0  0  0
 39 38  1  0  0  0  0
 39 41  1  0  0  0  0
 41 40  1  0  0  0  0
 42 41  2  0  0  0  0
M  END
>  <MODEL>
8

>  <REMARK>
 VINA RESULT:      -5.6      2.787      6.120
  Name = 
  19 active torsions:
  status: ('A' for Active; 'I' for Inactive)
    1  A    between atoms: C_2  and  N_13
    2  A    between atoms: C_3  and  C_16
    3  A    between atoms: C_3  and  C_22
    4  A    between atoms: C_4  and  O_34
    5  A    between atoms: C_6  and  C_25
    6  A    between atoms: C_6  and  C_31
    7  A    between atoms: C_8  and  C_24
    8  A    between atoms: C_8  and  O_38
    9  A    between atoms: C_15  and  C_25
   10  A    between atoms: C_15  and  C_33
   11  A    between atoms: C_16  and  C_40
   12  A    between atoms: C_17  and  C_21
   13  A    between atoms: C_17  and  O_34
   14  A    between atoms: C_19  and  C_24
   15  A    between atoms: C_21  and  N_29
   16  A    between atoms: C_22  and  C_23
   17  A    between atoms: C_23  and  O_38
   18  A    between atoms: N_29  and  C_33
   19  A    between atoms: C_36  and  C_40
                            x       y       z     vdW  Elec       q    Type
                         _______ _______ _______ _____ _____    ______ ____

>  <TORSDO>
F 19

$$$$
=
 OpenBabel11032420533D

 42 44  0  0  1  0  0  0  0  0999 V2000
  186.1730  178.2020  142.7210 C   0  0  0  0  0  0  0  0  0  0  0  0
  187.3680  178.1240  140.5650 C   0  0  0  0  0  0  0  0  0  0  0  0
  185.2490  179.3820  141.1070 N   0  0  0  0  0  0  0  0  0  0  0  0
  186.8410  176.7970  144.6840 C   0  0  0  0  0  1  0  0  0  0  0  0
  187.2760  178.2910  139.2750 N   0  0  0  0  0  0  0  0  0  0  0  0
  186.2840  178.5910  141.4310 C   0  0  0  0  0  0  0  0  0  0  0  0
  184.5320  179.4470  142.2570 C   0  0  0  0  0  3  0  0  0  0  0  0
  185.0680  178.7220  143.2740 N   0  0  0  0  0  2  0  0  0  0  0  0
  187.0730  177.2730  143.3300 N   0  0  0  0  0  0  0  0  0  0  0  0
  188.1690  176.7700  142.5380 C   0  0  0  0  0  0  0  0  0  0  0  0
  188.5550  177.4470  141.2300 C   0  0  2  0  0  3  0  0  0  0  0  0
  188.8450  175.7870  142.9410 O   0  0  0  0  0  0  0  0  0  0  0  0
  187.4820  177.2970  137.0620 C   0  0  0  0  0  2  0  0  0  0  0  0
  188.2370  177.8670  138.2540 C   0  0  1  0  0  0  0  0  0  0  0  0
  188.1210  175.9460  136.7600 C   0  0  1  0  0  3  0  0  0  0  0  0
  189.0940  179.0290  137.7840 C   0  0  0  0  0  1  0  0  0  0  0  0
  189.0870  176.7350  138.7280 C   0  0  0  0  0  3  0  0  0  0  0  0
  189.0230  175.6920  137.9160 C   0  0  0  0  0  3  0  0  0  0  0  0
  187.1350  174.9600  136.7060 O   0  0  0  0  0  0  0  0  0  0  0  0
  187.8360  173.7570  136.6340 C   0  0  0  0  0  2  0  0  0  0  0  0
  188.3830  173.5690  135.2320 C   0  0  0  0  0  2  0  0  0  0  0  0
  189.6500  172.8650  135.3010 N   0  0  0  0  0  2  0  0  0  0  0  0
  190.7010  173.8090  134.9520 C   0  0  0  0  0  2  0  0  0  0  0  0
  191.7430  173.9140  136.0670 C   0  0  0  0  0  2  0  0  0  0  0  0
  192.1790  175.3520  136.3640 C   0  0  2  0  0  3  0  0  0  0  0  0
  192.8520  175.8950  135.2670 O   0  0  0  0  0  1  0  0  0  0  0  0
  193.0320  175.4500  137.6270 C   0  0  2  0  0  3  0  0  0  0  0  0
  193.5660  176.7350  137.7400 O   0  0  0  0  0  1  0  0  0  0  0  0
  195.3160  174.9870  138.1470 O   0  0  0  0  0  1  0  0  0  0  0  0
  194.1660  174.4380  137.5820 C   0  0  0  0  0  2  0  0  0  0  0  0
  189.6300  178.4850  141.5090 C   0  0  0  0  0  2  0  0  0  0  0  0
  191.0110  177.8840  141.3150 C   0  0  0  0  0  2  0  0  0  0  0  0
  191.7510  177.8290  142.6420 C   0  0  2  0  0  3  0  0  0  0  0  0
  191.8460  176.3930  143.1250 C   0  0  0  0  0  1  0  0  0  0  0  0
  191.0990  178.7240  143.6960 C   0  0  0  0  0  2  0  0  0  0  0  0
  191.1760  178.1260  145.0960 C   0  0  0  0  0  2  0  0  0  0  0  0
  189.8880  177.9170  145.5920 O   0  0  0  0  0  0  0  0  0  0  0  0
  190.0630  177.0390  146.6620 C   0  0  0  0  0  2  0  0  0  0  0  0
  191.4290  176.3770  146.5840 C   0  0  0  0  0  2  0  0  0  0  0  0
  192.7680  175.2550  148.3590 O   0  0  0  0  0  0  0  0  0  0  0  0
  192.0950  176.3840  147.9170 C   0  0  0  0  0  0  0  0  0  0  0  0
  192.0650  177.4170  148.6360 O   0  0  0  0  0  1  0  0  0  0  0  0
  1  8  1  0  0  0  0
  1  9  1  0  0  0  0
  2 11  1  0  0  0  0
  2  6  1  0  0  0  0
  3  6  1  0  0  0  0
  3  7  2  0  0  0  0
  5  2  2  0  0  0  0
  6  1  2  0  0  0  0
  7  8  1  0  0  0  0
  9  4  1  0  0  0  0
 10 12  2  0  0  0  0
 10  9  1  0  0  0  0
 11 31  1  1  0  0  0
 11 10  1  0  0  0  0
 13 14  1  0  0  0  0
 14 16  1  6  0  0  0
 14 17  1  0  0  0  0
 14  5  1  0  0  0  0
 15 19  1  1  0  0  0
 15 13  1  0  0  0  0
 15 18  1  0  0  0  0
 18 17  2  0  0  0  0
 20 19  1  0  0  0  0
 21 22  1  0  0  0  0
 21 20  1  0  0  0  0
 23 22  1  0  0  0  0
 23 24  1  0  0  0  0
 24 25  1  0  0  0  0
 25 26  1  6  0  0  0
 25 27  1  0  0  0  0
 27 28  1  6  0  0  0
 30 27  1  0  0  0  0
 30 29  1  0  0  0  0
 32 31  1  0  0  0  0
 32 33  1  0  0  0  0
 33 34  1  1  0  0  0
 33 35  1  0  0  0  0
 35 36  1  0  0  0  0
 36 37  1  0  0  0  0
 37 38  1  0  0  0  0
 39 38  1  0  0  0  0
 39 41  1  0  0  0  0
 41 40  2  0  0  0  0
 41 42  1  0  0  0  0
M  END
>  <MODEL>
9

>  <REMARK>
 VINA RESULT:      -5.6      2.434      9.020
  Name = 
  19 active torsions:
  status: ('A' for Active; 'I' for Inactive)
    1  A    between atoms: C_2  and  N_13
    2  A    between atoms: C_3  and  C_16
    3  A    between atoms: C_3  and  C_22
    4  A    between atoms: C_4  and  O_34
    5  A    between atoms: C_6  and  C_25
    6  A    between atoms: C_6  and  C_31
    7  A    between atoms: C_8  and  C_24
    8  A    between atoms: C_8  and  O_38
    9  A    between atoms: C_15  and  C_25
   10  A    between atoms: C_15  and  C_33
   11  A    between atoms: C_16  and  C_40
   12  A    between atoms: C_17  and  C_21
   13  A    between atoms: C_17  and  O_34
   14  A    between atoms: C_19  and  C_24
   15  A    between atoms: C_21  and  N_29
   16  A    between atoms: C_22  and  C_23
   17  A    between atoms: C_23  and  O_38
   18  A    between atoms: N_29  and  C_33
   19  A    between atoms: C_36  and  C_40
                            x       y       z     vdW  Elec       q    Type
                         _______ _______ _______ _____ _____    ______ ____

>  <TORSDO>
F 19

$$$$
