=
 OpenBabel11032421003D

 39 43  0  0  1  0  0  0  0  0999 V2000
  186.0250  178.3570  139.2020 C   0  0  0  0  0  0  0  0  0  0  0  0
  185.1190  179.1050  139.9910 C   0  0  0  0  0  0  0  0  0  0  0  0
  183.3380  178.6020  138.4100 C   0  0  0  0  0  3  0  0  0  0  0  0
  185.5610  177.7310  138.0380 C   0  0  0  0  0  3  0  0  0  0  0  0
  183.7820  179.2270  139.5770 C   0  0  0  0  0  3  0  0  0  0  0  0
  184.2250  177.8490  137.6430 C   0  0  0  0  0  3  0  0  0  0  0  0
  187.9860  178.9980  140.3990 O   0  0  0  0  0  0  0  0  0  0  0  0
  187.4610  178.2320  139.5480 C   0  0  0  0  0  0  0  0  0  0  0  0
  188.2680  177.2450  138.9080 N   0  0  0  0  0  0  0  0  0  0  0  0
  190.5460  176.3100  138.4380 C   0  0  0  0  0  0  0  0  0  0  0  0
  189.2070  172.9680  136.0140 C   0  0  0  0  0  2  0  0  0  0  0  0
  189.6430  177.1550  139.1670 N   0  0  0  0  0  0  0  0  0  0  0  0
  190.1050  175.3620  137.4390 N   0  0  0  0  0  0  0  0  0  0  0  0
  188.2840  173.8210  136.8920 C   0  0  1  0  0  3  0  0  0  0  0  0
  191.0920  174.4230  136.8850 C   0  0  0  0  0  2  0  0  0  0  0  0
  190.5390  173.6500  135.6880 C   0  0  0  0  0  2  0  0  0  0  0  0
  188.7080  175.2920  137.0050 C   0  0  2  0  0  3  0  0  0  0  0  0
  191.7730  176.3750  138.7200 O   0  0  0  0  0  0  0  0  0  0  0  0
  186.9550  173.6970  136.4880 O   0  0  0  0  0  1  0  0  0  0  0  0
  189.3290  177.2090  135.7030 O   0  0  0  0  0  1  0  0  0  0  0  0
  188.5190  176.0730  135.7040 C   0  0  0  0  0  2  0  0  0  0  0  0
  185.5530  179.7010  141.1810 O   0  0  0  0  0  0  0  0  0  0  0  0
  184.4010  177.9580  142.4460 C   0  0  0  0  0  2  0  0  0  0  0  0
  185.2940  179.1720  142.4770 C   0  0  1  0  0  0  0  0  0  0  0  0
  185.8760  177.8150  142.8210 C   0  0  1  0  0  3  0  0  0  0  0  0
  184.9630  180.0680  143.4990 O   0  0  0  0  0  1  0  0  0  0  0  0
  187.2750  177.7900  144.9250 C   0  0  0  0  0  0  0  0  0  0  0  0
  190.7770  177.2290  144.6420 C   0  0  0  0  0  0  0  0  0  0  0  0
  186.0170  177.6670  144.2620 N   0  0  0  0  0  2  0  0  0  0  0  0
  191.0380  177.1940  143.2790 O   0  0  0  0  0  1  0  0  0  0  0  0
  189.5220  177.8560  145.1680 C   0  0  2  0  0  3  0  0  0  0  0  0
  187.3990  177.7100  146.7150 S   0  0  0  0  0  0  0  0  0  0  0  0
  190.1160  177.3730  147.4790 C   0  0  0  0  0  2  0  0  0  0  0  0
  189.0800  177.1160  146.4020 C   0  0  2  0  0  3  0  0  0  0  0  0
  188.3900  177.8230  144.2710 N   0  0  0  0  0  0  0  0  0  0  0  0
  191.6890  176.7710  145.5130 C   0  0  0  0  0  3  0  0  0  0  0  0
  191.4730  176.7840  147.0250 C   0  0  2  0  0  3  0  0  0  0  0  0
  192.7560  175.5360  148.3410 C   0  0  0  0  0  1  0  0  0  0  0  0
  191.6150  175.4900  147.5370 O   0  0  0  0  0  0  0  0  0  0  0  0
  1  8  1  0  0  0  0
  1  2  1  0  0  0  0
  2 22  1  0  0  0  0
  3  5  1  0  0  0  0
  4  1  2  0  0  0  0
  5  2  2  0  0  0  0
  6  4  1  0  0  0  0
  6  3  2  0  0  0  0
  8  7  2  0  0  0  0
  9 12  2  0  0  0  0
  9  8  1  0  0  0  0
 10 18  2  0  0  0  0
 10 12  1  0  0  0  0
 11 14  1  0  0  0  0
 13 10  1  0  0  0  0
 14 19  1  6  0  0  0
 14 17  1  0  0  0  0
 15 13  1  0  0  0  0
 16 11  1  0  0  0  0
 16 15  1  0  0  0  0
 17 21  1  6  0  0  0
 17 13  1  0  0  0  0
 20 21  1  0  0  0  0
 22 24  1  0  0  0  0
 23 24  1  0  0  0  0
 23 25  1  0  0  0  0
 24 25  1  0  0  0  0
 24 26  1  1  0  0  0
 25 29  1  1  0  0  0
 27 32  1  0  0  0  0
 28 31  1  0  0  0  0
 28 36  2  0  0  0  0
 29 27  1  0  0  0  0
 30 28  1  0  0  0  0
 31 35  1  6  0  0  0
 31 34  1  0  0  0  0
 34 32  1  0  0  0  0
 34 33  1  1  0  0  0
 35 27  2  0  0  0  0
 36 37  1  0  0  0  0
 37 33  1  0  0  0  0
 37 39  1  6  0  0  0
 39 38  1  0  0  0  0
M  END
>  <MODEL>
1

>  <REMARK>
 VINA RESULT:      -8.7      0.000      0.000
  Name = 
  7 active torsions:
  status: ('A' for Active; 'I' for Inactive)
    1  A    between atoms: N_3  and  C_19
    2  A    between atoms: C_5  and  C_9
    3  A    between atoms: O_8  and  C_13
    4  A    between atoms: O_8  and  C_15
    5  A    between atoms: N_12  and  N_26
    6  A    between atoms: C_31  and  C_33
    7  A    between atoms: C_38  and  O_39
                            x       y       z     vdW  Elec       q    Type
                         _______ _______ _______ _____ _____    ______ ____

>  <TORSDO>
F 7

$$$$
=
 OpenBabel11032421003D

 39 43  0  0  1  0  0  0  0  0999 V2000
  184.6490  178.9260  142.1400 C   0  0  0  0  0  0  0  0  0  0  0  0
  183.2550  179.0190  141.9170 C   0  0  0  0  0  0  0  0  0  0  0  0
  182.8610  178.7470  144.3030 C   0  0  0  0  0  3  0  0  0  0  0  0
  185.1210  178.7620  143.4490 C   0  0  0  0  0  3  0  0  0  0  0  0
  182.3740  178.9180  143.0060 C   0  0  0  0  0  3  0  0  0  0  0  0
  184.2360  178.6750  144.5260 C   0  0  0  0  0  3  0  0  0  0  0  0
  185.2990  179.3830  139.8910 O   0  0  0  0  0  0  0  0  0  0  0  0
  185.6330  178.9700  141.0330 C   0  0  0  0  0  0  0  0  0  0  0  0
  186.9740  178.5300  141.2490 N   0  0  0  0  0  0  0  0  0  0  0  0
  189.2550  178.0330  140.3350 C   0  0  0  0  0  0  0  0  0  0  0  0
  191.2470  177.6780  144.1740 C   0  0  0  0  0  2  0  0  0  0  0  0
  187.9010  178.4940  140.1980 N   0  0  0  0  0  0  0  0  0  0  0  0
  189.8400  177.6740  141.6070 N   0  0  0  0  0  0  0  0  0  0  0  0
  189.8470  178.2720  143.9810 C   0  0  1  0  0  3  0  0  0  0  0  0
  191.2810  177.3880  141.6550 C   0  0  0  0  0  2  0  0  0  0  0  0
  191.7060  176.8050  143.0030 C   0  0  0  0  0  2  0  0  0  0  0  0
  189.0470  177.6310  142.8370 C   0  0  2  0  0  3  0  0  0  0  0  0
  189.9680  177.9830  139.2970 O   0  0  0  0  0  0  0  0  0  0  0  0
  189.1310  178.2630  145.1790 O   0  0  0  0  0  1  0  0  0  0  0  0
  187.3330  176.1860  143.6900 O   0  0  0  0  0  1  0  0  0  0  0  0
  188.6130  176.1960  143.1370 C   0  0  0  0  0  2  0  0  0  0  0  0
  182.7650  179.2280  140.6220 O   0  0  0  0  0  0  0  0  0  0  0  0
  181.0460  179.0280  138.8980 C   0  0  0  0  0  2  0  0  0  0  0  0
  181.8670  178.3430  139.9600 C   0  0  1  0  0  0  0  0  0  0  0  0
  182.1290  178.0240  138.5010 C   0  0  1  0  0  3  0  0  0  0  0  0
  181.1180  177.4580  140.7430 O   0  0  0  0  0  1  0  0  0  0  0  0
  182.2860  175.5500  138.0130 C   0  0  0  0  0  0  0  0  0  0  0  0
  185.4370  174.1900  137.0740 C   0  0  0  0  0  0  0  0  0  0  0  0
  181.5240  176.7500  138.1370 N   0  0  0  0  0  2  0  0  0  0  0  0
  186.3430  175.2340  137.1980 O   0  0  0  0  0  1  0  0  0  0  0  0
  184.1100  174.2370  137.7700 C   0  0  2  0  0  3  0  0  0  0  0  0
  181.4950  173.9740  137.6700 S   0  0  0  0  0  0  0  0  0  0  0  0
  183.4510  172.0610  136.9010 C   0  0  0  0  0  2  0  0  0  0  0  0
  183.0840  173.5320  136.9250 C   0  0  2  0  0  3  0  0  0  0  0  0
  183.5780  175.5600  138.0000 N   0  0  0  0  0  0  0  0  0  0  0  0
  185.7730  173.0850  136.3910 C   0  0  0  0  0  3  0  0  0  0  0  0
  184.8310  171.8950  136.2190 C   0  0  2  0  0  3  0  0  0  0  0  0
  183.9610  170.4110  134.8140 C   0  0  0  0  0  1  0  0  0  0  0  0
  184.6510  171.6240  134.8590 O   0  0  0  0  0  0  0  0  0  0  0  0
  1  4  1  0  0  0  0
  2  1  2  0  0  0  0
  2  5  1  0  0  0  0
  3  6  1  0  0  0  0
  4  6  2  0  0  0  0
  5  3  2  0  0  0  0
  7  8  2  0  0  0  0
  8  9  1  0  0  0  0
  8  1  1  0  0  0  0
 10 13  1  0  0  0  0
 12 10  1  0  0  0  0
 12  9  2  0  0  0  0
 13 15  1  0  0  0  0
 13 17  1  0  0  0  0
 14 11  1  0  0  0  0
 14 19  1  1  0  0  0
 15 16  1  0  0  0  0
 16 11  1  0  0  0  0
 17 21  1  1  0  0  0
 17 14  1  0  0  0  0
 18 10  2  0  0  0  0
 21 20  1  0  0  0  0
 22  2  1  0  0  0  0
 23 24  1  0  0  0  0
 24 22  1  0  0  0  0
 24 26  1  1  0  0  0
 25 29  1  1  0  0  0
 25 23  1  0  0  0  0
 25 24  1  0  0  0  0
 27 29  1  0  0  0  0
 28 30  1  0  0  0  0
 31 28  1  6  0  0  0
 31 35  1  0  0  0  0
 32 27  1  0  0  0  0
 34 33  1  1  0  0  0
 34 32  1  0  0  0  0
 34 31  1  0  0  0  0
 35 27  2  0  0  0  0
 36 28  2  0  0  0  0
 37 39  1  6  0  0  0
 37 36  1  0  0  0  0
 37 33  1  0  0  0  0
 38 39  1  0  0  0  0
M  END
>  <MODEL>
2

>  <REMARK>
 VINA RESULT:      -8.6      3.592      8.152
  Name = 
  7 active torsions:
  status: ('A' for Active; 'I' for Inactive)
    1  A    between atoms: N_3  and  C_19
    2  A    between atoms: C_5  and  C_9
    3  A    between atoms: O_8  and  C_13
    4  A    between atoms: O_8  and  C_15
    5  A    between atoms: N_12  and  N_26
    6  A    between atoms: C_31  and  C_33
    7  A    between atoms: C_38  and  O_39
                            x       y       z     vdW  Elec       q    Type
                         _______ _______ _______ _____ _____    ______ ____

>  <TORSDO>
F 7

$$$$
=
 OpenBabel11032421003D

 39 43  0  0  1  0  0  0  0  0999 V2000
  184.7080  178.9690  142.4140 C   0  0  0  0  0  0  0  0  0  0  0  0
  183.3560  179.0150  141.9990 C   0  0  0  0  0  0  0  0  0  0  0  0
  182.6460  178.8390  144.3200 C   0  0  0  0  0  3  0  0  0  0  0  0
  185.0000  178.8760  143.7810 C   0  0  0  0  0  3  0  0  0  0  0  0
  182.3360  178.9390  142.9630 C   0  0  0  0  0  3  0  0  0  0  0  0
  183.9780  178.8140  144.7310 C   0  0  0  0  0  3  0  0  0  0  0  0
  185.6710  179.4280  140.2800 O   0  0  0  0  0  0  0  0  0  0  0  0
  185.8330  178.9880  141.4490 C   0  0  0  0  0  0  0  0  0  0  0  0
  187.1160  178.4960  141.8350 N   0  0  0  0  0  0  0  0  0  0  0  0
  189.4920  177.9660  141.2390 C   0  0  0  0  0  0  0  0  0  0  0  0
  190.9530  177.6430  145.3140 C   0  0  0  0  0  2  0  0  0  0  0  0
  188.1750  178.4380  140.9180 N   0  0  0  0  0  0  0  0  0  0  0  0
  189.9000  177.6180  142.5820 N   0  0  0  0  0  0  0  0  0  0  0  0
  189.5970  178.2470  144.9290 C   0  0  1  0  0  3  0  0  0  0  0  0
  191.3180  177.3190  142.8250 C   0  0  0  0  0  2  0  0  0  0  0  0
  191.5540  176.7500  144.2240 C   0  0  0  0  0  2  0  0  0  0  0  0
  188.9500  177.5990  143.6960 C   0  0  2  0  0  3  0  0  0  0  0  0
  190.3370  177.8950  140.3060 O   0  0  0  0  0  0  0  0  0  0  0  0
  188.7290  178.2600  146.0200 O   0  0  0  0  0  1  0  0  0  0  0  0
  188.6540  175.3870  142.8150 O   0  0  0  0  0  1  0  0  0  0  0  0
  188.4640  176.1710  143.9530 C   0  0  0  0  0  2  0  0  0  0  0  0
  183.0430  179.1520  140.6420 O   0  0  0  0  0  0  0  0  0  0  0  0
  181.8050  178.1980  138.7640 C   0  0  0  0  0  2  0  0  0  0  0  0
  182.9510  178.0600  139.7320 C   0  0  1  0  0  0  0  0  0  0  0  0
  183.2460  178.3250  138.2690 C   0  0  1  0  0  3  0  0  0  0  0  0
  183.0800  176.7650  140.2450 O   0  0  0  0  0  1  0  0  0  0  0  0
  185.0180  176.6750  137.5460 C   0  0  0  0  0  0  0  0  0  0  0  0
  188.4010  177.7670  137.3730 C   0  0  0  0  0  0  0  0  0  0  0  0
  183.6570  177.1000  137.5980 N   0  0  0  0  0  2  0  0  0  0  0  0
  188.3980  179.0620  137.8730 O   0  0  0  0  0  1  0  0  0  0  0  0
  187.2710  176.8270  137.6680 C   0  0  2  0  0  3  0  0  0  0  0  0
  185.4790  175.1050  136.8050 S   0  0  0  0  0  0  0  0  0  0  0  0
  188.2900  175.0230  136.3900 C   0  0  0  0  0  2  0  0  0  0  0  0
  187.0670  175.9150  136.4890 C   0  0  2  0  0  3  0  0  0  0  0  0
  185.9900  177.4520  137.8990 N   0  0  0  0  0  0  0  0  0  0  0  0
  189.4580  177.3150  136.6820 C   0  0  0  0  0  3  0  0  0  0  0  0
  189.5330  175.9010  136.1090 C   0  0  2  0  0  3  0  0  0  0  0  0
  191.0480  176.4870  134.5940 C   0  0  0  0  0  1  0  0  0  0  0  0
  189.7620  175.9590  134.7310 O   0  0  0  0  0  0  0  0  0  0  0  0
  1  4  1  0  0  0  0
  2  1  2  0  0  0  0
  2  5  1  0  0  0  0
  3  6  1  0  0  0  0
  4  6  2  0  0  0  0
  5  3  2  0  0  0  0
  7  8  2  0  0  0  0
  8  9  1  0  0  0  0
  8  1  1  0  0  0  0
 10 13  1  0  0  0  0
 12 10  1  0  0  0  0
 12  9  2  0  0  0  0
 13 15  1  0  0  0  0
 13 17  1  0  0  0  0
 14 11  1  0  0  0  0
 14 19  1  1  0  0  0
 15 16  1  0  0  0  0
 16 11  1  0  0  0  0
 17 21  1  1  0  0  0
 17 14  1  0  0  0  0
 18 10  2  0  0  0  0
 20 21  1  0  0  0  0
 22  2  1  0  0  0  0
 23 24  1  0  0  0  0
 24 26  1  1  0  0  0
 24 22  1  0  0  0  0
 25 29  1  6  0  0  0
 25 23  1  0  0  0  0
 25 24  1  0  0  0  0
 27 29  1  0  0  0  0
 27 35  2  0  0  0  0
 28 30  1  0  0  0  0
 31 28  1  6  0  0  0
 31 35  1  0  0  0  0
 32 27  1  0  0  0  0
 34 33  1  1  0  0  0
 34 32  1  0  0  0  0
 34 31  1  0  0  0  0
 36 28  2  0  0  0  0
 37 39  1  6  0  0  0
 37 33  1  0  0  0  0
 37 36  1  0  0  0  0
 38 39  1  0  0  0  0
M  END
>  <MODEL>
3

>  <REMARK>
 VINA RESULT:      -8.6      2.828      7.462
  Name = 
  7 active torsions:
  status: ('A' for Active; 'I' for Inactive)
    1  A    between atoms: N_3  and  C_19
    2  A    between atoms: C_5  and  C_9
    3  A    between atoms: O_8  and  C_13
    4  A    between atoms: O_8  and  C_15
    5  A    between atoms: N_12  and  N_26
    6  A    between atoms: C_31  and  C_33
    7  A    between atoms: C_38  and  O_39
                            x       y       z     vdW  Elec       q    Type
                         _______ _______ _______ _____ _____    ______ ____

>  <TORSDO>
F 7

$$$$
=
 OpenBabel11032421003D

 39 43  0  0  1  0  0  0  0  0999 V2000
  186.8860  176.0340  137.0800 C   0  0  0  0  0  0  0  0  0  0  0  0
  188.2720  175.7500  137.0610 C   0  0  0  0  0  0  0  0  0  0  0  0
  187.7760  173.3760  136.8560 C   0  0  0  0  0  3  0  0  0  0  0  0
  185.9720  174.9790  136.9690 C   0  0  0  0  0  3  0  0  0  0  0  0
  188.7020  174.4160  136.9590 C   0  0  0  0  0  3  0  0  0  0  0  0
  186.4110  173.6570  136.8550 C   0  0  0  0  0  3  0  0  0  0  0  0
  186.4670  178.2520  136.3080 O   0  0  0  0  0  0  0  0  0  0  0  0
  186.3620  177.4110  137.2400 C   0  0  0  0  0  0  0  0  0  0  0  0
  185.7420  177.8020  138.4640 N   0  0  0  0  0  2  0  0  0  0  0  0
  183.9230  179.5120  138.6950 C   0  0  0  0  0  0  0  0  0  0  0  0
  180.7340  177.0480  137.0840 C   0  0  0  0  0  2  0  0  0  0  0  0
  185.3040  179.1190  138.6640 N   0  0  0  0  0  2  0  0  0  0  0  0
  182.8380  178.6050  138.3960 N   0  0  0  0  0  0  0  0  0  0  0  0
  182.2260  176.7130  136.9680 C   0  0  1  0  0  3  0  0  0  0  0  0
  181.4800  179.1550  138.2820 C   0  0  0  0  0  2  0  0  0  0  0  0
  180.4210  178.0570  138.1930 C   0  0  0  0  0  2  0  0  0  0  0  0
  183.0680  177.1770  138.1650 C   0  0  2  0  0  3  0  0  0  0  0  0
  183.6580  180.7170  138.9560 O   0  0  0  0  0  0  0  0  0  0  0  0
  182.4130  175.3570  136.7000 O   0  0  0  0  0  1  0  0  0  0  0  0
  183.0860  177.1560  140.5640 O   0  0  0  0  0  1  0  0  0  0  0  0
  182.7860  176.3830  139.4410 C   0  0  0  0  0  2  0  0  0  0  0  0
  189.2030  176.7930  137.1260 O   0  0  0  0  0  0  0  0  0  0  0  0
  189.4310  178.4670  138.8910 C   0  0  0  0  0  2  0  0  0  0  0  0
  189.9050  177.1600  138.3090 C   0  0  1  0  0  0  0  0  0  0  0  0
  189.1430  177.1540  139.6200 C   0  0  1  0  0  3  0  0  0  0  0  0
  191.2980  177.0340  138.3120 O   0  0  0  0  0  1  0  0  0  0  0  0
  189.5970  176.7620  142.0750 C   0  0  0  0  0  0  0  0  0  0  0  0
  187.0140  177.4600  144.4210 C   0  0  0  0  0  0  0  0  0  0  0  0
  190.0550  176.9930  140.7430 N   0  0  0  0  0  2  0  0  0  0  0  0
  185.9020  177.7940  143.6600 O   0  0  0  0  0  1  0  0  0  0  0  0
  188.1590  176.7030  143.8190 C   0  0  2  0  0  3  0  0  0  0  0  0
  190.7470  176.4590  143.4200 S   0  0  0  0  0  0  0  0  0  0  0  0
  189.4010  176.6930  145.9120 C   0  0  0  0  0  2  0  0  0  0  0  0
  189.4420  177.1490  144.4660 C   0  0  2  0  0  3  0  0  0  0  0  0
  188.3530  176.8990  142.4010 N   0  0  0  0  0  0  0  0  0  0  0  0
  187.0420  177.7440  145.7320 C   0  0  0  0  0  3  0  0  0  0  0  0
  188.2280  177.4010  146.6320 C   0  0  2  0  0  3  0  0  0  0  0  0
  189.1090  178.1440  148.5310 C   0  0  0  0  0  1  0  0  0  0  0  0
  188.6960  178.5580  147.2620 O   0  0  0  0  0  0  0  0  0  0  0  0
  1  8  1  0  0  0  0
  2  1  1  0  0  0  0
  2 22  1  0  0  0  0
  3  5  1  0  0  0  0
  4  1  2  0  0  0  0
  5  2  2  0  0  0  0
  6  3  2  0  0  0  0
  6  4  1  0  0  0  0
  7  8  2  0  0  0  0
  8  9  1  0  0  0  0
  9 12  1  0  0  0  0
 10 18  2  0  0  0  0
 11 16  1  0  0  0  0
 12 10  1  0  0  0  0
 13 10  1  0  0  0  0
 14 19  1  1  0  0  0
 14 11  1  0  0  0  0
 14 17  1  0  0  0  0
 15 13  1  0  0  0  0
 16 15  1  0  0  0  0
 17 13  1  0  0  0  0
 17 21  1  1  0  0  0
 21 20  1  0  0  0  0
 22 24  1  0  0  0  0
 23 25  1  0  0  0  0
 24 26  1  1  0  0  0
 24 23  1  0  0  0  0
 24 25  1  0  0  0  0
 25 29  1  1  0  0  0
 27 35  2  0  0  0  0
 27 32  1  0  0  0  0
 28 36  2  0  0  0  0
 29 27  1  0  0  0  0
 30 28  1  0  0  0  0
 31 35  1  6  0  0  0
 31 28  1  0  0  0  0
 31 34  1  0  0  0  0
 32 34  1  0  0  0  0
 33 37  1  0  0  0  0
 34 33  1  1  0  0  0
 36 37  1  0  0  0  0
 37 39  1  6  0  0  0
 39 38  1  0  0  0  0
M  END
>  <MODEL>
4

>  <REMARK>
 VINA RESULT:      -8.5      2.523      5.988
  Name = 
  7 active torsions:
  status: ('A' for Active; 'I' for Inactive)
    1  A    between atoms: N_3  and  C_19
    2  A    between atoms: C_5  and  C_9
    3  A    between atoms: O_8  and  C_13
    4  A    between atoms: O_8  and  C_15
    5  A    between atoms: N_12  and  N_26
    6  A    between atoms: C_31  and  C_33
    7  A    between atoms: C_38  and  O_39
                            x       y       z     vdW  Elec       q    Type
                         _______ _______ _______ _____ _____    ______ ____

>  <TORSDO>
F 7

$$$$
=
 OpenBabel11032421003D

 39 43  0  0  1  0  0  0  0  0999 V2000
  189.3650  174.6140  136.3730 C   0  0  0  0  0  0  0  0  0  0  0  0
  189.7790  175.8320  136.9630 C   0  0  0  0  0  0  0  0  0  0  0  0
  191.7140  175.8820  135.4880 C   0  0  0  0  0  3  0  0  0  0  0  0
  190.1310  174.0640  135.3360 C   0  0  0  0  0  3  0  0  0  0  0  0
  190.9600  176.4490  136.5180 C   0  0  0  0  0  3  0  0  0  0  0  0
  191.2970  174.6930  134.8930 C   0  0  0  0  0  3  0  0  0  0  0  0
  188.2540  172.7070  137.2780 O   0  0  0  0  0  0  0  0  0  0  0  0
  188.1610  173.8810  136.8300 C   0  0  0  0  0  0  0  0  0  0  0  0
  186.8770  174.4970  136.7550 N   0  0  0  0  0  0  0  0  0  0  0  0
  184.4540  174.4220  137.3950 C   0  0  0  0  0  0  0  0  0  0  0  0
  184.0720  178.6410  138.3390 C   0  0  0  0  0  2  0  0  0  0  0  0
  185.7160  173.7970  137.1140 N   0  0  0  0  0  0  0  0  0  0  0  0
  184.2820  175.8560  137.4620 N   0  0  0  0  0  0  0  0  0  0  0  0
  185.4100  177.9190  138.1440 C   0  0  1  0  0  3  0  0  0  0  0  0
  182.9930  176.3820  137.9330 C   0  0  0  0  0  2  0  0  0  0  0  0
  182.8810  177.8930  137.7310 C   0  0  0  0  0  2  0  0  0  0  0  0
  185.3630  176.7800  137.1150 C   0  0  2  0  0  3  0  0  0  0  0  0
  183.4670  173.6750  137.6360 O   0  0  0  0  0  0  0  0  0  0  0  0
  186.4310  178.8270  137.8630 O   0  0  0  0  0  1  0  0  0  0  0  0
  186.3200  176.9460  134.9210 O   0  0  0  0  0  1  0  0  0  0  0  0
  185.1950  177.2750  135.6780 C   0  0  0  0  0  2  0  0  0  0  0  0
  189.0050  176.4210  137.9700 O   0  0  0  0  0  0  0  0  0  0  0  0
  189.6900  178.2420  139.4470 C   0  0  0  0  0  2  0  0  0  0  0  0
  189.5020  176.7580  139.2610 C   0  0  1  0  0  0  0  0  0  0  0  0
  188.5820  177.5080  140.2050 C   0  0  1  0  0  3  0  0  0  0  0  0
  190.5630  176.0040  139.7750 O   0  0  0  0  0  1  0  0  0  0  0  0
  188.0340  177.2580  142.6590 C   0  0  0  0  0  0  0  0  0  0  0  0
  184.9630  178.5890  143.8670 C   0  0  0  0  0  0  0  0  0  0  0  0
  188.9780  177.2910  141.5890 N   0  0  0  0  0  2  0  0  0  0  0  0
  184.2870  179.0410  142.7420 O   0  0  0  0  0  1  0  0  0  0  0  0
  186.0810  177.5970  143.7460 C   0  0  2  0  0  3  0  0  0  0  0  0
  188.5410  176.8800  144.3400 S   0  0  0  0  0  0  0  0  0  0  0  0
  186.4570  177.5560  146.1500 C   0  0  0  0  0  2  0  0  0  0  0  0
  187.1030  177.8720  144.8150 C   0  0  2  0  0  3  0  0  0  0  0  0
  186.8080  177.6340  142.4980 N   0  0  0  0  0  0  0  0  0  0  0  0
  184.5690  178.9760  145.0900 C   0  0  0  0  0  3  0  0  0  0  0  0
  185.2610  178.5140  146.3710 C   0  0  2  0  0  3  0  0  0  0  0  0
  186.8580  179.2180  147.7450 C   0  0  0  0  0  1  0  0  0  0  0  0
  185.6820  179.6240  147.1100 O   0  0  0  0  0  0  0  0  0  0  0  0
  1  8  1  0  0  0  0
  1  2  1  0  0  0  0
  2 22  1  0  0  0  0
  3  5  1  0  0  0  0
  4  1  2  0  0  0  0
  5  2  2  0  0  0  0
  6  4  1  0  0  0  0
  6  3  2  0  0  0  0
  8  7  2  0  0  0  0
  9  8  1  0  0  0  0
  9 12  2  0  0  0  0
 10 13  1  0  0  0  0
 10 18  2  0  0  0  0
 12 10  1  0  0  0  0
 13 15  1  0  0  0  0
 14 19  1  6  0  0  0
 14 11  1  0  0  0  0
 16 15  1  0  0  0  0
 16 11  1  0  0  0  0
 17 21  1  6  0  0  0
 17 13  1  0  0  0  0
 17 14  1  0  0  0  0
 20 21  1  0  0  0  0
 22 24  1  0  0  0  0
 23 25  1  0  0  0  0
 24 23  1  0  0  0  0
 24 26  1  1  0  0  0
 24 25  1  0  0  0  0
 25 29  1  1  0  0  0
 27 32  1  0  0  0  0
 28 36  2  0  0  0  0
 29 27  1  0  0  0  0
 30 28  1  0  0  0  0
 31 35  1  6  0  0  0
 31 28  1  0  0  0  0
 31 34  1  0  0  0  0
 32 34  1  0  0  0  0
 33 37  1  0  0  0  0
 34 33  1  1  0  0  0
 35 27  2  0  0  0  0
 36 37  1  0  0  0  0
 37 39  1  6  0  0  0
 39 38  1  0  0  0  0
M  END
>  <MODEL>
5

>  <REMARK>
 VINA RESULT:      -8.0      2.778      6.108
  Name = 
  7 active torsions:
  status: ('A' for Active; 'I' for Inactive)
    1  A    between atoms: N_3  and  C_19
    2  A    between atoms: C_5  and  C_9
    3  A    between atoms: O_8  and  C_13
    4  A    between atoms: O_8  and  C_15
    5  A    between atoms: N_12  and  N_26
    6  A    between atoms: C_31  and  C_33
    7  A    between atoms: C_38  and  O_39
                            x       y       z     vdW  Elec       q    Type
                         _______ _______ _______ _____ _____    ______ ____

>  <TORSDO>
F 7

$$$$
=
 OpenBabel11032421003D

 39 43  0  0  1  0  0  0  0  0999 V2000
  185.5030  178.8680  139.2470 C   0  0  0  0  0  0  0  0  0  0  0  0
  185.9200  179.0030  140.5930 C   0  0  0  0  0  0  0  0  0  0  0  0
  188.0080  177.8760  140.0530 C   0  0  0  0  0  3  0  0  0  0  0  0
  186.3610  178.2530  138.3260 C   0  0  0  0  0  3  0  0  0  0  0  0
  187.1690  178.4940  140.9830 C   0  0  0  0  0  3  0  0  0  0  0  0
  187.6070  177.7610  138.7230 C   0  0  0  0  0  3  0  0  0  0  0  0
  183.7460  180.4740  139.0940 O   0  0  0  0  0  0  0  0  0  0  0  0
  184.1760  179.3330  138.7780 C   0  0  0  0  0  0  0  0  0  0  0  0
  183.3650  178.4820  137.9690 N   0  0  0  0  0  2  0  0  0  0  0  0
  180.9640  177.9720  137.4600 C   0  0  0  0  0  0  0  0  0  0  0  0
  181.4320  173.6660  137.1820 C   0  0  0  0  0  2  0  0  0  0  0  0
  182.0780  178.8720  137.5750 N   0  0  0  0  0  2  0  0  0  0  0  0
  181.0880  176.5400  137.6190 N   0  0  0  0  0  0  0  0  0  0  0  0
  182.5980  174.6620  137.1930 C   0  0  1  0  0  3  0  0  0  0  0  0
  179.9230  175.7010  137.3040 C   0  0  0  0  0  2  0  0  0  0  0  0
  180.1280  174.2490  137.7360 C   0  0  0  0  0  2  0  0  0  0  0  0
  182.3430  175.9160  138.0400 C   0  0  2  0  0  3  0  0  0  0  0  0
  179.8400  178.4600  137.1650 O   0  0  0  0  0  0  0  0  0  0  0  0
  183.7890  174.0310  137.5500 O   0  0  0  0  0  1  0  0  0  0  0  0
  182.0950  176.8130  140.2520 O   0  0  0  0  0  1  0  0  0  0  0  0
  182.3140  175.6310  139.5420 C   0  0  0  0  0  2  0  0  0  0  0  0
  185.0970  179.6550  141.5190 O   0  0  0  0  0  0  0  0  0  0  0  0
  183.8900  178.2540  143.1150 C   0  0  0  0  0  2  0  0  0  0  0  0
  184.9770  179.2720  142.8850 C   0  0  1  0  0  0  0  0  0  0  0  0
  185.3580  177.8540  143.2620 C   0  0  1  0  0  3  0  0  0  0  0  0
  184.9970  180.2800  143.8550 O   0  0  0  0  0  1  0  0  0  0  0  0
  187.0720  177.8670  145.1200 C   0  0  0  0  0  0  0  0  0  0  0  0
  190.4560  177.1050  144.3270 C   0  0  0  0  0  0  0  0  0  0  0  0
  185.7200  177.7760  144.6700 N   0  0  0  0  0  2  0  0  0  0  0  0
  190.4950  176.9830  142.9450 O   0  0  0  0  0  1  0  0  0  0  0  0
  189.3290  177.8260  145.0040 C   0  0  2  0  0  3  0  0  0  0  0  0
  187.4760  177.8780  146.8690 S   0  0  0  0  0  0  0  0  0  0  0  0
  190.2620  177.4380  147.2180 C   0  0  0  0  0  2  0  0  0  0  0  0
  189.0570  177.1790  146.3350 C   0  0  2  0  0  3  0  0  0  0  0  0
  188.0690  177.8050  144.2990 N   0  0  0  0  0  0  0  0  0  0  0  0
  191.4730  176.6470  145.0720 C   0  0  0  0  0  3  0  0  0  0  0  0
  191.5020  176.7530  146.5960 C   0  0  2  0  0  3  0  0  0  0  0  0
  192.6830  175.6280  148.1040 C   0  0  0  0  0  1  0  0  0  0  0  0
  191.6660  175.4830  147.1570 O   0  0  0  0  0  0  0  0  0  0  0  0
  1  2  1  0  0  0  0
  2  5  2  0  0  0  0
  2 22  1  0  0  0  0
  3  5  1  0  0  0  0
  4  6  1  0  0  0  0
  4  1  2  0  0  0  0
  6  3  2  0  0  0  0
  8  7  2  0  0  0  0
  8  1  1  0  0  0  0
  9  8  1  0  0  0  0
 10 12  1  0  0  0  0
 10 13  1  0  0  0  0
 11 14  1  0  0  0  0
 11 16  1  0  0  0  0
 12  9  1  0  0  0  0
 13 17  1  0  0  0  0
 14 19  1  1  0  0  0
 14 17  1  0  0  0  0
 15 13  1  0  0  0  0
 15 16  1  0  0  0  0
 17 21  1  1  0  0  0
 18 10  2  0  0  0  0
 21 20  1  0  0  0  0
 22 24  1  0  0  0  0
 23 25  1  0  0  0  0
 24 23  1  0  0  0  0
 24 25  1  0  0  0  0
 24 26  1  1  0  0  0
 25 29  1  1  0  0  0
 27 32  1  0  0  0  0
 28 31  1  0  0  0  0
 28 36  2  0  0  0  0
 29 27  1  0  0  0  0
 30 28  1  0  0  0  0
 31 35  1  6  0  0  0
 31 34  1  0  0  0  0
 34 32  1  0  0  0  0
 34 33  1  1  0  0  0
 35 27  2  0  0  0  0
 36 37  1  0  0  0  0
 37 39  1  1  0  0  0
 37 33  1  0  0  0  0
 39 38  1  0  0  0  0
M  END
>  <MODEL>
6

>  <REMARK>
 VINA RESULT:      -8.0      3.024      5.124
  Name = 
  7 active torsions:
  status: ('A' for Active; 'I' for Inactive)
    1  A    between atoms: N_3  and  C_19
    2  A    between atoms: C_5  and  C_9
    3  A    between atoms: O_8  and  C_13
    4  A    between atoms: O_8  and  C_15
    5  A    between atoms: N_12  and  N_26
    6  A    between atoms: C_31  and  C_33
    7  A    between atoms: C_38  and  O_39
                            x       y       z     vdW  Elec       q    Type
                         _______ _______ _______ _____ _____    ______ ____

>  <TORSDO>
F 7

$$$$
=
 OpenBabel11032421003D

 39 43  0  0  1  0  0  0  0  0999 V2000
  183.8020  178.6280  141.4040 C   0  0  0  0  0  0  0  0  0  0  0  0
  183.5310  179.2170  142.6620 C   0  0  0  0  0  0  0  0  0  0  0  0
  181.1680  178.7020  142.3870 C   0  0  0  0  0  3  0  0  0  0  0  0
  182.7470  178.0710  140.6700 C   0  0  0  0  0  3  0  0  0  0  0  0
  182.2090  179.2550  143.1350 C   0  0  0  0  0  3  0  0  0  0  0  0
  181.4370  178.1040  141.1570 C   0  0  0  0  0  3  0  0  0  0  0  0
  186.1820  178.5770  141.5600 O   0  0  0  0  0  0  0  0  0  0  0  0
  185.1630  178.6010  140.8190 C   0  0  0  0  0  0  0  0  0  0  0  0
  185.3330  178.6150  139.4020 N   0  0  0  0  0  2  0  0  0  0  0  0
  186.9980  177.9180  137.6620 C   0  0  0  0  0  0  0  0  0  0  0  0
  184.7790  174.4780  136.2200 C   0  0  0  0  0  2  0  0  0  0  0  0
  186.6110  178.6630  138.8270 N   0  0  0  0  0  2  0  0  0  0  0  0
  186.1400  176.9390  137.0320 N   0  0  0  0  0  0  0  0  0  0  0  0
  184.4610  175.2260  137.5200 C   0  0  1  0  0  3  0  0  0  0  0  0
  186.7030  176.1090  135.9560 C   0  0  0  0  0  2  0  0  0  0  0  0
  185.6280  175.2930  135.2390 C   0  0  0  0  0  2  0  0  0  0  0  0
  184.7570  176.7320  137.4650 C   0  0  2  0  0  3  0  0  0  0  0  0
  188.1560  178.1040  137.2000 O   0  0  0  0  0  0  0  0  0  0  0  0
  183.1540  174.9720  137.9350 O   0  0  0  0  0  1  0  0  0  0  0  0
  182.8040  178.1160  137.3160 O   0  0  0  0  0  1  0  0  0  0  0  0
  183.7980  177.5000  136.5550 C   0  0  0  0  0  2  0  0  0  0  0  0
  184.5770  179.7390  143.4310 O   0  0  0  0  0  0  0  0  0  0  0  0
  183.7500  178.5050  145.3700 C   0  0  0  0  0  2  0  0  0  0  0  0
  184.8400  179.3610  144.7780 C   0  0  1  0  0  0  0  0  0  0  0  0
  185.1200  177.8990  145.0650 C   0  0  1  0  0  3  0  0  0  0  0  0
  185.3020  180.3440  145.6590 O   0  0  0  0  0  1  0  0  0  0  0  0
  187.3170  177.8050  146.3100 C   0  0  0  0  0  0  0  0  0  0  0  0
  190.2770  177.0260  144.4960 C   0  0  0  0  0  0  0  0  0  0  0  0
  185.8910  177.7540  146.2920 N   0  0  0  0  0  2  0  0  0  0  0  0
  189.8900  176.9640  143.1640 O   0  0  0  0  0  1  0  0  0  0  0  0
  189.4310  177.7340  145.5100 C   0  0  2  0  0  3  0  0  0  0  0  0
  188.2340  177.7320  147.8530 S   0  0  0  0  0  0  0  0  0  0  0  0
  190.9810  177.2340  147.3190 C   0  0  0  0  0  2  0  0  0  0  0  0
  189.5580  177.0330  146.8350 C   0  0  2  0  0  3  0  0  0  0  0  0
  188.0150  177.7630  145.2230 N   0  0  0  0  0  0  0  0  0  0  0  0
  191.4600  176.5200  144.8770 C   0  0  0  0  0  3  0  0  0  0  0  0
  191.9530  176.5590  146.3220 C   0  0  2  0  0  3  0  0  0  0  0  0
  192.6290  175.4030  148.0950 C   0  0  0  0  0  1  0  0  0  0  0  0
  192.2450  175.2630  146.7590 O   0  0  0  0  0  0  0  0  0  0  0  0
  1  2  1  0  0  0  0
  2  5  2  0  0  0  0
  2 22  1  0  0  0  0
  3  5  1  0  0  0  0
  4  6  1  0  0  0  0
  4  1  2  0  0  0  0
  6  3  2  0  0  0  0
  8  1  1  0  0  0  0
  8  7  2  0  0  0  0
  9  8  1  0  0  0  0
 10 12  1  0  0  0  0
 11 14  1  0  0  0  0
 12  9  1  0  0  0  0
 13 17  1  0  0  0  0
 13 10  1  0  0  0  0
 14 19  1  6  0  0  0
 15 13  1  0  0  0  0
 16 15  1  0  0  0  0
 16 11  1  0  0  0  0
 17 21  1  6  0  0  0
 17 14  1  0  0  0  0
 18 10  2  0  0  0  0
 21 20  1  0  0  0  0
 22 24  1  0  0  0  0
 24 25  1  0  0  0  0
 24 23  1  0  0  0  0
 24 26  1  1  0  0  0
 25 23  1  0  0  0  0
 25 29  1  1  0  0  0
 27 32  1  0  0  0  0
 28 36  2  0  0  0  0
 29 27  1  0  0  0  0
 30 28  1  0  0  0  0
 31 28  1  6  0  0  0
 31 34  1  0  0  0  0
 34 33  1  1  0  0  0
 34 32  1  0  0  0  0
 35 31  1  0  0  0  0
 35 27  2  0  0  0  0
 36 37  1  0  0  0  0
 37 39  1  1  0  0  0
 37 33  1  0  0  0  0
 39 38  1  0  0  0  0
M  END
>  <MODEL>
7

>  <REMARK>
 VINA RESULT:      -8.0      2.379      3.277
  Name = 
  7 active torsions:
  status: ('A' for Active; 'I' for Inactive)
    1  A    between atoms: N_3  and  C_19
    2  A    between atoms: C_5  and  C_9
    3  A    between atoms: O_8  and  C_13
    4  A    between atoms: O_8  and  C_15
    5  A    between atoms: N_12  and  N_26
    6  A    between atoms: C_31  and  C_33
    7  A    between atoms: C_38  and  O_39
                            x       y       z     vdW  Elec       q    Type
                         _______ _______ _______ _____ _____    ______ ____

>  <TORSDO>
F 7

$$$$
=
 OpenBabel11032421003D

 39 43  0  0  1  0  0  0  0  0999 V2000
  184.8550  177.5870  137.4610 C   0  0  0  0  0  0  0  0  0  0  0  0
  186.1550  177.6750  136.9090 C   0  0  0  0  0  0  0  0  0  0  0  0
  185.4310  176.3420  135.0060 C   0  0  0  0  0  3  0  0  0  0  0  0
  183.8630  176.8900  136.7600 C   0  0  0  0  0  3  0  0  0  0  0  0
  186.4310  177.0400  135.6870 C   0  0  0  0  0  3  0  0  0  0  0  0
  184.1450  176.2720  135.5390 C   0  0  0  0  0  3  0  0  0  0  0  0
  184.9260  179.3320  139.0850 O   0  0  0  0  0  0  0  0  0  0  0  0
  184.5080  178.1860  138.7710 C   0  0  0  0  0  0  0  0  0  0  0  0
  183.7030  177.4600  139.6990 N   0  0  0  0  0  2  0  0  0  0  0  0
  182.1960  178.6370  141.3200 C   0  0  0  0  0  0  0  0  0  0  0  0
  179.4670  180.2520  138.3580 C   0  0  0  0  0  2  0  0  0  0  0  0
  183.4230  177.9760  140.9720 N   0  0  0  0  0  2  0  0  0  0  0  0
  181.1690  178.9520  140.3530 N   0  0  0  0  0  0  0  0  0  0  0  0
  180.8340  179.6420  138.0290 C   0  0  1  0  0  3  0  0  0  0  0  0
  180.0380  179.7860  140.7850 C   0  0  0  0  0  2  0  0  0  0  0  0
  178.9310  179.8400  139.7330 C   0  0  0  0  0  2  0  0  0  0  0  0
  181.2520  178.4980  138.9640 C   0  0  2  0  0  3  0  0  0  0  0  0
  182.0370  178.9910  142.5200 O   0  0  0  0  0  0  0  0  0  0  0  0
  180.9020  179.2640  136.6880 O   0  0  0  0  0  1  0  0  0  0  0  0
  180.3190  176.5330  139.9750 O   0  0  0  0  0  1  0  0  0  0  0  0
  180.4190  177.2300  138.7710 C   0  0  0  0  0  2  0  0  0  0  0  0
  187.1500  178.4050  137.5720 O   0  0  0  0  0  0  0  0  0  0  0  0
  189.4240  178.4980  138.4580 C   0  0  0  0  0  2  0  0  0  0  0  0
  188.0710  177.8360  138.4960 C   0  0  1  0  0  0  0  0  0  0  0  0
  188.5140  178.6830  139.6720 C   0  0  1  0  0  3  0  0  0  0  0  0
  188.1480  176.4410  138.5740 O   0  0  0  0  0  1  0  0  0  0  0  0
  188.1570  177.5820  141.9180 C   0  0  0  0  0  0  0  0  0  0  0  0
  185.7070  178.9370  144.1150 C   0  0  0  0  0  0  0  0  0  0  0  0
  188.9650  177.8410  140.7710 N   0  0  0  0  0  2  0  0  0  0  0  0
  185.0780  179.9420  143.3940 O   0  0  0  0  0  1  0  0  0  0  0  0
  186.4880  177.8640  143.4180 C   0  0  2  0  0  3  0  0  0  0  0  0
  188.6970  176.4520  143.2060 S   0  0  0  0  0  0  0  0  0  0  0  0
  187.0670  176.7670  145.5120 C   0  0  0  0  0  2  0  0  0  0  0  0
  187.6440  177.4500  144.2870 C   0  0  2  0  0  3  0  0  0  0  0  0
  187.0730  178.2460  142.1530 N   0  0  0  0  0  0  0  0  0  0  0  0
  185.5550  178.8680  145.4460 C   0  0  0  0  0  3  0  0  0  0  0  0
  186.2110  177.7860  146.3030 C   0  0  2  0  0  3  0  0  0  0  0  0
  187.9600  177.4250  147.6240 C   0  0  0  0  0  1  0  0  0  0  0  0
  186.9920  178.3790  147.2990 O   0  0  0  0  0  0  0  0  0  0  0  0
  1  8  1  0  0  0  0
  2  1  1  0  0  0  0
  2 22  1  0  0  0  0
  3  6  2  0  0  0  0
  3  5  1  0  0  0  0
  4  1  2  0  0  0  0
  5  2  2  0  0  0  0
  6  4  1  0  0  0  0
  8  7  2  0  0  0  0
  8  9  1  0  0  0  0
  9 12  1  0  0  0  0
 10 18  2  0  0  0  0
 11 16  1  0  0  0  0
 12 10  1  0  0  0  0
 13 15  1  0  0  0  0
 13 10  1  0  0  0  0
 14 19  1  6  0  0  0
 14 11  1  0  0  0  0
 14 17  1  0  0  0  0
 16 15  1  0  0  0  0
 17 21  1  1  0  0  0
 17 13  1  0  0  0  0
 21 20  1  0  0  0  0
 22 24  1  0  0  0  0
 23 24  1  0  0  0  0
 23 25  1  0  0  0  0
 24 26  1  1  0  0  0
 24 25  1  0  0  0  0
 25 29  1  1  0  0  0
 27 35  2  0  0  0  0
 27 32  1  0  0  0  0
 28 36  2  0  0  0  0
 29 27  1  0  0  0  0
 30 28  1  0  0  0  0
 31 35  1  6  0  0  0
 31 28  1  0  0  0  0
 31 34  1  0  0  0  0
 32 34  1  0  0  0  0
 33 37  1  0  0  0  0
 34 33  1  1  0  0  0
 36 37  1  0  0  0  0
 37 39  1  1  0  0  0
 39 38  1  0  0  0  0
M  END
>  <MODEL>
8

>  <REMARK>
 VINA RESULT:      -8.0      3.139      6.814
  Name = 
  7 active torsions:
  status: ('A' for Active; 'I' for Inactive)
    1  A    between atoms: N_3  and  C_19
    2  A    between atoms: C_5  and  C_9
    3  A    between atoms: O_8  and  C_13
    4  A    between atoms: O_8  and  C_15
    5  A    between atoms: N_12  and  N_26
    6  A    between atoms: C_31  and  C_33
    7  A    between atoms: C_38  and  O_39
                            x       y       z     vdW  Elec       q    Type
                         _______ _______ _______ _____ _____    ______ ____

>  <TORSDO>
F 7

$$$$
=
 OpenBabel11032421003D

 39 43  0  0  1  0  0  0  0  0999 V2000
  190.3520  177.2980  140.3650 C   0  0  0  0  0  0  0  0  0  0  0  0
  190.1480  176.7940  139.0580 C   0  0  0  0  0  0  0  0  0  0  0  0
  192.5560  176.7500  138.7060 C   0  0  0  0  0  3  0  0  0  0  0  0
  191.6610  177.5010  140.8210 C   0  0  0  0  0  3  0  0  0  0  0  0
  191.2580  176.5340  138.2380 C   0  0  0  0  0  3  0  0  0  0  0  0
  192.7580  177.2270  140.0000 C   0  0  0  0  0  3  0  0  0  0  0  0
  188.6000  178.7290  141.1220 O   0  0  0  0  0  0  0  0  0  0  0  0
  189.2270  177.6450  141.2640 C   0  0  0  0  0  0  0  0  0  0  0  0
  188.8490  176.7550  142.3140 N   0  0  0  0  0  2  0  0  0  0  0  0
  188.0520  177.3180  144.6230 C   0  0  0  0  0  0  0  0  0  0  0  0
  191.5980  175.9350  146.7090 C   0  0  0  0  0  2  0  0  0  0  0  0
  187.8360  177.0950  143.2210 N   0  0  0  0  0  2  0  0  0  0  0  0
  189.3250  177.0890  145.2700 N   0  0  0  0  0  0  0  0  0  0  0  0
  191.2820  175.6190  145.2430 C   0  0  1  0  0  3  0  0  0  0  0  0
  189.3870  177.1770  146.7370 C   0  0  0  0  0  2  0  0  0  0  0  0
  190.8250  177.1400  147.2530 C   0  0  0  0  0  2  0  0  0  0  0  0
  190.5250  176.7360  144.5100 C   0  0  2  0  0  3  0  0  0  0  0  0
  187.0700  177.6910  145.3200 O   0  0  0  0  0  0  0  0  0  0  0  0
  192.4340  175.2390  144.5540 O   0  0  0  0  0  1  0  0  0  0  0  0
  190.5710  179.1140  144.2000 O   0  0  0  0  0  1  0  0  0  0  0  0
  191.3800  177.9800  144.2630 C   0  0  0  0  0  2  0  0  0  0  0  0
  188.8500  176.5410  138.5990 O   0  0  0  0  0  0  0  0  0  0  0  0
  187.3350  177.1210  136.7730 C   0  0  0  0  0  2  0  0  0  0  0  0
  187.9870  177.5400  138.0650 C   0  0  1  0  0  0  0  0  0  0  0  0
  186.4980  177.2580  138.0450 C   0  0  1  0  0  3  0  0  0  0  0  0
  188.4460  178.8610  138.0420 O   0  0  0  0  0  1  0  0  0  0  0  0
  184.5010  178.6570  138.7080 C   0  0  0  0  0  0  0  0  0  0  0  0
  181.5310  177.0040  139.7620 C   0  0  0  0  0  0  0  0  0  0  0  0
  185.7400  178.5000  138.0170 N   0  0  0  0  0  2  0  0  0  0  0  0
  181.8540  175.6550  139.8080 O   0  0  0  0  0  1  0  0  0  0  0  0
  182.6020  178.0530  139.7770 C   0  0  2  0  0  3  0  0  0  0  0  0
  183.6440  180.2350  138.7440 S   0  0  0  0  0  0  0  0  0  0  0  0
  180.9850  179.8680  139.6770 C   0  0  0  0  0  2  0  0  0  0  0  0
  182.1550  179.2290  138.9530 C   0  0  2  0  0  3  0  0  0  0  0  0
  183.8710  177.6490  139.2170 N   0  0  0  0  0  0  0  0  0  0  0  0
  180.2460  177.3900  139.7840 C   0  0  0  0  0  3  0  0  0  0  0  0
  179.8170  178.8550  139.7430 C   0  0  2  0  0  3  0  0  0  0  0  0
  178.9510  180.4490  138.4600 C   0  0  0  0  0  1  0  0  0  0  0  0
  178.9530  179.0670  138.6640 O   0  0  0  0  0  0  0  0  0  0  0  0
  1  4  1  0  0  0  0
  1  8  1  0  0  0  0
  2  1  2  0  0  0  0
  3  6  1  0  0  0  0
  5  3  2  0  0  0  0
  5  2  1  0  0  0  0
  6  4  2  0  0  0  0
  7  8  2  0  0  0  0
  8  9  1  0  0  0  0
  9 12  1  0  0  0  0
 10 13  1  0  0  0  0
 10 18  2  0  0  0  0
 11 16  1  0  0  0  0
 12 10  1  0  0  0  0
 13 15  1  0  0  0  0
 14 19  1  6  0  0  0
 14 11  1  0  0  0  0
 15 16  1  0  0  0  0
 17 21  1  1  0  0  0
 17 14  1  0  0  0  0
 17 13  1  0  0  0  0
 20 21  1  0  0  0  0
 22  2  1  0  0  0  0
 23 25  1  0  0  0  0
 23 24  1  0  0  0  0
 24 26  1  1  0  0  0
 24 22  1  0  0  0  0
 25 29  1  6  0  0  0
 25 24  1  0  0  0  0
 27 32  1  0  0  0  0
 27 35  2  0  0  0  0
 28 31  1  0  0  0  0
 28 36  2  0  0  0  0
 28 30  1  0  0  0  0
 29 27  1  0  0  0  0
 31 35  1  6  0  0  0
 32 34  1  0  0  0  0
 33 37  1  0  0  0  0
 34 33  1  1  0  0  0
 34 31  1  0  0  0  0
 37 39  1  6  0  0  0
 37 36  1  0  0  0  0
 38 39  1  0  0  0  0
M  END
>  <MODEL>
9

>  <REMARK>
 VINA RESULT:      -7.8      3.053      9.030
  Name = 
  7 active torsions:
  status: ('A' for Active; 'I' for Inactive)
    1  A    between atoms: N_3  and  C_19
    2  A    between atoms: C_5  and  C_9
    3  A    between atoms: O_8  and  C_13
    4  A    between atoms: O_8  and  C_15
    5  A    between atoms: N_12  and  N_26
    6  A    between atoms: C_31  and  C_33
    7  A    between atoms: C_38  and  O_39
                            x       y       z     vdW  Elec       q    Type
                         _______ _______ _______ _____ _____    ______ ____

>  <TORSDO>
F 7

$$$$
