=
 OpenBabel11032421303D

 26 29  0  0  1  0  0  0  0  0999 V2000
  189.5420  178.4270  144.1450 C   0  0  2  0  0  3  0  0  0  0  0  0
  188.0210  177.5660  146.1060 C   0  0  0  0  0  0  0  0  0  0  0  0
  191.6180  175.9780  147.6420 O   0  0  0  0  0  1  0  0  0  0  0  0
  190.0430  177.5790  142.1640 C   0  0  2  0  0  3  0  0  0  0  0  0
  189.2500  177.7340  145.4370 C   0  0  0  0  0  0  0  0  0  0  0  0
  189.2260  176.3010  147.8240 C   0  0  0  0  0  3  0  0  0  0  0  0
  190.4110  177.2180  145.9480 C   0  0  0  0  0  0  0  0  0  0  0  0
  191.2880  177.6000  142.8150 O   0  0  0  0  0  0  0  0  0  0  0  0
  188.9950  177.7010  143.0900 O   0  0  0  0  0  0  0  0  0  0  0  0
  191.5320  177.5100  145.1390 N   0  0  0  0  0  2  0  0  0  0  0  0
  190.4320  176.4960  147.1400 C   0  0  0  0  0  0  0  0  0  0  0  0
  191.0560  178.2940  144.0010 C   0  0  2  0  0  0  0  0  0  0  0  0
  188.0300  176.8340  147.3110 C   0  0  0  0  0  3  0  0  0  0  0  0
  185.9650  179.0560  146.2700 C   0  0  0  0  0  3  0  0  0  0  0  0
  184.9840  178.6220  144.3890 C   0  0  0  0  0  3  0  0  0  0  0  0
  184.8900  179.3500  145.5190 N   0  0  0  0  0  0  0  0  0  0  0  0
  186.7440  178.1290  145.6070 C   0  0  1  0  0  3  0  0  0  0  0  0
  186.1290  177.8490  144.4030 C   0  0  0  0  0  3  0  0  0  0  0  0
  191.2750  180.5800  144.5860 O   0  0  0  0  0  0  0  0  0  0  0  0
  191.7280  179.6330  143.9620 C   0  0  0  0  0  3  0  0  0  0  0  0
  189.8990  176.2800  141.3870 C   0  0  0  0  0  2  0  0  0  0  0  0
  190.5030  176.4120  140.0710 N   0  0  0  0  0  2  0  0  0  0  0  0
  189.8530  177.5330  139.4110 C   0  0  0  0  0  2  0  0  0  0  0  0
  190.0030  177.4120  137.9030 C   0  0  0  0  0  2  0  0  0  0  0  0
  188.9730  178.2660  137.1790 C   0  0  0  0  0  2  0  0  0  0  0  0
  189.0040  179.5730  137.6660 O   0  0  0  0  0  1  0  0  0  0  0  0
  1  9  1  6  0  0  0
  1  5  1  0  0  0  0
  2 13  1  0  0  0  0
  4 21  1  1  0  0  0
  4  8  1  0  0  0  0
  4  9  1  0  0  0  0
  5  7  1  0  0  0  0
  5  2  2  0  0  0  0
  7 11  2  0  0  0  0
  8 12  1  0  0  0  0
 10  7  1  0  0  0  0
 11  3  1  0  0  0  0
 11  6  1  0  0  0  0
 12 20  1  6  0  0  0
 12  1  1  0  0  0  0
 12 10  1  0  0  0  0
 13  6  2  0  0  0  0
 15 18  2  0  0  0  0
 15 16  1  0  0  0  0
 16 14  2  0  0  0  0
 17  2  1  6  0  0  0
 17 14  1  0  0  0  0
 18 17  1  0  0  0  0
 20 19  2  0  0  0  0
 22 21  1  0  0  0  0
 23 22  1  0  0  0  0
 24 23  1  0  0  0  0
 25 26  1  0  0  0  0
 25 24  1  0  0  0  0
M  END
>  <MODEL>
1

>  <REMARK>
 VINA RESULT:      -6.9      0.000      0.000
  Name = 
  7 active torsions:
  status: ('A' for Active; 'I' for Inactive)
    1  A    between atoms: C_3  and  C_10
    2  A    between atoms: C_3  and  N_19
    3  A    between atoms: C_4  and  C_8
    4  A    between atoms: C_6  and  C_16
    5  A    between atoms: C_8  and  C_14
    6  A    between atoms: C_14  and  N_19
    7  A    between atoms: C_21  and  C_25
                            x       y       z     vdW  Elec       q    Type
                         _______ _______ _______ _____ _____    ______ ____

>  <TORSDO>
F 7

$$$$
=
 OpenBabel11032421303D

 26 29  0  0  1  0  0  0  0  0999 V2000
  183.2340  178.2790  139.8400 C   0  0  2  0  0  3  0  0  0  0  0  0
  180.6650  178.7500  139.5590 C   0  0  0  0  0  0  0  0  0  0  0  0
  181.9390  182.4960  138.0870 O   0  0  0  0  0  1  0  0  0  0  0  0
  184.6140  178.5120  141.5540 C   0  0  2  0  0  3  0  0  0  0  0  0
  182.0310  179.0830  139.4640 C   0  0  0  0  0  0  0  0  0  0  0  0
  180.1480  180.9730  138.6660 C   0  0  0  0  0  3  0  0  0  0  0  0
  182.4320  180.3000  138.9800 C   0  0  0  0  0  0  0  0  0  0  0  0
  185.1310  179.4210  140.6160 O   0  0  0  0  0  0  0  0  0  0  0  0
  183.2970  178.1520  141.2250 O   0  0  0  0  0  0  0  0  0  0  0  0
  183.8380  180.4310  138.9480 N   0  0  0  0  0  2  0  0  0  0  0  0
  181.5150  181.2670  138.5730 C   0  0  0  0  0  0  0  0  0  0  0  0
  184.4040  179.1810  139.4510 C   0  0  2  0  0  0  0  0  0  0  0  0
  179.7280  179.7230  139.1530 C   0  0  0  0  0  3  0  0  0  0  0  0
  179.5680  177.2150  141.2640 C   0  0  0  0  0  3  0  0  0  0  0  0
  179.6630  175.3110  140.2350 C   0  0  0  0  0  3  0  0  0  0  0  0
  179.2550  175.9120  141.3700 N   0  0  0  0  0  2  0  0  0  0  0  0
  180.1840  177.4370  140.0490 C   0  0  0  0  0  0  0  0  0  0  0  0
  180.2470  176.2290  139.3840 C   0  0  0  0  0  3  0  0  0  0  0  0
  186.4930  178.5790  138.5070 O   0  0  0  0  0  0  0  0  0  0  0  0
  185.2760  178.5380  138.4150 C   0  0  0  0  0  3  0  0  0  0  0  0
  184.6500  179.1370  142.9390 C   0  0  0  0  0  2  0  0  0  0  0  0
  183.3990  178.8840  143.6370 N   0  0  0  0  0  2  0  0  0  0  0  0
  183.6790  178.9660  145.0610 C   0  0  0  0  0  2  0  0  0  0  0  0
  185.1500  178.6840  145.3240 C   0  0  0  0  0  2  0  0  0  0  0  0
  185.4120  178.4840  146.8090 C   0  0  0  0  0  2  0  0  0  0  0  0
  185.7830  179.6920  147.4000 O   0  0  0  0  0  1  0  0  0  0  0  0
  1  5  1  1  0  0  0
  1  9  1  0  0  0  0
  2 17  1  0  0  0  0
  3 11  1  0  0  0  0
  4 21  1  1  0  0  0
  5  2  1  0  0  0  0
  6 13  1  0  0  0  0
  7  5  2  0  0  0  0
  8  4  1  0  0  0  0
  9  4  1  0  0  0  0
 10  7  1  0  0  0  0
 10 12  1  0  0  0  0
 11  6  2  0  0  0  0
 11  7  1  0  0  0  0
 12 20  1  6  0  0  0
 12  1  1  0  0  0  0
 12  8  1  0  0  0  0
 13  2  2  0  0  0  0
 14 16  1  0  0  0  0
 15 16  1  0  0  0  0
 17 14  2  0  0  0  0
 18 17  1  0  0  0  0
 18 15  2  0  0  0  0
 20 19  2  0  0  0  0
 21 22  1  0  0  0  0
 22 23  1  0  0  0  0
 23 24  1  0  0  0  0
 24 25  1  0  0  0  0
 25 26  1  0  0  0  0
M  END
>  <MODEL>
2

>  <REMARK>
 VINA RESULT:      -6.5      5.647      9.444
  Name = 
  7 active torsions:
  status: ('A' for Active; 'I' for Inactive)
    1  A    between atoms: C_3  and  C_10
    2  A    between atoms: C_3  and  N_19
    3  A    between atoms: C_4  and  C_8
    4  A    between atoms: C_6  and  C_16
    5  A    between atoms: C_8  and  C_14
    6  A    between atoms: C_14  and  N_19
    7  A    between atoms: C_21  and  C_25
                            x       y       z     vdW  Elec       q    Type
                         _______ _______ _______ _____ _____    ______ ____

>  <TORSDO>
F 7

$$$$
=
 OpenBabel11032421303D

 26 29  0  0  1  0  0  0  0  0999 V2000
  190.6720  176.9300  138.2990 C   0  0  2  0  0  3  0  0  0  0  0  0
  191.3030  174.7300  137.0100 C   0  0  0  0  0  0  0  0  0  0  0  0
  187.1260  174.1730  136.7610 O   0  0  0  0  0  1  0  0  0  0  0  0
  190.4560  177.3860  140.4530 C   0  0  2  0  0  3  0  0  0  0  0  0
  190.3980  175.6610  137.5580 C   0  0  0  0  0  0  0  0  0  0  0  0
  189.3720  173.3990  136.2980 C   0  0  0  0  0  3  0  0  0  0  0  0
  189.0440  175.4710  137.4660 C   0  0  0  0  0  0  0  0  0  0  0  0
  189.1550  177.5880  139.9630 O   0  0  0  0  0  0  0  0  0  0  0  0
  191.2190  176.6350  139.5450 O   0  0  0  0  0  0  0  0  0  0  0  0
  188.3120  176.5230  138.0590 N   0  0  0  0  0  2  0  0  0  0  0  0
  188.5000  174.3500  136.8430 C   0  0  0  0  0  0  0  0  0  0  0  0
  189.2780  177.4890  138.5780 C   0  0  2  0  0  0  0  0  0  0  0  0
  190.7630  173.5890  136.3800 C   0  0  0  0  0  3  0  0  0  0  0  0
  193.4790  175.9190  136.4440 C   0  0  0  0  0  3  0  0  0  0  0  0
  194.9160  174.6850  137.4940 C   0  0  0  0  0  3  0  0  0  0  0  0
  194.7880  175.7750  136.7130 N   0  0  0  0  0  0  0  0  0  0  0  0
  192.7730  174.9050  137.0600 C   0  0  1  0  0  3  0  0  0  0  0  0
  193.6810  174.1140  137.7360 C   0  0  0  0  0  3  0  0  0  0  0  0
  188.1240  179.0460  137.2140 O   0  0  0  0  0  0  0  0  0  0  0  0
  189.0830  178.8310  137.9390 C   0  0  0  0  0  3  0  0  0  0  0  0
  190.3890  176.6680  141.7910 C   0  0  0  0  0  2  0  0  0  0  0  0
  191.5640  176.9790  142.5880 N   0  0  0  0  0  2  0  0  0  0  0  0
  191.2650  178.1870  143.3410 C   0  0  0  0  0  2  0  0  0  0  0  0
  190.7820  177.8280  144.7370 C   0  0  0  0  0  2  0  0  0  0  0  0
  191.5940  176.6820  145.3200 C   0  0  0  0  0  2  0  0  0  0  0  0
  191.8670  176.9200  146.6670 O   0  0  0  0  0  1  0  0  0  0  0  0
  1  5  1  6  0  0  0
  1 12  1  0  0  0  0
  1  9  1  0  0  0  0
  2  5  1  0  0  0  0
  3 11  1  0  0  0  0
  4 21  1  1  0  0  0
  6 13  1  0  0  0  0
  6 11  2  0  0  0  0
  7  5  2  0  0  0  0
  7 10  1  0  0  0  0
  8  4  1  0  0  0  0
  9  4  1  0  0  0  0
 10 12  1  0  0  0  0
 11  7  1  0  0  0  0
 12 20  1  6  0  0  0
 12  8  1  0  0  0  0
 13  2  2  0  0  0  0
 14 16  2  0  0  0  0
 14 17  1  0  0  0  0
 15 18  2  0  0  0  0
 16 15  1  0  0  0  0
 17  2  1  1  0  0  0
 17 18  1  0  0  0  0
 19 20  2  0  0  0  0
 21 22  1  0  0  0  0
 22 23  1  0  0  0  0
 23 24  1  0  0  0  0
 24 25  1  0  0  0  0
 25 26  1  0  0  0  0
M  END
>  <MODEL>
3

>  <REMARK>
 VINA RESULT:      -6.1      3.237      8.884
  Name = 
  7 active torsions:
  status: ('A' for Active; 'I' for Inactive)
    1  A    between atoms: C_3  and  C_10
    2  A    between atoms: C_3  and  N_19
    3  A    between atoms: C_4  and  C_8
    4  A    between atoms: C_6  and  C_16
    5  A    between atoms: C_8  and  C_14
    6  A    between atoms: C_14  and  N_19
    7  A    between atoms: C_21  and  C_25
                            x       y       z     vdW  Elec       q    Type
                         _______ _______ _______ _____ _____    ______ ____

>  <TORSDO>
F 7

$$$$
=
 OpenBabel11032421303D

 26 29  0  0  1  0  0  0  0  0999 V2000
  190.5750  176.9450  138.0540 C   0  0  2  0  0  3  0  0  0  0  0  0
  191.2980  174.6890  136.9200 C   0  0  0  0  0  0  0  0  0  0  0  0
  187.1450  174.0420  136.5230 O   0  0  0  0  0  1  0  0  0  0  0  0
  190.2570  177.5180  140.1670 C   0  0  2  0  0  3  0  0  0  0  0  0
  190.3550  175.6320  137.3740 C   0  0  0  0  0  0  0  0  0  0  0  0
  189.4230  173.2850  136.2020 C   0  0  0  0  0  3  0  0  0  0  0  0
  189.0100  175.4130  137.2350 C   0  0  0  0  0  0  0  0  0  0  0  0
  188.9760  177.6680  139.6110 O   0  0  0  0  0  0  0  0  0  0  0  0
  191.0720  176.7310  139.3370 O   0  0  0  0  0  0  0  0  0  0  0  0
  188.2350  176.4830  137.7350 N   0  0  0  0  0  2  0  0  0  0  0  0
  188.5120  174.2490  136.6530 C   0  0  0  0  0  0  0  0  0  0  0  0
  189.1620  177.4930  138.2400 C   0  0  2  0  0  0  0  0  0  0  0  0
  190.8050  173.5050  136.3330 C   0  0  0  0  0  3  0  0  0  0  0  0
  193.4780  175.8850  136.3830 C   0  0  0  0  0  3  0  0  0  0  0  0
  194.8860  174.7370  137.5610 C   0  0  0  0  0  3  0  0  0  0  0  0
  194.7760  175.7800  136.7160 N   0  0  0  0  0  0  0  0  0  0  0  0
  192.7620  174.8940  137.0240 C   0  0  1  0  0  3  0  0  0  0  0  0
  193.6510  174.1580  137.7810 C   0  0  0  0  0  3  0  0  0  0  0  0
  187.8630  179.1590  137.1640 O   0  0  0  0  0  0  0  0  0  0  0  0
  188.9730  178.7940  137.5190 C   0  0  0  0  0  3  0  0  0  0  0  0
  190.1420  176.8740  141.5390 C   0  0  0  0  0  2  0  0  0  0  0  0
  188.7800  176.9870  142.0350 N   0  0  0  0  0  2  0  0  0  0  0  0
  188.6870  176.1620  143.2280 C   0  0  0  0  0  2  0  0  0  0  0  0
  188.2270  176.9990  144.4100 C   0  0  0  0  0  2  0  0  0  0  0  0
  189.3940  177.3510  145.3200 C   0  0  0  0  0  2  0  0  0  0  0  0
  189.9930  178.5380  144.8980 O   0  0  0  0  0  1  0  0  0  0  0  0
  1  5  1  6  0  0  0
  1 12  1  0  0  0  0
  1  9  1  0  0  0  0
  2  5  1  0  0  0  0
  3 11  1  0  0  0  0
  4 21  1  1  0  0  0
  6 13  1  0  0  0  0
  6 11  2  0  0  0  0
  7  5  2  0  0  0  0
  7 10  1  0  0  0  0
  8  4  1  0  0  0  0
  9  4  1  0  0  0  0
 10 12  1  0  0  0  0
 11  7  1  0  0  0  0
 12 20  1  6  0  0  0
 12  8  1  0  0  0  0
 13  2  2  0  0  0  0
 14 16  2  0  0  0  0
 14 17  1  0  0  0  0
 15 18  2  0  0  0  0
 16 15  1  0  0  0  0
 17  2  1  1  0  0  0
 17 18  1  0  0  0  0
 19 20  2  0  0  0  0
 21 22  1  0  0  0  0
 22 23  1  0  0  0  0
 23 24  1  0  0  0  0
 24 25  1  0  0  0  0
 26 25  1  0  0  0  0
M  END
>  <MODEL>
4

>  <REMARK>
 VINA RESULT:      -6.1      3.274      8.871
  Name = 
  7 active torsions:
  status: ('A' for Active; 'I' for Inactive)
    1  A    between atoms: C_3  and  C_10
    2  A    between atoms: C_3  and  N_19
    3  A    between atoms: C_4  and  C_8
    4  A    between atoms: C_6  and  C_16
    5  A    between atoms: C_8  and  C_14
    6  A    between atoms: C_14  and  N_19
    7  A    between atoms: C_21  and  C_25
                            x       y       z     vdW  Elec       q    Type
                         _______ _______ _______ _____ _____    ______ ____

>  <TORSDO>
F 7

$$$$
=
 OpenBabel11032421303D

 26 29  0  0  1  0  0  0  0  0999 V2000
  184.6700  178.9110  139.0450 C   0  0  2  0  0  3  0  0  0  0  0  0
  186.0660  177.2240  137.5940 C   0  0  0  0  0  0  0  0  0  0  0  0
  182.3900  175.1910  137.1730 O   0  0  0  0  0  1  0  0  0  0  0  0
  184.3080  179.0600  141.2230 C   0  0  2  0  0  3  0  0  0  0  0  0
  184.8820  177.7020  138.1910 C   0  0  0  0  0  0  0  0  0  0  0  0
  184.7620  175.3450  136.7140 C   0  0  0  0  0  3  0  0  0  0  0  0
  183.6950  177.0360  138.0430 C   0  0  0  0  0  0  0  0  0  0  0  0
  183.0230  178.8120  140.7130 O   0  0  0  0  0  0  0  0  0  0  0  0
  185.2920  178.7280  140.2770 O   0  0  0  0  0  0  0  0  0  0  0  0
  182.6270  177.6860  138.7010 N   0  0  0  0  0  2  0  0  0  0  0  0
  183.6010  175.8540  137.3110 C   0  0  0  0  0  0  0  0  0  0  0  0
  183.1690  178.8890  139.3290 C   0  0  2  0  0  0  0  0  0  0  0  0
  185.9840  176.0260  136.8540 C   0  0  0  0  0  3  0  0  0  0  0  0
  187.8320  178.8880  136.8320 C   0  0  0  0  0  3  0  0  0  0  0  0
  189.3390  178.6310  138.3660 C   0  0  0  0  0  3  0  0  0  0  0  0
  189.0390  179.3130  137.2440 N   0  0  0  0  0  0  0  0  0  0  0  0
  187.3670  177.9230  137.7030 C   0  0  1  0  0  3  0  0  0  0  0  0
  188.3200  177.7550  138.6880 C   0  0  0  0  0  3  0  0  0  0  0  0
  183.0850  181.1800  138.7240 O   0  0  0  0  0  0  0  0  0  0  0  0
  182.4900  180.1160  138.8000 C   0  0  0  0  0  3  0  0  0  0  0  0
  184.5150  178.2510  142.4920 C   0  0  0  0  0  2  0  0  0  0  0  0
  185.9360  178.0940  142.7620 N   0  0  0  0  0  2  0  0  0  0  0  0
  186.0840  177.9380  144.2000 C   0  0  0  0  0  2  0  0  0  0  0  0
  185.0310  178.7570  144.9280 C   0  0  0  0  0  2  0  0  0  0  0  0
  185.0000  178.4180  146.4110 C   0  0  0  0  0  2  0  0  0  0  0  0
  185.6800  179.3920  147.1420 O   0  0  0  0  0  1  0  0  0  0  0  0
  1  5  1  6  0  0  0
  1 12  1  0  0  0  0
  1  9  1  0  0  0  0
  2  5  1  0  0  0  0
  3 11  1  0  0  0  0
  4 21  1  1  0  0  0
  6 13  1  0  0  0  0
  6 11  2  0  0  0  0
  7  5  2  0  0  0  0
  7 10  1  0  0  0  0
  8  4  1  0  0  0  0
  9  4  1  0  0  0  0
 10 12  1  0  0  0  0
 11  7  1  0  0  0  0
 12 20  1  6  0  0  0
 12  8  1  0  0  0  0
 13  2  2  0  0  0  0
 14 16  2  0  0  0  0
 14 17  1  0  0  0  0
 15 18  2  0  0  0  0
 16 15  1  0  0  0  0
 17  2  1  1  0  0  0
 17 18  1  0  0  0  0
 19 20  2  0  0  0  0
 21 22  1  0  0  0  0
 22 23  1  0  0  0  0
 23 24  1  0  0  0  0
 24 25  1  0  0  0  0
 25 26  1  0  0  0  0
M  END
>  <MODEL>
5

>  <REMARK>
 VINA RESULT:      -6.0      4.511      9.134
  Name = 
  7 active torsions:
  status: ('A' for Active; 'I' for Inactive)
    1  A    between atoms: C_3  and  C_10
    2  A    between atoms: C_3  and  N_19
    3  A    between atoms: C_4  and  C_8
    4  A    between atoms: C_6  and  C_16
    5  A    between atoms: C_8  and  C_14
    6  A    between atoms: C_14  and  N_19
    7  A    between atoms: C_21  and  C_25
                            x       y       z     vdW  Elec       q    Type
                         _______ _______ _______ _____ _____    ______ ____

>  <TORSDO>
F 7

$$$$
=
 OpenBabel11032421303D

 26 29  0  0  1  0  0  0  0  0999 V2000
  182.2980  178.5960  140.7170 C   0  0  2  0  0  3  0  0  0  0  0  0
  182.4410  178.8180  143.3300 C   0  0  0  0  0  0  0  0  0  0  0  0
  186.5820  178.2530  142.7340 O   0  0  0  0  0  1  0  0  0  0  0  0
  181.8980  176.8740  139.3860 C   0  0  2  0  0  3  0  0  0  0  0  0
  182.9860  178.6410  142.0430 C   0  0  0  0  0  0  0  0  0  0  0  0
  184.7090  178.5980  144.2300 C   0  0  0  0  0  3  0  0  0  0  0  0
  184.3320  178.4630  141.8620 C   0  0  0  0  0  0  0  0  0  0  0  0
  183.2120  177.2320  139.0410 O   0  0  0  0  0  0  0  0  0  0  0  0
  181.5380  177.4330  140.6230 O   0  0  0  0  0  0  0  0  0  0  0  0
  184.6790  178.3220  140.5000 N   0  0  0  0  0  2  0  0  0  0  0  0
  185.2210  178.4360  142.9360 C   0  0  0  0  0  0  0  0  0  0  0  0
  183.4460  178.4250  139.7230 C   0  0  2  0  0  0  0  0  0  0  0  0
  183.3300  178.7890  144.4240 C   0  0  0  0  0  3  0  0  0  0  0  0
  180.1770  178.2260  144.3280 C   0  0  0  0  0  3  0  0  0  0  0  0
  178.9610  179.8690  143.6110 C   0  0  0  0  0  3  0  0  0  0  0  0
  178.9350  178.7380  144.3440 N   0  0  0  0  0  2  0  0  0  0  0  0
  180.9960  179.0410  143.5730 C   0  0  0  0  0  0  0  0  0  0  0  0
  180.2310  180.0940  143.1140 C   0  0  0  0  0  3  0  0  0  0  0  0
  184.1010  180.6030  139.0560 O   0  0  0  0  0  0  0  0  0  0  0  0
  183.5190  179.5710  138.7600 C   0  0  0  0  0  3  0  0  0  0  0  0
  181.7850  175.3600  139.4490 C   0  0  0  0  0  2  0  0  0  0  0  0
  180.4560  174.9380  139.0370 N   0  0  0  0  0  2  0  0  0  0  0  0
  180.5420  174.5540  137.6370 C   0  0  0  0  0  2  0  0  0  0  0  0
  181.8530  173.8300  137.3720 C   0  0  0  0  0  2  0  0  0  0  0  0
  181.6050  172.4140  136.8750 C   0  0  0  0  0  2  0  0  0  0  0  0
  180.7440  171.7420  137.7430 O   0  0  0  0  0  1  0  0  0  0  0  0
  1  9  1  1  0  0  0
  1  5  1  0  0  0  0
  2 17  1  0  0  0  0
  2 13  1  0  0  0  0
  3 11  1  0  0  0  0
  4 21  1  1  0  0  0
  4  9  1  0  0  0  0
  5  2  2  0  0  0  0
  6 13  2  0  0  0  0
  7  5  1  0  0  0  0
  7 11  2  0  0  0  0
  8  4  1  0  0  0  0
  8 12  1  0  0  0  0
 10  7  1  0  0  0  0
 11  6  1  0  0  0  0
 12 20  1  6  0  0  0
 12 10  1  0  0  0  0
 12  1  1  0  0  0  0
 14 16  1  0  0  0  0
 15 16  1  0  0  0  0
 17 14  2  0  0  0  0
 18 17  1  0  0  0  0
 18 15  2  0  0  0  0
 20 19  2  0  0  0  0
 22 21  1  0  0  0  0
 23 22  1  0  0  0  0
 24 23  1  0  0  0  0
 25 24  1  0  0  0  0
 25 26  1  0  0  0  0
M  END
>  <MODEL>
6

>  <REMARK>
 VINA RESULT:      -5.9      6.034      8.061
  Name = 
  7 active torsions:
  status: ('A' for Active; 'I' for Inactive)
    1  A    between atoms: C_3  and  C_10
    2  A    between atoms: C_3  and  N_19
    3  A    between atoms: C_4  and  C_8
    4  A    between atoms: C_6  and  C_16
    5  A    between atoms: C_8  and  C_14
    6  A    between atoms: C_14  and  N_19
    7  A    between atoms: C_21  and  C_25
                            x       y       z     vdW  Elec       q    Type
                         _______ _______ _______ _____ _____    ______ ____

>  <TORSDO>
F 7

$$$$
=
 OpenBabel11032421303D

 26 29  0  0  1  0  0  0  0  0999 V2000
  182.7120  178.2410  140.2810 C   0  0  2  0  0  3  0  0  0  0  0  0
  183.9720  178.6870  142.5430 C   0  0  0  0  0  0  0  0  0  0  0  0
  180.0880  178.9020  144.1820 O   0  0  0  0  0  1  0  0  0  0  0  0
  182.0670  179.5830  138.6440 C   0  0  2  0  0  3  0  0  0  0  0  0
  182.8220  178.5070  141.7480 C   0  0  0  0  0  0  0  0  0  0  0  0
  182.4890  179.0310  144.4620 C   0  0  0  0  0  3  0  0  0  0  0  0
  181.5670  178.5740  142.2930 C   0  0  0  0  0  0  0  0  0  0  0  0
  180.8470  179.0920  139.1390 O   0  0  0  0  0  0  0  0  0  0  0  0
  183.1010  179.3740  139.5700 O   0  0  0  0  0  0  0  0  0  0  0  0
  180.5520  178.3470  141.3370 N   0  0  0  0  0  2  0  0  0  0  0  0
  181.3670  178.8350  143.6470 C   0  0  0  0  0  0  0  0  0  0  0  0
  181.2080  178.1040  140.0540 C   0  0  2  0  0  0  0  0  0  0  0  0
  183.7810  178.9560  143.9130 C   0  0  0  0  0  3  0  0  0  0  0  0
  185.7450  179.0030  140.7460 C   0  0  0  0  0  3  0  0  0  0  0  0
  187.5050  178.2500  141.7580 C   0  0  0  0  0  3  0  0  0  0  0  0
  187.0630  178.7860  140.6030 N   0  0  0  0  0  0  0  0  0  0  0  0
  185.3490  178.5960  142.0040 C   0  0  1  0  0  3  0  0  0  0  0  0
  186.4670  178.1180  142.6590 C   0  0  0  0  0  3  0  0  0  0  0  0
  181.6230  175.8080  139.6340 O   0  0  0  0  0  0  0  0  0  0  0  0
  180.8510  176.7480  139.5240 C   0  0  0  0  0  3  0  0  0  0  0  0
  181.9330  181.0660  138.3430 C   0  0  0  0  0  2  0  0  0  0  0  0
  181.0170  181.2730  137.2330 N   0  0  0  0  0  2  0  0  0  0  0  0
  180.2270  182.4540  137.5430 C   0  0  0  0  0  2  0  0  0  0  0  0
  180.5040  183.5520  136.5280 C   0  0  0  0  0  2  0  0  0  0  0  0
  181.0270  184.8070  137.2090 C   0  0  0  0  0  2  0  0  0  0  0  0
  182.3560  184.6280  137.5940 O   0  0  0  0  0  1  0  0  0  0  0  0
  1  9  1  6  0  0  0
  1  5  1  0  0  0  0
  2 13  1  0  0  0  0
  4 21  1  1  0  0  0
  4  8  1  0  0  0  0
  4  9  1  0  0  0  0
  5  7  1  0  0  0  0
  5  2  2  0  0  0  0
  7 11  2  0  0  0  0
  8 12  1  0  0  0  0
 10  7  1  0  0  0  0
 11  3  1  0  0  0  0
 11  6  1  0  0  0  0
 12 20  1  6  0  0  0
 12  1  1  0  0  0  0
 12 10  1  0  0  0  0
 13  6  2  0  0  0  0
 14 17  1  0  0  0  0
 15 18  2  0  0  0  0
 16 14  2  0  0  0  0
 16 15  1  0  0  0  0
 17  2  1  1  0  0  0
 17 18  1  0  0  0  0
 20 19  2  0  0  0  0
 22 23  1  0  0  0  0
 22 21  1  0  0  0  0
 24 25  1  0  0  0  0
 24 23  1  0  0  0  0
 25 26  1  0  0  0  0
M  END
>  <MODEL>
7

>  <REMARK>
 VINA RESULT:      -5.8      6.322      9.024
  Name = 
  7 active torsions:
  status: ('A' for Active; 'I' for Inactive)
    1  A    between atoms: C_3  and  C_10
    2  A    between atoms: C_3  and  N_19
    3  A    between atoms: C_4  and  C_8
    4  A    between atoms: C_6  and  C_16
    5  A    between atoms: C_8  and  C_14
    6  A    between atoms: C_14  and  N_19
    7  A    between atoms: C_21  and  C_25
                            x       y       z     vdW  Elec       q    Type
                         _______ _______ _______ _____ _____    ______ ____

>  <TORSDO>
F 7

$$$$
=
 OpenBabel11032421303D

 26 29  0  0  1  0  0  0  0  0999 V2000
  191.0340  175.3490  137.9560 C   0  0  2  0  0  3  0  0  0  0  0  0
  189.8520  177.4260  139.0460 C   0  0  0  0  0  0  0  0  0  0  0  0
  188.2200  177.9940  135.1940 O   0  0  0  0  0  1  0  0  0  0  0  0
  193.0310  175.0780  137.0420 C   0  0  2  0  0  3  0  0  0  0  0  0
  190.1470  176.5520  137.9800 C   0  0  0  0  0  0  0  0  0  0  0  0
  188.4520  178.7070  137.4960 C   0  0  0  0  0  3  0  0  0  0  0  0
  189.6080  176.7440  136.7360 C   0  0  0  0  0  0  0  0  0  0  0  0
  192.1630  174.8460  135.9620 O   0  0  0  0  0  0  0  0  0  0  0  0
  192.3630  175.7440  138.0830 O   0  0  0  0  0  0  0  0  0  0  0  0
  190.0110  175.7520  135.8150 N   0  0  0  0  0  2  0  0  0  0  0  0
  188.7560  177.8130  136.4620 C   0  0  0  0  0  0  0  0  0  0  0  0
  190.8890  174.8270  136.5280 C   0  0  2  0  0  0  0  0  0  0  0  0
  188.9950  178.5130  138.7780 C   0  0  0  0  0  3  0  0  0  0  0  0
  191.6860  177.5090  140.8060 C   0  0  0  0  0  3  0  0  0  0  0  0
  190.6170  176.8160  142.5570 C   0  0  0  0  0  3  0  0  0  0  0  0
  191.8170  177.2430  142.1170 N   0  0  0  0  0  2  0  0  0  0  0  0
  190.3890  177.2440  140.4150 C   0  0  0  0  0  0  0  0  0  0  0  0
  189.6980  176.8050  141.5260 C   0  0  0  0  0  3  0  0  0  0  0  0
  189.3850  173.1280  137.2140 O   0  0  0  0  0  0  0  0  0  0  0  0
  190.3280  173.4370  136.5020 C   0  0  0  0  0  3  0  0  0  0  0  0
  194.2140  175.9080  136.5720 C   0  0  0  0  0  2  0  0  0  0  0  0
  195.4610  175.2520  136.9290 N   0  0  0  0  0  2  0  0  0  0  0  0
  195.1430  174.2340  137.9170 C   0  0  0  0  0  2  0  0  0  0  0  0
  196.2590  174.1340  138.9450 C   0  0  0  0  0  2  0  0  0  0  0  0
  197.6020  174.5010  138.3330 C   0  0  0  0  0  2  0  0  0  0  0  0
  198.1360  175.6180  138.9770 O   0  0  0  0  0  1  0  0  0  0  0  0
  1  5  1  6  0  0  0
  1  9  1  0  0  0  0
  2 17  1  0  0  0  0
  3 11  1  0  0  0  0
  4 21  1  6  0  0  0
  4  9  1  0  0  0  0
  5  2  2  0  0  0  0
  6 13  2  0  0  0  0
  7  5  1  0  0  0  0
  8 12  1  0  0  0  0
  8  4  1  0  0  0  0
 10 12  1  0  0  0  0
 10  7  1  0  0  0  0
 11  7  2  0  0  0  0
 11  6  1  0  0  0  0
 12 20  1  6  0  0  0
 12  1  1  0  0  0  0
 13  2  1  0  0  0  0
 14 16  1  0  0  0  0
 16 15  1  0  0  0  0
 17 14  2  0  0  0  0
 17 18  1  0  0  0  0
 18 15  2  0  0  0  0
 20 19  2  0  0  0  0
 21 22  1  0  0  0  0
 22 23  1  0  0  0  0
 23 24  1  0  0  0  0
 25 24  1  0  0  0  0
 25 26  1  0  0  0  0
M  END
>  <MODEL>
8

>  <REMARK>
 VINA RESULT:      -5.7      4.744      8.374
  Name = 
  7 active torsions:
  status: ('A' for Active; 'I' for Inactive)
    1  A    between atoms: C_3  and  C_10
    2  A    between atoms: C_3  and  N_19
    3  A    between atoms: C_4  and  C_8
    4  A    between atoms: C_6  and  C_16
    5  A    between atoms: C_8  and  C_14
    6  A    between atoms: C_14  and  N_19
    7  A    between atoms: C_21  and  C_25
                            x       y       z     vdW  Elec       q    Type
                         _______ _______ _______ _____ _____    ______ ____

>  <TORSDO>
F 7

$$$$
=
 OpenBabel11032421303D

 26 29  0  0  1  0  0  0  0  0999 V2000
  186.3320  178.1040  137.9100 C   0  0  2  0  0  3  0  0  0  0  0  0
  184.8820  178.8060  139.9850 C   0  0  0  0  0  0  0  0  0  0  0  0
  188.4870  178.3480  142.1330 O   0  0  0  0  0  1  0  0  0  0  0  0
  186.6940  176.1500  136.9370 C   0  0  2  0  0  3  0  0  0  0  0  0
  186.0800  178.4240  139.3480 C   0  0  0  0  0  0  0  0  0  0  0  0
  186.1230  178.8670  142.0970 C   0  0  0  0  0  3  0  0  0  0  0  0
  187.2450  178.2840  140.0560 C   0  0  0  0  0  0  0  0  0  0  0  0
  187.9710  176.5030  137.4040 O   0  0  0  0  0  0  0  0  0  0  0  0
  185.7020  176.9070  137.5800 O   0  0  0  0  0  0  0  0  0  0  0  0
  188.3330  177.9140  139.2340 N   0  0  0  0  0  2  0  0  0  0  0  0
  187.2990  178.4970  141.4320 C   0  0  0  0  0  0  0  0  0  0  0  0
  187.8310  177.8110  137.8660 C   0  0  2  0  0  0  0  0  0  0  0  0
  184.9250  179.0210  141.3780 C   0  0  0  0  0  3  0  0  0  0  0  0
  182.7290  177.9920  138.9020 C   0  0  0  0  0  3  0  0  0  0  0  0
  181.8690  179.8600  138.2250 C   0  0  0  0  0  3  0  0  0  0  0  0
  181.6720  178.5280  138.2690 N   0  0  0  0  0  0  0  0  0  0  0  0
  183.6050  178.9970  139.2580 C   0  0  1  0  0  3  0  0  0  0  0  0
  183.0630  180.1940  138.8330 C   0  0  0  0  0  3  0  0  0  0  0  0
  188.9850  179.8250  137.3870 O   0  0  0  0  0  0  0  0  0  0  0  0
  188.5530  178.7640  136.9620 C   0  0  0  0  0  3  0  0  0  0  0  0
  186.4570  174.6690  137.1820 C   0  0  0  0  0  2  0  0  0  0  0  0
  185.0310  174.3940  137.2580 N   0  0  0  0  0  2  0  0  0  0  0  0
  184.8820  173.0110  137.6790 C   0  0  0  0  0  2  0  0  0  0  0  0
  184.6520  172.1170  136.4710 C   0  0  0  0  0  2  0  0  0  0  0  0
  183.5080  171.1450  136.7180 C   0  0  0  0  0  2  0  0  0  0  0  0
  182.3750  171.8350  137.1510 O   0  0  0  0  0  1  0  0  0  0  0  0
  1  9  1  1  0  0  0
  1  5  1  0  0  0  0
  2 13  1  0  0  0  0
  4 21  1  1  0  0  0
  4  8  1  0  0  0  0
  4  9  1  0  0  0  0
  5  2  2  0  0  0  0
  5  7  1  0  0  0  0
  7 11  2  0  0  0  0
  8 12  1  0  0  0  0
 10  7  1  0  0  0  0
 11  6  1  0  0  0  0
 11  3  1  0  0  0  0
 12 20  1  6  0  0  0
 12  1  1  0  0  0  0
 12 10  1  0  0  0  0
 13  6  2  0  0  0  0
 14 17  1  0  0  0  0
 15 16  1  0  0  0  0
 15 18  2  0  0  0  0
 16 14  2  0  0  0  0
 17  2  1  1  0  0  0
 18 17  1  0  0  0  0
 20 19  2  0  0  0  0
 21 22  1  0  0  0  0
 22 23  1  0  0  0  0
 24 25  1  0  0  0  0
 24 23  1  0  0  0  0
 25 26  1  0  0  0  0
M  END
>  <MODEL>
9

>  <REMARK>
 VINA RESULT:      -5.5      5.129      7.229
  Name = 
  7 active torsions:
  status: ('A' for Active; 'I' for Inactive)
    1  A    between atoms: C_3  and  C_10
    2  A    between atoms: C_3  and  N_19
    3  A    between atoms: C_4  and  C_8
    4  A    between atoms: C_6  and  C_16
    5  A    between atoms: C_8  and  C_14
    6  A    between atoms: C_14  and  N_19
    7  A    between atoms: C_21  and  C_25
                            x       y       z     vdW  Elec       q    Type
                         _______ _______ _______ _____ _____    ______ ____

>  <TORSDO>
F 7

$$$$
