=
 OpenBabel11032420543D

 47 51  0  0  1  0  0  0  0  0999 V2000
  192.1940  177.5050  140.8540 O   0  0  0  0  0  0  0  0  0  0  0  0
  185.4040  175.8520  136.2310 S   0  0  0  0  0  0  0  0  0  0  0  0
  190.9160  176.0120  139.5600 C   0  0  0  0  0  2  0  0  0  0  0  0
  184.3090  178.8090  142.3970 C   0  0  2  0  0  3  0  0  0  0  0  0
  185.8980  177.1230  143.2460 N   0  0  0  0  0  2  0  0  0  0  0  0
  181.6290  175.7950  139.2430 C   0  0  0  0  0  0  0  0  0  0  0  0
  183.5750  174.1930  137.6120 C   0  0  0  0  0  0  0  0  0  0  0  0
  184.4760  178.1940  137.6390 S   0  0  0  0  0  0  0  0  0  0  0  0
  187.2870  176.9980  143.2280 N   0  0  0  0  0  0  0  0  0  0  0  0
  191.2580  176.3570  138.1460 C   0  0  0  0  0  3  0  0  0  0  0  0
  188.9610  177.0580  137.4810 C   0  0  0  0  0  0  0  0  0  0  0  0
  190.4070  176.8510  137.2390 C   0  0  0  0  0  0  0  0  0  0  0  0
  183.2050  178.8110  140.2530 N   0  0  0  0  0  0  0  0  0  0  0  0
  189.2490  177.4050  141.9820 N   0  0  0  0  0  2  0  0  0  0  0  0
  185.3490  177.7400  142.0520 C   0  0  2  0  0  3  0  0  0  0  0  0
  184.5240  173.0610  137.4100 C   0  0  0  0  0  1  0  0  0  0  0  0
  182.9170  177.4420  140.3540 N   0  0  0  0  0  2  0  0  0  0  0  0
  183.6110  176.6710  138.0380 C   0  0  0  0  0  0  0  0  0  0  0  0
  183.8080  179.4470  141.1820 N   0  0  0  0  0  0  0  0  0  0  0  0
  180.8190  175.7680  140.3320 F   0  0  0  0  0  0  0  0  0  0  0  0
  182.6770  176.6250  139.2050 C   0  0  0  0  0  0  0  0  0  0  0  0
  188.2290  177.9370  136.6080 N   0  0  0  0  0  0  0  0  0  0  0  0
  187.8500  177.5510  142.2160 C   0  0  0  0  0  0  0  0  0  0  0  0
  185.9610  177.2240  137.2730 C   0  0  2  0  0  3  0  0  0  0  0  0
  182.3480  173.9070  137.9370 N   0  0  0  0  0  0  0  0  0  0  0  0
  186.9370  178.0610  136.5140 C   0  0  0  0  0  3  0  0  0  0  0  0
  181.2960  174.8990  138.0960 C   0  0  0  0  0  2  0  0  0  0  0  0
  186.7550  178.3930  141.0810 S   0  0  0  0  0  0  0  0  0  0  0  0
  189.8970  178.0150  140.8350 C   0  0  0  0  0  2  0  0  0  0  0  0
  188.3790  176.4730  138.4350 O   0  0  0  0  0  0  0  0  0  0  0  0
  184.0310  175.5840  137.3570 C   0  0  0  0  0  0  0  0  0  0  0  0
  191.0850  177.2050  140.4410 C   0  0  0  0  0  0  0  0  0  0  0  0
  190.9630  177.1950  135.8910 C   0  0  0  0  0  2  0  0  0  0  0  0
  190.6670  176.0920  134.8800 C   0  0  0  0  0  2  0  0  0  0  0  0
  191.9120  175.2600  134.5940 C   0  0  0  0  0  3  0  0  0  0  0  0
  193.1330  176.0480  135.0260 C   0  0  0  0  0  1  0  0  0  0  0  0
  191.8520  173.9610  135.3860 C   0  0  0  0  0  1  0  0  0  0  0  0
  184.8860  179.8720  143.3300 C   0  0  0  0  0  2  0  0  0  0  0  0
  184.4670  179.6120  144.7680 C   0  0  0  0  0  2  0  0  0  0  0  0
  185.6770  179.6720  145.6870 C   0  0  0  0  0  2  0  0  0  0  0  0
  185.6940  178.4810  146.6440 C   0  0  0  0  0  2  0  0  0  0  0  0
  189.2300  177.1020  146.4890 C   0  0  0  0  0  3  0  0  0  0  0  0
  187.5650  178.4140  148.3220 C   0  0  0  0  0  3  0  0  0  0  0  0
  187.0850  178.1000  147.0450 C   0  0  0  0  0  0  0  0  0  0  0  0
  189.7110  177.4190  147.7630 C   0  0  0  0  0  3  0  0  0  0  0  0
  188.8780  178.0750  148.6800 C   0  0  0  0  0  3  0  0  0  0  0  0
  187.9190  177.4420  146.1310 C   0  0  0  0  0  3  0  0  0  0  0  0
  2 24  1  0  0  0  0
  2 31  1  0  0  0  0
  3 32  1  0  0  0  0
  4 38  1  1  0  0  0
  6 20  1  0  0  0  0
  7 25  2  0  0  0  0
  8 18  1  0  0  0  0
  9  5  1  0  0  0  0
 10  3  1  0  0  0  0
 11 30  2  0  0  0  0
 12 11  1  0  0  0  0
 12 10  2  0  0  0  0
 13 17  1  0  0  0  0
 13 19  2  0  0  0  0
 14 23  1  0  0  0  0
 15 28  1  1  0  0  0
 15  4  1  0  0  0  0
 15  5  1  0  0  0  0
 16  7  1  0  0  0  0
 18 21  1  0  0  0  0
 19  4  1  0  0  0  0
 21  6  2  0  0  0  0
 21 17  1  0  0  0  0
 22 11  1  0  0  0  0
 23  9  2  0  0  0  0
 24 26  1  6  0  0  0
 24  8  1  0  0  0  0
 25 27  1  0  0  0  0
 26 22  2  0  0  0  0
 27  6  1  0  0  0  0
 28 23  1  0  0  0  0
 29 14  1  0  0  0  0
 31  7  1  0  0  0  0
 31 18  2  0  0  0  0
 32 29  1  0  0  0  0
 32  1  2  0  0  0  0
 33 12  1  0  0  0  0
 34 33  1  0  0  0  0
 35 34  1  0  0  0  0
 35 36  1  0  0  0  0
 35 37  1  0  0  0  0
 38 39  1  0  0  0  0
 39 40  1  0  0  0  0
 40 41  1  0  0  0  0
 41 44  1  0  0  0  0
 42 45  1  0  0  0  0
 43 46  1  0  0  0  0
 44 43  2  0  0  0  0
 45 46  2  0  0  0  0
 47 42  2  0  0  0  0
 47 44  1  0  0  0  0
M  END
>  <MODEL>
1

>  <REMARK>
 VINA RESULT:      -7.4      0.000      0.000
  Name = 
  8 active torsions:
  status: ('A' for Active; 'I' for Inactive)
    1  A    between atoms: C_3  and  C_6
    2  A    between atoms: C_3  and  C_25
    3  A    between atoms: C_5  and  C_40
    4  A    between atoms: C_10  and  C_33
    5  A    between atoms: C_10  and  C_40
    6  A    between atoms: C_19  and  C_25
    7  A    between atoms: C_23  and  C_46
    8  A    between atoms: C_33  and  C_46
                            x       y       z     vdW  Elec       q    Type
                         _______ _______ _______ _____ _____    ______ ____

>  <TORSDO>
F 8

$$$$
=
 OpenBabel11032420543D

 47 51  0  0  1  0  0  0  0  0999 V2000
  189.0930  178.9280  142.2110 O   0  0  0  0  0  0  0  0  0  0  0  0
  186.2470  174.6810  135.5720 S   0  0  0  0  0  0  0  0  0  0  0  0
  188.8210  176.9040  141.0420 C   0  0  0  0  0  2  0  0  0  0  0  0
  181.7450  178.9050  138.7100 C   0  0  2  0  0  3  0  0  0  0  0  0
  182.5790  177.8900  140.8000 N   0  0  0  0  0  2  0  0  0  0  0  0
  181.4270  174.6490  135.8810 C   0  0  0  0  0  0  0  0  0  0  0  0
  183.9830  173.1130  136.2240 C   0  0  0  0  0  0  0  0  0  0  0  0
  184.6390  177.0660  135.3510 S   0  0  0  0  0  0  0  0  0  0  0  0
  183.7250  178.0620  141.5750 N   0  0  0  0  0  0  0  0  0  0  0  0
  189.9120  176.9150  140.0180 C   0  0  0  0  0  3  0  0  0  0  0  0
  188.4090  176.9050  138.0310 C   0  0  0  0  0  0  0  0  0  0  0  0
  189.7330  176.9510  138.6940 C   0  0  0  0  0  0  0  0  0  0  0  0
  182.0810  178.0890  136.4670 N   0  0  0  0  0  0  0  0  0  0  0  0
  186.0390  178.5190  141.5300 N   0  0  0  0  0  2  0  0  0  0  0  0
  182.8100  178.0270  139.3720 C   0  0  2  0  0  3  0  0  0  0  0  0
  184.8930  172.1960  136.9680 C   0  0  0  0  0  1  0  0  0  0  0  0
  181.8100  176.7710  136.8610 N   0  0  0  0  0  2  0  0  0  0  0  0
  183.7270  175.5620  135.7170 C   0  0  0  0  0  0  0  0  0  0  0  0
  182.0270  179.0670  137.2860 N   0  0  0  0  0  0  0  0  0  0  0  0
  180.1380  174.7500  136.2940 F   0  0  0  0  0  0  0  0  0  0  0  0
  182.2910  175.6400  136.1300 C   0  0  0  0  0  0  0  0  0  0  0  0
  188.3010  177.3380  136.6630 N   0  0  0  0  0  0  0  0  0  0  0  0
  184.7600  178.4240  140.9080 C   0  0  0  0  0  0  0  0  0  0  0  0
  186.0780  176.3710  136.2010 C   0  0  2  0  0  3  0  0  0  0  0  0
  182.7990  172.6740  135.9130 N   0  0  0  0  0  0  0  0  0  0  0  0
  187.2990  177.1560  135.8530 C   0  0  0  0  0  3  0  0  0  0  0  0
  181.8330  173.4260  135.1280 C   0  0  0  0  0  2  0  0  0  0  0  0
  184.5080  178.6730  139.1560 S   0  0  0  0  0  0  0  0  0  0  0  0
  187.2210  178.9160  140.7860 C   0  0  0  0  0  2  0  0  0  0  0  0
  187.3930  176.4930  138.6540 O   0  0  0  0  0  0  0  0  0  0  0  0
  184.4810  174.4450  135.7940 C   0  0  0  0  0  0  0  0  0  0  0  0
  188.4310  178.2990  141.4000 C   0  0  0  0  0  0  0  0  0  0  0  0
  190.9590  177.0240  137.8360 C   0  0  0  0  0  2  0  0  0  0  0  0
  192.1920  176.5590  138.6040 C   0  0  0  0  0  2  0  0  0  0  0  0
  193.0170  175.5790  137.7780 C   0  0  0  0  0  3  0  0  0  0  0  0
  192.1310  174.4170  137.3750 C   0  0  0  0  0  1  0  0  0  0  0  0
  193.5300  176.2730  136.5230 C   0  0  0  0  0  1  0  0  0  0  0  0
  181.6590  180.2790  139.3720 C   0  0  0  0  0  2  0  0  0  0  0  0
  180.3130  180.4680  140.0510 C   0  0  0  0  0  2  0  0  0  0  0  0
  179.6400  181.7340  139.5410 C   0  0  0  0  0  2  0  0  0  0  0  0
  179.2600  181.5940  138.0680 C   0  0  0  0  0  2  0  0  0  0  0  0
  180.5070  185.0120  136.9770 C   0  0  0  0  0  3  0  0  0  0  0  0
  180.3070  182.4180  135.9370 C   0  0  0  0  0  3  0  0  0  0  0  0
  179.8420  182.6890  137.2290 C   0  0  0  0  0  0  0  0  0  0  0  0
  180.9740  184.7420  135.6880 C   0  0  0  0  0  3  0  0  0  0  0  0
  180.8740  183.4440  135.1670 C   0  0  0  0  0  3  0  0  0  0  0  0
  179.9410  183.9870  137.7470 C   0  0  0  0  0  3  0  0  0  0  0  0
  2 31  1  0  0  0  0
  2 24  1  0  0  0  0
  3 32  1  0  0  0  0
  4 15  1  0  0  0  0
  4 38  1  1  0  0  0
  5  9  1  0  0  0  0
  6 21  2  0  0  0  0
  6 20  1  0  0  0  0
  7 16  1  0  0  0  0
  8 18  1  0  0  0  0
  8 24  1  0  0  0  0
 10  3  1  0  0  0  0
 11 30  2  0  0  0  0
 11 12  1  0  0  0  0
 12 10  2  0  0  0  0
 13 17  1  0  0  0  0
 13 19  2  0  0  0  0
 15 28  1  1  0  0  0
 15  5  1  0  0  0  0
 18 31  2  0  0  0  0
 18 21  1  0  0  0  0
 19  4  1  0  0  0  0
 21 17  1  0  0  0  0
 22 11  1  0  0  0  0
 23 14  1  0  0  0  0
 23  9  2  0  0  0  0
 24 26  1  6  0  0  0
 25  7  2  0  0  0  0
 26 22  2  0  0  0  0
 27  6  1  0  0  0  0
 27 25  1  0  0  0  0
 28 23  1  0  0  0  0
 29 32  1  0  0  0  0
 29 14  1  0  0  0  0
 31  7  1  0  0  0  0
 32  1  2  0  0  0  0
 33 34  1  0  0  0  0
 33 12  1  0  0  0  0
 35 34  1  0  0  0  0
 36 35  1  0  0  0  0
 37 35  1  0  0  0  0
 38 39  1  0  0  0  0
 40 39  1  0  0  0  0
 41 40  1  0  0  0  0
 42 47  1  0  0  0  0
 43 44  1  0  0  0  0
 44 47  2  0  0  0  0
 44 41  1  0  0  0  0
 45 42  2  0  0  0  0
 46 45  1  0  0  0  0
 46 43  2  0  0  0  0
M  END
>  <MODEL>
2

>  <REMARK>
 VINA RESULT:      -6.8      3.708      6.444
  Name = 
  8 active torsions:
  status: ('A' for Active; 'I' for Inactive)
    1  A    between atoms: C_3  and  C_6
    2  A    between atoms: C_3  and  C_25
    3  A    between atoms: C_5  and  C_40
    4  A    between atoms: C_10  and  C_33
    5  A    between atoms: C_10  and  C_40
    6  A    between atoms: C_19  and  C_25
    7  A    between atoms: C_23  and  C_46
    8  A    between atoms: C_33  and  C_46
                            x       y       z     vdW  Elec       q    Type
                         _______ _______ _______ _____ _____    ______ ____

>  <TORSDO>
F 8

$$$$
=
 OpenBabel11032420543D

 47 51  0  0  1  0  0  0  0  0999 V2000
  180.0070  174.2160  137.3500 O   0  0  0  0  0  0  0  0  0  0  0  0
  185.5070  179.1100  141.3520 S   0  0  0  0  0  0  0  0  0  0  0  0
  180.9150  175.0610  139.3500 C   0  0  0  0  0  2  0  0  0  0  0  0
  188.0670  174.9320  136.4590 C   0  0  2  0  0  3  0  0  0  0  0  0
  186.6730  173.1930  137.5190 N   0  0  0  0  0  2  0  0  0  0  0  0
  189.8710  177.1440  140.7090 C   0  0  0  0  0  0  0  0  0  0  0  0
  187.5610  177.5960  142.5730 C   0  0  0  0  0  0  0  0  0  0  0  0
  186.7930  178.9390  138.7750 S   0  0  0  0  0  0  0  0  0  0  0  0
  185.3150  172.8800  137.4850 N   0  0  0  0  0  0  0  0  0  0  0  0
  180.2660  176.3970  139.5190 C   0  0  0  0  0  3  0  0  0  0  0  0
  182.3650  177.7320  139.3780 C   0  0  0  0  0  0  0  0  0  0  0  0
  180.8970  177.5760  139.4970 C   0  0  0  0  0  0  0  0  0  0  0  0
  188.6470  177.0850  137.3770 N   0  0  0  0  0  0  0  0  0  0  0  0
  183.1300  173.7600  137.3530 N   0  0  0  0  0  2  0  0  0  0  0  0
  186.9490  174.6180  137.4560 C   0  0  2  0  0  3  0  0  0  0  0  0
  186.5630  177.1470  143.5850 C   0  0  0  0  0  1  0  0  0  0  0  0
  188.9150  176.5220  138.6330 N   0  0  0  0  0  2  0  0  0  0  0  0
  187.6880  178.1660  140.1270 C   0  0  0  0  0  0  0  0  0  0  0  0
  188.2900  176.3740  136.3790 N   0  0  0  0  0  0  0  0  0  0  0  0
  190.9090  176.3180  140.4200 F   0  0  0  0  0  0  0  0  0  0  0  0
  188.8640  177.2870  139.8410 C   0  0  0  0  0  0  0  0  0  0  0  0
  182.8980  179.0060  138.9740 N   0  0  0  0  0  0  0  0  0  0  0  0
  184.5480  173.8900  137.2880 C   0  0  0  0  0  0  0  0  0  0  0  0
  185.2390  178.5920  139.6380 C   0  0  2  0  0  3  0  0  0  0  0  0
  188.8230  177.4410  142.8540 N   0  0  0  0  0  0  0  0  0  0  0  0
  184.1370  179.4010  139.0400 C   0  0  0  0  0  3  0  0  0  0  0  0
  189.9080  177.8970  141.9980 C   0  0  0  0  0  2  0  0  0  0  0  0
  185.3730  175.4590  137.0570 S   0  0  0  0  0  0  0  0  0  0  0  0
  182.2500  174.8960  137.1440 C   0  0  0  0  0  2  0  0  0  0  0  0
  183.1360  176.7650  139.6280 O   0  0  0  0  0  0  0  0  0  0  0  0
  187.0940  178.2720  141.3350 C   0  0  0  0  0  0  0  0  0  0  0  0
  180.9840  174.6960  137.9040 C   0  0  0  0  0  0  0  0  0  0  0  0
  180.0550  178.8090  139.6180 C   0  0  0  0  0  2  0  0  0  0  0  0
  179.4970  179.2270  138.2610 C   0  0  0  0  0  2  0  0  0  0  0  0
  179.2720  180.7330  138.1990 C   0  0  0  0  0  3  0  0  0  0  0  0
  179.5660  181.3250  139.5630 C   0  0  0  0  0  1  0  0  0  0  0  0
  180.2150  181.3490  137.1750 C   0  0  0  0  0  1  0  0  0  0  0  0
  187.7480  174.3880  135.0680 C   0  0  0  0  0  2  0  0  0  0  0  0
  188.8410  173.4450  134.5930 C   0  0  0  0  0  2  0  0  0  0  0  0
  189.7280  173.0390  135.7610 C   0  0  0  0  0  2  0  0  0  0  0  0
  191.1810  172.8860  135.3150 C   0  0  0  0  0  2  0  0  0  0  0  0
  192.5370  175.6560  137.5320 C   0  0  0  0  0  3  0  0  0  0  0  0
  193.4250  173.2600  136.3830 C   0  0  0  0  0  3  0  0  0  0  0  0
  192.1170  173.7000  136.1530 C   0  0  0  0  0  0  0  0  0  0  0  0
  193.8430  175.2150  137.7650 C   0  0  0  0  0  3  0  0  0  0  0  0
  194.2880  174.0160  137.1900 C   0  0  0  0  0  3  0  0  0  0  0  0
  191.6750  174.9000  136.7270 C   0  0  0  0  0  3  0  0  0  0  0  0
  1 32  2  0  0  0  0
  3 10  1  0  0  0  0
  4 38  1  6  0  0  0
  4 15  1  0  0  0  0
  6 27  1  0  0  0  0
  7 25  2  0  0  0  0
  7 16  1  0  0  0  0
  8 24  1  0  0  0  0
  8 18  1  0  0  0  0
  9  5  1  0  0  0  0
 11 12  1  0  0  0  0
 11 30  2  0  0  0  0
 12 10  2  0  0  0  0
 12 33  1  0  0  0  0
 13 17  1  0  0  0  0
 15 28  1  6  0  0  0
 15  5  1  0  0  0  0
 17 21  1  0  0  0  0
 18 31  2  0  0  0  0
 19  4  1  0  0  0  0
 19 13  2  0  0  0  0
 20  6  1  0  0  0  0
 21 18  1  0  0  0  0
 21  6  2  0  0  0  0
 22 26  2  0  0  0  0
 22 11  1  0  0  0  0
 23 14  1  0  0  0  0
 23  9  2  0  0  0  0
 24 26  1  6  0  0  0
 24  2  1  0  0  0  0
 27 25  1  0  0  0  0
 28 23  1  0  0  0  0
 29 14  1  0  0  0  0
 29 32  1  0  0  0  0
 31  2  1  0  0  0  0
 31  7  1  0  0  0  0
 32  3  1  0  0  0  0
 34 33  1  0  0  0  0
 35 34  1  0  0  0  0
 35 36  1  0  0  0  0
 37 35  1  0  0  0  0
 39 38  1  0  0  0  0
 39 40  1  0  0  0  0
 41 40  1  0  0  0  0
 41 44  1  0  0  0  0
 42 45  1  0  0  0  0
 43 46  1  0  0  0  0
 44 43  2  0  0  0  0
 44 47  1  0  0  0  0
 46 45  2  0  0  0  0
 47 42  2  0  0  0  0
M  END
>  <MODEL>
3

>  <REMARK>
 VINA RESULT:      -6.3      3.285      9.565
  Name = 
  8 active torsions:
  status: ('A' for Active; 'I' for Inactive)
    1  A    between atoms: C_3  and  C_6
    2  A    between atoms: C_3  and  C_25
    3  A    between atoms: C_5  and  C_40
    4  A    between atoms: C_10  and  C_33
    5  A    between atoms: C_10  and  C_40
    6  A    between atoms: C_19  and  C_25
    7  A    between atoms: C_23  and  C_46
    8  A    between atoms: C_33  and  C_46
                            x       y       z     vdW  Elec       q    Type
                         _______ _______ _______ _____ _____    ______ ____

>  <TORSDO>
F 8

$$$$
=
 OpenBabel11032420543D

 47 51  0  0  1  0  0  0  0  0999 V2000
  189.7810  176.8640  139.5490 O   0  0  0  0  0  0  0  0  0  0  0  0
  182.1280  180.1960  140.2890 S   0  0  0  0  0  0  0  0  0  0  0  0
  188.3860  178.7380  139.8370 C   0  0  0  0  0  2  0  0  0  0  0  0
  183.1310  175.8940  134.9560 C   0  0  2  0  0  3  0  0  0  0  0  0
  185.2120  177.1710  134.5960 N   0  0  0  0  0  2  0  0  0  0  0  0
  180.0040  179.8190  135.9680 C   0  0  0  0  0  0  0  0  0  0  0  0
  181.3700  181.6060  137.9560 C   0  0  0  0  0  0  0  0  0  0  0  0
  181.4440  177.6650  139.0860 S   0  0  0  0  0  0  0  0  0  0  0  0
  186.4680  177.1770  135.2020 N   0  0  0  0  0  0  0  0  0  0  0  0
  188.0470  178.7300  141.2940 C   0  0  0  0  0  3  0  0  0  0  0  0
  185.5930  178.4170  140.9930 C   0  0  0  0  0  0  0  0  0  0  0  0
  186.8240  178.5540  141.8060 C   0  0  0  0  0  0  0  0  0  0  0  0
  181.2660  176.5220  136.3480 N   0  0  0  0  0  0  0  0  0  0  0  0
  187.6330  176.9300  137.2390 N   0  0  0  0  0  2  0  0  0  0  0  0
  184.1170  176.9220  135.5170 C   0  0  2  0  0  3  0  0  0  0  0  0
  182.3440  182.6680  138.3390 C   0  0  0  0  0  1  0  0  0  0  0  0
  181.3050  177.8420  135.8740 N   0  0  0  0  0  2  0  0  0  0  0  0
  181.1170  179.1070  138.0660 C   0  0  0  0  0  0  0  0  0  0  0  0
  182.0680  175.6250  135.9210 N   0  0  0  0  0  0  0  0  0  0  0  0
  179.7330  179.6410  134.6500 F   0  0  0  0  0  0  0  0  0  0  0  0
  180.7700  178.9390  136.6210 C   0  0  0  0  0  0  0  0  0  0  0  0
  184.4190  177.8500  141.6010 N   0  0  0  0  0  0  0  0  0  0  0  0
  186.4530  176.8500  136.4430 C   0  0  0  0  0  0  0  0  0  0  0  0
  182.7990  178.5640  139.8810 C   0  0  2  0  0  3  0  0  0  0  0  0
  180.4610  181.9050  137.0750 N   0  0  0  0  0  0  0  0  0  0  0  0
  183.2030  177.8640  141.1360 C   0  0  0  0  0  3  0  0  0  0  0  0
  179.4020  180.9980  136.6580 C   0  0  0  0  0  2  0  0  0  0  0  0
  184.8530  176.4160  137.1140 S   0  0  0  0  0  0  0  0  0  0  0  0
  187.6280  176.5730  138.6470 C   0  0  0  0  0  2  0  0  0  0  0  0
  185.5740  178.7920  139.7890 O   0  0  0  0  0  0  0  0  0  0  0  0
  181.4140  180.2900  138.6440 C   0  0  0  0  0  0  0  0  0  0  0  0
  188.6770  177.3520  139.3640 C   0  0  0  0  0  0  0  0  0  0  0  0
  186.7030  178.5120  143.2980 C   0  0  0  0  0  2  0  0  0  0  0  0
  187.0760  177.1350  143.8390 C   0  0  0  0  0  2  0  0  0  0  0  0
  187.6700  177.2380  145.2390 C   0  0  0  0  0  3  0  0  0  0  0  0
  189.0370  177.8870  145.1420 C   0  0  0  0  0  1  0  0  0  0  0  0
  186.7710  178.1010  146.1140 C   0  0  0  0  0  1  0  0  0  0  0  0
  183.8320  174.5850  134.5940 C   0  0  0  0  0  2  0  0  0  0  0  0
  183.1350  173.4020  135.2440 C   0  0  0  0  0  2  0  0  0  0  0  0
  183.8340  172.1060  134.8640 C   0  0  0  0  0  2  0  0  0  0  0  0
  184.5590  171.5040  136.0660 C   0  0  0  0  0  2  0  0  0  0  0  0
  188.2810  171.4980  135.3100 C   0  0  0  0  0  3  0  0  0  0  0  0
  186.4570  172.9410  136.8730 C   0  0  0  0  0  3  0  0  0  0  0  0
  186.0100  171.8690  136.0910 C   0  0  0  0  0  0  0  0  0  0  0  0
  188.7270  172.5700  136.0890 C   0  0  0  0  0  3  0  0  0  0  0  0
  187.8140  173.2920  136.8710 C   0  0  0  0  0  3  0  0  0  0  0  0
  186.9250  171.1480  135.3120 C   0  0  0  0  0  3  0  0  0  0  0  0
  3 10  1  0  0  0  0
  4 38  1  1  0  0  0
  4 15  1  0  0  0  0
  4 19  1  0  0  0  0
  5  9  1  0  0  0  0
  6 21  2  0  0  0  0
  6 27  1  0  0  0  0
  7 16  1  0  0  0  0
  7 31  1  0  0  0  0
  8 24  1  0  0  0  0
  9 23  2  0  0  0  0
 10 12  2  0  0  0  0
 11 22  1  0  0  0  0
 11 12  1  0  0  0  0
 12 33  1  0  0  0  0
 14 29  1  0  0  0  0
 15  5  1  6  0  0  0
 15 28  1  0  0  0  0
 17 13  1  0  0  0  0
 17 21  1  0  0  0  0
 18 31  2  0  0  0  0
 18  8  1  0  0  0  0
 19 13  2  0  0  0  0
 20  6  1  0  0  0  0
 21 18  1  0  0  0  0
 23 28  1  0  0  0  0
 23 14  1  0  0  0  0
 24  2  1  0  0  0  0
 24 26  1  1  0  0  0
 25  7  2  0  0  0  0
 26 22  2  0  0  0  0
 27 25  1  0  0  0  0
 29 32  1  0  0  0  0
 30 11  2  0  0  0  0
 31  2  1  0  0  0  0
 32  1  2  0  0  0  0
 32  3  1  0  0  0  0
 33 34  1  0  0  0  0
 34 35  1  0  0  0  0
 35 37  1  0  0  0  0
 36 35  1  0  0  0  0
 38 39  1  0  0  0  0
 40 39  1  0  0  0  0
 40 41  1  0  0  0  0
 41 44  1  0  0  0  0
 42 47  2  0  0  0  0
 42 45  1  0  0  0  0
 44 43  2  0  0  0  0
 45 46  2  0  0  0  0
 46 43  1  0  0  0  0
 47 44  1  0  0  0  0
M  END
>  <MODEL>
4

>  <REMARK>
 VINA RESULT:      -6.2      3.246      8.315
  Name = 
  8 active torsions:
  status: ('A' for Active; 'I' for Inactive)
    1  A    between atoms: C_3  and  C_6
    2  A    between atoms: C_3  and  C_25
    3  A    between atoms: C_5  and  C_40
    4  A    between atoms: C_10  and  C_33
    5  A    between atoms: C_10  and  C_40
    6  A    between atoms: C_19  and  C_25
    7  A    between atoms: C_23  and  C_46
    8  A    between atoms: C_33  and  C_46
                            x       y       z     vdW  Elec       q    Type
                         _______ _______ _______ _____ _____    ______ ____

>  <TORSDO>
F 8

$$$$
=
 OpenBabel11032420543D

 47 51  0  0  1  0  0  0  0  0999 V2000
  189.9850  178.4280  140.1690 O   0  0  0  0  0  0  0  0  0  0  0  0
  185.1790  173.8860  135.0240 S   0  0  0  0  0  0  0  0  0  0  0  0
  189.2040  176.3410  139.4120 C   0  0  0  0  0  2  0  0  0  0  0  0
  182.0780  179.1040  138.3580 C   0  0  2  0  0  3  0  0  0  0  0  0
  183.2440  178.2370  140.3530 N   0  0  0  0  0  2  0  0  0  0  0  0
  180.5960  174.6320  136.3510 C   0  0  0  0  0  0  0  0  0  0  0  0
  182.9550  172.7760  136.3760 C   0  0  0  0  0  0  0  0  0  0  0  0
  183.8670  176.4440  134.7840 S   0  0  0  0  0  0  0  0  0  0  0  0
  184.5510  178.3250  140.8310 N   0  0  0  0  0  0  0  0  0  0  0  0
  190.0200  176.0590  138.1910 C   0  0  0  0  0  3  0  0  0  0  0  0
  188.1080  176.0360  136.5940 C   0  0  0  0  0  0  0  0  0  0  0  0
  189.5450  175.9590  136.9450 C   0  0  0  0  0  0  0  0  0  0  0  0
  181.7830  177.9770  136.2470 N   0  0  0  0  0  0  0  0  0  0  0  0
  186.8300  178.4120  140.2250 N   0  0  0  0  0  2  0  0  0  0  0  0
  183.1530  178.1610  138.9050 C   0  0  2  0  0  3  0  0  0  0  0  0
  183.8930  171.8280  137.0420 C   0  0  0  0  0  1  0  0  0  0  0  0
  181.4520  176.7740  136.8880 N   0  0  0  0  0  2  0  0  0  0  0  0
  182.8880  175.1550  135.5640 C   0  0  0  0  0  0  0  0  0  0  0  0
  182.0400  179.0440  136.8980 N   0  0  0  0  0  0  0  0  0  0  0  0
  179.4590  174.9800  137.0080 F   0  0  0  0  0  0  0  0  0  0  0  0
  181.6080  175.5020  136.2550 C   0  0  0  0  0  0  0  0  0  0  0  0
  187.7390  176.3090  135.2300 N   0  0  0  0  0  0  0  0  0  0  0  0
  185.4390  178.4390  139.9120 C   0  0  0  0  0  0  0  0  0  0  0  0
  185.3680  175.6450  135.4060 C   0  0  2  0  0  3  0  0  0  0  0  0
  181.6860  172.4890  136.3950 N   0  0  0  0  0  0  0  0  0  0  0  0
  186.5610  176.1850  134.6890 C   0  0  0  0  0  3  0  0  0  0  0  0
  180.6630  173.2780  135.7270 C   0  0  0  0  0  2  0  0  0  0  0  0
  184.8200  178.5070  138.2360 S   0  0  0  0  0  0  0  0  0  0  0  0
  187.8460  178.5290  139.1950 C   0  0  0  0  0  2  0  0  0  0  0  0
  187.2210  175.8650  137.4750 O   0  0  0  0  0  0  0  0  0  0  0  0
  183.4970  173.9530  135.6490 C   0  0  0  0  0  0  0  0  0  0  0  0
  189.0810  177.8140  139.6250 C   0  0  0  0  0  0  0  0  0  0  0  0
  190.5380  175.7370  135.8450 C   0  0  0  0  0  2  0  0  0  0  0  0
  191.1940  174.3660  135.9700 C   0  0  0  0  0  2  0  0  0  0  0  0
  192.7130  174.4850  136.0050 C   0  0  0  0  0  3  0  0  0  0  0  0
  193.0950  175.9270  135.7340 C   0  0  0  0  0  1  0  0  0  0  0  0
  193.2250  174.0850  137.3820 C   0  0  0  0  0  1  0  0  0  0  0  0
  182.3170  180.5450  138.8030 C   0  0  0  0  0  2  0  0  0  0  0  0
  181.0270  181.1780  139.2980 C   0  0  0  0  0  2  0  0  0  0  0  0
  179.8460  180.6670  138.4870 C   0  0  0  0  0  2  0  0  0  0  0  0
  178.9310  181.8180  138.0730 C   0  0  0  0  0  2  0  0  0  0  0  0
  180.8250  183.3440  135.1560 C   0  0  0  0  0  3  0  0  0  0  0  0
  179.7290  184.1550  137.6040 C   0  0  0  0  0  3  0  0  0  0  0  0
  179.6350  182.8160  137.2080 C   0  0  0  0  0  0  0  0  0  0  0  0
  180.9170  184.6820  135.5510 C   0  0  0  0  0  3  0  0  0  0  0  0
  180.3690  185.0880  136.7760 C   0  0  0  0  0  3  0  0  0  0  0  0
  180.1850  182.4120  135.9840 C   0  0  0  0  0  3  0  0  0  0  0  0
  2 24  1  0  0  0  0
  2 31  1  0  0  0  0
  3 32  1  0  0  0  0
  4 38  1  6  0  0  0
  4 15  1  0  0  0  0
  5  9  1  0  0  0  0
  6 20  1  0  0  0  0
  7 25  2  0  0  0  0
  7 16  1  0  0  0  0
  8 24  1  0  0  0  0
  8 18  1  0  0  0  0
 10  3  1  0  0  0  0
 11 12  1  0  0  0  0
 11 30  2  0  0  0  0
 12 10  2  0  0  0  0
 13 17  1  0  0  0  0
 13 19  2  0  0  0  0
 15 28  1  6  0  0  0
 15  5  1  0  0  0  0
 18 31  2  0  0  0  0
 18 21  1  0  0  0  0
 19  4  1  0  0  0  0
 21  6  2  0  0  0  0
 21 17  1  0  0  0  0
 22 11  1  0  0  0  0
 23 14  1  0  0  0  0
 23  9  2  0  0  0  0
 24 26  1  6  0  0  0
 26 22  2  0  0  0  0
 27  6  1  0  0  0  0
 27 25  1  0  0  0  0
 28 23  1  0  0  0  0
 29 32  1  0  0  0  0
 29 14  1  0  0  0  0
 31  7  1  0  0  0  0
 32  1  2  0  0  0  0
 33 34  1  0  0  0  0
 33 12  1  0  0  0  0
 34 35  1  0  0  0  0
 35 37  1  0  0  0  0
 36 35  1  0  0  0  0
 38 39  1  0  0  0  0
 40 39  1  0  0  0  0
 41 40  1  0  0  0  0
 42 45  2  0  0  0  0
 42 47  1  0  0  0  0
 44 43  1  0  0  0  0
 44 41  1  0  0  0  0
 45 46  1  0  0  0  0
 46 43  2  0  0  0  0
 47 44  2  0  0  0  0
M  END
>  <MODEL>
5

>  <REMARK>
 VINA RESULT:      -6.0      3.796      6.439
  Name = 
  8 active torsions:
  status: ('A' for Active; 'I' for Inactive)
    1  A    between atoms: C_3  and  C_6
    2  A    between atoms: C_3  and  C_25
    3  A    between atoms: C_5  and  C_40
    4  A    between atoms: C_10  and  C_33
    5  A    between atoms: C_10  and  C_40
    6  A    between atoms: C_19  and  C_25
    7  A    between atoms: C_23  and  C_46
    8  A    between atoms: C_33  and  C_46
                            x       y       z     vdW  Elec       q    Type
                         _______ _______ _______ _____ _____    ______ ____

>  <TORSDO>
F 8

$$$$
=
 OpenBabel11032420543D

 47 51  0  0  1  0  0  0  0  0999 V2000
  185.7920  179.0230  144.9930 O   0  0  0  0  0  0  0  0  0  0  0  0
  188.3940  175.9160  137.6590 S   0  0  0  0  0  0  0  0  0  0  0  0
  186.7790  177.2920  143.7410 C   0  0  0  0  0  2  0  0  0  0  0  0
  181.9610  178.4740  137.8320 C   0  0  2  0  0  3  0  0  0  0  0  0
  181.7360  177.1850  139.9250 N   0  0  0  0  0  2  0  0  0  0  0  0
  184.4430  174.9640  135.0510 C   0  0  0  0  0  0  0  0  0  0  0  0
  186.6820  173.8670  136.7230 C   0  0  0  0  0  0  0  0  0  0  0  0
  186.6010  177.9670  136.7110 S   0  0  0  0  0  0  0  0  0  0  0  0
  182.1610  177.3820  141.2380 N   0  0  0  0  0  0  0  0  0  0  0  0
  188.2000  177.7220  143.5660 C   0  0  0  0  0  3  0  0  0  0  0  0
  188.1240  177.8870  141.0810 C   0  0  0  0  0  0  0  0  0  0  0  0
  188.7840  178.0190  142.4000 C   0  0  0  0  0  0  0  0  0  0  0  0
  183.6930  178.2490  136.1690 N   0  0  0  0  0  0  0  0  0  0  0  0
  183.8800  178.2400  142.6080 N   0  0  0  0  0  2  0  0  0  0  0  0
  182.6720  177.6740  138.9270 C   0  0  2  0  0  3  0  0  0  0  0  0
  187.2350  172.9840  137.7890 C   0  0  0  0  0  1  0  0  0  0  0  0
  183.6210  176.8490  136.2250 N   0  0  0  0  0  2  0  0  0  0  0  0
  186.0920  176.2830  136.3500 C   0  0  0  0  0  0  0  0  0  0  0  0
  182.9290  178.9950  136.8690 N   0  0  0  0  0  0  0  0  0  0  0  0
  183.1730  174.7400  134.6260 F   0  0  0  0  0  0  0  0  0  0  0  0
  184.7140  176.0110  135.8370 C   0  0  0  0  0  0  0  0  0  0  0  0
  188.6790  178.5860  139.9530 N   0  0  0  0  0  0  0  0  0  0  0  0
  183.2450  178.0600  141.3440 C   0  0  0  0  0  0  0  0  0  0  0  0
  187.4510  177.3670  138.1920 C   0  0  2  0  0  3  0  0  0  0  0  0
  186.0430  173.3050  135.7390 N   0  0  0  0  0  0  0  0  0  0  0  0
  188.3900  178.4130  138.6950 C   0  0  0  0  0  3  0  0  0  0  0  0
  185.5130  174.0290  134.5940 C   0  0  0  0  0  2  0  0  0  0  0  0
  183.9510  178.6430  139.8080 S   0  0  0  0  0  0  0  0  0  0  0  0
  185.1130  178.9950  142.7410 C   0  0  0  0  0  2  0  0  0  0  0  0
  187.0910  177.1740  140.9480 O   0  0  0  0  0  0  0  0  0  0  0  0
  186.9470  175.3280  136.7730 C   0  0  0  0  0  0  0  0  0  0  0  0
  185.8920  178.4820  143.9030 C   0  0  0  0  0  0  0  0  0  0  0  0
  190.2040  178.4960  142.4440 C   0  0  0  0  0  2  0  0  0  0  0  0
  190.6500  178.7540  143.8800 C   0  0  0  0  0  2  0  0  0  0  0  0
  191.6240  177.6820  144.3540 C   0  0  0  0  0  3  0  0  0  0  0  0
  191.1270  177.1220  145.6720 C   0  0  0  0  0  1  0  0  0  0  0  0
  191.6870  176.5590  143.3270 C   0  0  0  0  0  1  0  0  0  0  0  0
  181.1520  179.6300  138.4170 C   0  0  0  0  0  2  0  0  0  0  0  0
  179.6760  179.4760  138.0880 C   0  0  0  0  0  2  0  0  0  0  0  0
  179.1780  180.6930  137.3240 C   0  0  0  0  0  2  0  0  0  0  0  0
  180.1740  181.1030  136.2410 C   0  0  0  0  0  2  0  0  0  0  0  0
  180.6030  184.6590  134.9770 C   0  0  0  0  0  3  0  0  0  0  0  0
  180.6170  183.2800  137.4160 C   0  0  0  0  0  3  0  0  0  0  0  0
  180.4110  182.5810  136.2210 C   0  0  0  0  0  0  0  0  0  0  0  0
  180.8060  185.3580  136.1710 C   0  0  0  0  0  3  0  0  0  0  0  0
  180.8130  184.6680  137.3910 C   0  0  0  0  0  3  0  0  0  0  0  0
  180.4060  183.2720  135.0030 C   0  0  0  0  0  3  0  0  0  0  0  0
  2 24  1  0  0  0  0
  3 32  1  0  0  0  0
  4 38  1  1  0  0  0
  4 15  1  0  0  0  0
  5  9  1  0  0  0  0
  6 21  2  0  0  0  0
  7 31  1  0  0  0  0
  7 16  1  0  0  0  0
  8 24  1  0  0  0  0
  9 23  2  0  0  0  0
 10  3  1  0  0  0  0
 11 12  1  0  0  0  0
 12 33  1  0  0  0  0
 12 10  2  0  0  0  0
 13 17  1  0  0  0  0
 13 19  2  0  0  0  0
 14 29  1  0  0  0  0
 15 28  1  1  0  0  0
 15  5  1  0  0  0  0
 18  8  1  0  0  0  0
 18 31  2  0  0  0  0
 19  4  1  0  0  0  0
 20  6  1  0  0  0  0
 21 17  1  0  0  0  0
 21 18  1  0  0  0  0
 22 11  1  0  0  0  0
 23 14  1  0  0  0  0
 24 26  1  6  0  0  0
 25  7  2  0  0  0  0
 26 22  2  0  0  0  0
 27  6  1  0  0  0  0
 27 25  1  0  0  0  0
 28 23  1  0  0  0  0
 29 32  1  0  0  0  0
 30 11  2  0  0  0  0
 31  2  1  0  0  0  0
 32  1  2  0  0  0  0
 33 34  1  0  0  0  0
 34 35  1  0  0  0  0
 35 36  1  0  0  0  0
 37 35  1  0  0  0  0
 39 38  1  0  0  0  0
 40 39  1  0  0  0  0
 41 40  1  0  0  0  0
 42 47  2  0  0  0  0
 42 45  1  0  0  0  0
 44 41  1  0  0  0  0
 44 43  2  0  0  0  0
 45 46  2  0  0  0  0
 46 43  1  0  0  0  0
 47 44  1  0  0  0  0
M  END
>  <MODEL>
6

>  <REMARK>
 VINA RESULT:      -5.6      4.136      7.765
  Name = 
  8 active torsions:
  status: ('A' for Active; 'I' for Inactive)
    1  A    between atoms: C_3  and  C_6
    2  A    between atoms: C_3  and  C_25
    3  A    between atoms: C_5  and  C_40
    4  A    between atoms: C_10  and  C_33
    5  A    between atoms: C_10  and  C_40
    6  A    between atoms: C_19  and  C_25
    7  A    between atoms: C_23  and  C_46
    8  A    between atoms: C_33  and  C_46
                            x       y       z     vdW  Elec       q    Type
                         _______ _______ _______ _____ _____    ______ ____

>  <TORSDO>
F 8

$$$$
=
 OpenBabel11032420543D

 47 51  0  0  1  0  0  0  0  0999 V2000
  182.4850  173.2700  135.6840 O   0  0  0  0  0  0  0  0  0  0  0  0
  186.3730  178.7020  140.7430 S   0  0  0  0  0  0  0  0  0  0  0  0
  182.8370  174.1750  137.8280 C   0  0  0  0  0  2  0  0  0  0  0  0
  190.4020  174.9630  136.5310 C   0  0  2  0  0  3  0  0  0  0  0  0
  189.0360  173.0470  137.2780 N   0  0  0  0  0  2  0  0  0  0  0  0
  190.9790  177.2860  141.0570 C   0  0  0  0  0  0  0  0  0  0  0  0
  188.2890  177.4190  142.3830 C   0  0  0  0  0  0  0  0  0  0  0  0
  188.1880  178.7390  138.5010 S   0  0  0  0  0  0  0  0  0  0  0  0
  187.7640  172.5750  136.9560 N   0  0  0  0  0  0  0  0  0  0  0  0
  182.0100  175.4210  137.8470 C   0  0  0  0  0  3  0  0  0  0  0  0
  183.9130  176.9990  138.1510 C   0  0  0  0  0  0  0  0  0  0  0  0
  182.4830  176.6670  137.9540 C   0  0  0  0  0  0  0  0  0  0  0  0
  190.5080  177.1490  137.5410 N   0  0  0  0  0  0  0  0  0  0  0  0
  185.5670  173.1900  136.3560 N   0  0  0  0  0  2  0  0  0  0  0  0
  189.1440  174.4960  137.2680 C   0  0  2  0  0  3  0  0  0  0  0  0
  187.1600  176.8330  143.1610 C   0  0  0  0  0  1  0  0  0  0  0  0
  190.5700  176.5970  138.8280 N   0  0  0  0  0  2  0  0  0  0  0  0
  188.8620  178.0500  140.0170 C   0  0  0  0  0  0  0  0  0  0  0  0
  190.4610  176.4220  136.4930 N   0  0  0  0  0  0  0  0  0  0  0  0
  192.1470  176.5960  141.0000 F   0  0  0  0  0  0  0  0  0  0  0  0
  190.1700  177.3250  139.9930 C   0  0  0  0  0  0  0  0  0  0  0  0
  184.3620  178.3360  137.8630 N   0  0  0  0  0  0  0  0  0  0  0  0
  186.9400  173.4900  136.5950 C   0  0  0  0  0  0  0  0  0  0  0  0
  186.5410  178.1910  139.0140 C   0  0  2  0  0  3  0  0  0  0  0  0
  189.4710  177.4100  142.9270 N   0  0  0  0  0  0  0  0  0  0  0  0
  185.5010  178.8750  138.1900 C   0  0  0  0  0  3  0  0  0  0  0  0
  190.6500  178.0100  142.3200 C   0  0  0  0  0  2  0  0  0  0  0  0
  187.5990  175.1510  136.5370 S   0  0  0  0  0  0  0  0  0  0  0  0
  184.6210  174.2170  135.9580 C   0  0  0  0  0  2  0  0  0  0  0  0
  184.7250  176.1260  138.5640 O   0  0  0  0  0  0  0  0  0  0  0  0
  188.0170  178.0600  141.0700 C   0  0  0  0  0  0  0  0  0  0  0  0
  183.2560  173.8520  136.4320 C   0  0  0  0  0  0  0  0  0  0  0  0
  181.4920  177.7870  137.8860 C   0  0  0  0  0  2  0  0  0  0  0  0
  180.3410  177.5600  138.8620 C   0  0  0  0  0  2  0  0  0  0  0  0
  180.2290  178.7080  139.8570 C   0  0  0  0  0  3  0  0  0  0  0  0
  179.4010  178.2480  141.0410 C   0  0  0  0  0  1  0  0  0  0  0  0
  181.6180  179.1000  140.3440 C   0  0  0  0  0  1  0  0  0  0  0  0
  190.4540  174.4130  135.1070 C   0  0  0  0  0  2  0  0  0  0  0  0
  191.7650  173.6860  134.8570 C   0  0  0  0  0  2  0  0  0  0  0  0
  192.6770  173.8170  136.0670 C   0  0  0  0  0  2  0  0  0  0  0  0
  193.8800  174.7040  135.7490 C   0  0  0  0  0  2  0  0  0  0  0  0
  197.3510  174.6170  137.2890 C   0  0  0  0  0  3  0  0  0  0  0  0
  194.6950  174.1880  138.0700 C   0  0  0  0  0  3  0  0  0  0  0  0
  194.9840  174.5370  136.7460 C   0  0  0  0  0  0  0  0  0  0  0  0
  197.0620  174.2720  138.6120 C   0  0  0  0  0  3  0  0  0  0  0  0
  195.7330  174.0570  139.0030 C   0  0  0  0  0  3  0  0  0  0  0  0
  196.3140  174.7480  136.3570 C   0  0  0  0  0  3  0  0  0  0  0  0
  1 32  2  0  0  0  0
  2 31  1  0  0  0  0
  3 10  1  0  0  0  0
  4 38  1  6  0  0  0
  4 15  1  0  0  0  0
  6 27  1  0  0  0  0
  7 25  2  0  0  0  0
  7 16  1  0  0  0  0
  8 24  1  0  0  0  0
  8 18  1  0  0  0  0
  9  5  1  0  0  0  0
 10 12  2  0  0  0  0
 11 30  2  0  0  0  0
 12 11  1  0  0  0  0
 13 17  1  0  0  0  0
 14 23  1  0  0  0  0
 15 28  1  6  0  0  0
 15  5  1  0  0  0  0
 17 21  1  0  0  0  0
 18 31  2  0  0  0  0
 19  4  1  0  0  0  0
 19 13  2  0  0  0  0
 20  6  1  0  0  0  0
 21 18  1  0  0  0  0
 21  6  2  0  0  0  0
 22 11  1  0  0  0  0
 22 26  2  0  0  0  0
 23  9  2  0  0  0  0
 24 26  1  6  0  0  0
 24  2  1  0  0  0  0
 27 25  1  0  0  0  0
 28 23  1  0  0  0  0
 29 14  1  0  0  0  0
 29 32  1  0  0  0  0
 31  7  1  0  0  0  0
 32  3  1  0  0  0  0
 33 12  1  0  0  0  0
 33 34  1  0  0  0  0
 34 35  1  0  0  0  0
 35 37  1  0  0  0  0
 35 36  1  0  0  0  0
 39 38  1  0  0  0  0
 39 40  1  0  0  0  0
 41 40  1  0  0  0  0
 41 44  1  0  0  0  0
 42 45  1  0  0  0  0
 43 46  1  0  0  0  0
 44 43  2  0  0  0  0
 45 46  2  0  0  0  0
 47 44  1  0  0  0  0
 47 42  2  0  0  0  0
M  END
>  <MODEL>
7

>  <REMARK>
 VINA RESULT:      -5.3      3.468      9.617
  Name = 
  8 active torsions:
  status: ('A' for Active; 'I' for Inactive)
    1  A    between atoms: C_3  and  C_6
    2  A    between atoms: C_3  and  C_25
    3  A    between atoms: C_5  and  C_40
    4  A    between atoms: C_10  and  C_33
    5  A    between atoms: C_10  and  C_40
    6  A    between atoms: C_19  and  C_25
    7  A    between atoms: C_23  and  C_46
    8  A    between atoms: C_33  and  C_46
                            x       y       z     vdW  Elec       q    Type
                         _______ _______ _______ _____ _____    ______ ____

>  <TORSDO>
F 8

$$$$
=
 OpenBabel11032420543D

 47 51  0  0  1  0  0  0  0  0999 V2000
  194.9760  176.7990  140.2000 O   0  0  0  0  0  0  0  0  0  0  0  0
  189.1630  174.3180  134.6970 S   0  0  0  0  0  0  0  0  0  0  0  0
  193.9450  175.0970  138.9410 C   0  0  0  0  0  2  0  0  0  0  0  0
  186.9600  178.2010  139.9910 C   0  0  2  0  0  3  0  0  0  0  0  0
  188.3350  176.6980  141.3850 N   0  0  0  0  0  2  0  0  0  0  0  0
  184.8850  174.6790  136.9080 C   0  0  0  0  0  0  0  0  0  0  0  0
  187.0820  172.8700  135.9530 C   0  0  0  0  0  0  0  0  0  0  0  0
  188.0190  176.8380  135.5120 S   0  0  0  0  0  0  0  0  0  0  0  0
  189.7000  176.5950  141.6500 N   0  0  0  0  0  0  0  0  0  0  0  0
  194.5540  175.2180  137.5810 C   0  0  0  0  0  3  0  0  0  0  0  0
  192.4350  175.7660  136.3900 C   0  0  0  0  0  0  0  0  0  0  0  0
  193.8980  175.5470  136.4630 C   0  0  0  0  0  0  0  0  0  0  0  0
  186.2830  177.8440  137.7050 N   0  0  0  0  0  0  0  0  0  0  0  0
  191.8680  176.8310  140.7500 N   0  0  0  0  0  2  0  0  0  0  0  0
  188.0310  177.1080  140.0250 C   0  0  2  0  0  3  0  0  0  0  0  0
  188.0350  171.7360  136.1180 C   0  0  0  0  0  1  0  0  0  0  0  0
  185.9620  176.5040  137.9670 N   0  0  0  0  0  2  0  0  0  0  0  0
  187.0720  175.3850  135.9770 C   0  0  0  0  0  0  0  0  0  0  0  0
  186.7080  178.6290  138.6170 N   0  0  0  0  0  0  0  0  0  0  0  0
  183.8830  174.8130  137.8150 F   0  0  0  0  0  0  0  0  0  0  0  0
  185.9330  175.5100  136.9380 C   0  0  0  0  0  0  0  0  0  0  0  0
  191.8950  176.4830  135.2650 N   0  0  0  0  0  0  0  0  0  0  0  0
  190.4530  176.9890  140.6880 C   0  0  0  0  0  0  0  0  0  0  0  0
  189.5320  175.8480  135.5930 C   0  0  2  0  0  3  0  0  0  0  0  0
  185.8120  172.6190  136.0810 N   0  0  0  0  0  0  0  0  0  0  0  0
  190.6460  176.5690  134.9090 C   0  0  0  0  0  3  0  0  0  0  0  0
  184.7630  173.6070  135.8770 C   0  0  0  0  0  2  0  0  0  0  0  0
  189.6060  177.6210  139.2460 S   0  0  0  0  0  0  0  0  0  0  0  0
  192.7320  177.2610  139.6650 C   0  0  0  0  0  2  0  0  0  0  0  0
  191.6740  175.3310  137.2980 O   0  0  0  0  0  0  0  0  0  0  0  0
  187.5980  174.2100  135.5710 C   0  0  0  0  0  0  0  0  0  0  0  0
  193.9610  176.4180  139.6370 C   0  0  0  0  0  0  0  0  0  0  0  0
  194.7040  175.6810  135.2070 C   0  0  0  0  0  2  0  0  0  0  0  0
  195.8550  174.6800  135.1870 C   0  0  0  0  0  2  0  0  0  0  0  0
  197.1320  175.3220  134.6560 C   0  0  0  0  0  3  0  0  0  0  0  0
  197.0170  176.8270  134.8020 C   0  0  0  0  0  1  0  0  0  0  0  0
  198.3250  174.8330  135.4660 C   0  0  0  0  0  1  0  0  0  0  0  0
  187.3640  179.4090  140.8350 C   0  0  0  0  0  2  0  0  0  0  0  0
  186.4760  179.5300  142.0620 C   0  0  0  0  0  2  0  0  0  0  0  0
  185.2940  178.5800  141.9520 C   0  0  0  0  0  2  0  0  0  0  0  0
  184.4550  178.6030  143.2280 C   0  0  0  0  0  2  0  0  0  0  0  0
  187.2050  177.3340  145.5200 C   0  0  0  0  0  3  0  0  0  0  0  0
  184.9530  178.9950  145.6600 C   0  0  0  0  0  3  0  0  0  0  0  0
  185.2840  178.3700  144.4530 C   0  0  0  0  0  0  0  0  0  0  0  0
  186.8760  177.9600  146.7260 C   0  0  0  0  0  3  0  0  0  0  0  0
  185.7490  178.7920  146.7960 C   0  0  0  0  0  3  0  0  0  0  0  0
  186.4090  177.5380  144.3850 C   0  0  0  0  0  3  0  0  0  0  0  0
  2 31  1  0  0  0  0
  2 24  1  0  0  0  0
  3 32  1  0  0  0  0
  4 15  1  0  0  0  0
  4 38  1  1  0  0  0
  5  9  1  0  0  0  0
  6 21  2  0  0  0  0
  6 20  1  0  0  0  0
  7 25  2  0  0  0  0
  7 16  1  0  0  0  0
  8 24  1  0  0  0  0
  8 18  1  0  0  0  0
 10  3  1  0  0  0  0
 11 12  1  0  0  0  0
 11 30  2  0  0  0  0
 12 10  2  0  0  0  0
 13 17  1  0  0  0  0
 13 19  2  0  0  0  0
 15 28  1  1  0  0  0
 15  5  1  0  0  0  0
 18 21  1  0  0  0  0
 19  4  1  0  0  0  0
 21 17  1  0  0  0  0
 22 11  1  0  0  0  0
 23 14  1  0  0  0  0
 23  9  2  0  0  0  0
 24 26  1  6  0  0  0
 26 22  2  0  0  0  0
 27 25  1  0  0  0  0
 27  6  1  0  0  0  0
 28 23  1  0  0  0  0
 29 14  1  0  0  0  0
 31  7  1  0  0  0  0
 31 18  2  0  0  0  0
 32 29  1  0  0  0  0
 32  1  2  0  0  0  0
 33 12  1  0  0  0  0
 34 33  1  0  0  0  0
 35 36  1  0  0  0  0
 35 34  1  0  0  0  0
 35 37  1  0  0  0  0
 38 39  1  0  0  0  0
 40 39  1  0  0  0  0
 40 41  1  0  0  0  0
 41 44  1  0  0  0  0
 42 45  1  0  0  0  0
 43 46  1  0  0  0  0
 44 43  2  0  0  0  0
 45 46  2  0  0  0  0
 47 44  1  0  0  0  0
 47 42  2  0  0  0  0
M  END
>  <MODEL>
8

>  <REMARK>
 VINA RESULT:      -4.9      2.694      3.868
  Name = 
  8 active torsions:
  status: ('A' for Active; 'I' for Inactive)
    1  A    between atoms: C_3  and  C_6
    2  A    between atoms: C_3  and  C_25
    3  A    between atoms: C_5  and  C_40
    4  A    between atoms: C_10  and  C_33
    5  A    between atoms: C_10  and  C_40
    6  A    between atoms: C_19  and  C_25
    7  A    between atoms: C_23  and  C_46
    8  A    between atoms: C_33  and  C_46
                            x       y       z     vdW  Elec       q    Type
                         _______ _______ _______ _____ _____    ______ ____

>  <TORSDO>
F 8

$$$$
=
 OpenBabel11032420543D

 47 51  0  0  1  0  0  0  0  0999 V2000
  192.4430  177.4890  140.5460 O   0  0  0  0  0  0  0  0  0  0  0  0
  185.6150  175.7020  136.0290 S   0  0  0  0  0  0  0  0  0  0  0  0
  191.1680  175.9660  139.2810 C   0  0  0  0  0  2  0  0  0  0  0  0
  184.5610  178.6960  142.1850 C   0  0  2  0  0  3  0  0  0  0  0  0
  186.1860  177.0390  143.0270 N   0  0  0  0  0  2  0  0  0  0  0  0
  181.8820  175.6180  139.0920 C   0  0  0  0  0  0  0  0  0  0  0  0
  183.8280  174.0290  137.4490 C   0  0  0  0  0  0  0  0  0  0  0  0
  184.6740  178.0420  137.4300 S   0  0  0  0  0  0  0  0  0  0  0  0
  187.5750  176.9340  142.9900 N   0  0  0  0  0  0  0  0  0  0  0  0
  191.4860  176.3040  137.8600 C   0  0  0  0  0  3  0  0  0  0  0  0
  189.1710  176.9670  137.2210 C   0  0  0  0  0  0  0  0  0  0  0  0
  190.6170  176.7780  136.9610 C   0  0  0  0  0  0  0  0  0  0  0  0
  183.4290  178.6640  140.0560 N   0  0  0  0  0  0  0  0  0  0  0  0
  189.5150  177.3570  141.7150 N   0  0  0  0  0  2  0  0  0  0  0  0
  185.6110  177.6380  141.8340 C   0  0  2  0  0  3  0  0  0  0  0  0
  184.7890  172.9090  137.2440 C   0  0  0  0  0  1  0  0  0  0  0  0
  183.1620  177.2930  140.1730 N   0  0  0  0  0  2  0  0  0  0  0  0
  183.8350  176.5110  137.8540 C   0  0  0  0  0  0  0  0  0  0  0  0
  184.0360  179.3160  140.9710 N   0  0  0  0  0  0  0  0  0  0  0  0
  181.0870  175.5890  140.1930 F   0  0  0  0  0  0  0  0  0  0  0  0
  182.9180  176.4620  139.0340 C   0  0  0  0  0  0  0  0  0  0  0  0
  188.4150  177.8290  136.3510 N   0  0  0  0  0  0  0  0  0  0  0  0
  188.1170  177.4850  141.9660 C   0  0  0  0  0  0  0  0  0  0  0  0
  186.1670  177.0910  137.0520 C   0  0  2  0  0  3  0  0  0  0  0  0
  182.6100  173.7290  137.7930 N   0  0  0  0  0  0  0  0  0  0  0  0
  187.1200  177.9350  136.2730 C   0  0  0  0  0  3  0  0  0  0  0  0
  181.5460  174.7080  137.9580 C   0  0  0  0  0  2  0  0  0  0  0  0
  186.9960  178.3030  140.8390 S   0  0  0  0  0  0  0  0  0  0  0  0
  190.1390  177.9660  140.5540 C   0  0  0  0  0  2  0  0  0  0  0  0
  188.6100  176.3820  138.1880 O   0  0  0  0  0  0  0  0  0  0  0  0
  184.2610  175.4240  137.1760 C   0  0  0  0  0  0  0  0  0  0  0  0
  191.3320  177.1690  140.1500 C   0  0  0  0  0  0  0  0  0  0  0  0
  191.1490  177.1190  135.6030 C   0  0  0  0  0  2  0  0  0  0  0  0
  191.0820  175.9130  134.6710 C   0  0  0  0  0  2  0  0  0  0  0  0
  191.5950  174.6550  135.3620 C   0  0  0  0  0  3  0  0  0  0  0  0
  190.5170  173.5910  135.3000 C   0  0  0  0  0  1  0  0  0  0  0  0
  192.8370  174.1470  134.6420 C   0  0  0  0  0  1  0  0  0  0  0  0
  185.1360  179.7750  143.1010 C   0  0  0  0  0  2  0  0  0  0  0  0
  184.2710  179.9480  144.3380 C   0  0  0  0  0  2  0  0  0  0  0  0
  183.0940  178.9850  144.2960 C   0  0  0  0  0  2  0  0  0  0  0  0
  181.7700  179.7440  144.2250 C   0  0  0  0  0  2  0  0  0  0  0  0
  179.9230  179.2120  140.9490 C   0  0  0  0  0  3  0  0  0  0  0  0
  180.0720  178.0420  143.4910 C   0  0  0  0  0  3  0  0  0  0  0  0
  180.8450  179.1710  143.1970 C   0  0  0  0  0  0  0  0  0  0  0  0
  179.1520  178.0830  141.2420 C   0  0  0  0  0  3  0  0  0  0  0  0
  179.2270  177.4970  142.5140 C   0  0  0  0  0  3  0  0  0  0  0  0
  180.7670  179.7560  141.9260 C   0  0  0  0  0  3  0  0  0  0  0  0
  2 24  1  0  0  0  0
  2 31  1  0  0  0  0
  3 32  1  0  0  0  0
  4 38  1  1  0  0  0
  6 20  1  0  0  0  0
  7 25  2  0  0  0  0
  8 18  1  0  0  0  0
  9  5  1  0  0  0  0
 10  3  1  0  0  0  0
 11 30  2  0  0  0  0
 12 11  1  0  0  0  0
 12 10  2  0  0  0  0
 13 17  1  0  0  0  0
 13 19  2  0  0  0  0
 14 23  1  0  0  0  0
 15 28  1  1  0  0  0
 15  4  1  0  0  0  0
 15  5  1  0  0  0  0
 16  7  1  0  0  0  0
 18 21  1  0  0  0  0
 19  4  1  0  0  0  0
 21  6  2  0  0  0  0
 21 17  1  0  0  0  0
 22 11  1  0  0  0  0
 23  9  2  0  0  0  0
 24 26  1  6  0  0  0
 24  8  1  0  0  0  0
 25 27  1  0  0  0  0
 26 22  2  0  0  0  0
 27  6  1  0  0  0  0
 28 23  1  0  0  0  0
 29 14  1  0  0  0  0
 31  7  1  0  0  0  0
 31 18  2  0  0  0  0
 32  1  2  0  0  0  0
 32 29  1  0  0  0  0
 33 12  1  0  0  0  0
 34 35  1  0  0  0  0
 34 33  1  0  0  0  0
 36 35  1  0  0  0  0
 37 35  1  0  0  0  0
 38 39  1  0  0  0  0
 40 39  1  0  0  0  0
 41 40  1  0  0  0  0
 42 45  2  0  0  0  0
 42 47  1  0  0  0  0
 44 43  1  0  0  0  0
 44 41  1  0  0  0  0
 45 46  1  0  0  0  0
 46 43  2  0  0  0  0
 47 44  2  0  0  0  0
M  END
>  <MODEL>
9

>  <REMARK>
 VINA RESULT:      -4.8      2.012      3.772
  Name = 
  8 active torsions:
  status: ('A' for Active; 'I' for Inactive)
    1  A    between atoms: C_3  and  C_6
    2  A    between atoms: C_3  and  C_25
    3  A    between atoms: C_5  and  C_40
    4  A    between atoms: C_10  and  C_33
    5  A    between atoms: C_10  and  C_40
    6  A    between atoms: C_19  and  C_25
    7  A    between atoms: C_23  and  C_46
    8  A    between atoms: C_33  and  C_46
                            x       y       z     vdW  Elec       q    Type
                         _______ _______ _______ _____ _____    ______ ____

>  <TORSDO>
F 8

$$$$
