=
 OpenBabel11032421143D

 50 53  0  0  1  0  0  0  0  0999 V2000
  188.1880  177.8300  142.0790 C   0  0  0  0  0  3  0  0  0  0  0  0
  188.9500  176.4130  138.1860 C   0  0  0  0  0  0  0  0  0  0  0  0
  190.0460  176.4610  139.1950 C   0  0  0  0  0  0  0  0  0  0  0  0
  185.1570  178.4510  144.2680 C   0  0  0  0  0  3  0  0  0  0  0  0
  185.7990  178.4860  141.5390 C   0  0  0  0  0  0  0  0  0  0  0  0
  187.9410  177.3760  138.2240 O   0  0  0  0  0  0  0  0  0  0  0  0
  186.7380  177.2850  137.4800 C   0  0  0  0  0  2  0  0  0  0  0  0
  188.4860  177.3600  140.8730 C   0  0  0  0  0  3  0  0  0  0  0  0
  189.8380  176.9580  140.4390 C   0  0  0  0  0  0  0  0  0  0  0  0
  186.2060  179.6090  137.0950 C   0  0  0  0  0  2  0  0  0  0  0  0
  185.1790  178.5610  139.0980 C   0  0  2  0  0  3  0  0  0  0  0  0
  184.4860  178.7150  141.9730 C   0  0  0  0  0  3  0  0  0  0  0  0
  190.9620  177.0320  141.4310 C   0  0  0  0  0  1  0  0  0  0  0  0
  186.1230  178.6000  140.1740 O   0  0  0  0  0  0  0  0  0  0  0  0
  186.8080  178.1800  142.4950 C   0  0  0  0  0  0  0  0  0  0  0  0
  185.9140  178.4960  137.7740 C   0  0  0  0  0  0  0  0  0  0  0  0
  188.9470  175.5290  137.2870 O   0  0  0  0  0  0  0  0  0  0  0  0
  184.1660  178.7010  143.3250 C   0  0  0  0  0  3  0  0  0  0  0  0
  186.4780  178.1860  143.8790 C   0  0  0  0  0  0  0  0  0  0  0  0
  189.2910  177.2670  146.9960 C   0  0  0  0  0  3  0  0  0  0  0  0
  187.9220  177.3100  147.2730 C   0  0  0  0  0  3  0  0  0  0  0  0
  188.8380  177.8290  144.6890 C   0  0  0  0  0  3  0  0  0  0  0  0
  187.4610  177.8920  144.9560 C   0  0  0  0  0  0  0  0  0  0  0  0
  189.7570  177.5260  145.7010 C   0  0  0  0  0  0  0  0  0  0  0  0
  187.0130  177.6170  146.2580 C   0  0  0  0  0  3  0  0  0  0  0  0
  192.0380  176.6490  146.1280 O   0  0  0  0  0  1  0  0  0  0  0  0
  191.6790  178.1940  144.4800 O   0  0  0  0  0  0  0  0  0  0  0  0
  191.1960  177.4810  145.4000 C   0  0  0  0  0  0  0  0  0  0  0  0
  192.5400  174.7330  137.0790 C   0  0  0  0  0  2  0  0  0  0  0  0
  191.3160  174.6820  137.9630 C   0  0  0  0  0  2  0  0  0  0  0  0
  192.8320  176.2070  136.8780 C   0  0  2  0  0  3  0  0  0  0  0  0
  194.2100  176.4110  136.8160 O   0  0  0  0  0  1  0  0  0  0  0  0
  192.2550  176.9340  138.0790 C   0  0  0  0  0  2  0  0  0  0  0  0
  191.4080  175.9200  138.8320 C   0  0  1  0  0  3  0  0  0  0  0  0
  183.0510  179.6390  138.5840 C   0  0  0  0  0  0  0  0  0  0  0  0
  181.5420  180.4930  137.0360 O   0  0  0  0  0  1  0  0  0  0  0  0
  184.2150  179.7130  139.1670 C   0  0  0  0  0  3  0  0  0  0  0  0
  181.8860  179.5560  138.0020 C   0  0  0  0  0  0  0  0  0  0  0  0
  181.0590  177.8240  139.6120 N   0  0  0  0  0  2  0  0  0  0  0  0
  180.0320  178.1440  137.5420 O   0  0  0  0  0  0  0  0  0  0  0  0
  180.9400  178.4840  138.3500 C   0  0  0  0  0  0  0  0  0  0  0  0
  180.1460  176.7720  140.0420 C   0  0  1  0  0  3  0  0  0  0  0  0
  180.0050  174.5570  138.8800 C   0  0  0  0  0  1  0  0  0  0  0  0
  182.2440  175.4710  139.4550 C   0  0  0  0  0  1  0  0  0  0  0  0
  180.7850  175.3890  139.8780 C   0  0  0  0  0  3  0  0  0  0  0  0
  179.7090  177.0130  141.4830 C   0  0  0  0  0  2  0  0  0  0  0  0
  178.9310  178.6480  141.6480 S   0  0  0  0  0  0  0  0  0  0  0  0
  180.0960  180.6680  142.8770 O   0  0  0  0  0  1  0  0  0  0  0  0
  180.4000  178.5680  143.9400 C   0  0  0  0  0  1  0  0  0  0  0  0
  180.3100  179.3130  142.6260 C   0  0  1  0  0  3  0  0  0  0  0  0
  1 15  1  0  0  0  0
  2  6  1  0  0  0  0
  2  3  1  0  0  0  0
  3  9  2  0  0  0  0
  5 12  2  0  0  0  0
  5 15  1  0  0  0  0
  7 16  1  0  0  0  0
  7  6  1  0  0  0  0
  8  1  2  0  0  0  0
  9  8  1  0  0  0  0
  9 13  1  0  0  0  0
 10 16  2  0  0  0  0
 11 37  1  6  0  0  0
 11 14  1  0  0  0  0
 12 18  1  0  0  0  0
 14  5  1  0  0  0  0
 15 19  2  0  0  0  0
 16 11  1  0  0  0  0
 17  2  2  0  0  0  0
 18  4  2  0  0  0  0
 19  4  1  0  0  0  0
 19 23  1  0  0  0  0
 20 21  1  0  0  0  0
 22 23  2  0  0  0  0
 22 24  1  0  0  0  0
 23 25  1  0  0  0  0
 24 20  2  0  0  0  0
 25 21  2  0  0  0  0
 27 28  2  0  0  0  0
 28 24  1  0  0  0  0
 28 26  1  0  0  0  0
 29 30  1  0  0  0  0
 30 34  1  0  0  0  0
 31 32  1  1  0  0  0
 31 29  1  0  0  0  0
 31 33  1  0  0  0  0
 33 34  1  0  0  0  0
 34  3  1  6  0  0  0
 35 37  2  0  0  0  0
 36 38  1  0  0  0  0
 38 41  1  0  0  0  0
 38 35  2  0  0  0  0
 39 42  1  0  0  0  0
 40 41  2  0  0  0  0
 41 39  1  0  0  0  0
 42 46  1  1  0  0  0
 43 45  1  0  0  0  0
 44 45  1  0  0  0  0
 45 42  1  0  0  0  0
 46 47  1  0  0  0  0
 47 50  1  0  0  0  0
 50 48  1  0  0  0  0
 50 49  1  1  0  0  0
M  END
>  <MODEL>
1

>  <REMARK>
 VINA RESULT:      -9.5      0.000      0.000
  Name = 
  10 active torsions:
  status: ('A' for Active; 'I' for Inactive)
    1  A    between atoms: N_3  and  C_13
    2  A    between atoms: C_9  and  C_50
    3  A    between atoms: C_13  and  C_27
    4  A    between atoms: C_13  and  C_45
    5  A    between atoms: C_20  and  C_24
    6  A    between atoms: C_27  and  S_39
    7  A    between atoms: C_30  and  C_49
    8  A    between atoms: C_35  and  C_40
    9  A    between atoms: C_36  and  C_37
   10  A    between atoms: S_39  and  C_48
                            x       y       z     vdW  Elec       q    Type
                         _______ _______ _______ _____ _____    ______ ____

>  <TORSDO>
F 10

$$$$
=
 OpenBabel11032421143D

 50 53  0  0  1  0  0  0  0  0999 V2000
  188.2290  177.7730  142.1040 C   0  0  0  0  0  3  0  0  0  0  0  0
  189.0470  176.3640  138.2190 C   0  0  0  0  0  0  0  0  0  0  0  0
  190.1410  176.4670  139.2260 C   0  0  0  0  0  0  0  0  0  0  0  0
  185.1760  178.2760  144.2930 C   0  0  0  0  0  3  0  0  0  0  0  0
  185.8120  178.3190  141.5630 C   0  0  0  0  0  0  0  0  0  0  0  0
  187.9970  177.2820  138.2520 O   0  0  0  0  0  0  0  0  0  0  0  0
  186.7980  177.1330  137.5110 C   0  0  0  0  0  2  0  0  0  0  0  0
  188.5450  177.3090  140.9000 C   0  0  0  0  0  3  0  0  0  0  0  0
  189.9130  176.9630  140.4670 C   0  0  0  0  0  0  0  0  0  0  0  0
  186.1630  179.4280  137.1110 C   0  0  0  0  0  2  0  0  0  0  0  0
  185.1860  178.3500  139.1220 C   0  0  2  0  0  3  0  0  0  0  0  0
  184.4910  178.4940  141.9970 C   0  0  0  0  0  3  0  0  0  0  0  0
  191.0340  177.0940  141.4560 C   0  0  0  0  0  1  0  0  0  0  0  0
  186.1290  178.4380  140.1960 O   0  0  0  0  0  0  0  0  0  0  0  0
  186.8350  178.0650  142.5190 C   0  0  0  0  0  0  0  0  0  0  0  0
  185.9210  178.3080  137.7980 C   0  0  0  0  0  0  0  0  0  0  0  0
  189.0820  175.4750  137.3260 O   0  0  0  0  0  0  0  0  0  0  0  0
  184.1730  178.4750  143.3500 C   0  0  0  0  0  3  0  0  0  0  0  0
  186.5060  178.0660  143.9040 C   0  0  0  0  0  0  0  0  0  0  0  0
  189.3600  177.2950  147.0240 C   0  0  0  0  0  3  0  0  0  0  0  0
  187.9920  177.3150  147.3090 C   0  0  0  0  0  3  0  0  0  0  0  0
  188.8790  177.7840  144.7060 C   0  0  0  0  0  3  0  0  0  0  0  0
  187.5030  177.8230  144.9810 C   0  0  0  0  0  0  0  0  0  0  0  0
  189.8110  177.5280  145.7190 C   0  0  0  0  0  0  0  0  0  0  0  0
  187.0700  177.5740  146.2930 C   0  0  0  0  0  3  0  0  0  0  0  0
  191.7710  178.3690  144.4500 O   0  0  0  0  0  0  0  0  0  0  0  0
  192.0210  176.7130  146.0090 O   0  0  0  0  0  1  0  0  0  0  0  0
  191.2490  177.5080  145.4090 C   0  0  0  0  0  0  0  0  0  0  0  0
  192.7000  174.8080  137.1330 C   0  0  0  0  0  2  0  0  0  0  0  0
  191.4870  174.7200  138.0300 C   0  0  0  0  0  2  0  0  0  0  0  0
  192.9170  176.2880  136.8900 C   0  0  2  0  0  3  0  0  0  0  0  0
  194.2820  176.5580  136.8090 O   0  0  0  0  0  1  0  0  0  0  0  0
  192.3150  177.0180  138.0770 C   0  0  0  0  0  2  0  0  0  0  0  0
  191.5250  175.9840  138.8640 C   0  0  1  0  0  3  0  0  0  0  0  0
  183.0340  179.3520  138.5570 C   0  0  0  0  0  0  0  0  0  0  0  0
  181.5470  180.1860  136.9760 O   0  0  0  0  0  1  0  0  0  0  0  0
  184.1720  179.4590  139.1850 C   0  0  0  0  0  3  0  0  0  0  0  0
  181.8950  179.2370  137.9300 C   0  0  0  0  0  0  0  0  0  0  0  0
  181.4620  176.9940  138.9560 N   0  0  0  0  0  2  0  0  0  0  0  0
  179.7900  178.1450  137.8060 O   0  0  0  0  0  0  0  0  0  0  0  0
  180.9840  178.1190  138.2150 C   0  0  0  0  0  0  0  0  0  0  0  0
  180.6140  175.8580  139.3020 C   0  0  1  0  0  3  0  0  0  0  0  0
  179.1340  175.0440  141.1520 C   0  0  0  0  0  1  0  0  0  0  0  0
  180.0610  177.3470  141.2810 C   0  0  0  0  0  1  0  0  0  0  0  0
  179.5660  176.2540  140.3470 C   0  0  0  0  0  3  0  0  0  0  0  0
  179.9590  175.2910  138.0470 C   0  0  0  0  0  2  0  0  0  0  0  0
  180.3510  173.5240  137.8670 S   0  0  0  0  0  0  0  0  0  0  0  0
  181.2520  175.0260  135.8970 O   0  0  0  0  0  1  0  0  0  0  0  0
  182.9450  173.9170  137.1360 C   0  0  0  0  0  1  0  0  0  0  0  0
  181.5560  173.8280  136.5420 C   0  0  1  0  0  3  0  0  0  0  0  0
  1 15  1  0  0  0  0
  2  6  1  0  0  0  0
  2  3  1  0  0  0  0
  3  9  2  0  0  0  0
  5 12  2  0  0  0  0
  5 15  1  0  0  0  0
  7 16  1  0  0  0  0
  7  6  1  0  0  0  0
  8  1  2  0  0  0  0
  9  8  1  0  0  0  0
  9 13  1  0  0  0  0
 10 16  2  0  0  0  0
 11 37  1  6  0  0  0
 11 14  1  0  0  0  0
 12 18  1  0  0  0  0
 14  5  1  0  0  0  0
 15 19  2  0  0  0  0
 16 11  1  0  0  0  0
 17  2  2  0  0  0  0
 18  4  2  0  0  0  0
 19  4  1  0  0  0  0
 19 23  1  0  0  0  0
 20 21  1  0  0  0  0
 22 23  2  0  0  0  0
 22 24  1  0  0  0  0
 23 25  1  0  0  0  0
 24 20  2  0  0  0  0
 25 21  2  0  0  0  0
 26 28  2  0  0  0  0
 28 24  1  0  0  0  0
 28 27  1  0  0  0  0
 29 30  1  0  0  0  0
 30 34  1  0  0  0  0
 31 32  1  1  0  0  0
 31 29  1  0  0  0  0
 31 33  1  0  0  0  0
 33 34  1  0  0  0  0
 34  3  1  6  0  0  0
 35 37  2  0  0  0  0
 36 38  1  0  0  0  0
 38 41  1  0  0  0  0
 38 35  2  0  0  0  0
 39 42  1  0  0  0  0
 40 41  2  0  0  0  0
 41 39  1  0  0  0  0
 42 46  1  6  0  0  0
 42 45  1  0  0  0  0
 45 43  1  0  0  0  0
 45 44  1  0  0  0  0
 47 46  1  0  0  0  0
 48 50  1  0  0  0  0
 50 49  1  1  0  0  0
 50 47  1  0  0  0  0
M  END
>  <MODEL>
2

>  <REMARK>
 VINA RESULT:      -8.3      1.395      2.519
  Name = 
  10 active torsions:
  status: ('A' for Active; 'I' for Inactive)
    1  A    between atoms: N_3  and  C_13
    2  A    between atoms: C_9  and  C_50
    3  A    between atoms: C_13  and  C_27
    4  A    between atoms: C_13  and  C_45
    5  A    between atoms: C_20  and  C_24
    6  A    between atoms: C_27  and  S_39
    7  A    between atoms: C_30  and  C_49
    8  A    between atoms: C_35  and  C_40
    9  A    between atoms: C_36  and  C_37
   10  A    between atoms: S_39  and  C_48
                            x       y       z     vdW  Elec       q    Type
                         _______ _______ _______ _____ _____    ______ ____

>  <TORSDO>
F 10

$$$$
=
 OpenBabel11032421143D

 50 53  0  0  1  0  0  0  0  0999 V2000
  189.6020  177.6290  141.4550 C   0  0  0  0  0  3  0  0  0  0  0  0
  190.5500  176.3200  137.5650 C   0  0  0  0  0  0  0  0  0  0  0  0
  191.6290  176.5200  138.5730 C   0  0  0  0  0  0  0  0  0  0  0  0
  186.5150  177.8340  143.6430 C   0  0  0  0  0  3  0  0  0  0  0  0
  187.1460  177.9490  140.9140 C   0  0  0  0  0  0  0  0  0  0  0  0
  189.4190  177.1350  137.6010 O   0  0  0  0  0  0  0  0  0  0  0  0
  188.2400  176.8790  136.8580 C   0  0  0  0  0  2  0  0  0  0  0  0
  189.9610  177.2010  140.2500 C   0  0  0  0  0  3  0  0  0  0  0  0
  191.3560  176.9870  139.8160 C   0  0  0  0  0  0  0  0  0  0  0  0
  187.3940  179.1070  136.4680 C   0  0  0  0  0  2  0  0  0  0  0  0
  186.5200  177.9330  138.4730 C   0  0  2  0  0  3  0  0  0  0  0  0
  185.8140  177.9980  141.3480 C   0  0  0  0  0  3  0  0  0  0  0  0
  192.4590  177.2170  140.8070 C   0  0  0  0  0  1  0  0  0  0  0  0
  187.4500  178.1030  139.5490 O   0  0  0  0  0  0  0  0  0  0  0  0
  188.1870  177.7870  141.8700 C   0  0  0  0  0  0  0  0  0  0  0  0
  187.2570  177.9660  137.1490 C   0  0  0  0  0  0  0  0  0  0  0  0
  190.6690  175.4420  136.6680 O   0  0  0  0  0  0  0  0  0  0  0  0
  185.4990  177.9430  142.7010 C   0  0  0  0  0  3  0  0  0  0  0  0
  187.8600  177.7510  143.2550 C   0  0  0  0  0  0  0  0  0  0  0  0
  190.8270  177.3670  146.3400 C   0  0  0  0  0  3  0  0  0  0  0  0
  191.1770  177.1880  145.0000 C   0  0  0  0  0  3  0  0  0  0  0  0
  188.5400  177.7910  145.6810 C   0  0  0  0  0  3  0  0  0  0  0  0
  188.8740  177.5970  144.3320 C   0  0  0  0  0  0  0  0  0  0  0  0
  189.5050  177.6710  146.6890 C   0  0  0  0  0  0  0  0  0  0  0  0
  190.2070  177.3060  144.0010 C   0  0  0  0  0  3  0  0  0  0  0  0
  187.8630  177.4890  148.5400 O   0  0  0  0  0  0  0  0  0  0  0  0
  189.9430  178.3640  148.9160 O   0  0  0  0  0  1  0  0  0  0  0  0
  189.1270  177.8620  148.0970 C   0  0  0  0  0  0  0  0  0  0  0  0
  194.3160  174.5970  136.9100 C   0  0  0  0  0  2  0  0  0  0  0  0
  193.2260  174.6870  137.9520 C   0  0  0  0  0  2  0  0  0  0  0  0
  194.1850  175.8580  136.0780 C   0  0  2  0  0  3  0  0  0  0  0  0
  195.4480  176.2950  135.6800 O   0  0  0  0  0  1  0  0  0  0  0  0
  193.5330  176.9010  136.9670 C   0  0  0  0  0  2  0  0  0  0  0  0
  193.0530  176.1700  138.2100 C   0  0  1  0  0  3  0  0  0  0  0  0
  184.1720  178.5800  138.3340 C   0  0  0  0  0  0  0  0  0  0  0  0
  182.2090  178.8080  137.1090 O   0  0  0  0  0  1  0  0  0  0  0  0
  185.4080  178.9420  138.5400 C   0  0  0  0  0  3  0  0  0  0  0  0
  182.9370  178.2100  138.1300 C   0  0  0  0  0  0  0  0  0  0  0  0
  181.2050  176.4280  138.4440 N   0  0  0  0  0  2  0  0  0  0  0  0
  182.7430  176.9350  140.1240 O   0  0  0  0  0  0  0  0  0  0  0  0
  182.3120  177.1700  138.9610 C   0  0  0  0  0  0  0  0  0  0  0  0
  180.5480  175.3640  139.1940 C   0  0  1  0  0  3  0  0  0  0  0  0
  178.9320  175.0990  141.0900 C   0  0  0  0  0  1  0  0  0  0  0  0
  179.2540  177.3530  140.0920 C   0  0  0  0  0  1  0  0  0  0  0  0
  179.2370  175.8580  139.8140 C   0  0  0  0  0  3  0  0  0  0  0  0
  180.3150  174.1550  138.2940 C   0  0  0  0  0  2  0  0  0  0  0  0
  181.4140  174.2160  136.8460 S   0  0  0  0  0  0  0  0  0  0  0  0
  182.7050  171.9330  137.1040 O   0  0  0  0  0  1  0  0  0  0  0  0
  180.3760  171.7970  137.5430 C   0  0  0  0  0  1  0  0  0  0  0  0
  181.4620  172.4080  136.6850 C   0  0  1  0  0  3  0  0  0  0  0  0
  1 15  1  0  0  0  0
  2  6  1  0  0  0  0
  2  3  1  0  0  0  0
  3  9  2  0  0  0  0
  5 12  2  0  0  0  0
  5 15  1  0  0  0  0
  7 16  1  0  0  0  0
  7  6  1  0  0  0  0
  8  1  2  0  0  0  0
  9  8  1  0  0  0  0
  9 13  1  0  0  0  0
 10 16  2  0  0  0  0
 11 37  1  6  0  0  0
 11 14  1  0  0  0  0
 12 18  1  0  0  0  0
 14  5  1  0  0  0  0
 15 19  2  0  0  0  0
 16 11  1  0  0  0  0
 17  2  2  0  0  0  0
 18  4  2  0  0  0  0
 19  4  1  0  0  0  0
 19 23  1  0  0  0  0
 20 24  1  0  0  0  0
 21 20  2  0  0  0  0
 22 24  2  0  0  0  0
 23 22  1  0  0  0  0
 24 28  1  0  0  0  0
 25 23  2  0  0  0  0
 25 21  1  0  0  0  0
 28 26  2  0  0  0  0
 28 27  1  0  0  0  0
 29 30  1  0  0  0  0
 30 34  1  0  0  0  0
 31 32  1  1  0  0  0
 31 29  1  0  0  0  0
 31 33  1  0  0  0  0
 33 34  1  0  0  0  0
 34  3  1  6  0  0  0
 35 37  2  0  0  0  0
 36 38  1  0  0  0  0
 38 35  2  0  0  0  0
 38 41  1  0  0  0  0
 39 41  1  0  0  0  0
 39 42  1  0  0  0  0
 41 40  2  0  0  0  0
 42 46  1  6  0  0  0
 42 45  1  0  0  0  0
 45 44  1  0  0  0  0
 45 43  1  0  0  0  0
 47 46  1  0  0  0  0
 50 47  1  0  0  0  0
 50 48  1  0  0  0  0
 50 49  1  1  0  0  0
M  END
>  <MODEL>
3

>  <REMARK>
 VINA RESULT:      -8.1      2.196      3.403
  Name = 
  10 active torsions:
  status: ('A' for Active; 'I' for Inactive)
    1  A    between atoms: N_3  and  C_13
    2  A    between atoms: C_9  and  C_50
    3  A    between atoms: C_13  and  C_27
    4  A    between atoms: C_13  and  C_45
    5  A    between atoms: C_20  and  C_24
    6  A    between atoms: C_27  and  S_39
    7  A    between atoms: C_30  and  C_49
    8  A    between atoms: C_35  and  C_40
    9  A    between atoms: C_36  and  C_37
   10  A    between atoms: S_39  and  C_48
                            x       y       z     vdW  Elec       q    Type
                         _______ _______ _______ _____ _____    ______ ____

>  <TORSDO>
F 10

$$$$
=
 OpenBabel11032421143D

 50 53  0  0  1  0  0  0  0  0999 V2000
  188.6360  177.2410  140.3600 C   0  0  0  0  0  3  0  0  0  0  0  0
  186.2680  178.1980  143.7100 C   0  0  0  0  0  0  0  0  0  0  0  0
  187.4950  177.3670  143.8710 C   0  0  0  0  0  0  0  0  0  0  0  0
  189.0720  178.5010  136.8130 C   0  0  0  0  0  3  0  0  0  0  0  0
  187.0280  178.3180  138.7230 C   0  0  0  0  0  0  0  0  0  0  0  0
  185.5270  178.1040  142.5320 O   0  0  0  0  0  0  0  0  0  0  0  0
  184.4980  179.0120  142.1750 C   0  0  0  0  0  2  0  0  0  0  0  0
  187.9380  177.5220  141.4550 C   0  0  0  0  0  3  0  0  0  0  0  0
  188.2460  177.0040  142.8030 C   0  0  0  0  0  0  0  0  0  0  0  0
  183.0210  177.6140  140.8730 C   0  0  0  0  0  2  0  0  0  0  0  0
  184.7360  178.8840  139.6050 C   0  0  2  0  0  3  0  0  0  0  0  0
  186.8050  178.9420  137.4870 C   0  0  0  0  0  3  0  0  0  0  0  0
  189.4580  176.1370  142.9790 C   0  0  0  0  0  1  0  0  0  0  0  0
  185.9660  178.1520  139.6320 O   0  0  0  0  0  0  0  0  0  0  0  0
  188.3240  177.8180  139.0300 C   0  0  0  0  0  0  0  0  0  0  0  0
  183.9360  178.5870  140.8570 C   0  0  0  0  0  0  0  0  0  0  0  0
  185.8840  178.9580  144.6400 O   0  0  0  0  0  0  0  0  0  0  0  0
  187.8170  179.0320  136.5380 C   0  0  0  0  0  3  0  0  0  0  0  0
  189.3500  177.8960  138.0460 C   0  0  0  0  0  0  0  0  0  0  0  0
  193.3160  176.3870  138.7240 C   0  0  0  0  0  3  0  0  0  0  0  0
  192.6120  177.0060  139.7590 C   0  0  0  0  0  3  0  0  0  0  0  0
  191.4450  176.7530  137.2380 C   0  0  0  0  0  3  0  0  0  0  0  0
  190.7320  177.3910  138.2640 C   0  0  0  0  0  0  0  0  0  0  0  0
  192.7360  176.2560  137.4560 C   0  0  0  0  0  0  0  0  0  0  0  0
  191.3260  177.5010  139.5310 C   0  0  0  0  0  3  0  0  0  0  0  0
  192.7790  175.0370  135.2950 O   0  0  0  0  0  0  0  0  0  0  0  0
  194.7290  175.5570  136.3730 O   0  0  0  0  0  1  0  0  0  0  0  0
  193.4700  175.6050  136.3600 C   0  0  0  0  0  0  0  0  0  0  0  0
  189.3260  177.6410  147.0730 C   0  0  0  0  0  2  0  0  0  0  0  0
  189.3290  177.4010  145.5820 C   0  0  0  0  0  2  0  0  0  0  0  0
  187.9140  178.0780  147.4090 C   0  0  2  0  0  3  0  0  0  0  0  0
  187.5510  177.5860  148.6610 O   0  0  0  0  0  1  0  0  0  0  0  0
  187.0090  177.4900  146.3410 C   0  0  0  0  0  2  0  0  0  0  0  0
  187.9230  176.9420  145.2550 C   0  0  1  0  0  3  0  0  0  0  0  0
  184.2560  177.5950  137.5900 C   0  0  0  0  0  0  0  0  0  0  0  0
  184.9050  176.7800  135.5120 O   0  0  0  0  0  1  0  0  0  0  0  0
  183.9600  178.6150  138.3460 C   0  0  0  0  0  3  0  0  0  0  0  0
  184.5570  176.5700  136.8400 C   0  0  0  0  0  0  0  0  0  0  0  0
  185.3770  174.2030  136.8030 N   0  0  0  0  0  2  0  0  0  0  0  0
  183.7810  174.9100  138.3500 O   0  0  0  0  0  0  0  0  0  0  0  0
  184.5360  175.2030  137.3830 C   0  0  0  0  0  0  0  0  0  0  0  0
  185.4340  172.8330  137.2990 C   0  0  1  0  0  3  0  0  0  0  0  0
  183.4970  171.3020  136.8720 C   0  0  0  0  0  1  0  0  0  0  0  0
  184.5230  172.5050  134.9540 C   0  0  0  0  0  1  0  0  0  0  0  0
  184.7870  171.8620  136.3070 C   0  0  0  0  0  3  0  0  0  0  0  0
  186.8780  172.4430  137.5970 C   0  0  0  0  0  2  0  0  0  0  0  0
  187.8900  172.5500  136.0900 S   0  0  0  0  0  0  0  0  0  0  0  0
  190.0280  173.5860  137.2330 O   0  0  0  0  0  1  0  0  0  0  0  0
  189.0630  174.9470  135.5450 C   0  0  0  0  0  1  0  0  0  0  0  0
  188.8080  173.9970  136.6940 C   0  0  1  0  0  3  0  0  0  0  0  0
  1  8  2  0  0  0  0
  2  3  1  0  0  0  0
  2 17  2  0  0  0  0
  4 19  1  0  0  0  0
  5 15  1  0  0  0  0
  5 14  1  0  0  0  0
  6  2  1  0  0  0  0
  7  6  1  0  0  0  0
  8  9  1  0  0  0  0
  9 13  1  0  0  0  0
  9  3  2  0  0  0  0
 11 37  1  6  0  0  0
 11 14  1  0  0  0  0
 11 16  1  0  0  0  0
 12  5  2  0  0  0  0
 15  1  1  0  0  0  0
 16 10  2  0  0  0  0
 16  7  1  0  0  0  0
 18  4  2  0  0  0  0
 18 12  1  0  0  0  0
 19 23  1  0  0  0  0
 19 15  2  0  0  0  0
 20 21  1  0  0  0  0
 22 24  1  0  0  0  0
 22 23  2  0  0  0  0
 23 25  1  0  0  0  0
 24 20  2  0  0  0  0
 25 21  2  0  0  0  0
 26 28  2  0  0  0  0
 28 27  1  0  0  0  0
 28 24  1  0  0  0  0
 29 31  1  0  0  0  0
 30 29  1  0  0  0  0
 31 32  1  1  0  0  0
 33 31  1  0  0  0  0
 34  3  1  6  0  0  0
 34 30  1  0  0  0  0
 34 33  1  0  0  0  0
 35 37  2  0  0  0  0
 36 38  1  0  0  0  0
 38 41  1  0  0  0  0
 38 35  2  0  0  0  0
 39 42  1  0  0  0  0
 39 41  1  0  0  0  0
 41 40  2  0  0  0  0
 42 46  1  6  0  0  0
 44 45  1  0  0  0  0
 45 43  1  0  0  0  0
 45 42  1  0  0  0  0
 47 50  1  0  0  0  0
 47 46  1  0  0  0  0
 50 49  1  6  0  0  0
 50 48  1  0  0  0  0
M  END
>  <MODEL>
4

>  <REMARK>
 VINA RESULT:      -7.7      3.198      7.578
  Name = 
  10 active torsions:
  status: ('A' for Active; 'I' for Inactive)
    1  A    between atoms: N_3  and  C_13
    2  A    between atoms: C_9  and  C_50
    3  A    between atoms: C_13  and  C_27
    4  A    between atoms: C_13  and  C_45
    5  A    between atoms: C_20  and  C_24
    6  A    between atoms: C_27  and  S_39
    7  A    between atoms: C_30  and  C_49
    8  A    between atoms: C_35  and  C_40
    9  A    between atoms: C_36  and  C_37
   10  A    between atoms: S_39  and  C_48
                            x       y       z     vdW  Elec       q    Type
                         _______ _______ _______ _____ _____    ______ ____

>  <TORSDO>
F 10

$$$$
=
 OpenBabel11032421143D

 50 53  0  0  1  0  0  0  0  0999 V2000
  185.9050  178.6340  140.6890 C   0  0  0  0  0  3  0  0  0  0  0  0
  188.5060  177.2030  143.6770 C   0  0  0  0  0  0  0  0  0  0  0  0
  187.3580  178.0810  144.0400 C   0  0  0  0  0  0  0  0  0  0  0  0
  185.0570  177.7750  137.0970 C   0  0  0  0  0  3  0  0  0  0  0  0
  187.2780  177.6430  138.8030 C   0  0  0  0  0  0  0  0  0  0  0  0
  189.1390  177.3750  142.4460 O   0  0  0  0  0  0  0  0  0  0  0  0
  190.0670  176.4530  141.9020 C   0  0  0  0  0  2  0  0  0  0  0  0
  186.6820  178.2020  141.6760 C   0  0  0  0  0  3  0  0  0  0  0  0
  186.5360  178.5940  143.0920 C   0  0  0  0  0  0  0  0  0  0  0  0
  191.5060  177.8910  140.6020 C   0  0  0  0  0  2  0  0  0  0  0  0
  189.5990  176.8590  139.3930 C   0  0  2  0  0  3  0  0  0  0  0  0
  187.3430  177.1380  137.4960 C   0  0  0  0  0  3  0  0  0  0  0  0
  185.4060  179.5060  143.4720 C   0  0  0  0  0  1  0  0  0  0  0  0
  188.4290  177.6540  139.6130 O   0  0  0  0  0  0  0  0  0  0  0  0
  186.0530  178.1810  139.2850 C   0  0  0  0  0  0  0  0  0  0  0  0
  190.5310  176.9790  140.5820 C   0  0  0  0  0  0  0  0  0  0  0  0
  188.9230  176.3300  144.4860 O   0  0  0  0  0  0  0  0  0  0  0  0
  186.2430  177.2050  136.6480 C   0  0  0  0  0  3  0  0  0  0  0  0
  184.9370  178.2640  138.4050 C   0  0  0  0  0  0  0  0  0  0  0  0
  181.1130  179.8950  139.4970 C   0  0  0  0  0  3  0  0  0  0  0  0
  182.1390  180.7370  139.0610 C   0  0  0  0  0  3  0  0  0  0  0  0
  182.5720  177.9860  139.2310 C   0  0  0  0  0  3  0  0  0  0  0  0
  183.6170  178.8210  138.8070 C   0  0  0  0  0  0  0  0  0  0  0  0
  181.3240  178.5130  139.5840 C   0  0  0  0  0  0  0  0  0  0  0  0
  183.3830  180.2020  138.7150 C   0  0  0  0  0  3  0  0  0  0  0  0
  179.4200  178.0000  141.0890 O   0  0  0  0  0  1  0  0  0  0  0  0
  180.0670  176.5020  139.4850 O   0  0  0  0  0  0  0  0  0  0  0  0
  180.2490  177.6190  140.0400 C   0  0  0  0  0  0  0  0  0  0  0  0
  186.4140  177.3090  147.5320 C   0  0  0  0  0  2  0  0  0  0  0  0
  186.0310  177.4720  146.0800 C   0  0  0  0  0  2  0  0  0  0  0  0
  187.9260  177.4120  147.5650 C   0  0  2  0  0  3  0  0  0  0  0  0
  188.3310  178.0510  148.7360 O   0  0  0  0  0  1  0  0  0  0  0  0
  188.3330  178.2380  146.3580 C   0  0  0  0  0  2  0  0  0  0  0  0
  187.0900  178.3830  145.4950 C   0  0  1  0  0  3  0  0  0  0  0  0
  191.4220  176.6870  137.7810 C   0  0  0  0  0  0  0  0  0  0  0  0
  193.6600  176.9820  137.2230 O   0  0  0  0  0  1  0  0  0  0  0  0
  190.2710  177.2130  138.0950 C   0  0  0  0  0  3  0  0  0  0  0  0
  192.5730  176.1540  137.4710 C   0  0  0  0  0  0  0  0  0  0  0  0
  194.0100  174.1440  137.0590 N   0  0  0  0  0  2  0  0  0  0  0  0
  191.7490  173.9300  137.5940 O   0  0  0  0  0  0  0  0  0  0  0  0
  192.7320  174.6940  137.3850 C   0  0  0  0  0  0  0  0  0  0  0  0
  194.2550  172.7080  136.9800 C   0  0  1  0  0  3  0  0  0  0  0  0
  195.1990  171.1180  135.2900 C   0  0  0  0  0  1  0  0  0  0  0  0
  192.7930  171.7290  135.1520 C   0  0  0  0  0  1  0  0  0  0  0  0
  194.1830  172.2170  135.5310 C   0  0  0  0  0  3  0  0  0  0  0  0
  195.6010  172.3710  137.6130 C   0  0  0  0  0  2  0  0  0  0  0  0
  196.1680  173.7370  138.6710 S   0  0  0  0  0  0  0  0  0  0  0  0
  198.1780  175.3140  138.0190 O   0  0  0  0  0  1  0  0  0  0  0  0
  198.3880  173.0840  137.2350 C   0  0  0  0  0  1  0  0  0  0  0  0
  197.4530  174.2450  137.4910 C   0  0  1  0  0  3  0  0  0  0  0  0
  1  8  2  0  0  0  0
  2  3  1  0  0  0  0
  2 17  2  0  0  0  0
  4 19  1  0  0  0  0
  5 15  1  0  0  0  0
  5 14  1  0  0  0  0
  6  2  1  0  0  0  0
  7  6  1  0  0  0  0
  8  9  1  0  0  0  0
  9 13  1  0  0  0  0
  9  3  2  0  0  0  0
 11 37  1  6  0  0  0
 11 14  1  0  0  0  0
 11 16  1  0  0  0  0
 12  5  2  0  0  0  0
 15  1  1  0  0  0  0
 16 10  2  0  0  0  0
 16  7  1  0  0  0  0
 18  4  2  0  0  0  0
 18 12  1  0  0  0  0
 19 23  1  0  0  0  0
 19 15  2  0  0  0  0
 20 24  1  0  0  0  0
 21 20  2  0  0  0  0
 22 24  2  0  0  0  0
 23 22  1  0  0  0  0
 24 28  1  0  0  0  0
 25 23  2  0  0  0  0
 25 21  1  0  0  0  0
 27 28  2  0  0  0  0
 28 26  1  0  0  0  0
 29 31  1  0  0  0  0
 30 29  1  0  0  0  0
 31 32  1  1  0  0  0
 33 31  1  0  0  0  0
 34  3  1  6  0  0  0
 34 30  1  0  0  0  0
 34 33  1  0  0  0  0
 35 37  2  0  0  0  0
 36 38  1  0  0  0  0
 38 35  2  0  0  0  0
 39 41  1  0  0  0  0
 41 38  1  0  0  0  0
 41 40  2  0  0  0  0
 42 39  1  0  0  0  0
 42 46  1  6  0  0  0
 43 45  1  0  0  0  0
 44 45  1  0  0  0  0
 45 42  1  0  0  0  0
 46 47  1  0  0  0  0
 50 49  1  1  0  0  0
 50 48  1  0  0  0  0
 50 47  1  0  0  0  0
M  END
>  <MODEL>
5

>  <REMARK>
 VINA RESULT:      -7.5      3.954     10.763
  Name = 
  10 active torsions:
  status: ('A' for Active; 'I' for Inactive)
    1  A    between atoms: N_3  and  C_13
    2  A    between atoms: C_9  and  C_50
    3  A    between atoms: C_13  and  C_27
    4  A    between atoms: C_13  and  C_45
    5  A    between atoms: C_20  and  C_24
    6  A    between atoms: C_27  and  S_39
    7  A    between atoms: C_30  and  C_49
    8  A    between atoms: C_35  and  C_40
    9  A    between atoms: C_36  and  C_37
   10  A    between atoms: S_39  and  C_48
                            x       y       z     vdW  Elec       q    Type
                         _______ _______ _______ _____ _____    ______ ____

>  <TORSDO>
F 10

$$$$
=
 OpenBabel11032421143D

 50 53  0  0  1  0  0  0  0  0999 V2000
  185.8840  178.5890  140.9220 C   0  0  0  0  0  3  0  0  0  0  0  0
  188.8420  176.9820  143.4540 C   0  0  0  0  0  0  0  0  0  0  0  0
  187.7260  177.7910  144.0220 C   0  0  0  0  0  0  0  0  0  0  0  0
  184.6430  178.0180  137.3870 C   0  0  0  0  0  3  0  0  0  0  0  0
  187.0490  177.8060  138.8100 C   0  0  0  0  0  0  0  0  0  0  0  0
  189.3240  177.2800  142.1800 O   0  0  0  0  0  0  0  0  0  0  0  0
  190.2010  176.4360  141.4530 C   0  0  0  0  0  2  0  0  0  0  0  0
  186.7780  178.0960  141.7710 C   0  0  0  0  0  3  0  0  0  0  0  0
  186.7900  178.3590  143.2240 C   0  0  0  0  0  0  0  0  0  0  0  0
  191.4510  178.0240  140.1320 C   0  0  0  0  0  2  0  0  0  0  0  0
  189.4370  177.0440  139.0600 C   0  0  2  0  0  3  0  0  0  0  0  0
  186.9710  177.4180  137.4650 C   0  0  0  0  0  3  0  0  0  0  0  0
  185.6930  179.2010  143.8100 C   0  0  0  0  0  1  0  0  0  0  0  0
  188.2850  177.7810  139.4820 O   0  0  0  0  0  0  0  0  0  0  0  0
  185.8770  178.2630  139.4750 C   0  0  0  0  0  0  0  0  0  0  0  0
  190.4980  177.0880  140.1420 C   0  0  0  0  0  0  0  0  0  0  0  0
  189.3670  176.0560  144.1290 O   0  0  0  0  0  0  0  0  0  0  0  0
  185.7800  177.5250  136.7570 C   0  0  0  0  0  3  0  0  0  0  0  0
  184.6650  178.3890  138.7380 C   0  0  0  0  0  0  0  0  0  0  0  0
  181.0210  179.8050  140.5240 C   0  0  0  0  0  3  0  0  0  0  0  0
  181.7780  178.8170  141.1580 C   0  0  0  0  0  3  0  0  0  0  0  0
  182.6280  179.8730  138.7200 C   0  0  0  0  0  3  0  0  0  0  0  0
  183.3900  178.8690  139.3370 C   0  0  0  0  0  0  0  0  0  0  0  0
  181.4430  180.3400  139.3010 C   0  0  0  0  0  0  0  0  0  0  0  0
  182.9580  178.3540  140.5690 C   0  0  0  0  0  3  0  0  0  0  0  0
  181.0450  181.8630  137.3820 O   0  0  0  0  0  0  0  0  0  0  0  0
  179.6150  181.8480  139.1680 O   0  0  0  0  0  1  0  0  0  0  0  0
  180.6530  181.3830  138.6270 C   0  0  0  0  0  0  0  0  0  0  0  0
  187.7190  176.6850  147.5520 C   0  0  0  0  0  2  0  0  0  0  0  0
  187.0610  176.7230  146.1930 C   0  0  0  0  0  2  0  0  0  0  0  0
  189.0830  177.3150  147.3580 C   0  0  2  0  0  3  0  0  0  0  0  0
  189.4360  178.0400  148.4960 O   0  0  0  0  0  1  0  0  0  0  0  0
  188.9670  178.2490  146.1670 C   0  0  0  0  0  2  0  0  0  0  0  0
  187.6230  177.9580  145.5190 C   0  0  1  0  0  3  0  0  0  0  0  0
  190.0650  176.7050  136.7270 C   0  0  0  0  0  0  0  0  0  0  0  0
  191.4170  175.7010  135.1240 O   0  0  0  0  0  1  0  0  0  0  0  0
  189.9480  177.5280  137.7320 C   0  0  0  0  0  3  0  0  0  0  0  0
  190.1760  175.8770  135.7250 C   0  0  0  0  0  0  0  0  0  0  0  0
  188.9370  173.7170  135.4500 N   0  0  0  0  0  2  0  0  0  0  0  0
  188.0860  175.7200  134.6090 O   0  0  0  0  0  0  0  0  0  0  0  0
  189.0120  175.1270  135.2290 C   0  0  0  0  0  0  0  0  0  0  0  0
  187.8050  172.9080  135.0130 C   0  0  1  0  0  3  0  0  0  0  0  0
  189.7720  171.4030  134.6380 C   0  0  0  0  0  1  0  0  0  0  0  0
  187.6410  170.4140  135.4510 C   0  0  0  0  0  1  0  0  0  0  0  0
  188.2600  171.5070  134.5940 C   0  0  0  0  0  3  0  0  0  0  0  0
  186.7520  172.8420  136.1150 C   0  0  0  0  0  2  0  0  0  0  0  0
  185.1860  173.5690  135.5440 S   0  0  0  0  0  0  0  0  0  0  0  0
  185.2430  172.7010  138.0330 O   0  0  0  0  0  1  0  0  0  0  0  0
  183.6500  174.4140  137.6290 C   0  0  0  0  0  1  0  0  0  0  0  0
  184.3240  173.1700  137.0930 C   0  0  1  0  0  3  0  0  0  0  0  0
  1  8  2  0  0  0  0
  2  3  1  0  0  0  0
  2 17  2  0  0  0  0
  4 19  1  0  0  0  0
  5 15  1  0  0  0  0
  5 14  1  0  0  0  0
  6  2  1  0  0  0  0
  7  6  1  0  0  0  0
  8  9  1  0  0  0  0
  9 13  1  0  0  0  0
  9  3  2  0  0  0  0
 10 16  2  0  0  0  0
 11 37  1  6  0  0  0
 11 14  1  0  0  0  0
 11 16  1  0  0  0  0
 12  5  2  0  0  0  0
 15  1  1  0  0  0  0
 16  7  1  0  0  0  0
 18  4  2  0  0  0  0
 18 12  1  0  0  0  0
 19 23  1  0  0  0  0
 19 15  2  0  0  0  0
 20 21  1  0  0  0  0
 22 24  1  0  0  0  0
 22 23  2  0  0  0  0
 23 25  1  0  0  0  0
 24 20  2  0  0  0  0
 25 21  2  0  0  0  0
 26 28  2  0  0  0  0
 28 27  1  0  0  0  0
 28 24  1  0  0  0  0
 30 29  1  0  0  0  0
 31 29  1  0  0  0  0
 31 32  1  1  0  0  0
 33 31  1  0  0  0  0
 34  3  1  6  0  0  0
 34 33  1  0  0  0  0
 34 30  1  0  0  0  0
 35 37  2  0  0  0  0
 36 38  1  0  0  0  0
 38 35  2  0  0  0  0
 40 41  2  0  0  0  0
 41 39  1  0  0  0  0
 41 38  1  0  0  0  0
 42 39  1  0  0  0  0
 42 46  1  1  0  0  0
 45 43  1  0  0  0  0
 45 42  1  0  0  0  0
 45 44  1  0  0  0  0
 47 46  1  0  0  0  0
 47 50  1  0  0  0  0
 50 49  1  1  0  0  0
 50 48  1  0  0  0  0
M  END
>  <MODEL>
6

>  <REMARK>
 VINA RESULT:      -7.2      3.219      8.537
  Name = 
  10 active torsions:
  status: ('A' for Active; 'I' for Inactive)
    1  A    between atoms: N_3  and  C_13
    2  A    between atoms: C_9  and  C_50
    3  A    between atoms: C_13  and  C_27
    4  A    between atoms: C_13  and  C_45
    5  A    between atoms: C_20  and  C_24
    6  A    between atoms: C_27  and  S_39
    7  A    between atoms: C_30  and  C_49
    8  A    between atoms: C_35  and  C_40
    9  A    between atoms: C_36  and  C_37
   10  A    between atoms: S_39  and  C_48
                            x       y       z     vdW  Elec       q    Type
                         _______ _______ _______ _____ _____    ______ ____

>  <TORSDO>
F 10

$$$$
=
 OpenBabel11032421143D

 50 53  0  0  1  0  0  0  0  0999 V2000
  186.2570  178.2780  142.4110 C   0  0  0  0  0  3  0  0  0  0  0  0
  189.8060  176.3400  143.5900 C   0  0  0  0  0  0  0  0  0  0  0  0
  188.8860  176.9080  144.6150 C   0  0  0  0  0  0  0  0  0  0  0  0
  184.0940  178.4690  139.3050 C   0  0  0  0  0  3  0  0  0  0  0  0
  186.7990  178.1020  139.9400 C   0  0  0  0  0  0  0  0  0  0  0  0
  189.9170  176.9630  142.3470 O   0  0  0  0  0  0  0  0  0  0  0  0
  190.5640  176.3810  141.2290 C   0  0  0  0  0  2  0  0  0  0  0  0
  187.3530  177.6660  142.8440 C   0  0  0  0  0  3  0  0  0  0  0  0
  187.7630  177.5790  144.2600 C   0  0  0  0  0  0  0  0  0  0  0  0
  191.3940  178.3220  140.0570 C   0  0  0  0  0  2  0  0  0  0  0  0
  189.1680  177.4780  139.3510 C   0  0  2  0  0  3  0  0  0  0  0  0
  186.3570  178.0380  138.6120 C   0  0  0  0  0  3  0  0  0  0  0  0
  186.8660  178.1770  145.3040 C   0  0  0  0  0  1  0  0  0  0  0  0
  188.1730  178.0100  140.2330 O   0  0  0  0  0  0  0  0  0  0  0  0
  185.8540  178.3040  140.9840 C   0  0  0  0  0  0  0  0  0  0  0  0
  190.4850  177.3430  140.0880 C   0  0  0  0  0  0  0  0  0  0  0  0
  190.5010  175.3210  143.8510 O   0  0  0  0  0  0  0  0  0  0  0  0
  185.0160  178.2220  138.2940 C   0  0  0  0  0  3  0  0  0  0  0  0
  184.4850  178.5110  140.6510 C   0  0  0  0  0  0  0  0  0  0  0  0
  181.4390  179.2510  143.5900 C   0  0  0  0  0  3  0  0  0  0  0  0
  182.7870  179.2600  143.9560 C   0  0  0  0  0  3  0  0  0  0  0  0
  182.0650  178.7540  141.3090 C   0  0  0  0  0  3  0  0  0  0  0  0
  183.4220  178.7430  141.6650 C   0  0  0  0  0  0  0  0  0  0  0  0
  181.0690  178.9990  142.2630 C   0  0  0  0  0  0  0  0  0  0  0  0
  183.7730  179.0110  142.9980 C   0  0  0  0  0  3  0  0  0  0  0  0
  179.0890  180.1020  141.2530 O   0  0  0  0  0  0  0  0  0  0  0  0
  178.9360  177.9750  142.0820 O   0  0  0  0  0  1  0  0  0  0  0  0
  179.6520  178.9890  141.8690 C   0  0  0  0  0  0  0  0  0  0  0  0
  190.4870  177.6720  147.8610 C   0  0  0  0  0  2  0  0  0  0  0  0
  190.5910  177.1880  146.4340 C   0  0  0  0  0  2  0  0  0  0  0  0
  189.0690  178.1870  148.0100 C   0  0  2  0  0  3  0  0  0  0  0  0
  188.6010  177.9160  149.2950 O   0  0  0  0  0  1  0  0  0  0  0  0
  188.2260  177.4480  146.9860 C   0  0  0  0  0  2  0  0  0  0  0  0
  189.1980  176.7100  146.0790 C   0  0  1  0  0  3  0  0  0  0  0  0
  189.0940  177.7540  136.9280 C   0  0  0  0  0  0  0  0  0  0  0  0
  189.9060  177.2390  134.8110 O   0  0  0  0  0  1  0  0  0  0  0  0
  189.2910  178.2980  138.0970 C   0  0  0  0  0  3  0  0  0  0  0  0
  188.8930  177.2040  135.7620 C   0  0  0  0  0  0  0  0  0  0  0  0
  187.2750  175.3230  136.1000 N   0  0  0  0  0  2  0  0  0  0  0  0
  186.8270  177.0530  134.6000 O   0  0  0  0  0  0  0  0  0  0  0  0
  187.6160  176.5460  135.4460 C   0  0  0  0  0  0  0  0  0  0  0  0
  186.0170  174.6230  135.8610 C   0  0  1  0  0  3  0  0  0  0  0  0
  187.6380  172.7270  136.0940 C   0  0  0  0  0  1  0  0  0  0  0  0
  185.5180  172.6610  137.3900 C   0  0  0  0  0  1  0  0  0  0  0  0
  186.1730  173.1170  136.0960 C   0  0  0  0  0  3  0  0  0  0  0  0
  184.9160  175.2100  136.7380 C   0  0  0  0  0  2  0  0  0  0  0  0
  183.4840  175.6920  135.7260 S   0  0  0  0  0  0  0  0  0  0  0  0
  181.2220  174.9860  136.8810 O   0  0  0  0  0  1  0  0  0  0  0  0
  183.0680  175.1540  138.3630 C   0  0  0  0  0  1  0  0  0  0  0  0
  182.3650  175.7360  137.1570 C   0  0  1  0  0  3  0  0  0  0  0  0
  1  8  2  0  0  0  0
  2 17  2  0  0  0  0
  2  3  1  0  0  0  0
  4 19  1  0  0  0  0
  5 14  1  0  0  0  0
  5 15  1  0  0  0  0
  6  2  1  0  0  0  0
  7  6  1  0  0  0  0
  8  9  1  0  0  0  0
  9  3  2  0  0  0  0
  9 13  1  0  0  0  0
 10 16  2  0  0  0  0
 11 37  1  6  0  0  0
 11 16  1  0  0  0  0
 11 14  1  0  0  0  0
 12  5  2  0  0  0  0
 15  1  1  0  0  0  0
 16  7  1  0  0  0  0
 18 12  1  0  0  0  0
 18  4  2  0  0  0  0
 19 15  2  0  0  0  0
 19 23  1  0  0  0  0
 20 21  1  0  0  0  0
 22 23  2  0  0  0  0
 22 24  1  0  0  0  0
 23 25  1  0  0  0  0
 24 20  2  0  0  0  0
 25 21  2  0  0  0  0
 26 28  2  0  0  0  0
 28 27  1  0  0  0  0
 28 24  1  0  0  0  0
 29 31  1  0  0  0  0
 30 29  1  0  0  0  0
 31 32  1  1  0  0  0
 33 31  1  0  0  0  0
 34  3  1  6  0  0  0
 34 30  1  0  0  0  0
 34 33  1  0  0  0  0
 35 37  2  0  0  0  0
 36 38  1  0  0  0  0
 38 35  2  0  0  0  0
 40 41  2  0  0  0  0
 41 38  1  0  0  0  0
 41 39  1  0  0  0  0
 42 45  1  0  0  0  0
 42 39  1  0  0  0  0
 42 46  1  1  0  0  0
 43 45  1  0  0  0  0
 45 44  1  0  0  0  0
 47 46  1  0  0  0  0
 47 50  1  0  0  0  0
 48 50  1  0  0  0  0
 50 49  1  1  0  0  0
M  END
>  <MODEL>
7

>  <REMARK>
 VINA RESULT:      -7.1      2.728      7.472
  Name = 
  10 active torsions:
  status: ('A' for Active; 'I' for Inactive)
    1  A    between atoms: N_3  and  C_13
    2  A    between atoms: C_9  and  C_50
    3  A    between atoms: C_13  and  C_27
    4  A    between atoms: C_13  and  C_45
    5  A    between atoms: C_20  and  C_24
    6  A    between atoms: C_27  and  S_39
    7  A    between atoms: C_30  and  C_49
    8  A    between atoms: C_35  and  C_40
    9  A    between atoms: C_36  and  C_37
   10  A    between atoms: S_39  and  C_48
                            x       y       z     vdW  Elec       q    Type
                         _______ _______ _______ _____ _____    ______ ____

>  <TORSDO>
F 10

$$$$
=
 OpenBabel11032421143D

 50 53  0  0  1  0  0  0  0  0999 V2000
  184.6770  178.0700  138.6610 C   0  0  0  0  0  3  0  0  0  0  0  0
  180.8210  176.8220  139.8100 C   0  0  0  0  0  0  0  0  0  0  0  0
  181.1700  176.9470  138.3660 C   0  0  0  0  0  0  0  0  0  0  0  0
  188.0980  178.3580  140.2660 C   0  0  0  0  0  3  0  0  0  0  0  0
  185.4100  178.5160  141.0470 C   0  0  0  0  0  0  0  0  0  0  0  0
  181.4080  177.6870  140.7330 O   0  0  0  0  0  0  0  0  0  0  0  0
  181.3380  177.5040  142.1370 C   0  0  0  0  0  2  0  0  0  0  0  0
  183.4500  177.6590  138.9610 C   0  0  0  0  0  3  0  0  0  0  0  0
  182.3880  177.3930  137.9710 C   0  0  0  0  0  0  0  0  0  0  0  0
  181.4140  179.7770  142.9480 C   0  0  0  0  0  2  0  0  0  0  0  0
  183.5900  178.5920  142.7870 C   0  0  2  0  0  3  0  0  0  0  0  0
  186.4410  178.6140  141.9920 C   0  0  0  0  0  3  0  0  0  0  0  0
  182.7110  177.5460  136.5140 C   0  0  0  0  0  1  0  0  0  0  0  0
  184.0710  178.6920  141.4420 O   0  0  0  0  0  0  0  0  0  0  0  0
  185.7320  178.2810  139.6810 C   0  0  0  0  0  0  0  0  0  0  0  0
  182.0750  178.6270  142.7930 C   0  0  0  0  0  0  0  0  0  0  0  0
  179.9800  175.9640  140.1920 O   0  0  0  0  0  0  0  0  0  0  0  0
  187.7750  178.5370  141.6060 C   0  0  0  0  0  3  0  0  0  0  0  0
  187.1000  178.2240  139.2900 C   0  0  0  0  0  0  0  0  0  0  0  0
  188.3930  177.6390  135.2340 C   0  0  0  0  0  3  0  0  0  0  0  0
  187.2900  178.4510  135.5110 C   0  0  0  0  0  3  0  0  0  0  0  0
  188.6570  177.1970  137.5950 C   0  0  0  0  0  3  0  0  0  0  0  0
  187.5410  177.9960  137.8880 C   0  0  0  0  0  0  0  0  0  0  0  0
  189.0840  177.0070  136.2750 C   0  0  0  0  0  0  0  0  0  0  0  0
  186.8700  178.6310  136.8310 C   0  0  0  0  0  3  0  0  0  0  0  0
  190.5590  175.0930  136.8380 O   0  0  0  0  0  1  0  0  0  0  0  0
  190.9680  176.3680  134.9830 O   0  0  0  0  0  0  0  0  0  0  0  0
  190.2470  176.1520  135.9930 C   0  0  0  0  0  0  0  0  0  0  0  0
  179.7010  176.7630  134.9770 C   0  0  0  0  0  2  0  0  0  0  0  0
  180.0460  177.5640  136.2100 C   0  0  0  0  0  2  0  0  0  0  0  0
  180.3550  175.4110  135.1760 C   0  0  2  0  0  3  0  0  0  0  0  0
  179.5510  174.4110  134.6310 O   0  0  0  0  0  1  0  0  0  0  0  0
  180.4880  175.2080  136.6750 C   0  0  0  0  0  2  0  0  0  0  0  0
  180.1560  176.5420  137.3230 C   0  0  1  0  0  3  0  0  0  0  0  0
  184.9310  179.3150  144.6930 C   0  0  0  0  0  0  0  0  0  0  0  0
  185.3060  179.3920  146.9860 O   0  0  0  0  0  1  0  0  0  0  0  0
  184.1940  179.6490  143.6700 C   0  0  0  0  0  3  0  0  0  0  0  0
  185.6710  178.9740  145.7130 C   0  0  0  0  0  0  0  0  0  0  0  0
  188.1330  178.6290  146.0210 N   0  0  0  0  0  2  0  0  0  0  0  0
  186.8100  177.0370  144.9440 O   0  0  0  0  0  0  0  0  0  0  0  0
  186.8770  178.1530  145.5310 C   0  0  0  0  0  0  0  0  0  0  0  0
  189.3690  177.8640  145.9040 C   0  0  1  0  0  3  0  0  0  0  0  0
  190.8300  176.4190  147.3370 C   0  0  0  0  0  1  0  0  0  0  0  0
  188.5570  177.0080  148.1510 C   0  0  0  0  0  1  0  0  0  0  0  0
  189.4040  176.7180  146.9210 C   0  0  0  0  0  3  0  0  0  0  0  0
  189.5310  177.3440  144.4790 C   0  0  0  0  0  2  0  0  0  0  0  0
  190.8750  178.2270  143.6290 S   0  0  0  0  0  0  0  0  0  0  0  0
  190.1760  175.9250  142.5490 O   0  0  0  0  0  1  0  0  0  0  0  0
  191.5070  177.3020  141.1460 C   0  0  0  0  0  1  0  0  0  0  0  0
  191.2540  176.8120  142.5550 C   0  0  1  0  0  3  0  0  0  0  0  0
  1  8  2  0  0  0  0
  1 15  1  0  0  0  0
  2 17  2  0  0  0  0
  2  6  1  0  0  0  0
  3  2  1  0  0  0  0
  4 18  1  0  0  0  0
  5 14  1  0  0  0  0
  5 12  1  0  0  0  0
  6  7  1  0  0  0  0
  7 16  1  0  0  0  0
  9  3  2  0  0  0  0
  9  8  1  0  0  0  0
 11 16  1  0  0  0  0
 11 37  1  1  0  0  0
 13  9  1  0  0  0  0
 14 11  1  0  0  0  0
 15  5  2  0  0  0  0
 16 10  2  0  0  0  0
 18 12  2  0  0  0  0
 19 15  1  0  0  0  0
 19  4  2  0  0  0  0
 20 21  2  0  0  0  0
 20 24  1  0  0  0  0
 21 25  1  0  0  0  0
 22 23  1  0  0  0  0
 23 19  1  0  0  0  0
 24 22  2  0  0  0  0
 25 23  2  0  0  0  0
 27 28  2  0  0  0  0
 28 24  1  0  0  0  0
 28 26  1  0  0  0  0
 29 31  1  0  0  0  0
 29 30  1  0  0  0  0
 30 34  1  0  0  0  0
 31 32  1  1  0  0  0
 31 33  1  0  0  0  0
 33 34  1  0  0  0  0
 34  3  1  1  0  0  0
 35 38  2  0  0  0  0
 37 35  2  0  0  0  0
 38 36  1  0  0  0  0
 40 41  2  0  0  0  0
 41 38  1  0  0  0  0
 41 39  1  0  0  0  0
 42 46  1  6  0  0  0
 42 39  1  0  0  0  0
 42 45  1  0  0  0  0
 45 43  1  0  0  0  0
 45 44  1  0  0  0  0
 47 46  1  0  0  0  0
 48 50  1  0  0  0  0
 50 49  1  6  0  0  0
 50 47  1  0  0  0  0
M  END
>  <MODEL>
8

>  <REMARK>
 VINA RESULT:      -6.9      3.191      9.235
  Name = 
  10 active torsions:
  status: ('A' for Active; 'I' for Inactive)
    1  A    between atoms: N_3  and  C_13
    2  A    between atoms: C_9  and  C_50
    3  A    between atoms: C_13  and  C_27
    4  A    between atoms: C_13  and  C_45
    5  A    between atoms: C_20  and  C_24
    6  A    between atoms: C_27  and  S_39
    7  A    between atoms: C_30  and  C_49
    8  A    between atoms: C_35  and  C_40
    9  A    between atoms: C_36  and  C_37
   10  A    between atoms: S_39  and  C_48
                            x       y       z     vdW  Elec       q    Type
                         _______ _______ _______ _____ _____    ______ ____

>  <TORSDO>
F 10

$$$$
=
 OpenBabel11032421143D

 50 53  0  0  1  0  0  0  0  0999 V2000
  188.8000  177.1520  140.3890 C   0  0  0  0  0  3  0  0  0  0  0  0
  186.2380  178.1620  143.5770 C   0  0  0  0  0  0  0  0  0  0  0  0
  187.4910  177.3960  143.8340 C   0  0  0  0  0  0  0  0  0  0  0  0
  189.3450  178.2560  136.8050 C   0  0  0  0  0  3  0  0  0  0  0  0
  187.2240  178.0740  138.6290 C   0  0  0  0  0  0  0  0  0  0  0  0
  185.5580  177.9770  142.3730 O   0  0  0  0  0  0  0  0  0  0  0  0
  184.5080  178.8180  141.9260 C   0  0  0  0  0  2  0  0  0  0  0  0
  188.0400  177.4530  141.4360 C   0  0  0  0  0  3  0  0  0  0  0  0
  188.3070  177.0170  142.8210 C   0  0  0  0  0  0  0  0  0  0  0  0
  183.1560  177.2930  140.6320 C   0  0  0  0  0  2  0  0  0  0  0  0
  184.8720  178.5770  139.3790 C   0  0  2  0  0  3  0  0  0  0  0  0
  187.0330  178.6260  137.3550 C   0  0  0  0  0  3  0  0  0  0  0  0
  189.5460  176.2150  143.0940 C   0  0  0  0  0  1  0  0  0  0  0  0
  186.1300  177.9030  139.4970 O   0  0  0  0  0  0  0  0  0  0  0  0
  188.5250  177.6480  139.0190 C   0  0  0  0  0  0  0  0  0  0  0  0
  184.0280  178.3050  140.6070 C   0  0  0  0  0  0  0  0  0  0  0  0
  185.7790  178.9480  144.4500 O   0  0  0  0  0  0  0  0  0  0  0  0
  188.0820  178.7160  136.4480 C   0  0  0  0  0  3  0  0  0  0  0  0
  189.5910  177.7250  138.0790 C   0  0  0  0  0  0  0  0  0  0  0  0
  193.5840  176.4350  139.0100 C   0  0  0  0  0  3  0  0  0  0  0  0
  192.8200  177.1090  139.9660 C   0  0  0  0  0  3  0  0  0  0  0  0
  191.7550  176.6030  137.4380 C   0  0  0  0  0  3  0  0  0  0  0  0
  190.9830  177.2950  138.3830 C   0  0  0  0  0  0  0  0  0  0  0  0
  193.0550  176.1780  137.7390 C   0  0  0  0  0  0  0  0  0  0  0  0
  191.5260  177.5320  139.6560 C   0  0  0  0  0  3  0  0  0  0  0  0
  195.2270  175.6540  136.6600 O   0  0  0  0  0  1  0  0  0  0  0  0
  193.2950  174.6840  135.9100 O   0  0  0  0  0  0  0  0  0  0  0  0
  193.8510  175.4680  136.7260 C   0  0  0  0  0  0  0  0  0  0  0  0
  188.9730  178.0050  147.1690 C   0  0  0  0  0  2  0  0  0  0  0  0
  189.1420  177.7640  145.6870 C   0  0  0  0  0  2  0  0  0  0  0  0
  187.4830  178.1830  147.3810 C   0  0  2  0  0  3  0  0  0  0  0  0
  187.1120  177.6370  148.6090 O   0  0  0  0  0  1  0  0  0  0  0  0
  186.7890  177.4380  146.2540 C   0  0  0  0  0  2  0  0  0  0  0  0
  187.8720  177.0600  145.2560 C   0  0  1  0  0  3  0  0  0  0  0  0
  182.9410  177.7670  138.1260 C   0  0  0  0  0  0  0  0  0  0  0  0
  181.4270  176.0770  137.6190 O   0  0  0  0  0  1  0  0  0  0  0  0
  184.1670  178.2110  138.1020 C   0  0  0  0  0  3  0  0  0  0  0  0
  181.7130  177.3250  138.1570 C   0  0  0  0  0  0  0  0  0  0  0  0
  180.9030  179.4710  139.1650 N   0  0  0  0  0  2  0  0  0  0  0  0
  179.4840  177.6360  138.9140 O   0  0  0  0  0  0  0  0  0  0  0  0
  180.6360  178.1280  138.7560 C   0  0  0  0  0  0  0  0  0  0  0  0
  179.8830  180.3390  139.7430 C   0  0  1  0  0  3  0  0  0  0  0  0
  178.9380  181.2800  141.8630 C   0  0  0  0  0  1  0  0  0  0  0  0
  180.1510  179.1120  141.9480 C   0  0  0  0  0  1  0  0  0  0  0  0
  180.0640  180.4650  141.2590 C   0  0  0  0  0  3  0  0  0  0  0  0
  179.9130  181.7050  139.0650 C   0  0  0  0  0  2  0  0  0  0  0  0
  181.4700  181.9310  138.1540 S   0  0  0  0  0  0  0  0  0  0  0  0
  182.0900  184.3220  137.2320 O   0  0  0  0  0  1  0  0  0  0  0  0
  180.1860  183.3410  136.2100 C   0  0  0  0  0  1  0  0  0  0  0  0
  180.9610  183.5450  137.4920 C   0  0  1  0  0  3  0  0  0  0  0  0
  1  8  2  0  0  0  0
  2  3  1  0  0  0  0
  2 17  2  0  0  0  0
  4 19  1  0  0  0  0
  5 15  1  0  0  0  0
  5 14  1  0  0  0  0
  6  2  1  0  0  0  0
  7  6  1  0  0  0  0
  8  9  1  0  0  0  0
  9 13  1  0  0  0  0
  9  3  2  0  0  0  0
 11 37  1  6  0  0  0
 11 14  1  0  0  0  0
 11 16  1  0  0  0  0
 12  5  2  0  0  0  0
 15  1  1  0  0  0  0
 16 10  2  0  0  0  0
 16  7  1  0  0  0  0
 18  4  2  0  0  0  0
 18 12  1  0  0  0  0
 19 23  1  0  0  0  0
 19 15  2  0  0  0  0
 20 21  1  0  0  0  0
 22 24  1  0  0  0  0
 22 23  2  0  0  0  0
 23 25  1  0  0  0  0
 24 20  2  0  0  0  0
 25 21  2  0  0  0  0
 26 28  1  0  0  0  0
 27 28  2  0  0  0  0
 28 24  1  0  0  0  0
 29 31  1  0  0  0  0
 30 29  1  0  0  0  0
 31 32  1  1  0  0  0
 33 31  1  0  0  0  0
 34  3  1  6  0  0  0
 34 30  1  0  0  0  0
 34 33  1  0  0  0  0
 35 38  2  0  0  0  0
 36 38  1  0  0  0  0
 37 35  2  0  0  0  0
 38 41  1  0  0  0  0
 39 42  1  0  0  0  0
 41 40  2  0  0  0  0
 41 39  1  0  0  0  0
 42 46  1  6  0  0  0
 42 45  1  0  0  0  0
 45 43  1  0  0  0  0
 45 44  1  0  0  0  0
 47 46  1  0  0  0  0
 48 50  1  0  0  0  0
 50 49  1  6  0  0  0
 50 47  1  0  0  0  0
M  END
>  <MODEL>
9

>  <REMARK>
 VINA RESULT:      -6.8      2.268      6.714
  Name = 
  10 active torsions:
  status: ('A' for Active; 'I' for Inactive)
    1  A    between atoms: N_3  and  C_13
    2  A    between atoms: C_9  and  C_50
    3  A    between atoms: C_13  and  C_27
    4  A    between atoms: C_13  and  C_45
    5  A    between atoms: C_20  and  C_24
    6  A    between atoms: C_27  and  S_39
    7  A    between atoms: C_30  and  C_49
    8  A    between atoms: C_35  and  C_40
    9  A    between atoms: C_36  and  C_37
   10  A    between atoms: S_39  and  C_48
                            x       y       z     vdW  Elec       q    Type
                         _______ _______ _______ _____ _____    ______ ____

>  <TORSDO>
F 10

$$$$
