=
 OpenBabel11032421303D

 26 29  0  0  1  0  0  0  0  0999 V2000
  189.3050  177.1290  145.2600 C   0  0  0  0  0  0  0  0  0  0  0  0
  190.6170  177.4280  144.8280 C   0  0  0  0  0  0  0  0  0  0  0  0
  191.3870  176.9230  147.0380 N   0  0  0  0  0  0  0  0  0  0  0  0
  189.0950  176.7460  146.5500 N   0  0  0  0  0  0  0  0  0  0  0  0
  191.6500  177.3150  145.7650 C   0  0  0  0  0  3  0  0  0  0  0  0
  190.1210  176.6400  147.4310 C   0  0  0  0  0  3  0  0  0  0  0  0
  190.9360  176.8980  142.3880 N   0  0  0  0  0  2  0  0  0  0  0  0
  190.9480  177.8610  143.4520 C   0  0  0  0  0  0  0  0  0  0  0  0
  191.2600  179.0600  143.2180 O   0  0  0  0  0  0  0  0  0  0  0  0
  190.7120  176.7170  137.9460 C   0  0  0  0  0  3  0  0  0  0  0  0
  189.9430  177.2800  140.2320 C   0  0  0  0  0  3  0  0  0  0  0  0
  192.8340  177.0460  139.2080 C   0  0  0  0  0  3  0  0  0  0  0  0
  191.0470  177.1770  140.9850 C   0  0  0  0  0  0  0  0  0  0  0  0
  189.9400  177.6740  138.7920 C   0  0  0  0  0  2  0  0  0  0  0  0
  192.0120  176.4850  138.1180 C   0  0  0  0  0  3  0  0  0  0  0  0
  192.4110  177.3440  140.4430 C   0  0  0  0  0  3  0  0  0  0  0  0
  188.1170  177.2860  144.3620 C   0  0  0  0  0  2  0  0  0  0  0  0
  185.1040  178.2990  143.4460 C   0  0  0  0  0  3  0  0  0  0  0  0
  186.9720  177.9090  145.0880 C   0  0  0  0  0  0  0  0  0  0  0  0
  185.5340  177.7150  144.7670 C   0  0  1  0  0  3  0  0  0  0  0  0
  185.8110  178.9860  146.6980 N   0  0  0  0  0  0  0  0  0  0  0  0
  183.6260  179.0620  145.7520 N   0  0  0  0  0  0  0  0  0  0  0  0
  183.1410  179.2700  144.5610 C   0  0  0  0  0  3  0  0  0  0  0  0
  184.9360  178.5070  145.8770 C   0  0  0  0  0  0  0  0  0  0  0  0
  187.0900  178.5700  146.2330 C   0  0  0  0  0  3  0  0  0  0  0  0
  183.9500  178.9760  143.3480 C   0  0  0  0  0  3  0  0  0  0  0  0
  1  4  1  0  0  0  0
  2  1  2  0  0  0  0
  2  5  1  0  0  0  0
  3  6  1  0  0  0  0
  4  6  2  0  0  0  0
  5  3  2  0  0  0  0
  7  8  1  0  0  0  0
  8  2  1  0  0  0  0
  9  8  2  0  0  0  0
 10 15  2  0  0  0  0
 10 14  1  0  0  0  0
 11 13  2  0  0  0  0
 12 16  2  0  0  0  0
 13  7  1  0  0  0  0
 14 11  1  0  0  0  0
 15 12  1  0  0  0  0
 16 13  1  0  0  0  0
 17 19  1  0  0  0  0
 17  1  1  0  0  0  0
 19 25  2  0  0  0  0
 20 18  1  6  0  0  0
 20 19  1  0  0  0  0
 20 24  1  0  0  0  0
 22 24  1  0  0  0  0
 23 22  2  0  0  0  0
 24 21  2  0  0  0  0
 25 21  1  0  0  0  0
 26 18  2  0  0  0  0
 26 23  1  0  0  0  0
M  END
>  <MODEL>
1

>  <REMARK>
 VINA RESULT:      -8.7      0.000      0.000
  Name = 
  4 active torsions:
  status: ('A' for Active; 'I' for Inactive)
    1  A    between atoms: C_2  and  C_18
    2  A    between atoms: C_4  and  C_13
    3  A    between atoms: N_5  and  C_20
    4  A    between atoms: C_7  and  C_18
                            x       y       z     vdW  Elec       q    Type
                         _______ _______ _______ _____ _____    ______ ____

>  <TORSDO>
F 4

$$$$
=
 OpenBabel11032421303D

 26 29  0  0  1  0  0  0  0  0999 V2000
  188.2530  178.5130  141.0230 C   0  0  0  0  0  0  0  0  0  0  0  0
  188.8020  177.3160  141.5350 C   0  0  0  0  0  0  0  0  0  0  0  0
  189.7070  176.8810  139.3610 N   0  0  0  0  0  0  0  0  0  0  0  0
  188.4510  178.8360  139.7160 N   0  0  0  0  0  0  0  0  0  0  0  0
  189.5330  176.5100  140.6550 C   0  0  0  0  0  3  0  0  0  0  0  0
  189.1710  178.0350  138.8910 C   0  0  0  0  0  3  0  0  0  0  0  0
  189.0240  177.7480  144.0050 N   0  0  0  0  0  2  0  0  0  0  0  0
  188.6360  176.8710  142.9370 C   0  0  0  0  0  0  0  0  0  0  0  0
  188.1790  175.7250  143.1930 O   0  0  0  0  0  0  0  0  0  0  0  0
  188.0410  178.3340  148.3060 C   0  0  0  0  0  3  0  0  0  0  0  0
  187.5710  177.8960  145.9150 C   0  0  0  0  0  3  0  0  0  0  0  0
  190.1090  177.2010  147.5070 C   0  0  0  0  0  3  0  0  0  0  0  0
  188.7610  177.5560  145.4030 C   0  0  0  0  0  0  0  0  0  0  0  0
  187.1570  177.6380  147.3260 C   0  0  0  0  0  2  0  0  0  0  0  0
  189.3460  178.0920  148.4030 C   0  0  0  0  0  3  0  0  0  0  0  0
  189.8510  176.9720  146.2130 C   0  0  0  0  0  3  0  0  0  0  0  0
  187.3940  179.4130  141.8560 C   0  0  0  0  0  2  0  0  0  0  0  0
  184.8920  179.1890  144.0100 C   0  0  0  0  0  3  0  0  0  0  0  0
  185.9520  179.0480  141.7300 C   0  0  0  0  0  0  0  0  0  0  0  0
  184.8450  179.5930  142.5590 C   0  0  1  0  0  3  0  0  0  0  0  0
  184.0410  178.2060  140.8700 N   0  0  0  0  0  0  0  0  0  0  0  0
  182.4750  178.6950  142.5970 N   0  0  0  0  0  0  0  0  0  0  0  0
  182.4940  178.6630  143.8990 C   0  0  0  0  0  3  0  0  0  0  0  0
  183.6980  178.9160  141.8930 C   0  0  0  0  0  0  0  0  0  0  0  0
  185.4530  178.3270  140.7350 C   0  0  0  0  0  3  0  0  0  0  0  0
  183.7730  178.8110  144.6450 C   0  0  0  0  0  3  0  0  0  0  0  0
  1  2  1  0  0  0  0
  1 17  1  0  0  0  0
  2  8  1  0  0  0  0
  3  5  1  0  0  0  0
  4  1  2  0  0  0  0
  5  2  2  0  0  0  0
  6  3  2  0  0  0  0
  6  4  1  0  0  0  0
  7 13  1  0  0  0  0
  8  9  2  0  0  0  0
  8  7  1  0  0  0  0
 10 15  2  0  0  0  0
 11 14  1  0  0  0  0
 12 15  1  0  0  0  0
 13 11  2  0  0  0  0
 13 16  1  0  0  0  0
 14 10  1  0  0  0  0
 16 12  2  0  0  0  0
 18 26  2  0  0  0  0
 19 17  1  0  0  0  0
 19 20  1  0  0  0  0
 20 18  1  1  0  0  0
 21 24  2  0  0  0  0
 22 23  2  0  0  0  0
 23 26  1  0  0  0  0
 24 20  1  0  0  0  0
 24 22  1  0  0  0  0
 25 21  1  0  0  0  0
 25 19  2  0  0  0  0
M  END
>  <MODEL>
2

>  <REMARK>
 VINA RESULT:      -8.7      2.404      5.948
  Name = 
  4 active torsions:
  status: ('A' for Active; 'I' for Inactive)
    1  A    between atoms: C_2  and  C_18
    2  A    between atoms: C_4  and  C_13
    3  A    between atoms: N_5  and  C_20
    4  A    between atoms: C_7  and  C_18
                            x       y       z     vdW  Elec       q    Type
                         _______ _______ _______ _____ _____    ______ ____

>  <TORSDO>
F 4

$$$$
=
 OpenBabel11032421303D

 26 29  0  0  1  0  0  0  0  0999 V2000
  189.5410  176.9250  143.7490 C   0  0  0  0  0  0  0  0  0  0  0  0
  190.2270  177.3400  142.5850 C   0  0  0  0  0  0  0  0  0  0  0  0
  192.0500  178.0160  143.9800 N   0  0  0  0  0  0  0  0  0  0  0  0
  190.1340  177.0760  144.9650 N   0  0  0  0  0  0  0  0  0  0  0  0
  191.5010  177.8940  142.7450 C   0  0  0  0  0  3  0  0  0  0  0  0
  191.3750  177.6110  145.0840 C   0  0  0  0  0  3  0  0  0  0  0  0
  188.6850  178.1790  140.7790 N   0  0  0  0  0  2  0  0  0  0  0  0
  189.6650  177.2270  141.2190 C   0  0  0  0  0  0  0  0  0  0  0  0
  190.0270  176.2910  140.4560 O   0  0  0  0  0  0  0  0  0  0  0  0
  186.9250  177.4710  136.7530 C   0  0  0  0  0  3  0  0  0  0  0  0
  186.9080  178.0240  139.1670 C   0  0  0  0  0  3  0  0  0  0  0  0
  189.1450  178.5380  137.1200 C   0  0  0  0  0  3  0  0  0  0  0  0
  188.1830  178.3280  139.4430 C   0  0  0  0  0  0  0  0  0  0  0  0
  186.2590  178.2440  137.8420 C   0  0  0  0  0  2  0  0  0  0  0  0
  188.2000  177.6490  136.4150 C   0  0  0  0  0  3  0  0  0  0  0  0
  189.1320  178.8290  138.4260 C   0  0  0  0  0  3  0  0  0  0  0  0
  188.1450  176.3860  143.7000 C   0  0  0  0  0  2  0  0  0  0  0  0
  185.5900  178.3190  142.8780 C   0  0  0  0  0  3  0  0  0  0  0  0
  187.2090  177.2470  144.4800 C   0  0  0  0  0  0  0  0  0  0  0  0
  185.7880  177.5140  144.1360 C   0  0  1  0  0  3  0  0  0  0  0  0
  186.3600  178.4630  146.1840 N   0  0  0  0  0  0  0  0  0  0  0  0
  184.3240  179.2640  145.2420 N   0  0  0  0  0  0  0  0  0  0  0  0
  183.9600  179.7150  144.0760 C   0  0  0  0  0  3  0  0  0  0  0  0
  185.4110  178.3400  145.3160 C   0  0  0  0  0  0  0  0  0  0  0  0
  187.4770  177.7350  145.6850 C   0  0  0  0  0  3  0  0  0  0  0  0
  184.6870  179.3110  142.8420 C   0  0  0  0  0  3  0  0  0  0  0  0
  1  4  1  0  0  0  0
  2  5  1  0  0  0  0
  2  1  2  0  0  0  0
  3  6  1  0  0  0  0
  4  6  2  0  0  0  0
  5  3  2  0  0  0  0
  7  8  1  0  0  0  0
  8  2  1  0  0  0  0
  9  8  2  0  0  0  0
 10 14  1  0  0  0  0
 11 13  2  0  0  0  0
 12 16  2  0  0  0  0
 13  7  1  0  0  0  0
 14 11  1  0  0  0  0
 15 10  2  0  0  0  0
 15 12  1  0  0  0  0
 16 13  1  0  0  0  0
 17  1  1  0  0  0  0
 17 19  1  0  0  0  0
 19 25  2  0  0  0  0
 20 18  1  6  0  0  0
 20 19  1  0  0  0  0
 20 24  1  0  0  0  0
 22 24  1  0  0  0  0
 23 22  2  0  0  0  0
 24 21  2  0  0  0  0
 25 21  1  0  0  0  0
 26 18  2  0  0  0  0
 26 23  1  0  0  0  0
M  END
>  <MODEL>
3

>  <REMARK>
 VINA RESULT:      -8.6      2.016      2.713
  Name = 
  4 active torsions:
  status: ('A' for Active; 'I' for Inactive)
    1  A    between atoms: C_2  and  C_18
    2  A    between atoms: C_4  and  C_13
    3  A    between atoms: N_5  and  C_20
    4  A    between atoms: C_7  and  C_18
                            x       y       z     vdW  Elec       q    Type
                         _______ _______ _______ _____ _____    ______ ____

>  <TORSDO>
F 4

$$$$
=
 OpenBabel11032421303D

 26 29  0  0  1  0  0  0  0  0999 V2000
  188.1530  178.2720  140.6710 C   0  0  0  0  0  0  0  0  0  0  0  0
  188.9950  177.4060  141.4050 C   0  0  0  0  0  0  0  0  0  0  0  0
  190.4580  177.3340  139.5110 N   0  0  0  0  0  0  0  0  0  0  0  0
  188.4970  178.6250  139.4030 N   0  0  0  0  0  0  0  0  0  0  0  0
  190.1580  176.9460  140.7770 C   0  0  0  0  0  3  0  0  0  0  0  0
  189.6360  178.1670  138.8260 C   0  0  0  0  0  3  0  0  0  0  0  0
  189.0010  177.8270  143.8870 N   0  0  0  0  0  2  0  0  0  0  0  0
  188.7060  176.9560  142.7850 C   0  0  0  0  0  0  0  0  0  0  0  0
  188.2260  175.8090  142.9950 O   0  0  0  0  0  0  0  0  0  0  0  0
  187.6940  178.4040  148.1030 C   0  0  0  0  0  3  0  0  0  0  0  0
  187.4030  178.0160  145.6740 C   0  0  0  0  0  3  0  0  0  0  0  0
  189.7700  177.1910  147.4560 C   0  0  0  0  0  3  0  0  0  0  0  0
  188.6160  177.6300  145.2550 C   0  0  0  0  0  0  0  0  0  0  0  0
  186.8640  177.7610  147.0420 C   0  0  0  0  0  2  0  0  0  0  0  0
  188.9760  178.1030  148.3010 C   0  0  0  0  0  3  0  0  0  0  0  0
  189.6090  176.9890  146.1420 C   0  0  0  0  0  3  0  0  0  0  0  0
  186.8490  178.7650  141.2190 C   0  0  0  0  0  2  0  0  0  0  0  0
  183.5510  178.6020  141.4040 C   0  0  0  0  0  3  0  0  0  0  0  0
  185.7630  178.6540  140.2030 C   0  0  0  0  0  0  0  0  0  0  0  0
  184.3980  179.2290  140.3270 C   0  0  1  0  0  3  0  0  0  0  0  0
  184.7270  178.2630  138.2340 N   0  0  0  0  0  0  0  0  0  0  0  0
  182.4540  178.7170  138.7830 N   0  0  0  0  0  0  0  0  0  0  0  0
  181.6860  178.4800  139.8080 C   0  0  0  0  0  3  0  0  0  0  0  0
  183.8610  178.8510  138.9910 C   0  0  0  0  0  0  0  0  0  0  0  0
  185.9400  178.1820  138.9750 C   0  0  0  0  0  3  0  0  0  0  0  0
  182.2630  178.3100  141.1690 C   0  0  0  0  0  3  0  0  0  0  0  0
  1 17  1  0  0  0  0
  1  2  1  0  0  0  0
  2  8  1  0  0  0  0
  3  5  1  0  0  0  0
  4  1  2  0  0  0  0
  5  2  2  0  0  0  0
  6  4  1  0  0  0  0
  6  3  2  0  0  0  0
  7 13  1  0  0  0  0
  8  9  2  0  0  0  0
  8  7  1  0  0  0  0
 10 15  2  0  0  0  0
 11 14  1  0  0  0  0
 12 15  1  0  0  0  0
 13 11  2  0  0  0  0
 13 16  1  0  0  0  0
 14 10  1  0  0  0  0
 16 12  2  0  0  0  0
 19 20  1  0  0  0  0
 19 17  1  0  0  0  0
 20 18  1  1  0  0  0
 21 25  1  0  0  0  0
 21 24  2  0  0  0  0
 22 24  1  0  0  0  0
 22 23  2  0  0  0  0
 23 26  1  0  0  0  0
 24 20  1  0  0  0  0
 25 19  2  0  0  0  0
 26 18  2  0  0  0  0
M  END
>  <MODEL>
4

>  <REMARK>
 VINA RESULT:      -8.5      3.266      6.515
  Name = 
  4 active torsions:
  status: ('A' for Active; 'I' for Inactive)
    1  A    between atoms: C_2  and  C_18
    2  A    between atoms: C_4  and  C_13
    3  A    between atoms: N_5  and  C_20
    4  A    between atoms: C_7  and  C_18
                            x       y       z     vdW  Elec       q    Type
                         _______ _______ _______ _____ _____    ______ ____

>  <TORSDO>
F 4

$$$$
=
 OpenBabel11032421303D

 26 29  0  0  1  0  0  0  0  0999 V2000
  188.6290  176.9150  142.2670 C   0  0  0  0  0  0  0  0  0  0  0  0
  188.1070  177.9030  141.4020 C   0  0  0  0  0  0  0  0  0  0  0  0
  190.0720  177.6680  140.0550 N   0  0  0  0  0  0  0  0  0  0  0  0
  189.8390  176.3550  141.9910 N   0  0  0  0  0  0  0  0  0  0  0  0
  188.8740  178.2620  140.2880 C   0  0  0  0  0  3  0  0  0  0  0  0
  190.5540  176.7200  140.8980 C   0  0  0  0  0  3  0  0  0  0  0  0
  185.7490  177.8740  142.2860 N   0  0  0  0  0  2  0  0  0  0  0  0
  186.8070  178.5780  141.6190 C   0  0  0  0  0  0  0  0  0  0  0  0
  186.6210  179.7530  141.2020 O   0  0  0  0  0  0  0  0  0  0  0  0
  181.8710  178.6060  144.3430 C   0  0  0  0  0  3  0  0  0  0  0  0
  184.3270  178.6990  144.0400 C   0  0  0  0  0  3  0  0  0  0  0  0
  182.1490  178.6470  141.8690 C   0  0  0  0  0  3  0  0  0  0  0  0
  184.5080  178.4330  142.7390 C   0  0  0  0  0  0  0  0  0  0  0  0
  183.1220  179.3780  144.6000 C   0  0  0  0  0  2  0  0  0  0  0  0
  181.4300  178.3290  143.1180 C   0  0  0  0  0  3  0  0  0  0  0  0
  183.4780  178.6920  141.7120 C   0  0  0  0  0  3  0  0  0  0  0  0
  187.9260  176.5080  143.5250 C   0  0  0  0  0  2  0  0  0  0  0  0
  186.8980  177.7440  146.4160 C   0  0  0  0  0  3  0  0  0  0  0  0
  188.6290  177.0390  144.7290 C   0  0  0  0  0  0  0  0  0  0  0  0
  188.1410  176.9430  146.1300 C   0  0  1  0  0  3  0  0  0  0  0  0
  190.2710  177.8780  146.0330 N   0  0  0  0  0  0  0  0  0  0  0  0
  189.1410  178.1700  148.1100 N   0  0  0  0  0  0  0  0  0  0  0  0
  187.9590  178.5810  148.4680 C   0  0  0  0  0  3  0  0  0  0  0  0
  189.3020  177.5630  146.8260 C   0  0  0  0  0  0  0  0  0  0  0  0
  189.8720  177.5040  144.7190 C   0  0  0  0  0  3  0  0  0  0  0  0
  186.7990  178.4620  147.5450 C   0  0  0  0  0  3  0  0  0  0  0  0
  1 17  1  0  0  0  0
  2  8  1  0  0  0  0
  2  1  2  0  0  0  0
  3  5  2  0  0  0  0
  3  6  1  0  0  0  0
  4  1  1  0  0  0  0
  5  2  1  0  0  0  0
  6  4  2  0  0  0  0
  7 13  1  0  0  0  0
  8  7  1  0  0  0  0
  9  8  2  0  0  0  0
 10 14  1  0  0  0  0
 11 14  1  0  0  0  0
 12 15  1  0  0  0  0
 13 11  2  0  0  0  0
 15 10  2  0  0  0  0
 16 12  2  0  0  0  0
 16 13  1  0  0  0  0
 17 19  1  0  0  0  0
 18 26  2  0  0  0  0
 19 20  1  0  0  0  0
 20 18  1  6  0  0  0
 20 24  1  0  0  0  0
 21 24  2  0  0  0  0
 22 23  2  0  0  0  0
 24 22  1  0  0  0  0
 25 19  2  0  0  0  0
 25 21  1  0  0  0  0
 26 23  1  0  0  0  0
M  END
>  <MODEL>
5

>  <REMARK>
 VINA RESULT:      -8.5      2.178      6.467
  Name = 
  4 active torsions:
  status: ('A' for Active; 'I' for Inactive)
    1  A    between atoms: C_2  and  C_18
    2  A    between atoms: C_4  and  C_13
    3  A    between atoms: N_5  and  C_20
    4  A    between atoms: C_7  and  C_18
                            x       y       z     vdW  Elec       q    Type
                         _______ _______ _______ _____ _____    ______ ____

>  <TORSDO>
F 4

$$$$
=
 OpenBabel11032421303D

 26 29  0  0  1  0  0  0  0  0999 V2000
  186.6530  177.5660  145.2290 C   0  0  0  0  0  0  0  0  0  0  0  0
  185.7560  178.6420  145.4170 C   0  0  0  0  0  0  0  0  0  0  0  0
  186.6450  178.9100  147.6240 N   0  0  0  0  0  0  0  0  0  0  0  0
  187.4960  177.2120  146.2380 N   0  0  0  0  0  0  0  0  0  0  0  0
  185.7800  179.2990  146.6520 C   0  0  0  0  0  3  0  0  0  0  0  0
  187.4980  177.8750  147.4210 C   0  0  0  0  0  3  0  0  0  0  0  0
  183.6400  178.2970  144.0960 N   0  0  0  0  0  2  0  0  0  0  0  0
  184.7950  179.0980  144.3870 C   0  0  0  0  0  0  0  0  0  0  0  0
  185.0000  180.1680  143.7530 O   0  0  0  0  0  0  0  0  0  0  0  0
  179.6740  178.5370  142.0910 C   0  0  0  0  0  3  0  0  0  0  0  0
  181.3600  179.0150  143.8400 C   0  0  0  0  0  3  0  0  0  0  0  0
  181.8370  178.4190  140.8610 C   0  0  0  0  0  3  0  0  0  0  0  0
  182.5260  178.6760  143.2750 C   0  0  0  0  0  0  0  0  0  0  0  0
  180.1770  179.5270  143.0880 C   0  0  0  0  0  2  0  0  0  0  0  0
  180.4140  178.0900  141.0780 C   0  0  0  0  0  3  0  0  0  0  0  0
  182.7430  178.6730  141.8130 C   0  0  0  0  0  3  0  0  0  0  0  0
  186.6620  176.7490  143.9740 C   0  0  0  0  0  2  0  0  0  0  0  0
  189.9650  176.5730  144.0250 C   0  0  0  0  0  3  0  0  0  0  0  0
  187.7340  177.2060  143.0430 C   0  0  0  0  0  0  0  0  0  0  0  0
  189.0440  176.5340  142.8330 C   0  0  1  0  0  3  0  0  0  0  0  0
  188.7640  178.3270  141.3740 N   0  0  0  0  0  0  0  0  0  0  0  0
  190.9960  177.5150  141.5480 N   0  0  0  0  0  0  0  0  0  0  0  0
  191.8020  177.2310  142.5310 C   0  0  0  0  0  3  0  0  0  0  0  0
  189.5870  177.4090  141.7580 C   0  0  0  0  0  0  0  0  0  0  0  0
  187.5780  178.1710  142.1460 C   0  0  0  0  0  3  0  0  0  0  0  0
  191.2690  176.8430  143.8640 C   0  0  0  0  0  3  0  0  0  0  0  0
  1  2  2  0  0  0  0
  1  4  1  0  0  0  0
  2  5  1  0  0  0  0
  4  6  2  0  0  0  0
  5  3  2  0  0  0  0
  6  3  1  0  0  0  0
  7  8  1  0  0  0  0
  8  2  1  0  0  0  0
  9  8  2  0  0  0  0
 10 14  1  0  0  0  0
 12 15  1  0  0  0  0
 12 16  2  0  0  0  0
 13 11  2  0  0  0  0
 13  7  1  0  0  0  0
 14 11  1  0  0  0  0
 15 10  2  0  0  0  0
 16 13  1  0  0  0  0
 17  1  1  0  0  0  0
 19 17  1  0  0  0  0
 20 19  1  0  0  0  0
 20 18  1  1  0  0  0
 21 24  2  0  0  0  0
 21 25  1  0  0  0  0
 22 24  1  0  0  0  0
 22 23  2  0  0  0  0
 23 26  1  0  0  0  0
 24 20  1  0  0  0  0
 25 19  2  0  0  0  0
 26 18  2  0  0  0  0
M  END
>  <MODEL>
6

>  <REMARK>
 VINA RESULT:      -8.3      2.502      7.363
  Name = 
  4 active torsions:
  status: ('A' for Active; 'I' for Inactive)
    1  A    between atoms: C_2  and  C_18
    2  A    between atoms: C_4  and  C_13
    3  A    between atoms: N_5  and  C_20
    4  A    between atoms: C_7  and  C_18
                            x       y       z     vdW  Elec       q    Type
                         _______ _______ _______ _____ _____    ______ ____

>  <TORSDO>
F 4

$$$$
=
 OpenBabel11032421303D

 26 29  0  0  1  0  0  0  0  0999 V2000
  189.5590  176.7520  143.4680 C   0  0  0  0  0  0  0  0  0  0  0  0
  190.2420  177.2340  142.3280 C   0  0  0  0  0  0  0  0  0  0  0  0
  192.0310  177.9080  143.7690 N   0  0  0  0  0  0  0  0  0  0  0  0
  190.1350  176.8710  144.6950 N   0  0  0  0  0  0  0  0  0  0  0  0
  191.4970  177.8200  142.5240 C   0  0  0  0  0  3  0  0  0  0  0  0
  191.3580  177.4380  144.8490 C   0  0  0  0  0  3  0  0  0  0  0  0
  188.6840  178.0910  140.5460 N   0  0  0  0  0  2  0  0  0  0  0  0
  189.6970  177.1600  140.9530 C   0  0  0  0  0  0  0  0  0  0  0  0
  190.1020  176.2740  140.1540 O   0  0  0  0  0  0  0  0  0  0  0  0
  186.9680  177.4970  136.4820 C   0  0  0  0  0  3  0  0  0  0  0  0
  186.9220  177.9560  138.9150 C   0  0  0  0  0  3  0  0  0  0  0  0
  189.1600  178.6010  136.9060 C   0  0  0  0  0  3  0  0  0  0  0  0
  188.1880  178.2800  139.2130 C   0  0  0  0  0  0  0  0  0  0  0  0
  186.2760  178.2120  137.5940 C   0  0  0  0  0  2  0  0  0  0  0  0
  188.2420  177.7170  136.1610 C   0  0  0  0  0  3  0  0  0  0  0  0
  189.1310  178.8410  138.2230 C   0  0  0  0  0  3  0  0  0  0  0  0
  188.1800  176.1730  143.3820 C   0  0  0  0  0  2  0  0  0  0  0  0
  187.2950  177.3930  146.3260 C   0  0  0  0  0  3  0  0  0  0  0  0
  187.1540  177.1620  143.8230 C   0  0  0  0  0  0  0  0  0  0  0  0
  187.2790  178.0790  144.9860 C   0  0  1  0  0  3  0  0  0  0  0  0
  185.3280  178.4910  143.7830 N   0  0  0  0  0  0  0  0  0  0  0  0
  185.3950  179.4750  145.9510 N   0  0  0  0  0  0  0  0  0  0  0  0
  185.6790  179.0510  147.1500 C   0  0  0  0  0  3  0  0  0  0  0  0
  186.0040  178.8320  144.8300 C   0  0  0  0  0  0  0  0  0  0  0  0
  186.0730  177.4750  143.1200 C   0  0  0  0  0  3  0  0  0  0  0  0
  186.5870  177.8900  147.3520 C   0  0  0  0  0  3  0  0  0  0  0  0
  1  4  1  0  0  0  0
  2  5  1  0  0  0  0
  2  1  2  0  0  0  0
  3  6  1  0  0  0  0
  4  6  2  0  0  0  0
  5  3  2  0  0  0  0
  7  8  1  0  0  0  0
  8  2  1  0  0  0  0
  9  8  2  0  0  0  0
 10 14  1  0  0  0  0
 11 13  2  0  0  0  0
 12 16  2  0  0  0  0
 13  7  1  0  0  0  0
 14 11  1  0  0  0  0
 15 10  2  0  0  0  0
 15 12  1  0  0  0  0
 16 13  1  0  0  0  0
 17  1  1  0  0  0  0
 17 19  1  0  0  0  0
 18 26  2  0  0  0  0
 19 20  1  0  0  0  0
 20 18  1  1  0  0  0
 21 24  2  0  0  0  0
 22 23  2  0  0  0  0
 23 26  1  0  0  0  0
 24 20  1  0  0  0  0
 24 22  1  0  0  0  0
 25 21  1  0  0  0  0
 25 19  2  0  0  0  0
M  END
>  <MODEL>
7

>  <REMARK>
 VINA RESULT:      -8.3      2.190      3.297
  Name = 
  4 active torsions:
  status: ('A' for Active; 'I' for Inactive)
    1  A    between atoms: C_2  and  C_18
    2  A    between atoms: C_4  and  C_13
    3  A    between atoms: N_5  and  C_20
    4  A    between atoms: C_7  and  C_18
                            x       y       z     vdW  Elec       q    Type
                         _______ _______ _______ _____ _____    ______ ____

>  <TORSDO>
F 4

$$$$
=
 OpenBabel11032421303D

 26 29  0  0  1  0  0  0  0  0999 V2000
  186.9030  178.6490  141.3410 C   0  0  0  0  0  0  0  0  0  0  0  0
  186.3120  178.0010  142.4490 C   0  0  0  0  0  0  0  0  0  0  0  0
  184.1750  178.3520  141.4280 N   0  0  0  0  0  0  0  0  0  0  0  0
  186.1120  179.1170  140.3370 N   0  0  0  0  0  0  0  0  0  0  0  0
  184.9190  177.8730  142.4570 C   0  0  0  0  0  3  0  0  0  0  0  0
  184.7640  178.9700  140.3740 C   0  0  0  0  0  3  0  0  0  0  0  0
  187.3140  178.2980  144.7400 N   0  0  0  0  0  2  0  0  0  0  0  0
  187.0830  177.4650  143.5930 C   0  0  0  0  0  0  0  0  0  0  0  0
  187.5540  176.2970  143.5540 O   0  0  0  0  0  0  0  0  0  0  0  0
  189.0350  178.1860  148.8430 C   0  0  0  0  0  3  0  0  0  0  0  0
  187.2370  178.1740  147.1400 C   0  0  0  0  0  3  0  0  0  0  0  0
  190.1170  177.1310  146.8640 C   0  0  0  0  0  3  0  0  0  0  0  0
  187.8700  177.8830  145.9950 C   0  0  0  0  0  0  0  0  0  0  0  0
  187.6710  177.6980  148.4860 C   0  0  0  0  0  2  0  0  0  0  0  0
  190.1200  177.8850  148.1330 C   0  0  0  0  0  3  0  0  0  0  0  0
  189.1430  177.1330  145.9460 C   0  0  0  0  0  3  0  0  0  0  0  0
  188.3770  178.9040  141.2630 C   0  0  0  0  0  2  0  0  0  0  0  0
  188.3040  178.5150  137.9790 C   0  0  0  0  0  3  0  0  0  0  0  0
  189.0380  177.9540  140.3210 C   0  0  0  0  0  0  0  0  0  0  0  0
  189.4480  178.2620  138.9260 C   0  0  1  0  0  3  0  0  0  0  0  0
  190.1330  176.1300  139.5630 N   0  0  0  0  0  0  0  0  0  0  0  0
  190.2140  176.5510  137.2200 N   0  0  0  0  0  0  0  0  0  0  0  0
  189.3880  177.0400  136.3400 C   0  0  0  0  0  3  0  0  0  0  0  0
  190.0990  176.9690  138.5810 C   0  0  0  0  0  0  0  0  0  0  0  0
  189.5100  176.7650  140.6740 C   0  0  0  0  0  3  0  0  0  0  0  0
  188.3140  177.9850  136.7460 C   0  0  0  0  0  3  0  0  0  0  0  0
  1  2  1  0  0  0  0
  2  5  2  0  0  0  0
  2  8  1  0  0  0  0
  3  5  1  0  0  0  0
  4  6  1  0  0  0  0
  4  1  2  0  0  0  0
  6  3  2  0  0  0  0
  7 13  1  0  0  0  0
  8  7  1  0  0  0  0
  9  8  2  0  0  0  0
 11 14  1  0  0  0  0
 12 15  1  0  0  0  0
 13 11  2  0  0  0  0
 14 10  1  0  0  0  0
 15 10  2  0  0  0  0
 16 13  1  0  0  0  0
 16 12  2  0  0  0  0
 17  1  1  0  0  0  0
 19 25  2  0  0  0  0
 19 17  1  0  0  0  0
 20 18  1  6  0  0  0
 20 19  1  0  0  0  0
 21 25  1  0  0  0  0
 22 24  1  0  0  0  0
 23 26  1  0  0  0  0
 23 22  2  0  0  0  0
 24 20  1  0  0  0  0
 24 21  2  0  0  0  0
 26 18  2  0  0  0  0
M  END
>  <MODEL>
8

>  <REMARK>
 VINA RESULT:      -8.3      2.638      7.692
  Name = 
  4 active torsions:
  status: ('A' for Active; 'I' for Inactive)
    1  A    between atoms: C_2  and  C_18
    2  A    between atoms: C_4  and  C_13
    3  A    between atoms: N_5  and  C_20
    4  A    between atoms: C_7  and  C_18
                            x       y       z     vdW  Elec       q    Type
                         _______ _______ _______ _____ _____    ______ ____

>  <TORSDO>
F 4

$$$$
=
 OpenBabel11032421303D

 26 29  0  0  1  0  0  0  0  0999 V2000
  186.1750  177.8620  144.3070 C   0  0  0  0  0  0  0  0  0  0  0  0
  185.2090  178.7210  143.7340 C   0  0  0  0  0  0  0  0  0  0  0  0
  184.3720  179.1390  145.9370 N   0  0  0  0  0  0  0  0  0  0  0  0
  186.1940  177.6800  145.6550 N   0  0  0  0  0  0  0  0  0  0  0  0
  184.3060  179.3500  144.5980 C   0  0  0  0  0  3  0  0  0  0  0  0
  185.3080  178.3110  146.4660 C   0  0  0  0  0  3  0  0  0  0  0  0
  184.0720  178.3200  141.5230 N   0  0  0  0  0  2  0  0  0  0  0  0
  185.1000  178.9780  142.2800 C   0  0  0  0  0  0  0  0  0  0  0  0
  185.9150  179.7480  141.7050 O   0  0  0  0  0  0  0  0  0  0  0  0
  182.0430  178.4380  137.5640 C   0  0  0  0  0  3  0  0  0  0  0  0
  182.5270  179.1580  139.8830 C   0  0  0  0  0  3  0  0  0  0  0  0
  184.4430  177.8460  137.8660 C   0  0  0  0  0  3  0  0  0  0  0  0
  183.7100  178.5950  140.1620 C   0  0  0  0  0  0  0  0  0  0  0  0
  182.0980  179.5830  138.5180 C   0  0  0  0  0  2  0  0  0  0  0  0
  183.1090  177.7040  137.2510 C   0  0  0  0  0  3  0  0  0  0  0  0
  184.6960  178.2330  139.1230 C   0  0  0  0  0  3  0  0  0  0  0  0
  187.1420  177.0830  143.4690 C   0  0  0  0  0  2  0  0  0  0  0  0
  188.9790  176.7090  146.1950 C   0  0  0  0  0  3  0  0  0  0  0  0
  188.5520  177.4250  143.8190 C   0  0  0  0  0  0  0  0  0  0  0  0
  189.4210  176.6650  144.7550 C   0  0  1  0  0  3  0  0  0  0  0  0
  190.5900  178.3930  143.7210 N   0  0  0  0  0  0  0  0  0  0  0  0
  191.6640  177.4570  145.6310 N   0  0  0  0  0  0  0  0  0  0  0  0
  191.3010  177.1760  146.8500 C   0  0  0  0  0  3  0  0  0  0  0  0
  190.6770  177.4480  144.5970 C   0  0  0  0  0  0  0  0  0  0  0  0
  189.2690  178.3500  143.1930 C   0  0  0  0  0  3  0  0  0  0  0  0
  189.8780  176.8900  147.1740 C   0  0  0  0  0  3  0  0  0  0  0  0
  1  4  1  0  0  0  0
  2  1  2  0  0  0  0
  2  5  1  0  0  0  0
  3  6  1  0  0  0  0
  4  6  2  0  0  0  0
  5  3  2  0  0  0  0
  7  8  1  0  0  0  0
  8  2  1  0  0  0  0
  9  8  2  0  0  0  0
 10 14  1  0  0  0  0
 11 13  2  0  0  0  0
 12 16  2  0  0  0  0
 13  7  1  0  0  0  0
 14 11  1  0  0  0  0
 15 10  2  0  0  0  0
 15 12  1  0  0  0  0
 16 13  1  0  0  0  0
 17 19  1  0  0  0  0
 17  1  1  0  0  0  0
 18 26  2  0  0  0  0
 19 20  1  0  0  0  0
 20 18  1  1  0  0  0
 21 24  2  0  0  0  0
 22 23  2  0  0  0  0
 23 26  1  0  0  0  0
 24 20  1  0  0  0  0
 24 22  1  0  0  0  0
 25 21  1  0  0  0  0
 25 19  2  0  0  0  0
M  END
>  <MODEL>
9

>  <REMARK>
 VINA RESULT:      -8.2      3.111      6.549
  Name = 
  4 active torsions:
  status: ('A' for Active; 'I' for Inactive)
    1  A    between atoms: C_2  and  C_18
    2  A    between atoms: C_4  and  C_13
    3  A    between atoms: N_5  and  C_20
    4  A    between atoms: C_7  and  C_18
                            x       y       z     vdW  Elec       q    Type
                         _______ _______ _______ _____ _____    ______ ____

>  <TORSDO>
F 4

$$$$
