=
 OpenBabel11042410243D

 29 32  0  0  1  0  0  0  0  0999 V2000
  185.6940  178.6080  143.2390 C   0  0  2  0  0  3  0  0  0  0  0  0
  187.2810  177.5830  146.1220 C   0  0  0  0  0  2  0  0  0  0  0  0
  185.6920  179.1510  145.4410 O   0  0  0  0  0  0  0  0  0  0  0  0
  186.8490  177.8850  142.5700 C   0  0  2  0  0  3  0  0  0  0  0  0
  186.3370  178.6500  146.5810 C   0  0  0  0  0  2  0  0  0  0  0  0
  187.6390  177.2720  143.6990 C   0  0  1  0  0  3  0  0  0  0  0  0
  186.6470  177.1590  144.8370 C   0  0  2  0  0  3  0  0  0  0  0  0
  185.5410  178.0880  144.5970 N   0  0  2  0  0  0  0  0  0  0  0  0
  179.2660  178.8530  142.2030 S   0  0  0  0  0  0  0  0  0  0  0  0
  181.7090  178.2920  141.3110 N   0  0  0  0  0  0  0  0  0  0  0  0
  184.4220  178.4470  142.4730 C   0  0  0  0  0  0  0  0  0  0  0  0
  181.9070  178.8480  142.4560 C   0  0  0  0  0  0  0  0  0  0  0  0
  183.2110  178.9620  143.0340 N   0  0  0  0  0  2  0  0  0  0  0  0
  184.4160  177.8250  141.3760 O   0  0  0  0  0  0  0  0  0  0  0  0
  180.3330  178.2340  140.8600 C   0  0  1  0  0  3  0  0  0  0  0  0
  180.7180  179.3520  143.1750 C   0  0  0  0  0  2  0  0  0  0  0  0
  179.9520  176.8340  140.5100 C   0  0  0  0  0  0  0  0  0  0  0  0
  179.7590  174.5240  139.6520 C   0  0  0  0  0  3  0  0  0  0  0  0
  178.9870  174.8210  140.7770 C   0  0  0  0  0  3  0  0  0  0  0  0
  179.1050  176.0920  141.2500 N   0  0  0  0  0  0  0  0  0  0  0  0
  180.6100  175.9260  139.2610 S   0  0  0  0  0  0  0  0  0  0  0  0
  188.0790  178.2050  140.3720 C   0  0  0  0  0  1  0  0  0  0  0  0
  187.6950  178.8230  141.7090 C   0  0  0  0  0  2  0  0  0  0  0  0
  188.1110  175.9500  143.3230 N   0  0  0  0  0  2  0  0  0  0  0  0
  189.5300  176.0700  143.0220 C   0  0  0  0  0  2  0  0  0  0  0  0
  190.2470  176.7800  144.1590 C   0  0  0  0  0  2  0  0  0  0  0  0
  191.4910  177.4910  142.1420 C   0  0  0  0  0  1  0  0  0  0  0  0
  191.3440  177.6920  143.6340 C   0  0  0  0  0  3  0  0  0  0  0  0
  190.9950  179.1400  143.9090 C   0  0  0  0  0  1  0  0  0  0  0  0
  1 11  1  6  0  0  0
  1  8  1  0  0  0  0
  2  5  1  0  0  0  0
  3  5  1  0  0  0  0
  4 23  1  1  0  0  0
  4  1  1  0  0  0  0
  4  6  1  0  0  0  0
  6 24  1  6  0  0  0
  6  7  1  0  0  0  0
  7  2  1  1  0  0  0
  8  7  1  0  0  0  0
  8  3  1  1  0  0  0
  9 16  1  0  0  0  0
 10 12  2  0  0  0  0
 11 13  1  0  0  0  0
 12 13  1  0  0  0  0
 12 16  1  0  0  0  0
 14 11  2  0  0  0  0
 15 17  1  1  0  0  0
 15 10  1  0  0  0  0
 15  9  1  0  0  0  0
 17 20  2  0  0  0  0
 18 19  2  0  0  0  0
 19 20  1  0  0  0  0
 21 18  1  0  0  0  0
 21 17  1  0  0  0  0
 22 23  1  0  0  0  0
 25 24  1  0  0  0  0
 25 26  1  0  0  0  0
 27 28  1  0  0  0  0
 28 29  1  0  0  0  0
 28 26  1  0  0  0  0
M  END
>  <MODEL>
1

>  <REMARK>
 VINA RESULT:      -7.5      0.000      0.000
  Name = 
  7 active torsions:
  status: ('A' for Active; 'I' for Inactive)
    1  A    between atoms: C_1  and  C_27
    2  A    between atoms: C_4  and  C_5
    3  A    between atoms: N_6  and  C_10
    4  A    between atoms: N_6  and  C_21
    5  A    between atoms: C_10  and  C_19
    6  A    between atoms: C_13  and  C_18
    7  A    between atoms: C_19  and  C_22
                            x       y       z     vdW  Elec       q    Type
                         _______ _______ _______ _____ _____    ______ ____

>  <TORSDO>
F 7

$$$$
=
 OpenBabel11042410243D

 29 32  0  0  1  0  0  0  0  0999 V2000
  190.3400  177.9370  141.3820 C   0  0  2  0  0  3  0  0  0  0  0  0
  187.1980  177.8330  142.7950 C   0  0  0  0  0  2  0  0  0  0  0  0
  188.2650  178.7290  140.9220 O   0  0  0  0  0  0  0  0  0  0  0  0
  190.7750  177.5290  142.7780 C   0  0  2  0  0  3  0  0  0  0  0  0
  187.0050  178.6030  141.5250 C   0  0  0  0  0  2  0  0  0  0  0  0
  189.4950  177.3420  143.5520 C   0  0  1  0  0  3  0  0  0  0  0  0
  188.4480  177.0720  142.4930 C   0  0  2  0  0  3  0  0  0  0  0  0
  188.9350  177.5730  141.2060 N   0  0  2  0  0  0  0  0  0  0  0  0
  191.7300  173.8100  136.5350 S   0  0  0  0  0  0  0  0  0  0  0  0
  192.4910  175.7790  138.1550 N   0  0  0  0  0  0  0  0  0  0  0  0
  191.1810  177.2920  140.3290 C   0  0  0  0  0  0  0  0  0  0  0  0
  191.2330  175.6340  138.3970 C   0  0  0  0  0  0  0  0  0  0  0  0
  190.5640  176.3700  139.4250 N   0  0  0  0  0  2  0  0  0  0  0  0
  192.4190  177.5230  140.2770 O   0  0  0  0  0  0  0  0  0  0  0  0
  193.0350  174.9530  137.0950 C   0  0  1  0  0  3  0  0  0  0  0  0
  190.4990  174.6470  137.5770 C   0  0  0  0  0  2  0  0  0  0  0  0
  194.2150  174.1810  137.5820 C   0  0  0  0  0  0  0  0  0  0  0  0
  196.0930  172.6190  137.9630 C   0  0  0  0  0  3  0  0  0  0  0  0
  196.1490  173.8200  138.6730 C   0  0  0  0  0  3  0  0  0  0  0  0
  195.1170  174.6800  138.4520 N   0  0  0  0  0  0  0  0  0  0  0  0
  194.6880  172.6670  137.0330 S   0  0  0  0  0  0  0  0  0  0  0  0
  190.9360  179.7520  143.9960 C   0  0  0  0  0  1  0  0  0  0  0  0
  191.6970  178.5660  143.4200 C   0  0  0  0  0  2  0  0  0  0  0  0
  189.6060  176.1960  144.4380 N   0  0  0  0  0  2  0  0  0  0  0  0
  189.7950  176.7110  145.7870 C   0  0  0  0  0  2  0  0  0  0  0  0
  188.8320  177.8590  146.0460 C   0  0  0  0  0  2  0  0  0  0  0  0
  188.1180  177.9260  148.4130 C   0  0  0  0  0  1  0  0  0  0  0  0
  187.7420  177.4550  147.0260 C   0  0  0  0  0  3  0  0  0  0  0  0
  186.4230  178.0830  146.6270 C   0  0  0  0  0  1  0  0  0  0  0  0
  1 11  1  6  0  0  0
  1  4  1  0  0  0  0
  3  5  1  0  0  0  0
  4 23  1  1  0  0  0
  4  6  1  0  0  0  0
  5  2  1  0  0  0  0
  6 24  1  1  0  0  0
  7  2  1  1  0  0  0
  7  6  1  0  0  0  0
  8  3  1  1  0  0  0
  8  1  1  0  0  0  0
  8  7  1  0  0  0  0
  9 15  1  0  0  0  0
  9 16  1  0  0  0  0
 10 12  2  0  0  0  0
 12 13  1  0  0  0  0
 13 11  1  0  0  0  0
 14 11  2  0  0  0  0
 15 17  1  1  0  0  0
 15 10  1  0  0  0  0
 16 12  1  0  0  0  0
 17 20  2  0  0  0  0
 18 19  2  0  0  0  0
 20 19  1  0  0  0  0
 21 17  1  0  0  0  0
 21 18  1  0  0  0  0
 23 22  1  0  0  0  0
 24 25  1  0  0  0  0
 25 26  1  0  0  0  0
 26 28  1  0  0  0  0
 28 27  1  0  0  0  0
 29 28  1  0  0  0  0
M  END
>  <MODEL>
2

>  <REMARK>
 VINA RESULT:      -7.0      5.728      9.404
  Name = 
  7 active torsions:
  status: ('A' for Active; 'I' for Inactive)
    1  A    between atoms: C_1  and  C_27
    2  A    between atoms: C_4  and  C_5
    3  A    between atoms: N_6  and  C_10
    4  A    between atoms: N_6  and  C_21
    5  A    between atoms: C_10  and  C_19
    6  A    between atoms: C_13  and  C_18
    7  A    between atoms: C_19  and  C_22
                            x       y       z     vdW  Elec       q    Type
                         _______ _______ _______ _____ _____    ______ ____

>  <TORSDO>
F 7

$$$$
=
 OpenBabel11042410243D

 29 32  0  0  1  0  0  0  0  0999 V2000
  188.2620  178.6320  141.4450 C   0  0  2  0  0  3  0  0  0  0  0  0
  185.6500  178.4070  143.6820 C   0  0  0  0  0  2  0  0  0  0  0  0
  186.1920  179.5210  141.7040 O   0  0  0  0  0  0  0  0  0  0  0  0
  189.0510  178.0340  142.5950 C   0  0  2  0  0  3  0  0  0  0  0  0
  185.1500  179.3430  142.6250 C   0  0  0  0  0  2  0  0  0  0  0  0
  188.0350  177.7720  143.6780 C   0  0  1  0  0  3  0  0  0  0  0  0
  186.7160  177.6670  142.9420 C   0  0  2  0  0  3  0  0  0  0  0  0
  186.8470  178.3240  141.6390 N   0  0  2  0  0  0  0  0  0  0  0  0
  188.0030  177.4990  135.0330 S   0  0  0  0  0  0  0  0  0  0  0  0
  189.2950  177.2700  137.3480 N   0  0  0  0  0  0  0  0  0  0  0  0
  188.7300  178.1150  140.1240 C   0  0  0  0  0  0  0  0  0  0  0  0
  188.2890  178.0300  137.6170 C   0  0  0  0  0  0  0  0  0  0  0  0
  188.0040  178.4780  138.9460 N   0  0  0  0  0  2  0  0  0  0  0  0
  189.7190  177.3340  140.0620 O   0  0  0  0  0  0  0  0  0  0  0  0
  189.4480  176.8840  135.9600 C   0  0  1  0  0  3  0  0  0  0  0  0
  187.4130  178.4110  136.4900 C   0  0  0  0  0  2  0  0  0  0  0  0
  189.5410  175.4000  135.8340 C   0  0  0  0  0  0  0  0  0  0  0  0
  190.1150  173.0470  135.3420 C   0  0  0  0  0  3  0  0  0  0  0  0
  189.2530  173.2490  136.4210 C   0  0  0  0  0  3  0  0  0  0  0  0
  188.9480  174.5470  136.6930 N   0  0  0  0  0  0  0  0  0  0  0  0
  190.4920  174.5700  134.7270 S   0  0  0  0  0  0  0  0  0  0  0  0
  191.4930  178.2190  143.2670 C   0  0  0  0  0  1  0  0  0  0  0  0
  190.1770  178.9560  143.0630 C   0  0  0  0  0  2  0  0  0  0  0  0
  188.3270  176.5170  144.3480 N   0  0  0  0  0  2  0  0  0  0  0  0
  189.0020  176.8420  145.5960 C   0  0  0  0  0  2  0  0  0  0  0  0
  188.3990  178.0990  146.2030 C   0  0  0  0  0  2  0  0  0  0  0  0
  188.2000  178.0700  148.6680 C   0  0  0  0  0  1  0  0  0  0  0  0
  187.4850  177.7650  147.3710 C   0  0  0  0  0  3  0  0  0  0  0  0
  186.2180  178.5910  147.2950 C   0  0  0  0  0  1  0  0  0  0  0  0
  1 11  1  6  0  0  0
  1  8  1  0  0  0  0
  1  4  1  0  0  0  0
  3  5  1  0  0  0  0
  4 23  1  1  0  0  0
  4  6  1  0  0  0  0
  5  2  1  0  0  0  0
  6 24  1  6  0  0  0
  7  6  1  0  0  0  0
  7  2  1  1  0  0  0
  8  3  1  1  0  0  0
  8  7  1  0  0  0  0
  9 15  1  0  0  0  0
  9 16  1  0  0  0  0
 10 12  2  0  0  0  0
 12 13  1  0  0  0  0
 13 11  1  0  0  0  0
 14 11  2  0  0  0  0
 15 17  1  1  0  0  0
 15 10  1  0  0  0  0
 16 12  1  0  0  0  0
 17 20  2  0  0  0  0
 18 19  2  0  0  0  0
 19 20  1  0  0  0  0
 21 18  1  0  0  0  0
 21 17  1  0  0  0  0
 23 22  1  0  0  0  0
 24 25  1  0  0  0  0
 25 26  1  0  0  0  0
 26 28  1  0  0  0  0
 28 27  1  0  0  0  0
 29 28  1  0  0  0  0
M  END
>  <MODEL>
3

>  <REMARK>
 VINA RESULT:      -6.9      4.485      6.966
  Name = 
  7 active torsions:
  status: ('A' for Active; 'I' for Inactive)
    1  A    between atoms: C_1  and  C_27
    2  A    between atoms: C_4  and  C_5
    3  A    between atoms: N_6  and  C_10
    4  A    between atoms: N_6  and  C_21
    5  A    between atoms: C_10  and  C_19
    6  A    between atoms: C_13  and  C_18
    7  A    between atoms: C_19  and  C_22
                            x       y       z     vdW  Elec       q    Type
                         _______ _______ _______ _____ _____    ______ ____

>  <TORSDO>
F 7

$$$$
=
 OpenBabel11042410243D

 29 32  0  0  1  0  0  0  0  0999 V2000
  188.6770  178.2910  142.1320 C   0  0  2  0  0  3  0  0  0  0  0  0
  186.2580  177.6680  144.5060 C   0  0  0  0  0  2  0  0  0  0  0  0
  186.4620  178.6880  142.4160 O   0  0  0  0  0  0  0  0  0  0  0  0
  189.6180  178.0060  143.2880 C   0  0  2  0  0  3  0  0  0  0  0  0
  185.5190  178.3560  143.4000 C   0  0  0  0  0  2  0  0  0  0  0  0
  188.7250  177.6150  144.4380 C   0  0  1  0  0  3  0  0  0  0  0  0
  187.4490  177.1340  143.7790 C   0  0  2  0  0  3  0  0  0  0  0  0
  187.3820  177.6780  142.4210 N   0  0  2  0  0  0  0  0  0  0  0  0
  189.1260  177.6750  135.6610 S   0  0  0  0  0  0  0  0  0  0  0  0
  189.9980  177.0230  138.0880 N   0  0  0  0  0  0  0  0  0  0  0  0
  189.2180  177.7770  140.8380 C   0  0  0  0  0  0  0  0  0  0  0  0
  189.1360  177.9570  138.2990 C   0  0  0  0  0  0  0  0  0  0  0  0
  188.7570  178.3640  139.6170 N   0  0  0  0  0  2  0  0  0  0  0  0
  190.0300  176.8120  140.8280 O   0  0  0  0  0  0  0  0  0  0  0  0
  190.2690  176.7070  136.7000 C   0  0  1  0  0  3  0  0  0  0  0  0
  188.5250  178.5900  137.1110 C   0  0  0  0  0  2  0  0  0  0  0  0
  190.0810  175.2490  136.4450 C   0  0  0  0  0  0  0  0  0  0  0  0
  189.2660  172.9500  136.0500 C   0  0  0  0  0  3  0  0  0  0  0  0
  190.5870  173.1990  135.6720 C   0  0  0  0  0  3  0  0  0  0  0  0
  191.0270  174.4690  135.8830 N   0  0  0  0  0  0  0  0  0  0  0  0
  188.6540  174.3940  136.6660 S   0  0  0  0  0  0  0  0  0  0  0  0
  191.8890  178.8000  144.1020 C   0  0  0  0  0  1  0  0  0  0  0  0
  190.5030  179.2070  143.6200 C   0  0  0  0  0  2  0  0  0  0  0  0
  189.3260  176.5310  145.1960 N   0  0  0  0  0  2  0  0  0  0  0  0
  189.5550  177.0270  146.5460 C   0  0  0  0  0  2  0  0  0  0  0  0
  188.3810  176.6640  147.4410 C   0  0  0  0  0  2  0  0  0  0  0  0
  189.3300  178.5890  148.6710 C   0  0  0  0  0  1  0  0  0  0  0  0
  188.0760  177.7780  148.4300 C   0  0  0  0  0  3  0  0  0  0  0  0
  186.9960  178.6850  147.8770 C   0  0  0  0  0  1  0  0  0  0  0  0
  1 11  1  6  0  0  0
  1  8  1  0  0  0  0
  1  4  1  0  0  0  0
  3  5  1  0  0  0  0
  4 23  1  1  0  0  0
  4  6  1  0  0  0  0
  5  2  1  0  0  0  0
  6 24  1  6  0  0  0
  7  6  1  0  0  0  0
  7  2  1  1  0  0  0
  8  3  1  1  0  0  0
  8  7  1  0  0  0  0
  9 15  1  0  0  0  0
  9 16  1  0  0  0  0
 10 12  2  0  0  0  0
 12 13  1  0  0  0  0
 13 11  1  0  0  0  0
 14 11  2  0  0  0  0
 15 17  1  1  0  0  0
 15 10  1  0  0  0  0
 16 12  1  0  0  0  0
 17 21  1  0  0  0  0
 18 21  1  0  0  0  0
 19 20  1  0  0  0  0
 19 18  2  0  0  0  0
 20 17  2  0  0  0  0
 23 22  1  0  0  0  0
 24 25  1  0  0  0  0
 25 26  1  0  0  0  0
 26 28  1  0  0  0  0
 28 27  1  0  0  0  0
 29 28  1  0  0  0  0
M  END
>  <MODEL>
4

>  <REMARK>
 VINA RESULT:      -6.8      4.667      7.171
  Name = 
  7 active torsions:
  status: ('A' for Active; 'I' for Inactive)
    1  A    between atoms: C_1  and  C_27
    2  A    between atoms: C_4  and  C_5
    3  A    between atoms: N_6  and  C_10
    4  A    between atoms: N_6  and  C_21
    5  A    between atoms: C_10  and  C_19
    6  A    between atoms: C_13  and  C_18
    7  A    between atoms: C_19  and  C_22
                            x       y       z     vdW  Elec       q    Type
                         _______ _______ _______ _____ _____    ______ ____

>  <TORSDO>
F 7

$$$$
=
 OpenBabel11042410243D

 29 32  0  0  1  0  0  0  0  0999 V2000
  188.7430  178.2530  142.2390 C   0  0  2  0  0  3  0  0  0  0  0  0
  186.4320  177.5510  144.6980 C   0  0  0  0  0  2  0  0  0  0  0  0
  186.5330  178.5990  142.6140 O   0  0  0  0  0  0  0  0  0  0  0  0
  189.7350  177.9760  143.3540 C   0  0  2  0  0  3  0  0  0  0  0  0
  185.6370  178.2350  143.6290 C   0  0  0  0  0  2  0  0  0  0  0  0
  188.8950  177.5530  144.5330 C   0  0  1  0  0  3  0  0  0  0  0  0
  187.6050  177.0520  143.9190 C   0  0  2  0  0  3  0  0  0  0  0  0
  187.4740  177.6090  142.5710 N   0  0  2  0  0  0  0  0  0  0  0  0
  189.0570  177.8380  135.7440 S   0  0  0  0  0  0  0  0  0  0  0  0
  189.9500  177.0780  138.1320 N   0  0  0  0  0  0  0  0  0  0  0  0
  189.2450  177.7660  140.9190 C   0  0  0  0  0  0  0  0  0  0  0  0
  189.1230  178.0330  138.3890 C   0  0  0  0  0  0  0  0  0  0  0  0
  188.7810  178.4070  139.7270 N   0  0  0  0  0  2  0  0  0  0  0  0
  190.0240  176.7760  140.8620 O   0  0  0  0  0  0  0  0  0  0  0  0
  190.1870  176.8010  136.7300 C   0  0  1  0  0  3  0  0  0  0  0  0
  188.5120  178.7230  137.2340 C   0  0  0  0  0  2  0  0  0  0  0  0
  189.9470  175.3590  136.4310 C   0  0  0  0  0  0  0  0  0  0  0  0
  189.9740  173.0160  135.6420 C   0  0  0  0  0  3  0  0  0  0  0  0
  189.2120  173.2630  136.7860 C   0  0  0  0  0  3  0  0  0  0  0  0
  189.2090  174.5530  137.2210 N   0  0  0  0  0  0  0  0  0  0  0  0
  190.6560  174.4870  135.1830 S   0  0  0  0  0  0  0  0  0  0  0  0
  192.0090  178.8100  144.1150 C   0  0  0  0  0  1  0  0  0  0  0  0
  190.6060  179.1930  143.6660 C   0  0  0  0  0  2  0  0  0  0  0  0
  189.5490  176.4750  145.2550 N   0  0  0  0  0  2  0  0  0  0  0  0
  189.5940  176.8620  146.6580 C   0  0  0  0  0  2  0  0  0  0  0  0
  191.0320  177.1040  147.0870 C   0  0  0  0  0  2  0  0  0  0  0  0
  192.4260  175.3040  146.1190 C   0  0  0  0  0  1  0  0  0  0  0  0
  191.7480  175.7950  147.3790 C   0  0  0  0  0  3  0  0  0  0  0  0
  192.7920  176.0010  148.4580 C   0  0  0  0  0  1  0  0  0  0  0  0
  1 11  1  6  0  0  0
  1  8  1  0  0  0  0
  1  4  1  0  0  0  0
  3  5  1  0  0  0  0
  4 23  1  1  0  0  0
  4  6  1  0  0  0  0
  5  2  1  0  0  0  0
  6 24  1  6  0  0  0
  7  6  1  0  0  0  0
  7  2  1  1  0  0  0
  8  3  1  1  0  0  0
  8  7  1  0  0  0  0
  9 15  1  0  0  0  0
  9 16  1  0  0  0  0
 10 12  2  0  0  0  0
 12 13  1  0  0  0  0
 13 11  1  0  0  0  0
 14 11  2  0  0  0  0
 15 17  1  1  0  0  0
 15 10  1  0  0  0  0
 16 12  1  0  0  0  0
 17 20  2  0  0  0  0
 18 19  2  0  0  0  0
 19 20  1  0  0  0  0
 21 18  1  0  0  0  0
 21 17  1  0  0  0  0
 23 22  1  0  0  0  0
 24 25  1  0  0  0  0
 25 26  1  0  0  0  0
 26 28  1  0  0  0  0
 27 28  1  0  0  0  0
 28 29  1  0  0  0  0
M  END
>  <MODEL>
5

>  <REMARK>
 VINA RESULT:      -6.6      4.780      6.956
  Name = 
  7 active torsions:
  status: ('A' for Active; 'I' for Inactive)
    1  A    between atoms: C_1  and  C_27
    2  A    between atoms: C_4  and  C_5
    3  A    between atoms: N_6  and  C_10
    4  A    between atoms: N_6  and  C_21
    5  A    between atoms: C_10  and  C_19
    6  A    between atoms: C_13  and  C_18
    7  A    between atoms: C_19  and  C_22
                            x       y       z     vdW  Elec       q    Type
                         _______ _______ _______ _____ _____    ______ ____

>  <TORSDO>
F 7

$$$$
=
 OpenBabel11042410243D

 29 32  0  0  1  0  0  0  0  0999 V2000
  189.9780  177.7450  139.5140 C   0  0  2  0  0  3  0  0  0  0  0  0
  192.5480  176.1570  137.8540 C   0  0  0  0  0  2  0  0  0  0  0  0
  192.2160  177.4680  139.7570 O   0  0  0  0  0  0  0  0  0  0  0  0
  189.2670  177.5780  138.1830 C   0  0  2  0  0  3  0  0  0  0  0  0
  193.2030  176.7560  139.0600 C   0  0  0  0  0  2  0  0  0  0  0  0
  190.2260  176.8010  137.3170 C   0  0  1  0  0  3  0  0  0  0  0  0
  191.1240  176.0790  138.3000 C   0  0  2  0  0  3  0  0  0  0  0  0
  191.0580  176.7630  139.5930 N   0  0  2  0  0  0  0  0  0  0  0  0
  184.9150  179.1860  143.3530 S   0  0  0  0  0  0  0  0  0  0  0  0
  186.9810  177.6090  142.7850 N   0  0  0  0  0  0  0  0  0  0  0  0
  189.0410  177.5830  140.6660 C   0  0  0  0  0  0  0  0  0  0  0  0
  186.9090  178.4160  141.7830 C   0  0  0  0  0  0  0  0  0  0  0  0
  187.8760  178.4100  140.7280 N   0  0  0  0  0  2  0  0  0  0  0  0
  189.3050  176.7630  141.5880 O   0  0  0  0  0  0  0  0  0  0  0  0
  185.9400  177.7410  143.7850 C   0  0  1  0  0  3  0  0  0  0  0  0
  185.7880  179.3780  141.7720 C   0  0  0  0  0  2  0  0  0  0  0  0
  186.5340  177.9240  145.1410 C   0  0  0  0  0  0  0  0  0  0  0  0
  187.0250  178.2530  147.5410 C   0  0  0  0  0  3  0  0  0  0  0  0
  188.0690  177.7360  146.7740 C   0  0  0  0  0  3  0  0  0  0  0  0
  187.7900  177.5480  145.4550 N   0  0  0  0  0  0  0  0  0  0  0  0
  185.7170  178.4720  146.5020 S   0  0  0  0  0  0  0  0  0  0  0  0
  187.5410  178.8690  136.8410 C   0  0  0  0  0  1  0  0  0  0  0  0
  188.8800  178.9210  137.5640 C   0  0  0  0  0  2  0  0  0  0  0  0
  189.5040  175.8350  136.5080 N   0  0  0  0  0  2  0  0  0  0  0  0
  188.4270  175.3030  137.3310 C   0  0  0  0  0  2  0  0  0  0  0  0
  187.9240  173.9920  136.7500 C   0  0  0  0  0  2  0  0  0  0  0  0
  185.8030  173.0430  137.5980 C   0  0  0  0  0  1  0  0  0  0  0  0
  186.4110  174.0010  136.5970 C   0  0  0  0  0  3  0  0  0  0  0  0
  185.8690  175.3920  136.8480 C   0  0  0  0  0  1  0  0  0  0  0  0
  1  8  1  0  0  0  0
  1 11  1  1  0  0  0
  2  5  1  0  0  0  0
  4 23  1  6  0  0  0
  4  1  1  0  0  0  0
  5  3  1  0  0  0  0
  6 24  1  1  0  0  0
  6  4  1  0  0  0  0
  6  7  1  0  0  0  0
  7  2  1  6  0  0  0
  7  8  1  0  0  0  0
  8  3  1  6  0  0  0
  9 15  1  0  0  0  0
 10 15  1  0  0  0  0
 11 13  1  0  0  0  0
 11 14  2  0  0  0  0
 12 10  2  0  0  0  0
 13 12  1  0  0  0  0
 15 17  1  1  0  0  0
 16 12  1  0  0  0  0
 16  9  1  0  0  0  0
 17 20  2  0  0  0  0
 17 21  1  0  0  0  0
 19 18  2  0  0  0  0
 20 19  1  0  0  0  0
 21 18  1  0  0  0  0
 22 23  1  0  0  0  0
 24 25  1  0  0  0  0
 26 25  1  0  0  0  0
 28 26  1  0  0  0  0
 28 29  1  0  0  0  0
 28 27  1  0  0  0  0
M  END
>  <MODEL>
6

>  <REMARK>
 VINA RESULT:      -6.6      4.374      7.612
  Name = 
  7 active torsions:
  status: ('A' for Active; 'I' for Inactive)
    1  A    between atoms: C_1  and  C_27
    2  A    between atoms: C_4  and  C_5
    3  A    between atoms: N_6  and  C_10
    4  A    between atoms: N_6  and  C_21
    5  A    between atoms: C_10  and  C_19
    6  A    between atoms: C_13  and  C_18
    7  A    between atoms: C_19  and  C_22
                            x       y       z     vdW  Elec       q    Type
                         _______ _______ _______ _____ _____    ______ ____

>  <TORSDO>
F 7

$$$$
=
 OpenBabel11042410243D

 29 32  0  0  1  0  0  0  0  0999 V2000
  189.7660  177.4090  139.9620 C   0  0  2  0  0  3  0  0  0  0  0  0
  192.0700  176.0490  137.7890 C   0  0  0  0  0  2  0  0  0  0  0  0
  192.0200  177.3800  139.7060 O   0  0  0  0  0  0  0  0  0  0  0  0
  188.8040  177.1240  138.8230 C   0  0  2  0  0  3  0  0  0  0  0  0
  192.9030  176.7540  138.8140 C   0  0  0  0  0  2  0  0  0  0  0  0
  189.6310  176.4250  137.7730 C   0  0  1  0  0  3  0  0  0  0  0  0
  190.7960  175.8350  138.5380 C   0  0  2  0  0  3  0  0  0  0  0  0
  190.9390  176.5500  139.8090 N   0  0  2  0  0  0  0  0  0  0  0  0
  185.5280  178.4180  144.8070 S   0  0  0  0  0  0  0  0  0  0  0  0
  187.5910  177.0610  143.8150 N   0  0  0  0  0  0  0  0  0  0  0  0
  189.1290  177.1860  141.2940 C   0  0  0  0  0  0  0  0  0  0  0  0
  187.2090  177.8180  142.8440 C   0  0  0  0  0  0  0  0  0  0  0  0
  187.9160  177.8810  141.6020 N   0  0  0  0  0  2  0  0  0  0  0  0
  189.6810  176.4370  142.1440 O   0  0  0  0  0  0  0  0  0  0  0  0
  186.7850  177.1140  145.0180 C   0  0  1  0  0  3  0  0  0  0  0  0
  186.0070  178.6480  143.0700 C   0  0  0  0  0  2  0  0  0  0  0  0
  187.6350  177.4120  146.2080 C   0  0  0  0  0  0  0  0  0  0  0  0
  189.4300  177.8950  147.8370 C   0  0  0  0  0  3  0  0  0  0  0  0
  188.1350  178.2170  148.2470 C   0  0  0  0  0  3  0  0  0  0  0  0
  187.1520  177.9580  147.3430 N   0  0  0  0  0  0  0  0  0  0  0  0
  189.3050  177.2650  146.2790 S   0  0  0  0  0  0  0  0  0  0  0  0
  189.0530  179.1820  137.3560 C   0  0  0  0  0  1  0  0  0  0  0  0
  188.1450  178.3970  138.2930 C   0  0  0  0  0  2  0  0  0  0  0  0
  188.8600  175.3620  137.1520 N   0  0  0  0  0  2  0  0  0  0  0  0
  188.6090  175.7610  135.7740 C   0  0  0  0  0  2  0  0  0  0  0  0
  187.2300  175.2930  135.3380 C   0  0  0  0  0  2  0  0  0  0  0  0
  185.5340  176.7560  136.3870 C   0  0  0  0  0  1  0  0  0  0  0  0
  186.2940  176.4690  135.1110 C   0  0  0  0  0  3  0  0  0  0  0  0
  187.0850  177.6980  134.7170 C   0  0  0  0  0  1  0  0  0  0  0  0
  1 11  1  1  0  0  0
  2  5  1  0  0  0  0
  4 23  1  6  0  0  0
  4  1  1  0  0  0  0
  5  3  1  0  0  0  0
  6 24  1  1  0  0  0
  6  7  1  0  0  0  0
  6  4  1  0  0  0  0
  7  2  1  6  0  0  0
  7  8  1  0  0  0  0
  8  3  1  6  0  0  0
  8  1  1  0  0  0  0
  9 15  1  0  0  0  0
 10 15  1  0  0  0  0
 11 13  1  0  0  0  0
 11 14  2  0  0  0  0
 12 16  1  0  0  0  0
 12 10  2  0  0  0  0
 13 12  1  0  0  0  0
 15 17  1  1  0  0  0
 16  9  1  0  0  0  0
 17 21  1  0  0  0  0
 17 20  2  0  0  0  0
 18 19  2  0  0  0  0
 20 19  1  0  0  0  0
 21 18  1  0  0  0  0
 22 23  1  0  0  0  0
 25 24  1  0  0  0  0
 26 25  1  0  0  0  0
 28 26  1  0  0  0  0
 28 27  1  0  0  0  0
 29 28  1  0  0  0  0
M  END
>  <MODEL>
7

>  <REMARK>
 VINA RESULT:      -6.6      4.639      8.067
  Name = 
  7 active torsions:
  status: ('A' for Active; 'I' for Inactive)
    1  A    between atoms: C_1  and  C_27
    2  A    between atoms: C_4  and  C_5
    3  A    between atoms: N_6  and  C_10
    4  A    between atoms: N_6  and  C_21
    5  A    between atoms: C_10  and  C_19
    6  A    between atoms: C_13  and  C_18
    7  A    between atoms: C_19  and  C_22
                            x       y       z     vdW  Elec       q    Type
                         _______ _______ _______ _____ _____    ______ ____

>  <TORSDO>
F 7

$$$$
=
 OpenBabel11042410243D

 29 32  0  0  1  0  0  0  0  0999 V2000
  183.3310  178.5120  138.5580 C   0  0  2  0  0  3  0  0  0  0  0  0
  180.6150  176.5250  139.3000 C   0  0  0  0  0  2  0  0  0  0  0  0
  182.3230  176.6630  137.7150 O   0  0  0  0  0  0  0  0  0  0  0  0
  182.6160  179.5010  139.4590 C   0  0  2  0  0  3  0  0  0  0  0  0
  181.2350  175.8690  138.1050 C   0  0  0  0  0  2  0  0  0  0  0  0
  181.4050  178.7640  139.9730 C   0  0  1  0  0  3  0  0  0  0  0  0
  181.7690  177.3000  139.8440 C   0  0  2  0  0  3  0  0  0  0  0  0
  182.8540  177.1660  138.8690 N   0  0  2  0  0  0  0  0  0  0  0  0
  189.5610  177.0330  137.3480 S   0  0  0  0  0  0  0  0  0  0  0  0
  187.7660  178.4470  138.7120 N   0  0  0  0  0  0  0  0  0  0  0  0
  184.8140  178.5880  138.7180 C   0  0  0  0  0  0  0  0  0  0  0  0
  187.0730  177.8230  137.8230 C   0  0  0  0  0  0  0  0  0  0  0  0
  185.6440  177.8920  137.7820 N   0  0  0  0  0  2  0  0  0  0  0  0
  185.3160  179.2150  139.6900 O   0  0  0  0  0  0  0  0  0  0  0  0
  189.2030  178.2700  138.6390 C   0  0  1  0  0  3  0  0  0  0  0  0
  187.8150  177.0020  136.8440 C   0  0  0  0  0  2  0  0  0  0  0  0
  189.7440  177.8090  139.9510 C   0  0  0  0  0  0  0  0  0  0  0  0
  191.0990  177.0880  141.8890 C   0  0  0  0  0  3  0  0  0  0  0  0
  189.7990  177.5060  142.1790 C   0  0  0  0  0  3  0  0  0  0  0  0
  189.0610  177.9110  141.1090 N   0  0  0  0  0  0  0  0  0  0  0  0
  191.3010  177.2440  140.2230 S   0  0  0  0  0  0  0  0  0  0  0  0
  181.0520  180.6120  137.7950 C   0  0  0  0  0  1  0  0  0  0  0  0
  182.2460  180.7890  138.7240 C   0  0  0  0  0  2  0  0  0  0  0  0
  181.1700  179.0930  141.3680 N   0  0  0  0  0  2  0  0  0  0  0  0
  182.2580  178.5070  142.1370 C   0  0  0  0  0  2  0  0  0  0  0  0
  182.2160  179.0120  143.5700 C   0  0  0  0  0  2  0  0  0  0  0  0
  183.8060  178.8030  145.4530 C   0  0  0  0  0  1  0  0  0  0  0  0
  183.6060  179.3760  144.0680 C   0  0  0  0  0  3  0  0  0  0  0  0
  184.6590  178.8090  143.1380 C   0  0  0  0  0  1  0  0  0  0  0  0
  1 11  1  1  0  0  0
  1  8  1  0  0  0  0
  1  4  1  0  0  0  0
  3  5  1  0  0  0  0
  4 23  1  6  0  0  0
  4  6  1  0  0  0  0
  5  2  1  0  0  0  0
  6 24  1  1  0  0  0
  7  2  1  6  0  0  0
  7  6  1  0  0  0  0
  8  3  1  6  0  0  0
  8  7  1  0  0  0  0
  9 15  1  0  0  0  0
 11 14  2  0  0  0  0
 12 10  2  0  0  0  0
 13 12  1  0  0  0  0
 13 11  1  0  0  0  0
 15 10  1  0  0  0  0
 15 17  1  1  0  0  0
 16  9  1  0  0  0  0
 16 12  1  0  0  0  0
 17 21  1  0  0  0  0
 17 20  2  0  0  0  0
 18 19  2  0  0  0  0
 20 19  1  0  0  0  0
 21 18  1  0  0  0  0
 22 23  1  0  0  0  0
 24 25  1  0  0  0  0
 25 26  1  0  0  0  0
 26 28  1  0  0  0  0
 28 27  1  0  0  0  0
 29 28  1  0  0  0  0
M  END
>  <MODEL>
8

>  <REMARK>
 VINA RESULT:      -6.5      3.848      8.285
  Name = 
  7 active torsions:
  status: ('A' for Active; 'I' for Inactive)
    1  A    between atoms: C_1  and  C_27
    2  A    between atoms: C_4  and  C_5
    3  A    between atoms: N_6  and  C_10
    4  A    between atoms: N_6  and  C_21
    5  A    between atoms: C_10  and  C_19
    6  A    between atoms: C_13  and  C_18
    7  A    between atoms: C_19  and  C_22
                            x       y       z     vdW  Elec       q    Type
                         _______ _______ _______ _____ _____    ______ ____

>  <TORSDO>
F 7

$$$$
=
 OpenBabel11042410243D

 29 32  0  0  1  0  0  0  0  0999 V2000
  188.4850  178.0810  143.0190 C   0  0  2  0  0  3  0  0  0  0  0  0
  186.0840  177.8730  145.4830 C   0  0  0  0  0  2  0  0  0  0  0  0
  186.3010  178.6330  143.2870 O   0  0  0  0  0  0  0  0  0  0  0  0
  189.4320  177.8770  144.1870 C   0  0  2  0  0  3  0  0  0  0  0  0
  185.3620  178.4700  144.3160 C   0  0  0  0  0  2  0  0  0  0  0  0
  188.5420  177.6720  145.3870 C   0  0  1  0  0  3  0  0  0  0  0  0
  187.2290  177.1920  144.8070 C   0  0  2  0  0  3  0  0  0  0  0  0
  187.1640  177.5800  143.3960 N   0  0  2  0  0  0  0  0  0  0  0  0
  192.7190  176.4990  138.3260 S   0  0  0  0  0  0  0  0  0  0  0  0
  190.3080  176.2320  139.4190 N   0  0  0  0  0  0  0  0  0  0  0  0
  188.9700  177.3920  141.7850 C   0  0  0  0  0  0  0  0  0  0  0  0
  190.9640  176.9520  140.2630 C   0  0  0  0  0  0  0  0  0  0  0  0
  190.3520  177.5060  141.4320 N   0  0  0  0  0  2  0  0  0  0  0  0
  188.1610  176.7640  141.0500 O   0  0  0  0  0  0  0  0  0  0  0  0
  191.0560  175.7530  138.2740 C   0  0  1  0  0  3  0  0  0  0  0  0
  192.3880  177.2090  139.9650 C   0  0  0  0  0  2  0  0  0  0  0  0
  190.3690  176.1260  137.0030 C   0  0  0  0  0  0  0  0  0  0  0  0
  188.8970  176.9830  135.2120 C   0  0  0  0  0  3  0  0  0  0  0  0
  190.1750  176.5910  134.8120 C   0  0  0  0  0  3  0  0  0  0  0  0
  190.9850  176.1290  135.8040 N   0  0  0  0  0  0  0  0  0  0  0  0
  188.8080  176.7300  136.8760 S   0  0  0  0  0  0  0  0  0  0  0  0
  191.8310  178.6980  144.0330 C   0  0  0  0  0  1  0  0  0  0  0  0
  190.3880  179.0560  144.3660 C   0  0  0  0  0  2  0  0  0  0  0  0
  189.0990  176.6500  146.2570 N   0  0  0  0  0  2  0  0  0  0  0  0
  189.5710  177.3210  147.4600 C   0  0  0  0  0  2  0  0  0  0  0  0
  191.0890  177.2850  147.5170 C   0  0  0  0  0  2  0  0  0  0  0  0
  192.0660  175.6800  145.9090 C   0  0  0  0  0  1  0  0  0  0  0  0
  191.6150  175.8700  147.3400 C   0  0  0  0  0  3  0  0  0  0  0  0
  192.7890  175.6290  148.2670 C   0  0  0  0  0  1  0  0  0  0  0  0
  1 11  1  6  0  0  0
  1  8  1  0  0  0  0
  1  4  1  0  0  0  0
  3  5  1  0  0  0  0
  4 23  1  1  0  0  0
  4  6  1  0  0  0  0
  5  2  1  0  0  0  0
  6 24  1  1  0  0  0
  7  6  1  0  0  0  0
  7  2  1  1  0  0  0
  8  3  1  1  0  0  0
  8  7  1  0  0  0  0
  9 16  1  0  0  0  0
 10 12  2  0  0  0  0
 12 13  1  0  0  0  0
 13 11  1  0  0  0  0
 14 11  2  0  0  0  0
 15 17  1  6  0  0  0
 15  9  1  0  0  0  0
 15 10  1  0  0  0  0
 16 12  1  0  0  0  0
 18 21  1  0  0  0  0
 19 18  2  0  0  0  0
 19 20  1  0  0  0  0
 20 17  2  0  0  0  0
 21 17  1  0  0  0  0
 22 23  1  0  0  0  0
 24 25  1  0  0  0  0
 25 26  1  0  0  0  0
 27 28  1  0  0  0  0
 28 26  1  0  0  0  0
 28 29  1  0  0  0  0
M  END
>  <MODEL>
9

>  <REMARK>
 VINA RESULT:      -6.3      4.670      7.379
  Name = 
  7 active torsions:
  status: ('A' for Active; 'I' for Inactive)
    1  A    between atoms: C_1  and  C_27
    2  A    between atoms: C_4  and  C_5
    3  A    between atoms: N_6  and  C_10
    4  A    between atoms: N_6  and  C_21
    5  A    between atoms: C_10  and  C_19
    6  A    between atoms: C_13  and  C_18
    7  A    between atoms: C_19  and  C_22
                            x       y       z     vdW  Elec       q    Type
                         _______ _______ _______ _____ _____    ______ ____

>  <TORSDO>
F 7

$$$$
