=
 OpenBabel11042410313D

 35 40  0  0  1  0  0  0  0  0999 V2000
  189.8810  177.2990  146.8000 N   0  0  0  0  0  2  0  0  0  0  0  0
  186.1680  178.8300  140.9740 C   0  0  0  0  0  0  0  0  0  0  0  0
  188.1140  176.7400  145.0430 N   0  0  0  0  0  0  0  0  0  0  0  0
  187.7140  178.3230  146.7820 C   0  0  0  0  0  3  0  0  0  0  0  0
  191.6490  177.0330  144.8400 C   0  0  0  0  0  2  0  0  0  0  0  0
  189.4040  177.4470  142.0460 C   0  0  0  0  0  3  0  0  0  0  0  0
  186.4210  178.6430  146.1470 C   0  0  0  0  0  0  0  0  0  0  0  0
  185.6500  179.1410  142.1350 C   0  0  0  0  0  0  0  0  0  0  0  0
  189.7440  176.2620  142.8910 C   0  0  2  0  0  3  0  0  0  0  0  0
  185.9990  177.9690  145.0630 C   0  0  0  0  0  0  0  0  0  0  0  0
  188.1670  177.5410  141.5560 C   0  0  0  0  0  3  0  0  0  0  0  0
  192.0450  176.5010  147.1150 O   0  0  0  0  0  0  0  0  0  0  0  0
  185.6720  179.7000  146.6540 O   0  0  0  0  0  1  0  0  0  0  0  0
  189.1360  176.4960  144.1250 C   0  0  0  0  0  0  0  0  0  0  0  0
  191.1870  176.8980  146.2850 C   0  0  0  0  0  0  0  0  0  0  0  0
  185.2630  178.1970  139.9400 C   0  0  0  0  0  2  0  0  0  0  0  0
  184.7820  178.4020  144.3050 C   0  0  0  0  0  2  0  0  0  0  0  0
  189.3840  177.9790  137.5660 C   0  0  0  0  0  2  0  0  0  0  0  0
  190.5370  176.6140  143.9910 C   0  0  0  0  0  0  0  0  0  0  0  0
  185.1230  179.4510  143.2910 C   0  0  0  0  0  3  0  0  0  0  0  0
  188.0150  178.7220  139.3400 C   0  0  2  0  0  3  0  0  0  0  0  0
  186.7220  176.7330  144.6020 C   0  0  0  0  0  2  0  0  0  0  0  0
  187.9180  177.5890  137.3660 C   0  0  2  0  0  3  0  0  0  0  0  0
  189.4660  178.5640  138.9630 C   0  0  0  0  0  2  0  0  0  0  0  0
  188.5470  177.4410  146.2290 C   0  0  0  0  0  0  0  0  0  0  0  0
  185.9130  178.1390  138.5490 C   0  0  0  0  0  2  0  0  0  0  0  0
  187.6740  178.7550  140.8300 C   0  0  1  0  0  3  0  0  0  0  0  0
  187.2840  177.6620  138.6730 N   0  0  2  0  0  0  0  0  0  0  0  0
  187.8160  176.1720  136.8220 C   0  0  0  0  0  2  0  0  0  0  0  0
  184.3300  174.5370  136.3790 C   0  0  0  0  0  0  0  0  0  0  0  0
  183.7710  175.1680  135.4440 O   0  0  0  0  0  0  0  0  0  0  0  0
  186.0310  176.6460  135.3230 O   0  0  0  0  0  0  0  0  0  0  0  0
  185.6520  174.8730  136.8120 N   0  0  0  0  0  2  0  0  0  0  0  0
  183.6050  173.4240  137.0450 C   0  0  0  0  0  1  0  0  0  0  0  0
  186.4590  175.9190  136.2600 C   0  0  0  0  0  0  0  0  0  0  0  0
  2  8  2  0  0  0  0
  3 25  1  0  0  0  0
  5 15  1  0  0  0  0
  7 13  1  0  0  0  0
  7  4  1  0  0  0  0
  8 20  2  0  0  0  0
  9  6  1  6  0  0  0
  9 19  1  0  0  0  0
  9 14  1  0  0  0  0
 10  7  2  0  0  0  0
 11  6  2  0  0  0  0
 14  3  1  0  0  0  0
 15  1  1  0  0  0  0
 15 12  2  0  0  0  0
 16  2  1  0  0  0  0
 17 10  1  0  0  0  0
 18 24  1  0  0  0  0
 19 14  2  0  0  0  0
 19  5  1  0  0  0  0
 20 17  1  0  0  0  0
 21 24  1  1  0  0  0
 21 27  1  0  0  0  0
 22  3  1  0  0  0  0
 22 10  1  0  0  0  0
 23 29  1  1  0  0  0
 23 18  1  0  0  0  0
 23 28  1  0  0  0  0
 25  4  2  0  0  0  0
 25  1  1  0  0  0  0
 26 16  1  0  0  0  0
 27  2  1  0  0  0  0
 27 11  1  1  0  0  0
 28 26  1  6  0  0  0
 28 21  1  0  0  0  0
 30 33  1  0  0  0  0
 30 34  1  0  0  0  0
 31 30  2  0  0  0  0
 32 35  2  0  0  0  0
 35 33  1  0  0  0  0
 35 29  1  0  0  0  0
M  END
>  <MODEL>
1

>  <REMARK>
 VINA RESULT:     -10.0      0.000      0.000
  Name = 
  2 active torsions:
  status: ('A' for Active; 'I' for Inactive)
    1  A    between atoms: C_27  and  C_32
    2  A    between atoms: C_29  and  C_32
                            x       y       z     vdW  Elec       q    Type
                         _______ _______ _______ _____ _____    ______ ____

>  <TORSDO>
F 2

$$$$
=
 OpenBabel11042410313D

 35 40  0  0  1  0  0  0  0  0999 V2000
  189.8840  177.2960  146.8160 N   0  0  0  0  0  2  0  0  0  0  0  0
  186.0880  178.8650  141.0550 C   0  0  0  0  0  0  0  0  0  0  0  0
  188.0910  176.7500  145.0820 N   0  0  0  0  0  0  0  0  0  0  0  0
  187.7190  178.3240  146.8360 C   0  0  0  0  0  3  0  0  0  0  0  0
  191.6230  177.0390  144.8290 C   0  0  0  0  0  2  0  0  0  0  0  0
  189.3380  177.4720  142.0710 C   0  0  0  0  0  3  0  0  0  0  0  0
  186.4170  178.6490  146.2220 C   0  0  0  0  0  0  0  0  0  0  0  0
  185.5880  179.1710  142.2260 C   0  0  0  0  0  0  0  0  0  0  0  0
  189.6880  176.2820  142.9040 C   0  0  2  0  0  3  0  0  0  0  0  0
  185.9790  177.9810  145.1410 C   0  0  0  0  0  0  0  0  0  0  0  0
  188.0930  177.5700  141.6000 C   0  0  0  0  0  3  0  0  0  0  0  0
  192.0520  176.4940  147.0950 O   0  0  0  0  0  0  0  0  0  0  0  0
  185.6780  179.7030  146.7470 O   0  0  0  0  0  1  0  0  0  0  0  0
  189.0990  176.5090  144.1480 C   0  0  0  0  0  0  0  0  0  0  0  0
  191.1830  176.8970  146.2800 C   0  0  0  0  0  0  0  0  0  0  0  0
  185.1670  178.2400  140.0310 C   0  0  0  0  0  2  0  0  0  0  0  0
  184.7510  178.4210  144.4040 C   0  0  0  0  0  2  0  0  0  0  0  0
  189.2520  178.0300  137.5950 C   0  0  0  0  0  2  0  0  0  0  0  0
  190.4980  176.6270  143.9950 C   0  0  0  0  0  0  0  0  0  0  0  0
  185.0780  179.4750  143.3910 C   0  0  0  0  0  3  0  0  0  0  0  0
  187.9100  178.7640  139.3930 C   0  0  2  0  0  3  0  0  0  0  0  0
  186.6930  176.7470  144.6630 C   0  0  0  0  0  2  0  0  0  0  0  0
  187.7820  177.6430  137.4140 C   0  0  2  0  0  3  0  0  0  0  0  0
  189.3560  178.6060  138.9940 C   0  0  0  0  0  2  0  0  0  0  0  0
  188.5430  177.4430  146.2660 C   0  0  0  0  0  0  0  0  0  0  0  0
  185.7970  178.1880  138.6310 C   0  0  0  0  0  2  0  0  0  0  0  0
  187.5920  178.7900  140.8880 C   0  0  1  0  0  3  0  0  0  0  0  0
  187.1690  177.7090  138.7310 N   0  0  2  0  0  0  0  0  0  0  0  0
  187.6710  176.2290  136.8640 C   0  0  0  0  0  2  0  0  0  0  0  0
  191.0770  174.6100  135.9680 C   0  0  0  0  0  0  0  0  0  0  0  0
  191.3290  174.9710  134.7880 O   0  0  0  0  0  0  0  0  0  0  0  0
  188.9840  176.3130  134.8830 O   0  0  0  0  0  0  0  0  0  0  0  0
  189.8820  175.0350  136.6330 N   0  0  0  0  0  2  0  0  0  0  0  0
  192.0360  173.7300  136.6830 C   0  0  0  0  0  1  0  0  0  0  0  0
  188.8770  175.8790  136.0610 C   0  0  0  0  0  0  0  0  0  0  0  0
  2  8  2  0  0  0  0
  3 25  1  0  0  0  0
  5 15  1  0  0  0  0
  7 13  1  0  0  0  0
  7  4  1  0  0  0  0
  8 20  2  0  0  0  0
  9  6  1  6  0  0  0
  9 19  1  0  0  0  0
  9 14  1  0  0  0  0
 10  7  2  0  0  0  0
 11  6  2  0  0  0  0
 14  3  1  0  0  0  0
 15  1  1  0  0  0  0
 15 12  2  0  0  0  0
 16  2  1  0  0  0  0
 17 10  1  0  0  0  0
 18 24  1  0  0  0  0
 19 14  2  0  0  0  0
 19  5  1  0  0  0  0
 20 17  1  0  0  0  0
 21 24  1  1  0  0  0
 21 27  1  0  0  0  0
 22  3  1  0  0  0  0
 22 10  1  0  0  0  0
 23 29  1  1  0  0  0
 23 18  1  0  0  0  0
 23 28  1  0  0  0  0
 25  1  1  0  0  0  0
 25  4  2  0  0  0  0
 26 16  1  0  0  0  0
 27  2  1  0  0  0  0
 27 11  1  1  0  0  0
 28 26  1  6  0  0  0
 28 21  1  0  0  0  0
 30 33  1  0  0  0  0
 30 34  1  0  0  0  0
 31 30  2  0  0  0  0
 32 35  2  0  0  0  0
 35 33  1  0  0  0  0
 35 29  1  0  0  0  0
M  END
>  <MODEL>
2

>  <REMARK>
 VINA RESULT:      -9.9      1.670      2.436
  Name = 
  2 active torsions:
  status: ('A' for Active; 'I' for Inactive)
    1  A    between atoms: C_27  and  C_32
    2  A    between atoms: C_29  and  C_32
                            x       y       z     vdW  Elec       q    Type
                         _______ _______ _______ _____ _____    ______ ____

>  <TORSDO>
F 2

$$$$
=
 OpenBabel11042410313D

 35 40  0  0  1  0  0  0  0  0999 V2000
  189.9060  177.5480  146.5070 N   0  0  0  0  0  2  0  0  0  0  0  0
  184.5070  179.0580  142.1910 C   0  0  0  0  0  0  0  0  0  0  0  0
  187.6650  176.9850  145.4210 N   0  0  0  0  0  0  0  0  0  0  0  0
  187.8510  178.5780  147.1870 C   0  0  0  0  0  3  0  0  0  0  0  0
  190.9440  177.2690  144.0820 C   0  0  0  0  0  2  0  0  0  0  0  0
  187.9150  177.6740  142.1640 C   0  0  0  0  0  3  0  0  0  0  0  0
  186.4220  178.8970  147.0040 C   0  0  0  0  0  0  0  0  0  0  0  0
  184.3930  179.3760  143.4560 C   0  0  0  0  0  0  0  0  0  0  0  0
  188.5090  176.4920  142.8600 C   0  0  2  0  0  3  0  0  0  0  0  0
  185.6720  178.2180  146.1180 C   0  0  0  0  0  0  0  0  0  0  0  0
  186.5850  177.7670  142.1010 C   0  0  0  0  0  3  0  0  0  0  0  0
  192.0550  176.7480  146.1090 O   0  0  0  0  0  0  0  0  0  0  0  0
  185.8790  179.9580  147.7200 O   0  0  0  0  0  1  0  0  0  0  0  0
  188.3350  176.7340  144.2230 C   0  0  0  0  0  0  0  0  0  0  0  0
  190.9750  177.1430  145.5990 C   0  0  0  0  0  0  0  0  0  0  0  0
  183.3150  178.4220  141.5100 C   0  0  0  0  0  2  0  0  0  0  0  0
  184.2740  178.6510  145.7940 C   0  0  0  0  0  2  0  0  0  0  0  0
  186.4430  178.1830  137.9290 C   0  0  0  0  0  2  0  0  0  0  0  0
  189.6170  176.8480  143.6420 C   0  0  0  0  0  0  0  0  0  0  0  0
  184.2690  179.6930  144.7190 C   0  0  0  0  0  3  0  0  0  0  0  0
  185.7240  178.9370  140.0470 C   0  0  2  0  0  3  0  0  0  0  0  0
  186.2050  176.9790  145.4560 C   0  0  0  0  0  2  0  0  0  0  0  0
  184.9910  177.7950  138.2170 C   0  0  2  0  0  3  0  0  0  0  0  0
  186.9740  178.7740  139.2210 C   0  0  0  0  0  2  0  0  0  0  0  0
  188.4600  177.6910  146.3990 C   0  0  0  0  0  0  0  0  0  0  0  0
  183.4790  178.3550  139.9840 C   0  0  0  0  0  2  0  0  0  0  0  0
  185.8840  178.9790  141.5670 C   0  0  1  0  0  3  0  0  0  0  0  0
  184.8160  177.8760  139.6590 N   0  0  2  0  0  0  0  0  0  0  0  0
  184.7180  176.3750  137.7440 C   0  0  0  0  0  2  0  0  0  0  0  0
  180.9870  175.3500  137.9570 C   0  0  0  0  0  0  0  0  0  0  0  0
  180.4550  175.7650  136.8950 O   0  0  0  0  0  0  0  0  0  0  0  0
  182.9050  176.7010  136.2400 O   0  0  0  0  0  0  0  0  0  0  0  0
  182.3800  175.5510  138.2160 N   0  0  0  0  0  2  0  0  0  0  0  0
  180.1540  174.6370  138.9610 C   0  0  0  0  0  1  0  0  0  0  0  0
  183.2930  176.2200  137.3390 C   0  0  0  0  0  0  0  0  0  0  0  0
  2  8  2  0  0  0  0
  3 22  1  0  0  0  0
  3 25  1  0  0  0  0
  5 15  1  0  0  0  0
  7  4  1  0  0  0  0
  7 13  1  0  0  0  0
  8 20  2  0  0  0  0
  9  6  1  6  0  0  0
  9 19  1  0  0  0  0
  9 14  1  0  0  0  0
 10  7  2  0  0  0  0
 11  6  2  0  0  0  0
 14  3  1  0  0  0  0
 15 12  2  0  0  0  0
 15  1  1  0  0  0  0
 16  2  1  0  0  0  0
 17 10  1  0  0  0  0
 18 23  1  0  0  0  0
 18 24  1  0  0  0  0
 19  5  1  0  0  0  0
 19 14  2  0  0  0  0
 20 17  1  0  0  0  0
 21 24  1  6  0  0  0
 21 27  1  0  0  0  0
 22 10  1  0  0  0  0
 23 29  1  1  0  0  0
 23 28  1  0  0  0  0
 25  1  1  0  0  0  0
 25  4  2  0  0  0  0
 26 16  1  0  0  0  0
 27 11  1  1  0  0  0
 27  2  1  0  0  0  0
 28 26  1  6  0  0  0
 28 21  1  0  0  0  0
 30 33  1  0  0  0  0
 30 34  1  0  0  0  0
 31 30  2  0  0  0  0
 32 35  2  0  0  0  0
 35 29  1  0  0  0  0
 35 33  1  0  0  0  0
M  END
>  <MODEL>
3

>  <REMARK>
 VINA RESULT:      -9.1      1.764      2.239
  Name = 
  2 active torsions:
  status: ('A' for Active; 'I' for Inactive)
    1  A    between atoms: C_27  and  C_32
    2  A    between atoms: C_29  and  C_32
                            x       y       z     vdW  Elec       q    Type
                         _______ _______ _______ _____ _____    ______ ____

>  <TORSDO>
F 2

$$$$
=
 OpenBabel11042410313D

 35 40  0  0  1  0  0  0  0  0999 V2000
  187.5050  178.2280  146.9090 N   0  0  0  0  0  2  0  0  0  0  0  0
  187.6490  178.1370  139.8360 C   0  0  0  0  0  0  0  0  0  0  0  0
  186.9770  177.1420  144.6590 N   0  0  0  0  0  0  0  0  0  0  0  0
  185.7360  179.0030  145.4900 C   0  0  0  0  0  3  0  0  0  0  0  0
  190.0500  177.7420  146.3390 C   0  0  0  0  0  2  0  0  0  0  0  0
  189.7210  177.3400  142.7690 C   0  0  0  0  0  3  0  0  0  0  0  0
  185.0140  179.0520  144.2040 C   0  0  0  0  0  0  0  0  0  0  0  0
  186.5870  178.6280  140.4250 C   0  0  0  0  0  0  0  0  0  0  0  0
  189.5050  176.3950  143.9070 C   0  0  2  0  0  3  0  0  0  0  0  0
  185.2370  178.1290  143.2520 C   0  0  0  0  0  0  0  0  0  0  0  0
  188.9590  177.2040  141.6820 C   0  0  0  0  0  3  0  0  0  0  0  0
  189.1150  177.7350  148.5170 O   0  0  0  0  0  0  0  0  0  0  0  0
  184.1430  180.1100  143.9690 O   0  0  0  0  0  1  0  0  0  0  0  0
  188.3270  176.8170  144.5250 C   0  0  0  0  0  0  0  0  0  0  0  0
  188.8670  177.8640  147.2910 C   0  0  0  0  0  0  0  0  0  0  0  0
  187.4410  177.2150  138.6530 C   0  0  0  0  0  2  0  0  0  0  0  0
  184.6490  178.2710  141.8810 C   0  0  0  0  0  2  0  0  0  0  0  0
  192.1800  176.9270  139.0080 C   0  0  0  0  0  2  0  0  0  0  0  0
  189.5740  177.0460  145.1460 C   0  0  0  0  0  0  0  0  0  0  0  0
  185.5220  179.1160  141.0050 C   0  0  0  0  0  3  0  0  0  0  0  0
  190.0850  177.8790  139.5350 C   0  0  2  0  0  3  0  0  0  0  0  0
  186.0550  176.9040  143.5520 C   0  0  0  0  0  2  0  0  0  0  0  0
  191.0530  176.3580  138.1430 C   0  0  2  0  0  3  0  0  0  0  0  0
  191.4990  177.7930  140.0500 C   0  0  0  0  0  2  0  0  0  0  0  0
  186.7090  178.1140  145.6940 C   0  0  0  0  0  0  0  0  0  0  0  0
  188.7460  176.9360  137.8930 C   0  0  0  0  0  2  0  0  0  0  0  0
  188.9830  178.1860  140.5500 C   0  0  1  0  0  3  0  0  0  0  0  0
  189.8080  176.6360  138.8430 N   0  0  2  0  0  0  0  0  0  0  0  0
  191.2240  174.8560  137.9710 C   0  0  0  0  0  2  0  0  0  0  0  0
  194.9030  173.7870  137.3880 C   0  0  0  0  0  0  0  0  0  0  0  0
  195.0840  173.8430  136.1430 O   0  0  0  0  0  0  0  0  0  0  0  0
  192.5070  174.6430  135.9800 O   0  0  0  0  0  0  0  0  0  0  0  0
  193.6400  174.1280  137.9680 N   0  0  0  0  0  2  0  0  0  0  0  0
  196.0210  173.3630  138.2700 C   0  0  0  0  0  1  0  0  0  0  0  0
  192.4840  174.5490  137.2370 C   0  0  0  0  0  0  0  0  0  0  0  0
  1 15  1  0  0  0  0
  2  8  2  0  0  0  0
  2 27  1  0  0  0  0
  3 25  1  0  0  0  0
  4 25  2  0  0  0  0
  5 15  1  0  0  0  0
  7  4  1  0  0  0  0
  8 20  2  0  0  0  0
  9  6  1  6  0  0  0
  9 14  1  0  0  0  0
  9 19  1  0  0  0  0
 10 22  1  0  0  0  0
 10  7  2  0  0  0  0
 11  6  2  0  0  0  0
 13  7  1  0  0  0  0
 14  3  1  0  0  0  0
 14 19  2  0  0  0  0
 15 12  2  0  0  0  0
 16  2  1  0  0  0  0
 17 10  1  0  0  0  0
 18 24  1  0  0  0  0
 19  5  1  0  0  0  0
 20 17  1  0  0  0  0
 21 24  1  1  0  0  0
 21 27  1  0  0  0  0
 22  3  1  0  0  0  0
 23 29  1  1  0  0  0
 23 28  1  0  0  0  0
 23 18  1  0  0  0  0
 25  1  1  0  0  0  0
 26 16  1  0  0  0  0
 27 11  1  1  0  0  0
 28 26  1  6  0  0  0
 28 21  1  0  0  0  0
 30 33  1  0  0  0  0
 30 34  1  0  0  0  0
 31 30  2  0  0  0  0
 32 35  2  0  0  0  0
 35 33  1  0  0  0  0
 35 29  1  0  0  0  0
M  END
>  <MODEL>
4

>  <REMARK>
 VINA RESULT:      -8.9      3.464      4.521
  Name = 
  2 active torsions:
  status: ('A' for Active; 'I' for Inactive)
    1  A    between atoms: C_27  and  C_32
    2  A    between atoms: C_29  and  C_32
                            x       y       z     vdW  Elec       q    Type
                         _______ _______ _______ _____ _____    ______ ____

>  <TORSDO>
F 2

$$$$
=
 OpenBabel11042410313D

 35 40  0  0  1  0  0  0  0  0999 V2000
  187.4820  178.2240  146.9660 N   0  0  0  0  0  2  0  0  0  0  0  0
  187.7270  178.1370  139.8960 C   0  0  0  0  0  0  0  0  0  0  0  0
  186.9860  177.1400  144.7080 N   0  0  0  0  0  0  0  0  0  0  0  0
  185.7340  179.0010  145.5220 C   0  0  0  0  0  3  0  0  0  0  0  0
  190.0350  177.7380  146.4320 C   0  0  0  0  0  2  0  0  0  0  0  0
  189.7570  177.3370  142.8580 C   0  0  0  0  0  3  0  0  0  0  0  0
  185.0300  179.0510  144.2260 C   0  0  0  0  0  0  0  0  0  0  0  0
  186.6580  178.6280  140.4700 C   0  0  0  0  0  0  0  0  0  0  0  0
  189.5240  176.3930  143.9920 C   0  0  2  0  0  3  0  0  0  0  0  0
  185.2660  178.1280  143.2770 C   0  0  0  0  0  0  0  0  0  0  0  0
  189.0110  177.2030  141.7590 C   0  0  0  0  0  3  0  0  0  0  0  0
  189.0690  177.7300  148.5970 O   0  0  0  0  0  0  0  0  0  0  0  0
  184.1630  180.1090  143.9790 O   0  0  0  0  0  1  0  0  0  0  0  0
  188.3380  176.8150  144.5930 C   0  0  0  0  0  0  0  0  0  0  0  0
  188.8380  177.8590  147.3670 C   0  0  0  0  0  0  0  0  0  0  0  0
  187.5360  177.2160  138.7100 C   0  0  0  0  0  2  0  0  0  0  0  0
  184.6980  178.2710  141.8980 C   0  0  0  0  0  2  0  0  0  0  0  0
  192.2690  176.9260  139.1320 C   0  0  0  0  0  2  0  0  0  0  0  0
  189.5760  177.0430  145.2330 C   0  0  0  0  0  0  0  0  0  0  0  0
  185.5840  179.1160  141.0350 C   0  0  0  0  0  3  0  0  0  0  0  0
  190.1670  177.8780  139.6300 C   0  0  2  0  0  3  0  0  0  0  0  0
  186.0800  176.9020  143.5880 C   0  0  0  0  0  2  0  0  0  0  0  0
  191.1550  176.3580  138.2500 C   0  0  2  0  0  3  0  0  0  0  0  0
  191.5740  177.7920  140.1650 C   0  0  0  0  0  2  0  0  0  0  0  0
  186.7030  178.1110  145.7390 C   0  0  0  0  0  0  0  0  0  0  0  0
  188.8510  176.9370  137.9680 C   0  0  0  0  0  2  0  0  0  0  0  0
  189.0510  178.1850  140.6290 C   0  0  1  0  0  3  0  0  0  0  0  0
  189.9000  176.6360  138.9320 N   0  0  2  0  0  0  0  0  0  0  0  0
  191.3270  174.8560  138.0810 C   0  0  0  0  0  2  0  0  0  0  0  0
  188.5820  172.9630  136.1050 C   0  0  0  0  0  0  0  0  0  0  0  0
  188.7760  173.2420  134.8930 O   0  0  0  0  0  0  0  0  0  0  0  0
  190.8550  174.7420  135.7530 O   0  0  0  0  0  0  0  0  0  0  0  0
  189.4280  173.4920  137.1320 N   0  0  0  0  0  2  0  0  0  0  0  0
  187.4570  172.0670  136.4780 C   0  0  0  0  0  1  0  0  0  0  0  0
  190.5420  174.3640  136.9140 C   0  0  0  0  0  0  0  0  0  0  0  0
  1 15  1  0  0  0  0
  2  8  2  0  0  0  0
  2 27  1  0  0  0  0
  3 25  1  0  0  0  0
  4 25  2  0  0  0  0
  5 15  1  0  0  0  0
  7  4  1  0  0  0  0
  8 20  2  0  0  0  0
  9  6  1  6  0  0  0
  9 14  1  0  0  0  0
  9 19  1  0  0  0  0
 10 22  1  0  0  0  0
 10  7  2  0  0  0  0
 11  6  2  0  0  0  0
 13  7  1  0  0  0  0
 14  3  1  0  0  0  0
 14 19  2  0  0  0  0
 15 12  2  0  0  0  0
 16  2  1  0  0  0  0
 17 10  1  0  0  0  0
 18 24  1  0  0  0  0
 19  5  1  0  0  0  0
 20 17  1  0  0  0  0
 21 24  1  1  0  0  0
 21 27  1  0  0  0  0
 22  3  1  0  0  0  0
 23 29  1  1  0  0  0
 23 28  1  0  0  0  0
 23 18  1  0  0  0  0
 25  1  1  0  0  0  0
 26 16  1  0  0  0  0
 27 11  1  1  0  0  0
 28 26  1  6  0  0  0
 28 21  1  0  0  0  0
 30 34  1  0  0  0  0
 30 33  1  0  0  0  0
 31 30  2  0  0  0  0
 32 35  2  0  0  0  0
 35 33  1  0  0  0  0
 35 29  1  0  0  0  0
M  END
>  <MODEL>
5

>  <REMARK>
 VINA RESULT:      -8.8      2.382      2.931
  Name = 
  2 active torsions:
  status: ('A' for Active; 'I' for Inactive)
    1  A    between atoms: C_27  and  C_32
    2  A    between atoms: C_29  and  C_32
                            x       y       z     vdW  Elec       q    Type
                         _______ _______ _______ _____ _____    ______ ____

>  <TORSDO>
F 2

$$$$
=
 OpenBabel11042410313D

 35 40  0  0  1  0  0  0  0  0999 V2000
  189.9440  177.2980  146.8070 N   0  0  0  0  0  2  0  0  0  0  0  0
  185.1020  179.1120  141.9770 C   0  0  0  0  0  0  0  0  0  0  0  0
  187.7860  176.8720  145.5110 N   0  0  0  0  0  0  0  0  0  0  0  0
  187.9070  178.4700  147.2780 C   0  0  0  0  0  3  0  0  0  0  0  0
  191.1910  176.9210  144.4960 C   0  0  0  0  0  2  0  0  0  0  0  0
  188.3960  177.5030  142.2900 C   0  0  0  0  0  3  0  0  0  0  0  0
  186.5270  178.8820  146.9550 C   0  0  0  0  0  0  0  0  0  0  0  0
  184.8880  179.4520  143.2230 C   0  0  0  0  0  0  0  0  0  0  0  0
  188.8390  176.2930  143.0470 C   0  0  2  0  0  3  0  0  0  0  0  0
  185.8220  178.2430  146.0040 C   0  0  0  0  0  0  0  0  0  0  0  0
  187.0880  177.6850  142.0970 C   0  0  0  0  0  3  0  0  0  0  0  0
  192.0630  176.3510  146.6250 O   0  0  0  0  0  0  0  0  0  0  0  0
  185.9900  179.9850  147.6090 O   0  0  0  0  0  1  0  0  0  0  0  0
  188.5500  176.5620  144.3850 C   0  0  0  0  0  0  0  0  0  0  0  0
  191.0670  176.8110  146.0100 C   0  0  0  0  0  0  0  0  0  0  0  0
  183.9410  178.5480  141.1860 C   0  0  0  0  0  2  0  0  0  0  0  0
  184.4950  178.7640  145.5430 C   0  0  0  0  0  2  0  0  0  0  0  0
  187.3790  178.0580  137.9290 C   0  0  0  0  0  2  0  0  0  0  0  0
  189.8870  176.5840  143.9310 C   0  0  0  0  0  0  0  0  0  0  0  0
  184.6640  179.7920  144.4660 C   0  0  0  0  0  3  0  0  0  0  0  0
  186.5100  178.8840  139.9630 C   0  0  2  0  0  3  0  0  0  0  0  0
  186.3330  176.9630  145.4030 C   0  0  0  0  0  2  0  0  0  0  0  0
  185.8830  177.7710  138.0770 C   0  0  2  0  0  3  0  0  0  0  0  0
  187.8210  178.6290  139.2630 C   0  0  0  0  0  2  0  0  0  0  0  0
  188.5280  177.5350  146.5570 C   0  0  0  0  0  0  0  0  0  0  0  0
  184.2480  178.4520  139.6840 C   0  0  0  0  0  2  0  0  0  0  0  0
  186.5250  178.9340  141.4910 C   0  0  1  0  0  3  0  0  0  0  0  0
  185.5750  177.8810  139.4940 N   0  0  2  0  0  0  0  0  0  0  0  0
  185.5620  176.3670  137.5870 C   0  0  0  0  0  2  0  0  0  0  0  0
  188.7220  176.2300  135.3460 C   0  0  0  0  0  0  0  0  0  0  0  0
  189.0750  175.0220  135.3240 O   0  0  0  0  0  0  0  0  0  0  0  0
  186.9540  174.5530  136.9320 O   0  0  0  0  0  0  0  0  0  0  0  0
  187.5690  176.6510  136.0840 N   0  0  0  0  0  2  0  0  0  0  0  0
  189.5130  177.2370  134.5940 C   0  0  0  0  0  1  0  0  0  0  0  0
  186.7210  175.7890  136.8510 C   0  0  0  0  0  0  0  0  0  0  0  0
  2  8  2  0  0  0  0
  3 25  1  0  0  0  0
  5 15  1  0  0  0  0
  7  4  1  0  0  0  0
  7 13  1  0  0  0  0
  8 20  2  0  0  0  0
  9  6  1  6  0  0  0
  9 19  1  0  0  0  0
  9 14  1  0  0  0  0
 10  7  2  0  0  0  0
 11  6  2  0  0  0  0
 14  3  1  0  0  0  0
 15 12  2  0  0  0  0
 15  1  1  0  0  0  0
 16  2  1  0  0  0  0
 17 10  1  0  0  0  0
 18 23  1  0  0  0  0
 18 24  1  0  0  0  0
 19 14  2  0  0  0  0
 19  5  1  0  0  0  0
 20 17  1  0  0  0  0
 21 24  1  1  0  0  0
 21 27  1  0  0  0  0
 22  3  1  0  0  0  0
 22 10  1  0  0  0  0
 23 29  1  1  0  0  0
 23 28  1  0  0  0  0
 25  1  1  0  0  0  0
 25  4  2  0  0  0  0
 26 16  1  0  0  0  0
 27  2  1  0  0  0  0
 27 11  1  1  0  0  0
 28 26  1  6  0  0  0
 28 21  1  0  0  0  0
 30 33  1  0  0  0  0
 31 30  2  0  0  0  0
 33 35  1  0  0  0  0
 34 30  1  0  0  0  0
 35 32  2  0  0  0  0
 35 29  1  0  0  0  0
M  END
>  <MODEL>
6

>  <REMARK>
 VINA RESULT:      -8.0      1.458      2.220
  Name = 
  2 active torsions:
  status: ('A' for Active; 'I' for Inactive)
    1  A    between atoms: C_27  and  C_32
    2  A    between atoms: C_29  and  C_32
                            x       y       z     vdW  Elec       q    Type
                         _______ _______ _______ _____ _____    ______ ____

>  <TORSDO>
F 2

$$$$
=
 OpenBabel11042410313D

 35 40  0  0  1  0  0  0  0  0999 V2000
  188.8960  177.0950  143.7570 N   0  0  0  0  0  2  0  0  0  0  0  0
  184.2450  177.9330  138.4910 C   0  0  0  0  0  0  0  0  0  0  0  0
  187.7910  178.4940  141.9290 N   0  0  0  0  0  0  0  0  0  0  0  0
  189.3860  176.7920  141.4300 C   0  0  0  0  0  3  0  0  0  0  0  0
  186.5540  177.2000  144.9980 C   0  0  0  0  0  2  0  0  0  0  0  0
  184.4910  178.0400  142.1600 C   0  0  0  0  0  3  0  0  0  0  0  0
  189.1170  177.0070  139.9950 C   0  0  0  0  0  0  0  0  0  0  0  0
  185.4640  177.5680  138.1840 C   0  0  0  0  0  0  0  0  0  0  0  0
  185.3290  178.8770  143.0720 C   0  0  2  0  0  3  0  0  0  0  0  0
  188.2800  177.9770  139.5890 C   0  0  0  0  0  0  0  0  0  0  0  0
  184.3690  178.4210  140.8870 C   0  0  0  0  0  3  0  0  0  0  0  0
  188.6650  177.1270  146.0730 O   0  0  0  0  0  0  0  0  0  0  0  0
  189.6980  176.1450  139.0710 O   0  0  0  0  0  1  0  0  0  0  0  0
  186.6520  178.5970  142.7280 C   0  0  0  0  0  0  0  0  0  0  0  0
  188.0760  177.1780  144.9620 C   0  0  0  0  0  0  0  0  0  0  0  0
  183.5890  179.0000  137.6410 C   0  0  0  0  0  2  0  0  0  0  0  0
  187.8590  178.0880  138.1550 C   0  0  0  0  0  2  0  0  0  0  0  0
  180.1740  178.4370  140.9100 C   0  0  0  0  0  2  0  0  0  0  0  0
  186.1100  178.0920  143.9310 C   0  0  0  0  0  0  0  0  0  0  0  0
  186.6810  177.2080  137.8690 C   0  0  0  0  0  3  0  0  0  0  0  0
  182.1730  177.8030  139.8260 C   0  0  2  0  0  3  0  0  0  0  0  0
  187.7710  179.0050  140.5610 C   0  0  0  0  0  2  0  0  0  0  0  0
  180.4460  179.2800  139.6630 C   0  0  2  0  0  3  0  0  0  0  0  0
  181.4160  177.5900  141.1120 C   0  0  0  0  0  2  0  0  0  0  0  0
  188.7180  177.4750  142.3610 C   0  0  0  0  0  0  0  0  0  0  0  0
  182.0860  179.1340  137.9280 C   0  0  0  0  0  2  0  0  0  0  0  0
  183.6850  177.5790  139.8530 C   0  0  1  0  0  3  0  0  0  0  0  0
  181.8640  179.1430  139.3670 N   0  0  2  0  0  0  0  0  0  0  0  0
  180.1130  180.7410  139.9280 C   0  0  0  0  0  2  0  0  0  0  0  0
  180.3570  183.4100  137.1280 C   0  0  0  0  0  0  0  0  0  0  0  0
  179.5130  183.0710  136.2570 O   0  0  0  0  0  0  0  0  0  0  0  0
  178.9400  180.9830  137.8740 O   0  0  0  0  0  0  0  0  0  0  0  0
  180.5350  182.6420  138.3230 N   0  0  0  0  0  2  0  0  0  0  0  0
  181.1800  184.6270  136.9130 C   0  0  0  0  0  1  0  0  0  0  0  0
  179.8110  181.4520  138.6540 C   0  0  0  0  0  0  0  0  0  0  0  0
  1 15  1  0  0  0  0
  2 27  1  0  0  0  0
  3 25  1  0  0  0  0
  3 14  1  0  0  0  0
  4 25  2  0  0  0  0
  7  4  1  0  0  0  0
  8  2  2  0  0  0  0
  9  6  1  6  0  0  0
  9 19  1  0  0  0  0
 10  7  2  0  0  0  0
 10 22  1  0  0  0  0
 11  6  2  0  0  0  0
 13  7  1  0  0  0  0
 14  9  1  0  0  0  0
 14 19  2  0  0  0  0
 15  5  1  0  0  0  0
 15 12  2  0  0  0  0
 16 26  1  0  0  0  0
 16  2  1  0  0  0  0
 17 10  1  0  0  0  0
 18 24  1  0  0  0  0
 19  5  1  0  0  0  0
 20 17  1  0  0  0  0
 20  8  2  0  0  0  0
 21 27  1  0  0  0  0
 21 24  1  1  0  0  0
 22  3  1  0  0  0  0
 23 29  1  1  0  0  0
 23 18  1  0  0  0  0
 25  1  1  0  0  0  0
 27 11  1  1  0  0  0
 28 26  1  6  0  0  0
 28 23  1  0  0  0  0
 28 21  1  0  0  0  0
 30 33  1  0  0  0  0
 31 30  2  0  0  0  0
 32 35  2  0  0  0  0
 33 35  1  0  0  0  0
 34 30  1  0  0  0  0
 35 29  1  0  0  0  0
M  END
>  <MODEL>
7

>  <REMARK>
 VINA RESULT:      -7.5      4.234      6.572
  Name = 
  2 active torsions:
  status: ('A' for Active; 'I' for Inactive)
    1  A    between atoms: C_27  and  C_32
    2  A    between atoms: C_29  and  C_32
                            x       y       z     vdW  Elec       q    Type
                         _______ _______ _______ _____ _____    ______ ____

>  <TORSDO>
F 2

$$$$
=
 OpenBabel11042410313D

 35 40  0  0  1  0  0  0  0  0999 V2000
  180.0060  179.2980  138.8460 N   0  0  0  0  0  2  0  0  0  0  0  0
  185.6460  175.5970  136.7100 C   0  0  0  0  0  0  0  0  0  0  0  0
  181.8510  177.5770  139.2380 N   0  0  0  0  0  0  0  0  0  0  0  0
  179.9280  177.0910  137.9130 C   0  0  0  0  0  3  0  0  0  0  0  0
  181.9520  181.1000  138.7830 C   0  0  0  0  0  2  0  0  0  0  0  0
  184.7070  178.8740  138.0940 C   0  0  0  0  0  3  0  0  0  0  0  0
  180.5380  175.7940  137.5630 C   0  0  0  0  0  0  0  0  0  0  0  0
  184.4630  175.0520  136.5740 C   0  0  0  0  0  0  0  0  0  0  0  0
  184.0180  179.2510  139.3660 C   0  0  2  0  0  3  0  0  0  0  0  0
  181.7080  175.4140  138.1060 C   0  0  0  0  0  0  0  0  0  0  0  0
  185.2020  177.6390  137.9860 C   0  0  0  0  0  3  0  0  0  0  0  0
  179.7590  181.4880  139.5930 O   0  0  0  0  0  0  0  0  0  0  0  0
  179.9110  174.9970  136.6130 O   0  0  0  0  0  1  0  0  0  0  0  0
  182.7750  178.6190  139.3200 C   0  0  0  0  0  0  0  0  0  0  0  0
  180.5450  180.6260  139.1240 C   0  0  0  0  0  0  0  0  0  0  0  0
  186.7700  174.7310  137.2370 C   0  0  0  0  0  2  0  0  0  0  0  0
  182.4240  174.1890  137.6240 C   0  0  0  0  0  2  0  0  0  0  0  0
  189.0790  178.8870  136.9810 C   0  0  0  0  0  2  0  0  0  0  0  0
  182.8670  180.0160  139.1300 C   0  0  0  0  0  0  0  0  0  0  0  0
  183.2860  174.4990  136.4390 C   0  0  0  0  0  3  0  0  0  0  0  0
  187.2480  177.4670  136.5320 C   0  0  2  0  0  3  0  0  0  0  0  0
  182.3130  176.1920  139.2410 C   0  0  0  0  0  2  0  0  0  0  0  0
  189.3540  177.4400  137.3990 C   0  0  2  0  0  3  0  0  0  0  0  0
  187.6170  178.9280  136.5820 C   0  0  0  0  0  2  0  0  0  0  0  0
  180.5760  177.9670  138.6820 C   0  0  0  0  0  0  0  0  0  0  0  0
  188.1440  175.4010  137.0870 C   0  0  0  0  0  2  0  0  0  0  0  0
  185.7720  177.1070  136.7070 C   0  0  1  0  0  3  0  0  0  0  0  0
  188.0600  176.7880  137.5220 N   0  0  2  0  0  0  0  0  0  0  0  0
  190.0800  177.4030  138.7360 C   0  0  0  0  0  2  0  0  0  0  0  0
  188.2380  177.2230  142.1410 C   0  0  0  0  0  0  0  0  0  0  0  0
  187.5130  178.2510  142.1940 O   0  0  0  0  0  0  0  0  0  0  0  0
  188.5030  178.8640  139.7550 O   0  0  0  0  0  0  0  0  0  0  0  0
  189.0640  176.9580  141.0020 N   0  0  0  0  0  2  0  0  0  0  0  0
  188.2350  176.2670  143.2780 C   0  0  0  0  0  1  0  0  0  0  0  0
  189.1620  177.7930  139.8430 C   0  0  0  0  0  0  0  0  0  0  0  0
  1 15  1  0  0  0  0
  2 16  1  0  0  0  0
  3 22  1  0  0  0  0
  3 14  1  0  0  0  0
  4 25  2  0  0  0  0
  5 15  1  0  0  0  0
  5 19  1  0  0  0  0
  7  4  1  0  0  0  0
  7 10  2  0  0  0  0
  8  2  2  0  0  0  0
  9  6  1  6  0  0  0
 10 22  1  0  0  0  0
 11  6  2  0  0  0  0
 13  7  1  0  0  0  0
 14  9  1  0  0  0  0
 15 12  2  0  0  0  0
 17 10  1  0  0  0  0
 18 23  1  0  0  0  0
 19 14  2  0  0  0  0
 19  9  1  0  0  0  0
 20  8  2  0  0  0  0
 20 17  1  0  0  0  0
 21 24  1  1  0  0  0
 21 27  1  0  0  0  0
 21 28  1  0  0  0  0
 23 28  1  0  0  0  0
 23 29  1  1  0  0  0
 24 18  1  0  0  0  0
 25  1  1  0  0  0  0
 25  3  1  0  0  0  0
 26 16  1  0  0  0  0
 27  2  1  0  0  0  0
 27 11  1  1  0  0  0
 28 26  1  6  0  0  0
 29 35  1  0  0  0  0
 30 31  2  0  0  0  0
 30 34  1  0  0  0  0
 32 35  2  0  0  0  0
 33 30  1  0  0  0  0
 35 33  1  0  0  0  0
M  END
>  <MODEL>
8

>  <REMARK>
 VINA RESULT:      -7.3      3.472      8.154
  Name = 
  2 active torsions:
  status: ('A' for Active; 'I' for Inactive)
    1  A    between atoms: C_27  and  C_32
    2  A    between atoms: C_29  and  C_32
                            x       y       z     vdW  Elec       q    Type
                         _______ _______ _______ _____ _____    ______ ____

>  <TORSDO>
F 2

$$$$
=
 OpenBabel11042410313D

 35 40  0  0  1  0  0  0  0  0999 V2000
  190.6810  177.4960  144.7200 N   0  0  0  0  0  2  0  0  0  0  0  0
  183.8390  179.0160  143.7510 C   0  0  0  0  0  0  0  0  0  0  0  0
  188.2130  176.8430  144.6750 N   0  0  0  0  0  0  0  0  0  0  0  0
  189.1530  178.1190  146.4590 C   0  0  0  0  0  3  0  0  0  0  0  0
  190.4660  177.7740  142.0910 C   0  0  0  0  0  2  0  0  0  0  0  0
  186.8800  178.1090  141.8890 C   0  0  0  0  0  3  0  0  0  0  0  0
  187.7960  178.2780  147.0160 C   0  0  0  0  0  0  0  0  0  0  0  0
  184.3220  179.0940  144.9650 C   0  0  0  0  0  0  0  0  0  0  0  0
  187.7710  176.9120  141.9710 C   0  0  2  0  0  3  0  0  0  0  0  0
  186.7410  177.6700  146.4450 C   0  0  0  0  0  0  0  0  0  0  0  0
  185.6740  178.0390  142.4570 C   0  0  0  0  0  3  0  0  0  0  0  0
  192.4170  177.0600  143.2310 O   0  0  0  0  0  0  0  0  0  0  0  0
  187.6180  179.1210  148.1070 O   0  0  0  0  0  1  0  0  0  0  0  0
  188.2490  176.8900  143.2820 C   0  0  0  0  0  0  0  0  0  0  0  0
  191.2110  177.3940  143.3630 C   0  0  0  0  0  0  0  0  0  0  0  0
  182.4890  178.3580  143.5660 C   0  0  0  0  0  2  0  0  0  0  0  0
  185.3410  177.9680  146.8890 C   0  0  0  0  0  2  0  0  0  0  0  0
  183.5740  179.1440  138.9980 C   0  0  0  0  0  2  0  0  0  0  0  0
  189.1030  177.2680  142.2220 C   0  0  0  0  0  0  0  0  0  0  0  0
  184.7960  179.1710  146.1820 C   0  0  0  0  0  3  0  0  0  0  0  0
  183.9090  179.4240  141.3170 C   0  0  2  0  0  3  0  0  0  0  0  0
  186.9420  176.6430  145.3660 C   0  0  0  0  0  2  0  0  0  0  0  0
  182.4420  178.5280  139.8230 C   0  0  2  0  0  3  0  0  0  0  0  0
  184.6290  179.5680  140.0010 C   0  0  0  0  0  2  0  0  0  0  0  0
  189.3500  177.4670  145.3120 C   0  0  0  0  0  0  0  0  0  0  0  0
  181.9190  178.5760  142.1560 C   0  0  0  0  0  2  0  0  0  0  0  0
  184.7640  179.2240  142.5690 C   0  0  1  0  0  3  0  0  0  0  0  0
  182.9620  178.3370  141.1680 N   0  0  2  0  0  0  0  0  0  0  0  0
  182.0270  177.1880  139.2350 C   0  0  0  0  0  2  0  0  0  0  0  0
  184.6240  175.7940  136.7190 C   0  0  0  0  0  0  0  0  0  0  0  0
  184.2840  176.2390  135.5910 O   0  0  0  0  0  0  0  0  0  0  0  0
  182.2460  177.4580  136.8820 O   0  0  0  0  0  0  0  0  0  0  0  0
  183.8810  176.1190  137.8980 N   0  0  0  0  0  2  0  0  0  0  0  0
  185.8190  174.9170  136.8280 C   0  0  0  0  0  1  0  0  0  0  0  0
  182.7140  176.9480  137.9350 C   0  0  0  0  0  0  0  0  0  0  0  0
  1 25  1  0  0  0  0
  2  8  2  0  0  0  0
  3 25  1  0  0  0  0
  3 22  1  0  0  0  0
  4  7  1  0  0  0  0
  5 19  1  0  0  0  0
  5 15  1  0  0  0  0
  6 11  2  0  0  0  0
  7 13  1  0  0  0  0
  8 20  2  0  0  0  0
  9  6  1  1  0  0  0
  9 19  1  0  0  0  0
  9 14  1  0  0  0  0
 10 17  1  0  0  0  0
 10  7  2  0  0  0  0
 12 15  2  0  0  0  0
 14  3  1  0  0  0  0
 15  1  1  0  0  0  0
 16  2  1  0  0  0  0
 18 23  1  0  0  0  0
 18 24  1  0  0  0  0
 19 14  2  0  0  0  0
 20 17  1  0  0  0  0
 21 24  1  6  0  0  0
 21 27  1  0  0  0  0
 22 10  1  0  0  0  0
 23 29  1  6  0  0  0
 23 28  1  0  0  0  0
 25  4  2  0  0  0  0
 26 16  1  0  0  0  0
 27 11  1  6  0  0  0
 27  2  1  0  0  0  0
 28 21  1  0  0  0  0
 28 26  1  1  0  0  0
 30 34  1  0  0  0  0
 30 33  1  0  0  0  0
 31 30  2  0  0  0  0
 32 35  2  0  0  0  0
 33 35  1  0  0  0  0
 35 29  1  0  0  0  0
M  END
>  <MODEL>
9

>  <REMARK>
 VINA RESULT:      -7.2      2.099      3.464
  Name = 
  2 active torsions:
  status: ('A' for Active; 'I' for Inactive)
    1  A    between atoms: C_27  and  C_32
    2  A    between atoms: C_29  and  C_32
                            x       y       z     vdW  Elec       q    Type
                         _______ _______ _______ _____ _____    ______ ____

>  <TORSDO>
F 2

$$$$
