=
 OpenBabel11042410503D

 31 36  0  0  1  0  0  0  0  0999 V2000
  188.2190  176.3070  143.9540 N   0  0  0  0  0  0  0  0  0  0  0  0
  188.9950  175.9910  142.9750 C   0  0  0  0  0  3  0  0  0  0  0  0
  184.8490  178.5650  145.4740 C   0  0  0  0  0  0  0  0  0  0  0  0
  185.9650  178.2580  144.7540 C   0  0  0  0  0  0  0  0  0  0  0  0
  184.2340  178.8260  143.2270 C   0  0  1  0  0  3  0  0  0  0  0  0
  188.8510  178.4600  148.3880 C   0  0  0  0  0  1  0  0  0  0  0  0
  189.5940  177.1310  146.1180 S   0  0  0  0  0  0  0  0  0  0  0  0
  185.7250  178.4310  143.3070 C   0  0  0  0  0  2  0  0  0  0  0  0
  183.6990  178.9450  144.6230 C   0  0  2  0  0  3  0  0  0  0  0  0
  184.0290  180.0760  143.8480 O   0  0  0  0  0  0  0  0  0  0  0  0
  184.8470  178.4750  146.8300 N   0  0  0  0  0  0  0  0  0  0  0  0
  185.9570  178.0970  147.4790 N   0  0  0  0  0  0  0  0  0  0  0  0
  187.1010  177.7970  146.7930 C   0  0  0  0  0  0  0  0  0  0  0  0
  187.1240  177.8590  145.4140 C   0  0  0  0  0  0  0  0  0  0  0  0
  188.3610  177.3760  147.4480 C   0  0  2  0  0  3  0  0  0  0  0  0
  188.4050  177.4880  144.7660 C   0  0  2  0  0  3  0  0  0  0  0  0
  190.1670  176.8290  142.5660 C   0  0  0  0  0  2  0  0  0  0  0  0
  189.7870  177.6800  141.3710 C   0  0  0  0  0  2  0  0  0  0  0  0
  191.9200  177.4420  140.4000 O   0  0  0  0  0  0  0  0  0  0  0  0
  190.7130  177.4020  140.2260 C   0  0  0  0  0  0  0  0  0  0  0  0
  190.7860  175.8060  138.3240 C   0  0  0  0  0  2  0  0  0  0  0  0
  190.2810  175.5720  136.9380 C   0  0  0  0  0  3  0  0  0  0  0  0
  188.0110  176.3020  137.6580 C   0  0  1  0  0  3  0  0  0  0  0  0
  187.9690  177.8180  137.7840 C   0  0  1  0  0  0  0  0  0  0  0  0
  189.0040  175.7970  136.6300 C   0  0  0  0  0  0  0  0  0  0  0  0
  186.6660  178.3330  138.1680 N   0  0  0  0  0  1  0  0  0  0  0  0
  190.1770  177.0950  138.8630 C   0  0  1  0  0  3  0  0  0  0  0  0
  188.5700  175.5630  135.3330 O   0  0  0  0  0  1  0  0  0  0  0  0
  188.6390  177.0110  138.8890 C   0  0  2  0  0  3  0  0  0  0  0  0
  188.9780  179.9670  137.4550 O   0  0  0  0  0  1  0  0  0  0  0  0
  188.8170  178.7100  136.8720 C   0  0  0  0  0  2  0  0  0  0  0  0
  2  1  2  0  0  0  0
  3 11  1  0  0  0  0
  4 14  1  0  0  0  0
  4  3  2  0  0  0  0
  5  8  1  1  0  0  0
  5 10  1  0  0  0  0
  5  9  1  0  0  0  0
  7 15  1  0  0  0  0
  8  4  1  0  0  0  0
  9 10  1  1  0  0  0
  9  3  1  0  0  0  0
 11 12  2  0  0  0  0
 13 15  1  0  0  0  0
 13 12  1  0  0  0  0
 14 13  2  0  0  0  0
 15  6  1  1  0  0  0
 16  1  1  6  0  0  0
 16 14  1  0  0  0  0
 16  7  1  0  0  0  0
 17  2  1  0  0  0  0
 18 17  1  0  0  0  0
 20 19  2  0  0  0  0
 20 18  1  0  0  0  0
 21 27  1  0  0  0  0
 22 21  1  0  0  0  0
 23 25  1  6  0  0  0
 23 24  1  0  0  0  0
 23 29  1  0  0  0  0
 24 26  1  1  0  0  0
 24 29  1  0  0  0  0
 25 22  2  0  0  0  0
 27 29  1  0  0  0  0
 27 20  1  1  0  0  0
 28 25  1  0  0  0  0
 31 30  1  0  0  0  0
 31 24  1  0  0  0  0
M  END
>  <MODEL>
1

>  <REMARK>
 VINA RESULT:      -9.3      0.000      0.000
  Name = 
  6 active torsions:
  status: ('A' for Active; 'I' for Inactive)
    1  A    between atoms: C_2  and  C_5
    2  A    between atoms: C_2  and  C_10
    3  A    between atoms: N_3  and  C_31
    4  A    between atoms: C_5  and  C_14
    5  A    between atoms: C_10  and  C_25
    6  A    between atoms: C_18  and  C_19
                            x       y       z     vdW  Elec       q    Type
                         _______ _______ _______ _____ _____    ______ ____

>  <TORSDO>
F 6

$$$$
=
 OpenBabel11042410503D

 31 36  0  0  1  0  0  0  0  0999 V2000
  188.2430  176.3370  143.9890 N   0  0  0  0  0  0  0  0  0  0  0  0
  188.9980  176.0620  142.9820 C   0  0  0  0  0  3  0  0  0  0  0  0
  184.8210  178.5580  145.4470 C   0  0  0  0  0  0  0  0  0  0  0  0
  185.9520  178.2630  144.7470 C   0  0  0  0  0  0  0  0  0  0  0  0
  184.2390  178.8040  143.1900 C   0  0  1  0  0  3  0  0  0  0  0  0
  188.7780  178.5140  148.4250 C   0  0  0  0  0  1  0  0  0  0  0  0
  189.5730  177.1860  146.1710 S   0  0  0  0  0  0  0  0  0  0  0  0
  185.7330  178.4280  143.2950 C   0  0  0  0  0  2  0  0  0  0  0  0
  183.6810  178.9210  144.5770 C   0  0  2  0  0  3  0  0  0  0  0  0
  184.0090  180.0540  143.8030 O   0  0  0  0  0  0  0  0  0  0  0  0
  184.7990  178.4730  146.8040 N   0  0  0  0  0  0  0  0  0  0  0  0
  185.9040  178.1120  147.4710 N   0  0  0  0  0  0  0  0  0  0  0  0
  187.0610  177.8230  146.8050 C   0  0  0  0  0  0  0  0  0  0  0  0
  187.1050  177.8810  145.4260 C   0  0  0  0  0  0  0  0  0  0  0  0
  188.3160  177.4200  147.4810 C   0  0  2  0  0  3  0  0  0  0  0  0
  188.4020  177.5240  144.7990 C   0  0  2  0  0  3  0  0  0  0  0  0
  190.1130  176.9560  142.5360 C   0  0  0  0  0  2  0  0  0  0  0  0
  190.3100  176.8110  141.0410 C   0  0  0  0  0  2  0  0  0  0  0  0
  188.6150  178.4410  140.9130 O   0  0  0  0  0  0  0  0  0  0  0  0
  189.2920  177.6280  140.3060 C   0  0  0  0  0  0  0  0  0  0  0  0
  189.1600  178.7850  138.1110 C   0  0  0  0  0  2  0  0  0  0  0  0
  188.8730  178.5720  136.6610 C   0  0  0  0  0  3  0  0  0  0  0  0
  190.2420  176.4920  136.7120 C   0  0  1  0  0  3  0  0  0  0  0  0
  189.4590  175.3710  137.3820 C   0  0  1  0  0  0  0  0  0  0  0  0
  189.3720  177.5190  136.0150 C   0  0  0  0  0  0  0  0  0  0  0  0
  190.1740  174.1080  137.4230 N   0  0  0  0  0  1  0  0  0  0  0  0
  189.0790  177.4470  138.8350 C   0  0  1  0  0  3  0  0  0  0  0  0
  189.0880  177.3570  134.6660 O   0  0  0  0  0  1  0  0  0  0  0  0
  190.0950  176.4440  138.2580 C   0  0  2  0  0  3  0  0  0  0  0  0
  187.5830  174.4560  136.2040 O   0  0  0  0  0  1  0  0  0  0  0  0
  187.9340  175.2930  137.2630 C   0  0  0  0  0  2  0  0  0  0  0  0
  2  1  2  0  0  0  0
  3 11  1  0  0  0  0
  4 14  1  0  0  0  0
  4  3  2  0  0  0  0
  5  8  1  1  0  0  0
  5 10  1  0  0  0  0
  5  9  1  0  0  0  0
  7 15  1  0  0  0  0
  8  4  1  0  0  0  0
  9 10  1  1  0  0  0
  9  3  1  0  0  0  0
 11 12  2  0  0  0  0
 13 12  1  0  0  0  0
 13 15  1  0  0  0  0
 14 13  2  0  0  0  0
 15  6  1  1  0  0  0
 16  1  1  6  0  0  0
 16 14  1  0  0  0  0
 16  7  1  0  0  0  0
 17  2  1  0  0  0  0
 18 17  1  0  0  0  0
 20 19  2  0  0  0  0
 20 18  1  0  0  0  0
 21 27  1  0  0  0  0
 22 21  1  0  0  0  0
 23 25  1  6  0  0  0
 23 24  1  0  0  0  0
 23 29  1  0  0  0  0
 24 26  1  1  0  0  0
 24 29  1  0  0  0  0
 25 22  2  0  0  0  0
 27 20  1  1  0  0  0
 28 25  1  0  0  0  0
 29 27  1  0  0  0  0
 30 31  1  0  0  0  0
 31 24  1  0  0  0  0
M  END
>  <MODEL>
2

>  <REMARK>
 VINA RESULT:      -9.1      1.506      2.134
  Name = 
  6 active torsions:
  status: ('A' for Active; 'I' for Inactive)
    1  A    between atoms: C_2  and  C_5
    2  A    between atoms: C_2  and  C_10
    3  A    between atoms: N_3  and  C_31
    4  A    between atoms: C_5  and  C_14
    5  A    between atoms: C_10  and  C_25
    6  A    between atoms: C_18  and  C_19
                            x       y       z     vdW  Elec       q    Type
                         _______ _______ _______ _____ _____    ______ ____

>  <TORSDO>
F 6

$$$$
=
 OpenBabel11042410503D

 31 36  0  0  1  0  0  0  0  0999 V2000
  188.2860  176.4090  143.9120 N   0  0  0  0  0  0  0  0  0  0  0  0
  188.7470  176.3420  142.7110 C   0  0  0  0  0  3  0  0  0  0  0  0
  184.8500  178.5450  145.4610 C   0  0  0  0  0  0  0  0  0  0  0  0
  185.9800  178.2840  144.7440 C   0  0  0  0  0  0  0  0  0  0  0  0
  184.2490  178.8540  143.2170 C   0  0  1  0  0  3  0  0  0  0  0  0
  188.8290  178.4540  148.4090 C   0  0  0  0  0  1  0  0  0  0  0  0
  189.6230  177.2050  146.1100 S   0  0  0  0  0  0  0  0  0  0  0  0
  185.7480  178.4920  143.2990 C   0  0  0  0  0  2  0  0  0  0  0  0
  183.7000  178.9220  144.6100 C   0  0  2  0  0  3  0  0  0  0  0  0
  184.0100  180.0820  143.8700 O   0  0  0  0  0  0  0  0  0  0  0  0
  184.8390  178.4180  146.8150 N   0  0  0  0  0  0  0  0  0  0  0  0
  185.9520  178.0490  147.4630 N   0  0  0  0  0  0  0  0  0  0  0  0
  187.1080  177.7940  146.7800 C   0  0  0  0  0  0  0  0  0  0  0  0
  187.1420  177.8950  145.4030 C   0  0  0  0  0  0  0  0  0  0  0  0
  188.3720  177.3840  147.4350 C   0  0  2  0  0  3  0  0  0  0  0  0
  188.4380  177.5720  144.7570 C   0  0  2  0  0  3  0  0  0  0  0  0
  189.4800  177.4750  142.0590 C   0  0  0  0  0  2  0  0  0  0  0  0
  189.5390  177.2430  140.5630 C   0  0  0  0  0  2  0  0  0  0  0  0
  191.8550  177.5430  140.8700 O   0  0  0  0  0  0  0  0  0  0  0  0
  190.9650  177.2160  140.1020 C   0  0  0  0  0  0  0  0  0  0  0  0
  192.8180  176.6350  138.5530 C   0  0  0  0  0  2  0  0  0  0  0  0
  193.1290  176.3010  137.1310 C   0  0  0  0  0  3  0  0  0  0  0  0
  191.1470  174.7940  137.0680 C   0  0  1  0  0  3  0  0  0  0  0  0
  189.8720  175.6170  136.9520 C   0  0  1  0  0  0  0  0  0  0  0  0
  192.3620  175.4520  136.4470 C   0  0  0  0  0  0  0  0  0  0  0  0
  188.6650  174.8120  136.8750 N   0  0  0  0  0  1  0  0  0  0  0  0
  191.3120  176.8110  138.7040 C   0  0  1  0  0  3  0  0  0  0  0  0
  192.6860  175.1610  135.1290 O   0  0  0  0  0  1  0  0  0  0  0  0
  190.5620  175.5250  138.3080 C   0  0  2  0  0  3  0  0  0  0  0  0
  188.7110  177.6710  136.5280 O   0  0  0  0  0  1  0  0  0  0  0  0
  189.8580  176.9490  136.1960 C   0  0  0  0  0  2  0  0  0  0  0  0
  2  1  2  0  0  0  0
  3 11  1  0  0  0  0
  4 14  1  0  0  0  0
  4  3  2  0  0  0  0
  5  8  1  1  0  0  0
  5 10  1  0  0  0  0
  5  9  1  0  0  0  0
  7 15  1  0  0  0  0
  8  4  1  0  0  0  0
  9 10  1  1  0  0  0
  9  3  1  0  0  0  0
 11 12  2  0  0  0  0
 13 15  1  0  0  0  0
 13 12  1  0  0  0  0
 14 13  2  0  0  0  0
 15  6  1  1  0  0  0
 16  1  1  6  0  0  0
 16 14  1  0  0  0  0
 16  7  1  0  0  0  0
 17  2  1  0  0  0  0
 18 17  1  0  0  0  0
 20 18  1  0  0  0  0
 20 19  2  0  0  0  0
 21 27  1  0  0  0  0
 22 21  1  0  0  0  0
 23 25  1  6  0  0  0
 23 29  1  0  0  0  0
 24 26  1  6  0  0  0
 24 23  1  0  0  0  0
 24 29  1  0  0  0  0
 25 22  2  0  0  0  0
 27 20  1  1  0  0  0
 28 25  1  0  0  0  0
 29 27  1  0  0  0  0
 31 30  1  0  0  0  0
 31 24  1  0  0  0  0
M  END
>  <MODEL>
3

>  <REMARK>
 VINA RESULT:      -8.6      1.450      1.823
  Name = 
  6 active torsions:
  status: ('A' for Active; 'I' for Inactive)
    1  A    between atoms: C_2  and  C_5
    2  A    between atoms: C_2  and  C_10
    3  A    between atoms: N_3  and  C_31
    4  A    between atoms: C_5  and  C_14
    5  A    between atoms: C_10  and  C_25
    6  A    between atoms: C_18  and  C_19
                            x       y       z     vdW  Elec       q    Type
                         _______ _______ _______ _____ _____    ______ ____

>  <TORSDO>
F 6

$$$$
=
 OpenBabel11042410503D

 31 36  0  0  1  0  0  0  0  0999 V2000
  188.2410  176.3750  143.9180 N   0  0  0  0  0  0  0  0  0  0  0  0
  188.7360  176.2710  142.7330 C   0  0  0  0  0  3  0  0  0  0  0  0
  184.8290  178.5560  145.4590 C   0  0  0  0  0  0  0  0  0  0  0  0
  185.9520  178.2770  144.7390 C   0  0  0  0  0  0  0  0  0  0  0  0
  184.2160  178.8390  143.2150 C   0  0  1  0  0  3  0  0  0  0  0  0
  188.8250  178.4770  148.3840 C   0  0  0  0  0  1  0  0  0  0  0  0
  189.5960  177.1920  146.0970 S   0  0  0  0  0  0  0  0  0  0  0  0
  185.7130  178.4670  143.2930 C   0  0  0  0  0  2  0  0  0  0  0  0
  183.6760  178.9290  144.6100 C   0  0  2  0  0  3  0  0  0  0  0  0
  183.9890  180.0760  143.8520 O   0  0  0  0  0  0  0  0  0  0  0  0
  184.8250  178.4470  146.8150 N   0  0  0  0  0  0  0  0  0  0  0  0
  185.9400  178.0790  147.4610 N   0  0  0  0  0  0  0  0  0  0  0  0
  187.0900  177.8070  146.7750 C   0  0  0  0  0  0  0  0  0  0  0  0
  187.1160  177.8890  145.3960 C   0  0  0  0  0  0  0  0  0  0  0  0
  188.3550  177.3980  147.4270 C   0  0  2  0  0  3  0  0  0  0  0  0
  188.4050  177.5490  144.7460 C   0  0  2  0  0  3  0  0  0  0  0  0
  189.5240  177.3660  142.0840 C   0  0  0  0  0  2  0  0  0  0  0  0
  189.3550  177.2870  140.5810 C   0  0  0  0  0  2  0  0  0  0  0  0
  191.7000  177.4320  140.4080 O   0  0  0  0  0  0  0  0  0  0  0  0
  190.6700  176.9850  139.9290 C   0  0  0  0  0  0  0  0  0  0  0  0
  189.3540  176.0040  138.0640 C   0  0  0  0  0  2  0  0  0  0  0  0
  189.4530  175.1160  136.8680 C   0  0  0  0  0  3  0  0  0  0  0  0
  191.5750  176.2490  136.2220 C   0  0  1  0  0  3  0  0  0  0  0  0
  192.7150  175.7590  137.1030 C   0  0  1  0  0  0  0  0  0  0  0  0
  190.4730  175.2290  136.0180 C   0  0  0  0  0  0  0  0  0  0  0  0
  194.0010  176.3460  136.7710 N   0  0  0  0  0  1  0  0  0  0  0  0
  190.7380  176.1570  138.6840 C   0  0  1  0  0  3  0  0  0  0  0  0
  190.5280  174.3910  134.9130 O   0  0  0  0  0  1  0  0  0  0  0  0
  191.7300  176.7700  137.6770 C   0  0  2  0  0  3  0  0  0  0  0  0
  194.0460  173.9420  137.9250 O   0  0  0  0  0  1  0  0  0  0  0  0
  192.7340  174.3260  137.6440 C   0  0  0  0  0  2  0  0  0  0  0  0
  2  1  2  0  0  0  0
  3 11  1  0  0  0  0
  4 14  1  0  0  0  0
  4  3  2  0  0  0  0
  5  8  1  1  0  0  0
  5 10  1  0  0  0  0
  5  9  1  0  0  0  0
  7 15  1  0  0  0  0
  8  4  1  0  0  0  0
  9 10  1  1  0  0  0
  9  3  1  0  0  0  0
 11 12  2  0  0  0  0
 13 15  1  0  0  0  0
 13 12  1  0  0  0  0
 14 13  2  0  0  0  0
 15  6  1  1  0  0  0
 16  1  1  6  0  0  0
 16 14  1  0  0  0  0
 16  7  1  0  0  0  0
 17  2  1  0  0  0  0
 18 17  1  0  0  0  0
 20 19  2  0  0  0  0
 20 18  1  0  0  0  0
 21 27  1  0  0  0  0
 22 21  1  0  0  0  0
 23 25  1  1  0  0  0
 23 24  1  0  0  0  0
 23 29  1  0  0  0  0
 24 26  1  6  0  0  0
 24 31  1  0  0  0  0
 24 29  1  0  0  0  0
 25 22  2  0  0  0  0
 27 20  1  1  0  0  0
 28 25  1  0  0  0  0
 29 27  1  0  0  0  0
 31 30  1  0  0  0  0
M  END
>  <MODEL>
4

>  <REMARK>
 VINA RESULT:      -8.6      1.890      2.694
  Name = 
  6 active torsions:
  status: ('A' for Active; 'I' for Inactive)
    1  A    between atoms: C_2  and  C_5
    2  A    between atoms: C_2  and  C_10
    3  A    between atoms: N_3  and  C_31
    4  A    between atoms: C_5  and  C_14
    5  A    between atoms: C_10  and  C_25
    6  A    between atoms: C_18  and  C_19
                            x       y       z     vdW  Elec       q    Type
                         _______ _______ _______ _____ _____    ______ ____

>  <TORSDO>
F 6

$$$$
=
 OpenBabel11042410503D

 31 36  0  0  1  0  0  0  0  0999 V2000
  184.5590  179.7920  143.3590 N   0  0  0  0  0  0  0  0  0  0  0  0
  184.8580  179.6130  144.5990 C   0  0  0  0  0  3  0  0  0  0  0  0
  180.6190  179.0280  141.7270 C   0  0  0  0  0  0  0  0  0  0  0  0
  181.7660  178.8500  142.4410 C   0  0  0  0  0  0  0  0  0  0  0  0
  179.9360  178.7800  143.9550 C   0  0  1  0  0  3  0  0  0  0  0  0
  184.4210  178.0020  138.7250 C   0  0  0  0  0  1  0  0  0  0  0  0
  185.5700  178.7540  141.0890 S   0  0  0  0  0  0  0  0  0  0  0  0
  181.4700  178.6300  143.8720 C   0  0  0  0  0  2  0  0  0  0  0  0
  179.4040  178.9950  142.5700 C   0  0  2  0  0  3  0  0  0  0  0  0
  179.3070  177.7500  143.2250 O   0  0  0  0  0  0  0  0  0  0  0  0
  180.6590  179.2450  140.3860 N   0  0  0  0  0  0  0  0  0  0  0  0
  181.8360  179.2690  139.7450 N   0  0  0  0  0  0  0  0  0  0  0  0
  183.0070  179.0790  140.4240 C   0  0  0  0  0  0  0  0  0  0  0  0
  182.9960  178.8770  141.7900 C   0  0  0  0  0  0  0  0  0  0  0  0
  184.3390  179.0910  139.7760 C   0  0  2  0  0  3  0  0  0  0  0  0
  184.3220  178.7060  142.4340 C   0  0  2  0  0  3  0  0  0  0  0  0
  184.9780  178.2530  145.2160 C   0  0  0  0  0  2  0  0  0  0  0  0
  186.2470  178.1820  146.0400 C   0  0  0  0  0  2  0  0  0  0  0  0
  187.1890  177.4010  144.0270 O   0  0  0  0  0  0  0  0  0  0  0  0
  187.3910  177.7250  145.1870 C   0  0  0  0  0  0  0  0  0  0  0  0
  188.7520  177.1290  147.1780 C   0  0  0  0  0  2  0  0  0  0  0  0
  190.1430  177.1260  147.7190 C   0  0  0  0  0  3  0  0  0  0  0  0
  190.9730  176.2580  145.5370 C   0  0  1  0  0  3  0  0  0  0  0  0
  191.0100  177.3820  144.5110 C   0  0  1  0  0  0  0  0  0  0  0  0
  191.1660  176.7230  146.9660 C   0  0  0  0  0  0  0  0  0  0  0  0
  191.5150  176.9680  143.2140 N   0  0  0  0  0  1  0  0  0  0  0  0
  188.7780  177.6410  145.7430 C   0  0  1  0  0  3  0  0  0  0  0  0
  192.4450  176.7280  147.5050 O   0  0  0  0  0  1  0  0  0  0  0  0
  189.6660  176.7490  144.8550 C   0  0  2  0  0  3  0  0  0  0  0  0
  190.9320  179.7010  143.9100 O   0  0  0  0  0  1  0  0  0  0  0  0
  191.2990  178.8250  144.9320 C   0  0  0  0  0  2  0  0  0  0  0  0
  1  2  2  0  0  0  0
  2 17  1  0  0  0  0
  3  4  1  0  0  0  0
  4  8  1  0  0  0  0
  5  8  1  6  0  0  0
  7 16  1  0  0  0  0
  9  3  1  6  0  0  0
  9 10  1  0  0  0  0
  9  5  1  0  0  0  0
 10  5  1  0  0  0  0
 11  3  2  0  0  0  0
 12 11  1  0  0  0  0
 12 13  2  0  0  0  0
 13 14  1  0  0  0  0
 14 16  1  0  0  0  0
 14  4  2  0  0  0  0
 15  6  1  6  0  0  0
 15 13  1  0  0  0  0
 15  7  1  0  0  0  0
 16  1  1  1  0  0  0
 17 18  1  0  0  0  0
 19 20  2  0  0  0  0
 20 18  1  0  0  0  0
 21 22  1  0  0  0  0
 23 25  1  1  0  0  0
 24 26  1  6  0  0  0
 24 29  1  0  0  0  0
 24 31  1  0  0  0  0
 24 23  1  0  0  0  0
 25 28  1  0  0  0  0
 25 22  2  0  0  0  0
 27 20  1  6  0  0  0
 27 21  1  0  0  0  0
 29 23  1  0  0  0  0
 29 27  1  0  0  0  0
 30 31  1  0  0  0  0
M  END
>  <MODEL>
5

>  <REMARK>
 VINA RESULT:      -8.5      4.220      7.384
  Name = 
  6 active torsions:
  status: ('A' for Active; 'I' for Inactive)
    1  A    between atoms: C_2  and  C_5
    2  A    between atoms: C_2  and  C_10
    3  A    between atoms: N_3  and  C_31
    4  A    between atoms: C_5  and  C_14
    5  A    between atoms: C_10  and  C_25
    6  A    between atoms: C_18  and  C_19
                            x       y       z     vdW  Elec       q    Type
                         _______ _______ _______ _____ _____    ______ ____

>  <TORSDO>
F 6

$$$$
=
 OpenBabel11042410503D

 31 36  0  0  1  0  0  0  0  0999 V2000
  184.5910  179.2250  140.9350 N   0  0  0  0  0  0  0  0  0  0  0  0
  184.8760  178.9890  139.7010 C   0  0  0  0  0  3  0  0  0  0  0  0
  185.5730  178.4570  145.0840 C   0  0  0  0  0  0  0  0  0  0  0  0
  185.3810  178.2410  143.7520 C   0  0  0  0  0  0  0  0  0  0  0  0
  187.6340  177.6890  144.2730 C   0  0  1  0  0  3  0  0  0  0  0  0
  180.7450  178.4330  143.9810 C   0  0  0  0  0  1  0  0  0  0  0  0
  182.0160  178.7790  141.5850 S   0  0  0  0  0  0  0  0  0  0  0  0
  186.6040  177.7020  143.1220 C   0  0  0  0  0  2  0  0  0  0  0  0
  186.9480  178.1380  145.5280 C   0  0  2  0  0  3  0  0  0  0  0  0
  187.2320  176.7800  145.2740 O   0  0  0  0  0  0  0  0  0  0  0  0
  184.5730  178.9510  145.8620 N   0  0  0  0  0  0  0  0  0  0  0  0
  183.3750  179.2170  145.3240 N   0  0  0  0  0  0  0  0  0  0  0  0
  183.1390  178.9980  143.9960 C   0  0  0  0  0  0  0  0  0  0  0  0
  184.1430  178.5160  143.1790 C   0  0  0  0  0  0  0  0  0  0  0  0
  181.8380  179.2670  143.3410 C   0  0  2  0  0  3  0  0  0  0  0  0
  183.7910  178.3380  141.7490 C   0  0  2  0  0  3  0  0  0  0  0  0
  184.4160  177.7560  138.9850 C   0  0  0  0  0  2  0  0  0  0  0  0
  184.8160  177.8420  137.5250 C   0  0  0  0  0  2  0  0  0  0  0  0
  184.9400  175.6690  136.6240 O   0  0  0  0  0  0  0  0  0  0  0  0
  185.5520  176.6020  137.1190 C   0  0  0  0  0  0  0  0  0  0  0  0
  187.5520  175.1750  136.7470 C   0  0  0  0  0  2  0  0  0  0  0  0
  189.0110  175.0620  137.0390 C   0  0  0  0  0  3  0  0  0  0  0  0
  189.2890  177.4800  136.5130 C   0  0  1  0  0  3  0  0  0  0  0  0
  188.7760  178.3260  137.6700 C   0  0  1  0  0  0  0  0  0  0  0  0
  189.8130  176.1210  136.9300 C   0  0  0  0  0  0  0  0  0  0  0  0
  188.9320  179.7540  137.4600 N   0  0  0  0  0  1  0  0  0  0  0  0
  187.0290  176.4830  137.3300 C   0  0  1  0  0  3  0  0  0  0  0  0
  191.1660  175.9750  137.2040 O   0  0  0  0  0  1  0  0  0  0  0  0
  187.7650  177.6920  136.7230 C   0  0  2  0  0  3  0  0  0  0  0  0
  188.1910  178.6990  139.9640 O   0  0  0  0  0  1  0  0  0  0  0  0
  188.8780  177.8300  139.1150 C   0  0  0  0  0  2  0  0  0  0  0  0
  2  1  2  0  0  0  0
  3 11  1  0  0  0  0
  4  3  2  0  0  0  0
  5  8  1  6  0  0  0
  5 10  1  0  0  0  0
  5  9  1  0  0  0  0
  7 16  1  0  0  0  0
  7 15  1  0  0  0  0
  8  4  1  0  0  0  0
  9  3  1  6  0  0  0
 10  9  1  0  0  0  0
 12 11  2  0  0  0  0
 13 12  1  0  0  0  0
 14  4  1  0  0  0  0
 14 13  2  0  0  0  0
 15  6  1  1  0  0  0
 15 13  1  0  0  0  0
 16  1  1  6  0  0  0
 16 14  1  0  0  0  0
 17  2  1  0  0  0  0
 18 17  1  0  0  0  0
 19 20  2  0  0  0  0
 20 18  1  0  0  0  0
 21 22  1  0  0  0  0
 21 27  1  0  0  0  0
 23 29  1  0  0  0  0
 23 25  1  1  0  0  0
 23 24  1  0  0  0  0
 24 26  1  6  0  0  0
 24 31  1  0  0  0  0
 25 22  2  0  0  0  0
 25 28  1  0  0  0  0
 27 20  1  6  0  0  0
 29 27  1  0  0  0  0
 29 24  1  0  0  0  0
 31 30  1  0  0  0  0
M  END
>  <MODEL>
6

>  <REMARK>
 VINA RESULT:      -8.2      2.770      4.733
  Name = 
  6 active torsions:
  status: ('A' for Active; 'I' for Inactive)
    1  A    between atoms: C_2  and  C_5
    2  A    between atoms: C_2  and  C_10
    3  A    between atoms: N_3  and  C_31
    4  A    between atoms: C_5  and  C_14
    5  A    between atoms: C_10  and  C_25
    6  A    between atoms: C_18  and  C_19
                            x       y       z     vdW  Elec       q    Type
                         _______ _______ _______ _____ _____    ______ ____

>  <TORSDO>
F 6

$$$$
=
 OpenBabel11042410503D

 31 36  0  0  1  0  0  0  0  0999 V2000
  187.6480  178.7930  142.7240 N   0  0  0  0  0  0  0  0  0  0  0  0
  188.6330  178.2610  142.0870 C   0  0  0  0  0  3  0  0  0  0  0  0
  186.8570  178.3150  146.9570 C   0  0  0  0  0  0  0  0  0  0  0  0
  187.1770  178.0000  145.6700 C   0  0  0  0  0  0  0  0  0  0  0  0
  188.9830  177.3330  147.0660 C   0  0  1  0  0  3  0  0  0  0  0  0
  182.8620  178.5450  144.0390 C   0  0  0  0  0  1  0  0  0  0  0  0
  184.9930  178.5920  142.3260 S   0  0  0  0  0  0  0  0  0  0  0  0
  188.4890  177.3220  145.6030 C   0  0  0  0  0  2  0  0  0  0  0  0
  187.9110  177.9370  147.9240 C   0  0  2  0  0  3  0  0  0  0  0  0
  188.1340  176.5450  147.8710 O   0  0  0  0  0  0  0  0  0  0  0  0
  185.6890  178.9450  147.2500 N   0  0  0  0  0  0  0  0  0  0  0  0
  184.8260  179.2490  146.2700 N   0  0  0  0  0  0  0  0  0  0  0  0
  185.1050  178.9350  144.9700 C   0  0  0  0  0  0  0  0  0  0  0  0
  186.2940  178.3140  144.6420 C   0  0  0  0  0  0  0  0  0  0  0  0
  184.1950  179.2410  143.8410 C   0  0  2  0  0  3  0  0  0  0  0  0
  186.5100  178.0400  143.2000 C   0  0  2  0  0  3  0  0  0  0  0  0
  188.7070  176.7960  141.7850 C   0  0  0  0  0  2  0  0  0  0  0  0
  190.1580  176.3660  141.7140 C   0  0  0  0  0  2  0  0  0  0  0  0
  191.8450  177.6710  140.7140 O   0  0  0  0  0  0  0  0  0  0  0  0
  190.8300  177.0150  140.5430 C   0  0  0  0  0  0  0  0  0  0  0  0
  189.6980  178.2230  138.6890 C   0  0  0  0  0  2  0  0  0  0  0  0
  189.0800  178.0390  137.3430 C   0  0  0  0  0  3  0  0  0  0  0  0
  190.9860  176.5770  136.6840 C   0  0  1  0  0  3  0  0  0  0  0  0
  190.8320  175.2030  137.3200 C   0  0  1  0  0  0  0  0  0  0  0  0
  189.6720  177.2830  136.4180 C   0  0  0  0  0  0  0  0  0  0  0  0
  191.8870  174.2740  136.9590 N   0  0  0  0  0  1  0  0  0  0  0  0
  190.2610  176.8880  139.1640 C   0  0  1  0  0  3  0  0  0  0  0  0
  189.0700  177.1400  135.1760 O   0  0  0  0  0  1  0  0  0  0  0  0
  191.3250  176.3570  138.1840 C   0  0  2  0  0  3  0  0  0  0  0  0
  189.3740  173.3240  137.0200 O   0  0  0  0  0  1  0  0  0  0  0  0
  189.4460  174.6020  137.5740 C   0  0  0  0  0  2  0  0  0  0  0  0
  2  1  2  0  0  0  0
  3 11  1  0  0  0  0
  4  3  2  0  0  0  0
  5  8  1  6  0  0  0
  5 10  1  0  0  0  0
  5  9  1  0  0  0  0
  7 16  1  0  0  0  0
  7 15  1  0  0  0  0
  8  4  1  0  0  0  0
  9  3  1  6  0  0  0
 10  9  1  0  0  0  0
 12 11  2  0  0  0  0
 13 12  1  0  0  0  0
 14 13  2  0  0  0  0
 14  4  1  0  0  0  0
 15  6  1  1  0  0  0
 15 13  1  0  0  0  0
 16  1  1  6  0  0  0
 16 14  1  0  0  0  0
 17  2  1  0  0  0  0
 18 17  1  0  0  0  0
 20 19  2  0  0  0  0
 20 18  1  0  0  0  0
 21 27  1  0  0  0  0
 22 21  1  0  0  0  0
 23 25  1  1  0  0  0
 23 24  1  0  0  0  0
 23 29  1  0  0  0  0
 24 26  1  6  0  0  0
 24 31  1  0  0  0  0
 24 29  1  0  0  0  0
 25 22  2  0  0  0  0
 27 20  1  1  0  0  0
 28 25  1  0  0  0  0
 29 27  1  0  0  0  0
 30 31  1  0  0  0  0
M  END
>  <MODEL>
7

>  <REMARK>
 VINA RESULT:      -8.0      2.346      3.876
  Name = 
  6 active torsions:
  status: ('A' for Active; 'I' for Inactive)
    1  A    between atoms: C_2  and  C_5
    2  A    between atoms: C_2  and  C_10
    3  A    between atoms: N_3  and  C_31
    4  A    between atoms: C_5  and  C_14
    5  A    between atoms: C_10  and  C_25
    6  A    between atoms: C_18  and  C_19
                            x       y       z     vdW  Elec       q    Type
                         _______ _______ _______ _____ _____    ______ ____

>  <TORSDO>
F 6

$$$$
=
 OpenBabel11042410503D

 31 36  0  0  1  0  0  0  0  0999 V2000
  184.2870  179.3610  141.0560 N   0  0  0  0  0  0  0  0  0  0  0  0
  185.0470  179.2560  142.0910 C   0  0  0  0  0  3  0  0  0  0  0  0
  179.9890  178.9810  141.4460 C   0  0  0  0  0  0  0  0  0  0  0  0
  181.3170  178.7140  141.5960 C   0  0  0  0  0  0  0  0  0  0  0  0
  180.3730  179.0010  143.7590 C   0  0  1  0  0  3  0  0  0  0  0  0
  181.9230  177.2390  137.2330 C   0  0  0  0  0  1  0  0  0  0  0  0
  184.0740  178.0240  138.7280 S   0  0  0  0  0  0  0  0  0  0  0  0
  181.6860  178.6490  143.0260 C   0  0  0  0  0  2  0  0  0  0  0  0
  179.2890  179.1720  142.7360 C   0  0  2  0  0  3  0  0  0  0  0  0
  179.4020  178.0050  143.5210 O   0  0  0  0  0  0  0  0  0  0  0  0
  179.4340  179.0840  140.2100 N   0  0  0  0  0  0  0  0  0  0  0  0
  180.1900  178.9060  139.1180 N   0  0  0  0  0  0  0  0  0  0  0  0
  181.5220  178.6210  139.2280 C   0  0  0  0  0  0  0  0  0  0  0  0
  182.1160  178.5320  140.4710 C   0  0  0  0  0  0  0  0  0  0  0  0
  182.4130  178.4110  138.0630 C   0  0  2  0  0  3  0  0  0  0  0  0
  183.5720  178.2440  140.4800 C   0  0  2  0  0  3  0  0  0  0  0  0
  185.2570  177.9620  142.8150 C   0  0  0  0  0  2  0  0  0  0  0  0
  186.7330  177.7750  143.0980 C   0  0  0  0  0  2  0  0  0  0  0  0
  186.0080  177.5310  145.3260 O   0  0  0  0  0  0  0  0  0  0  0  0
  186.9620  177.6370  144.5720 C   0  0  0  0  0  0  0  0  0  0  0  0
  188.3480  177.1270  146.5710 C   0  0  0  0  0  2  0  0  0  0  0  0
  189.7320  177.2180  147.1220 C   0  0  0  0  0  3  0  0  0  0  0  0
  190.6350  176.4200  144.9420 C   0  0  1  0  0  3  0  0  0  0  0  0
  190.6010  177.5490  143.9210 C   0  0  1  0  0  0  0  0  0  0  0  0
  190.7860  176.8910  146.3750 C   0  0  0  0  0  0  0  0  0  0  0  0
  191.1430  177.1780  142.6260 N   0  0  0  0  0  1  0  0  0  0  0  0
  188.3480  177.6460  145.1380 C   0  0  1  0  0  3  0  0  0  0  0  0
  192.0580  176.9830  146.9230 O   0  0  0  0  0  1  0  0  0  0  0  0
  189.3030  176.8230  144.2530 C   0  0  2  0  0  3  0  0  0  0  0  0
  192.1350  179.3570  144.2710 O   0  0  0  0  0  1  0  0  0  0  0  0
  190.7870  179.0070  144.3500 C   0  0  0  0  0  2  0  0  0  0  0  0
  1  2  2  0  0  0  0
  2 17  1  0  0  0  0
  3  4  1  0  0  0  0
  4  8  1  0  0  0  0
  5  8  1  6  0  0  0
  7 16  1  0  0  0  0
  9  3  1  6  0  0  0
  9 10  1  0  0  0  0
  9  5  1  0  0  0  0
 10  5  1  0  0  0  0
 11  3  2  0  0  0  0
 12 13  2  0  0  0  0
 12 11  1  0  0  0  0
 13 14  1  0  0  0  0
 14 16  1  0  0  0  0
 14  4  2  0  0  0  0
 15  6  1  1  0  0  0
 15  7  1  0  0  0  0
 15 13  1  0  0  0  0
 16  1  1  6  0  0  0
 17 18  1  0  0  0  0
 18 20  1  0  0  0  0
 20 19  2  0  0  0  0
 21 22  1  0  0  0  0
 23 25  1  1  0  0  0
 24 26  1  6  0  0  0
 24 29  1  0  0  0  0
 24 31  1  0  0  0  0
 24 23  1  0  0  0  0
 25 28  1  0  0  0  0
 25 22  2  0  0  0  0
 27 20  1  6  0  0  0
 27 21  1  0  0  0  0
 29 23  1  0  0  0  0
 29 27  1  0  0  0  0
 30 31  1  0  0  0  0
M  END
>  <MODEL>
8

>  <REMARK>
 VINA RESULT:      -8.0      4.826      7.726
  Name = 
  6 active torsions:
  status: ('A' for Active; 'I' for Inactive)
    1  A    between atoms: C_2  and  C_5
    2  A    between atoms: C_2  and  C_10
    3  A    between atoms: N_3  and  C_31
    4  A    between atoms: C_5  and  C_14
    5  A    between atoms: C_10  and  C_25
    6  A    between atoms: C_18  and  C_19
                            x       y       z     vdW  Elec       q    Type
                         _______ _______ _______ _____ _____    ______ ____

>  <TORSDO>
F 6

$$$$
=
 OpenBabel11042410503D

 31 36  0  0  1  0  0  0  0  0999 V2000
  187.2460  176.7860  143.4100 N   0  0  0  0  0  0  0  0  0  0  0  0
  186.0370  177.2240  143.4890 C   0  0  0  0  0  3  0  0  0  0  0  0
  190.1390  177.0640  146.6230 C   0  0  0  0  0  0  0  0  0  0  0  0
  189.1570  177.4240  145.7490 C   0  0  0  0  0  0  0  0  0  0  0  0
  188.3330  177.7350  147.9570 C   0  0  1  0  0  3  0  0  0  0  0  0
  191.9570  177.5930  142.0470 C   0  0  0  0  0  1  0  0  0  0  0  0
  189.2520  177.3780  141.7130 S   0  0  0  0  0  0  0  0  0  0  0  0
  187.9650  177.9190  146.4690 C   0  0  0  0  0  2  0  0  0  0  0  0
  189.7400  177.2250  148.0390 C   0  0  2  0  0  3  0  0  0  0  0  0
  189.4160  178.5730  148.2970 O   0  0  0  0  0  0  0  0  0  0  0  0
  191.3280  176.5810  146.1750 N   0  0  0  0  0  0  0  0  0  0  0  0
  191.5530  176.4690  144.8580 N   0  0  0  0  0  0  0  0  0  0  0  0
  190.5980  176.8340  143.9510 C   0  0  0  0  0  0  0  0  0  0  0  0
  189.3740  177.3090  144.3800 C   0  0  0  0  0  0  0  0  0  0  0  0
  190.7840  176.7380  142.4850 C   0  0  2  0  0  3  0  0  0  0  0  0
  188.4000  177.6530  143.3160 C   0  0  2  0  0  3  0  0  0  0  0  0
  185.7020  178.6840  143.5050 C   0  0  0  0  0  2  0  0  0  0  0  0
  184.2630  178.8770  143.0730 C   0  0  0  0  0  2  0  0  0  0  0  0
  185.1550  179.3520  140.9450 O   0  0  0  0  0  0  0  0  0  0  0  0
  184.1820  178.9780  141.5800 C   0  0  0  0  0  0  0  0  0  0  0  0
  182.9420  177.2070  140.3560 C   0  0  0  0  0  2  0  0  0  0  0  0
  181.6950  176.9380  139.5800 C   0  0  0  0  0  3  0  0  0  0  0  0
  180.3850  178.2070  141.2760 C   0  0  1  0  0  3  0  0  0  0  0  0
  180.5910  179.7030  141.0790 C   0  0  1  0  0  0  0  0  0  0  0  0
  180.5170  177.3950  140.0030 C   0  0  0  0  0  0  0  0  0  0  0  0
  179.8330  180.5210  142.0090 N   0  0  0  0  0  1  0  0  0  0  0  0
  182.9150  178.6470  140.8550 C   0  0  1  0  0  3  0  0  0  0  0  0
  179.3790  177.1200  139.2590 O   0  0  0  0  0  1  0  0  0  0  0  0
  181.6920  178.8950  141.7570 C   0  0  2  0  0  3  0  0  0  0  0  0
  179.6200  180.7170  139.1370 O   0  0  0  0  0  1  0  0  0  0  0  0
  180.8290  180.2890  139.6850 C   0  0  0  0  0  2  0  0  0  0  0  0
  1  2  2  0  0  0  0
  2 17  1  0  0  0  0
  4  8  1  0  0  0  0
  4  3  2  0  0  0  0
  5  8  1  6  0  0  0
  5  9  1  0  0  0  0
  5 10  1  0  0  0  0
  7 15  1  0  0  0  0
  7 16  1  0  0  0  0
  9  3  1  6  0  0  0
  9 10  1  0  0  0  0
 11  3  1  0  0  0  0
 12 11  2  0  0  0  0
 13 14  2  0  0  0  0
 13 12  1  0  0  0  0
 14  4  1  0  0  0  0
 15  6  1  6  0  0  0
 15 13  1  0  0  0  0
 16  1  1  6  0  0  0
 16 14  1  0  0  0  0
 18 17  1  0  0  0  0
 19 20  2  0  0  0  0
 20 18  1  0  0  0  0
 21 27  1  0  0  0  0
 22 25  2  0  0  0  0
 22 21  1  0  0  0  0
 23 25  1  6  0  0  0
 23 29  1  0  0  0  0
 24 23  1  0  0  0  0
 24 29  1  0  0  0  0
 24 26  1  1  0  0  0
 27 20  1  1  0  0  0
 27 29  1  0  0  0  0
 28 25  1  0  0  0  0
 30 31  1  0  0  0  0
 31 24  1  0  0  0  0
M  END
>  <MODEL>
9

>  <REMARK>
 VINA RESULT:      -7.9      3.941      6.767
  Name = 
  6 active torsions:
  status: ('A' for Active; 'I' for Inactive)
    1  A    between atoms: C_2  and  C_5
    2  A    between atoms: C_2  and  C_10
    3  A    between atoms: N_3  and  C_31
    4  A    between atoms: C_5  and  C_14
    5  A    between atoms: C_10  and  C_25
    6  A    between atoms: C_18  and  C_19
                            x       y       z     vdW  Elec       q    Type
                         _______ _______ _______ _____ _____    ______ ____

>  <TORSDO>
F 6

$$$$
