=
 OpenBabel11032420153D

 28 31  0  0  1  0  0  0  0  0999 V2000
  184.2430  178.9500  138.7720 S   0  0  1  0  0  0  0  0  0  0  0  0
  183.4520  179.1130  141.2770 O   0  0  0  0  0  0  0  0  0  0  0  0
  185.7440  178.8900  139.6840 N   0  0  0  0  0  0  0  0  0  0  0  0
  184.4870  178.2520  141.6780 C   0  0  1  0  0  3  0  0  0  0  0  0
  187.0220  178.5070  141.6380 N   0  0  0  0  0  2  0  0  0  0  0  0
  185.7710  178.5850  140.9480 C   0  0  0  0  0  0  0  0  0  0  0  0
  184.2630  177.6480  137.9830 O   0  0  0  0  0  0  0  0  0  0  0  0
  183.0000  178.6250  140.0430 C   0  0  0  0  0  2  0  0  0  0  0  0
  187.9530  178.0650  148.2320 S   0  0  0  0  0  0  0  0  0  0  0  0
  183.8250  179.0280  145.5070 C   0  0  0  0  0  3  0  0  0  0  0  0
  186.0090  178.0550  145.1230 C   0  0  0  0  0  0  0  0  0  0  0  0
  184.6530  178.3010  143.1660 C   0  0  0  0  0  0  0  0  0  0  0  0
  185.8330  177.9260  143.6840 C   0  0  0  0  0  3  0  0  0  0  0  0
  188.9990  177.4470  147.0210 C   0  0  0  0  0  3  0  0  0  0  0  0
  186.6790  178.2530  147.1730 C   0  0  0  0  0  0  0  0  0  0  0  0
  184.9970  178.6200  145.9810 C   0  0  1  0  0  3  0  0  0  0  0  0
  188.3320  177.3980  145.7820 C   0  0  0  0  0  3  0  0  0  0  0  0
  183.5060  178.8410  144.0320 C   0  0  0  0  0  3  0  0  0  0  0  0
  185.4840  178.7370  147.3240 N   0  0  0  0  0  0  0  0  0  0  0  0
  187.0270  177.8600  145.9260 C   0  0  0  0  0  0  0  0  0  0  0  0
  188.3080  178.7170  140.9930 C   0  0  0  0  0  2  0  0  0  0  0  0
  189.1320  177.4800  141.1140 C   0  0  0  0  0  0  0  0  0  0  0  0
  189.7750  177.0850  140.1550 O   0  0  0  0  0  0  0  0  0  0  0  0
  189.1550  176.7150  142.3990 C   0  0  0  0  0  2  0  0  0  0  0  0
  190.5210  176.0850  142.6040 C   0  0  0  0  0  2  0  0  0  0  0  0
  191.2870  176.8590  143.6170 C   0  0  0  0  0  0  0  0  0  0  0  0
  191.5710  178.0660  143.4050 O   0  0  0  0  0  0  0  0  0  0  0  0
  191.6580  176.2600  144.8140 O   0  0  0  0  0  1  0  0  0  0  0  0
  1  7  2  6  0  0  0
  1  3  1  0  0  0  0
  1  8  1  0  0  0  0
  2  4  1  0  0  0  0
  3  6  2  0  0  0  0
  4 12  1  1  0  0  0
  6  5  1  0  0  0  0
  6  4  1  0  0  0  0
  8  2  1  0  0  0  0
 11 20  2  0  0  0  0
 11 16  1  0  0  0  0
 12 13  2  0  0  0  0
 12 18  1  0  0  0  0
 13 11  1  0  0  0  0
 14  9  1  0  0  0  0
 15 19  2  0  0  0  0
 15  9  1  0  0  0  0
 16 10  1  6  0  0  0
 16 19  1  0  0  0  0
 17 20  1  0  0  0  0
 17 14  2  0  0  0  0
 18 10  2  0  0  0  0
 20 15  1  0  0  0  0
 21 22  1  0  0  0  0
 21  5  1  0  0  0  0
 22 24  1  0  0  0  0
 23 22  2  0  0  0  0
 24 25  1  0  0  0  0
 25 26  1  0  0  0  0
 26 28  1  0  0  0  0
 27 26  2  0  0  0  0
M  END
>  <MODEL>
1

>  <REMARK>
 VINA RESULT:      -9.3      0.000      0.000
  Name = 
  6 active torsions:
  status: ('A' for Active; 'I' for Inactive)
    1  A    between atoms: C_1  and  C_21
    2  A    between atoms: C_1  and  C_24
    3  A    between atoms: C_6  and  C_15
    4  A    between atoms: C_9  and  C_13
    5  A    between atoms: C_15  and  C_21
    6  A    between atoms: N_18  and  C_24
                            x       y       z     vdW  Elec       q    Type
                         _______ _______ _______ _____ _____    ______ ____

>  <TORSDO>
F 6

$$$$
=
 OpenBabel11032420153D

 28 31  0  0  1  0  0  0  0  0999 V2000
  184.0960  178.9220  138.8140 S   0  0  1  0  0  0  0  0  0  0  0  0
  183.3410  179.0320  141.3330 O   0  0  0  0  0  0  0  0  0  0  0  0
  185.6130  178.9350  139.7000 N   0  0  0  0  0  0  0  0  0  0  0  0
  184.4250  178.2230  141.7120 C   0  0  1  0  0  3  0  0  0  0  0  0
  186.9430  178.6090  141.6300 N   0  0  0  0  0  2  0  0  0  0  0  0
  185.6780  178.6260  140.9620 C   0  0  0  0  0  0  0  0  0  0  0  0
  184.1690  177.6270  138.0170 O   0  0  0  0  0  0  0  0  0  0  0  0
  182.8930  178.5280  140.1040 C   0  0  0  0  0  2  0  0  0  0  0  0
  187.9970  178.0840  148.2090 S   0  0  0  0  0  0  0  0  0  0  0  0
  183.8120  178.9870  145.5510 C   0  0  0  0  0  3  0  0  0  0  0  0
  186.0050  178.0470  145.1320 C   0  0  0  0  0  0  0  0  0  0  0  0
  184.6140  178.2740  143.1960 C   0  0  0  0  0  0  0  0  0  0  0  0
  185.8080  177.9160  143.6950 C   0  0  0  0  0  3  0  0  0  0  0  0
  189.0330  177.4830  146.9820 C   0  0  0  0  0  3  0  0  0  0  0  0
  186.7040  178.2540  147.1710 C   0  0  0  0  0  0  0  0  0  0  0  0
  184.9980  178.5970  146.0060 C   0  0  1  0  0  3  0  0  0  0  0  0
  188.3470  177.4250  145.7530 C   0  0  0  0  0  3  0  0  0  0  0  0
  183.4730  178.7960  144.0810 C   0  0  0  0  0  3  0  0  0  0  0  0
  185.5050  178.7200  147.3420 N   0  0  0  0  0  0  0  0  0  0  0  0
  187.0380  177.8670  145.9180 C   0  0  0  0  0  0  0  0  0  0  0  0
  188.2050  178.8890  140.9640 C   0  0  0  0  0  2  0  0  0  0  0  0
  188.9450  177.6120  140.7480 C   0  0  0  0  0  0  0  0  0  0  0  0
  189.1130  176.8440  141.6810 O   0  0  0  0  0  0  0  0  0  0  0  0
  189.4960  177.2830  139.3970 C   0  0  0  0  0  2  0  0  0  0  0  0
  188.4020  177.3930  138.3490 C   0  0  0  0  0  2  0  0  0  0  0  0
  188.7680  178.4270  137.3450 C   0  0  0  0  0  0  0  0  0  0  0  0
  189.0160  179.6040  137.7140 O   0  0  0  0  0  1  0  0  0  0  0  0
  188.8700  178.0870  136.0030 O   0  0  0  0  0  0  0  0  0  0  0  0
  1  7  2  6  0  0  0
  1  3  1  0  0  0  0
  1  8  1  0  0  0  0
  2  4  1  0  0  0  0
  3  6  2  0  0  0  0
  4 12  1  1  0  0  0
  6  5  1  0  0  0  0
  6  4  1  0  0  0  0
  8  2  1  0  0  0  0
 11 20  2  0  0  0  0
 11 16  1  0  0  0  0
 12 13  2  0  0  0  0
 12 18  1  0  0  0  0
 13 11  1  0  0  0  0
 14  9  1  0  0  0  0
 15 19  2  0  0  0  0
 15  9  1  0  0  0  0
 16 10  1  6  0  0  0
 16 19  1  0  0  0  0
 17 20  1  0  0  0  0
 17 14  2  0  0  0  0
 18 10  2  0  0  0  0
 20 15  1  0  0  0  0
 21  5  1  0  0  0  0
 22 21  1  0  0  0  0
 22 23  2  0  0  0  0
 24 22  1  0  0  0  0
 25 24  1  0  0  0  0
 26 27  1  0  0  0  0
 26 25  1  0  0  0  0
 28 26  2  0  0  0  0
M  END
>  <MODEL>
2

>  <REMARK>
 VINA RESULT:      -8.9      1.465      2.772
  Name = 
  6 active torsions:
  status: ('A' for Active; 'I' for Inactive)
    1  A    between atoms: C_1  and  C_21
    2  A    between atoms: C_1  and  C_24
    3  A    between atoms: C_6  and  C_15
    4  A    between atoms: C_9  and  C_13
    5  A    between atoms: C_15  and  C_21
    6  A    between atoms: N_18  and  C_24
                            x       y       z     vdW  Elec       q    Type
                         _______ _______ _______ _____ _____    ______ ____

>  <TORSDO>
F 6

$$$$
=
 OpenBabel11032420153D

 28 31  0  0  1  0  0  0  0  0999 V2000
  184.0750  179.1000  140.2560 S   0  0  1  0  0  0  0  0  0  0  0  0
  184.2780  178.9610  142.8770 O   0  0  0  0  0  0  0  0  0  0  0  0
  185.8040  178.9450  140.5290 N   0  0  0  0  0  0  0  0  0  0  0  0
  185.3560  178.0660  142.7630 C   0  0  1  0  0  3  0  0  0  0  0  0
  187.7020  178.3450  141.8090 N   0  0  0  0  0  2  0  0  0  0  0  0
  186.2880  178.4940  141.6490 C   0  0  0  0  0  0  0  0  0  0  0  0
  183.7540  177.9000  139.3760 O   0  0  0  0  0  0  0  0  0  0  0  0
  183.3820  178.6170  141.8540 C   0  0  0  0  0  2  0  0  0  0  0  0
  190.9890  177.0810  147.4850 S   0  0  0  0  0  0  0  0  0  0  0  0
  186.2050  178.4050  146.6190 C   0  0  0  0  0  3  0  0  0  0  0  0
  188.0340  177.4540  145.3480 C   0  0  0  0  0  0  0  0  0  0  0  0
  186.0640  177.9420  144.0770 C   0  0  0  0  0  0  0  0  0  0  0  0
  187.3300  177.4940  144.0730 C   0  0  0  0  0  3  0  0  0  0  0  0
  191.4760  176.5930  145.9140 C   0  0  0  0  0  3  0  0  0  0  0  0
  189.4260  177.4070  147.0060 C   0  0  0  0  0  0  0  0  0  0  0  0
  187.4450  177.9300  146.5740 C   0  0  1  0  0  3  0  0  0  0  0  0
  190.3950  176.6960  145.0170 C   0  0  0  0  0  3  0  0  0  0  0  0
  185.3520  178.3930  145.3600 C   0  0  0  0  0  3  0  0  0  0  0  0
  188.4010  177.8850  147.6420 N   0  0  0  0  0  0  0  0  0  0  0  0
  189.2640  177.1550  145.6850 C   0  0  0  0  0  0  0  0  0  0  0  0
  188.6630  178.6410  140.7590 C   0  0  0  0  0  2  0  0  0  0  0  0
  189.4510  177.4130  140.4480 C   0  0  0  0  0  0  0  0  0  0  0  0
  189.8560  176.7070  141.3580 O   0  0  0  0  0  0  0  0  0  0  0  0
  189.7610  177.0580  139.0290 C   0  0  0  0  0  2  0  0  0  0  0  0
  188.5630  177.3590  138.1450 C   0  0  0  0  0  2  0  0  0  0  0  0
  188.9440  178.3440  137.0980 C   0  0  0  0  0  0  0  0  0  0  0  0
  189.2160  177.9520  135.9330 O   0  0  0  0  0  0  0  0  0  0  0  0
  188.9670  179.7000  137.3940 O   0  0  0  0  0  1  0  0  0  0  0  0
  1  7  2  6  0  0  0
  1  3  1  0  0  0  0
  1  8  1  0  0  0  0
  3  6  2  0  0  0  0
  4  2  1  0  0  0  0
  4 12  1  1  0  0  0
  6  5  1  0  0  0  0
  6  4  1  0  0  0  0
  8  2  1  0  0  0  0
 11 20  2  0  0  0  0
 11 16  1  0  0  0  0
 12 18  1  0  0  0  0
 13 12  2  0  0  0  0
 13 11  1  0  0  0  0
 14  9  1  0  0  0  0
 15  9  1  0  0  0  0
 15 19  2  0  0  0  0
 16 10  1  6  0  0  0
 16 19  1  0  0  0  0
 17 20  1  0  0  0  0
 17 14  2  0  0  0  0
 18 10  2  0  0  0  0
 20 15  1  0  0  0  0
 21  5  1  0  0  0  0
 22 21  1  0  0  0  0
 22 23  2  0  0  0  0
 24 22  1  0  0  0  0
 25 24  1  0  0  0  0
 26 28  1  0  0  0  0
 26 25  1  0  0  0  0
 27 26  2  0  0  0  0
M  END
>  <MODEL>
3

>  <REMARK>
 VINA RESULT:      -8.8      2.001      3.366
  Name = 
  6 active torsions:
  status: ('A' for Active; 'I' for Inactive)
    1  A    between atoms: C_1  and  C_21
    2  A    between atoms: C_1  and  C_24
    3  A    between atoms: C_6  and  C_15
    4  A    between atoms: C_9  and  C_13
    5  A    between atoms: C_15  and  C_21
    6  A    between atoms: N_18  and  C_24
                            x       y       z     vdW  Elec       q    Type
                         _______ _______ _______ _____ _____    ______ ____

>  <TORSDO>
F 6

$$$$
=
 OpenBabel11032420153D

 28 31  0  0  1  0  0  0  0  0999 V2000
  192.0390  175.5810  146.8990 S   0  0  1  0  0  0  0  0  0  0  0  0
  189.4530  175.9110  147.2610 O   0  0  0  0  0  0  0  0  0  0  0  0
  191.6020  176.7790  145.6910 N   0  0  0  0  0  0  0  0  0  0  0  0
  189.5640  177.2740  146.9420 C   0  0  1  0  0  3  0  0  0  0  0  0
  190.2130  178.4680  144.7860 N   0  0  0  0  0  2  0  0  0  0  0  0
  190.5050  177.4730  145.7720 C   0  0  0  0  0  0  0  0  0  0  0  0
  193.0990  176.2940  147.7280 O   0  0  0  0  0  0  0  0  0  0  0  0
  190.6030  175.5910  147.9960 C   0  0  0  0  0  2  0  0  0  0  0  0
  183.3230  178.8210  143.2470 S   0  0  0  0  0  0  0  0  0  0  0  0
  185.9640  178.8170  147.5390 C   0  0  0  0  0  3  0  0  0  0  0  0
  186.3770  178.3050  145.2090 C   0  0  0  0  0  0  0  0  0  0  0  0
  188.2090  177.8560  146.6840 C   0  0  0  0  0  0  0  0  0  0  0  0
  187.7280  177.8080  145.4310 C   0  0  0  0  0  3  0  0  0  0  0  0
  184.4910  178.2050  142.1520 C   0  0  0  0  0  3  0  0  0  0  0  0
  184.3780  178.7980  144.5380 C   0  0  0  0  0  0  0  0  0  0  0  0
  185.5380  178.7770  146.2810 C   0  0  0  0  0  0  0  0  0  0  0  0
  185.7110  177.9810  142.8190 C   0  0  0  0  0  3  0  0  0  0  0  0
  187.3950  178.4170  147.8590 C   0  0  0  0  0  2  0  0  0  0  0  0
  184.2250  179.0870  145.7940 N   0  0  0  0  0  0  0  0  0  0  0  0
  185.5930  178.3360  144.1590 C   0  0  0  0  0  0  0  0  0  0  0  0
  191.1040  178.7900  143.6840 C   0  0  0  0  0  2  0  0  0  0  0  0
  190.6480  178.0800  142.4540 C   0  0  0  0  0  0  0  0  0  0  0  0
  191.4450  177.4230  141.8040 O   0  0  0  0  0  0  0  0  0  0  0  0
  189.2250  178.1880  142.0080 C   0  0  0  0  0  2  0  0  0  0  0  0
  189.0370  177.4580  140.6890 C   0  0  0  0  0  2  0  0  0  0  0  0
  188.4050  178.3670  139.6950 C   0  0  0  0  0  0  0  0  0  0  0  0
  189.1230  179.0570  138.9270 O   0  0  0  0  0  0  0  0  0  0  0  0
  187.0220  178.4270  139.5920 O   0  0  0  0  0  1  0  0  0  0  0  0
  1  7  2  1  0  0  0
  1  8  1  0  0  0  0
  2  8  1  0  0  0  0
  3  6  2  0  0  0  0
  3  1  1  0  0  0  0
  4 12  1  6  0  0  0
  4  2  1  0  0  0  0
  5  6  1  0  0  0  0
  6  4  1  0  0  0  0
  9 15  1  0  0  0  0
 10 18  1  0  0  0  0
 11 13  1  0  0  0  0
 11 16  1  0  0  0  0
 12 18  1  0  0  0  0
 13 12  2  0  0  0  0
 14 17  2  0  0  0  0
 14  9  1  0  0  0  0
 15 19  2  0  0  0  0
 16 10  2  0  0  0  0
 17 20  1  0  0  0  0
 19 16  1  0  0  0  0
 20 15  1  0  0  0  0
 20 11  2  0  0  0  0
 21  5  1  0  0  0  0
 22 21  1  0  0  0  0
 23 22  2  0  0  0  0
 24 22  1  0  0  0  0
 25 24  1  0  0  0  0
 26 25  1  0  0  0  0
 27 26  2  0  0  0  0
 28 26  1  0  0  0  0
M  END
>  <MODEL>
4

>  <REMARK>
 VINA RESULT:      -8.7      2.566      6.164
  Name = 
  6 active torsions:
  status: ('A' for Active; 'I' for Inactive)
    1  A    between atoms: C_1  and  C_21
    2  A    between atoms: C_1  and  C_24
    3  A    between atoms: C_6  and  C_15
    4  A    between atoms: C_9  and  C_13
    5  A    between atoms: C_15  and  C_21
    6  A    between atoms: N_18  and  C_24
                            x       y       z     vdW  Elec       q    Type
                         _______ _______ _______ _____ _____    ______ ____

>  <TORSDO>
F 6

$$$$
=
 OpenBabel11032420153D

 28 31  0  0  1  0  0  0  0  0999 V2000
  189.4150  176.6260  137.9410 S   0  0  1  0  0  0  0  0  0  0  0  0
  190.5560  176.1490  140.2650 O   0  0  0  0  0  0  0  0  0  0  0  0
  188.3060  177.3410  139.1010 N   0  0  0  0  0  0  0  0  0  0  0  0
  190.0940  177.3780  140.7640 C   0  0  1  0  0  3  0  0  0  0  0  0
  187.7430  178.2550  141.2100 N   0  0  0  0  0  2  0  0  0  0  0  0
  188.6700  177.6340  140.3140 C   0  0  0  0  0  0  0  0  0  0  0  0
  189.7900  177.8020  137.0490 O   0  0  0  0  0  0  0  0  0  0  0  0
  190.9100  176.3840  138.9290 C   0  0  0  0  0  2  0  0  0  0  0  0
  187.9880  177.5030  147.8740 S   0  0  0  0  0  0  0  0  0  0  0  0
  191.6100  177.0070  144.4060 C   0  0  0  0  0  3  0  0  0  0  0  0
  189.2600  177.5880  144.4360 C   0  0  0  0  0  0  0  0  0  0  0  0
  190.2310  177.4150  142.2550 C   0  0  0  0  0  0  0  0  0  0  0  0
  189.1270  177.6350  142.9870 C   0  0  0  0  0  3  0  0  0  0  0  0
  186.6370  177.8530  146.8780 C   0  0  0  0  0  3  0  0  0  0  0  0
  189.0450  177.4400  146.5860 C   0  0  0  0  0  0  0  0  0  0  0  0
  190.5010  177.2570  145.0920 C   0  0  0  0  0  0  0  0  0  0  0  0
  187.0320  177.9150  145.5270 C   0  0  0  0  0  3  0  0  0  0  0  0
  191.6000  177.1310  142.8900 C   0  0  0  0  0  3  0  0  0  0  0  0
  190.3110  177.1660  146.5100 N   0  0  0  0  0  0  0  0  0  0  0  0
  188.3990  177.6790  145.4210 C   0  0  2  0  0  3  0  0  0  0  0  0
  186.3880  178.6230  140.8330 C   0  0  0  0  0  2  0  0  0  0  0  0
  185.6360  179.0570  142.0460 C   0  0  0  0  0  0  0  0  0  0  0  0
  185.9090  180.1200  142.5790 O   0  0  0  0  0  0  0  0  0  0  0  0
  184.5650  178.1850  142.6180 C   0  0  0  0  0  2  0  0  0  0  0  0
  183.2640  178.9620  142.7260 C   0  0  0  0  0  2  0  0  0  0  0  0
  182.7360  178.8710  144.1130 C   0  0  0  0  0  0  0  0  0  0  0  0
  181.5150  178.6340  144.3080 O   0  0  0  0  0  0  0  0  0  0  0  0
  183.5940  179.0130  145.1940 O   0  0  0  0  0  1  0  0  0  0  0  0
  1  7  2  6  0  0  0
  1  8  1  0  0  0  0
  1  3  1  0  0  0  0
  2  4  1  0  0  0  0
  3  6  2  0  0  0  0
  4 12  1  1  0  0  0
  6  4  1  0  0  0  0
  6  5  1  0  0  0  0
  8  2  1  0  0  0  0
 10 16  1  0  0  0  0
 11 16  2  0  0  0  0
 11 20  1  0  0  0  0
 12 18  1  0  0  0  0
 12 13  2  0  0  0  0
 13 11  1  0  0  0  0
 14  9  1  0  0  0  0
 15  9  1  0  0  0  0
 16 19  1  0  0  0  0
 17 14  2  0  0  0  0
 18 10  2  0  0  0  0
 19 15  2  0  0  0  0
 20 17  1  6  0  0  0
 20 15  1  0  0  0  0
 21  5  1  0  0  0  0
 21 22  1  0  0  0  0
 22 23  2  0  0  0  0
 22 24  1  0  0  0  0
 24 25  1  0  0  0  0
 25 26  1  0  0  0  0
 26 27  2  0  0  0  0
 26 28  1  0  0  0  0
M  END
>  <MODEL>
5

>  <REMARK>
 VINA RESULT:      -8.3      2.479      5.668
  Name = 
  6 active torsions:
  status: ('A' for Active; 'I' for Inactive)
    1  A    between atoms: C_1  and  C_21
    2  A    between atoms: C_1  and  C_24
    3  A    between atoms: C_6  and  C_15
    4  A    between atoms: C_9  and  C_13
    5  A    between atoms: C_15  and  C_21
    6  A    between atoms: N_18  and  C_24
                            x       y       z     vdW  Elec       q    Type
                         _______ _______ _______ _____ _____    ______ ____

>  <TORSDO>
F 6

$$$$
=
 OpenBabel11032420153D

 28 31  0  0  1  0  0  0  0  0999 V2000
  190.5180  176.5250  147.2620 S   0  0  1  0  0  0  0  0  0  0  0  0
  188.0240  177.3360  147.4910 O   0  0  0  0  0  0  0  0  0  0  0  0
  189.8840  176.3790  145.6300 N   0  0  0  0  0  0  0  0  0  0  0  0
  188.0760  177.9150  146.2120 C   0  0  1  0  0  3  0  0  0  0  0  0
  188.3590  176.8930  143.8950 N   0  0  0  0  0  2  0  0  0  0  0  0
  188.8120  177.0080  145.2470 C   0  0  0  0  0  0  0  0  0  0  0  0
  191.6950  177.4750  147.0950 O   0  0  0  0  0  0  0  0  0  0  0  0
  189.2800  177.5650  148.0700 C   0  0  0  0  0  2  0  0  0  0  0  0
  182.4060  178.6310  141.4850 S   0  0  0  0  0  0  0  0  0  0  0  0
  184.1790  178.6290  146.2030 C   0  0  0  0  0  3  0  0  0  0  0  0
  185.1010  178.4960  143.9680 C   0  0  0  0  0  0  0  0  0  0  0  0
  186.6950  178.2430  145.7370 C   0  0  0  0  0  0  0  0  0  0  0  0
  186.4660  178.2540  144.4140 C   0  0  0  0  0  3  0  0  0  0  0  0
  183.8550  178.3970  140.5990 C   0  0  0  0  0  3  0  0  0  0  0  0
  183.1940  178.6610  142.9550 C   0  0  0  0  0  0  0  0  0  0  0  0
  184.0020  178.6580  144.8870 C   0  0  0  0  0  0  0  0  0  0  0  0
  184.9570  178.3400  141.4750 C   0  0  0  0  0  3  0  0  0  0  0  0
  185.5830  178.4840  146.7680 C   0  0  0  0  0  2  0  0  0  0  0  0
  182.7620  178.7590  144.1740 N   0  0  0  0  0  0  0  0  0  0  0  0
  184.5280  178.4980  142.7890 C   0  0  0  0  0  0  0  0  0  0  0  0
  189.0580  176.1220  142.8780 C   0  0  0  0  0  2  0  0  0  0  0  0
  189.7050  177.0530  141.9090 C   0  0  0  0  0  0  0  0  0  0  0  0
  190.9210  177.1540  141.8860 O   0  0  0  0  0  0  0  0  0  0  0  0
  188.8670  177.8720  140.9800 C   0  0  0  0  0  2  0  0  0  0  0  0
  189.4360  177.8090  139.5730 C   0  0  0  0  0  2  0  0  0  0  0  0
  188.5570  178.5590  138.6390 C   0  0  0  0  0  0  0  0  0  0  0  0
  189.0550  179.3840  137.8300 O   0  0  0  0  0  0  0  0  0  0  0  0
  187.1880  178.3260  138.6340 O   0  0  0  0  0  1  0  0  0  0  0  0
  1  7  2  6  0  0  0
  1  8  1  0  0  0  0
  2  8  1  0  0  0  0
  3  1  1  0  0  0  0
  4 12  1  6  0  0  0
  4  2  1  0  0  0  0
  5  6  1  0  0  0  0
  6  3  2  0  0  0  0
  6  4  1  0  0  0  0
  9 15  1  0  0  0  0
 10 18  1  0  0  0  0
 11 13  1  0  0  0  0
 11 16  1  0  0  0  0
 12 18  1  0  0  0  0
 13 12  2  0  0  0  0
 14 17  2  0  0  0  0
 14  9  1  0  0  0  0
 15 19  2  0  0  0  0
 16 10  2  0  0  0  0
 17 20  1  0  0  0  0
 19 16  1  0  0  0  0
 20 15  1  0  0  0  0
 20 11  2  0  0  0  0
 21  5  1  0  0  0  0
 22 21  1  0  0  0  0
 23 22  2  0  0  0  0
 24 22  1  0  0  0  0
 25 24  1  0  0  0  0
 26 25  1  0  0  0  0
 27 26  2  0  0  0  0
 28 26  1  0  0  0  0
M  END
>  <MODEL>
6

>  <REMARK>
 VINA RESULT:      -8.3      2.290      5.959
  Name = 
  6 active torsions:
  status: ('A' for Active; 'I' for Inactive)
    1  A    between atoms: C_1  and  C_21
    2  A    between atoms: C_1  and  C_24
    3  A    between atoms: C_6  and  C_15
    4  A    between atoms: C_9  and  C_13
    5  A    between atoms: C_15  and  C_21
    6  A    between atoms: N_18  and  C_24
                            x       y       z     vdW  Elec       q    Type
                         _______ _______ _______ _____ _____    ______ ____

>  <TORSDO>
F 6

$$$$
=
 OpenBabel11032420153D

 28 31  0  0  1  0  0  0  0  0999 V2000
  187.9950  177.5830  147.6730 S   0  0  1  0  0  0  0  0  0  0  0  0
  185.5880  178.2130  146.8160 O   0  0  0  0  0  0  0  0  0  0  0  0
  188.0190  177.1020  145.9830 N   0  0  0  0  0  0  0  0  0  0  0  0
  186.1070  178.5610  145.5580 C   0  0  1  0  0  3  0  0  0  0  0  0
  187.2480  177.1760  143.7480 N   0  0  0  0  0  2  0  0  0  0  0  0
  187.1610  177.5640  145.1220 C   0  0  0  0  0  0  0  0  0  0  0  0
  189.1390  178.5830  147.7660 O   0  0  0  0  0  0  0  0  0  0  0  0
  186.5330  178.6430  147.7570 C   0  0  0  0  0  2  0  0  0  0  0  0
  182.7700  178.5250  138.9350 S   0  0  0  0  0  0  0  0  0  0  0  0
  182.4820  178.6690  143.9640 C   0  0  0  0  0  3  0  0  0  0  0  0
  184.2310  178.7390  142.2910 C   0  0  0  0  0  0  0  0  0  0  0  0
  185.0000  178.6870  144.5580 C   0  0  0  0  0  0  0  0  0  0  0  0
  185.3220  178.6980  143.2550 C   0  0  0  0  0  3  0  0  0  0  0  0
  184.4710  178.5400  138.7110 C   0  0  0  0  0  3  0  0  0  0  0  0
  182.8890  178.6370  140.5940 C   0  0  0  0  0  0  0  0  0  0  0  0
  182.8450  178.7060  142.6870 C   0  0  0  0  0  0  0  0  0  0  0  0
  185.1230  178.6290  139.9570 C   0  0  0  0  0  3  0  0  0  0  0  0
  183.5460  178.7260  145.0490 C   0  0  0  0  0  2  0  0  0  0  0  0
  181.9950  178.6340  141.5350 N   0  0  0  0  0  0  0  0  0  0  0  0
  184.1850  178.6850  140.9820 C   0  0  0  0  0  0  0  0  0  0  0  0
  188.2830  176.3000  143.2260 C   0  0  0  0  0  2  0  0  0  0  0  0
  189.1600  177.0680  142.2950 C   0  0  0  0  0  0  0  0  0  0  0  0
  188.6610  177.7110  141.3850 O   0  0  0  0  0  0  0  0  0  0  0  0
  190.6450  177.0370  142.4640 C   0  0  0  0  0  2  0  0  0  0  0  0
  191.0040  176.4020  143.7960 C   0  0  0  0  0  2  0  0  0  0  0  0
  191.4770  177.4470  144.7420 C   0  0  0  0  0  0  0  0  0  0  0  0
  191.6590  178.6250  144.3400 O   0  0  0  0  0  0  0  0  0  0  0  0
  191.6860  177.1310  146.0780 O   0  0  0  0  0  1  0  0  0  0  0  0
  1  8  1  0  0  0  0
  1  7  2  6  0  0  0
  2  8  1  0  0  0  0
  3  1  1  0  0  0  0
  4 12  1  6  0  0  0
  4  2  1  0  0  0  0
  5  6  1  0  0  0  0
  6  4  1  0  0  0  0
  6  3  2  0  0  0  0
  9 15  1  0  0  0  0
 10 18  1  0  0  0  0
 11 16  1  0  0  0  0
 11 13  1  0  0  0  0
 12 18  1  0  0  0  0
 13 12  2  0  0  0  0
 14  9  1  0  0  0  0
 14 17  2  0  0  0  0
 15 20  1  0  0  0  0
 15 19  2  0  0  0  0
 16 10  2  0  0  0  0
 17 20  1  0  0  0  0
 19 16  1  0  0  0  0
 20 11  2  0  0  0  0
 21  5  1  0  0  0  0
 22 24  1  0  0  0  0
 22 21  1  0  0  0  0
 23 22  2  0  0  0  0
 24 25  1  0  0  0  0
 25 26  1  0  0  0  0
 26 28  1  0  0  0  0
 27 26  2  0  0  0  0
M  END
>  <MODEL>
7

>  <REMARK>
 VINA RESULT:      -8.3      2.154      5.553
  Name = 
  6 active torsions:
  status: ('A' for Active; 'I' for Inactive)
    1  A    between atoms: C_1  and  C_21
    2  A    between atoms: C_1  and  C_24
    3  A    between atoms: C_6  and  C_15
    4  A    between atoms: C_9  and  C_13
    5  A    between atoms: C_15  and  C_21
    6  A    between atoms: N_18  and  C_24
                            x       y       z     vdW  Elec       q    Type
                         _______ _______ _______ _____ _____    ______ ____

>  <TORSDO>
F 6

$$$$
=
 OpenBabel11032420153D

 28 31  0  0  1  0  0  0  0  0999 V2000
  187.8600  177.5700  147.5010 S   0  0  1  0  0  0  0  0  0  0  0  0
  185.5810  178.1270  146.3070 O   0  0  0  0  0  0  0  0  0  0  0  0
  188.0970  176.9810  145.8630 N   0  0  0  0  0  0  0  0  0  0  0  0
  186.2560  178.3960  145.1050 C   0  0  1  0  0  3  0  0  0  0  0  0
  187.6140  176.9050  143.5470 N   0  0  0  0  0  2  0  0  0  0  0  0
  187.3550  177.3800  144.8720 C   0  0  0  0  0  0  0  0  0  0  0  0
  188.9850  178.5820  147.6730 O   0  0  0  0  0  0  0  0  0  0  0  0
  186.4010  178.6230  147.3300 C   0  0  0  0  0  2  0  0  0  0  0  0
  179.7540  179.2140  141.6340 S   0  0  0  0  0  0  0  0  0  0  0  0
  184.7690  178.7560  141.4500 C   0  0  0  0  0  3  0  0  0  0  0  0
  183.0430  178.6280  143.1440 C   0  0  0  0  0  0  0  0  0  0  0  0
  185.2850  178.4490  143.9670 C   0  0  0  0  0  0  0  0  0  0  0  0
  183.9740  178.4960  144.2560 C   0  0  0  0  0  3  0  0  0  0  0  0
  179.4790  179.0470  143.3180 C   0  0  0  0  0  3  0  0  0  0  0  0
  181.3980  178.9780  141.7800 C   0  0  0  0  0  0  0  0  0  0  0  0
  183.4820  178.7710  141.7780 C   0  0  0  0  0  0  0  0  0  0  0  0
  180.6950  178.8090  143.9880 C   0  0  0  0  0  3  0  0  0  0  0  0
  185.8150  178.5200  142.5280 C   0  0  0  0  0  2  0  0  0  0  0  0
  182.3630  179.0050  140.9120 N   0  0  0  0  0  0  0  0  0  0  0  0
  181.7430  178.7760  143.0730 C   0  0  0  0  0  0  0  0  0  0  0  0
  188.7070  176.0040  143.2190 C   0  0  0  0  0  2  0  0  0  0  0  0
  189.6640  176.6960  142.3090 C   0  0  0  0  0  0  0  0  0  0  0  0
  189.2560  177.2170  141.2830 O   0  0  0  0  0  0  0  0  0  0  0  0
  191.1220  176.7370  142.6420 C   0  0  0  0  0  2  0  0  0  0  0  0
  191.3490  176.2090  144.0480 C   0  0  0  0  0  2  0  0  0  0  0  0
  191.5670  177.3430  144.9840 C   0  0  0  0  0  0  0  0  0  0  0  0
  191.6800  177.1280  146.2190 O   0  0  0  0  0  1  0  0  0  0  0  0
  191.6800  178.6370  144.4930 O   0  0  0  0  0  0  0  0  0  0  0  0
  1  7  2  6  0  0  0
  2  8  1  0  0  0  0
  3  1  1  0  0  0  0
  4 12  1  6  0  0  0
  4  2  1  0  0  0  0
  5  6  1  0  0  0  0
  6  4  1  0  0  0  0
  6  3  2  0  0  0  0
  8  1  1  0  0  0  0
  9 15  1  0  0  0  0
  9 14  1  0  0  0  0
 10 16  2  0  0  0  0
 10 18  1  0  0  0  0
 11 13  1  0  0  0  0
 12 13  2  0  0  0  0
 14 17  2  0  0  0  0
 15 20  1  0  0  0  0
 16 11  1  0  0  0  0
 18 12  1  0  0  0  0
 19 16  1  0  0  0  0
 19 15  2  0  0  0  0
 20 11  2  0  0  0  0
 20 17  1  0  0  0  0
 21  5  1  0  0  0  0
 22 24  1  0  0  0  0
 22 21  1  0  0  0  0
 23 22  2  0  0  0  0
 24 25  1  0  0  0  0
 25 26  1  0  0  0  0
 26 27  1  0  0  0  0
 28 26  2  0  0  0  0
M  END
>  <MODEL>
8

>  <REMARK>
 VINA RESULT:      -8.2      2.444      5.741
  Name = 
  6 active torsions:
  status: ('A' for Active; 'I' for Inactive)
    1  A    between atoms: C_1  and  C_21
    2  A    between atoms: C_1  and  C_24
    3  A    between atoms: C_6  and  C_15
    4  A    between atoms: C_9  and  C_13
    5  A    between atoms: C_15  and  C_21
    6  A    between atoms: N_18  and  C_24
                            x       y       z     vdW  Elec       q    Type
                         _______ _______ _______ _____ _____    ______ ____

>  <TORSDO>
F 6

$$$$
=
 OpenBabel11032420153D

 28 31  0  0  1  0  0  0  0  0999 V2000
  188.4800  178.0880  137.9950 S   0  0  1  0  0  0  0  0  0  0  0  0
  188.6620  177.2640  140.4890 O   0  0  0  0  0  0  0  0  0  0  0  0
  186.9090  178.4820  138.6770 N   0  0  0  0  0  0  0  0  0  0  0  0
  187.8640  178.3360  140.9200 C   0  0  1  0  0  3  0  0  0  0  0  0
  185.4280  178.9320  140.4660 N   0  0  0  0  0  2  0  0  0  0  0  0
  186.7150  178.5650  139.9600 C   0  0  0  0  0  0  0  0  0  0  0  0
  189.0010  179.4370  137.5190 O   0  0  0  0  0  0  0  0  0  0  0  0
  189.4780  177.7750  139.4700 C   0  0  0  0  0  2  0  0  0  0  0  0
  188.2830  177.4060  148.2660 S   0  0  0  0  0  0  0  0  0  0  0  0
  185.5250  178.1420  144.1120 C   0  0  0  0  0  3  0  0  0  0  0  0
  187.8470  177.6970  144.6370 C   0  0  0  0  0  0  0  0  0  0  0  0
  187.3910  178.0980  142.3200 C   0  0  0  0  0  0  0  0  0  0  0  0
  188.3120  177.8470  143.2650 C   0  0  0  0  0  3  0  0  0  0  0  0
  189.8520  177.2670  147.5870 C   0  0  0  0  0  3  0  0  0  0  0  0
  187.5480  177.5750  146.7780 C   0  0  0  0  0  0  0  0  0  0  0  0
  186.4650  177.8680  145.0100 C   0  0  0  0  0  0  0  0  0  0  0  0
  189.7840  177.3600  146.1830 C   0  0  0  0  0  3  0  0  0  0  0  0
  185.8940  178.2170  142.6390 C   0  0  0  0  0  3  0  0  0  0  0  0
  186.3150  177.7840  146.4340 N   0  0  0  0  0  0  0  0  0  0  0  0
  188.4630  177.5280  145.7810 C   0  0  2  0  0  3  0  0  0  0  0  0
  184.2960  179.2610  139.6150 C   0  0  0  0  0  2  0  0  0  0  0  0
  183.0980  178.4930  140.0630 C   0  0  0  0  0  0  0  0  0  0  0  0
  183.2140  177.3180  140.3720 O   0  0  0  0  0  0  0  0  0  0  0  0
  181.7580  179.1540  140.1160 C   0  0  0  0  0  2  0  0  0  0  0  0
  180.8970  178.4990  141.1820 C   0  0  0  0  0  2  0  0  0  0  0  0
  181.0210  179.2490  142.4610 C   0  0  0  0  0  0  0  0  0  0  0  0
  181.7610  178.8110  143.3790 O   0  0  0  0  0  1  0  0  0  0  0  0
  180.3460  180.4500  142.6290 O   0  0  0  0  0  0  0  0  0  0  0  0
  1  7  2  1  0  0  0
  1  3  1  0  0  0  0
  1  8  1  0  0  0  0
  2  4  1  0  0  0  0
  3  6  2  0  0  0  0
  4 12  1  1  0  0  0
  6  5  1  0  0  0  0
  6  4  1  0  0  0  0
  8  2  1  0  0  0  0
 10 16  1  0  0  0  0
 11 16  2  0  0  0  0
 11 20  1  0  0  0  0
 12 18  1  0  0  0  0
 12 13  2  0  0  0  0
 13 11  1  0  0  0  0
 14  9  1  0  0  0  0
 15  9  1  0  0  0  0
 16 19  1  0  0  0  0
 17 14  2  0  0  0  0
 18 10  2  0  0  0  0
 19 15  2  0  0  0  0
 20 17  1  1  0  0  0
 20 15  1  0  0  0  0
 21 22  1  0  0  0  0
 21  5  1  0  0  0  0
 22 24  1  0  0  0  0
 22 23  2  0  0  0  0
 24 25  1  0  0  0  0
 25 26  1  0  0  0  0
 26 28  2  0  0  0  0
 26 27  1  0  0  0  0
M  END
>  <MODEL>
9

>  <REMARK>
 VINA RESULT:      -8.2      2.181      5.382
  Name = 
  6 active torsions:
  status: ('A' for Active; 'I' for Inactive)
    1  A    between atoms: C_1  and  C_21
    2  A    between atoms: C_1  and  C_24
    3  A    between atoms: C_6  and  C_15
    4  A    between atoms: C_9  and  C_13
    5  A    between atoms: C_15  and  C_21
    6  A    between atoms: N_18  and  C_24
                            x       y       z     vdW  Elec       q    Type
                         _______ _______ _______ _____ _____    ______ ____

>  <TORSDO>
F 6

$$$$
