=
 OpenBabel11042410233D

 29 32  0  0  1  0  0  0  0  0999 V2000
  187.9660  177.7830  147.0230 C   0  0  0  0  0  3  0  0  0  0  0  0
  187.8560  177.5180  144.6350 C   0  0  0  0  0  3  0  0  0  0  0  0
  187.2240  177.8070  145.8460 C   0  0  0  0  0  0  0  0  0  0  0  0
  189.9340  177.1940  145.7840 N   0  0  0  0  0  0  0  0  0  0  0  0
  191.6420  176.8040  145.7750 Cl  0  0  0  0  0  0  0  0  0  0  0  0
  189.3260  177.4730  146.9780 C   0  0  0  0  0  0  0  0  0  0  0  0
  189.2240  177.2110  144.6110 C   0  0  0  0  0  0  0  0  0  0  0  0
  189.9860  177.4530  148.0510 O   0  0  0  0  0  0  0  0  0  0  0  0
  189.8890  176.9060  143.3290 C   0  0  0  0  0  3  0  0  0  0  0  0
  189.6720  177.6040  142.2150 C   0  0  0  0  0  3  0  0  0  0  0  0
  193.1520  176.8620  138.8510 C   0  0  0  0  0  3  0  0  0  0  0  0
  191.8820  176.1830  136.8730 C   0  0  0  0  0  3  0  0  0  0  0  0
  191.9390  176.9730  139.5240 C   0  0  0  0  0  0  0  0  0  0  0  0
  189.7410  176.9040  139.8310 C   0  0  0  0  0  3  0  0  0  0  0  0
  190.7430  176.7040  138.9100 C   0  0  0  0  0  0  0  0  0  0  0  0
  190.6720  176.3050  137.5790 C   0  0  0  0  0  3  0  0  0  0  0  0
  190.3340  177.2900  140.9880 N   0  0  0  0  0  0  0  0  0  0  0  0
  193.1160  176.4600  137.5030 C   0  0  0  0  0  0  0  0  0  0  0  0
  194.2990  176.3360  136.7890 O   0  0  0  0  0  1  0  0  0  0  0  0
  191.6760  177.3390  140.8240 C   0  0  0  0  0  3  0  0  0  0  0  0
  185.8280  178.1140  145.9010 N   0  0  0  0  0  2  0  0  0  0  0  0
  185.2870  178.4330  143.6360 O   0  0  0  0  0  0  0  0  0  0  0  0
  181.6010  178.7560  143.9780 C   0  0  0  0  0  1  0  0  0  0  0  0
  184.0170  178.4270  143.1530 N   0  0  0  0  0  0  0  0  0  0  0  0
  185.1550  178.9780  144.9400 C   0  0  1  0  0  3  0  0  0  0  0  0
  183.0810  178.7490  144.1550 C   0  0  0  0  0  0  0  0  0  0  0  0
  183.6940  179.0660  145.2580 C   0  0  0  0  0  3  0  0  0  0  0  0
  183.7550  178.6560  141.7410 C   0  0  0  0  0  2  0  0  0  0  0  0
  185.0480  178.9940  141.0250 C   0  0  0  0  0  1  0  0  0  0  0  0
  2  3  1  0  0  0  0
  3 21  1  0  0  0  0
  3  1  2  0  0  0  0
  4  6  1  0  0  0  0
  5  4  1  0  0  0  0
  6  1  1  0  0  0  0
  6  8  2  0  0  0  0
  7  2  2  0  0  0  0
  7  4  1  0  0  0  0
  9  7  1  0  0  0  0
 10  9  2  0  0  0  0
 11 13  1  0  0  0  0
 12 18  1  0  0  0  0
 12 16  2  0  0  0  0
 13 20  2  0  0  0  0
 14 17  1  0  0  0  0
 15 13  1  0  0  0  0
 15 14  2  0  0  0  0
 16 15  1  0  0  0  0
 17 10  1  0  0  0  0
 18 11  2  0  0  0  0
 19 18  1  0  0  0  0
 20 17  1  0  0  0  0
 22 25  1  0  0  0  0
 23 26  1  0  0  0  0
 24 22  1  0  0  0  0
 24 26  1  0  0  0  0
 25 27  1  0  0  0  0
 25 21  1  1  0  0  0
 26 27  2  0  0  0  0
 28 24  1  0  0  0  0
 29 28  1  0  0  0  0
M  END
>  <MODEL>
1

>  <REMARK>
 VINA RESULT:      -9.3      0.000      0.000
  Name = 
  5 active torsions:
  status: ('A' for Active; 'I' for Inactive)
    1  A    between atoms: C_2  and  C_22
    2  A    between atoms: C_7  and  N_18
    3  A    between atoms: C_10  and  N_17
    4  A    between atoms: C_11  and  N_26
    5  A    between atoms: C_24  and  N_26
                            x       y       z     vdW  Elec       q    Type
                         _______ _______ _______ _____ _____    ______ ____

>  <TORSDO>
F 5

$$$$
=
 OpenBabel11042410233D

 29 32  0  0  1  0  0  0  0  0999 V2000
  187.8440  177.7180  146.9460 C   0  0  0  0  0  3  0  0  0  0  0  0
  187.8040  177.4430  144.5570 C   0  0  0  0  0  3  0  0  0  0  0  0
  187.1320  177.7170  145.7500 C   0  0  0  0  0  0  0  0  0  0  0  0
  189.8600  177.1850  145.7620 N   0  0  0  0  0  0  0  0  0  0  0  0
  191.5780  176.8460  145.7980 Cl  0  0  0  0  0  0  0  0  0  0  0  0
  189.2130  177.4490  146.9380 C   0  0  0  0  0  0  0  0  0  0  0  0
  189.1800  177.1770  144.5700 C   0  0  0  0  0  0  0  0  0  0  0  0
  189.8440  177.4510  148.0280 O   0  0  0  0  0  0  0  0  0  0  0  0
  189.8870  176.8890  143.3070 C   0  0  0  0  0  3  0  0  0  0  0  0
  189.6420  177.5430  142.1730 C   0  0  0  0  0  3  0  0  0  0  0  0
  190.6380  176.3070  137.5400 C   0  0  0  0  0  3  0  0  0  0  0  0
  193.0800  176.4300  137.4400 C   0  0  0  0  0  3  0  0  0  0  0  0
  190.7280  176.6870  138.8760 C   0  0  0  0  0  0  0  0  0  0  0  0
  191.6900  177.2810  140.7870 C   0  0  0  0  0  3  0  0  0  0  0  0
  191.9340  176.9310  139.4800 C   0  0  0  0  0  0  0  0  0  0  0  0
  193.1380  176.8120  138.7930 C   0  0  0  0  0  3  0  0  0  0  0  0
  190.3450  177.2470  140.9640 N   0  0  0  0  0  0  0  0  0  0  0  0
  191.8370  176.1780  136.8170 C   0  0  0  0  0  0  0  0  0  0  0  0
  191.8000  175.8010  135.4810 O   0  0  0  0  0  1  0  0  0  0  0  0
  189.7370  176.8870  139.8100 C   0  0  0  0  0  3  0  0  0  0  0  0
  185.7260  177.9820  145.7680 N   0  0  0  0  0  2  0  0  0  0  0  0
  185.1950  178.4160  143.5200 O   0  0  0  0  0  0  0  0  0  0  0  0
  181.5140  178.7800  143.8720 C   0  0  0  0  0  1  0  0  0  0  0  0
  183.9260  178.4520  143.0360 N   0  0  0  0  0  0  0  0  0  0  0  0
  185.0690  178.9010  144.8480 C   0  0  1  0  0  3  0  0  0  0  0  0
  182.9930  178.7420  144.0510 C   0  0  0  0  0  0  0  0  0  0  0  0
  183.6090  178.9970  145.1680 C   0  0  0  0  0  3  0  0  0  0  0  0
  183.6700  178.7510  141.6350 C   0  0  0  0  0  2  0  0  0  0  0  0
  184.9830  178.9460  140.9020 C   0  0  0  0  0  1  0  0  0  0  0  0
  2  7  2  0  0  0  0
  2  3  1  0  0  0  0
  3 21  1  0  0  0  0
  3  1  2  0  0  0  0
  4  5  1  0  0  0  0
  4  6  1  0  0  0  0
  6  1  1  0  0  0  0
  6  8  2  0  0  0  0
  7  4  1  0  0  0  0
  9  7  1  0  0  0  0
 10  9  2  0  0  0  0
 11 13  1  0  0  0  0
 12 16  2  0  0  0  0
 13 15  1  0  0  0  0
 13 20  2  0  0  0  0
 14 17  1  0  0  0  0
 15 14  2  0  0  0  0
 16 15  1  0  0  0  0
 17 10  1  0  0  0  0
 18 12  1  0  0  0  0
 18 11  2  0  0  0  0
 19 18  1  0  0  0  0
 20 17  1  0  0  0  0
 22 25  1  0  0  0  0
 23 26  1  0  0  0  0
 24 22  1  0  0  0  0
 24 26  1  0  0  0  0
 25 27  1  0  0  0  0
 25 21  1  1  0  0  0
 26 27  2  0  0  0  0
 28 24  1  0  0  0  0
 29 28  1  0  0  0  0
M  END
>  <MODEL>
2

>  <REMARK>
 VINA RESULT:      -9.1      0.545      1.209
  Name = 
  5 active torsions:
  status: ('A' for Active; 'I' for Inactive)
    1  A    between atoms: C_2  and  C_22
    2  A    between atoms: C_7  and  N_18
    3  A    between atoms: C_10  and  N_17
    4  A    between atoms: C_11  and  N_26
    5  A    between atoms: C_24  and  N_26
                            x       y       z     vdW  Elec       q    Type
                         _______ _______ _______ _____ _____    ______ ____

>  <TORSDO>
F 5

$$$$
=
 OpenBabel11042410233D

 29 32  0  0  1  0  0  0  0  0999 V2000
  185.7630  178.2300  146.6010 C   0  0  0  0  0  3  0  0  0  0  0  0
  187.4170  177.4850  145.0210 C   0  0  0  0  0  3  0  0  0  0  0  0
  187.0090  177.6660  146.3440 C   0  0  0  0  0  0  0  0  0  0  0  0
  185.3500  178.4200  144.2450 N   0  0  0  0  0  0  0  0  0  0  0  0
  184.2880  178.9120  142.9420 Cl  0  0  0  0  0  0  0  0  0  0  0  0
  184.9400  178.6050  145.5370 C   0  0  0  0  0  0  0  0  0  0  0  0
  186.5740  177.8670  143.9670 C   0  0  0  0  0  0  0  0  0  0  0  0
  183.8160  179.1160  145.7850 O   0  0  0  0  0  0  0  0  0  0  0  0
  187.0080  177.6740  142.5690 C   0  0  0  0  0  3  0  0  0  0  0  0
  188.2450  177.9360  142.1510 C   0  0  0  0  0  3  0  0  0  0  0  0
  188.3550  178.0820  137.2570 C   0  0  0  0  0  3  0  0  0  0  0  0
  190.3560  176.7860  136.7030 C   0  0  0  0  0  3  0  0  0  0  0  0
  188.6350  177.8370  138.5980 C   0  0  0  0  0  0  0  0  0  0  0  0
  189.7220  177.0400  140.3630 C   0  0  0  0  0  3  0  0  0  0  0  0
  189.7230  177.1010  138.9880 C   0  0  0  0  0  0  0  0  0  0  0  0
  190.6120  176.5550  138.0670 C   0  0  0  0  0  3  0  0  0  0  0  0
  188.6390  177.7350  140.7910 N   0  0  0  0  0  0  0  0  0  0  0  0
  189.2340  177.5440  136.2990 C   0  0  0  0  0  0  0  0  0  0  0  0
  188.9970  177.7600  134.9490 O   0  0  0  0  0  1  0  0  0  0  0  0
  187.9600  178.2310  139.7310 C   0  0  0  0  0  3  0  0  0  0  0  0
  187.8520  177.2940  147.4390 N   0  0  0  0  0  2  0  0  0  0  0  0
  189.9630  176.2750  147.6060 O   0  0  0  0  0  0  0  0  0  0  0  0
  191.4830  177.6160  144.4920 C   0  0  0  0  0  1  0  0  0  0  0  0
  190.8870  176.2800  146.6090 N   0  0  0  0  0  0  0  0  0  0  0  0
  189.2910  177.5170  147.4580 C   0  0  1  0  0  3  0  0  0  0  0  0
  190.6930  177.3630  145.7300 C   0  0  0  0  0  0  0  0  0  0  0  0
  189.7370  178.1300  146.1650 C   0  0  0  0  0  3  0  0  0  0  0  0
  192.1850  175.6490  146.7920 C   0  0  0  0  0  2  0  0  0  0  0  0
  192.6470  175.8280  148.2250 C   0  0  0  0  0  1  0  0  0  0  0  0
  2  3  1  0  0  0  0
  3  1  2  0  0  0  0
  3 21  1  0  0  0  0
  4  6  1  0  0  0  0
  5  4  1  0  0  0  0
  6  8  2  0  0  0  0
  6  1  1  0  0  0  0
  7  4  1  0  0  0  0
  7  2  2  0  0  0  0
  9  7  1  0  0  0  0
 10  9  2  0  0  0  0
 11 13  1  0  0  0  0
 12 16  2  0  0  0  0
 13 15  1  0  0  0  0
 13 20  2  0  0  0  0
 14 17  1  0  0  0  0
 15 14  2  0  0  0  0
 16 15  1  0  0  0  0
 17 10  1  0  0  0  0
 18 12  1  0  0  0  0
 18 11  2  0  0  0  0
 19 18  1  0  0  0  0
 20 17  1  0  0  0  0
 23 26  1  0  0  0  0
 24 28  1  0  0  0  0
 24 22  1  0  0  0  0
 25 21  1  6  0  0  0
 25 22  1  0  0  0  0
 26 27  2  0  0  0  0
 26 24  1  0  0  0  0
 27 25  1  0  0  0  0
 28 29  1  0  0  0  0
M  END
>  <MODEL>
3

>  <REMARK>
 VINA RESULT:      -9.0      2.628      5.456
  Name = 
  5 active torsions:
  status: ('A' for Active; 'I' for Inactive)
    1  A    between atoms: C_2  and  C_22
    2  A    between atoms: C_7  and  N_18
    3  A    between atoms: C_10  and  N_17
    4  A    between atoms: C_11  and  N_26
    5  A    between atoms: C_24  and  N_26
                            x       y       z     vdW  Elec       q    Type
                         _______ _______ _______ _____ _____    ______ ____

>  <TORSDO>
F 5

$$$$
=
 OpenBabel11042410233D

 29 32  0  0  1  0  0  0  0  0999 V2000
  182.3220  178.6440  140.0700 C   0  0  0  0  0  3  0  0  0  0  0  0
  184.5330  178.1830  140.8980 C   0  0  0  0  0  3  0  0  0  0  0  0
  183.6480  178.3040  139.8240 C   0  0  0  0  0  0  0  0  0  0  0  0
  182.7710  178.7410  142.4250 N   0  0  0  0  0  0  0  0  0  0  0  0
  182.1900  179.0150  144.0550 Cl  0  0  0  0  0  0  0  0  0  0  0  0
  181.8940  178.8600  141.3810 C   0  0  0  0  0  0  0  0  0  0  0  0
  184.0830  178.4060  142.2070 C   0  0  0  0  0  0  0  0  0  0  0  0
  180.6900  179.1660  141.5900 O   0  0  0  0  0  0  0  0  0  0  0  0
  185.0210  178.2790  143.3400 C   0  0  0  0  0  3  0  0  0  0  0  0
  186.2780  177.8620  143.1980 C   0  0  0  0  0  3  0  0  0  0  0  0
  190.2640  177.0370  145.9200 C   0  0  0  0  0  3  0  0  0  0  0  0
  189.5230  177.6000  148.1840 C   0  0  0  0  0  3  0  0  0  0  0  0
  188.9850  177.3650  145.4790 C   0  0  0  0  0  0  0  0  0  0  0  0
  186.8720  178.0340  145.6060 C   0  0  0  0  0  3  0  0  0  0  0  0
  188.0090  177.7930  146.3410 C   0  0  0  0  0  0  0  0  0  0  0  0
  188.2390  177.9230  147.7070 C   0  0  0  0  0  3  0  0  0  0  0  0
  187.1660  177.7520  144.3130 N   0  0  0  0  0  0  0  0  0  0  0  0
  190.5300  177.1580  147.2970 C   0  0  0  0  0  0  0  0  0  0  0  0
  191.7900  176.8420  147.7860 O   0  0  0  0  0  1  0  0  0  0  0  0
  188.4520  177.3420  144.2110 C   0  0  0  0  0  3  0  0  0  0  0  0
  184.0760  178.0720  138.4780 N   0  0  0  0  0  2  0  0  0  0  0  0
  186.2810  178.6450  139.0600 O   0  0  0  0  0  0  0  0  0  0  0  0
  188.0780  176.1390  136.9880 C   0  0  0  0  0  1  0  0  0  0  0  0
  187.3700  177.9070  138.7180 N   0  0  0  0  0  0  0  0  0  0  0  0
  185.3860  178.4610  137.9730 C   0  0  1  0  0  3  0  0  0  0  0  0
  187.1220  177.1180  137.5780 C   0  0  0  0  0  0  0  0  0  0  0  0
  185.9430  177.3820  137.0960 C   0  0  0  0  0  3  0  0  0  0  0  0
  188.7090  178.3360  139.0920 C   0  0  0  0  0  2  0  0  0  0  0  0
  189.0120  177.8960  140.5110 C   0  0  0  0  0  1  0  0  0  0  0  0
  1  6  1  0  0  0  0
  2  7  2  0  0  0  0
  3  1  2  0  0  0  0
  3  2  1  0  0  0  0
  4  5  1  0  0  0  0
  6  8  2  0  0  0  0
  6  4  1  0  0  0  0
  7  4  1  0  0  0  0
  7  9  1  0  0  0  0
 10  9  2  0  0  0  0
 10 17  1  0  0  0  0
 11 18  2  0  0  0  0
 13 11  1  0  0  0  0
 13 15  1  0  0  0  0
 14 15  2  0  0  0  0
 15 16  1  0  0  0  0
 16 12  2  0  0  0  0
 17 14  1  0  0  0  0
 18 19  1  0  0  0  0
 18 12  1  0  0  0  0
 20 17  1  0  0  0  0
 20 13  2  0  0  0  0
 21  3  1  0  0  0  0
 23 26  1  0  0  0  0
 24 22  1  0  0  0  0
 24 28  1  0  0  0  0
 25 21  1  1  0  0  0
 25 22  1  0  0  0  0
 26 24  1  0  0  0  0
 27 26  2  0  0  0  0
 27 25  1  0  0  0  0
 28 29  1  0  0  0  0
M  END
>  <MODEL>
4

>  <REMARK>
 VINA RESULT:      -8.8      3.501      7.840
  Name = 
  5 active torsions:
  status: ('A' for Active; 'I' for Inactive)
    1  A    between atoms: C_2  and  C_22
    2  A    between atoms: C_7  and  N_18
    3  A    between atoms: C_10  and  N_17
    4  A    between atoms: C_11  and  N_26
    5  A    between atoms: C_24  and  N_26
                            x       y       z     vdW  Elec       q    Type
                         _______ _______ _______ _____ _____    ______ ____

>  <TORSDO>
F 5

$$$$
=
 OpenBabel11042410233D

 29 32  0  0  1  0  0  0  0  0999 V2000
  191.2560  176.5140  136.9530 C   0  0  0  0  0  3  0  0  0  0  0  0
  191.3060  176.7640  139.3440 C   0  0  0  0  0  3  0  0  0  0  0  0
  191.9700  176.4890  138.1470 C   0  0  0  0  0  0  0  0  0  0  0  0
  189.2540  177.0830  138.1460 N   0  0  0  0  0  0  0  0  0  0  0  0
  187.5410  177.4460  138.1180 Cl  0  0  0  0  0  0  0  0  0  0  0  0
  189.8920  176.8130  136.9670 C   0  0  0  0  0  0  0  0  0  0  0  0
  189.9370  177.0640  139.3360 C   0  0  0  0  0  0  0  0  0  0  0  0
  189.2580  176.8290  135.8780 O   0  0  0  0  0  0  0  0  0  0  0  0
  189.2380  177.3550  140.6040 C   0  0  0  0  0  3  0  0  0  0  0  0
  189.5740  176.7910  141.7630 C   0  0  0  0  0  3  0  0  0  0  0  0
  186.0880  178.1060  144.9410 C   0  0  0  0  0  3  0  0  0  0  0  0
  187.2060  177.9140  147.1100 C   0  0  0  0  0  3  0  0  0  0  0  0
  187.2800  177.6930  144.3520 C   0  0  0  0  0  0  0  0  0  0  0  0
  189.3940  177.0260  144.2320 C   0  0  0  0  0  3  0  0  0  0  0  0
  188.3920  177.4000  145.0970 C   0  0  0  0  0  0  0  0  0  0  0  0
  188.3960  177.4990  146.4850 C   0  0  0  0  0  3  0  0  0  0  0  0
  188.8830  177.0950  142.9770 N   0  0  0  0  0  0  0  0  0  0  0  0
  186.0590  178.2170  146.3440 C   0  0  0  0  0  0  0  0  0  0  0  0
  184.8940  178.6260  146.9780 O   0  0  0  0  0  1  0  0  0  0  0  0
  187.5930  177.5000  143.0270 C   0  0  0  0  0  3  0  0  0  0  0  0
  193.3640  176.1710  138.1250 N   0  0  0  0  0  2  0  0  0  0  0  0
  195.3430  175.6350  136.9750 O   0  0  0  0  0  0  0  0  0  0  0  0
  195.5330  172.0250  137.8330 C   0  0  0  0  0  1  0  0  0  0  0  0
  195.9930  174.4480  137.1000 N   0  0  0  0  0  0  0  0  0  0  0  0
  193.9740  175.2940  137.1340 C   0  0  1  0  0  3  0  0  0  0  0  0
  195.1250  173.4250  137.5260 C   0  0  0  0  0  0  0  0  0  0  0  0
  193.9040  173.8690  137.5900 C   0  0  0  0  0  3  0  0  0  0  0  0
  197.2020  174.1760  136.3370 C   0  0  0  0  0  2  0  0  0  0  0  0
  197.5530  175.3780  135.4820 C   0  0  0  0  0  1  0  0  0  0  0  0
  1  6  1  0  0  0  0
  1  3  2  0  0  0  0
  3  2  1  0  0  0  0
  4  7  1  0  0  0  0
  5  4  1  0  0  0  0
  6  4  1  0  0  0  0
  7  2  2  0  0  0  0
  7  9  1  0  0  0  0
  8  6  2  0  0  0  0
  9 10  2  0  0  0  0
 10 17  1  0  0  0  0
 11 18  2  0  0  0  0
 13 11  1  0  0  0  0
 13 15  1  0  0  0  0
 14 15  2  0  0  0  0
 15 16  1  0  0  0  0
 16 12  2  0  0  0  0
 17 20  1  0  0  0  0
 17 14  1  0  0  0  0
 18 19  1  0  0  0  0
 18 12  1  0  0  0  0
 20 13  2  0  0  0  0
 21  3  1  0  0  0  0
 22 24  1  0  0  0  0
 22 25  1  0  0  0  0
 24 26  1  0  0  0  0
 25 27  1  0  0  0  0
 25 21  1  1  0  0  0
 26 27  2  0  0  0  0
 26 23  1  0  0  0  0
 28 24  1  0  0  0  0
 29 28  1  0  0  0  0
M  END
>  <MODEL>
5

>  <REMARK>
 VINA RESULT:      -8.7      3.300     10.450
  Name = 
  5 active torsions:
  status: ('A' for Active; 'I' for Inactive)
    1  A    between atoms: C_2  and  C_22
    2  A    between atoms: C_7  and  N_18
    3  A    between atoms: C_10  and  N_17
    4  A    between atoms: C_11  and  N_26
    5  A    between atoms: C_24  and  N_26
                            x       y       z     vdW  Elec       q    Type
                         _______ _______ _______ _____ _____    ______ ____

>  <TORSDO>
F 5

$$$$
=
 OpenBabel11042410233D

 29 32  0  0  1  0  0  0  0  0999 V2000
  189.9650  177.1260  145.7290 C   0  0  0  0  0  3  0  0  0  0  0  0
  188.1510  177.0590  144.1510 C   0  0  0  0  0  3  0  0  0  0  0  0
  189.4930  176.8230  144.4560 C   0  0  0  0  0  0  0  0  0  0  0  0
  187.7820  177.8830  146.3720 N   0  0  0  0  0  0  0  0  0  0  0  0
  186.7270  178.5590  147.5970 Cl  0  0  0  0  0  0  0  0  0  0  0  0
  189.0950  177.6590  146.6820 C   0  0  0  0  0  0  0  0  0  0  0  0
  187.2940  177.5930  145.1240 C   0  0  0  0  0  0  0  0  0  0  0  0
  189.5370  177.9310  147.8300 O   0  0  0  0  0  0  0  0  0  0  0  0
  185.8750  177.8410  144.7990 C   0  0  0  0  0  3  0  0  0  0  0  0
  185.4690  178.2740  143.6070 C   0  0  0  0  0  3  0  0  0  0  0  0
  181.2670  179.0080  141.2000 C   0  0  0  0  0  3  0  0  0  0  0  0
  179.6200  179.2120  142.9990 C   0  0  0  0  0  3  0  0  0  0  0  0
  182.2360  178.8260  142.1830 C   0  0  0  0  0  0  0  0  0  0  0  0
  183.0870  178.6310  144.2250 C   0  0  0  0  0  3  0  0  0  0  0  0
  181.9250  178.8340  143.5170 C   0  0  0  0  0  0  0  0  0  0  0  0
  180.6220  179.0270  143.9680 C   0  0  0  0  0  3  0  0  0  0  0  0
  184.0870  178.5010  143.3180 N   0  0  0  0  0  0  0  0  0  0  0  0
  179.9390  179.2040  141.6230 C   0  0  0  0  0  0  0  0  0  0  0  0
  178.9370  179.3910  140.6810 O   0  0  0  0  0  1  0  0  0  0  0  0
  183.5910  178.6160  142.0640 C   0  0  0  0  0  3  0  0  0  0  0  0
  190.3940  176.2880  143.4810 N   0  0  0  0  0  2  0  0  0  0  0  0
  190.8770  176.0030  141.1990 O   0  0  0  0  0  0  0  0  0  0  0  0
  188.2780  178.2520  139.7880 C   0  0  0  0  0  1  0  0  0  0  0  0
  190.0910  176.4710  140.1940 N   0  0  0  0  0  0  0  0  0  0  0  0
  190.7220  176.9630  142.2330 C   0  0  1  0  0  3  0  0  0  0  0  0
  189.3020  177.5580  140.6190 C   0  0  0  0  0  0  0  0  0  0  0  0
  189.6110  177.8890  141.8380 C   0  0  0  0  0  3  0  0  0  0  0  0
  190.4660  176.2790  138.8020 C   0  0  0  0  0  2  0  0  0  0  0  0
  191.9070  176.7010  138.5940 C   0  0  0  0  0  1  0  0  0  0  0  0
  1  6  1  0  0  0  0
  2  3  1  0  0  0  0
  2  7  2  0  0  0  0
  3  1  2  0  0  0  0
  4  6  1  0  0  0  0
  4  5  1  0  0  0  0
  6  8  2  0  0  0  0
  7  4  1  0  0  0  0
  9  7  1  0  0  0  0
 10  9  2  0  0  0  0
 11 18  2  0  0  0  0
 11 13  1  0  0  0  0
 12 16  2  0  0  0  0
 13 15  1  0  0  0  0
 15 16  1  0  0  0  0
 15 14  2  0  0  0  0
 17 10  1  0  0  0  0
 17 14  1  0  0  0  0
 18 12  1  0  0  0  0
 19 18  1  0  0  0  0
 20 13  2  0  0  0  0
 20 17  1  0  0  0  0
 21  3  1  0  0  0  0
 22 25  1  0  0  0  0
 23 26  1  0  0  0  0
 24 26  1  0  0  0  0
 24 22  1  0  0  0  0
 25 21  1  1  0  0  0
 26 27  2  0  0  0  0
 27 25  1  0  0  0  0
 28 24  1  0  0  0  0
 29 28  1  0  0  0  0
M  END
>  <MODEL>
6

>  <REMARK>
 VINA RESULT:      -8.4      2.378      8.064
  Name = 
  5 active torsions:
  status: ('A' for Active; 'I' for Inactive)
    1  A    between atoms: C_2  and  C_22
    2  A    between atoms: C_7  and  N_18
    3  A    between atoms: C_10  and  N_17
    4  A    between atoms: C_11  and  N_26
    5  A    between atoms: C_24  and  N_26
                            x       y       z     vdW  Elec       q    Type
                         _______ _______ _______ _____ _____    ______ ____

>  <TORSDO>
F 5

$$$$
=
 OpenBabel11042410233D

 29 32  0  0  1  0  0  0  0  0999 V2000
  191.2220  176.9150  145.4180 C   0  0  0  0  0  3  0  0  0  0  0  0
  189.3990  177.2140  143.8770 C   0  0  0  0  0  3  0  0  0  0  0  0
  190.7520  176.9590  144.1080 C   0  0  0  0  0  0  0  0  0  0  0  0
  189.0140  177.3710  146.2380 N   0  0  0  0  0  0  0  0  0  0  0  0
  187.9420  177.6340  147.5980 Cl  0  0  0  0  0  0  0  0  0  0  0  0
  190.3380  177.1240  146.4780 C   0  0  0  0  0  0  0  0  0  0  0  0
  188.5280  177.4200  144.9560 C   0  0  0  0  0  0  0  0  0  0  0  0
  190.7780  177.0840  147.6580 O   0  0  0  0  0  0  0  0  0  0  0  0
  187.0980  177.6880  144.7080 C   0  0  0  0  0  3  0  0  0  0  0  0
  186.6180  178.0100  143.5080 C   0  0  0  0  0  3  0  0  0  0  0  0
  182.2700  178.6390  141.3420 C   0  0  0  0  0  3  0  0  0  0  0  0
  180.7740  179.1180  143.2190 C   0  0  0  0  0  3  0  0  0  0  0  0
  183.3050  178.5310  142.2670 C   0  0  0  0  0  0  0  0  0  0  0  0
  184.3030  178.5360  144.2510 C   0  0  0  0  0  3  0  0  0  0  0  0
  183.0980  178.7050  143.6100 C   0  0  0  0  0  0  0  0  0  0  0  0
  181.8410  179.0030  144.1280 C   0  0  0  0  0  3  0  0  0  0  0  0
  185.2260  178.2610  143.2950 N   0  0  0  0  0  0  0  0  0  0  0  0
  180.9870  178.9390  141.8340 C   0  0  0  0  0  0  0  0  0  0  0  0
  179.9220  179.0590  140.9510 O   0  0  0  0  0  1  0  0  0  0  0  0
  184.6390  178.2520  142.0760 C   0  0  0  0  0  3  0  0  0  0  0  0
  191.6660  176.7550  143.0270 N   0  0  0  0  0  2  0  0  0  0  0  0
  192.7050  177.1300  140.9520 O   0  0  0  0  0  0  0  0  0  0  0  0
  189.8180  176.3840  138.7350 C   0  0  0  0  0  1  0  0  0  0  0  0
  192.1400  176.8190  139.7550 N   0  0  0  0  0  0  0  0  0  0  0  0
  191.6010  177.4880  141.7690 C   0  0  1  0  0  3  0  0  0  0  0  0
  190.7350  176.7700  139.8440 C   0  0  0  0  0  0  0  0  0  0  0  0
  190.3460  177.1360  141.0300 C   0  0  0  0  0  3  0  0  0  0  0  0
  192.8320  177.1020  138.5070 C   0  0  0  0  0  2  0  0  0  0  0  0
  193.4500  175.8300  137.9610 C   0  0  0  0  0  1  0  0  0  0  0  0
  1  6  1  0  0  0  0
  2  3  1  0  0  0  0
  2  7  2  0  0  0  0
  3  1  2  0  0  0  0
  4  6  1  0  0  0  0
  4  5  1  0  0  0  0
  6  8  2  0  0  0  0
  7  4  1  0  0  0  0
  9  7  1  0  0  0  0
 10  9  2  0  0  0  0
 11 18  2  0  0  0  0
 11 13  1  0  0  0  0
 12 16  2  0  0  0  0
 13 15  1  0  0  0  0
 15 16  1  0  0  0  0
 15 14  2  0  0  0  0
 17 10  1  0  0  0  0
 17 14  1  0  0  0  0
 18 12  1  0  0  0  0
 19 18  1  0  0  0  0
 20 13  2  0  0  0  0
 20 17  1  0  0  0  0
 21  3  1  0  0  0  0
 22 25  1  0  0  0  0
 23 26  1  0  0  0  0
 24 26  1  0  0  0  0
 24 22  1  0  0  0  0
 25 21  1  1  0  0  0
 26 27  2  0  0  0  0
 27 25  1  0  0  0  0
 28 24  1  0  0  0  0
 29 28  1  0  0  0  0
M  END
>  <MODEL>
7

>  <REMARK>
 VINA RESULT:      -8.4      2.029      8.069
  Name = 
  5 active torsions:
  status: ('A' for Active; 'I' for Inactive)
    1  A    between atoms: C_2  and  C_22
    2  A    between atoms: C_7  and  N_18
    3  A    between atoms: C_10  and  N_17
    4  A    between atoms: C_11  and  N_26
    5  A    between atoms: C_24  and  N_26
                            x       y       z     vdW  Elec       q    Type
                         _______ _______ _______ _____ _____    ______ ____

>  <TORSDO>
F 5

$$$$
=
 OpenBabel11042410233D

 29 32  0  0  1  0  0  0  0  0999 V2000
  188.1760  177.8470  136.8990 C   0  0  0  0  0  3  0  0  0  0  0  0
  187.7520  178.0250  139.2600 C   0  0  0  0  0  3  0  0  0  0  0  0
  187.3110  178.1640  137.9430 C   0  0  0  0  0  0  0  0  0  0  0  0
  189.8860  177.2630  138.4770 N   0  0  0  0  0  0  0  0  0  0  0  0
  191.5160  176.7000  138.7840 Cl  0  0  0  0  0  0  0  0  0  0  0  0
  189.4660  177.3970  137.1810 C   0  0  0  0  0  0  0  0  0  0  0  0
  189.0520  177.5690  139.5220 C   0  0  0  0  0  0  0  0  0  0  0  0
  190.2390  177.1170  136.2270 O   0  0  0  0  0  0  0  0  0  0  0  0
  189.5150  177.4220  140.9160 C   0  0  0  0  0  3  0  0  0  0  0  0
  188.7080  177.5600  141.9670 C   0  0  0  0  0  3  0  0  0  0  0  0
  191.6060  176.6850  145.8170 C   0  0  0  0  0  3  0  0  0  0  0  0
  190.1330  177.0900  147.7290 C   0  0  0  0  0  3  0  0  0  0  0  0
  190.5300  177.0030  144.9920 C   0  0  0  0  0  0  0  0  0  0  0  0
  188.4650  177.6030  144.4410 C   0  0  0  0  0  3  0  0  0  0  0  0
  189.3060  177.3510  145.5000 C   0  0  0  0  0  0  0  0  0  0  0  0
  189.0650  177.4050  146.8690 C   0  0  0  0  0  3  0  0  0  0  0  0
  189.1830  177.4080  143.3070 N   0  0  0  0  0  0  0  0  0  0  0  0
  191.3960  176.7310  147.2070 C   0  0  0  0  0  0  0  0  0  0  0  0
  192.4370  176.4210  148.0720 O   0  0  0  0  0  1  0  0  0  0  0  0
  190.4480  177.0410  143.6190 C   0  0  0  0  0  3  0  0  0  0  0  0
  185.9940  178.6360  137.6460 N   0  0  0  0  0  2  0  0  0  0  0  0
  184.1500  179.4150  138.8770 O   0  0  0  0  0  0  0  0  0  0  0  0
  181.4480  177.6930  136.9960 C   0  0  0  0  0  1  0  0  0  0  0  0
  182.8570  179.2330  138.5010 N   0  0  0  0  0  0  0  0  0  0  0  0
  184.8110  178.2510  138.4050 C   0  0  1  0  0  3  0  0  0  0  0  0
  182.7180  178.1210  137.6480 C   0  0  0  0  0  0  0  0  0  0  0  0
  183.8550  177.5010  137.5280 C   0  0  0  0  0  3  0  0  0  0  0  0
  181.7630  179.7230  139.3270 C   0  0  0  0  0  2  0  0  0  0  0  0
  181.6410  178.8710  140.5750 C   0  0  0  0  0  1  0  0  0  0  0  0
  1  6  1  0  0  0  0
  1  3  2  0  0  0  0
  2  7  2  0  0  0  0
  3  2  1  0  0  0  0
  4  5  1  0  0  0  0
  4  7  1  0  0  0  0
  6  4  1  0  0  0  0
  7  9  1  0  0  0  0
  8  6  2  0  0  0  0
  9 10  2  0  0  0  0
 10 17  1  0  0  0  0
 11 18  2  0  0  0  0
 13 15  1  0  0  0  0
 13 11  1  0  0  0  0
 14 15  2  0  0  0  0
 15 16  1  0  0  0  0
 16 12  2  0  0  0  0
 17 20  1  0  0  0  0
 17 14  1  0  0  0  0
 18 12  1  0  0  0  0
 18 19  1  0  0  0  0
 20 13  2  0  0  0  0
 21  3  1  0  0  0  0
 23 26  1  0  0  0  0
 24 22  1  0  0  0  0
 24 28  1  0  0  0  0
 25 21  1  6  0  0  0
 25 22  1  0  0  0  0
 26 24  1  0  0  0  0
 27 26  2  0  0  0  0
 27 25  1  0  0  0  0
 28 29  1  0  0  0  0
M  END
>  <MODEL>
8

>  <REMARK>
 VINA RESULT:      -8.4      3.230      7.221
  Name = 
  5 active torsions:
  status: ('A' for Active; 'I' for Inactive)
    1  A    between atoms: C_2  and  C_22
    2  A    between atoms: C_7  and  N_18
    3  A    between atoms: C_10  and  N_17
    4  A    between atoms: C_11  and  N_26
    5  A    between atoms: C_24  and  N_26
                            x       y       z     vdW  Elec       q    Type
                         _______ _______ _______ _____ _____    ______ ____

>  <TORSDO>
F 5

$$$$
=
 OpenBabel11042410233D

 29 32  0  0  1  0  0  0  0  0999 V2000
  190.0320  176.9670  137.0490 C   0  0  0  0  0  3  0  0  0  0  0  0
  188.2930  177.5020  138.6220 C   0  0  0  0  0  3  0  0  0  0  0  0
  188.6910  177.2270  137.3120 C   0  0  0  0  0  0  0  0  0  0  0  0
  190.5560  177.2500  139.3730 N   0  0  0  0  0  0  0  0  0  0  0  0
  191.7540  177.2660  140.6510 Cl  0  0  0  0  0  0  0  0  0  0  0  0
  190.9580  176.9830  138.0930 C   0  0  0  0  0  0  0  0  0  0  0  0
  189.2400  177.5100  139.6570 C   0  0  0  0  0  0  0  0  0  0  0  0
  192.1700  176.7480  137.8390 O   0  0  0  0  0  0  0  0  0  0  0  0
  188.8160  177.8000  141.0410 C   0  0  0  0  0  3  0  0  0  0  0  0
  188.6660  176.8540  141.9670 C   0  0  0  0  0  3  0  0  0  0  0  0
  188.7430  177.6700  146.7950 C   0  0  0  0  0  3  0  0  0  0  0  0
  186.4140  178.2200  147.3070 C   0  0  0  0  0  3  0  0  0  0  0  0
  188.3570  177.5170  145.4660 C   0  0  0  0  0  0  0  0  0  0  0  0
  187.0030  177.4820  143.7060 C   0  0  0  0  0  3  0  0  0  0  0  0
  187.0610  177.7050  145.0620 C   0  0  0  0  0  0  0  0  0  0  0  0
  186.0550  178.0570  145.9570 C   0  0  0  0  0  3  0  0  0  0  0  0
  188.2580  177.1630  143.3020 N   0  0  0  0  0  0  0  0  0  0  0  0
  187.7490  178.0260  147.7250 C   0  0  0  0  0  0  0  0  0  0  0  0
  188.0840  178.1890  149.0620 O   0  0  0  0  0  1  0  0  0  0  0  0
  189.1020  177.1790  144.3600 C   0  0  0  0  0  3  0  0  0  0  0  0
  187.7490  177.2210  136.2350 N   0  0  0  0  0  2  0  0  0  0  0  0
  187.3240  174.9500  136.6690 O   0  0  0  0  0  0  0  0  0  0  0  0
  183.7150  175.2050  137.5170 C   0  0  0  0  0  1  0  0  0  0  0  0
  186.1680  174.4870  137.2130 N   0  0  0  0  0  0  0  0  0  0  0  0
  186.9160  176.0720  135.9020 C   0  0  1  0  0  3  0  0  0  0  0  0
  185.0980  175.3750  136.9880 C   0  0  0  0  0  0  0  0  0  0  0  0
  185.4830  176.3600  136.2300 C   0  0  0  0  0  3  0  0  0  0  0  0
  185.9640  173.0630  137.4310 C   0  0  0  0  0  2  0  0  0  0  0  0
  185.6590  172.3790  136.1130 C   0  0  0  0  0  1  0  0  0  0  0  0
  1  3  2  0  0  0  0
  1  6  1  0  0  0  0
  2  7  2  0  0  0  0
  3  2  1  0  0  0  0
  4  7  1  0  0  0  0
  4  5  1  0  0  0  0
  6  4  1  0  0  0  0
  7  9  1  0  0  0  0
  8  6  2  0  0  0  0
  9 10  2  0  0  0  0
 10 17  1  0  0  0  0
 11 18  2  0  0  0  0
 12 18  1  0  0  0  0
 13 11  1  0  0  0  0
 14 15  2  0  0  0  0
 15 13  1  0  0  0  0
 15 16  1  0  0  0  0
 16 12  2  0  0  0  0
 17 14  1  0  0  0  0
 17 20  1  0  0  0  0
 18 19  1  0  0  0  0
 20 13  2  0  0  0  0
 21  3  1  0  0  0  0
 22 24  1  0  0  0  0
 24 28  1  0  0  0  0
 25 27  1  0  0  0  0
 25 21  1  1  0  0  0
 25 22  1  0  0  0  0
 26 24  1  0  0  0  0
 26 23  1  0  0  0  0
 27 26  2  0  0  0  0
 29 28  1  0  0  0  0
M  END
>  <MODEL>
9

>  <REMARK>
 VINA RESULT:      -8.4      3.576      8.227
  Name = 
  5 active torsions:
  status: ('A' for Active; 'I' for Inactive)
    1  A    between atoms: C_2  and  C_22
    2  A    between atoms: C_7  and  N_18
    3  A    between atoms: C_10  and  N_17
    4  A    between atoms: C_11  and  N_26
    5  A    between atoms: C_24  and  N_26
                            x       y       z     vdW  Elec       q    Type
                         _______ _______ _______ _____ _____    ______ ____

>  <TORSDO>
F 5

$$$$
