=
 OpenBabel11032421153D

 50 53  0  0  1  0  0  0  0  0999 V2000
  182.7180  178.4460  141.2760 C   0  0  0  0  0  0  0  0  0  0  0  0
  181.3180  178.4780  141.3540 C   0  0  0  0  0  3  0  0  0  0  0  0
  182.8600  178.9910  143.6380 C   0  0  0  0  0  0  0  0  0  0  0  0
  180.6900  178.7470  142.5730 C   0  0  0  0  0  3  0  0  0  0  0  0
  181.4560  179.0000  143.7130 C   0  0  0  0  0  3  0  0  0  0  0  0
  183.4820  178.7100  142.4160 C   0  0  0  0  0  3  0  0  0  0  0  0
  183.6640  179.2560  144.7530 O   0  0  0  0  0  0  0  0  0  0  0  0
  184.5730  178.3200  145.3360 C   0  0  2  0  0  3  0  0  0  0  0  0
  185.7140  179.5110  147.1280 N   0  0  0  0  0  1  0  0  0  0  0  0
  184.6930  178.5210  146.8420 C   0  0  0  0  0  2  0  0  0  0  0  0
  185.8900  178.4080  144.6990 N   0  0  0  0  0  2  0  0  0  0  0  0
  186.2830  177.0970  144.1790 C   0  0  0  0  0  2  0  0  0  0  0  0
  187.7920  176.8950  144.2470 C   0  0  1  0  0  3  0  0  0  0  0  0
  189.5810  176.4000  142.4410 C   0  0  0  0  0  0  0  0  0  0  0  0
  188.0310  177.8970  141.8750 C   0  0  0  0  0  3  0  0  0  0  0  0
  188.8970  177.7700  140.8580 N   0  0  0  0  0  0  0  0  0  0  0  0
  188.8120  178.4840  139.6010 C   0  0  0  0  0  1  0  0  0  0  0  0
  189.8450  176.8610  141.1680 C   0  0  0  0  0  3  0  0  0  0  0  0
  188.4440  177.0520  142.8950 C   0  0  0  0  0  0  0  0  0  0  0  0
  190.3990  175.4020  143.1950 C   0  0  0  0  0  2  0  0  0  0  0  0
  191.6880  176.0290  143.6920 C   0  0  0  0  0  2  0  0  0  0  0  0
  191.5530  176.3460  145.1030 N   0  0  0  0  0  2  0  0  0  0  0  0
  191.9980  177.6650  145.2690 N   0  0  0  0  0  2  0  0  0  0  0  0
  191.7870  179.4720  144.0830 C   0  0  0  0  0  1  0  0  0  0  0  0
  191.0540  178.4680  144.7220 O   0  0  0  0  0  0  0  0  0  0  0  0
  188.4210  177.7960  145.3100 C   0  0  0  0  0  2  0  0  0  0  0  0
  188.8960  178.0670  147.7210 C   0  0  0  0  0  1  0  0  0  0  0  0
  188.4040  177.1050  146.6630 C   0  0  0  0  0  2  0  0  0  0  0  0
  183.4050  178.1440  139.9850 C   0  0  0  0  0  2  0  0  0  0  0  0
  182.9120  179.0200  138.9330 N   0  0  0  0  0  2  0  0  0  0  0  0
  182.7830  178.2220  137.7200 C   0  0  0  0  0  2  0  0  0  0  0  0
  181.6370  177.2280  137.8700 C   0  0  0  0  0  2  0  0  0  0  0  0
  181.8360  176.0750  136.9960 N   0  0  0  0  0  2  0  0  0  0  0  0
  183.1160  175.4640  137.3450 C   0  0  0  0  0  2  0  0  0  0  0  0
  180.8300  171.4780  135.7290 O   0  0  0  0  0  1  0  0  0  0  0  0
  184.3050  173.2420  137.3900 C   0  0  2  0  0  3  0  0  0  0  0  0
  184.3610  171.7970  136.8640 C   0  0  0  0  0  2  0  0  0  0  0  0
  183.3000  174.1250  136.6250 C   0  0  1  0  0  3  0  0  0  0  0  0
  181.9430  173.4340  136.5000 C   0  0  0  0  0  2  0  0  0  0  0  0
  182.0920  172.0530  135.8730 C   0  0  1  0  0  3  0  0  0  0  0  0
  182.9680  171.1840  136.7650 C   0  0  0  0  0  2  0  0  0  0  0  0
  185.7100  173.8560  137.4320 C   0  0  0  0  0  2  0  0  0  0  0  0
  186.3470  174.0630  136.0510 C   0  0  0  0  0  2  0  0  0  0  0  0
  186.3640  176.5340  135.6100 C   0  0  0  0  0  3  0  0  0  0  0  0
  188.3600  177.8460  135.9120 C   0  0  0  0  0  3  0  0  0  0  0  0
  187.0690  175.3780  135.9560 C   0  0  0  0  0  0  0  0  0  0  0  0
  189.2300  174.3150  136.7340 C   0  0  0  0  0  1  0  0  0  0  0  0
  187.0080  177.7720  135.5720 C   0  0  0  0  0  3  0  0  0  0  0  0
  189.0350  176.7180  136.2690 N   0  0  0  0  0  0  0  0  0  0  0  0
  188.4330  175.4960  136.2910 C   0  0  0  0  0  0  0  0  0  0  0  0
  1  2  2  0  0  0  0
  1  6  1  0  0  0  0
  2  4  1  0  0  0  0
  3  5  1  0  0  0  0
  3  7  1  0  0  0  0
  4  5  2  0  0  0  0
  6  3  2  0  0  0  0
  7  8  1  0  0  0  0
  8 10  1  1  0  0  0
 10  9  1  0  0  0  0
 11  8  1  0  0  0  0
 12 11  1  0  0  0  0
 13 12  1  6  0  0  0
 13 26  1  0  0  0  0
 14 19  1  0  0  0  0
 14 20  1  0  0  0  0
 15 19  2  0  0  0  0
 16 18  1  0  0  0  0
 16 15  1  0  0  0  0
 17 16  1  0  0  0  0
 18 14  2  0  0  0  0
 19 13  1  0  0  0  0
 20 21  1  0  0  0  0
 21 22  1  0  0  0  0
 22 23  1  0  0  0  0
 24 25  1  0  0  0  0
 25 23  1  0  0  0  0
 26 28  1  0  0  0  0
 28 27  1  0  0  0  0
 29  1  1  0  0  0  0
 30 29  1  0  0  0  0
 31 32  1  0  0  0  0
 31 30  1  0  0  0  0
 33 34  1  0  0  0  0
 33 32  1  0  0  0  0
 36 42  1  6  0  0  0
 37 36  1  0  0  0  0
 38 34  1  1  0  0  0
 38 36  1  0  0  0  0
 39 38  1  0  0  0  0
 40 35  1  1  0  0  0
 40 39  1  0  0  0  0
 40 41  1  0  0  0  0
 41 37  1  0  0  0  0
 43 42  1  0  0  0  0
 44 46  1  0  0  0  0
 45 49  2  0  0  0  0
 46 43  1  0  0  0  0
 46 50  2  0  0  0  0
 48 44  2  0  0  0  0
 48 45  1  0  0  0  0
 49 50  1  0  0  0  0
 50 47  1  0  0  0  0
M  END
>  <MODEL>
1

>  <REMARK>
 VINA RESULT:      -6.4      0.000      0.000
  Name = 
  24 active torsions:
  status: ('A' for Active; 'I' for Inactive)
    1  A    between atoms: N_1  and  N_20
    2  A    between atoms: N_1  and  C_41
    3  A    between atoms: C_2  and  N_6
    4  A    between atoms: C_2  and  C_23
    5  A    between atoms: C_2  and  O_49
    6  A    between atoms: C_3  and  C_9
    7  A    between atoms: C_3  and  C_27
    8  A    between atoms: N_6  and  C_32
    9  A    between atoms: N_10  and  C_45
   10  A    between atoms: N_10  and  C_50
   11  A    between atoms: C_11  and  C_37
   12  A    between atoms: C_12  and  C_26
   13  A    between atoms: C_14  and  C_16
   14  A    between atoms: C_14  and  C_32
   15  A    between atoms: C_14  and  C_46
   16  A    between atoms: C_16  and  C_19
   17  A    between atoms: N_20  and  O_21
   18  A    between atoms: C_22  and  O_49
   19  A    between atoms: C_25  and  C_27
   20  A    between atoms: C_26  and  C_41
   21  A    between atoms: C_29  and  C_50
   22  A    between atoms: N_35  and  C_37
   23  A    between atoms: N_35  and  C_42
   24  A    between atoms: C_42  and  C_45
                            x       y       z     vdW  Elec       q    Type
                         _______ _______ _______ _____ _____    ______ ____

>  <TORSDO>
F 24

$$$$
=
 OpenBabel11032421153D

 50 53  0  0  1  0  0  0  0  0999 V2000
  189.8510  177.4360  145.2170 C   0  0  0  0  0  0  0  0  0  0  0  0
  191.0370  176.8890  145.7290 C   0  0  0  0  0  3  0  0  0  0  0  0
  190.2940  176.3860  143.0740 C   0  0  0  0  0  0  0  0  0  0  0  0
  191.8390  176.0780  144.9230 C   0  0  0  0  0  3  0  0  0  0  0  0
  191.4700  175.8230  143.6000 C   0  0  0  0  0  3  0  0  0  0  0  0
  189.4900  177.1890  143.8900 C   0  0  0  0  0  3  0  0  0  0  0  0
  189.8970  176.1700  141.7490 O   0  0  0  0  0  0  0  0  0  0  0  0
  190.4870  176.8080  140.6130 C   0  0  2  0  0  3  0  0  0  0  0  0
  188.3160  177.9090  140.5280 N   0  0  0  0  0  1  0  0  0  0  0  0
  189.7250  178.0690  140.2230 C   0  0  0  0  0  2  0  0  0  0  0  0
  190.5640  175.8830  139.4790 N   0  0  0  0  0  2  0  0  0  0  0  0
  191.4700  176.4160  138.4590 C   0  0  0  0  0  2  0  0  0  0  0  0
  190.8740  176.3000  137.0610 C   0  0  1  0  0  3  0  0  0  0  0  0
  192.3950  174.3940  136.1890 C   0  0  0  0  0  0  0  0  0  0  0  0
  190.2040  174.0440  135.9910 C   0  0  0  0  0  3  0  0  0  0  0  0
  190.8550  172.9910  135.4730 N   0  0  0  0  0  0  0  0  0  0  0  0
  190.2210  171.8220  134.9000 C   0  0  0  0  0  1  0  0  0  0  0  0
  192.1880  173.1700  135.5870 C   0  0  0  0  0  3  0  0  0  0  0  0
  191.1500  174.9530  136.4410 C   0  0  0  0  0  0  0  0  0  0  0  0
  193.7250  175.0080  136.4830 C   0  0  0  0  0  2  0  0  0  0  0  0
  194.0870  176.0360  135.4270 C   0  0  0  0  0  2  0  0  0  0  0  0
  195.2370  176.8000  135.8770 N   0  0  0  0  0  2  0  0  0  0  0  0
  196.1870  175.8750  136.3340 N   0  0  0  0  0  2  0  0  0  0  0  0
  198.0940  175.1270  135.6130 C   0  0  0  0  0  1  0  0  0  0  0  0
  197.3940  176.3040  135.8930 O   0  0  0  0  0  0  0  0  0  0  0  0
  189.3860  176.6500  137.0660 C   0  0  0  0  0  2  0  0  0  0  0  0
  188.9540  179.0850  137.0640 C   0  0  0  0  0  1  0  0  0  0  0  0
  189.1280  177.8630  136.1890 C   0  0  0  0  0  2  0  0  0  0  0  0
  188.9740  178.2920  146.0710 C   0  0  0  0  0  2  0  0  0  0  0  0
  187.7770  177.5600  146.4590 N   0  0  0  0  0  2  0  0  0  0  0  0
  186.6310  178.2520  145.8810 C   0  0  0  0  0  2  0  0  0  0  0  0
  185.8530  177.3030  144.9780 C   0  0  0  0  0  2  0  0  0  0  0  0
  185.6660  177.8890  143.6530 N   0  0  0  0  0  2  0  0  0  0  0  0
  185.1580  179.2460  143.8300 C   0  0  0  0  0  2  0  0  0  0  0  0
  180.3470  178.7680  144.4200 O   0  0  0  0  0  1  0  0  0  0  0  0
  183.7250  178.5640  141.8720 C   0  0  2  0  0  3  0  0  0  0  0  0
  182.3110  178.4960  141.2700 C   0  0  0  0  0  2  0  0  0  0  0  0
  183.7950  179.4160  143.1540 C   0  0  1  0  0  3  0  0  0  0  0  0
  182.6960  179.0210  144.1380 C   0  0  0  0  0  2  0  0  0  0  0  0
  181.3250  179.0840  143.4770 C   0  0  1  0  0  3  0  0  0  0  0  0
  181.2760  178.1000  142.3170 C   0  0  0  0  0  2  0  0  0  0  0  0
  184.7420  179.0140  140.8140 C   0  0  0  0  0  2  0  0  0  0  0  0
  184.1100  179.4950  139.5010 C   0  0  0  0  0  2  0  0  0  0  0  0
  185.5400  177.9070  138.1850 C   0  0  0  0  0  3  0  0  0  0  0  0
  184.6090  176.5450  136.4310 C   0  0  0  0  0  3  0  0  0  0  0  0
  184.2910  178.4980  138.3910 C   0  0  0  0  0  0  0  0  0  0  0  0
  181.8300  178.6140  137.8080 C   0  0  0  0  0  1  0  0  0  0  0  0
  185.7100  176.9370  137.1940 C   0  0  0  0  0  3  0  0  0  0  0  0
  183.3900  177.1100  136.6520 N   0  0  0  0  0  0  0  0  0  0  0  0
  183.2060  178.0740  137.5970 C   0  0  0  0  0  0  0  0  0  0  0  0
  1  2  1  0  0  0  0
  1 29  1  0  0  0  0
  3  5  2  0  0  0  0
  3  6  1  0  0  0  0
  4  2  2  0  0  0  0
  5  4  1  0  0  0  0
  6  1  2  0  0  0  0
  7  3  1  0  0  0  0
  8 10  1  6  0  0  0
  8  7  1  0  0  0  0
 10  9  1  0  0  0  0
 11  8  1  0  0  0  0
 12 11  1  0  0  0  0
 13 26  1  1  0  0  0
 13 12  1  0  0  0  0
 14 19  1  0  0  0  0
 14 20  1  0  0  0  0
 15 19  2  0  0  0  0
 16 18  1  0  0  0  0
 16 15  1  0  0  0  0
 17 16  1  0  0  0  0
 18 14  2  0  0  0  0
 19 13  1  0  0  0  0
 21 22  1  0  0  0  0
 21 20  1  0  0  0  0
 22 23  1  0  0  0  0
 24 25  1  0  0  0  0
 25 23  1  0  0  0  0
 28 27  1  0  0  0  0
 28 26  1  0  0  0  0
 29 30  1  0  0  0  0
 31 30  1  0  0  0  0
 32 31  1  0  0  0  0
 33 34  1  0  0  0  0
 33 32  1  0  0  0  0
 36 42  1  6  0  0  0
 36 38  1  0  0  0  0
 37 36  1  0  0  0  0
 37 41  1  0  0  0  0
 38 34  1  1  0  0  0
 38 39  1  0  0  0  0
 40 39  1  0  0  0  0
 40 35  1  1  0  0  0
 41 40  1  0  0  0  0
 43 42  1  0  0  0  0
 44 46  1  0  0  0  0
 45 49  2  0  0  0  0
 45 48  1  0  0  0  0
 46 43  1  0  0  0  0
 48 44  2  0  0  0  0
 49 50  1  0  0  0  0
 50 47  1  0  0  0  0
 50 46  2  0  0  0  0
M  END
>  <MODEL>
2

>  <REMARK>
 VINA RESULT:      -6.3      3.229      8.322
  Name = 
  24 active torsions:
  status: ('A' for Active; 'I' for Inactive)
    1  A    between atoms: N_1  and  N_20
    2  A    between atoms: N_1  and  C_41
    3  A    between atoms: C_2  and  N_6
    4  A    between atoms: C_2  and  C_23
    5  A    between atoms: C_2  and  O_49
    6  A    between atoms: C_3  and  C_9
    7  A    between atoms: C_3  and  C_27
    8  A    between atoms: N_6  and  C_32
    9  A    between atoms: N_10  and  C_45
   10  A    between atoms: N_10  and  C_50
   11  A    between atoms: C_11  and  C_37
   12  A    between atoms: C_12  and  C_26
   13  A    between atoms: C_14  and  C_16
   14  A    between atoms: C_14  and  C_32
   15  A    between atoms: C_14  and  C_46
   16  A    between atoms: C_16  and  C_19
   17  A    between atoms: N_20  and  O_21
   18  A    between atoms: C_22  and  O_49
   19  A    between atoms: C_25  and  C_27
   20  A    between atoms: C_26  and  C_41
   21  A    between atoms: C_29  and  C_50
   22  A    between atoms: N_35  and  C_37
   23  A    between atoms: N_35  and  C_42
   24  A    between atoms: C_42  and  C_45
                            x       y       z     vdW  Elec       q    Type
                         _______ _______ _______ _____ _____    ______ ____

>  <TORSDO>
F 24

$$$$
=
 OpenBabel11032421153D

 50 53  0  0  1  0  0  0  0  0999 V2000
  189.7220  176.9310  139.0360 C   0  0  0  0  0  0  0  0  0  0  0  0
  190.6010  176.8350  137.9470 C   0  0  0  0  0  3  0  0  0  0  0  0
  187.8660  177.2580  137.5050 C   0  0  0  0  0  0  0  0  0  0  0  0
  190.1130  176.9310  136.6420 C   0  0  0  0  0  3  0  0  0  0  0  0
  188.7510  177.1390  136.4180 C   0  0  0  0  0  3  0  0  0  0  0  0
  188.3600  177.1500  138.8090 C   0  0  0  0  0  3  0  0  0  0  0  0
  186.4960  177.4830  137.3250 O   0  0  0  0  0  0  0  0  0  0  0  0
  185.5150  176.4510  137.2070 C   0  0  2  0  0  3  0  0  0  0  0  0
  185.1440  174.0600  136.9260 N   0  0  0  0  0  1  0  0  0  0  0  0
  186.1580  175.0970  136.9300 C   0  0  0  0  0  2  0  0  0  0  0  0
  184.5380  176.7780  136.1640 N   0  0  0  0  0  2  0  0  0  0  0  0
  183.4140  177.5150  136.7460 C   0  0  0  0  0  2  0  0  0  0  0  0
  182.1950  176.6220  136.9390 C   0  0  1  0  0  3  0  0  0  0  0  0
  180.8150  178.5100  138.0490 C   0  0  0  0  0  0  0  0  0  0  0  0
  180.6120  176.4960  138.9800 C   0  0  0  0  0  3  0  0  0  0  0  0
  179.8680  177.3680  139.6770 N   0  0  0  0  0  0  0  0  0  0  0  0
  179.0590  177.0330  140.8310 C   0  0  0  0  0  1  0  0  0  0  0  0
  179.9630  178.5980  139.1310 C   0  0  0  0  0  3  0  0  0  0  0  0
  181.2320  177.1900  137.9520 C   0  0  0  0  0  0  0  0  0  0  0  0
  181.2280  179.6450  137.1700 C   0  0  0  0  0  2  0  0  0  0  0  0
  181.3850  180.9210  137.9760 C   0  0  0  0  0  2  0  0  0  0  0  0
  180.3330  181.8520  137.6080 N   0  0  0  0  0  2  0  0  0  0  0  0
  180.6140  182.2890  136.3050 N   0  0  0  0  0  2  0  0  0  0  0  0
  180.7670  184.1940  135.2750 C   0  0  0  0  0  1  0  0  0  0  0  0
  181.1890  183.5100  136.4170 O   0  0  0  0  0  0  0  0  0  0  0  0
  181.5230  176.3100  135.6010 C   0  0  0  0  0  2  0  0  0  0  0  0
  181.7120  173.8460  135.5330 C   0  0  0  0  0  1  0  0  0  0  0  0
  180.7520  175.0040  135.6900 C   0  0  0  0  0  2  0  0  0  0  0  0
  190.2250  176.8140  140.4370 C   0  0  0  0  0  2  0  0  0  0  0  0
  191.4200  177.6250  140.6150 N   0  0  0  0  0  2  0  0  0  0  0  0
  191.8810  177.4340  141.9850 C   0  0  0  0  0  2  0  0  0  0  0  0
  190.9480  176.4810  142.7200 C   0  0  0  0  0  2  0  0  0  0  0  0
  190.8080  176.8720  144.1210 N   0  0  0  0  0  2  0  0  0  0  0  0
  189.4680  176.4930  144.5600 C   0  0  0  0  0  2  0  0  0  0  0  0
  189.4240  178.2120  149.1170 O   0  0  0  0  0  1  0  0  0  0  0  0
  187.3360  177.4410  145.5130 C   0  0  2  0  0  3  0  0  0  0  0  0
  186.6840  178.3130  146.5990 C   0  0  0  0  0  2  0  0  0  0  0  0
  188.8720  177.5550  145.4870 C   0  0  1  0  0  3  0  0  0  0  0  0
  189.4600  177.3850  146.8860 C   0  0  0  0  0  2  0  0  0  0  0  0
  188.8250  178.3640  147.8660 C   0  0  1  0  0  3  0  0  0  0  0  0
  187.3310  178.0860  147.9610 C   0  0  0  0  0  2  0  0  0  0  0  0
  186.7040  177.7230  144.1430 C   0  0  0  0  0  2  0  0  0  0  0  0
  185.4720  178.6350  144.1950 C   0  0  0  0  0  2  0  0  0  0  0  0
  185.5630  178.7330  141.6890 C   0  0  0  0  0  3  0  0  0  0  0  0
  183.5520  178.8070  140.3650 C   0  0  0  0  0  3  0  0  0  0  0  0
  184.7960  178.7460  142.8570 C   0  0  0  0  0  0  0  0  0  0  0  0
  182.5110  178.7250  143.9440 C   0  0  0  0  0  1  0  0  0  0  0  0
  184.9460  178.7780  140.4370 C   0  0  0  0  0  3  0  0  0  0  0  0
  182.8120  178.7980  141.5080 N   0  0  0  0  0  0  0  0  0  0  0  0
  183.3920  178.7770  142.7400 C   0  0  0  0  0  0  0  0  0  0  0  0
  1 29  1  0  0  0  0
  2  1  2  0  0  0  0
  3  6  2  0  0  0  0
  4  2  1  0  0  0  0
  5  4  2  0  0  0  0
  5  3  1  0  0  0  0
  6  1  1  0  0  0  0
  7  3  1  0  0  0  0
  8 10  1  6  0  0  0
  8  7  1  0  0  0  0
  9 10  1  0  0  0  0
 11 12  1  0  0  0  0
 11  8  1  0  0  0  0
 12 13  1  0  0  0  0
 13 26  1  6  0  0  0
 13 19  1  0  0  0  0
 14 18  2  0  0  0  0
 15 16  1  0  0  0  0
 16 17  1  0  0  0  0
 18 16  1  0  0  0  0
 19 14  1  0  0  0  0
 19 15  2  0  0  0  0
 20 21  1  0  0  0  0
 20 14  1  0  0  0  0
 22 21  1  0  0  0  0
 23 25  1  0  0  0  0
 23 22  1  0  0  0  0
 24 25  1  0  0  0  0
 26 28  1  0  0  0  0
 27 28  1  0  0  0  0
 29 30  1  0  0  0  0
 30 31  1  0  0  0  0
 31 32  1  0  0  0  0
 32 33  1  0  0  0  0
 33 34  1  0  0  0  0
 36 42  1  6  0  0  0
 36 37  1  0  0  0  0
 37 41  1  0  0  0  0
 38 34  1  6  0  0  0
 38 36  1  0  0  0  0
 38 39  1  0  0  0  0
 39 40  1  0  0  0  0
 40 41  1  0  0  0  0
 40 35  1  1  0  0  0
 42 43  1  0  0  0  0
 44 46  1  0  0  0  0
 45 48  1  0  0  0  0
 45 49  2  0  0  0  0
 46 43  1  0  0  0  0
 48 44  2  0  0  0  0
 49 50  1  0  0  0  0
 50 46  2  0  0  0  0
 50 47  1  0  0  0  0
M  END
>  <MODEL>
3

>  <REMARK>
 VINA RESULT:      -6.3      2.926     10.727
  Name = 
  24 active torsions:
  status: ('A' for Active; 'I' for Inactive)
    1  A    between atoms: N_1  and  N_20
    2  A    between atoms: N_1  and  C_41
    3  A    between atoms: C_2  and  N_6
    4  A    between atoms: C_2  and  C_23
    5  A    between atoms: C_2  and  O_49
    6  A    between atoms: C_3  and  C_9
    7  A    between atoms: C_3  and  C_27
    8  A    between atoms: N_6  and  C_32
    9  A    between atoms: N_10  and  C_45
   10  A    between atoms: N_10  and  C_50
   11  A    between atoms: C_11  and  C_37
   12  A    between atoms: C_12  and  C_26
   13  A    between atoms: C_14  and  C_16
   14  A    between atoms: C_14  and  C_32
   15  A    between atoms: C_14  and  C_46
   16  A    between atoms: C_16  and  C_19
   17  A    between atoms: N_20  and  O_21
   18  A    between atoms: C_22  and  O_49
   19  A    between atoms: C_25  and  C_27
   20  A    between atoms: C_26  and  C_41
   21  A    between atoms: C_29  and  C_50
   22  A    between atoms: N_35  and  C_37
   23  A    between atoms: N_35  and  C_42
   24  A    between atoms: C_42  and  C_45
                            x       y       z     vdW  Elec       q    Type
                         _______ _______ _______ _____ _____    ______ ____

>  <TORSDO>
F 24

$$$$
=
 OpenBabel11032421153D

 50 53  0  0  1  0  0  0  0  0999 V2000
  188.7200  177.8190  138.4580 C   0  0  0  0  0  0  0  0  0  0  0  0
  189.3490  177.9880  137.2160 C   0  0  0  0  0  3  0  0  0  0  0  0
  186.5520  177.8830  137.3670 C   0  0  0  0  0  0  0  0  0  0  0  0
  188.5840  178.0840  136.0510 C   0  0  0  0  0  3  0  0  0  0  0  0
  187.1910  178.0300  136.1220 C   0  0  0  0  0  3  0  0  0  0  0  0
  187.3250  177.7760  138.5280 C   0  0  0  0  0  3  0  0  0  0  0  0
  185.1580  177.8400  137.4840 O   0  0  0  0  0  0  0  0  0  0  0  0
  184.3450  176.7350  137.0810 C   0  0  2  0  0  3  0  0  0  0  0  0
  184.4580  174.3720  137.6590 N   0  0  0  0  0  1  0  0  0  0  0  0
  185.1570  175.4500  136.9840 C   0  0  0  0  0  2  0  0  0  0  0  0
  183.6780  177.0190  135.8060 N   0  0  0  0  0  2  0  0  0  0  0  0
  182.3740  177.6390  136.0520 C   0  0  0  0  0  2  0  0  0  0  0  0
  181.4740  176.7410  136.8930 C   0  0  1  0  0  3  0  0  0  0  0  0
  180.2040  178.6720  138.0600 C   0  0  0  0  0  0  0  0  0  0  0  0
  180.9880  177.0820  139.4090 C   0  0  0  0  0  3  0  0  0  0  0  0
  180.3860  178.0210  140.1560 N   0  0  0  0  0  0  0  0  0  0  0  0
  180.2610  177.9800  141.5980 C   0  0  0  0  0  1  0  0  0  0  0  0
  179.8910  178.9950  139.3640 C   0  0  0  0  0  3  0  0  0  0  0  0
  180.9000  177.4720  138.0810 C   0  0  0  0  0  0  0  0  0  0  0  0
  179.8730  179.4920  136.8550 C   0  0  0  0  0  2  0  0  0  0  0  0
  179.5910  180.9310  137.2450 C   0  0  0  0  0  2  0  0  0  0  0  0
  180.8090  181.7110  137.1110 N   0  0  0  0  0  2  0  0  0  0  0  0
  180.4310  183.0610  137.1160 N   0  0  0  0  0  2  0  0  0  0  0  0
  181.0450  184.8770  136.0960 C   0  0  0  0  0  1  0  0  0  0  0  0
  180.6910  183.5440  135.8770 O   0  0  0  0  0  0  0  0  0  0  0  0
  180.3960  176.0820  136.0320 C   0  0  0  0  0  2  0  0  0  0  0  0
  180.4220  173.6190  136.2540 C   0  0  0  0  0  1  0  0  0  0  0  0
  179.7900  174.8950  136.7640 C   0  0  0  0  0  2  0  0  0  0  0  0
  189.5230  177.6980  139.7120 C   0  0  0  0  0  2  0  0  0  0  0  0
  190.8730  177.2500  139.4050 N   0  0  0  0  0  2  0  0  0  0  0  0
  191.6320  177.2550  140.6500 C   0  0  0  0  0  2  0  0  0  0  0  0
  190.7700  176.7200  141.7870 C   0  0  0  0  0  2  0  0  0  0  0  0
  191.3240  177.1050  143.0820 N   0  0  0  0  0  2  0  0  0  0  0  0
  190.4090  178.0640  143.6940 C   0  0  0  0  0  2  0  0  0  0  0  0
  192.7020  176.1380  147.5350 O   0  0  0  0  0  1  0  0  0  0  0  0
  189.0630  177.1870  145.6360 C   0  0  2  0  0  3  0  0  0  0  0  0
  189.0570  176.7650  147.1160 C   0  0  0  0  0  2  0  0  0  0  0  0
  190.3670  177.8910  145.2150 C   0  0  1  0  0  3  0  0  0  0  0  0
  191.5920  177.0960  145.6610 C   0  0  0  0  0  2  0  0  0  0  0  0
  191.5450  176.8180  147.1590 C   0  0  1  0  0  3  0  0  0  0  0  0
  190.3140  175.9820  147.4790 C   0  0  0  0  0  2  0  0  0  0  0  0
  187.8160  178.0170  145.3060 C   0  0  0  0  0  2  0  0  0  0  0  0
  186.7010  177.2260  144.6090 C   0  0  0  0  0  2  0  0  0  0  0  0
  184.9800  178.2600  143.1040 C   0  0  0  0  0  3  0  0  0  0  0  0
  183.1050  179.4780  143.9980 C   0  0  0  0  0  3  0  0  0  0  0  0
  185.4680  178.0580  144.3980 C   0  0  0  0  0  0  0  0  0  0  0  0
  185.1590  178.3400  146.8940 C   0  0  0  0  0  1  0  0  0  0  0  0
  183.8040  178.9840  142.8950 C   0  0  0  0  0  3  0  0  0  0  0  0
  183.5750  179.2590  145.2570 N   0  0  0  0  0  0  0  0  0  0  0  0
  184.7320  178.5760  145.4830 C   0  0  0  0  0  0  0  0  0  0  0  0
  1  6  1  0  0  0  0
  1 29  1  0  0  0  0
  2  1  2  0  0  0  0
  3  7  1  0  0  0  0
  3  6  2  0  0  0  0
  4  5  2  0  0  0  0
  4  2  1  0  0  0  0
  5  3  1  0  0  0  0
  8 10  1  6  0  0  0
  8  7  1  0  0  0  0
 10  9  1  0  0  0  0
 11 12  1  0  0  0  0
 11  8  1  0  0  0  0
 12 13  1  0  0  0  0
 13 26  1  6  0  0  0
 13 19  1  0  0  0  0
 14 19  1  0  0  0  0
 14 18  2  0  0  0  0
 15 16  1  0  0  0  0
 16 17  1  0  0  0  0
 18 16  1  0  0  0  0
 19 15  2  0  0  0  0
 20 21  1  0  0  0  0
 20 14  1  0  0  0  0
 22 23  1  0  0  0  0
 22 21  1  0  0  0  0
 25 24  1  0  0  0  0
 25 23  1  0  0  0  0
 26 28  1  0  0  0  0
 27 28  1  0  0  0  0
 30 29  1  0  0  0  0
 30 31  1  0  0  0  0
 31 32  1  0  0  0  0
 32 33  1  0  0  0  0
 33 34  1  0  0  0  0
 36 42  1  1  0  0  0
 36 37  1  0  0  0  0
 37 41  1  0  0  0  0
 38 34  1  6  0  0  0
 38 36  1  0  0  0  0
 38 39  1  0  0  0  0
 39 40  1  0  0  0  0
 40 41  1  0  0  0  0
 40 35  1  6  0  0  0
 43 42  1  0  0  0  0
 44 46  1  0  0  0  0
 45 49  2  0  0  0  0
 46 43  1  0  0  0  0
 46 50  2  0  0  0  0
 48 44  2  0  0  0  0
 48 45  1  0  0  0  0
 49 50  1  0  0  0  0
 50 47  1  0  0  0  0
M  END
>  <MODEL>
4

>  <REMARK>
 VINA RESULT:      -6.3      2.948     10.944
  Name = 
  24 active torsions:
  status: ('A' for Active; 'I' for Inactive)
    1  A    between atoms: N_1  and  N_20
    2  A    between atoms: N_1  and  C_41
    3  A    between atoms: C_2  and  N_6
    4  A    between atoms: C_2  and  C_23
    5  A    between atoms: C_2  and  O_49
    6  A    between atoms: C_3  and  C_9
    7  A    between atoms: C_3  and  C_27
    8  A    between atoms: N_6  and  C_32
    9  A    between atoms: N_10  and  C_45
   10  A    between atoms: N_10  and  C_50
   11  A    between atoms: C_11  and  C_37
   12  A    between atoms: C_12  and  C_26
   13  A    between atoms: C_14  and  C_16
   14  A    between atoms: C_14  and  C_32
   15  A    between atoms: C_14  and  C_46
   16  A    between atoms: C_16  and  C_19
   17  A    between atoms: N_20  and  O_21
   18  A    between atoms: C_22  and  O_49
   19  A    between atoms: C_25  and  C_27
   20  A    between atoms: C_26  and  C_41
   21  A    between atoms: C_29  and  C_50
   22  A    between atoms: N_35  and  C_37
   23  A    between atoms: N_35  and  C_42
   24  A    between atoms: C_42  and  C_45
                            x       y       z     vdW  Elec       q    Type
                         _______ _______ _______ _____ _____    ______ ____

>  <TORSDO>
F 24

$$$$
=
 OpenBabel11032421153D

 50 53  0  0  1  0  0  0  0  0999 V2000
  180.5230  178.0730  141.3890 C   0  0  0  0  0  0  0  0  0  0  0  0
  180.4030  178.6900  142.6430 C   0  0  0  0  0  3  0  0  0  0  0  0
  182.9380  178.2760  141.5230 C   0  0  0  0  0  0  0  0  0  0  0  0
  181.5460  179.0810  143.3430 C   0  0  0  0  0  3  0  0  0  0  0  0
  182.8110  178.8740  142.7890 C   0  0  0  0  0  3  0  0  0  0  0  0
  181.7890  177.8770  140.8310 C   0  0  0  0  0  3  0  0  0  0  0  0
  184.1860  178.0660  140.9240 O   0  0  0  0  0  0  0  0  0  0  0  0
  184.9990  179.1000  140.3640 C   0  0  2  0  0  3  0  0  0  0  0  0
  183.5450  180.4860  138.9860 N   0  0  0  0  0  1  0  0  0  0  0  0
  184.5610  179.4500  138.9470 C   0  0  0  0  0  2  0  0  0  0  0  0
  186.4140  178.7180  140.3850 N   0  0  0  0  0  2  0  0  0  0  0  0
  186.9090  178.7040  141.7630 C   0  0  0  0  0  2  0  0  0  0  0  0
  187.6020  177.3900  142.0990 C   0  0  1  0  0  3  0  0  0  0  0  0
  190.1490  177.8110  142.3000 C   0  0  0  0  0  0  0  0  0  0  0  0
  189.4710  176.9100  140.3780 C   0  0  0  0  0  3  0  0  0  0  0  0
  190.7990  177.0940  140.3210 N   0  0  0  0  0  0  0  0  0  0  0  0
  191.6380  176.7430  139.1940 C   0  0  0  0  0  1  0  0  0  0  0  0
  191.2420  177.6310  141.4770 C   0  0  0  0  0  3  0  0  0  0  0  0
  189.0300  177.3640  141.6120 C   0  0  0  0  0  0  0  0  0  0  0  0
  190.1770  178.4080  143.6690 C   0  0  0  0  0  2  0  0  0  0  0  0
  191.4430  178.0100  144.4040 C   0  0  0  0  0  2  0  0  0  0  0  0
  191.1670  176.8570  145.2430 N   0  0  0  0  0  2  0  0  0  0  0  0
  190.3000  177.2890  146.2560 N   0  0  0  0  0  2  0  0  0  0  0  0
  191.7590  176.3340  147.5500 C   0  0  0  0  0  1  0  0  0  0  0  0
  190.3930  176.3860  147.2620 O   0  0  0  0  0  0  0  0  0  0  0  0
  187.4850  177.0710  143.5900 C   0  0  0  0  0  2  0  0  0  0  0  0
  186.4160  177.8100  145.6930 C   0  0  0  0  0  1  0  0  0  0  0  0
  186.2810  177.7810  144.1870 C   0  0  0  0  0  2  0  0  0  0  0  0
  179.3110  177.6330  140.6340 C   0  0  0  0  0  2  0  0  0  0  0  0
  179.2560  176.1800  140.5690 N   0  0  0  0  0  2  0  0  0  0  0  0
  179.2060  175.8050  139.1610 C   0  0  0  0  0  2  0  0  0  0  0  0
  179.7930  174.4120  138.9720 C   0  0  0  0  0  2  0  0  0  0  0  0
  180.3270  174.2540  137.6210 N   0  0  0  0  0  2  0  0  0  0  0  0
  181.7730  174.4470  137.6860 C   0  0  0  0  0  2  0  0  0  0  0  0
  181.4810  170.1930  135.3320 O   0  0  0  0  0  1  0  0  0  0  0  0
  183.8600  173.0840  137.3140 C   0  0  2  0  0  3  0  0  0  0  0  0
  184.5380  171.9520  136.5230 C   0  0  0  0  0  2  0  0  0  0  0  0
  182.4970  173.4990  136.7260 C   0  0  1  0  0  3  0  0  0  0  0  0
  181.6150  172.2800  136.4660 C   0  0  0  0  0  2  0  0  0  0  0  0
  182.3360  171.2640  135.5890 C   0  0  1  0  0  3  0  0  0  0  0  0
  183.5890  170.7780  136.3030 C   0  0  0  0  0  2  0  0  0  0  0  0
  184.8150  174.2740  137.4780 C   0  0  0  0  0  2  0  0  0  0  0  0
  185.2470  174.9200  136.1550 C   0  0  0  0  0  2  0  0  0  0  0  0
  186.1670  177.2390  136.4260 C   0  0  0  0  0  3  0  0  0  0  0  0
  188.5110  177.6170  136.8260 C   0  0  0  0  0  3  0  0  0  0  0  0
  186.4010  175.8640  136.3400 C   0  0  0  0  0  0  0  0  0  0  0  0
  188.0300  173.9340  136.5050 C   0  0  0  0  0  1  0  0  0  0  0  0
  187.2220  178.1250  136.6550 C   0  0  0  0  0  3  0  0  0  0  0  0
  188.7280  176.2750  136.7620 N   0  0  0  0  0  0  0  0  0  0  0  0
  187.7180  175.3940  136.5170 C   0  0  0  0  0  0  0  0  0  0  0  0
  1  2  1  0  0  0  0
  2  4  2  0  0  0  0
  3  5  2  0  0  0  0
  5  4  1  0  0  0  0
  6  1  2  0  0  0  0
  6  3  1  0  0  0  0
  7  3  1  0  0  0  0
  8 10  1  6  0  0  0
  8 11  1  0  0  0  0
  8  7  1  0  0  0  0
 10  9  1  0  0  0  0
 11 12  1  0  0  0  0
 13 12  1  1  0  0  0
 13 26  1  0  0  0  0
 14 20  1  0  0  0  0
 15 19  2  0  0  0  0
 16 15  1  0  0  0  0
 16 18  1  0  0  0  0
 17 16  1  0  0  0  0
 18 14  2  0  0  0  0
 19 13  1  0  0  0  0
 19 14  1  0  0  0  0
 20 21  1  0  0  0  0
 21 22  1  0  0  0  0
 22 23  1  0  0  0  0
 23 25  1  0  0  0  0
 25 24  1  0  0  0  0
 26 28  1  0  0  0  0
 28 27  1  0  0  0  0
 29  1  1  0  0  0  0
 30 29  1  0  0  0  0
 31 30  1  0  0  0  0
 32 31  1  0  0  0  0
 33 34  1  0  0  0  0
 33 32  1  0  0  0  0
 36 42  1  6  0  0  0
 37 36  1  0  0  0  0
 38 36  1  0  0  0  0
 38 34  1  1  0  0  0
 39 38  1  0  0  0  0
 40 35  1  1  0  0  0
 40 41  1  0  0  0  0
 40 39  1  0  0  0  0
 41 37  1  0  0  0  0
 43 46  1  0  0  0  0
 43 42  1  0  0  0  0
 44 48  1  0  0  0  0
 46 44  2  0  0  0  0
 46 50  1  0  0  0  0
 47 50  1  0  0  0  0
 48 45  2  0  0  0  0
 49 45  1  0  0  0  0
 50 49  2  0  0  0  0
M  END
>  <MODEL>
5

>  <REMARK>
 VINA RESULT:      -6.3      1.877      2.959
  Name = 
  24 active torsions:
  status: ('A' for Active; 'I' for Inactive)
    1  A    between atoms: N_1  and  N_20
    2  A    between atoms: N_1  and  C_41
    3  A    between atoms: C_2  and  N_6
    4  A    between atoms: C_2  and  C_23
    5  A    between atoms: C_2  and  O_49
    6  A    between atoms: C_3  and  C_9
    7  A    between atoms: C_3  and  C_27
    8  A    between atoms: N_6  and  C_32
    9  A    between atoms: N_10  and  C_45
   10  A    between atoms: N_10  and  C_50
   11  A    between atoms: C_11  and  C_37
   12  A    between atoms: C_12  and  C_26
   13  A    between atoms: C_14  and  C_16
   14  A    between atoms: C_14  and  C_32
   15  A    between atoms: C_14  and  C_46
   16  A    between atoms: C_16  and  C_19
   17  A    between atoms: N_20  and  O_21
   18  A    between atoms: C_22  and  O_49
   19  A    between atoms: C_25  and  C_27
   20  A    between atoms: C_26  and  C_41
   21  A    between atoms: C_29  and  C_50
   22  A    between atoms: N_35  and  C_37
   23  A    between atoms: N_35  and  C_42
   24  A    between atoms: C_42  and  C_45
                            x       y       z     vdW  Elec       q    Type
                         _______ _______ _______ _____ _____    ______ ____

>  <TORSDO>
F 24

$$$$
=
 OpenBabel11032421153D

 50 53  0  0  1  0  0  0  0  0999 V2000
  183.4840  178.7340  143.3630 C   0  0  0  0  0  0  0  0  0  0  0  0
  182.1430  179.0310  143.6480 C   0  0  0  0  0  3  0  0  0  0  0  0
  182.8750  178.1930  141.0760 C   0  0  0  0  0  0  0  0  0  0  0  0
  181.1750  178.9290  142.6460 C   0  0  0  0  0  3  0  0  0  0  0  0
  181.5360  178.5140  141.3630 C   0  0  0  0  0  3  0  0  0  0  0  0
  183.8420  178.3090  142.0810 C   0  0  0  0  0  3  0  0  0  0  0  0
  183.2770  177.7570  139.8070 O   0  0  0  0  0  0  0  0  0  0  0  0
  183.3190  178.5860  138.6430 C   0  0  2  0  0  3  0  0  0  0  0  0
  182.3540  180.8180  138.5100 N   0  0  0  0  0  1  0  0  0  0  0  0
  183.4830  180.0560  139.0090 C   0  0  0  0  0  2  0  0  0  0  0  0
  182.1200  178.3910  137.8230 N   0  0  0  0  0  2  0  0  0  0  0  0
  182.3730  177.3710  136.8020 C   0  0  0  0  0  2  0  0  0  0  0  0
  181.0830  176.7010  136.3450 C   0  0  1  0  0  3  0  0  0  0  0  0
  180.8220  174.2480  137.1310 C   0  0  0  0  0  0  0  0  0  0  0  0
  179.9650  175.7900  138.4910 C   0  0  0  0  0  3  0  0  0  0  0  0
  179.7280  174.5770  139.0140 N   0  0  0  0  0  0  0  0  0  0  0  0
  179.0410  174.3320  140.2650 C   0  0  0  0  0  1  0  0  0  0  0  0
  180.2440  173.6200  138.2150 C   0  0  0  0  0  3  0  0  0  0  0  0
  180.6450  175.6140  137.2950 C   0  0  0  0  0  0  0  0  0  0  0  0
  181.4870  173.5650  135.9800 C   0  0  0  0  0  2  0  0  0  0  0  0
  182.6400  172.7020  136.4600 C   0  0  0  0  0  2  0  0  0  0  0  0
  183.8950  173.3240  136.0770 N   0  0  0  0  0  2  0  0  0  0  0  0
  184.8850  172.7920  136.9140 N   0  0  0  0  0  2  0  0  0  0  0  0
  187.0330  172.6290  137.1890 C   0  0  0  0  0  1  0  0  0  0  0  0
  186.0480  172.8330  136.2200 O   0  0  0  0  0  0  0  0  0  0  0  0
  179.9860  177.7340  136.0890 C   0  0  0  0  0  2  0  0  0  0  0  0
  180.5010  179.8020  134.8340 C   0  0  0  0  0  1  0  0  0  0  0  0
  180.1430  178.3380  134.7040 C   0  0  0  0  0  2  0  0  0  0  0  0
  184.5340  178.8540  144.4180 C   0  0  0  0  0  2  0  0  0  0  0  0
  183.9200  179.0370  145.7240 N   0  0  0  0  0  2  0  0  0  0  0  0
  184.9190  178.7000  146.7310 C   0  0  0  0  0  2  0  0  0  0  0  0
  185.9580  177.7570  146.1380 C   0  0  0  0  0  2  0  0  0  0  0  0
  187.0580  177.5430  147.0760 N   0  0  0  0  0  2  0  0  0  0  0  0
  188.2600  178.1400  146.5000 C   0  0  0  0  0  2  0  0  0  0  0  0
  192.1470  175.6450  148.0450 O   0  0  0  0  0  1  0  0  0  0  0  0
  190.0480  177.4750  144.8530 C   0  0  2  0  0  3  0  0  0  0  0  0
  191.2500  176.5630  144.5510 C   0  0  0  0  0  2  0  0  0  0  0  0
  189.2820  177.0630  146.1250 C   0  0  1  0  0  3  0  0  0  0  0  0
  190.2360  176.8490  147.2980 C   0  0  0  0  0  2  0  0  0  0  0  0
  191.3300  175.8520  146.9340 C   0  0  1  0  0  3  0  0  0  0  0  0
  192.1470  176.3980  145.7730 C   0  0  0  0  0  2  0  0  0  0  0  0
  189.1320  177.5840  143.6270 C   0  0  0  0  0  2  0  0  0  0  0  0
  189.8800  177.6980  142.2920 C   0  0  0  0  0  2  0  0  0  0  0  0
  187.6990  178.3910  141.2610 C   0  0  0  0  0  3  0  0  0  0  0  0
  187.2400  178.0080  138.9280 C   0  0  0  0  0  3  0  0  0  0  0  0
  188.9380  177.7590  141.1220 C   0  0  0  0  0  0  0  0  0  0  0  0
  190.6400  176.6430  139.6180 C   0  0  0  0  0  1  0  0  0  0  0  0
  186.8370  178.5060  140.1690 C   0  0  0  0  0  3  0  0  0  0  0  0
  188.4570  177.4120  138.7960 N   0  0  0  0  0  0  0  0  0  0  0  0
  189.3050  177.2680  139.8530 C   0  0  0  0  0  0  0  0  0  0  0  0
  1  2  1  0  0  0  0
  1 29  1  0  0  0  0
  3  5  2  0  0  0  0
  3  6  1  0  0  0  0
  4  2  2  0  0  0  0
  5  4  1  0  0  0  0
  6  1  2  0  0  0  0
  7  3  1  0  0  0  0
  8 10  1  1  0  0  0
  8  7  1  0  0  0  0
  9 10  1  0  0  0  0
 11  8  1  0  0  0  0
 12 11  1  0  0  0  0
 13 26  1  1  0  0  0
 13 12  1  0  0  0  0
 13 19  1  0  0  0  0
 14 19  1  0  0  0  0
 14 18  2  0  0  0  0
 15 16  1  0  0  0  0
 16 17  1  0  0  0  0
 18 16  1  0  0  0  0
 19 15  2  0  0  0  0
 20 21  1  0  0  0  0
 20 14  1  0  0  0  0
 22 21  1  0  0  0  0
 22 23  1  0  0  0  0
 25 23  1  0  0  0  0
 25 24  1  0  0  0  0
 28 27  1  0  0  0  0
 28 26  1  0  0  0  0
 29 30  1  0  0  0  0
 30 31  1  0  0  0  0
 32 31  1  0  0  0  0
 32 33  1  0  0  0  0
 34 33  1  0  0  0  0
 36 42  1  6  0  0  0
 36 38  1  0  0  0  0
 37 36  1  0  0  0  0
 37 41  1  0  0  0  0
 38 34  1  1  0  0  0
 38 39  1  0  0  0  0
 40 39  1  0  0  0  0
 40 35  1  1  0  0  0
 41 40  1  0  0  0  0
 43 42  1  0  0  0  0
 45 48  1  0  0  0  0
 46 44  1  0  0  0  0
 46 43  1  0  0  0  0
 47 50  1  0  0  0  0
 48 44  2  0  0  0  0
 49 45  2  0  0  0  0
 49 50  1  0  0  0  0
 50 46  2  0  0  0  0
M  END
>  <MODEL>
6

>  <REMARK>
 VINA RESULT:      -6.2      2.405      9.558
  Name = 
  24 active torsions:
  status: ('A' for Active; 'I' for Inactive)
    1  A    between atoms: N_1  and  N_20
    2  A    between atoms: N_1  and  C_41
    3  A    between atoms: C_2  and  N_6
    4  A    between atoms: C_2  and  C_23
    5  A    between atoms: C_2  and  O_49
    6  A    between atoms: C_3  and  C_9
    7  A    between atoms: C_3  and  C_27
    8  A    between atoms: N_6  and  C_32
    9  A    between atoms: N_10  and  C_45
   10  A    between atoms: N_10  and  C_50
   11  A    between atoms: C_11  and  C_37
   12  A    between atoms: C_12  and  C_26
   13  A    between atoms: C_14  and  C_16
   14  A    between atoms: C_14  and  C_32
   15  A    between atoms: C_14  and  C_46
   16  A    between atoms: C_16  and  C_19
   17  A    between atoms: N_20  and  O_21
   18  A    between atoms: C_22  and  O_49
   19  A    between atoms: C_25  and  C_27
   20  A    between atoms: C_26  and  C_41
   21  A    between atoms: C_29  and  C_50
   22  A    between atoms: N_35  and  C_37
   23  A    between atoms: N_35  and  C_42
   24  A    between atoms: C_42  and  C_45
                            x       y       z     vdW  Elec       q    Type
                         _______ _______ _______ _____ _____    ______ ____

>  <TORSDO>
F 24

$$$$
=
 OpenBabel11032421153D

 50 53  0  0  1  0  0  0  0  0999 V2000
  184.1930  178.8380  144.0160 C   0  0  0  0  0  0  0  0  0  0  0  0
  182.8930  179.2690  144.3190 C   0  0  0  0  0  3  0  0  0  0  0  0
  183.4440  178.1340  141.8170 C   0  0  0  0  0  0  0  0  0  0  0  0
  181.8770  179.1500  143.3690 C   0  0  0  0  0  3  0  0  0  0  0  0
  182.1490  178.5880  142.1200 C   0  0  0  0  0  3  0  0  0  0  0  0
  184.4610  178.2650  142.7700 C   0  0  0  0  0  3  0  0  0  0  0  0
  183.7550  177.5480  140.5830 O   0  0  0  0  0  0  0  0  0  0  0  0
  182.8420  177.4340  139.4890 C   0  0  2  0  0  3  0  0  0  0  0  0
  181.4160  175.5370  138.9420 N   0  0  0  0  0  1  0  0  0  0  0  0
  181.6050  176.6320  139.8750 C   0  0  0  0  0  2  0  0  0  0  0  0
  183.5000  176.8360  138.3240 N   0  0  0  0  0  2  0  0  0  0  0  0
  184.5860  177.7040  137.8620 C   0  0  0  0  0  2  0  0  0  0  0  0
  184.8940  177.4840  136.3860 C   0  0  1  0  0  3  0  0  0  0  0  0
  186.6740  175.6060  136.4680 C   0  0  0  0  0  0  0  0  0  0  0  0
  187.3790  177.5660  135.6790 C   0  0  0  0  0  3  0  0  0  0  0  0
  188.4130  176.7100  135.6880 N   0  0  0  0  0  0  0  0  0  0  0  0
  189.7540  177.0220  135.2380 C   0  0  0  0  0  1  0  0  0  0  0  0
  188.0140  175.5080  136.1530 C   0  0  0  0  0  3  0  0  0  0  0  0
  186.2690  176.9010  136.1770 C   0  0  0  0  0  0  0  0  0  0  0  0
  185.8320  174.5150  137.0460 C   0  0  0  0  0  2  0  0  0  0  0  0
  185.6290  173.4000  136.0360 C   0  0  0  0  0  2  0  0  0  0  0  0
  184.2780  173.4720  135.5090 N   0  0  0  0  0  2  0  0  0  0  0  0
  183.4490  172.8040  136.4220 N   0  0  0  0  0  2  0  0  0  0  0  0
  182.2430  171.0090  136.2210 C   0  0  0  0  0  1  0  0  0  0  0  0
  182.4120  172.2980  135.7100 O   0  0  0  0  0  0  0  0  0  0  0  0
  183.7980  176.6580  135.7130 C   0  0  0  0  0  2  0  0  0  0  0  0
  181.7640  178.0150  135.3450 C   0  0  0  0  0  1  0  0  0  0  0  0
  183.0390  177.5080  134.7080 C   0  0  0  0  0  2  0  0  0  0  0  0
  185.2960  178.9720  145.0150 C   0  0  0  0  0  2  0  0  0  0  0  0
  184.8160  178.6300  146.3460 N   0  0  0  0  0  2  0  0  0  0  0  0
  185.8560  179.0040  147.2970 C   0  0  0  0  0  2  0  0  0  0  0  0
  186.7760  177.8170  147.5540 C   0  0  0  0  0  2  0  0  0  0  0  0
  188.1430  178.2680  147.8040 N   0  0  0  0  0  2  0  0  0  0  0  0
  188.8350  178.3330  146.5200 C   0  0  0  0  0  2  0  0  0  0  0  0
  192.5680  175.6320  148.0970 O   0  0  0  0  0  1  0  0  0  0  0  0
  190.2640  177.0920  144.8560 C   0  0  2  0  0  3  0  0  0  0  0  0
  191.2860  175.9660  144.6190 C   0  0  0  0  0  2  0  0  0  0  0  0
  189.6490  177.0610  146.2680 C   0  0  1  0  0  3  0  0  0  0  0  0
  190.7320  176.9400  147.3380 C   0  0  0  0  0  2  0  0  0  0  0  0
  191.6280  175.7370  147.0730 C   0  0  1  0  0  3  0  0  0  0  0  0
  192.3260  175.9120  145.7320 C   0  0  0  0  0  2  0  0  0  0  0  0
  189.1980  177.0950  143.7520 C   0  0  0  0  0  2  0  0  0  0  0  0
  189.3280  178.2550  142.7560 C   0  0  0  0  0  2  0  0  0  0  0  0
  190.9370  177.2540  141.1100 C   0  0  0  0  0  3  0  0  0  0  0  0
  190.2650  176.7470  138.8540 C   0  0  0  0  0  3  0  0  0  0  0  0
  189.6670  177.7740  141.3730 C   0  0  0  0  0  0  0  0  0  0  0  0
  187.3090  178.2290  140.5740 C   0  0  0  0  0  1  0  0  0  0  0  0
  191.2480  176.7510  139.8450 C   0  0  0  0  0  3  0  0  0  0  0  0
  189.0240  177.2360  139.1240 N   0  0  0  0  0  0  0  0  0  0  0  0
  188.7040  177.7530  140.3430 C   0  0  0  0  0  0  0  0  0  0  0  0
  1  2  1  0  0  0  0
  1 29  1  0  0  0  0
  3  5  2  0  0  0  0
  3  6  1  0  0  0  0
  4  2  2  0  0  0  0
  5  4  1  0  0  0  0
  6  1  2  0  0  0  0
  7  3  1  0  0  0  0
  8 10  1  1  0  0  0
  8  7  1  0  0  0  0
  9 10  1  0  0  0  0
 11  8  1  0  0  0  0
 12 11  1  0  0  0  0
 13 26  1  1  0  0  0
 13 12  1  0  0  0  0
 14 20  1  0  0  0  0
 15 16  1  0  0  0  0
 15 19  2  0  0  0  0
 16 18  1  0  0  0  0
 17 16  1  0  0  0  0
 18 14  2  0  0  0  0
 19 13  1  0  0  0  0
 19 14  1  0  0  0  0
 21 20  1  0  0  0  0
 22 21  1  0  0  0  0
 22 23  1  0  0  0  0
 25 24  1  0  0  0  0
 25 23  1  0  0  0  0
 28 27  1  0  0  0  0
 28 26  1  0  0  0  0
 29 30  1  0  0  0  0
 30 31  1  0  0  0  0
 31 32  1  0  0  0  0
 32 33  1  0  0  0  0
 34 33  1  0  0  0  0
 36 42  1  6  0  0  0
 36 38  1  0  0  0  0
 37 36  1  0  0  0  0
 37 41  1  0  0  0  0
 38 34  1  1  0  0  0
 38 39  1  0  0  0  0
 40 39  1  0  0  0  0
 40 35  1  1  0  0  0
 41 40  1  0  0  0  0
 43 42  1  0  0  0  0
 44 46  1  0  0  0  0
 45 49  2  0  0  0  0
 45 48  1  0  0  0  0
 46 43  1  0  0  0  0
 48 44  2  0  0  0  0
 49 50  1  0  0  0  0
 50 47  1  0  0  0  0
 50 46  2  0  0  0  0
M  END
>  <MODEL>
7

>  <REMARK>
 VINA RESULT:      -5.9      1.990      9.249
  Name = 
  24 active torsions:
  status: ('A' for Active; 'I' for Inactive)
    1  A    between atoms: N_1  and  N_20
    2  A    between atoms: N_1  and  C_41
    3  A    between atoms: C_2  and  N_6
    4  A    between atoms: C_2  and  C_23
    5  A    between atoms: C_2  and  O_49
    6  A    between atoms: C_3  and  C_9
    7  A    between atoms: C_3  and  C_27
    8  A    between atoms: N_6  and  C_32
    9  A    between atoms: N_10  and  C_45
   10  A    between atoms: N_10  and  C_50
   11  A    between atoms: C_11  and  C_37
   12  A    between atoms: C_12  and  C_26
   13  A    between atoms: C_14  and  C_16
   14  A    between atoms: C_14  and  C_32
   15  A    between atoms: C_14  and  C_46
   16  A    between atoms: C_16  and  C_19
   17  A    between atoms: N_20  and  O_21
   18  A    between atoms: C_22  and  O_49
   19  A    between atoms: C_25  and  C_27
   20  A    between atoms: C_26  and  C_41
   21  A    between atoms: C_29  and  C_50
   22  A    between atoms: N_35  and  C_37
   23  A    between atoms: N_35  and  C_42
   24  A    between atoms: C_42  and  C_45
                            x       y       z     vdW  Elec       q    Type
                         _______ _______ _______ _____ _____    ______ ____

>  <TORSDO>
F 24

$$$$
=
 OpenBabel11032421153D

 50 53  0  0  1  0  0  0  0  0999 V2000
  187.5740  176.8760  137.1200 C   0  0  0  0  0  0  0  0  0  0  0  0
  187.6450  178.2310  136.7610 C   0  0  0  0  0  3  0  0  0  0  0  0
  189.5050  177.1600  138.5640 C   0  0  0  0  0  0  0  0  0  0  0  0
  188.6300  179.0510  137.3170 C   0  0  0  0  0  3  0  0  0  0  0  0
  189.5560  178.5210  138.2170 C   0  0  0  0  0  3  0  0  0  0  0  0
  188.5090  176.3460  138.0130 C   0  0  0  0  0  3  0  0  0  0  0  0
  190.4240  176.5850  139.4500 O   0  0  0  0  0  0  0  0  0  0  0  0
  191.4220  177.3160  140.1670 C   0  0  2  0  0  3  0  0  0  0  0  0
  193.8240  177.5010  140.5260 N   0  0  0  0  0  1  0  0  0  0  0  0
  192.8080  177.1020  139.5700 C   0  0  0  0  0  2  0  0  0  0  0  0
  191.4120  176.9530  141.5870 N   0  0  0  0  0  2  0  0  0  0  0  0
  190.4090  177.7480  142.2990 C   0  0  0  0  0  2  0  0  0  0  0  0
  189.4140  176.8640  143.0410 C   0  0  1  0  0  3  0  0  0  0  0  0
  188.6690  177.1490  145.5040 C   0  0  0  0  0  0  0  0  0  0  0  0
  190.8320  176.7160  145.1980 C   0  0  0  0  0  3  0  0  0  0  0  0
  190.6070  176.8660  146.5120 N   0  0  0  0  0  0  0  0  0  0  0  0
  191.6130  176.7460  147.5460 C   0  0  0  0  0  1  0  0  0  0  0  0
  189.3000  177.1210  146.7310 C   0  0  0  0  0  3  0  0  0  0  0  0
  189.6290  176.9010  144.5340 C   0  0  0  0  0  0  0  0  0  0  0  0
  187.2190  177.4290  145.2750 C   0  0  0  0  0  2  0  0  0  0  0  0
  186.5790  178.0060  146.5240 C   0  0  0  0  0  2  0  0  0  0  0  0
  185.7600  179.1480  146.1590 N   0  0  0  0  0  2  0  0  0  0  0  0
  184.4240  178.7230  146.2060 N   0  0  0  0  0  2  0  0  0  0  0  0
  183.7090  178.5780  144.1610 C   0  0  0  0  0  1  0  0  0  0  0  0
  183.7550  179.4320  145.2650 O   0  0  0  0  0  0  0  0  0  0  0  0
  187.9760  177.2030  142.6460 C   0  0  0  0  0  2  0  0  0  0  0  0
  186.5320  178.6320  141.2370 C   0  0  0  0  0  1  0  0  0  0  0  0
  187.9620  178.3260  141.6230 C   0  0  0  0  0  2  0  0  0  0  0  0
  186.5170  175.9890  136.5490 C   0  0  0  0  0  2  0  0  0  0  0  0
  185.6700  176.7370  135.6330 N   0  0  0  0  0  2  0  0  0  0  0  0
  184.2870  176.3680  135.9120 C   0  0  0  0  0  2  0  0  0  0  0  0
  183.6870  175.6500  134.7100 C   0  0  0  0  0  2  0  0  0  0  0  0
  182.6720  174.6890  135.1350 N   0  0  0  0  0  2  0  0  0  0  0  0
  182.5610  174.7700  136.5890 C   0  0  0  0  0  2  0  0  0  0  0  0
  180.7800  170.3560  135.5550 O   0  0  0  0  0  1  0  0  0  0  0  0
  180.3900  174.0270  137.6320 C   0  0  2  0  0  3  0  0  0  0  0  0
  179.4630  172.8510  137.9830 C   0  0  0  0  0  2  0  0  0  0  0  0
  181.7810  173.5760  137.1480 C   0  0  1  0  0  3  0  0  0  0  0  0
  181.6670  172.5030  136.0670 C   0  0  0  0  0  2  0  0  0  0  0  0
  180.8160  171.3340  136.5480 C   0  0  1  0  0  3  0  0  0  0  0  0
  179.4090  171.8250  136.8560 C   0  0  0  0  0  2  0  0  0  0  0  0
  180.4690  175.0200  138.8000 C   0  0  0  0  0  2  0  0  0  0  0  0
  180.5630  176.4900  138.3700 C   0  0  0  0  0  2  0  0  0  0  0  0
  179.8400  177.1620  140.6770 C   0  0  0  0  0  3  0  0  0  0  0  0
  180.8330  179.0480  141.7990 C   0  0  0  0  0  3  0  0  0  0  0  0
  180.6250  177.4190  139.5490 C   0  0  0  0  0  0  0  0  0  0  0  0
  182.4390  178.7950  138.4440 C   0  0  0  0  0  1  0  0  0  0  0  0
  179.9290  177.9840  141.8030 C   0  0  0  0  0  3  0  0  0  0  0  0
  181.6090  179.2790  140.7040 N   0  0  0  0  0  0  0  0  0  0  0  0
  181.5230  178.5040  139.5860 C   0  0  0  0  0  0  0  0  0  0  0  0
  1  6  1  0  0  0  0
  2  1  2  0  0  0  0
  2  4  1  0  0  0  0
  3  7  1  0  0  0  0
  4  5  2  0  0  0  0
  5  3  1  0  0  0  0
  6  3  2  0  0  0  0
  7  8  1  0  0  0  0
  8 10  1  6  0  0  0
  8 11  1  0  0  0  0
 10  9  1  0  0  0  0
 11 12  1  0  0  0  0
 13 12  1  6  0  0  0
 13 19  1  0  0  0  0
 14 18  2  0  0  0  0
 15 16  1  0  0  0  0
 16 18  1  0  0  0  0
 16 17  1  0  0  0  0
 19 15  2  0  0  0  0
 19 14  1  0  0  0  0
 20 14  1  0  0  0  0
 20 21  1  0  0  0  0
 22 23  1  0  0  0  0
 22 21  1  0  0  0  0
 24 25  1  0  0  0  0
 25 23  1  0  0  0  0
 26 13  1  0  0  0  0
 27 28  1  0  0  0  0
 28 26  1  0  0  0  0
 29  1  1  0  0  0  0
 30 31  1  0  0  0  0
 30 29  1  0  0  0  0
 32 33  1  0  0  0  0
 32 31  1  0  0  0  0
 33 34  1  0  0  0  0
 36 37  1  0  0  0  0
 36 42  1  1  0  0  0
 38 34  1  6  0  0  0
 38 36  1  0  0  0  0
 39 40  1  0  0  0  0
 39 38  1  0  0  0  0
 40 35  1  6  0  0  0
 40 41  1  0  0  0  0
 41 37  1  0  0  0  0
 43 42  1  0  0  0  0
 43 46  1  0  0  0  0
 44 48  1  0  0  0  0
 45 48  2  0  0  0  0
 46 50  1  0  0  0  0
 46 44  2  0  0  0  0
 47 50  1  0  0  0  0
 49 45  1  0  0  0  0
 50 49  2  0  0  0  0
M  END
>  <MODEL>
8

>  <REMARK>
 VINA RESULT:      -5.9      2.092      6.571
  Name = 
  24 active torsions:
  status: ('A' for Active; 'I' for Inactive)
    1  A    between atoms: N_1  and  N_20
    2  A    between atoms: N_1  and  C_41
    3  A    between atoms: C_2  and  N_6
    4  A    between atoms: C_2  and  C_23
    5  A    between atoms: C_2  and  O_49
    6  A    between atoms: C_3  and  C_9
    7  A    between atoms: C_3  and  C_27
    8  A    between atoms: N_6  and  C_32
    9  A    between atoms: N_10  and  C_45
   10  A    between atoms: N_10  and  C_50
   11  A    between atoms: C_11  and  C_37
   12  A    between atoms: C_12  and  C_26
   13  A    between atoms: C_14  and  C_16
   14  A    between atoms: C_14  and  C_32
   15  A    between atoms: C_14  and  C_46
   16  A    between atoms: C_16  and  C_19
   17  A    between atoms: N_20  and  O_21
   18  A    between atoms: C_22  and  O_49
   19  A    between atoms: C_25  and  C_27
   20  A    between atoms: C_26  and  C_41
   21  A    between atoms: C_29  and  C_50
   22  A    between atoms: N_35  and  C_37
   23  A    between atoms: N_35  and  C_42
   24  A    between atoms: C_42  and  C_45
                            x       y       z     vdW  Elec       q    Type
                         _______ _______ _______ _____ _____    ______ ____

>  <TORSDO>
F 24

$$$$
=
 OpenBabel11032421153D

 50 53  0  0  1  0  0  0  0  0999 V2000
  189.2660  177.6080  144.4960 C   0  0  0  0  0  0  0  0  0  0  0  0
  190.3630  177.2390  145.2880 C   0  0  0  0  0  3  0  0  0  0  0  0
  190.6410  177.4140  142.5050 C   0  0  0  0  0  0  0  0  0  0  0  0
  191.5890  176.9400  144.6900 C   0  0  0  0  0  3  0  0  0  0  0  0
  191.7300  177.0240  143.3040 C   0  0  0  0  0  3  0  0  0  0  0  0
  189.4120  177.7010  143.1090 C   0  0  0  0  0  3  0  0  0  0  0  0
  190.7440  177.5260  141.1130 O   0  0  0  0  0  0  0  0  0  0  0  0
  191.5220  176.6560  140.2870 C   0  0  2  0  0  3  0  0  0  0  0  0
  193.9120  177.1220  140.2220 N   0  0  0  0  0  1  0  0  0  0  0  0
  192.6430  177.4100  139.5810 C   0  0  0  0  0  2  0  0  0  0  0  0
  190.6720  175.9680  139.3110 N   0  0  0  0  0  2  0  0  0  0  0  0
  191.3600  175.8810  138.0210 C   0  0  0  0  0  2  0  0  0  0  0  0
  191.2160  174.4970  137.4000 C   0  0  1  0  0  3  0  0  0  0  0  0
  189.1820  175.1650  135.9440 C   0  0  0  0  0  0  0  0  0  0  0  0
  189.0200  173.1990  136.9800 C   0  0  0  0  0  3  0  0  0  0  0  0
  187.8870  173.4180  136.2950 N   0  0  0  0  0  0  0  0  0  0  0  0
  186.7630  172.5080  136.2360 C   0  0  0  0  0  1  0  0  0  0  0  0
  187.9590  174.6000  135.6480 C   0  0  0  0  0  3  0  0  0  0  0  0
  189.8540  174.2910  136.7880 C   0  0  0  0  0  0  0  0  0  0  0  0
  189.6700  176.4930  135.4630 C   0  0  0  0  0  2  0  0  0  0  0  0
  188.6050  177.5570  135.6510 C   0  0  0  0  0  2  0  0  0  0  0  0
  188.4930  177.8780  137.0620 N   0  0  0  0  0  2  0  0  0  0  0  0
  187.5420  178.9030  137.1730 N   0  0  0  0  0  2  0  0  0  0  0  0
  188.1140  178.2340  139.1580 C   0  0  0  0  0  1  0  0  0  0  0  0
  187.1020  178.8910  138.4550 O   0  0  0  0  0  0  0  0  0  0  0  0
  192.3510  174.2160  136.4140 C   0  0  0  0  0  2  0  0  0  0  0  0
  194.2340  172.7180  135.8460 C   0  0  0  0  0  1  0  0  0  0  0  0
  193.0970  172.9540  136.8150 C   0  0  0  0  0  2  0  0  0  0  0  0
  187.9430  177.9150  145.1180 C   0  0  0  0  0  2  0  0  0  0  0  0
  186.8930  177.1300  144.4850 N   0  0  0  0  0  2  0  0  0  0  0  0
  185.9200  178.0630  143.9300 C   0  0  0  0  0  2  0  0  0  0  0  0
  185.0460  178.6270  145.0430 C   0  0  0  0  0  2  0  0  0  0  0  0
  183.9480  179.4150  144.4890 N   0  0  0  0  0  2  0  0  0  0  0  0
  183.7170  178.9620  143.1200 C   0  0  0  0  0  2  0  0  0  0  0  0
  179.1110  178.6000  144.6610 O   0  0  0  0  0  1  0  0  0  0  0  0
  181.9160  178.2560  141.5050 C   0  0  2  0  0  3  0  0  0  0  0  0
  180.4100  178.2010  141.1960 C   0  0  0  0  0  2  0  0  0  0  0  0
  182.2500  179.1410  142.7210 C   0  0  1  0  0  3  0  0  0  0  0  0
  181.3610  178.7960  143.9140 C   0  0  0  0  0  2  0  0  0  0  0  0
  179.8880  178.8700  143.5350 C   0  0  1  0  0  3  0  0  0  0  0  0
  179.5960  177.8560  142.4380 C   0  0  0  0  0  2  0  0  0  0  0  0
  182.7090  178.6560  140.2540 C   0  0  0  0  0  2  0  0  0  0  0  0
  182.0500  178.2410  138.9320 C   0  0  0  0  0  2  0  0  0  0  0  0
  184.0760  177.5680  137.6150 C   0  0  0  0  0  3  0  0  0  0  0  0
  184.4390  175.2790  136.9580 C   0  0  0  0  0  3  0  0  0  0  0  0
  182.8590  177.2090  138.1990 C   0  0  0  0  0  0  0  0  0  0  0  0
  181.2080  175.3920  138.8160 C   0  0  0  0  0  1  0  0  0  0  0  0
  184.8670  176.6080  136.9790 C   0  0  0  0  0  3  0  0  0  0  0  0
  183.2610  174.9340  137.5480 N   0  0  0  0  0  0  0  0  0  0  0  0
  182.4630  175.8570  138.1540 C   0  0  0  0  0  0  0  0  0  0  0  0
  1 29  1  0  0  0  0
  1  2  1  0  0  0  0
  3  6  1  0  0  0  0
  3  5  2  0  0  0  0
  4  2  2  0  0  0  0
  5  4  1  0  0  0  0
  6  1  2  0  0  0  0
  7  3  1  0  0  0  0
  8 10  1  6  0  0  0
  8  7  1  0  0  0  0
 10  9  1  0  0  0  0
 11  8  1  0  0  0  0
 12 11  1  0  0  0  0
 13 26  1  6  0  0  0
 13 12  1  0  0  0  0
 14 19  1  0  0  0  0
 16 15  1  0  0  0  0
 17 16  1  0  0  0  0
 18 14  2  0  0  0  0
 18 16  1  0  0  0  0
 19 15  2  0  0  0  0
 19 13  1  0  0  0  0
 20 21  1  0  0  0  0
 20 14  1  0  0  0  0
 21 22  1  0  0  0  0
 22 23  1  0  0  0  0
 23 25  1  0  0  0  0
 25 24  1  0  0  0  0
 26 28  1  0  0  0  0
 27 28  1  0  0  0  0
 30 29  1  0  0  0  0
 31 30  1  0  0  0  0
 31 32  1  0  0  0  0
 33 32  1  0  0  0  0
 34 33  1  0  0  0  0
 36 42  1  6  0  0  0
 36 38  1  0  0  0  0
 37 36  1  0  0  0  0
 37 41  1  0  0  0  0
 38 34  1  1  0  0  0
 38 39  1  0  0  0  0
 40 39  1  0  0  0  0
 40 35  1  1  0  0  0
 41 40  1  0  0  0  0
 43 42  1  0  0  0  0
 44 46  1  0  0  0  0
 45 48  1  0  0  0  0
 45 49  2  0  0  0  0
 46 43  1  0  0  0  0
 48 44  2  0  0  0  0
 49 50  1  0  0  0  0
 50 46  2  0  0  0  0
 50 47  1  0  0  0  0
M  END
>  <MODEL>
9

>  <REMARK>
 VINA RESULT:      -5.9      2.665      8.239
  Name = 
  24 active torsions:
  status: ('A' for Active; 'I' for Inactive)
    1  A    between atoms: N_1  and  N_20
    2  A    between atoms: N_1  and  C_41
    3  A    between atoms: C_2  and  N_6
    4  A    between atoms: C_2  and  C_23
    5  A    between atoms: C_2  and  O_49
    6  A    between atoms: C_3  and  C_9
    7  A    between atoms: C_3  and  C_27
    8  A    between atoms: N_6  and  C_32
    9  A    between atoms: N_10  and  C_45
   10  A    between atoms: N_10  and  C_50
   11  A    between atoms: C_11  and  C_37
   12  A    between atoms: C_12  and  C_26
   13  A    between atoms: C_14  and  C_16
   14  A    between atoms: C_14  and  C_32
   15  A    between atoms: C_14  and  C_46
   16  A    between atoms: C_16  and  C_19
   17  A    between atoms: N_20  and  O_21
   18  A    between atoms: C_22  and  O_49
   19  A    between atoms: C_25  and  C_27
   20  A    between atoms: C_26  and  C_41
   21  A    between atoms: C_29  and  C_50
   22  A    between atoms: N_35  and  C_37
   23  A    between atoms: N_35  and  C_42
   24  A    between atoms: C_42  and  C_45
                            x       y       z     vdW  Elec       q    Type
                         _______ _______ _______ _____ _____    ______ ____

>  <TORSDO>
F 24

$$$$
