=
 OpenBabel11042413243D

 50 56  0  0  1  0  0  0  0  0999 V2000
  185.6540  178.6350  139.7080 C   0  0  0  0  0  0  0  0  0  0  0  0
  188.1300  179.0590  140.9470 C   0  0  0  0  0  0  0  0  0  0  0  0
  189.6190  178.6060  142.8640 C   0  0  2  0  0  3  0  0  0  0  0  0
  188.2110  178.3800  139.5780 C   0  0  1  0  0  3  0  0  0  0  0  0
  186.9630  179.4630  141.4940 C   0  0  0  0  0  3  0  0  0  0  0  0
  190.7470  179.3560  143.5640 C   0  0  0  0  0  1  0  0  0  0  0  0
  185.6970  179.2610  140.8400 N   0  0  0  0  0  0  0  0  0  0  0  0
  184.5030  178.4470  138.9120 N   0  0  0  0  0  0  0  0  0  0  0  0
  189.0190  177.0680  139.6850 C   0  0  2  0  0  3  0  0  0  0  0  0
  190.4690  177.3820  140.0520 C   0  0  0  0  0  2  0  0  0  0  0  0
  186.4280  177.7670  137.8280 C   0  0  0  0  0  3  0  0  0  0  0  0
  189.9360  177.0810  142.6440 C   0  0  1  0  0  0  0  0  0  0  0  0
  192.1670  177.4910  141.6960 O   0  0  0  0  0  1  0  0  0  0  0  0
  184.9570  177.9300  137.8080 C   0  0  0  0  0  3  0  0  0  0  0  0
  186.8200  178.1780  139.0240 C   0  0  0  0  0  0  0  0  0  0  0  0
  189.3140  179.2840  141.6480 O   0  0  0  0  0  0  0  0  0  0  0  0
  190.9290  176.8960  141.4370 C   0  0  2  0  0  3  0  0  0  0  0  0
  191.0670  175.0880  143.7720 C   0  0  0  0  0  2  0  0  0  0  0  0
  190.4940  176.4810  143.9880 C   0  0  0  0  0  3  0  0  0  0  0  0
  191.9940  176.2410  144.0860 C   0  0  0  0  0  2  0  0  0  0  0  0
  189.0190  176.2680  138.3920 C   0  0  0  0  0  2  0  0  0  0  0  0
  190.9980  176.4680  136.8690 C   0  0  1  0  0  3  0  0  0  0  0  0
  190.4030  175.0830  136.7930 C   0  0  1  0  0  3  0  0  0  0  0  0
  190.5050  174.4040  138.0210 O   0  0  0  0  0  0  0  0  0  0  0  0
  190.4280  175.8050  138.1000 C   0  0  2  0  0  0  0  0  0  0  0  0
  192.5140  176.4120  136.9470 C   0  0  1  0  0  3  0  0  0  0  0  0
  192.9130  176.0240  138.2290 O   0  0  0  0  0  1  0  0  0  0  0  0
  193.0270  175.4460  135.9320 C   0  0  0  0  0  0  0  0  0  0  0  0
  192.8760  175.7010  134.7060 O   0  0  0  0  0  0  0  0  0  0  0  0
  193.6240  174.2150  136.3490 N   0  0  0  0  0  2  0  0  0  0  0  0
  195.1720  169.9070  138.0510 C   0  0  0  0  0  1  0  0  0  0  0  0
  195.5000  172.8230  135.5960 C   0  0  0  0  0  2  0  0  0  0  0  0
  193.6110  170.8660  136.4440 N   0  0  0  0  0  2  0  0  0  0  0  0
  195.7350  172.0270  136.8740 C   0  0  0  0  0  2  0  0  0  0  0  0
  195.0270  170.6850  136.7570 C   0  0  1  0  0  3  0  0  0  0  0  0
  191.9730  171.9470  135.1950 O   0  0  0  0  0  0  0  0  0  0  0  0
  194.0160  173.1640  135.4200 C   0  0  1  0  0  3  0  0  0  0  0  0
  193.1490  171.9580  135.6430 C   0  0  0  0  0  0  0  0  0  0  0  0
  188.7540  176.3560  142.3070 O   0  0  0  0  0  0  0  0  0  0  0  0
  187.9310  176.1200  143.4270 C   0  0  2  0  0  3  0  0  0  0  0  0
  187.5200  174.8010  143.4430 F   0  0  0  0  0  0  0  0  0  0  0  0
  186.7100  177.0160  143.3310 C   0  0  0  0  0  2  0  0  0  0  0  0
  186.3960  177.6560  144.6440 C   0  0  0  0  0  0  0  0  0  0  0  0
  185.6940  178.6540  144.6740 O   0  0  0  0  0  0  0  0  0  0  0  0
  186.9170  177.0740  145.9170 C   0  0  0  0  0  2  0  0  0  0  0  0
  188.0750  177.8240  146.3850 N   0  0  0  0  0  2  0  0  0  0  0  0
  188.7660  177.5080  147.5940 C   0  0  0  0  0  0  0  0  0  0  0  0
  188.4060  178.1200  148.7160 C   0  0  0  0  0  2  0  0  0  0  0  0
  189.8220  176.5410  147.5900 N   0  0  0  0  0  2  0  0  0  0  0  0
  191.2330  176.8910  147.5430 C   0  0  0  0  0  1  0  0  0  0  0  0
  1  7  2  0  0  0  0
  2  5  2  0  0  0  0
  2 16  1  0  0  0  0
  3  6  1  6  0  0  0
  4 15  1  1  0  0  0
  4  9  1  0  0  0  0
  4  2  1  0  0  0  0
  7  5  1  0  0  0  0
  8  1  1  0  0  0  0
  9 21  1  6  0  0  0
  9 10  1  0  0  0  0
 10 17  1  0  0  0  0
 11 15  2  0  0  0  0
 12 39  1  6  0  0  0
 12  3  1  0  0  0  0
 12 19  1  0  0  0  0
 14 11  1  0  0  0  0
 14  8  2  0  0  0  0
 15  1  1  0  0  0  0
 16  3  1  0  0  0  0
 17 13  1  1  0  0  0
 17 12  1  0  0  0  0
 18 19  1  0  0  0  0
 18 20  1  0  0  0  0
 19 20  1  0  0  0  0
 22 26  1  1  0  0  0
 22 25  1  0  0  0  0
 23 22  1  0  0  0  0
 23 24  1  1  0  0  0
 23 25  1  0  0  0  0
 24 25  1  0  0  0  0
 25 21  1  1  0  0  0
 26 27  1  1  0  0  0
 28 30  1  0  0  0  0
 28 26  1  0  0  0  0
 29 28  2  0  0  0  0
 32 34  1  0  0  0  0
 33 35  1  0  0  0  0
 35 34  1  0  0  0  0
 35 31  1  1  0  0  0
 36 38  2  0  0  0  0
 37 32  1  0  0  0  0
 37 38  1  0  0  0  0
 37 30  1  1  0  0  0
 38 33  1  0  0  0  0
 39 40  1  0  0  0  0
 40 41  1  6  0  0  0
 42 40  1  0  0  0  0
 42 43  1  0  0  0  0
 43 44  2  0  0  0  0
 43 45  1  0  0  0  0
 45 46  1  0  0  0  0
 46 47  1  0  0  0  0
 47 48  2  0  0  0  0
 49 47  1  0  0  0  0
 50 49  1  0  0  0  0
M  END
>  <MODEL>
1

>  <REMARK>
 VINA RESULT:      -6.1      0.000      0.000
  Name = 
  14 active torsions:
  status: ('A' for Active; 'I' for Inactive)
    1  A    between atoms: C_3  and  N_8
    2  A    between atoms: C_3  and  N_13
    3  A    between atoms: C_4  and  C_11
    4  A    between atoms: C_4  and  C_36
    5  A    between atoms: C_5  and  C_17
    6  A    between atoms: C_5  and  C_35
    7  A    between atoms: N_8  and  C_17
    8  A    between atoms: C_14  and  C_39
    9  A    between atoms: C_15  and  C_35
   10  A    between atoms: C_15  and  O_37
   11  A    between atoms: C_28  and  C_30
   12  A    between atoms: C_29  and  N_48
   13  A    between atoms: C_30  and  C_49
   14  A    between atoms: O_37  and  C_39
                            x       y       z     vdW  Elec       q    Type
                         _______ _______ _______ _____ _____    ______ ____

>  <TORSDO>
F 14

$$$$
=
 OpenBabel11042413243D

 50 56  0  0  1  0  0  0  0  0999 V2000
  186.0600  178.5000  139.5260 C   0  0  0  0  0  0  0  0  0  0  0  0
  188.4040  178.9980  140.9750 C   0  0  0  0  0  0  0  0  0  0  0  0
  189.7240  178.6030  143.0240 C   0  0  2  0  0  3  0  0  0  0  0  0
  188.6220  178.3040  139.6290 C   0  0  1  0  0  3  0  0  0  0  0  0
  187.1830  179.3810  141.4100 C   0  0  0  0  0  3  0  0  0  0  0  0
  190.7670  179.3880  143.8120 C   0  0  0  0  0  1  0  0  0  0  0  0
  185.9860  179.1410  140.6470 N   0  0  0  0  0  0  0  0  0  0  0  0
  184.9890  178.2760  138.6310 N   0  0  0  0  0  0  0  0  0  0  0  0
  189.4470  177.0130  139.8260 C   0  0  2  0  0  3  0  0  0  0  0  0
  190.8510  177.3660  140.3170 C   0  0  0  0  0  2  0  0  0  0  0  0
  187.0190  177.6280  137.7350 C   0  0  0  0  0  3  0  0  0  0  0  0
  190.0940  177.0830  142.8550 C   0  0  1  0  0  0  0  0  0  0  0  0
  192.3910  177.5340  142.1060 O   0  0  0  0  0  1  0  0  0  0  0  0
  185.5520  177.7560  137.5800 C   0  0  0  0  0  3  0  0  0  0  0  0
  187.2920  178.0630  138.9550 C   0  0  0  0  0  0  0  0  0  0  0  0
  189.5150  179.2580  141.7760 O   0  0  0  0  0  0  0  0  0  0  0  0
  191.1950  176.9080  141.7450 C   0  0  2  0  0  3  0  0  0  0  0  0
  191.6800  175.5150  144.0980 C   0  0  0  0  0  2  0  0  0  0  0  0
  190.5410  176.5130  144.2520 C   0  0  0  0  0  3  0  0  0  0  0  0
  191.9410  176.8580  144.7400 C   0  0  0  0  0  2  0  0  0  0  0  0
  189.5810  176.1980  138.5500 C   0  0  0  0  0  2  0  0  0  0  0  0
  191.6360  176.6230  137.1810 C   0  0  1  0  0  3  0  0  0  0  0  0
  191.1560  175.2050  136.9960 C   0  0  1  0  0  3  0  0  0  0  0  0
  191.2270  174.4710  138.1940 O   0  0  0  0  0  0  0  0  0  0  0  0
  191.0390  175.8560  138.3350 C   0  0  2  0  0  0  0  0  0  0  0  0
  193.1440  176.6750  137.3630 C   0  0  1  0  0  3  0  0  0  0  0  0
  193.4840  176.2660  138.6560 O   0  0  0  0  0  1  0  0  0  0  0  0
  193.7950  175.7890  136.3540 C   0  0  0  0  0  0  0  0  0  0  0  0
  193.7360  176.1000  135.1320 O   0  0  0  0  0  0  0  0  0  0  0  0
  194.4200  174.5700  136.7640 N   0  0  0  0  0  2  0  0  0  0  0  0
  195.1660  169.9660  138.2090 C   0  0  0  0  0  1  0  0  0  0  0  0
  196.3120  173.0770  136.3000 C   0  0  0  0  0  2  0  0  0  0  0  0
  194.1290  171.2510  136.4160 N   0  0  0  0  0  2  0  0  0  0  0  0
  196.1630  172.1290  137.4830 C   0  0  0  0  0  2  0  0  0  0  0  0
  195.4050  170.8890  137.0290 C   0  0  1  0  0  3  0  0  0  0  0  0
  192.9370  172.6270  134.9680 O   0  0  0  0  0  0  0  0  0  0  0  0
  194.9480  173.5900  135.8250 C   0  0  1  0  0  3  0  0  0  0  0  0
  193.9630  172.4660  135.6780 C   0  0  0  0  0  0  0  0  0  0  0  0
  188.9630  176.3270  142.4230 O   0  0  0  0  0  0  0  0  0  0  0  0
  188.1080  175.9830  143.4900 C   0  0  2  0  0  3  0  0  0  0  0  0
  187.6310  174.6980  143.3190 F   0  0  0  0  0  0  0  0  0  0  0  0
  186.9360  176.9470  143.5040 C   0  0  0  0  0  2  0  0  0  0  0  0
  186.7420  177.5550  144.8540 C   0  0  0  0  0  0  0  0  0  0  0  0
  187.6600  177.5400  145.6580 O   0  0  0  0  0  0  0  0  0  0  0  0
  185.4420  178.1930  145.2200 C   0  0  0  0  0  2  0  0  0  0  0  0
  184.9170  178.9650  144.1010 N   0  0  0  0  0  2  0  0  0  0  0  0
  183.6290  178.7290  143.5340 C   0  0  0  0  0  0  0  0  0  0  0  0
  182.5520  178.9260  144.2850 C   0  0  0  0  0  2  0  0  0  0  0  0
  183.5090  178.2950  142.1740 N   0  0  0  0  0  2  0  0  0  0  0  0
  182.3800  178.6280  141.3200 C   0  0  0  0  0  1  0  0  0  0  0  0
  1  7  2  0  0  0  0
  2  5  2  0  0  0  0
  2 16  1  0  0  0  0
  3  6  1  6  0  0  0
  4 15  1  1  0  0  0
  4  9  1  0  0  0  0
  4  2  1  0  0  0  0
  7  5  1  0  0  0  0
  8  1  1  0  0  0  0
  9 21  1  6  0  0  0
  9 10  1  0  0  0  0
 10 17  1  0  0  0  0
 11 15  2  0  0  0  0
 12 39  1  6  0  0  0
 12  3  1  0  0  0  0
 12 19  1  0  0  0  0
 14 11  1  0  0  0  0
 14  8  2  0  0  0  0
 15  1  1  0  0  0  0
 16  3  1  0  0  0  0
 17 13  1  1  0  0  0
 17 12  1  0  0  0  0
 18 19  1  0  0  0  0
 18 20  1  0  0  0  0
 19 20  1  0  0  0  0
 22 26  1  1  0  0  0
 22 25  1  0  0  0  0
 23 22  1  0  0  0  0
 23 24  1  1  0  0  0
 23 25  1  0  0  0  0
 24 25  1  0  0  0  0
 25 21  1  1  0  0  0
 26 27  1  1  0  0  0
 28 30  1  0  0  0  0
 28 26  1  0  0  0  0
 29 28  2  0  0  0  0
 32 34  1  0  0  0  0
 33 35  1  0  0  0  0
 35 34  1  0  0  0  0
 35 31  1  1  0  0  0
 36 38  2  0  0  0  0
 37 32  1  0  0  0  0
 37 30  1  1  0  0  0
 38 37  1  0  0  0  0
 38 33  1  0  0  0  0
 39 40  1  0  0  0  0
 40 41  1  6  0  0  0
 40 42  1  0  0  0  0
 42 43  1  0  0  0  0
 43 45  1  0  0  0  0
 43 44  2  0  0  0  0
 46 45  1  0  0  0  0
 47 46  1  0  0  0  0
 47 48  2  0  0  0  0
 49 47  1  0  0  0  0
 50 49  1  0  0  0  0
M  END
>  <MODEL>
2

>  <REMARK>
 VINA RESULT:      -6.1      1.553      2.590
  Name = 
  14 active torsions:
  status: ('A' for Active; 'I' for Inactive)
    1  A    between atoms: C_3  and  N_8
    2  A    between atoms: C_3  and  N_13
    3  A    between atoms: C_4  and  C_11
    4  A    between atoms: C_4  and  C_36
    5  A    between atoms: C_5  and  C_17
    6  A    between atoms: C_5  and  C_35
    7  A    between atoms: N_8  and  C_17
    8  A    between atoms: C_14  and  C_39
    9  A    between atoms: C_15  and  C_35
   10  A    between atoms: C_15  and  O_37
   11  A    between atoms: C_28  and  C_30
   12  A    between atoms: C_29  and  N_48
   13  A    between atoms: C_30  and  C_49
   14  A    between atoms: O_37  and  C_39
                            x       y       z     vdW  Elec       q    Type
                         _______ _______ _______ _____ _____    ______ ____

>  <TORSDO>
F 14

$$$$
=
 OpenBabel11042413243D

 50 56  0  0  1  0  0  0  0  0999 V2000
  185.2000  178.1120  138.0220 C   0  0  0  0  0  0  0  0  0  0  0  0
  187.2130  177.3590  136.2260 C   0  0  0  0  0  0  0  0  0  0  0  0
  189.6180  176.9830  135.8110 C   0  0  2  0  0  3  0  0  0  0  0  0
  186.1800  176.2690  136.5190 C   0  0  1  0  0  3  0  0  0  0  0  0
  187.1350  178.6000  136.7550 C   0  0  0  0  0  3  0  0  0  0  0  0
  190.5340  177.0520  134.5940 C   0  0  0  0  0  1  0  0  0  0  0  0
  186.0840  178.9840  137.6600 N   0  0  0  0  0  0  0  0  0  0  0  0
  184.0660  178.3700  138.8240 N   0  0  0  0  0  0  0  0  0  0  0  0
  186.8900  174.9760  136.9790 C   0  0  2  0  0  3  0  0  0  0  0  0
  187.7370  174.4170  135.8360 C   0  0  0  0  0  2  0  0  0  0  0  0
  184.0370  176.2340  137.9410 C   0  0  0  0  0  3  0  0  0  0  0  0
  189.8860  175.7240  136.7140 C   0  0  1  0  0  0  0  0  0  0  0  0
  189.8630  174.1400  134.8330 O   0  0  0  0  0  1  0  0  0  0  0  0
  183.3850  177.2620  138.7820 C   0  0  0  0  0  3  0  0  0  0  0  0
  185.1670  176.7780  137.5170 C   0  0  0  0  0  0  0  0  0  0  0  0
  188.2670  177.0610  135.3640 O   0  0  0  0  0  0  0  0  0  0  0  0
  189.2590  174.4370  136.0590 C   0  0  2  0  0  3  0  0  0  0  0  0
  191.7830  174.2460  137.5720 C   0  0  0  0  0  2  0  0  0  0  0  0
  191.4350  175.5920  136.9530 C   0  0  0  0  0  3  0  0  0  0  0  0
  192.1880  174.5420  136.1460 C   0  0  0  0  0  2  0  0  0  0  0  0
  185.9190  173.8950  137.4240 C   0  0  0  0  0  2  0  0  0  0  0  0
  183.7340  172.9600  136.6320 C   0  0  1  0  0  3  0  0  0  0  0  0
  184.8540  171.9780  136.3900 C   0  0  1  0  0  3  0  0  0  0  0  0
  185.7970  172.4800  135.4750 O   0  0  0  0  0  0  0  0  0  0  0  0
  185.1070  173.4420  136.2320 C   0  0  2  0  0  0  0  0  0  0  0  0
  182.8160  173.0570  135.4260 C   0  0  1  0  0  3  0  0  0  0  0  0
  182.9500  171.9150  134.6300 O   0  0  0  0  0  1  0  0  0  0  0  0
  181.4050  173.2020  135.8870 C   0  0  0  0  0  0  0  0  0  0  0  0
  180.4730  172.7290  135.1800 O   0  0  0  0  0  0  0  0  0  0  0  0
  181.1110  173.9260  137.0850 N   0  0  0  0  0  2  0  0  0  0  0  0
  180.3430  177.4280  140.4010 C   0  0  0  0  0  1  0  0  0  0  0  0
  179.5970  173.9400  139.0180 C   0  0  0  0  0  2  0  0  0  0  0  0
  179.5650  176.6740  138.2170 N   0  0  0  0  0  2  0  0  0  0  0  0
  180.2980  174.9980  139.8610 C   0  0  0  0  0  2  0  0  0  0  0  0
  179.6120  176.3390  139.6390 C   0  0  1  0  0  3  0  0  0  0  0  0
  179.1660  175.9990  136.0270 O   0  0  0  0  0  0  0  0  0  0  0  0
  179.7550  174.2300  137.5210 C   0  0  1  0  0  3  0  0  0  0  0  0
  179.4460  175.6660  137.2080 C   0  0  0  0  0  0  0  0  0  0  0  0
  189.2640  175.8680  137.9910 O   0  0  0  0  0  0  0  0  0  0  0  0
  189.6770  177.0390  138.6590 C   0  0  2  0  0  3  0  0  0  0  0  0
  190.8880  176.8240  139.2870 F   0  0  0  0  0  0  0  0  0  0  0  0
  188.6350  177.3940  139.7040 C   0  0  0  0  0  2  0  0  0  0  0  0
  189.1480  177.1670  141.0880 C   0  0  0  0  0  0  0  0  0  0  0  0
  189.9410  176.2620  141.2950 O   0  0  0  0  0  0  0  0  0  0  0  0
  188.7130  178.0480  142.2140 C   0  0  0  0  0  2  0  0  0  0  0  0
  187.5140  177.5160  142.8460 N   0  0  0  0  0  2  0  0  0  0  0  0
  186.2650  178.2080  142.8450 C   0  0  0  0  0  0  0  0  0  0  0  0
  185.9630  178.9830  141.8110 C   0  0  0  0  0  2  0  0  0  0  0  0
  185.3570  178.0570  143.9420 N   0  0  0  0  0  2  0  0  0  0  0  0
  185.3150  178.9600  145.0810 C   0  0  0  0  0  1  0  0  0  0  0  0
  1  8  1  0  0  0  0
  2  5  2  0  0  0  0
  3  6  1  6  0  0  0
  3 12  1  0  0  0  0
  4  2  1  1  0  0  0
  4  9  1  0  0  0  0
  4 15  1  0  0  0  0
  5  7  1  0  0  0  0
  7  1  2  0  0  0  0
  9 21  1  6  0  0  0
 10 17  1  0  0  0  0
 10  9  1  0  0  0  0
 11 14  1  0  0  0  0
 12 19  1  0  0  0  0
 12 39  1  1  0  0  0
 14  8  2  0  0  0  0
 15 11  2  0  0  0  0
 15  1  1  0  0  0  0
 16  3  1  0  0  0  0
 16  2  1  0  0  0  0
 17 13  1  6  0  0  0
 17 12  1  0  0  0  0
 19 18  1  0  0  0  0
 20 19  1  0  0  0  0
 20 18  1  0  0  0  0
 22 26  1  6  0  0  0
 23 24  1  6  0  0  0
 23 22  1  0  0  0  0
 24 25  1  0  0  0  0
 25 23  1  0  0  0  0
 25 22  1  0  0  0  0
 25 21  1  1  0  0  0
 26 27  1  6  0  0  0
 26 28  1  0  0  0  0
 28 30  1  0  0  0  0
 29 28  2  0  0  0  0
 32 34  1  0  0  0  0
 33 35  1  0  0  0  0
 35 34  1  0  0  0  0
 35 31  1  1  0  0  0
 36 38  2  0  0  0  0
 37 30  1  1  0  0  0
 37 32  1  0  0  0  0
 38 37  1  0  0  0  0
 38 33  1  0  0  0  0
 39 40  1  0  0  0  0
 40 41  1  1  0  0  0
 40 42  1  0  0  0  0
 42 43  1  0  0  0  0
 43 44  2  0  0  0  0
 43 45  1  0  0  0  0
 45 46  1  0  0  0  0
 47 46  1  0  0  0  0
 47 49  1  0  0  0  0
 48 47  2  0  0  0  0
 49 50  1  0  0  0  0
M  END
>  <MODEL>
3

>  <REMARK>
 VINA RESULT:      -5.9      4.382      8.688
  Name = 
  14 active torsions:
  status: ('A' for Active; 'I' for Inactive)
    1  A    between atoms: C_3  and  N_8
    2  A    between atoms: C_3  and  N_13
    3  A    between atoms: C_4  and  C_11
    4  A    between atoms: C_4  and  C_36
    5  A    between atoms: C_5  and  C_17
    6  A    between atoms: C_5  and  C_35
    7  A    between atoms: N_8  and  C_17
    8  A    between atoms: C_14  and  C_39
    9  A    between atoms: C_15  and  C_35
   10  A    between atoms: C_15  and  O_37
   11  A    between atoms: C_28  and  C_30
   12  A    between atoms: C_29  and  N_48
   13  A    between atoms: C_30  and  C_49
   14  A    between atoms: O_37  and  C_39
                            x       y       z     vdW  Elec       q    Type
                         _______ _______ _______ _____ _____    ______ ____

>  <TORSDO>
F 14

$$$$
=
 OpenBabel11042413243D

 50 56  0  0  1  0  0  0  0  0999 V2000
  179.9280  171.7230  135.6630 C   0  0  0  0  0  0  0  0  0  0  0  0
  180.0320  174.4830  135.2030 C   0  0  0  0  0  0  0  0  0  0  0  0
  180.1140  176.7630  136.1470 C   0  0  2  0  0  3  0  0  0  0  0  0
  181.2310  173.7020  134.6610 C   0  0  1  0  0  3  0  0  0  0  0  0
  178.9860  173.8860  135.8130 C   0  0  0  0  0  3  0  0  0  0  0  0
  179.6590  178.1450  135.6900 C   0  0  0  0  0  1  0  0  0  0  0  0
  178.9310  172.4630  136.0260 N   0  0  0  0  0  0  0  0  0  0  0  0
  179.9740  170.3120  135.7220 N   0  0  0  0  0  0  0  0  0  0  0  0
  182.5460  174.3120  135.1940 C   0  0  2  0  0  3  0  0  0  0  0  0
  182.7200  175.7270  134.6430 C   0  0  0  0  0  2  0  0  0  0  0  0
  181.7930  171.1930  134.6020 C   0  0  0  0  0  3  0  0  0  0  0  0
  181.5470  176.7690  136.7960 C   0  0  1  0  0  0  0  0  0  0  0  0
  182.5690  178.0660  134.9740 O   0  0  0  0  0  1  0  0  0  0  0  0
  181.0750  170.0000  135.1040 C   0  0  0  0  0  3  0  0  0  0  0  0
  181.0780  172.2360  134.9930 C   0  0  0  0  0  0  0  0  0  0  0  0
  180.0150  175.8680  135.0420 O   0  0  0  0  0  0  0  0  0  0  0  0
  182.6530  176.8620  135.6790 C   0  0  2  0  0  3  0  0  0  0  0  0
  183.0040  178.0170  138.4810 C   0  0  0  0  0  2  0  0  0  0  0  0
  181.6290  177.9500  137.8330 C   0  0  0  0  0  3  0  0  0  0  0  0
  182.5740  179.1010  137.5200 C   0  0  0  0  0  2  0  0  0  0  0  0
  183.7720  173.4990  134.8110 C   0  0  0  0  0  2  0  0  0  0  0  0
  185.9280  172.5970  135.7120 C   0  0  1  0  0  3  0  0  0  0  0  0
  184.7590  172.0970  136.5250 C   0  0  1  0  0  3  0  0  0  0  0  0
  184.0900  173.1500  137.1760 O   0  0  0  0  0  0  0  0  0  0  0  0
  184.7370  173.4850  135.9750 C   0  0  2  0  0  0  0  0  0  0  0  0
  187.0710  173.0430  136.6090 C   0  0  1  0  0  3  0  0  0  0  0  0
  188.1480  172.1600  136.4850 O   0  0  0  0  0  1  0  0  0  0  0  0
  187.4890  174.4240  136.2290 C   0  0  0  0  0  0  0  0  0  0  0  0
  187.7860  174.6700  135.0280 O   0  0  0  0  0  0  0  0  0  0  0  0
  187.6130  175.4380  137.2300 N   0  0  0  0  0  2  0  0  0  0  0  0
  189.2410  178.2080  140.9080 C   0  0  0  0  0  1  0  0  0  0  0  0
  187.2910  177.8370  137.6370 C   0  0  0  0  0  2  0  0  0  0  0  0
  189.8960  177.3980  138.7040 N   0  0  0  0  0  2  0  0  0  0  0  0
  187.5200  177.8560  139.1430 C   0  0  0  0  0  2  0  0  0  0  0  0
  188.9610  178.2650  139.4180 C   0  0  1  0  0  3  0  0  0  0  0  0
  190.4830  176.2920  136.7430 O   0  0  0  0  0  0  0  0  0  0  0  0
  188.1510  176.7640  136.9590 C   0  0  1  0  0  3  0  0  0  0  0  0
  189.5750  176.8260  137.4320 C   0  0  0  0  0  0  0  0  0  0  0  0
  181.7920  175.5550  137.5040 O   0  0  0  0  0  0  0  0  0  0  0  0
  181.3670  175.6220  138.8470 C   0  0  2  0  0  3  0  0  0  0  0  0
  182.4100  175.2970  139.6910 F   0  0  0  0  0  0  0  0  0  0  0  0
  180.2400  174.6260  139.0500 C   0  0  0  0  0  2  0  0  0  0  0  0
  179.3970  174.9850  140.2290 C   0  0  0  0  0  0  0  0  0  0  0  0
  179.0980  174.1230  141.0400 O   0  0  0  0  0  0  0  0  0  0  0  0
  178.9320  176.3910  140.4320 C   0  0  0  0  0  2  0  0  0  0  0  0
  179.2620  176.8500  141.7750 N   0  0  0  0  0  2  0  0  0  0  0  0
  179.6740  178.1870  142.0570 C   0  0  0  0  0  0  0  0  0  0  0  0
  179.6750  179.0780  141.0730 C   0  0  0  0  0  2  0  0  0  0  0  0
  180.0700  178.5540  143.3840 N   0  0  0  0  0  2  0  0  0  0  0  0
  179.1620  179.1300  144.3630 C   0  0  0  0  0  1  0  0  0  0  0  0
  1  8  1  0  0  0  0
  1  7  2  0  0  0  0
  2  5  2  0  0  0  0
  3  6  1  6  0  0  0
  3 12  1  0  0  0  0
  4 15  1  1  0  0  0
  4  9  1  0  0  0  0
  4  2  1  0  0  0  0
  5  7  1  0  0  0  0
  9 21  1  6  0  0  0
 10  9  1  0  0  0  0
 10 17  1  0  0  0  0
 11 15  2  0  0  0  0
 11 14  1  0  0  0  0
 12 39  1  1  0  0  0
 12 19  1  0  0  0  0
 14  8  2  0  0  0  0
 15  1  1  0  0  0  0
 16  2  1  0  0  0  0
 16  3  1  0  0  0  0
 17 13  1  6  0  0  0
 17 12  1  0  0  0  0
 19 18  1  0  0  0  0
 20 19  1  0  0  0  0
 20 18  1  0  0  0  0
 22 25  1  0  0  0  0
 22 23  1  0  0  0  0
 22 26  1  1  0  0  0
 23 24  1  1  0  0  0
 25 21  1  6  0  0  0
 25 23  1  0  0  0  0
 25 24  1  0  0  0  0
 26 27  1  6  0  0  0
 28 26  1  0  0  0  0
 28 30  1  0  0  0  0
 29 28  2  0  0  0  0
 32 34  1  0  0  0  0
 33 35  1  0  0  0  0
 34 35  1  0  0  0  0
 35 31  1  1  0  0  0
 36 38  2  0  0  0  0
 37 30  1  1  0  0  0
 37 38  1  0  0  0  0
 37 32  1  0  0  0  0
 38 33  1  0  0  0  0
 39 40  1  0  0  0  0
 40 42  1  0  0  0  0
 40 41  1  1  0  0  0
 42 43  1  0  0  0  0
 43 45  1  0  0  0  0
 43 44  2  0  0  0  0
 45 46  1  0  0  0  0
 46 47  1  0  0  0  0
 47 49  1  0  0  0  0
 48 47  2  0  0  0  0
 49 50  1  0  0  0  0
M  END
>  <MODEL>
4

>  <REMARK>
 VINA RESULT:      -5.9      5.946      9.308
  Name = 
  14 active torsions:
  status: ('A' for Active; 'I' for Inactive)
    1  A    between atoms: C_3  and  N_8
    2  A    between atoms: C_3  and  N_13
    3  A    between atoms: C_4  and  C_11
    4  A    between atoms: C_4  and  C_36
    5  A    between atoms: C_5  and  C_17
    6  A    between atoms: C_5  and  C_35
    7  A    between atoms: N_8  and  C_17
    8  A    between atoms: C_14  and  C_39
    9  A    between atoms: C_15  and  C_35
   10  A    between atoms: C_15  and  O_37
   11  A    between atoms: C_28  and  C_30
   12  A    between atoms: C_29  and  N_48
   13  A    between atoms: C_30  and  C_49
   14  A    between atoms: O_37  and  C_39
                            x       y       z     vdW  Elec       q    Type
                         _______ _______ _______ _____ _____    ______ ____

>  <TORSDO>
F 14

$$$$
=
 OpenBabel11042413243D

 50 56  0  0  1  0  0  0  0  0999 V2000
  182.8080  173.1810  137.0110 C   0  0  0  0  0  0  0  0  0  0  0  0
  181.2650  175.4200  136.3410 C   0  0  0  0  0  0  0  0  0  0  0  0
  180.1420  177.4890  137.0850 C   0  0  2  0  0  3  0  0  0  0  0  0
  182.6220  175.3480  135.6380 C   0  0  1  0  0  3  0  0  0  0  0  0
  180.8260  174.4580  137.1820 C   0  0  0  0  0  3  0  0  0  0  0  0
  178.9310  178.2940  136.6240 C   0  0  0  0  0  1  0  0  0  0  0  0
  181.6170  173.2990  137.5030 N   0  0  0  0  0  0  0  0  0  0  0  0
  183.6560  172.0610  137.1620 N   0  0  0  0  0  0  0  0  0  0  0  0
  183.4060  176.6600  135.8640 C   0  0  2  0  0  3  0  0  0  0  0  0
  182.6760  177.8210  135.1890 C   0  0  0  0  0  2  0  0  0  0  0  0
  184.5030  173.5940  135.6540 C   0  0  0  0  0  3  0  0  0  0  0  0
  181.3790  178.3900  137.4460 C   0  0  1  0  0  0  0  0  0  0  0  0
  181.2590  179.7070  135.3730 O   0  0  0  0  0  1  0  0  0  0  0  0
  184.6570  172.3080  136.3690 C   0  0  0  0  0  3  0  0  0  0  0  0
  183.3720  174.1200  136.0980 C   0  0  0  0  0  0  0  0  0  0  0  0
  180.4420  176.5170  136.0880 O   0  0  0  0  0  0  0  0  0  0  0  0
  182.0950  178.8870  136.1350 C   0  0  2  0  0  3  0  0  0  0  0  0
  181.8910  180.7250  138.3440 C   0  0  0  0  0  2  0  0  0  0  0  0
  180.8940  179.5750  138.3600 C   0  0  0  0  0  3  0  0  0  0  0  0
  180.5420  180.8930  137.6820 C   0  0  0  0  0  2  0  0  0  0  0  0
  184.8210  176.6040  135.3140 C   0  0  0  0  0  2  0  0  0  0  0  0
  187.2130  177.0590  135.9040 C   0  0  1  0  0  3  0  0  0  0  0  0
  186.6960  175.8590  136.6590 C   0  0  1  0  0  3  0  0  0  0  0  0
  185.6580  176.2080  137.5410 O   0  0  0  0  0  0  0  0  0  0  0  0
  185.7890  177.0170  136.4000 C   0  0  2  0  0  0  0  0  0  0  0  0
  188.0150  177.9770  136.8110 C   0  0  1  0  0  3  0  0  0  0  0  0
  187.1530  178.8030  137.5370 O   0  0  0  0  0  1  0  0  0  0  0  0
  188.8450  177.1540  137.7380 C   0  0  0  0  0  0  0  0  0  0  0  0
  188.5720  177.1480  138.9700 O   0  0  0  0  0  0  0  0  0  0  0  0
  189.9780  176.4350  137.2420 N   0  0  0  0  0  2  0  0  0  0  0  0
  194.6450  175.9470  135.8910 C   0  0  0  0  0  1  0  0  0  0  0  0
  191.4520  174.4790  137.4020 C   0  0  0  0  0  2  0  0  0  0  0  0
  193.2780  176.6310  137.7890 N   0  0  0  0  0  2  0  0  0  0  0  0
  192.4530  174.8450  136.3130 C   0  0  0  0  0  2  0  0  0  0  0  0
  193.6690  175.4930  136.9600 C   0  0  1  0  0  3  0  0  0  0  0  0
  191.8340  177.5330  139.3760 O   0  0  0  0  0  0  0  0  0  0  0  0
  190.9150  175.7300  138.1060 C   0  0  1  0  0  3  0  0  0  0  0  0
  192.0300  176.6610  138.4900 C   0  0  0  0  0  0  0  0  0  0  0  0
  182.3540  177.6500  138.1800 O   0  0  0  0  0  0  0  0  0  0  0  0
  183.1310  178.4730  139.0200 C   0  0  2  0  0  3  0  0  0  0  0  0
  184.3330  178.7730  138.4090 F   0  0  0  0  0  0  0  0  0  0  0  0
  183.4080  177.7260  140.3120 C   0  0  0  0  0  2  0  0  0  0  0  0
  184.1900  178.5610  141.2720 C   0  0  0  0  0  0  0  0  0  0  0  0
  184.8530  179.4970  140.8530 O   0  0  0  0  0  0  0  0  0  0  0  0
  184.1530  178.2710  142.7370 C   0  0  0  0  0  2  0  0  0  0  0  0
  185.4120  177.6840  143.1740 N   0  0  0  0  0  2  0  0  0  0  0  0
  186.0330  178.0180  144.4160 C   0  0  0  0  0  0  0  0  0  0  0  0
  185.4610  178.9290  145.1940 C   0  0  0  0  0  1  0  0  0  0  0  0
  187.2470  177.3690  144.8120 N   0  0  0  0  0  0  0  0  0  0  0  0
  188.0930  177.8400  145.8970 C   0  0  0  0  0  1  0  0  0  0  0  0
  1  8  1  0  0  0  0
  1  7  2  0  0  0  0
  2  5  2  0  0  0  0
  3  6  1  6  0  0  0
  3 12  1  0  0  0  0
  4  9  1  0  0  0  0
  4 15  1  1  0  0  0
  4  2  1  0  0  0  0
  5  7  1  0  0  0  0
  9 21  1  6  0  0  0
 10  9  1  0  0  0  0
 10 17  1  0  0  0  0
 11 15  2  0  0  0  0
 11 14  1  0  0  0  0
 12 39  1  1  0  0  0
 12 19  1  0  0  0  0
 14  8  2  0  0  0  0
 15  1  1  0  0  0  0
 16  2  1  0  0  0  0
 16  3  1  0  0  0  0
 17 13  1  6  0  0  0
 17 12  1  0  0  0  0
 18 19  1  0  0  0  0
 20 18  1  0  0  0  0
 20 19  1  0  0  0  0
 22 25  1  0  0  0  0
 22 23  1  0  0  0  0
 22 26  1  1  0  0  0
 23 24  1  1  0  0  0
 25 21  1  6  0  0  0
 25 23  1  0  0  0  0
 25 24  1  0  0  0  0
 26 27  1  1  0  0  0
 26 28  1  0  0  0  0
 28 29  2  0  0  0  0
 30 28  1  0  0  0  0
 32 37  1  0  0  0  0
 33 38  1  0  0  0  0
 34 35  1  0  0  0  0
 34 32  1  0  0  0  0
 35 31  1  6  0  0  0
 35 33  1  0  0  0  0
 37 30  1  6  0  0  0
 37 38  1  0  0  0  0
 38 36  2  0  0  0  0
 39 40  1  0  0  0  0
 40 41  1  6  0  0  0
 40 42  1  0  0  0  0
 42 43  1  0  0  0  0
 43 45  1  0  0  0  0
 44 43  2  0  0  0  0
 45 46  1  0  0  0  0
 46 47  1  0  0  0  0
 47 49  2  0  0  0  0
 47 48  1  0  0  0  0
 49 50  1  0  0  0  0
M  END
>  <MODEL>
5

>  <REMARK>
 VINA RESULT:      -5.6      4.308      7.346
  Name = 
  14 active torsions:
  status: ('A' for Active; 'I' for Inactive)
    1  A    between atoms: C_3  and  N_8
    2  A    between atoms: C_3  and  N_13
    3  A    between atoms: C_4  and  C_11
    4  A    between atoms: C_4  and  C_36
    5  A    between atoms: C_5  and  C_17
    6  A    between atoms: C_5  and  C_35
    7  A    between atoms: N_8  and  C_17
    8  A    between atoms: C_14  and  C_39
    9  A    between atoms: C_15  and  C_35
   10  A    between atoms: C_15  and  O_37
   11  A    between atoms: C_28  and  C_30
   12  A    between atoms: C_29  and  N_48
   13  A    between atoms: C_30  and  C_49
   14  A    between atoms: O_37  and  C_39
                            x       y       z     vdW  Elec       q    Type
                         _______ _______ _______ _____ _____    ______ ____

>  <TORSDO>
F 14

$$$$
=
 OpenBabel11042413243D

 50 56  0  0  1  0  0  0  0  0999 V2000
  185.6500  176.8210  136.3670 C   0  0  0  0  0  0  0  0  0  0  0  0
  183.0320  177.8100  136.4730 C   0  0  0  0  0  0  0  0  0  0  0  0
  180.6690  177.4230  137.0720 C   0  0  2  0  0  3  0  0  0  0  0  0
  184.0440  178.5960  137.3090 C   0  0  1  0  0  3  0  0  0  0  0  0
  183.3810  176.7530  135.7080 C   0  0  0  0  0  3  0  0  0  0  0  0
  179.3230  177.9370  136.5710 C   0  0  0  0  0  1  0  0  0  0  0  0
  184.7340  176.2650  135.6430 N   0  0  0  0  0  0  0  0  0  0  0  0
  187.0280  176.5120  136.3350 N   0  0  0  0  0  0  0  0  0  0  0  0
  183.5470  178.7170  138.7670 C   0  0  2  0  0  3  0  0  0  0  0  0
  182.2690  179.5550  138.8090 C   0  0  0  0  0  2  0  0  0  0  0  0
  186.5870  178.3740  137.6310 C   0  0  0  0  0  3  0  0  0  0  0  0
  180.7620  177.3660  138.6410 C   0  0  1  0  0  0  0  0  0  0  0  0
  179.9100  179.6500  138.9600 O   0  0  0  0  0  1  0  0  0  0  0  0
  187.5790  177.4210  137.0850 C   0  0  0  0  0  3  0  0  0  0  0  0
  185.4080  177.9550  137.1970 C   0  0  0  0  0  0  0  0  0  0  0  0
  181.6990  178.2170  136.4900 O   0  0  0  0  0  0  0  0  0  0  0  0
  180.9920  178.8080  139.2290 C   0  0  2  0  0  3  0  0  0  0  0  0
  179.7540  175.8970  140.4720 C   0  0  0  0  0  2  0  0  0  0  0  0
  179.4600  176.6820  139.2010 C   0  0  0  0  0  3  0  0  0  0  0  0
  178.9310  177.1630  140.5450 C   0  0  0  0  0  2  0  0  0  0  0  0
  184.5690  179.3630  139.6880 C   0  0  0  0  0  2  0  0  0  0  0  0
  185.4530  179.2680  142.0300 C   0  0  1  0  0  3  0  0  0  0  0  0
  185.3790  177.8850  141.4320 C   0  0  1  0  0  3  0  0  0  0  0  0
  184.0520  177.5130  141.1470 O   0  0  0  0  0  0  0  0  0  0  0  0
  184.3240  178.8910  141.1030 C   0  0  2  0  0  0  0  0  0  0  0  0
  184.9270  179.2810  143.4550 C   0  0  1  0  0  3  0  0  0  0  0  0
  183.5580  178.9970  143.4610 O   0  0  0  0  0  1  0  0  0  0  0  0
  185.6670  178.2700  144.2660 C   0  0  0  0  0  0  0  0  0  0  0  0
  185.1430  177.8230  145.3220 O   0  0  0  0  0  0  0  0  0  0  0  0
  186.9840  177.8660  143.8810 N   0  0  0  0  0  2  0  0  0  0  0  0
  191.8220  178.5250  143.9750 C   0  0  0  0  0  1  0  0  0  0  0  0
  188.7870  176.2010  143.8110 C   0  0  0  0  0  2  0  0  0  0  0  0
  189.9140  178.2300  145.4630 N   0  0  0  0  0  2  0  0  0  0  0  0
  189.9090  177.0880  143.2850 C   0  0  0  0  0  2  0  0  0  0  0  0
  190.7480  177.5700  144.4610 C   0  0  1  0  0  3  0  0  0  0  0  0
  187.9610  178.2470  146.7270 O   0  0  0  0  0  0  0  0  0  0  0  0
  187.8210  176.9960  144.6970 C   0  0  1  0  0  3  0  0  0  0  0  0
  188.5620  177.8270  145.7040 C   0  0  0  0  0  0  0  0  0  0  0  0
  181.8760  176.5780  139.0590 O   0  0  0  0  0  0  0  0  0  0  0  0
  181.9350  175.3370  138.3940 C   0  0  2  0  0  3  0  0  0  0  0  0
  181.1490  174.4100  139.0510 F   0  0  0  0  0  0  0  0  0  0  0  0
  183.3740  174.8530  138.3950 C   0  0  0  0  0  2  0  0  0  0  0  0
  183.5490  173.6530  137.5240 C   0  0  0  0  0  0  0  0  0  0  0  0
  182.7400  173.4290  136.6380 O   0  0  0  0  0  0  0  0  0  0  0  0
  184.7130  172.7360  137.7180 C   0  0  0  0  0  2  0  0  0  0  0  0
  185.9270  173.3280  137.1730 N   0  0  0  0  0  2  0  0  0  0  0  0
  186.5800  172.8240  136.0080 C   0  0  0  0  0  0  0  0  0  0  0  0
  185.8780  172.1030  135.1420 C   0  0  0  0  0  2  0  0  0  0  0  0
  187.9670  173.1010  135.7820 N   0  0  0  0  0  2  0  0  0  0  0  0
  188.9140  173.3860  136.8480 C   0  0  0  0  0  1  0  0  0  0  0  0
  1 15  1  0  0  0  0
  2 16  1  0  0  0  0
  3  6  1  1  0  0  0
  3 12  1  0  0  0  0
  4  2  1  6  0  0  0
  4  9  1  0  0  0  0
  5  2  2  0  0  0  0
  7  5  1  0  0  0  0
  7  1  2  0  0  0  0
  8  1  1  0  0  0  0
  8 14  2  0  0  0  0
  9 10  1  0  0  0  0
  9 21  1  1  0  0  0
 10 17  1  0  0  0  0
 12 39  1  1  0  0  0
 12 19  1  0  0  0  0
 12 17  1  0  0  0  0
 14 11  1  0  0  0  0
 15  4  1  0  0  0  0
 15 11  2  0  0  0  0
 16  3  1  0  0  0  0
 17 13  1  6  0  0  0
 18 20  1  0  0  0  0
 19 18  1  0  0  0  0
 19 20  1  0  0  0  0
 22 26  1  1  0  0  0
 23 24  1  1  0  0  0
 23 22  1  0  0  0  0
 25 21  1  6  0  0  0
 25 24  1  0  0  0  0
 25 23  1  0  0  0  0
 25 22  1  0  0  0  0
 26 27  1  6  0  0  0
 26 28  1  0  0  0  0
 28 29  2  0  0  0  0
 30 28  1  0  0  0  0
 32 37  1  0  0  0  0
 33 38  1  0  0  0  0
 34 32  1  0  0  0  0
 34 35  1  0  0  0  0
 35 31  1  6  0  0  0
 35 33  1  0  0  0  0
 37 30  1  6  0  0  0
 37 38  1  0  0  0  0
 38 36  2  0  0  0  0
 40 42  1  0  0  0  0
 40 41  1  1  0  0  0
 40 39  1  0  0  0  0
 43 45  1  0  0  0  0
 43 42  1  0  0  0  0
 44 43  2  0  0  0  0
 46 45  1  0  0  0  0
 47 46  1  0  0  0  0
 48 47  2  0  0  0  0
 49 47  1  0  0  0  0
 49 50  1  0  0  0  0
M  END
>  <MODEL>
6

>  <REMARK>
 VINA RESULT:      -5.4      4.537      9.828
  Name = 
  14 active torsions:
  status: ('A' for Active; 'I' for Inactive)
    1  A    between atoms: C_3  and  N_8
    2  A    between atoms: C_3  and  N_13
    3  A    between atoms: C_4  and  C_11
    4  A    between atoms: C_4  and  C_36
    5  A    between atoms: C_5  and  C_17
    6  A    between atoms: C_5  and  C_35
    7  A    between atoms: N_8  and  C_17
    8  A    between atoms: C_14  and  C_39
    9  A    between atoms: C_15  and  C_35
   10  A    between atoms: C_15  and  O_37
   11  A    between atoms: C_28  and  C_30
   12  A    between atoms: C_29  and  N_48
   13  A    between atoms: C_30  and  C_49
   14  A    between atoms: O_37  and  C_39
                            x       y       z     vdW  Elec       q    Type
                         _______ _______ _______ _____ _____    ______ ____

>  <TORSDO>
F 14

$$$$
=
 OpenBabel11042413243D

 50 56  0  0  1  0  0  0  0  0999 V2000
  185.9470  173.3340  137.4640 C   0  0  0  0  0  0  0  0  0  0  0  0
  183.6430  174.7280  136.6950 C   0  0  0  0  0  0  0  0  0  0  0  0
  181.7840  176.2190  137.3400 C   0  0  2  0  0  3  0  0  0  0  0  0
  184.9210  175.1620  135.9730 C   0  0  1  0  0  3  0  0  0  0  0  0
  183.6190  173.7230  137.5970 C   0  0  0  0  0  3  0  0  0  0  0  0
  180.3550  176.4460  136.8560 C   0  0  0  0  0  1  0  0  0  0  0  0
  184.8050  172.9970  137.9700 N   0  0  0  0  0  0  0  0  0  0  0  0
  187.1700  172.6560  137.6630 N   0  0  0  0  0  0  0  0  0  0  0  0
  185.1160  176.6880  136.1100 C   0  0  2  0  0  3  0  0  0  0  0  0
  183.9870  177.4200  135.3830 C   0  0  0  0  0  2  0  0  0  0  0  0
  187.3450  174.3060  136.0550 C   0  0  0  0  0  3  0  0  0  0  0  0
  182.5570  177.5590  137.6260 C   0  0  1  0  0  0  0  0  0  0  0  0
  181.9350  178.5930  135.4840 O   0  0  0  0  0  1  0  0  0  0  0  0
  187.9950  173.2330  136.8400 C   0  0  0  0  0  3  0  0  0  0  0  0
  186.0960  174.3640  136.4890 C   0  0  0  0  0  0  0  0  0  0  0  0
  182.4540  175.3900  136.3940 O   0  0  0  0  0  0  0  0  0  0  0  0
  183.0240  178.2210  136.2760 C   0  0  2  0  0  3  0  0  0  0  0  0
  182.0640  179.9580  138.3480 C   0  0  0  0  0  2  0  0  0  0  0  0
  181.6340  178.5040  138.4800 C   0  0  0  0  0  3  0  0  0  0  0  0
  180.7610  179.5030  137.7330 C   0  0  0  0  0  2  0  0  0  0  0  0
  186.4390  177.1680  135.5380 C   0  0  0  0  0  2  0  0  0  0  0  0
  188.0070  177.0260  137.4870 C   0  0  1  0  0  3  0  0  0  0  0  0
  186.6470  177.5080  137.9300 C   0  0  1  0  0  3  0  0  0  0  0  0
  186.3230  178.7500  137.3550 O   0  0  0  0  0  0  0  0  0  0  0  0
  187.1870  177.9350  136.6050 C   0  0  2  0  0  0  0  0  0  0  0  0
  189.1160  177.8430  138.1280 C   0  0  1  0  0  3  0  0  0  0  0  0
  188.5880  179.0110  138.6850 O   0  0  0  0  0  1  0  0  0  0  0  0
  189.7880  177.0260  139.1800 C   0  0  0  0  0  0  0  0  0  0  0  0
  190.5130  176.0530  138.8360 O   0  0  0  0  0  0  0  0  0  0  0  0
  189.5580  177.3070  140.5640 N   0  0  0  0  0  2  0  0  0  0  0  0
  191.1630  179.3510  144.6980 C   0  0  0  0  0  1  0  0  0  0  0  0
  191.5430  176.7670  141.9030 C   0  0  0  0  0  2  0  0  0  0  0  0
  189.6840  177.5850  143.9000 N   0  0  0  0  0  2  0  0  0  0  0  0
  191.7180  178.1010  142.6180 C   0  0  0  0  0  2  0  0  0  0  0  0
  191.0790  178.0090  143.9970 C   0  0  1  0  0  3  0  0  0  0  0  0
  188.0960  176.1650  142.9640 O   0  0  0  0  0  0  0  0  0  0  0  0
  190.0620  176.4680  141.6420 C   0  0  1  0  0  3  0  0  0  0  0  0
  189.2340  176.6950  142.8740 C   0  0  0  0  0  0  0  0  0  0  0  0
  183.7410  177.3130  138.3840 O   0  0  0  0  0  0  0  0  0  0  0  0
  183.4590  176.8520  139.6860 C   0  0  2  0  0  3  0  0  0  0  0  0
  182.2790  176.1330  139.6890 F   0  0  0  0  0  0  0  0  0  0  0  0
  183.3070  178.0520  140.6040 C   0  0  0  0  0  2  0  0  0  0  0  0
  184.6090  178.7540  140.8080 C   0  0  0  0  0  0  0  0  0  0  0  0
  184.9010  179.6990  140.0930 O   0  0  0  0  0  0  0  0  0  0  0  0
  185.5460  178.3200  141.8880 C   0  0  0  0  0  2  0  0  0  0  0  0
  184.8040  177.8750  143.0600 N   0  0  0  0  0  2  0  0  0  0  0  0
  184.5740  178.7110  144.1940 C   0  0  0  0  0  0  0  0  0  0  0  0
  183.3790  179.2690  144.3460 C   0  0  0  0  0  2  0  0  0  0  0  0
  185.6170  178.9310  145.1510 N   0  0  0  0  0  2  0  0  0  0  0  0
  186.4750  177.8750  145.6630 C   0  0  0  0  0  1  0  0  0  0  0  0
  1  8  1  0  0  0  0
  1  7  2  0  0  0  0
  2  5  2  0  0  0  0
  3  6  1  6  0  0  0
  3 12  1  0  0  0  0
  4  9  1  0  0  0  0
  4 15  1  1  0  0  0
  4  2  1  0  0  0  0
  5  7  1  0  0  0  0
  9 21  1  6  0  0  0
 10  9  1  0  0  0  0
 10 17  1  0  0  0  0
 11 15  2  0  0  0  0
 11 14  1  0  0  0  0
 12 39  1  1  0  0  0
 12 19  1  0  0  0  0
 14  8  2  0  0  0  0
 15  1  1  0  0  0  0
 16  2  1  0  0  0  0
 16  3  1  0  0  0  0
 17 13  1  6  0  0  0
 17 12  1  0  0  0  0
 18 19  1  0  0  0  0
 20 18  1  0  0  0  0
 20 19  1  0  0  0  0
 22 23  1  0  0  0  0
 22 26  1  1  0  0  0
 23 24  1  1  0  0  0
 25 21  1  6  0  0  0
 25 24  1  0  0  0  0
 25 22  1  0  0  0  0
 25 23  1  0  0  0  0
 26 27  1  1  0  0  0
 26 28  1  0  0  0  0
 28 30  1  0  0  0  0
 29 28  2  0  0  0  0
 32 34  1  0  0  0  0
 33 35  1  0  0  0  0
 34 35  1  0  0  0  0
 35 31  1  6  0  0  0
 37 30  1  6  0  0  0
 37 32  1  0  0  0  0
 37 38  1  0  0  0  0
 38 36  2  0  0  0  0
 38 33  1  0  0  0  0
 39 40  1  0  0  0  0
 40 41  1  6  0  0  0
 40 42  1  0  0  0  0
 42 43  1  0  0  0  0
 43 45  1  0  0  0  0
 44 43  2  0  0  0  0
 45 46  1  0  0  0  0
 46 47  1  0  0  0  0
 47 48  2  0  0  0  0
 47 49  1  0  0  0  0
 49 50  1  0  0  0  0
M  END
>  <MODEL>
7

>  <REMARK>
 VINA RESULT:      -5.2      3.844      7.624
  Name = 
  14 active torsions:
  status: ('A' for Active; 'I' for Inactive)
    1  A    between atoms: C_3  and  N_8
    2  A    between atoms: C_3  and  N_13
    3  A    between atoms: C_4  and  C_11
    4  A    between atoms: C_4  and  C_36
    5  A    between atoms: C_5  and  C_17
    6  A    between atoms: C_5  and  C_35
    7  A    between atoms: N_8  and  C_17
    8  A    between atoms: C_14  and  C_39
    9  A    between atoms: C_15  and  C_35
   10  A    between atoms: C_15  and  O_37
   11  A    between atoms: C_28  and  C_30
   12  A    between atoms: C_29  and  N_48
   13  A    between atoms: C_30  and  C_49
   14  A    between atoms: O_37  and  C_39
                            x       y       z     vdW  Elec       q    Type
                         _______ _______ _______ _____ _____    ______ ____

>  <TORSDO>
F 14

$$$$
=
 OpenBabel11042413243D

 50 56  0  0  1  0  0  0  0  0999 V2000
  185.6380  173.3520  137.2050 C   0  0  0  0  0  0  0  0  0  0  0  0
  183.2640  174.7800  136.7940 C   0  0  0  0  0  0  0  0  0  0  0  0
  181.5470  176.2980  137.7110 C   0  0  2  0  0  3  0  0  0  0  0  0
  184.4220  175.1940  135.8830 C   0  0  1  0  0  3  0  0  0  0  0  0
  183.3640  173.7760  137.6910 C   0  0  0  0  0  3  0  0  0  0  0  0
  180.0640  176.5450  137.4510 C   0  0  0  0  0  1  0  0  0  0  0  0
  184.5820  173.0320  137.8800 N   0  0  0  0  0  0  0  0  0  0  0  0
  186.8680  172.6560  137.2160 N   0  0  0  0  0  0  0  0  0  0  0  0
  184.6570  176.7170  135.9850 C   0  0  2  0  0  3  0  0  0  0  0  0
  183.4420  177.4660  135.4370 C   0  0  0  0  0  2  0  0  0  0  0  0
  186.8180  174.3040  135.5960 C   0  0  0  0  0  3  0  0  0  0  0  0
  182.3740  177.6260  137.8720 C   0  0  1  0  0  0  0  0  0  0  0  0
  181.4460  178.6690  135.8480 O   0  0  0  0  0  1  0  0  0  0  0  0
  187.5650  173.2210  136.2740 C   0  0  0  0  0  3  0  0  0  0  0  0
  185.6500  174.3800  136.2150 C   0  0  0  0  0  0  0  0  0  0  0  0
  182.0520  175.4590  136.6760 O   0  0  0  0  0  0  0  0  0  0  0  0
  182.6380  178.2810  136.4650 C   0  0  2  0  0  3  0  0  0  0  0  0
  182.0090  180.0360  138.6330 C   0  0  0  0  0  2  0  0  0  0  0  0
  181.6060  178.5860  138.8550 C   0  0  0  0  0  3  0  0  0  0  0  0
  180.6210  179.5770  138.2490 C   0  0  0  0  0  2  0  0  0  0  0  0
  185.8850  177.1780  135.2160 C   0  0  0  0  0  2  0  0  0  0  0  0
  187.0290  177.4720  137.4250 C   0  0  1  0  0  3  0  0  0  0  0  0
  187.7830  178.1910  136.3340 C   0  0  1  0  0  3  0  0  0  0  0  0
  188.2890  177.2950  135.3740 O   0  0  0  0  0  0  0  0  0  0  0  0
  187.1200  176.8860  136.0380 C   0  0  2  0  0  0  0  0  0  0  0  0
  187.9740  176.7080  138.3360 C   0  0  1  0  0  3  0  0  0  0  0  0
  188.9710  176.0870  137.5790 O   0  0  0  0  0  1  0  0  0  0  0  0
  188.5840  177.6500  139.3200 C   0  0  0  0  0  0  0  0  0  0  0  0
  188.4200  178.8910  139.1680 O   0  0  0  0  0  0  0  0  0  0  0  0
  189.3990  177.1500  140.3840 N   0  0  0  0  0  2  0  0  0  0  0  0
  191.6360  175.2380  144.2810 C   0  0  0  0  0  1  0  0  0  0  0  0
  189.5070  177.9890  142.6880 C   0  0  0  0  0  2  0  0  0  0  0  0
  192.0440  176.7280  142.3950 N   0  0  0  0  0  2  0  0  0  0  0  0
  189.8030  176.6770  143.4050 C   0  0  0  0  0  2  0  0  0  0  0  0
  191.3030  176.5740  143.6450 C   0  0  1  0  0  3  0  0  0  0  0  0
  192.3470  177.8650  140.3880 O   0  0  0  0  0  0  0  0  0  0  0  0
  190.1410  178.0130  141.2930 C   0  0  1  0  0  3  0  0  0  0  0  0
  191.5750  177.5680  141.3370 C   0  0  0  0  0  0  0  0  0  0  0  0
  183.6570  177.3640  138.4410 O   0  0  0  0  0  0  0  0  0  0  0  0
  183.5690  176.8850  139.7640 C   0  0  2  0  0  3  0  0  0  0  0  0
  182.3700  176.2260  139.9510 F   0  0  0  0  0  0  0  0  0  0  0  0
  183.6350  178.0680  140.7130 C   0  0  0  0  0  2  0  0  0  0  0  0
  184.9410  178.7840  140.6070 C   0  0  0  0  0  0  0  0  0  0  0  0
  185.2250  179.3670  139.5730 O   0  0  0  0  0  0  0  0  0  0  0  0
  185.8920  178.8060  141.7590 C   0  0  0  0  0  2  0  0  0  0  0  0
  185.4490  177.8950  142.8060 N   0  0  0  0  0  2  0  0  0  0  0  0
  185.4800  178.2340  144.1930 C   0  0  0  0  0  0  0  0  0  0  0  0
  186.4850  177.7900  144.9380 C   0  0  0  0  0  2  0  0  0  0  0  0
  184.4460  179.0470  144.7590 N   0  0  0  0  0  2  0  0  0  0  0  0
  183.0670  179.0330  144.2950 C   0  0  0  0  0  1  0  0  0  0  0  0
  1  8  1  0  0  0  0
  1  7  2  0  0  0  0
  2  5  2  0  0  0  0
  3  6  1  6  0  0  0
  3 12  1  0  0  0  0
  4  9  1  0  0  0  0
  4 15  1  1  0  0  0
  4  2  1  0  0  0  0
  5  7  1  0  0  0  0
  9 21  1  6  0  0  0
 10  9  1  0  0  0  0
 10 17  1  0  0  0  0
 11 15  2  0  0  0  0
 11 14  1  0  0  0  0
 12 39  1  1  0  0  0
 12 19  1  0  0  0  0
 14  8  2  0  0  0  0
 15  1  1  0  0  0  0
 16  2  1  0  0  0  0
 16  3  1  0  0  0  0
 17 13  1  6  0  0  0
 17 12  1  0  0  0  0
 18 19  1  0  0  0  0
 20 18  1  0  0  0  0
 20 19  1  0  0  0  0
 22 26  1  1  0  0  0
 23 24  1  1  0  0  0
 23 22  1  0  0  0  0
 24 25  1  0  0  0  0
 25 21  1  6  0  0  0
 25 23  1  0  0  0  0
 25 22  1  0  0  0  0
 26 27  1  6  0  0  0
 26 28  1  0  0  0  0
 28 30  1  0  0  0  0
 29 28  2  0  0  0  0
 32 34  1  0  0  0  0
 33 35  1  0  0  0  0
 34 35  1  0  0  0  0
 35 31  1  6  0  0  0
 36 38  2  0  0  0  0
 37 30  1  6  0  0  0
 37 38  1  0  0  0  0
 37 32  1  0  0  0  0
 38 33  1  0  0  0  0
 39 40  1  0  0  0  0
 40 41  1  6  0  0  0
 40 42  1  0  0  0  0
 43 42  1  0  0  0  0
 43 45  1  0  0  0  0
 44 43  2  0  0  0  0
 45 46  1  0  0  0  0
 46 47  1  0  0  0  0
 47 49  1  0  0  0  0
 47 48  2  0  0  0  0
 50 49  1  0  0  0  0
M  END
>  <MODEL>
8

>  <REMARK>
 VINA RESULT:      -5.1      4.081      7.559
  Name = 
  14 active torsions:
  status: ('A' for Active; 'I' for Inactive)
    1  A    between atoms: C_3  and  N_8
    2  A    between atoms: C_3  and  N_13
    3  A    between atoms: C_4  and  C_11
    4  A    between atoms: C_4  and  C_36
    5  A    between atoms: C_5  and  C_17
    6  A    between atoms: C_5  and  C_35
    7  A    between atoms: N_8  and  C_17
    8  A    between atoms: C_14  and  C_39
    9  A    between atoms: C_15  and  C_35
   10  A    between atoms: C_15  and  O_37
   11  A    between atoms: C_28  and  C_30
   12  A    between atoms: C_29  and  N_48
   13  A    between atoms: C_30  and  C_49
   14  A    between atoms: O_37  and  C_39
                            x       y       z     vdW  Elec       q    Type
                         _______ _______ _______ _____ _____    ______ ____

>  <TORSDO>
F 14

$$$$
=
 OpenBabel11042413243D

 50 56  0  0  1  0  0  0  0  0999 V2000
  184.0640  178.6330  141.2890 C   0  0  0  0  0  0  0  0  0  0  0  0
  182.9860  176.9310  139.3430 C   0  0  0  0  0  0  0  0  0  0  0  0
  181.3590  176.6040  137.5140 C   0  0  2  0  0  3  0  0  0  0  0  0
  184.4730  177.2410  139.1650 C   0  0  1  0  0  3  0  0  0  0  0  0
  182.2600  177.4030  140.3800 C   0  0  0  0  0  3  0  0  0  0  0  0
  180.6110  175.4120  136.9260 C   0  0  0  0  0  1  0  0  0  0  0  0
  182.8290  178.2590  141.3890 N   0  0  0  0  0  0  0  0  0  0  0  0
  184.7770  179.3890  142.2460 N   0  0  0  0  0  0  0  0  0  0  0  0
  184.7370  177.7770  137.7410 C   0  0  2  0  0  3  0  0  0  0  0  0
  184.4380  176.6850  136.7140 C   0  0  0  0  0  2  0  0  0  0  0  0
  186.1510  178.5990  140.5640 C   0  0  0  0  0  3  0  0  0  0  0  0
  181.9430  177.5680  136.4170 C   0  0  1  0  0  0  0  0  0  0  0  0
  182.9680  175.7580  135.1070 O   0  0  0  0  0  1  0  0  0  0  0  0
  186.0040  179.3750  141.8150 C   0  0  0  0  0  3  0  0  0  0  0  0
  184.9330  178.1860  140.2500 C   0  0  0  0  0  0  0  0  0  0  0  0
  182.3600  176.1140  138.4030 O   0  0  0  0  0  0  0  0  0  0  0  0
  183.2440  176.9510  135.7810 C   0  0  2  0  0  3  0  0  0  0  0  0
  180.4430  176.5930  134.5950 C   0  0  0  0  0  2  0  0  0  0  0  0
  180.8230  177.8580  135.3500 C   0  0  0  0  0  3  0  0  0  0  0  0
  179.4600  177.2120  135.5620 C   0  0  0  0  0  2  0  0  0  0  0  0
  186.1700  178.2400  137.5390 C   0  0  0  0  0  2  0  0  0  0  0  0
  188.1300  176.9080  136.7270 C   0  0  1  0  0  3  0  0  0  0  0  0
  188.0110  178.2030  135.9610 C   0  0  1  0  0  3  0  0  0  0  0  0
  186.8200  178.2580  135.2160 O   0  0  0  0  0  0  0  0  0  0  0  0
  186.7760  177.4760  136.3830 C   0  0  2  0  0  0  0  0  0  0  0  0
  188.4170  175.7420  135.7960 C   0  0  1  0  0  3  0  0  0  0  0  0
  189.7710  175.7280  135.4490 O   0  0  0  0  0  1  0  0  0  0  0  0
  188.0440  174.4650  136.4710 C   0  0  0  0  0  0  0  0  0  0  0  0
  188.9030  173.8640  137.1720 O   0  0  0  0  0  0  0  0  0  0  0  0
  186.7460  173.8980  136.2710 N   0  0  0  0  0  2  0  0  0  0  0  0
  182.1730  172.2950  135.6620 C   0  0  0  0  0  1  0  0  0  0  0  0
  185.2780  172.7310  137.8550 C   0  0  0  0  0  2  0  0  0  0  0  0
  184.4890  171.5940  135.3650 N   0  0  0  0  0  2  0  0  0  0  0  0
  183.9310  173.0870  137.2370 C   0  0  0  0  0  2  0  0  0  0  0  0
  183.4710  171.9330  136.3580 C   0  0  1  0  0  3  0  0  0  0  0  0
  186.7280  171.2120  134.8620 O   0  0  0  0  0  0  0  0  0  0  0  0
  186.3600  172.5890  136.7790 C   0  0  1  0  0  3  0  0  0  0  0  0
  185.8870  171.7360  135.6370 C   0  0  0  0  0  0  0  0  0  0  0  0
  182.3280  178.8190  136.9880 O   0  0  0  0  0  0  0  0  0  0  0  0
  181.2210  179.6460  137.2640 C   0  0  2  0  0  3  0  0  0  0  0  0
  181.1070  180.6240  136.2940 F   0  0  0  0  0  0  0  0  0  0  0  0
  181.4350  180.3100  138.6120 C   0  0  0  0  0  2  0  0  0  0  0  0
  180.6400  181.5690  138.7350 C   0  0  0  0  0  0  0  0  0  0  0  0
  181.1270  182.6260  138.3670 O   0  0  0  0  0  0  0  0  0  0  0  0
  179.2520  181.5410  139.2870 C   0  0  0  0  0  2  0  0  0  0  0  0
  179.2800  181.5760  140.7430 N   0  0  0  0  0  2  0  0  0  0  0  0
  179.4230  180.4030  141.5440 C   0  0  0  0  0  0  0  0  0  0  0  0
  178.9480  179.2520  141.0840 C   0  0  0  0  0  2  0  0  0  0  0  0
  180.0750  180.4750  142.8170 N   0  0  0  0  0  2  0  0  0  0  0  0
  180.2170  179.3390  143.7130 C   0  0  0  0  0  1  0  0  0  0  0  0
  1  7  2  0  0  0  0
  1  8  1  0  0  0  0
  2  5  2  0  0  0  0
  3  6  1  6  0  0  0
  3 16  1  0  0  0  0
  4  2  1  6  0  0  0
  4 15  1  0  0  0  0
  5  7  1  0  0  0  0
  9 21  1  1  0  0  0
  9  4  1  0  0  0  0
 10  9  1  0  0  0  0
 11 14  1  0  0  0  0
 12 39  1  1  0  0  0
 12  3  1  0  0  0  0
 14  8  2  0  0  0  0
 15 11  2  0  0  0  0
 15  1  1  0  0  0  0
 16  2  1  0  0  0  0
 17 13  1  1  0  0  0
 17 12  1  0  0  0  0
 17 10  1  0  0  0  0
 18 19  1  0  0  0  0
 18 20  1  0  0  0  0
 19 20  1  0  0  0  0
 19 12  1  0  0  0  0
 22 26  1  6  0  0  0
 23 24  1  6  0  0  0
 23 25  1  0  0  0  0
 23 22  1  0  0  0  0
 24 25  1  0  0  0  0
 25 22  1  0  0  0  0
 25 21  1  1  0  0  0
 26 27  1  1  0  0  0
 26 28  1  0  0  0  0
 28 29  2  0  0  0  0
 30 28  1  0  0  0  0
 33 38  1  0  0  0  0
 33 35  1  0  0  0  0
 34 32  1  0  0  0  0
 35 31  1  6  0  0  0
 35 34  1  0  0  0  0
 36 38  2  0  0  0  0
 37 30  1  6  0  0  0
 37 32  1  0  0  0  0
 38 37  1  0  0  0  0
 39 40  1  0  0  0  0
 40 41  1  6  0  0  0
 40 42  1  0  0  0  0
 42 43  1  0  0  0  0
 43 45  1  0  0  0  0
 44 43  2  0  0  0  0
 45 46  1  0  0  0  0
 46 47  1  0  0  0  0
 47 49  1  0  0  0  0
 48 47  2  0  0  0  0
 49 50  1  0  0  0  0
M  END
>  <MODEL>
9

>  <REMARK>
 VINA RESULT:      -5.1      5.382      8.723
  Name = 
  14 active torsions:
  status: ('A' for Active; 'I' for Inactive)
    1  A    between atoms: C_3  and  N_8
    2  A    between atoms: C_3  and  N_13
    3  A    between atoms: C_4  and  C_11
    4  A    between atoms: C_4  and  C_36
    5  A    between atoms: C_5  and  C_17
    6  A    between atoms: C_5  and  C_35
    7  A    between atoms: N_8  and  C_17
    8  A    between atoms: C_14  and  C_39
    9  A    between atoms: C_15  and  C_35
   10  A    between atoms: C_15  and  O_37
   11  A    between atoms: C_28  and  C_30
   12  A    between atoms: C_29  and  N_48
   13  A    between atoms: C_30  and  C_49
   14  A    between atoms: O_37  and  C_39
                            x       y       z     vdW  Elec       q    Type
                         _______ _______ _______ _____ _____    ______ ____

>  <TORSDO>
F 14

$$$$
