=
 OpenBabel11032419203D

 25 26  0  0  1  0  0  0  0  0999 V2000
  191.2310  177.2870  141.6760 C   0  0  0  0  0  1  0  0  0  0  0  0
  188.8140  178.1330  142.3430 C   0  0  1  0  0  3  0  0  0  0  0  0
  189.8390  177.6890  141.3240 C   0  0  0  0  0  0  0  0  0  0  0  0
  187.6470  178.4590  141.4660 C   0  0  0  0  0  0  0  0  0  0  0  0
  186.5390  178.9060  141.8650 O   0  0  0  0  0  0  0  0  0  0  0  0
  187.2470  178.3690  139.0900 O   0  0  0  0  0  0  0  0  0  0  0  0
  187.9960  178.2040  140.0880 C   0  0  0  0  0  0  0  0  0  0  0  0
  189.3700  177.7330  140.0760 C   0  0  0  0  0  0  0  0  0  0  0  0
  188.4810  177.0220  143.3010 C   0  0  0  0  0  0  0  0  0  0  0  0
  188.3440  175.8440  142.8690 O   0  0  0  0  0  0  0  0  0  0  0  0
  188.0190  177.8260  147.4840 C   0  0  0  0  0  0  0  0  0  0  0  0
  189.4040  177.1480  145.6160 C   0  0  0  0  0  3  0  0  0  0  0  0
  189.2550  177.4110  146.9800 C   0  0  0  0  0  3  0  0  0  0  0  0
  187.0810  177.7170  145.2540 C   0  0  0  0  0  3  0  0  0  0  0  0
  186.9270  177.9800  146.6180 C   0  0  0  0  0  0  0  0  0  0  0  0
  188.3180  177.2990  144.7410 C   0  0  0  0  0  0  0  0  0  0  0  0
  185.3650  178.5000  147.2200 Cl  0  0  0  0  0  0  0  0  0  0  0  0
  187.8860  178.0840  148.8430 O   0  0  0  0  0  1  0  0  0  0  0  0
  190.1350  177.3760  138.9210 N   0  0  0  0  0  2  0  0  0  0  0  0
  190.0060  176.0900  138.2570 C   0  0  0  0  0  2  0  0  0  0  0  0
  191.2780  175.3880  138.2960 N   0  0  0  0  0  2  0  0  0  0  0  0
  192.0130  175.7660  137.1010 C   0  0  0  0  0  2  0  0  0  0  0  0
  194.2110  176.5510  136.6340 O   0  0  0  0  0  0  0  0  0  0  0  0
  193.2970  176.4080  137.4870 C   0  0  0  0  0  0  0  0  0  0  0  0
  193.5040  176.8140  138.7980 O   0  0  0  0  0  1  0  0  0  0  0  0
  2  9  1  1  0  0  0
  3  1  1  0  0  0  0
  3  2  1  0  0  0  0
  4  5  2  0  0  0  0
  4  2  1  0  0  0  0
  6  7  2  0  0  0  0
  7  4  1  0  0  0  0
  8  7  1  0  0  0  0
  8  3  2  0  0  0  0
  9 16  1  0  0  0  0
 10  9  2  0  0  0  0
 11 18  1  0  0  0  0
 12 13  2  0  0  0  0
 13 11  1  0  0  0  0
 14 15  1  0  0  0  0
 15 17  1  0  0  0  0
 15 11  2  0  0  0  0
 16 14  2  0  0  0  0
 16 12  1  0  0  0  0
 19  8  1  0  0  0  0
 20 21  1  0  0  0  0
 20 19  1  0  0  0  0
 22 24  1  0  0  0  0
 22 21  1  0  0  0  0
 23 24  2  0  0  0  0
 24 25  1  0  0  0  0
M  END
>  <MODEL>
1

>  <REMARK>
 VINA RESULT:      -8.1      0.000      0.000
  Name = 
  7 active torsions:
  status: ('A' for Active; 'I' for Inactive)
    1  A    between atoms: N_1  and  C_19
    2  A    between atoms: N_1  and  C_25
    3  A    between atoms: N_4  and  C_19
    4  A    between atoms: N_4  and  C_20
    5  A    between atoms: C_5  and  C_10
    6  A    between atoms: C_10  and  C_17
    7  A    between atoms: C_20  and  C_22
                            x       y       z     vdW  Elec       q    Type
                         _______ _______ _______ _____ _____    ______ ____

>  <TORSDO>
F 7

$$$$
=
 OpenBabel11032419203D

 25 26  0  0  1  0  0  0  0  0999 V2000
  186.9750  178.8360  141.8190 C   0  0  0  0  0  1  0  0  0  0  0  0
  188.7440  177.0780  142.7040 C   0  0  1  0  0  3  0  0  0  0  0  0
  188.1340  177.9220  141.6080 C   0  0  0  0  0  0  0  0  0  0  0  0
  189.8050  176.3380  141.9520 C   0  0  0  0  0  0  0  0  0  0  0  0
  190.5800  175.4760  142.4440 O   0  0  0  0  0  0  0  0  0  0  0  0
  190.5480  176.3270  139.6580 O   0  0  0  0  0  0  0  0  0  0  0  0
  189.7870  176.7490  140.5670 C   0  0  0  0  0  0  0  0  0  0  0  0
  188.7240  177.7290  140.4270 C   0  0  0  0  0  0  0  0  0  0  0  0
  189.3430  177.9370  143.7850 C   0  0  0  0  0  0  0  0  0  0  0  0
  190.2570  178.7590  143.4950 O   0  0  0  0  0  0  0  0  0  0  0  0
  187.9650  177.6220  147.8290 C   0  0  0  0  0  0  0  0  0  0  0  0
  189.7530  177.4780  146.2020 C   0  0  0  0  0  3  0  0  0  0  0  0
  189.3060  177.3750  147.5220 C   0  0  0  0  0  3  0  0  0  0  0  0
  187.5200  178.0770  145.4920 C   0  0  0  0  0  3  0  0  0  0  0  0
  187.0680  177.9740  146.8100 C   0  0  0  0  0  0  0  0  0  0  0  0
  188.8650  177.8300  145.1760 C   0  0  0  0  0  0  0  0  0  0  0  0
  185.3800  178.2900  147.1640 Cl  0  0  0  0  0  0  0  0  0  0  0  0
  187.5340  177.5160  149.1450 O   0  0  0  0  0  1  0  0  0  0  0  0
  188.3360  178.3930  139.2210 N   0  0  0  0  0  2  0  0  0  0  0  0
  187.5390  177.7500  138.1890 C   0  0  0  0  0  2  0  0  0  0  0  0
  186.4610  178.6340  137.7790 N   0  0  0  0  0  2  0  0  0  0  0  0
  185.2140  177.9960  138.1630 C   0  0  0  0  0  2  0  0  0  0  0  0
  184.6060  180.0850  139.1280 O   0  0  0  0  0  0  0  0  0  0  0  0
  184.5170  178.8310  139.1770 C   0  0  0  0  0  0  0  0  0  0  0  0
  183.8010  178.2260  140.2010 O   0  0  0  0  0  1  0  0  0  0  0  0
  2  9  1  1  0  0  0
  3  1  1  0  0  0  0
  3  2  1  0  0  0  0
  4  5  2  0  0  0  0
  4  2  1  0  0  0  0
  6  7  2  0  0  0  0
  7  4  1  0  0  0  0
  8  7  1  0  0  0  0
  8  3  2  0  0  0  0
  9 16  1  0  0  0  0
 10  9  2  0  0  0  0
 11 18  1  0  0  0  0
 12 13  2  0  0  0  0
 13 11  1  0  0  0  0
 14 15  1  0  0  0  0
 15 17  1  0  0  0  0
 15 11  2  0  0  0  0
 16 14  2  0  0  0  0
 16 12  1  0  0  0  0
 19  8  1  0  0  0  0
 20 19  1  0  0  0  0
 21 22  1  0  0  0  0
 21 20  1  0  0  0  0
 22 24  1  0  0  0  0
 23 24  2  0  0  0  0
 24 25  1  0  0  0  0
M  END
>  <MODEL>
2

>  <REMARK>
 VINA RESULT:      -8.0      2.346      4.453
  Name = 
  7 active torsions:
  status: ('A' for Active; 'I' for Inactive)
    1  A    between atoms: N_1  and  C_19
    2  A    between atoms: N_1  and  C_25
    3  A    between atoms: N_4  and  C_19
    4  A    between atoms: N_4  and  C_20
    5  A    between atoms: C_5  and  C_10
    6  A    between atoms: C_10  and  C_17
    7  A    between atoms: C_20  and  C_22
                            x       y       z     vdW  Elec       q    Type
                         _______ _______ _______ _____ _____    ______ ____

>  <TORSDO>
F 7

$$$$
=
 OpenBabel11032419203D

 25 26  0  0  1  0  0  0  0  0999 V2000
  191.3850  177.2990  141.8710 C   0  0  0  0  0  1  0  0  0  0  0  0
  188.9210  178.1270  142.3650 C   0  0  1  0  0  3  0  0  0  0  0  0
  190.0160  177.6830  141.4230 C   0  0  0  0  0  0  0  0  0  0  0  0
  187.8120  178.4300  141.4090 C   0  0  0  0  0  0  0  0  0  0  0  0
  186.6750  178.8690  141.7270 O   0  0  0  0  0  0  0  0  0  0  0  0
  187.5730  178.3110  139.0120 O   0  0  0  0  0  0  0  0  0  0  0  0
  188.2550  178.1650  140.0600 C   0  0  0  0  0  0  0  0  0  0  0  0
  189.6310  177.7080  140.1460 C   0  0  0  0  0  0  0  0  0  0  0  0
  188.5350  177.0220  143.3120 C   0  0  0  0  0  0  0  0  0  0  0  0
  188.3760  175.8490  142.8720 O   0  0  0  0  0  0  0  0  0  0  0  0
  188.0020  177.8260  147.4860 C   0  0  0  0  0  0  0  0  0  0  0  0
  189.4160  177.1420  145.6430 C   0  0  0  0  0  3  0  0  0  0  0  0
  189.2440  177.4040  147.0040 C   0  0  0  0  0  3  0  0  0  0  0  0
  187.1040  177.7230  145.2390 C   0  0  0  0  0  3  0  0  0  0  0  0
  186.9270  177.9850  146.6010 C   0  0  0  0  0  0  0  0  0  0  0  0
  188.3480  177.2990  144.7490 C   0  0  0  0  0  0  0  0  0  0  0  0
  185.3560  178.5130  147.1750 Cl  0  0  0  0  0  0  0  0  0  0  0  0
  187.8450  178.0830  148.8420 O   0  0  0  0  0  1  0  0  0  0  0  0
  190.4760  177.3480  139.0490 N   0  0  0  0  0  2  0  0  0  0  0  0
  190.4780  176.0190  138.4580 C   0  0  0  0  0  2  0  0  0  0  0  0
  190.4230  176.1260  137.0100 N   0  0  0  0  0  2  0  0  0  0  0  0
  189.0920  175.7100  136.6000 C   0  0  0  0  0  2  0  0  0  0  0  0
  189.0170  177.8790  135.6220 O   0  0  0  0  0  0  0  0  0  0  0  0
  188.3760  176.8610  135.9890 C   0  0  0  0  0  0  0  0  0  0  0  0
  186.9940  176.8280  135.8580 O   0  0  0  0  0  1  0  0  0  0  0  0
  2  9  1  1  0  0  0
  3  1  1  0  0  0  0
  3  2  1  0  0  0  0
  4  5  2  0  0  0  0
  4  2  1  0  0  0  0
  6  7  2  0  0  0  0
  7  8  1  0  0  0  0
  7  4  1  0  0  0  0
  8  3  2  0  0  0  0
  9 16  1  0  0  0  0
 10  9  2  0  0  0  0
 11 18  1  0  0  0  0
 12 13  2  0  0  0  0
 13 11  1  0  0  0  0
 14 15  1  0  0  0  0
 15 17  1  0  0  0  0
 15 11  2  0  0  0  0
 16 14  2  0  0  0  0
 16 12  1  0  0  0  0
 19  8  1  0  0  0  0
 20 19  1  0  0  0  0
 21 20  1  0  0  0  0
 22 21  1  0  0  0  0
 23 24  2  0  0  0  0
 24 22  1  0  0  0  0
 25 24  1  0  0  0  0
M  END
>  <MODEL>
3

>  <REMARK>
 VINA RESULT:      -7.5      1.769      2.191
  Name = 
  7 active torsions:
  status: ('A' for Active; 'I' for Inactive)
    1  A    between atoms: N_1  and  C_19
    2  A    between atoms: N_1  and  C_25
    3  A    between atoms: N_4  and  C_19
    4  A    between atoms: N_4  and  C_20
    5  A    between atoms: C_5  and  C_10
    6  A    between atoms: C_10  and  C_17
    7  A    between atoms: C_20  and  C_22
                            x       y       z     vdW  Elec       q    Type
                         _______ _______ _______ _____ _____    ______ ____

>  <TORSDO>
F 7

$$$$
=
 OpenBabel11032419203D

 25 26  0  0  1  0  0  0  0  0999 V2000
  187.1430  177.0270  143.2110 C   0  0  0  0  0  1  0  0  0  0  0  0
  185.4040  177.8430  145.0310 C   0  0  1  0  0  3  0  0  0  0  0  0
  186.8070  177.5030  144.5840 C   0  0  0  0  0  0  0  0  0  0  0  0
  185.6290  178.2030  146.4650 C   0  0  0  0  0  0  0  0  0  0  0  0
  184.7300  178.5380  147.2820 O   0  0  0  0  0  0  0  0  0  0  0  0
  187.5700  178.3100  147.8910 O   0  0  0  0  0  0  0  0  0  0  0  0
  187.0340  178.0820  146.7750 C   0  0  0  0  0  0  0  0  0  0  0  0
  187.7020  177.6410  145.5630 C   0  0  0  0  0  0  0  0  0  0  0  0
  184.8530  179.0120  144.2580 C   0  0  0  0  0  0  0  0  0  0  0  0
  185.4610  180.1180  144.2820 O   0  0  0  0  0  0  0  0  0  0  0  0
  181.2620  178.5990  141.9590 C   0  0  0  0  0  0  0  0  0  0  0  0
  183.6800  178.6730  142.0830 C   0  0  0  0  0  3  0  0  0  0  0  0
  182.5090  178.5370  141.3310 C   0  0  0  0  0  3  0  0  0  0  0  0
  182.3590  178.9310  144.0930 C   0  0  0  0  0  3  0  0  0  0  0  0
  181.1860  178.7970  143.3450 C   0  0  0  0  0  0  0  0  0  0  0  0
  183.6150  178.8700  143.4690 C   0  0  0  0  0  0  0  0  0  0  0  0
  179.6360  178.8780  144.1610 Cl  0  0  0  0  0  0  0  0  0  0  0  0
  180.1060  178.4630  141.2000 O   0  0  0  0  0  1  0  0  0  0  0  0
  189.0990  177.3730  145.4130 N   0  0  0  0  0  2  0  0  0  0  0  0
  190.0220  178.3170  144.8060 C   0  0  0  0  0  2  0  0  0  0  0  0
  191.0660  177.5960  144.0970 N   0  0  0  0  0  2  0  0  0  0  0  0
  190.8180  177.7700  142.6760 C   0  0  0  0  0  2  0  0  0  0  0  0
  190.3990  176.3560  140.8080 O   0  0  0  0  0  0  0  0  0  0  0  0
  190.5210  176.4520  142.0560 C   0  0  0  0  0  0  0  0  0  0  0  0
  190.3400  175.3330  142.8570 O   0  0  0  0  0  1  0  0  0  0  0  0
  1  3  1  0  0  0  0
  2  9  1  6  0  0  0
  2  4  1  0  0  0  0
  3  2  1  0  0  0  0
  3  8  2  0  0  0  0
  4  7  1  0  0  0  0
  4  5  2  0  0  0  0
  7  6  2  0  0  0  0
  8  7  1  0  0  0  0
  9 10  2  0  0  0  0
 11 15  1  0  0  0  0
 12 16  2  0  0  0  0
 13 11  2  0  0  0  0
 13 12  1  0  0  0  0
 15 14  2  0  0  0  0
 15 17  1  0  0  0  0
 16 14  1  0  0  0  0
 16  9  1  0  0  0  0
 18 11  1  0  0  0  0
 19  8  1  0  0  0  0
 20 19  1  0  0  0  0
 21 20  1  0  0  0  0
 22 21  1  0  0  0  0
 23 24  2  0  0  0  0
 24 22  1  0  0  0  0
 24 25  1  0  0  0  0
M  END
>  <MODEL>
4

>  <REMARK>
 VINA RESULT:      -7.5      3.876      6.444
  Name = 
  7 active torsions:
  status: ('A' for Active; 'I' for Inactive)
    1  A    between atoms: N_1  and  C_19
    2  A    between atoms: N_1  and  C_25
    3  A    between atoms: N_4  and  C_19
    4  A    between atoms: N_4  and  C_20
    5  A    between atoms: C_5  and  C_10
    6  A    between atoms: C_10  and  C_17
    7  A    between atoms: C_20  and  C_22
                            x       y       z     vdW  Elec       q    Type
                         _______ _______ _______ _____ _____    ______ ____

>  <TORSDO>
F 7

$$$$
=
 OpenBabel11032419203D

 25 26  0  0  1  0  0  0  0  0999 V2000
  191.1970  177.4070  141.8540 C   0  0  0  0  0  1  0  0  0  0  0  0
  188.7320  178.1900  142.4100 C   0  0  1  0  0  3  0  0  0  0  0  0
  189.8130  177.7740  141.4390 C   0  0  0  0  0  0  0  0  0  0  0  0
  187.5970  178.4860  141.4810 C   0  0  0  0  0  0  0  0  0  0  0  0
  186.4610  178.9030  141.8290 O   0  0  0  0  0  0  0  0  0  0  0  0
  187.3090  178.3910  139.0890 O   0  0  0  0  0  0  0  0  0  0  0  0
  188.0160  178.2430  140.1200 C   0  0  0  0  0  0  0  0  0  0  0  0
  189.4000  177.8080  140.1710 C   0  0  0  0  0  0  0  0  0  0  0  0
  188.3840  177.0680  143.3520 C   0  0  0  0  0  0  0  0  0  0  0  0
  188.0760  175.9350  142.8870 O   0  0  0  0  0  0  0  0  0  0  0  0
  188.4360  177.6940  147.5900 C   0  0  0  0  0  0  0  0  0  0  0  0
  187.2430  177.6900  145.4820 C   0  0  0  0  0  3  0  0  0  0  0  0
  187.2580  177.8940  146.8640 C   0  0  0  0  0  3  0  0  0  0  0  0
  189.5840  177.0840  145.5460 C   0  0  0  0  0  3  0  0  0  0  0  0
  189.6040  177.2880  146.9280 C   0  0  0  0  0  0  0  0  0  0  0  0
  188.4060  177.2830  144.8110 C   0  0  0  0  0  0  0  0  0  0  0  0
  191.0970  177.0290  147.8110 Cl  0  0  0  0  0  0  0  0  0  0  0  0
  188.4370  177.9010  148.9640 O   0  0  0  0  0  1  0  0  0  0  0  0
  190.2270  177.4740  139.0520 N   0  0  0  0  0  2  0  0  0  0  0  0
  189.9720  176.3240  138.1990 C   0  0  0  0  0  2  0  0  0  0  0  0
  190.8420  175.2260  138.5840 N   0  0  0  0  0  2  0  0  0  0  0  0
  192.0520  175.3390  137.7880 C   0  0  0  0  0  2  0  0  0  0  0  0
  193.4270  173.7270  136.7030 O   0  0  0  0  0  1  0  0  0  0  0  0
  192.2630  174.0850  137.0170 C   0  0  0  0  0  0  0  0  0  0  0  0
  191.1720  173.3300  136.6090 O   0  0  0  0  0  0  0  0  0  0  0  0
  2  9  1  1  0  0  0
  3  1  1  0  0  0  0
  3  2  1  0  0  0  0
  4  5  2  0  0  0  0
  4  2  1  0  0  0  0
  6  7  2  0  0  0  0
  7  8  1  0  0  0  0
  7  4  1  0  0  0  0
  8  3  2  0  0  0  0
  9 16  1  0  0  0  0
 10  9  2  0  0  0  0
 11 18  1  0  0  0  0
 12 13  1  0  0  0  0
 13 11  2  0  0  0  0
 14 15  2  0  0  0  0
 15 11  1  0  0  0  0
 15 17  1  0  0  0  0
 16 12  2  0  0  0  0
 16 14  1  0  0  0  0
 19  8  1  0  0  0  0
 20 21  1  0  0  0  0
 20 19  1  0  0  0  0
 22 21  1  0  0  0  0
 23 24  1  0  0  0  0
 24 22  1  0  0  0  0
 25 24  2  0  0  0  0
M  END
>  <MODEL>
5

>  <REMARK>
 VINA RESULT:      -7.5      1.658      1.985
  Name = 
  7 active torsions:
  status: ('A' for Active; 'I' for Inactive)
    1  A    between atoms: N_1  and  C_19
    2  A    between atoms: N_1  and  C_25
    3  A    between atoms: N_4  and  C_19
    4  A    between atoms: N_4  and  C_20
    5  A    between atoms: C_5  and  C_10
    6  A    between atoms: C_10  and  C_17
    7  A    between atoms: C_20  and  C_22
                            x       y       z     vdW  Elec       q    Type
                         _______ _______ _______ _____ _____    ______ ____

>  <TORSDO>
F 7

$$$$
=
 OpenBabel11032419203D

 25 26  0  0  1  0  0  0  0  0999 V2000
  186.7020  177.7560  143.2740 C   0  0  0  0  0  1  0  0  0  0  0  0
  189.3370  177.9720  143.3790 C   0  0  1  0  0  3  0  0  0  0  0  0
  187.9900  177.7440  144.0260 C   0  0  0  0  0  0  0  0  0  0  0  0
  190.2480  177.9080  144.5640 C   0  0  0  0  0  0  0  0  0  0  0  0
  191.4970  178.0700  144.5320 O   0  0  0  0  0  0  0  0  0  0  0  0
  189.9200  177.5410  146.9250 O   0  0  0  0  0  0  0  0  0  0  0  0
  189.4700  177.6560  145.7550 C   0  0  0  0  0  0  0  0  0  0  0  0
  188.0790  177.5700  145.3450 C   0  0  0  0  0  0  0  0  0  0  0  0
  189.6570  176.8840  142.3890 C   0  0  0  0  0  0  0  0  0  0  0  0
  189.9200  175.7210  142.8020 O   0  0  0  0  0  0  0  0  0  0  0  0
  189.6550  177.7160  138.1860 C   0  0  0  0  0  0  0  0  0  0  0  0
  188.6560  177.9700  140.3780 C   0  0  0  0  0  3  0  0  0  0  0  0
  188.6540  178.2430  139.0080 C   0  0  0  0  0  3  0  0  0  0  0  0
  190.6610  176.6440  140.1110 C   0  0  0  0  0  3  0  0  0  0  0  0
  190.6620  176.9130  138.7390 C   0  0  0  0  0  0  0  0  0  0  0  0
  189.6590  177.1690  140.9410 C   0  0  0  0  0  0  0  0  0  0  0  0
  191.9310  176.2390  137.7340 Cl  0  0  0  0  0  0  0  0  0  0  0  0
  189.6410  177.9960  136.8250 O   0  0  0  0  0  1  0  0  0  0  0  0
  186.9550  177.3480  146.2010 N   0  0  0  0  0  2  0  0  0  0  0  0
  186.4510  178.3570  147.1180 C   0  0  0  0  0  2  0  0  0  0  0  0
  185.5730  179.2710  146.4070 N   0  0  0  0  0  2  0  0  0  0  0  0
  184.3540  178.5430  146.1000 C   0  0  0  0  0  2  0  0  0  0  0  0
  182.6350  178.6510  144.4570 O   0  0  0  0  0  1  0  0  0  0  0  0
  183.7380  179.0970  144.8650 C   0  0  0  0  0  0  0  0  0  0  0  0
  184.3990  180.0800  144.1410 O   0  0  0  0  0  0  0  0  0  0  0  0
  1  3  1  0  0  0  0
  2  9  1  6  0  0  0
  2  3  1  0  0  0  0
  2  4  1  0  0  0  0
  3  8  2  0  0  0  0
  4  7  1  0  0  0  0
  5  4  2  0  0  0  0
  7  6  2  0  0  0  0
  8  7  1  0  0  0  0
  8 19  1  0  0  0  0
  9 10  2  0  0  0  0
 11 15  2  0  0  0  0
 11 13  1  0  0  0  0
 12 16  1  0  0  0  0
 13 12  2  0  0  0  0
 14 16  2  0  0  0  0
 15 14  1  0  0  0  0
 16  9  1  0  0  0  0
 17 15  1  0  0  0  0
 18 11  1  0  0  0  0
 19 20  1  0  0  0  0
 21 20  1  0  0  0  0
 22 21  1  0  0  0  0
 23 24  1  0  0  0  0
 24 22  1  0  0  0  0
 25 24  2  0  0  0  0
M  END
>  <MODEL>
6

>  <REMARK>
 VINA RESULT:      -7.4      3.979      8.293
  Name = 
  7 active torsions:
  status: ('A' for Active; 'I' for Inactive)
    1  A    between atoms: N_1  and  C_19
    2  A    between atoms: N_1  and  C_25
    3  A    between atoms: N_4  and  C_19
    4  A    between atoms: N_4  and  C_20
    5  A    between atoms: C_5  and  C_10
    6  A    between atoms: C_10  and  C_17
    7  A    between atoms: C_20  and  C_22
                            x       y       z     vdW  Elec       q    Type
                         _______ _______ _______ _____ _____    ______ ____

>  <TORSDO>
F 7

$$$$
=
 OpenBabel11032419203D

 25 26  0  0  1  0  0  0  0  0999 V2000
  187.2160  176.9710  143.2260 C   0  0  0  0  0  1  0  0  0  0  0  0
  185.5410  177.8450  145.0790 C   0  0  1  0  0  3  0  0  0  0  0  0
  186.9240  177.4620  144.6040 C   0  0  0  0  0  0  0  0  0  0  0  0
  185.8080  178.2030  146.5070 C   0  0  0  0  0  0  0  0  0  0  0  0
  184.9380  178.5670  147.3410 O   0  0  0  0  0  0  0  0  0  0  0  0
  187.7820  178.2570  147.8910 O   0  0  0  0  0  0  0  0  0  0  0  0
  187.2150  178.0410  146.7870 C   0  0  0  0  0  0  0  0  0  0  0  0
  187.8430  177.5760  145.5630 C   0  0  0  0  0  0  0  0  0  0  0  0
  185.0100  179.0270  144.3130 C   0  0  0  0  0  0  0  0  0  0  0  0
  185.5980  180.1410  144.3970 O   0  0  0  0  0  0  0  0  0  0  0  0
  181.5370  178.6270  141.8370 C   0  0  0  0  0  0  0  0  0  0  0  0
  183.9460  178.6450  142.0890 C   0  0  0  0  0  3  0  0  0  0  0  0
  182.8140  178.5130  141.2800 C   0  0  0  0  0  3  0  0  0  0  0  0
  182.5270  179.0030  144.0150 C   0  0  0  0  0  3  0  0  0  0  0  0
  181.3920  178.8740  143.2090 C   0  0  0  0  0  0  0  0  0  0  0  0
  183.8120  178.8900  143.4630 C   0  0  0  0  0  0  0  0  0  0  0  0
  179.8030  179.0210  143.9360 Cl  0  0  0  0  0  0  0  0  0  0  0  0
  180.4210  178.4950  141.0200 O   0  0  0  0  0  1  0  0  0  0  0  0
  189.2290  177.2660  145.3840 N   0  0  0  0  0  2  0  0  0  0  0  0
  190.1770  178.2000  144.8010 C   0  0  0  0  0  2  0  0  0  0  0  0
  191.5140  177.9130  145.2910 N   0  0  0  0  0  2  0  0  0  0  0  0
  191.5580  176.4960  145.6110 C   0  0  0  0  0  2  0  0  0  0  0  0
  191.6760  177.1400  147.8990 O   0  0  0  0  0  1  0  0  0  0  0  0
  192.0170  176.3150  147.0130 C   0  0  0  0  0  0  0  0  0  0  0  0
  192.8540  175.2560  147.3380 O   0  0  0  0  0  0  0  0  0  0  0  0
  1  3  1  0  0  0  0
  2  9  1  6  0  0  0
  2  4  1  0  0  0  0
  3  2  1  0  0  0  0
  3  8  2  0  0  0  0
  4  7  1  0  0  0  0
  4  5  2  0  0  0  0
  7  6  2  0  0  0  0
  8  7  1  0  0  0  0
  9 10  2  0  0  0  0
 11 15  1  0  0  0  0
 12 16  2  0  0  0  0
 13 11  2  0  0  0  0
 13 12  1  0  0  0  0
 15 17  1  0  0  0  0
 15 14  2  0  0  0  0
 16 14  1  0  0  0  0
 16  9  1  0  0  0  0
 18 11  1  0  0  0  0
 19  8  1  0  0  0  0
 20 21  1  0  0  0  0
 20 19  1  0  0  0  0
 21 22  1  0  0  0  0
 22 24  1  0  0  0  0
 24 25  2  0  0  0  0
 24 23  1  0  0  0  0
M  END
>  <MODEL>
7

>  <REMARK>
 VINA RESULT:      -7.4      5.054      7.167
  Name = 
  7 active torsions:
  status: ('A' for Active; 'I' for Inactive)
    1  A    between atoms: N_1  and  C_19
    2  A    between atoms: N_1  and  C_25
    3  A    between atoms: N_4  and  C_19
    4  A    between atoms: N_4  and  C_20
    5  A    between atoms: C_5  and  C_10
    6  A    between atoms: C_10  and  C_17
    7  A    between atoms: C_20  and  C_22
                            x       y       z     vdW  Elec       q    Type
                         _______ _______ _______ _____ _____    ______ ____

>  <TORSDO>
F 7

$$$$
=
 OpenBabel11032419203D

 25 26  0  0  1  0  0  0  0  0999 V2000
  191.3710  177.1440  142.0580 C   0  0  0  0  0  1  0  0  0  0  0  0
  188.9380  178.1320  142.3810 C   0  0  1  0  0  3  0  0  0  0  0  0
  190.0600  177.6050  141.5170 C   0  0  0  0  0  0  0  0  0  0  0  0
  187.9140  178.4890  141.3510 C   0  0  0  0  0  0  0  0  0  0  0  0
  186.7890  179.0030  141.5890 O   0  0  0  0  0  0  0  0  0  0  0  0
  187.8220  178.3450  138.9450 O   0  0  0  0  0  0  0  0  0  0  0  0
  188.4250  178.1740  140.0370 C   0  0  0  0  0  0  0  0  0  0  0  0
  189.7610  177.6330  140.2180 C   0  0  0  0  0  0  0  0  0  0  0  0
  188.4230  177.0690  143.3140 C   0  0  0  0  0  0  0  0  0  0  0  0
  187.9910  175.9800  142.8430 O   0  0  0  0  0  0  0  0  0  0  0  0
  188.4150  177.7130  147.5500 C   0  0  0  0  0  0  0  0  0  0  0  0
  187.2440  177.6660  145.4300 C   0  0  0  0  0  3  0  0  0  0  0  0
  187.2390  177.8760  146.8120 C   0  0  0  0  0  3  0  0  0  0  0  0
  189.6000  177.1290  145.5200 C   0  0  0  0  0  3  0  0  0  0  0  0
  189.6000  177.3390  146.9020 C   0  0  0  0  0  0  0  0  0  0  0  0
  188.4240  177.2900  144.7730 C   0  0  0  0  0  0  0  0  0  0  0  0
  191.0910  177.1270  147.8000 Cl  0  0  0  0  0  0  0  0  0  0  0  0
  188.3960  177.9250  148.9230 O   0  0  0  0  0  1  0  0  0  0  0  0
  190.6490  177.2030  139.1820 N   0  0  0  0  0  2  0  0  0  0  0  0
  190.3800  176.0470  138.3430 C   0  0  0  0  0  2  0  0  0  0  0  0
  190.7980  176.3220  136.9790 N   0  0  0  0  0  2  0  0  0  0  0  0
  189.7190  177.0570  136.3410 C   0  0  0  0  0  2  0  0  0  0  0  0
  188.9060  175.1010  135.2560 O   0  0  0  0  0  0  0  0  0  0  0  0
  188.6370  176.1160  135.9480 C   0  0  0  0  0  0  0  0  0  0  0  0
  187.3230  176.3780  136.3130 O   0  0  0  0  0  1  0  0  0  0  0  0
  2  9  1  1  0  0  0
  3  1  1  0  0  0  0
  3  2  1  0  0  0  0
  4  5  2  0  0  0  0
  4  2  1  0  0  0  0
  6  7  2  0  0  0  0
  7  8  1  0  0  0  0
  7  4  1  0  0  0  0
  8  3  2  0  0  0  0
  9 16  1  0  0  0  0
 10  9  2  0  0  0  0
 11 18  1  0  0  0  0
 12 13  1  0  0  0  0
 13 11  2  0  0  0  0
 14 15  2  0  0  0  0
 15 11  1  0  0  0  0
 15 17  1  0  0  0  0
 16 12  2  0  0  0  0
 16 14  1  0  0  0  0
 19  8  1  0  0  0  0
 20 19  1  0  0  0  0
 21 20  1  0  0  0  0
 22 21  1  0  0  0  0
 23 24  2  0  0  0  0
 24 25  1  0  0  0  0
 24 22  1  0  0  0  0
M  END
>  <MODEL>
8

>  <REMARK>
 VINA RESULT:      -7.2      2.201      2.625
  Name = 
  7 active torsions:
  status: ('A' for Active; 'I' for Inactive)
    1  A    between atoms: N_1  and  C_19
    2  A    between atoms: N_1  and  C_25
    3  A    between atoms: N_4  and  C_19
    4  A    between atoms: N_4  and  C_20
    5  A    between atoms: C_5  and  C_10
    6  A    between atoms: C_10  and  C_17
    7  A    between atoms: C_20  and  C_22
                            x       y       z     vdW  Elec       q    Type
                         _______ _______ _______ _____ _____    ______ ____

>  <TORSDO>
F 7

$$$$
=
 OpenBabel11032419203D

 25 26  0  0  1  0  0  0  0  0999 V2000
  187.2100  177.0680  143.2520 C   0  0  0  0  0  1  0  0  0  0  0  0
  185.4750  177.8740  145.0800 C   0  0  1  0  0  3  0  0  0  0  0  0
  186.8760  177.5230  144.6320 C   0  0  0  0  0  0  0  0  0  0  0  0
  185.7000  178.2030  146.5220 C   0  0  0  0  0  0  0  0  0  0  0  0
  184.8040  178.5350  147.3420 O   0  0  0  0  0  0  0  0  0  0  0  0
  187.6370  178.2560  147.9570 O   0  0  0  0  0  0  0  0  0  0  0  0
  187.1030  178.0560  146.8350 C   0  0  0  0  0  0  0  0  0  0  0  0
  187.7690  177.6290  145.6170 C   0  0  0  0  0  0  0  0  0  0  0  0
  184.9450  179.0650  144.3280 C   0  0  0  0  0  0  0  0  0  0  0  0
  185.4250  180.2110  144.5530 O   0  0  0  0  0  0  0  0  0  0  0  0
  181.8250  178.5890  141.4300 C   0  0  0  0  0  0  0  0  0  0  0  0
  182.5290  179.0160  143.7080 C   0  0  0  0  0  3  0  0  0  0  0  0
  181.5100  178.8610  142.7640 C   0  0  0  0  0  3  0  0  0  0  0  0
  184.1820  178.6260  141.9870 C   0  0  0  0  0  3  0  0  0  0  0  0
  183.1660  178.4700  141.0390 C   0  0  0  0  0  0  0  0  0  0  0  0
  183.8730  178.9000  143.3270 C   0  0  0  0  0  0  0  0  0  0  0  0
  183.5940  178.1280  139.3730 Cl  0  0  0  0  0  0  0  0  0  0  0  0
  180.8020  178.4370  140.5020 O   0  0  0  0  0  1  0  0  0  0  0  0
  189.1630  177.3440  145.4670 N   0  0  0  0  0  2  0  0  0  0  0  0
  190.0990  178.2820  144.8700 C   0  0  0  0  0  2  0  0  0  0  0  0
  191.3790  177.6290  144.6570 N   0  0  0  0  0  2  0  0  0  0  0  0
  191.1130  176.3780  143.9680 C   0  0  0  0  0  2  0  0  0  0  0  0
  190.1830  176.0030  141.8090 O   0  0  0  0  0  0  0  0  0  0  0  0
  191.0280  176.6230  142.5040 C   0  0  0  0  0  0  0  0  0  0  0  0
  191.9090  177.5080  141.8960 O   0  0  0  0  0  1  0  0  0  0  0  0
  1  3  1  0  0  0  0
  2  9  1  6  0  0  0
  2  4  1  0  0  0  0
  3  2  1  0  0  0  0
  3  8  2  0  0  0  0
  4  7  1  0  0  0  0
  4  5  2  0  0  0  0
  7  6  2  0  0  0  0
  8  7  1  0  0  0  0
  9 10  2  0  0  0  0
 11 13  1  0  0  0  0
 13 12  2  0  0  0  0
 14 16  2  0  0  0  0
 15 11  2  0  0  0  0
 15 14  1  0  0  0  0
 16 12  1  0  0  0  0
 16  9  1  0  0  0  0
 17 15  1  0  0  0  0
 18 11  1  0  0  0  0
 19  8  1  0  0  0  0
 20 19  1  0  0  0  0
 21 20  1  0  0  0  0
 22 21  1  0  0  0  0
 23 24  2  0  0  0  0
 24 22  1  0  0  0  0
 25 24  1  0  0  0  0
M  END
>  <MODEL>
9

>  <REMARK>
 VINA RESULT:      -7.2      3.936      6.582
  Name = 
  7 active torsions:
  status: ('A' for Active; 'I' for Inactive)
    1  A    between atoms: N_1  and  C_19
    2  A    between atoms: N_1  and  C_25
    3  A    between atoms: N_4  and  C_19
    4  A    between atoms: N_4  and  C_20
    5  A    between atoms: C_5  and  C_10
    6  A    between atoms: C_10  and  C_17
    7  A    between atoms: C_20  and  C_22
                            x       y       z     vdW  Elec       q    Type
                         _______ _______ _______ _____ _____    ______ ____

>  <TORSDO>
F 7

$$$$
