=
 OpenBabel11032419133D

 58 64  0  0  1  0  0  0  0  0999 V2000
  186.7760  178.4910  135.2900 C   0  0  0  0  0  1  0  0  0  0  0  0
  188.2480  176.8720  138.6650 C   0  0  0  0  0  0  0  0  0  0  0  0
  186.7010  177.3840  136.3190 C   0  0  1  0  0  3  0  0  0  0  0  0
  189.0160  173.7940  137.2300 O   0  0  0  0  0  0  0  0  0  0  0  0
  186.9260  177.4520  138.9390 C   0  0  1  0  0  3  0  0  0  0  0  0
  187.1480  178.4820  139.8920 O   0  0  0  0  0  0  0  0  0  0  0  0
  189.0880  177.2750  139.5940 C   0  0  0  0  0  0  0  0  0  0  0  0
  191.1990  176.3500  138.5270 C   0  0  1  0  0  3  0  0  0  0  0  0
  188.0070  176.5590  136.2400 C   0  0  1  0  0  3  0  0  0  0  0  0
  190.7080  175.0930  138.0640 O   0  0  0  0  0  0  0  0  0  0  0  0
  188.3550  178.1630  140.4380 N   0  0  0  0  0  0  0  0  0  0  0  0
  188.5000  176.0530  137.5260 N   0  0  0  0  0  0  0  0  0  0  0  0
  186.2250  177.9890  137.6680 C   0  0  2  0  0  3  0  0  0  0  0  0
  189.4020  174.9340  137.5980 C   0  0  0  0  0  0  0  0  0  0  0  0
  190.5040  176.7750  139.8400 C   0  0  1  0  0  3  0  0  0  0  0  0
  182.6380  176.8030  137.6470 N   0  0  0  0  0  0  0  0  0  0  0  0
  183.9410  179.1070  138.3570 C   0  0  0  0  0  0  0  0  0  0  0  0
  183.9900  176.8520  137.5420 C   0  0  0  0  0  3  0  0  0  0  0  0
  184.7010  178.0100  137.8610 C   0  0  0  0  0  0  0  0  0  0  0  0
  184.5030  180.1740  138.7170 O   0  0  0  0  0  0  0  0  0  0  0  0
  181.9350  177.8840  138.0670 C   0  0  0  0  0  3  0  0  0  0  0  0
  182.5790  179.0250  138.4200 N   0  0  0  0  0  0  0  0  0  0  0  0
  181.8420  180.1400  138.8660 N   0  0  0  0  0  2  0  0  0  0  0  0
  180.0090  181.8110  138.7740 C   0  0  0  0  0  2  0  0  0  0  0  0
  180.8240  182.8070  137.9560 C   0  0  0  0  0  2  0  0  0  0  0  0
  180.4510  180.3800  138.4710 C   0  0  1  0  0  3  0  0  0  0  0  0
  180.2600  180.0440  136.9870 C   0  0  0  0  0  2  0  0  0  0  0  0
  180.8050  182.4530  136.4980 C   0  0  0  0  0  3  0  0  0  0  0  0
  180.5970  181.1950  136.0640 C   0  0  0  0  0  3  0  0  0  0  0  0
  193.0930  176.1670  137.2590 C   0  0  0  0  0  1  0  0  0  0  0  0
  192.6080  176.3730  138.5590 O   0  0  0  0  0  0  0  0  0  0  0  0
  187.8360  175.4470  135.2050 C   0  0  0  0  0  2  0  0  0  0  0  0
  186.4090  173.7200  136.3070 C   0  0  0  0  0  3  0  0  0  0  0  0
  185.4160  175.1180  134.5940 C   0  0  0  0  0  3  0  0  0  0  0  0
  184.0820  173.3990  135.6830 C   0  0  0  0  0  0  0  0  0  0  0  0
  184.1990  174.4390  134.7450 C   0  0  0  0  0  3  0  0  0  0  0  0
  185.1950  173.0440  136.4600 C   0  0  0  0  0  3  0  0  0  0  0  0
  186.5230  174.7540  135.3760 C   0  0  0  0  0  0  0  0  0  0  0  0
  181.5750  173.3690  135.5980 N   0  0  0  0  0  1  0  0  0  0  0  0
  182.8020  172.6930  135.8520 C   0  0  0  0  0  0  0  0  0  0  0  0
  182.7770  171.4980  136.2480 O   0  0  0  0  0  0  0  0  0  0  0  0
  188.5850  178.2510  141.8800 C   0  0  0  0  0  2  0  0  0  0  0  0
  187.6870  177.3030  142.6560 C   0  0  0  0  0  2  0  0  0  0  0  0
  186.3170  177.9130  142.8540 C   0  0  0  0  0  1  0  0  0  0  0  0
  191.3530  177.7850  140.6260 C   0  0  0  0  0  2  0  0  0  0  0  0
  191.5280  177.3710  142.0710 C   0  0  0  0  0  0  0  0  0  0  0  0
  191.3170  176.1740  142.4090 O   0  0  0  0  0  0  0  0  0  0  0  0
  191.9350  178.2660  143.0700 O   0  0  0  0  0  0  0  0  0  0  0  0
  191.1890  178.6280  144.1820 N   0  0  0  0  0  0  0  0  0  0  0  0
  191.5460  179.8770  144.5680 O   0  0  0  0  0  1  0  0  0  0  0  0
  191.4800  177.6820  145.2610 C   0  0  0  0  0  2  0  0  0  0  0  0
  190.3790  176.8950  147.2810 C   0  0  0  0  0  3  0  0  0  0  0  0
  190.2420  177.4050  146.0500 C   0  0  0  0  0  0  0  0  0  0  0  0
  187.8130  178.0440  146.0210 C   0  0  0  0  0  3  0  0  0  0  0  0
  187.6450  178.2600  147.4770 C   0  0  0  0  0  3  0  0  0  0  0  0
  188.3060  177.6000  148.4280 C   0  0  0  0  0  3  0  0  0  0  0  0
  189.2330  176.4670  148.1430 C   0  0  0  0  0  2  0  0  0  0  0  0
  188.9380  177.6670  145.4040 C   0  0  0  0  0  3  0  0  0  0  0  0
  2  7  2  0  0  0  0
  3  1  1  6  0  0  0
  3 13  1  0  0  0  0
  4 14  2  0  0  0  0
  5  2  1  6  0  0  0
  5  6  1  0  0  0  0
  6 11  1  0  0  0  0
  7 15  1  0  0  0  0
  7 11  1  0  0  0  0
  8 31  1  1  0  0  0
  8 15  1  0  0  0  0
  9 32  1  6  0  0  0
  9  3  1  0  0  0  0
  9 12  1  0  0  0  0
 10  8  1  0  0  0  0
 11 42  1  0  0  0  0
 12 14  1  0  0  0  0
 12  2  1  0  0  0  0
 13 19  1  1  0  0  0
 13  5  1  0  0  0  0
 14 10  1  0  0  0  0
 15 45  1  6  0  0  0
 16 21  2  0  0  0  0
 17 22  1  0  0  0  0
 17 20  2  0  0  0  0
 18 16  1  0  0  0  0
 18 19  2  0  0  0  0
 19 17  1  0  0  0  0
 21 22  1  0  0  0  0
 22 23  1  0  0  0  0
 25 24  1  0  0  0  0
 26 24  1  0  0  0  0
 26 23  1  6  0  0  0
 27 26  1  0  0  0  0
 28 25  1  0  0  0  0
 29 28  2  0  0  0  0
 29 27  1  0  0  0  0
 30 31  1  0  0  0  0
 32 38  1  0  0  0  0
 33 37  1  0  0  0  0
 34 36  2  0  0  0  0
 34 38  1  0  0  0  0
 35 40  1  0  0  0  0
 35 37  2  0  0  0  0
 36 35  1  0  0  0  0
 38 33  2  0  0  0  0
 39 40  1  0  0  0  0
 40 41  2  0  0  0  0
 42 43  1  0  0  0  0
 43 44  1  0  0  0  0
 45 46  1  0  0  0  0
 46 47  2  0  0  0  0
 46 48  1  0  0  0  0
 48 49  1  0  0  0  0
 49 50  1  0  0  0  0
 49 51  1  0  0  0  0
 51 53  1  0  0  0  0
 52 57  1  0  0  0  0
 53 52  2  0  0  0  0
 54 55  1  0  0  0  0
 55 56  2  0  0  0  0
 57 56  1  0  0  0  0
 58 54  2  0  0  0  0
 58 53  1  0  0  0  0
M  END
>  <MODEL>
1

>  <REMARK>
 VINA RESULT:      -8.1      0.000      0.000
  Name = 
  15 active torsions:
  status: ('A' for Active; 'I' for Inactive)
    1  A    between atoms: C_4  and  C_10
    2  A    between atoms: C_8  and  C_36
    3  A    between atoms: C_8  and  O_39
    4  A    between atoms: C_10  and  N_17
    5  A    between atoms: N_17  and  O_39
    6  A    between atoms: C_22  and  C_56
    7  A    between atoms: C_23  and  C_41
    8  A    between atoms: C_23  and  C_52
    9  A    between atoms: C_24  and  C_31
   10  A    between atoms: C_33  and  O_35
   11  A    between atoms: C_34  and  C_37
   12  A    between atoms: C_34  and  N_47
   13  A    between atoms: C_36  and  C_58
   14  A    between atoms: C_40  and  N_48
   15  A    between atoms: N_48  and  N_53
                            x       y       z     vdW  Elec       q    Type
                         _______ _______ _______ _____ _____    ______ ____

>  <TORSDO>
F 15

$$$$
=
 OpenBabel11032419133D

 58 64  0  0  1  0  0  0  0  0999 V2000
  184.1800  180.3490  138.6480 C   0  0  0  0  0  1  0  0  0  0  0  0
  186.9360  177.4310  138.9190 C   0  0  0  0  0  0  0  0  0  0  0  0
  184.5000  178.9190  139.0270 C   0  0  1  0  0  3  0  0  0  0  0  0
  185.2320  175.1970  136.8630 O   0  0  0  0  0  0  0  0  0  0  0  0
  186.5780  177.8920  140.2680 C   0  0  1  0  0  3  0  0  0  0  0  0
  187.7730  178.4280  140.8200 O   0  0  0  0  0  0  0  0  0  0  0  0
  188.2470  177.3860  138.8210 C   0  0  0  0  0  0  0  0  0  0  0  0
  188.3550  176.9130  136.3280 C   0  0  1  0  0  3  0  0  0  0  0  0
  184.9040  178.1570  137.7440 C   0  0  1  0  0  3  0  0  0  0  0  0
  187.2850  175.9770  136.2110 O   0  0  0  0  0  0  0  0  0  0  0  0
  188.7580  177.8700  140.0620 N   0  0  0  0  0  0  0  0  0  0  0  0
  185.9540  177.1480  137.9260 N   0  0  0  0  0  0  0  0  0  0  0  0
  185.4310  178.9290  140.2700 C   0  0  2  0  0  3  0  0  0  0  0  0
  186.1310  176.0690  136.9900 C   0  0  0  0  0  0  0  0  0  0  0  0
  189.0690  176.7810  137.6920 C   0  0  1  0  0  3  0  0  0  0  0  0
  182.5880  178.7740  142.7550 N   0  0  0  0  0  0  0  0  0  0  0  0
  185.3110  179.0500  142.9000 C   0  0  0  0  0  0  0  0  0  0  0  0
  183.3120  178.7540  141.6080 C   0  0  0  0  0  3  0  0  0  0  0  0
  184.6980  178.9210  141.6210 C   0  0  2  0  0  3  0  0  0  0  0  0
  186.5610  179.1550  143.0110 O   0  0  0  0  0  0  0  0  0  0  0  0
  183.1940  178.9590  143.9550 C   0  0  0  0  0  2  0  0  0  0  0  0
  184.5430  179.0950  144.0270 N   0  0  0  0  0  0  0  0  0  0  0  0
  185.1650  179.2750  145.2780 N   0  0  0  0  0  2  0  0  0  0  0  0
  186.0210  176.9970  145.7680 C   0  0  0  0  0  2  0  0  0  0  0  0
  187.4690  177.3700  145.4750 C   0  0  0  0  0  2  0  0  0  0  0  0
  185.2480  178.2110  146.2830 C   0  0  1  0  0  3  0  0  0  0  0  0
  185.8680  178.7540  147.5750 C   0  0  0  0  0  2  0  0  0  0  0  0
  188.1030  178.0470  146.6560 C   0  0  0  0  0  3  0  0  0  0  0  0
  187.3810  178.7130  147.5770 C   0  0  0  0  0  3  0  0  0  0  0  0
  189.1810  175.5760  134.6670 C   0  0  0  0  0  1  0  0  0  0  0  0
  189.2020  176.8730  135.2010 O   0  0  0  0  0  0  0  0  0  0  0  0
  183.6500  177.5770  137.0880 C   0  0  0  0  0  2  0  0  0  0  0  0
  181.5220  178.1650  138.2530 C   0  0  0  0  0  3  0  0  0  0  0  0
  182.6960  176.1570  138.9360 C   0  0  0  0  0  3  0  0  0  0  0  0
  180.6320  176.7970  140.0530 C   0  0  0  0  0  0  0  0  0  0  0  0
  181.7160  175.9150  139.9080 C   0  0  0  0  0  3  0  0  0  0  0  0
  180.5430  177.9230  139.2210 C   0  0  0  0  0  3  0  0  0  0  0  0
  182.5980  177.2870  138.1090 C   0  0  0  0  0  0  0  0  0  0  0  0
  179.1330  175.2100  141.2910 N   0  0  0  0  0  1  0  0  0  0  0  0
  179.5950  176.5380  141.0660 C   0  0  0  0  0  0  0  0  0  0  0  0
  179.0890  177.4860  141.7220 O   0  0  0  0  0  0  0  0  0  0  0  0
  189.9820  177.3480  140.6700 C   0  0  0  0  0  2  0  0  0  0  0  0
  189.9410  177.4280  142.1870 C   0  0  0  0  0  2  0  0  0  0  0  0
  189.9710  176.0420  142.7920 C   0  0  0  0  0  1  0  0  0  0  0  0
  190.4960  177.3470  137.6380 C   0  0  0  0  0  2  0  0  0  0  0  0
  191.5290  176.3060  138.0100 C   0  0  0  0  0  0  0  0  0  0  0  0
  191.1760  175.1060  138.1770 O   0  0  0  0  0  0  0  0  0  0  0  0
  192.8880  176.6110  138.1650 O   0  0  0  0  0  0  0  0  0  0  0  0
  193.9180  176.1420  137.3620 N   0  0  0  0  0  0  0  0  0  0  0  0
  193.6150  176.3860  136.0640 O   0  0  0  0  0  1  0  0  0  0  0  0
  194.0440  174.6980  137.5710 C   0  0  0  0  0  2  0  0  0  0  0  0
  196.2850  173.8790  137.1030 C   0  0  0  0  0  3  0  0  0  0  0  0
  195.4310  174.3610  138.0140 C   0  0  0  0  0  0  0  0  0  0  0  0
  196.9570  174.8580  139.9460 C   0  0  0  0  0  3  0  0  0  0  0  0
  198.1980  175.0850  139.1680 C   0  0  0  0  0  3  0  0  0  0  0  0
  198.5010  174.4790  138.0210 C   0  0  0  0  0  3  0  0  0  0  0  0
  197.6660  173.3980  137.4220 C   0  0  0  0  0  2  0  0  0  0  0  0
  195.7600  174.5370  139.4460 C   0  0  0  0  0  3  0  0  0  0  0  0
  3  1  1  6  0  0  0
  3 13  1  0  0  0  0
  4 14  2  0  0  0  0
  5  2  1  6  0  0  0
  5 13  1  0  0  0  0
  5  6  1  0  0  0  0
  7  2  2  0  0  0  0
  7 11  1  0  0  0  0
  8 31  1  6  0  0  0
  8 15  1  0  0  0  0
  9 32  1  1  0  0  0
  9 12  1  0  0  0  0
  9  3  1  0  0  0  0
 10  8  1  0  0  0  0
 10 14  1  0  0  0  0
 11 42  1  0  0  0  0
 11  6  1  0  0  0  0
 12  2  1  0  0  0  0
 13 19  1  1  0  0  0
 14 12  1  0  0  0  0
 15 45  1  6  0  0  0
 15  7  1  0  0  0  0
 16 21  1  0  0  0  0
 17 20  2  0  0  0  0
 17 22  1  0  0  0  0
 18 16  2  0  0  0  0
 19 18  1  1  0  0  0
 19 17  1  0  0  0  0
 21 22  1  0  0  0  0
 22 23  1  0  0  0  0
 24 26  1  0  0  0  0
 25 24  1  0  0  0  0
 25 28  1  0  0  0  0
 26 23  1  6  0  0  0
 26 27  1  0  0  0  0
 27 29  1  0  0  0  0
 28 29  2  0  0  0  0
 30 31  1  0  0  0  0
 32 38  1  0  0  0  0
 33 37  1  0  0  0  0
 34 36  2  0  0  0  0
 35 40  1  0  0  0  0
 36 35  1  0  0  0  0
 37 35  2  0  0  0  0
 38 33  2  0  0  0  0
 38 34  1  0  0  0  0
 40 39  1  0  0  0  0
 40 41  2  0  0  0  0
 42 43  1  0  0  0  0
 43 44  1  0  0  0  0
 45 46  1  0  0  0  0
 46 48  1  0  0  0  0
 46 47  2  0  0  0  0
 49 51  1  0  0  0  0
 49 48  1  0  0  0  0
 50 49  1  0  0  0  0
 51 53  1  0  0  0  0
 52 57  1  0  0  0  0
 52 53  2  0  0  0  0
 53 58  1  0  0  0  0
 55 54  1  0  0  0  0
 56 55  2  0  0  0  0
 57 56  1  0  0  0  0
 58 54  2  0  0  0  0
M  END
>  <MODEL>
2

>  <REMARK>
 VINA RESULT:      -7.9      3.005      7.300
  Name = 
  15 active torsions:
  status: ('A' for Active; 'I' for Inactive)
    1  A    between atoms: C_4  and  C_10
    2  A    between atoms: C_8  and  C_36
    3  A    between atoms: C_8  and  O_39
    4  A    between atoms: C_10  and  N_17
    5  A    between atoms: N_17  and  O_39
    6  A    between atoms: C_22  and  C_56
    7  A    between atoms: C_23  and  C_41
    8  A    between atoms: C_23  and  C_52
    9  A    between atoms: C_24  and  C_31
   10  A    between atoms: C_33  and  O_35
   11  A    between atoms: C_34  and  C_37
   12  A    between atoms: C_34  and  N_47
   13  A    between atoms: C_36  and  C_58
   14  A    between atoms: C_40  and  N_48
   15  A    between atoms: N_48  and  N_53
                            x       y       z     vdW  Elec       q    Type
                         _______ _______ _______ _____ _____    ______ ____

>  <TORSDO>
F 15

$$$$
=
 OpenBabel11032419133D

 58 64  0  0  1  0  0  0  0  0999 V2000
  185.6790  174.8280  136.8580 C   0  0  0  0  0  1  0  0  0  0  0  0
  186.0000  178.0410  139.2580 C   0  0  0  0  0  0  0  0  0  0  0  0
  185.8540  176.3270  136.9770 C   0  0  1  0  0  3  0  0  0  0  0  0
  183.2600  179.7150  137.9110 O   0  0  0  0  0  0  0  0  0  0  0  0
  187.3030  177.7640  138.6360 C   0  0  1  0  0  3  0  0  0  0  0  0
  188.1830  177.4590  139.7090 O   0  0  0  0  0  0  0  0  0  0  0  0
  186.1760  178.2150  140.5490 C   0  0  0  0  0  0  0  0  0  0  0  0
  183.7200  178.2940  141.1900 C   0  0  1  0  0  3  0  0  0  0  0  0
  184.5700  176.9150  137.6070 C   0  0  1  0  0  3  0  0  0  0  0  0
  183.2110  179.0750  140.1090 O   0  0  0  0  0  0  0  0  0  0  0  0
  187.5640  177.9950  140.7980 N   0  0  0  0  0  0  0  0  0  0  0  0
  184.7860  178.0510  138.5110 N   0  0  0  0  0  0  0  0  0  0  0  0
  187.2470  176.6190  137.5970 C   0  0  2  0  0  3  0  0  0  0  0  0
  183.7310  178.9800  138.8180 C   0  0  0  0  0  0  0  0  0  0  0  0
  185.1580  178.7210  141.5610 C   0  0  1  0  0  3  0  0  0  0  0  0
  189.2190  177.9280  134.6510 N   0  0  0  0  0  0  0  0  0  0  0  0
  189.5700  175.9690  136.5360 C   0  0  0  0  0  0  0  0  0  0  0  0
  188.2740  177.7630  135.6110 C   0  0  0  0  0  3  0  0  0  0  0  0
  188.3880  176.7610  136.5760 C   0  0  0  0  0  0  0  0  0  0  0  0
  189.7810  175.0760  137.3970 O   0  0  0  0  0  0  0  0  0  0  0  0
  190.3060  177.1190  134.6020 C   0  0  0  0  0  3  0  0  0  0  0  0
  190.4820  176.1490  135.5360 N   0  0  0  0  0  0  0  0  0  0  0  0
  191.6200  175.3210  135.4840 N   0  0  0  0  0  2  0  0  0  0  0  0
  193.3000  176.5060  136.8750 C   0  0  0  0  0  2  0  0  0  0  0  0
  193.2400  175.4790  138.0000 C   0  0  0  0  0  2  0  0  0  0  0  0
  192.9870  175.8480  135.5310 C   0  0  1  0  0  3  0  0  0  0  0  0
  193.9920  174.7360  135.2120 C   0  0  0  0  0  2  0  0  0  0  0  0
  194.0920  174.2830  137.6870 C   0  0  0  0  0  3  0  0  0  0  0  0
  194.3900  173.9220  136.4240 C   0  0  0  0  0  3  0  0  0  0  0  0
  181.6230  178.8900  141.8830 C   0  0  0  0  0  1  0  0  0  0  0  0
  182.8100  178.2480  142.2670 O   0  0  0  0  0  0  0  0  0  0  0  0
  183.5690  177.2400  136.4970 C   0  0  0  0  0  2  0  0  0  0  0  0
  182.4850  175.4370  135.1540 C   0  0  0  0  0  3  0  0  0  0  0  0
  181.6720  175.8510  137.3990 C   0  0  0  0  0  3  0  0  0  0  0  0
  180.6370  174.1260  136.0310 C   0  0  0  0  0  0  0  0  0  0  0  0
  180.7110  174.8440  137.2370 C   0  0  0  0  0  3  0  0  0  0  0  0
  181.5280  174.4300  134.9920 C   0  0  0  0  0  3  0  0  0  0  0  0
  182.5590  176.1480  136.3530 C   0  0  0  0  0  0  0  0  0  0  0  0
  178.9370  172.9230  134.6300 N   0  0  0  0  0  1  0  0  0  0  0  0
  179.6360  173.0590  135.8630 C   0  0  0  0  0  0  0  0  0  0  0  0
  179.3690  172.2750  136.8130 O   0  0  0  0  0  0  0  0  0  0  0  0
  188.3140  178.7410  141.8080 C   0  0  0  0  0  2  0  0  0  0  0  0
  189.7150  178.1850  141.9990 C   0  0  0  0  0  2  0  0  0  0  0  0
  189.6740  176.6800  142.1400 C   0  0  0  0  0  1  0  0  0  0  0  0
  185.5120  178.3160  143.0010 C   0  0  0  0  0  2  0  0  0  0  0  0
  185.1770  179.4100  143.9910 C   0  0  0  0  0  0  0  0  0  0  0  0
  184.3090  180.2770  143.6970 O   0  0  0  0  0  0  0  0  0  0  0  0
  185.7850  179.5000  145.2510 O   0  0  0  0  0  0  0  0  0  0  0  0
  185.3120  178.9170  146.4190 N   0  0  0  0  0  0  0  0  0  0  0  0
  185.6380  179.7060  147.4710 O   0  0  0  0  0  1  0  0  0  0  0  0
  185.9510  177.6080  146.5720 C   0  0  0  0  0  2  0  0  0  0  0  0
  187.8890  177.7980  148.0270 C   0  0  0  0  0  3  0  0  0  0  0  0
  187.4210  177.7730  146.7730 C   0  0  0  0  0  0  0  0  0  0  0  0
  189.5360  177.5490  145.4360 C   0  0  0  0  0  3  0  0  0  0  0  0
  190.3540  176.8680  146.4680 C   0  0  0  0  0  3  0  0  0  0  0  0
  190.2330  177.0530  147.7810 C   0  0  0  0  0  3  0  0  0  0  0  0
  189.3180  178.0640  148.3840 C   0  0  0  0  0  2  0  0  0  0  0  0
  188.2670  177.9460  145.5720 C   0  0  0  0  0  3  0  0  0  0  0  0
  2  7  2  0  0  0  0
  3  1  1  1  0  0  0
  3 13  1  0  0  0  0
  3  9  1  0  0  0  0
  4 14  2  0  0  0  0
  5  2  1  1  0  0  0
  5  6  1  0  0  0  0
  6 11  1  0  0  0  0
  7 11  1  0  0  0  0
  7 15  1  0  0  0  0
  8 15  1  0  0  0  0
  8 31  1  1  0  0  0
  9 32  1  6  0  0  0
  9 12  1  0  0  0  0
 10  8  1  0  0  0  0
 11 42  1  0  0  0  0
 12 14  1  0  0  0  0
 12  2  1  0  0  0  0
 13 19  1  6  0  0  0
 13  5  1  0  0  0  0
 14 10  1  0  0  0  0
 15 45  1  1  0  0  0
 16 18  1  0  0  0  0
 17 19  1  0  0  0  0
 17 20  2  0  0  0  0
 18 19  2  0  0  0  0
 21 16  2  0  0  0  0
 21 22  1  0  0  0  0
 22 17  1  0  0  0  0
 23 22  1  0  0  0  0
 24 25  1  0  0  0  0
 26 23  1  1  0  0  0
 26 24  1  0  0  0  0
 27 26  1  0  0  0  0
 27 29  1  0  0  0  0
 28 25  1  0  0  0  0
 29 28  2  0  0  0  0
 30 31  1  0  0  0  0
 33 38  1  0  0  0  0
 35 36  2  0  0  0  0
 36 34  1  0  0  0  0
 37 33  2  0  0  0  0
 37 35  1  0  0  0  0
 38 32  1  0  0  0  0
 38 34  2  0  0  0  0
 39 40  1  0  0  0  0
 40 35  1  0  0  0  0
 40 41  2  0  0  0  0
 42 43  1  0  0  0  0
 43 44  1  0  0  0  0
 45 46  1  0  0  0  0
 46 48  1  0  0  0  0
 47 46  2  0  0  0  0
 48 49  1  0  0  0  0
 49 51  1  0  0  0  0
 49 50  1  0  0  0  0
 51 53  1  0  0  0  0
 52 57  1  0  0  0  0
 53 52  2  0  0  0  0
 54 58  2  0  0  0  0
 54 55  1  0  0  0  0
 55 56  2  0  0  0  0
 56 57  1  0  0  0  0
 58 53  1  0  0  0  0
M  END
>  <MODEL>
3

>  <REMARK>
 VINA RESULT:      -7.8      2.587      7.164
  Name = 
  15 active torsions:
  status: ('A' for Active; 'I' for Inactive)
    1  A    between atoms: C_4  and  C_10
    2  A    between atoms: C_8  and  C_36
    3  A    between atoms: C_8  and  O_39
    4  A    between atoms: C_10  and  N_17
    5  A    between atoms: N_17  and  O_39
    6  A    between atoms: C_22  and  C_56
    7  A    between atoms: C_23  and  C_41
    8  A    between atoms: C_23  and  C_52
    9  A    between atoms: C_24  and  C_31
   10  A    between atoms: C_33  and  O_35
   11  A    between atoms: C_34  and  C_37
   12  A    between atoms: C_34  and  N_47
   13  A    between atoms: C_36  and  C_58
   14  A    between atoms: C_40  and  N_48
   15  A    between atoms: N_48  and  N_53
                            x       y       z     vdW  Elec       q    Type
                         _______ _______ _______ _____ _____    ______ ____

>  <TORSDO>
F 15

$$$$
=
 OpenBabel11032419133D

 58 64  0  0  1  0  0  0  0  0999 V2000
  187.0060  177.8010  134.5940 C   0  0  0  0  0  1  0  0  0  0  0  0
  188.0340  176.6940  138.3220 C   0  0  0  0  0  0  0  0  0  0  0  0
  186.9180  176.7640  135.6940 C   0  0  1  0  0  3  0  0  0  0  0  0
  189.5820  173.7290  137.3550 O   0  0  0  0  0  0  0  0  0  0  0  0
  186.6050  177.0350  138.2910 C   0  0  1  0  0  3  0  0  0  0  0  0
  186.4560  178.1460  139.1650 O   0  0  0  0  0  0  0  0  0  0  0  0
  188.5920  177.3020  139.3460 C   0  0  0  0  0  0  0  0  0  0  0  0
  190.9980  176.7200  138.7790 C   0  0  1  0  0  3  0  0  0  0  0  0
  188.3340  176.1930  135.9360 C   0  0  1  0  0  3  0  0  0  0  0  0
  190.8290  175.3680  138.3570 O   0  0  0  0  0  0  0  0  0  0  0  0
  187.5670  178.0890  139.9510 N   0  0  0  0  0  0  0  0  0  0  0  0
  188.6420  175.8670  137.3330 N   0  0  0  0  0  0  0  0  0  0  0  0
  186.0890  177.3530  136.8670 C   0  0  2  0  0  3  0  0  0  0  0  0
  189.6880  174.9420  137.6770 C   0  0  0  0  0  0  0  0  0  0  0  0
  189.9950  177.0890  139.8950 C   0  0  1  0  0  3  0  0  0  0  0  0
  182.4320  177.9960  136.1680 N   0  0  0  0  0  0  0  0  0  0  0  0
  183.9050  175.9090  137.1600 C   0  0  0  0  0  0  0  0  0  0  0  0
  183.7800  178.1230  136.2480 C   0  0  0  0  0  3  0  0  0  0  0  0
  184.5750  177.1030  136.7740 C   0  0  2  0  0  3  0  0  0  0  0  0
  184.5460  174.9190  137.5990 O   0  0  0  0  0  0  0  0  0  0  0  0
  181.8140  176.8680  136.5990 C   0  0  0  0  0  2  0  0  0  0  0  0
  182.5430  175.8330  137.0900 N   0  0  0  0  0  0  0  0  0  0  0  0
  181.8950  174.6610  137.5260 N   0  0  0  0  0  2  0  0  0  0  0  0
  179.9140  174.4850  136.0410 C   0  0  0  0  0  2  0  0  0  0  0  0
  180.4690  173.2890  135.2760 C   0  0  0  0  0  2  0  0  0  0  0  0
  180.4390  174.4950  137.4760 C   0  0  1  0  0  3  0  0  0  0  0  0
  180.0290  173.2210  138.2240 C   0  0  0  0  0  2  0  0  0  0  0  0
  180.2330  172.0110  136.0260 C   0  0  0  0  0  3  0  0  0  0  0  0
  180.0820  171.9770  137.3640 C   0  0  0  0  0  3  0  0  0  0  0  0
  193.1630  176.2470  138.2140 C   0  0  0  0  0  1  0  0  0  0  0  0
  192.3490  177.0060  139.0670 O   0  0  0  0  0  0  0  0  0  0  0  0
  188.5630  175.0060  134.9990 C   0  0  0  0  0  2  0  0  0  0  0  0
  187.7410  172.7640  135.7260 C   0  0  0  0  0  3  0  0  0  0  0  0
  186.1790  174.2740  134.6510 C   0  0  0  0  0  3  0  0  0  0  0  0
  185.4430  172.0650  135.3560 C   0  0  0  0  0  0  0  0  0  0  0  0
  185.1700  173.3080  134.7590 C   0  0  0  0  0  3  0  0  0  0  0  0
  186.7340  171.8000  135.8360 C   0  0  0  0  0  3  0  0  0  0  0  0
  187.4680  173.9990  135.1340 C   0  0  0  0  0  0  0  0  0  0  0  0
  183.5120  171.0660  136.6090 N   0  0  0  0  0  1  0  0  0  0  0  0
  184.3810  171.0530  135.4810 C   0  0  0  0  0  0  0  0  0  0  0  0
  184.2470  170.1540  134.6100 O   0  0  0  0  0  0  0  0  0  0  0  0
  187.4880  178.3080  141.3960 C   0  0  0  0  0  2  0  0  0  0  0  0
  186.2280  179.0620  141.7870 C   0  0  0  0  0  2  0  0  0  0  0  0
  185.2230  178.1230  142.4170 C   0  0  0  0  0  1  0  0  0  0  0  0
  190.4880  178.2860  140.7230 C   0  0  0  0  0  2  0  0  0  0  0  0
  191.0840  177.8500  142.0440 C   0  0  0  0  0  0  0  0  0  0  0  0
  191.4650  178.7190  142.8750 O   0  0  0  0  0  0  0  0  0  0  0  0
  191.2200  176.5020  142.4030 O   0  0  0  0  0  0  0  0  0  0  0  0
  190.5340  175.8670  143.4290 N   0  0  0  0  0  0  0  0  0  0  0  0
  190.5280  174.5320  143.1980 O   0  0  0  0  0  1  0  0  0  0  0  0
  189.1580  176.3680  143.4430 C   0  0  0  0  0  2  0  0  0  0  0  0
  187.5850  177.3340  145.0250 C   0  0  0  0  0  3  0  0  0  0  0  0
  188.8550  177.0010  144.7610 C   0  0  0  0  0  0  0  0  0  0  0  0
  189.9370  177.2640  147.0130 C   0  0  0  0  0  3  0  0  0  0  0  0
  188.7360  177.0100  147.8430 C   0  0  0  0  0  3  0  0  0  0  0  0
  187.4880  177.3200  147.4950 C   0  0  0  0  0  3  0  0  0  0  0  0
  187.1490  178.0710  146.2530 C   0  0  0  0  0  2  0  0  0  0  0  0
  189.9860  177.2670  145.6770 C   0  0  0  0  0  3  0  0  0  0  0  0
  2  7  2  0  0  0  0
  3  1  1  6  0  0  0
  3  9  1  0  0  0  0
  3 13  1  0  0  0  0
  4 14  2  0  0  0  0
  5  2  1  6  0  0  0
  5  6  1  0  0  0  0
  6 11  1  0  0  0  0
  7 15  1  0  0  0  0
  7 11  1  0  0  0  0
  8 31  1  1  0  0  0
  8 15  1  0  0  0  0
  9 32  1  6  0  0  0
  9 12  1  0  0  0  0
 10  8  1  0  0  0  0
 11 42  1  0  0  0  0
 12 14  1  0  0  0  0
 12  2  1  0  0  0  0
 13 19  1  1  0  0  0
 13  5  1  0  0  0  0
 14 10  1  0  0  0  0
 15 45  1  6  0  0  0
 16 18  2  0  0  0  0
 16 21  1  0  0  0  0
 17 20  2  0  0  0  0
 19 18  1  6  0  0  0
 19 17  1  0  0  0  0
 21 22  1  0  0  0  0
 22 17  1  0  0  0  0
 22 23  1  0  0  0  0
 24 26  1  0  0  0  0
 25 28  1  0  0  0  0
 25 24  1  0  0  0  0
 26 23  1  6  0  0  0
 26 27  1  0  0  0  0
 28 29  2  0  0  0  0
 29 27  1  0  0  0  0
 30 31  1  0  0  0  0
 32 38  1  0  0  0  0
 33 37  1  0  0  0  0
 34 36  2  0  0  0  0
 34 38  1  0  0  0  0
 35 40  1  0  0  0  0
 35 37  2  0  0  0  0
 36 35  1  0  0  0  0
 38 33  2  0  0  0  0
 40 39  1  0  0  0  0
 41 40  2  0  0  0  0
 42 43  1  0  0  0  0
 43 44  1  0  0  0  0
 45 46  1  0  0  0  0
 46 48  1  0  0  0  0
 46 47  2  0  0  0  0
 48 49  1  0  0  0  0
 49 51  1  0  0  0  0
 50 49  1  0  0  0  0
 51 53  1  0  0  0  0
 52 57  1  0  0  0  0
 53 52  2  0  0  0  0
 53 58  1  0  0  0  0
 54 55  1  0  0  0  0
 56 55  2  0  0  0  0
 57 56  1  0  0  0  0
 58 54  2  0  0  0  0
M  END
>  <MODEL>
4

>  <REMARK>
 VINA RESULT:      -7.2      2.072      3.462
  Name = 
  15 active torsions:
  status: ('A' for Active; 'I' for Inactive)
    1  A    between atoms: C_4  and  C_10
    2  A    between atoms: C_8  and  C_36
    3  A    between atoms: C_8  and  O_39
    4  A    between atoms: C_10  and  N_17
    5  A    between atoms: N_17  and  O_39
    6  A    between atoms: C_22  and  C_56
    7  A    between atoms: C_23  and  C_41
    8  A    between atoms: C_23  and  C_52
    9  A    between atoms: C_24  and  C_31
   10  A    between atoms: C_33  and  O_35
   11  A    between atoms: C_34  and  C_37
   12  A    between atoms: C_34  and  N_47
   13  A    between atoms: C_36  and  C_58
   14  A    between atoms: C_40  and  N_48
   15  A    between atoms: N_48  and  N_53
                            x       y       z     vdW  Elec       q    Type
                         _______ _______ _______ _____ _____    ______ ____

>  <TORSDO>
F 15

$$$$
=
 OpenBabel11032419133D

 58 64  0  0  1  0  0  0  0  0999 V2000
  182.6450  176.8600  140.9630 C   0  0  0  0  0  1  0  0  0  0  0  0
  186.0560  178.2970  139.3890 C   0  0  0  0  0  0  0  0  0  0  0  0
  183.4440  178.0680  140.5220 C   0  0  1  0  0  3  0  0  0  0  0  0
  186.8250  180.3330  142.1060 O   0  0  0  0  0  0  0  0  0  0  0  0
  184.9680  178.4430  138.4110 C   0  0  1  0  0  3  0  0  0  0  0  0
  185.3410  177.6430  137.2980 O   0  0  0  0  0  0  0  0  0  0  0  0
  187.0950  177.7590  138.7880 C   0  0  0  0  0  0  0  0  0  0  0  0
  188.5030  177.3940  140.8700 C   0  0  1  0  0  3  0  0  0  0  0  0
  184.6920  178.1810  141.4280 C   0  0  1  0  0  3  0  0  0  0  0  0
  188.2360  178.6130  141.5610 O   0  0  0  0  0  0  0  0  0  0  0  0
  186.6870  177.4890  137.4470 N   0  0  0  0  0  0  0  0  0  0  0  0
  185.9050  178.6620  140.7580 N   0  0  0  0  0  0  0  0  0  0  0  0
  183.5880  178.0320  138.9760 C   0  0  2  0  0  3  0  0  0  0  0  0
  186.9930  179.2430  141.4980 C   0  0  0  0  0  0  0  0  0  0  0  0
  188.5060  177.6070  139.3390 C   0  0  1  0  0  3  0  0  0  0  0  0
  180.5490  178.4910  136.7780 N   0  0  0  0  0  0  0  0  0  0  0  0
  182.2420  180.1450  138.1590 C   0  0  0  0  0  0  0  0  0  0  0  0
  181.5490  177.9420  137.5110 C   0  0  0  0  0  3  0  0  0  0  0  0
  182.4590  178.7390  138.2090 C   0  0  2  0  0  3  0  0  0  0  0  0
  182.9820  180.9370  138.7980 O   0  0  0  0  0  0  0  0  0  0  0  0
  180.4020  179.8370  136.7010 C   0  0  0  0  0  2  0  0  0  0  0  0
  181.2400  180.6570  137.3860 N   0  0  0  0  0  0  0  0  0  0  0  0
  181.0740  182.0540  137.3100 N   0  0  0  0  0  2  0  0  0  0  0  0
  179.4070  183.8580  137.6660 C   0  0  0  0  0  2  0  0  0  0  0  0
  180.4530  184.9670  137.6380 C   0  0  0  0  0  2  0  0  0  0  0  0
  179.8510  182.6800  136.7990 C   0  0  1  0  0  3  0  0  0  0  0  0
  180.0480  183.1090  135.3410 C   0  0  0  0  0  2  0  0  0  0  0  0
  180.8090  185.3400  136.2280 C   0  0  0  0  0  3  0  0  0  0  0  0
  180.6700  184.4820  135.1990 C   0  0  0  0  0  3  0  0  0  0  0  0
  189.6680  176.9180  142.7790 C   0  0  0  0  0  1  0  0  0  0  0  0
  189.6440  176.7460  141.3870 O   0  0  0  0  0  0  0  0  0  0  0  0
  184.3420  179.0130  142.6630 C   0  0  0  0  0  2  0  0  0  0  0  0
  185.1030  179.3480  145.0160 C   0  0  0  0  0  3  0  0  0  0  0  0
  186.0400  177.5050  143.7510 C   0  0  0  0  0  3  0  0  0  0  0  0
  186.7640  177.8990  146.0390 C   0  0  0  0  0  0  0  0  0  0  0  0
  186.8360  177.1540  144.8500 C   0  0  0  0  0  3  0  0  0  0  0  0
  185.8950  178.9980  146.1140 C   0  0  0  0  0  3  0  0  0  0  0  0
  185.1740  178.6060  143.8350 C   0  0  0  0  0  0  0  0  0  0  0  0
  187.5030  178.2720  148.4080 N   0  0  0  0  0  1  0  0  0  0  0  0
  187.5900  177.5250  147.1990 C   0  0  0  0  0  0  0  0  0  0  0  0
  188.3980  176.5610  147.1270 O   0  0  0  0  0  0  0  0  0  0  0  0
  187.5960  177.6040  136.3070 C   0  0  0  0  0  2  0  0  0  0  0  0
  187.3120  176.5520  135.2470 C   0  0  0  0  0  2  0  0  0  0  0  0
  187.8990  175.2180  135.6540 C   0  0  0  0  0  1  0  0  0  0  0  0
  189.3010  176.5070  138.6190 C   0  0  0  0  0  2  0  0  0  0  0  0
  190.6850  176.9760  138.2300 C   0  0  0  0  0  0  0  0  0  0  0  0
  191.3920  177.6020  139.0660 O   0  0  0  0  0  0  0  0  0  0  0  0
  191.2380  176.7320  136.9650 O   0  0  0  0  0  0  0  0  0  0  0  0
  192.1600  175.7380  136.6660 N   0  0  0  0  0  0  0  0  0  0  0  0
  191.6260  174.5310  136.9740 O   0  0  0  0  0  1  0  0  0  0  0  0
  193.3600  175.9630  137.4740 C   0  0  0  0  0  2  0  0  0  0  0  0
  194.8680  175.9890  135.5680 C   0  0  0  0  0  3  0  0  0  0  0  0
  194.5670  175.4530  136.7570 C   0  0  0  0  0  0  0  0  0  0  0  0
  196.6450  174.1410  137.2740 C   0  0  0  0  0  3  0  0  0  0  0  0
  197.5990  174.9590  136.4900 C   0  0  0  0  0  3  0  0  0  0  0  0
  197.3020  175.6100  135.3660 C   0  0  0  0  0  3  0  0  0  0  0  0
  195.9790  175.5070  134.6870 C   0  0  0  0  0  2  0  0  0  0  0  0
  195.3300  174.3520  137.3840 C   0  0  0  0  0  3  0  0  0  0  0  0
  2 12  1  0  0  0  0
  3  1  1  1  0  0  0
  3  9  1  0  0  0  0
  5  6  1  6  0  0  0
  5 13  1  0  0  0  0
  5  2  1  0  0  0  0
  6 11  1  0  0  0  0
  7 15  1  0  0  0  0
  7  2  2  0  0  0  0
  8 31  1  1  0  0  0
  8 10  1  0  0  0  0
  9 32  1  1  0  0  0
 11  7  1  0  0  0  0
 12  9  1  0  0  0  0
 12 14  1  0  0  0  0
 13 19  1  6  0  0  0
 13  3  1  0  0  0  0
 14 10  1  0  0  0  0
 14  4  2  0  0  0  0
 15 45  1  6  0  0  0
 15  8  1  0  0  0  0
 16 18  2  0  0  0  0
 17 19  1  0  0  0  0
 17 20  2  0  0  0  0
 19 18  1  1  0  0  0
 21 16  1  0  0  0  0
 21 22  1  0  0  0  0
 22 17  1  0  0  0  0
 23 22  1  0  0  0  0
 25 24  1  0  0  0  0
 26 23  1  1  0  0  0
 26 24  1  0  0  0  0
 27 26  1  0  0  0  0
 28 25  1  0  0  0  0
 29 27  1  0  0  0  0
 29 28  2  0  0  0  0
 31 30  1  0  0  0  0
 32 38  1  0  0  0  0
 33 37  1  0  0  0  0
 34 38  1  0  0  0  0
 34 36  2  0  0  0  0
 35 37  2  0  0  0  0
 35 40  1  0  0  0  0
 36 35  1  0  0  0  0
 38 33  2  0  0  0  0
 40 39  1  0  0  0  0
 41 40  2  0  0  0  0
 42 11  1  0  0  0  0
 43 44  1  0  0  0  0
 43 42  1  0  0  0  0
 46 45  1  0  0  0  0
 46 47  2  0  0  0  0
 48 46  1  0  0  0  0
 49 48  1  0  0  0  0
 49 50  1  0  0  0  0
 49 51  1  0  0  0  0
 52 53  2  0  0  0  0
 53 58  1  0  0  0  0
 53 51  1  0  0  0  0
 54 58  2  0  0  0  0
 55 54  1  0  0  0  0
 56 55  2  0  0  0  0
 57 56  1  0  0  0  0
 57 52  1  0  0  0  0
M  END
>  <MODEL>
5

>  <REMARK>
 VINA RESULT:      -7.1      2.537      7.823
  Name = 
  15 active torsions:
  status: ('A' for Active; 'I' for Inactive)
    1  A    between atoms: C_4  and  C_10
    2  A    between atoms: C_8  and  C_36
    3  A    between atoms: C_8  and  O_39
    4  A    between atoms: C_10  and  N_17
    5  A    between atoms: N_17  and  O_39
    6  A    between atoms: C_22  and  C_56
    7  A    between atoms: C_23  and  C_41
    8  A    between atoms: C_23  and  C_52
    9  A    between atoms: C_24  and  C_31
   10  A    between atoms: C_33  and  O_35
   11  A    between atoms: C_34  and  C_37
   12  A    between atoms: C_34  and  N_47
   13  A    between atoms: C_36  and  C_58
   14  A    between atoms: C_40  and  N_48
   15  A    between atoms: N_48  and  N_53
                            x       y       z     vdW  Elec       q    Type
                         _______ _______ _______ _____ _____    ______ ____

>  <TORSDO>
F 15

$$$$
=
 OpenBabel11032419133D

 58 64  0  0  1  0  0  0  0  0999 V2000
  182.6940  176.9300  141.2450 C   0  0  0  0  0  1  0  0  0  0  0  0
  186.0340  178.3550  139.5150 C   0  0  0  0  0  0  0  0  0  0  0  0
  183.4690  178.1330  140.7520 C   0  0  1  0  0  3  0  0  0  0  0  0
  186.8960  180.4410  142.1650 O   0  0  0  0  0  0  0  0  0  0  0  0
  184.9070  178.4790  138.5780 C   0  0  1  0  0  3  0  0  0  0  0  0
  185.2410  177.6620  137.4650 O   0  0  0  0  0  0  0  0  0  0  0  0
  187.0510  177.8120  138.8830 C   0  0  0  0  0  0  0  0  0  0  0  0
  188.5410  177.4900  140.9140 C   0  0  1  0  0  3  0  0  0  0  0  0
  184.7500  178.2670  141.6070 C   0  0  1  0  0  3  0  0  0  0  0  0
  188.2950  178.7190  141.5950 O   0  0  0  0  0  0  0  0  0  0  0  0
  186.5930  177.5170  137.5640 N   0  0  0  0  0  0  0  0  0  0  0  0
  185.9330  178.7430  140.8820 N   0  0  0  0  0  0  0  0  0  0  0  0
  183.5520  178.0710  139.2030 C   0  0  2  0  0  3  0  0  0  0  0  0
  187.0470  179.3420  141.5690 C   0  0  0  0  0  0  0  0  0  0  0  0
  188.4830  177.6760  139.3810 C   0  0  1  0  0  3  0  0  0  0  0  0
  180.3940  178.4750  137.1680 N   0  0  0  0  0  0  0  0  0  0  0  0
  182.1930  180.1650  138.3600 C   0  0  0  0  0  0  0  0  0  0  0  0
  181.4290  177.9460  137.8670 C   0  0  0  0  0  3  0  0  0  0  0  0
  182.3910  178.7600  138.4690 C   0  0  2  0  0  3  0  0  0  0  0  0
  182.9820  180.9750  138.9130 O   0  0  0  0  0  0  0  0  0  0  0  0
  180.2650  179.8190  137.0310 C   0  0  0  0  0  2  0  0  0  0  0  0
  181.1540  180.6570  137.6220 N   0  0  0  0  0  0  0  0  0  0  0  0
  181.0060  182.0510  137.4850 N   0  0  0  0  0  2  0  0  0  0  0  0
  179.2740  183.8190  137.6710 C   0  0  0  0  0  2  0  0  0  0  0  0
  180.2940  184.9460  137.7820 C   0  0  0  0  0  2  0  0  0  0  0  0
  179.8390  182.6640  136.8440 C   0  0  1  0  0  3  0  0  0  0  0  0
  180.1960  183.1220  135.4260 C   0  0  0  0  0  2  0  0  0  0  0  0
  180.8040  185.3490  136.4290 C   0  0  0  0  0  3  0  0  0  0  0  0
  180.8030  184.5070  135.3780 C   0  0  0  0  0  3  0  0  0  0  0  0
  189.4190  176.2770  142.6430 C   0  0  0  0  0  1  0  0  0  0  0  0
  189.7050  176.8560  141.3980 O   0  0  0  0  0  0  0  0  0  0  0  0
  184.4440  179.1190  142.8400 C   0  0  0  0  0  2  0  0  0  0  0  0
  185.2570  179.4450  145.1780 C   0  0  0  0  0  3  0  0  0  0  0  0
  186.0490  177.5200  143.9380 C   0  0  0  0  0  3  0  0  0  0  0  0
  186.8280  177.9060  146.2100 C   0  0  0  0  0  0  0  0  0  0  0  0
  186.8340  177.1360  145.0350 C   0  0  0  0  0  3  0  0  0  0  0  0
  186.0370  179.0630  146.2730 C   0  0  0  0  0  3  0  0  0  0  0  0
  185.2620  178.6790  144.0110 C   0  0  0  0  0  0  0  0  0  0  0  0
  188.9210  176.9060  147.1680 N   0  0  0  0  0  1  0  0  0  0  0  0
  187.6410  177.4980  147.3670 C   0  0  0  0  0  0  0  0  0  0  0  0
  187.2050  177.6430  148.5400 O   0  0  0  0  0  0  0  0  0  0  0  0
  187.4560  177.6170  136.3870 C   0  0  0  0  0  2  0  0  0  0  0  0
  186.6610  177.5550  135.0940 C   0  0  0  0  0  2  0  0  0  0  0  0
  186.3890  176.1190  134.7050 C   0  0  0  0  0  1  0  0  0  0  0  0
  189.2550  176.5670  138.6490 C   0  0  0  0  0  2  0  0  0  0  0  0
  190.6270  177.0310  138.2130 C   0  0  0  0  0  0  0  0  0  0  0  0
  191.4300  177.4990  139.0660 O   0  0  0  0  0  0  0  0  0  0  0  0
  191.0650  176.9510  136.8840 O   0  0  0  0  0  0  0  0  0  0  0  0
  191.7720  175.8930  136.3300 N   0  0  0  0  0  0  0  0  0  0  0  0
  193.0040  176.3240  135.9680 O   0  0  0  0  0  1  0  0  0  0  0  0
  191.0500  175.4260  135.1450 C   0  0  0  0  0  2  0  0  0  0  0  0
  189.1960  174.2020  136.1340 C   0  0  0  0  0  3  0  0  0  0  0  0
  190.3430  174.1450  135.4450 C   0  0  0  0  0  0  0  0  0  0  0  0
  190.3450  171.7650  134.6400 C   0  0  0  0  0  3  0  0  0  0  0  0
  188.8780  171.5580  134.6240 C   0  0  0  0  0  3  0  0  0  0  0  0
  188.0160  172.1380  135.4580 C   0  0  0  0  0  3  0  0  0  0  0  0
  188.4370  172.9990  136.6000 C   0  0  0  0  0  2  0  0  0  0  0  0
  190.9790  172.8850  135.0030 C   0  0  0  0  0  3  0  0  0  0  0  0
  2 12  1  0  0  0  0
  3  1  1  1  0  0  0
  3  9  1  0  0  0  0
  5  6  1  6  0  0  0
  5 13  1  0  0  0  0
  5  2  1  0  0  0  0
  6 11  1  0  0  0  0
  7 15  1  0  0  0  0
  7  2  2  0  0  0  0
  8 31  1  6  0  0  0
  8 10  1  0  0  0  0
  9 32  1  1  0  0  0
 11  7  1  0  0  0  0
 12 14  1  0  0  0  0
 12  9  1  0  0  0  0
 13 19  1  6  0  0  0
 13  3  1  0  0  0  0
 14 10  1  0  0  0  0
 14  4  2  0  0  0  0
 15 45  1  6  0  0  0
 15  8  1  0  0  0  0
 16 18  2  0  0  0  0
 17 19  1  0  0  0  0
 17 20  2  0  0  0  0
 19 18  1  1  0  0  0
 21 16  1  0  0  0  0
 21 22  1  0  0  0  0
 22 17  1  0  0  0  0
 23 22  1  0  0  0  0
 24 25  1  0  0  0  0
 26 23  1  1  0  0  0
 26 24  1  0  0  0  0
 27 26  1  0  0  0  0
 28 25  1  0  0  0  0
 29 27  1  0  0  0  0
 29 28  2  0  0  0  0
 31 30  1  0  0  0  0
 32 38  1  0  0  0  0
 33 37  1  0  0  0  0
 34 38  1  0  0  0  0
 34 36  2  0  0  0  0
 35 37  2  0  0  0  0
 35 40  1  0  0  0  0
 36 35  1  0  0  0  0
 38 33  2  0  0  0  0
 39 40  1  0  0  0  0
 40 41  2  0  0  0  0
 42 11  1  0  0  0  0
 43 42  1  0  0  0  0
 44 43  1  0  0  0  0
 46 45  1  0  0  0  0
 46 47  2  0  0  0  0
 48 46  1  0  0  0  0
 49 48  1  0  0  0  0
 50 49  1  0  0  0  0
 51 53  1  0  0  0  0
 51 49  1  0  0  0  0
 52 57  1  0  0  0  0
 53 52  2  0  0  0  0
 54 58  2  0  0  0  0
 55 54  1  0  0  0  0
 55 56  2  0  0  0  0
 56 57  1  0  0  0  0
 58 53  1  0  0  0  0
M  END
>  <MODEL>
6

>  <REMARK>
 VINA RESULT:      -7.0      2.476      7.783
  Name = 
  15 active torsions:
  status: ('A' for Active; 'I' for Inactive)
    1  A    between atoms: C_4  and  C_10
    2  A    between atoms: C_8  and  C_36
    3  A    between atoms: C_8  and  O_39
    4  A    between atoms: C_10  and  N_17
    5  A    between atoms: N_17  and  O_39
    6  A    between atoms: C_22  and  C_56
    7  A    between atoms: C_23  and  C_41
    8  A    between atoms: C_23  and  C_52
    9  A    between atoms: C_24  and  C_31
   10  A    between atoms: C_33  and  O_35
   11  A    between atoms: C_34  and  C_37
   12  A    between atoms: C_34  and  N_47
   13  A    between atoms: C_36  and  C_58
   14  A    between atoms: C_40  and  N_48
   15  A    between atoms: N_48  and  N_53
                            x       y       z     vdW  Elec       q    Type
                         _______ _______ _______ _____ _____    ______ ____

>  <TORSDO>
F 15

$$$$
=
 OpenBabel11032419133D

 58 64  0  0  1  0  0  0  0  0999 V2000
  187.1640  178.9610  135.3040 C   0  0  0  0  0  1  0  0  0  0  0  0
  188.2270  177.1230  138.7210 C   0  0  0  0  0  0  0  0  0  0  0  0
  186.9920  177.7750  136.2290 C   0  0  1  0  0  3  0  0  0  0  0  0
  189.2980  174.1900  137.1810 O   0  0  0  0  0  0  0  0  0  0  0  0
  186.8590  177.6440  138.8520 C   0  0  1  0  0  3  0  0  0  0  0  0
  186.9110  178.6020  139.9000 O   0  0  0  0  0  0  0  0  0  0  0  0
  188.9170  177.4750  139.7840 C   0  0  0  0  0  0  0  0  0  0  0  0
  191.1870  176.6960  138.9520 C   0  0  1  0  0  3  0  0  0  0  0  0
  188.3270  176.9960  136.2700 C   0  0  1  0  0  3  0  0  0  0  0  0
  190.8110  175.4660  138.3340 O   0  0  0  0  0  0  0  0  0  0  0  0
  188.0440  178.2740  140.5820 N   0  0  0  0  0  0  0  0  0  0  0  0
  188.6610  176.4040  137.5700 N   0  0  0  0  0  0  0  0  0  0  0  0
  186.3160  178.2590  137.5400 C   0  0  2  0  0  3  0  0  0  0  0  0
  189.5870  175.3080  137.6830 C   0  0  0  0  0  0  0  0  0  0  0  0
  190.3050  176.9970  140.1850 C   0  0  1  0  0  3  0  0  0  0  0  0
  182.8090  177.4020  136.4280 N   0  0  0  0  0  0  0  0  0  0  0  0
  183.9220  178.8920  138.4410 C   0  0  0  0  0  0  0  0  0  0  0  0
  184.1600  177.4550  136.5350 C   0  0  0  0  0  3  0  0  0  0  0  0
  184.7800  178.2230  137.5220 C   0  0  2  0  0  3  0  0  0  0  0  0
  184.3930  179.5670  139.3930 O   0  0  0  0  0  0  0  0  0  0  0  0
  182.0170  178.0990  137.2810 C   0  0  0  0  0  2  0  0  0  0  0  0
  182.5670  178.8360  138.2790 N   0  0  0  0  0  0  0  0  0  0  0  0
  181.7380  179.5480  139.1680 N   0  0  0  0  0  2  0  0  0  0  0  0
  180.8120  177.9280  140.8050 C   0  0  0  0  0  2  0  0  0  0  0  0
  181.5320  178.5610  141.9900 C   0  0  0  0  0  2  0  0  0  0  0  0
  180.5120  178.9780  139.7360 C   0  0  1  0  0  3  0  0  0  0  0  0
  179.6210  180.0940  140.2910 C   0  0  0  0  0  2  0  0  0  0  0  0
  180.7870  179.7610  142.4980 C   0  0  0  0  0  3  0  0  0  0  0  0
  179.9610  180.4800  141.7150 C   0  0  0  0  0  3  0  0  0  0  0  0
  193.2430  176.3660  138.0080 C   0  0  0  0  0  1  0  0  0  0  0  0
  192.5770  176.7550  139.1790 O   0  0  0  0  0  0  0  0  0  0  0  0
  188.3410  175.9630  135.1420 C   0  0  0  0  0  2  0  0  0  0  0  0
  187.4690  173.6760  135.6330 C   0  0  0  0  0  3  0  0  0  0  0  0
  185.8850  175.4130  135.0440 C   0  0  0  0  0  3  0  0  0  0  0  0
  185.0990  173.1590  135.5070 C   0  0  0  0  0  0  0  0  0  0  0  0
  184.8340  174.4920  135.1520 C   0  0  0  0  0  3  0  0  0  0  0  0
  186.4220  172.7570  135.7440 C   0  0  0  0  0  3  0  0  0  0  0  0
  187.2060  175.0020  135.2830 C   0  0  0  0  0  0  0  0  0  0  0  0
  183.6740  171.6370  136.9040 N   0  0  0  0  0  1  0  0  0  0  0  0
  183.9950  172.1920  135.6330 C   0  0  0  0  0  0  0  0  0  0  0  0
  183.3430  171.8280  134.6190 O   0  0  0  0  0  0  0  0  0  0  0  0
  188.0740  178.2550  142.0450 C   0  0  0  0  0  2  0  0  0  0  0  0
  186.8730  177.5280  142.6270 C   0  0  0  0  0  2  0  0  0  0  0  0
  185.7550  178.5040  142.9230 C   0  0  0  0  0  1  0  0  0  0  0  0
  191.0020  177.9650  141.1530 C   0  0  0  0  0  2  0  0  0  0  0  0
  191.3510  177.2970  142.4640 C   0  0  0  0  0  0  0  0  0  0  0  0
  191.6660  176.0750  142.4800 O   0  0  0  0  0  0  0  0  0  0  0  0
  191.3570  177.9850  143.6850 O   0  0  0  0  0  0  0  0  0  0  0  0
  191.1570  177.4150  144.9350 N   0  0  0  0  0  0  0  0  0  0  0  0
  192.0560  176.4170  145.1160 O   0  0  0  0  0  1  0  0  0  0  0  0
  189.8010  176.8650  144.9790 C   0  0  0  0  0  2  0  0  0  0  0  0
  187.6760  177.6750  145.8380 C   0  0  0  0  0  3  0  0  0  0  0  0
  188.9970  177.5620  146.0270 C   0  0  0  0  0  0  0  0  0  0  0  0
  189.2380  178.2510  148.4300 C   0  0  0  0  0  3  0  0  0  0  0  0
  187.8830  177.8620  148.8870 C   0  0  0  0  0  3  0  0  0  0  0  0
  186.7850  177.8950  148.1330 C   0  0  0  0  0  3  0  0  0  0  0  0
  186.7620  178.4390  146.7450 C   0  0  0  0  0  2  0  0  0  0  0  0
  189.7170  178.1260  147.1890 C   0  0  0  0  0  3  0  0  0  0  0  0
  2  7  2  0  0  0  0
  3  1  1  6  0  0  0
  3  9  1  0  0  0  0
  3 13  1  0  0  0  0
  4 14  2  0  0  0  0
  5  2  1  6  0  0  0
  5  6  1  0  0  0  0
  6 11  1  0  0  0  0
  7 15  1  0  0  0  0
  7 11  1  0  0  0  0
  8 31  1  1  0  0  0
  8 15  1  0  0  0  0
  9 32  1  6  0  0  0
  9 12  1  0  0  0  0
 10  8  1  0  0  0  0
 11 42  1  0  0  0  0
 12 14  1  0  0  0  0
 12  2  1  0  0  0  0
 13 19  1  6  0  0  0
 13  5  1  0  0  0  0
 14 10  1  0  0  0  0
 15 45  1  1  0  0  0
 16 18  2  0  0  0  0
 16 21  1  0  0  0  0
 17 20  2  0  0  0  0
 19 18  1  1  0  0  0
 19 17  1  0  0  0  0
 21 22  1  0  0  0  0
 22 17  1  0  0  0  0
 22 23  1  0  0  0  0
 24 25  1  0  0  0  0
 25 28  1  0  0  0  0
 26 23  1  1  0  0  0
 26 27  1  0  0  0  0
 26 24  1  0  0  0  0
 27 29  1  0  0  0  0
 29 28  2  0  0  0  0
 30 31  1  0  0  0  0
 32 38  1  0  0  0  0
 33 37  1  0  0  0  0
 34 36  2  0  0  0  0
 34 38  1  0  0  0  0
 35 40  1  0  0  0  0
 35 37  2  0  0  0  0
 36 35  1  0  0  0  0
 38 33  2  0  0  0  0
 40 39  1  0  0  0  0
 41 40  2  0  0  0  0
 42 43  1  0  0  0  0
 43 44  1  0  0  0  0
 45 46  1  0  0  0  0
 46 47  2  0  0  0  0
 46 48  1  0  0  0  0
 48 49  1  0  0  0  0
 49 51  1  0  0  0  0
 49 50  1  0  0  0  0
 51 53  1  0  0  0  0
 52 53  2  0  0  0  0
 52 57  1  0  0  0  0
 53 58  1  0  0  0  0
 54 55  1  0  0  0  0
 56 55  2  0  0  0  0
 57 56  1  0  0  0  0
 58 54  2  0  0  0  0
M  END
>  <MODEL>
7

>  <REMARK>
 VINA RESULT:      -6.9      1.410      2.023
  Name = 
  15 active torsions:
  status: ('A' for Active; 'I' for Inactive)
    1  A    between atoms: C_4  and  C_10
    2  A    between atoms: C_8  and  C_36
    3  A    between atoms: C_8  and  O_39
    4  A    between atoms: C_10  and  N_17
    5  A    between atoms: N_17  and  O_39
    6  A    between atoms: C_22  and  C_56
    7  A    between atoms: C_23  and  C_41
    8  A    between atoms: C_23  and  C_52
    9  A    between atoms: C_24  and  C_31
   10  A    between atoms: C_33  and  O_35
   11  A    between atoms: C_34  and  C_37
   12  A    between atoms: C_34  and  N_47
   13  A    between atoms: C_36  and  C_58
   14  A    between atoms: C_40  and  N_48
   15  A    between atoms: N_48  and  N_53
                            x       y       z     vdW  Elec       q    Type
                         _______ _______ _______ _____ _____    ______ ____

>  <TORSDO>
F 15

$$$$
=
 OpenBabel11032419133D

 58 64  0  0  1  0  0  0  0  0999 V2000
  184.8230  177.1760  134.5940 C   0  0  0  0  0  1  0  0  0  0  0  0
  186.8060  176.4480  138.0170 C   0  0  0  0  0  0  0  0  0  0  0  0
  184.9180  176.3740  135.8740 C   0  0  1  0  0  3  0  0  0  0  0  0
  187.3970  173.0860  137.3300 O   0  0  0  0  0  0  0  0  0  0  0  0
  185.5300  177.1110  138.3230 C   0  0  1  0  0  3  0  0  0  0  0  0
  185.8770  178.3470  138.9330 O   0  0  0  0  0  0  0  0  0  0  0  0
  187.7680  177.0570  138.6750 C   0  0  0  0  0  0  0  0  0  0  0  0
  189.7100  175.8370  137.5830 C   0  0  1  0  0  3  0  0  0  0  0  0
  186.2100  175.5260  135.8190 C   0  0  1  0  0  3  0  0  0  0  0  0
  189.1740  174.5150  137.5400 O   0  0  0  0  0  0  0  0  0  0  0  0
  187.1560  178.1490  139.3590 N   0  0  0  0  0  0  0  0  0  0  0  0
  186.8970  175.3570  137.1040 N   0  0  0  0  0  0  0  0  0  0  0  0
  184.6400  177.3180  137.0750 C   0  0  2  0  0  3  0  0  0  0  0  0
  187.8170  174.2730  137.3290 C   0  0  0  0  0  0  0  0  0  0  0  0
  189.2120  176.6030  138.8300 C   0  0  1  0  0  3  0  0  0  0  0  0
  180.9150  176.6830  137.0740 N   0  0  0  0  0  0  0  0  0  0  0  0
  182.6380  178.2650  138.5020 C   0  0  0  0  0  0  0  0  0  0  0  0
  182.2430  176.6190  136.8030 C   0  0  0  0  0  3  0  0  0  0  0  0
  183.1610  177.4250  137.4790 C   0  0  0  0  0  0  0  0  0  0  0  0
  183.3970  178.9900  139.1970 O   0  0  0  0  0  0  0  0  0  0  0  0
  180.4390  177.5370  138.0130 C   0  0  0  0  0  3  0  0  0  0  0  0
  181.2910  178.3210  138.7220 N   0  0  0  0  0  0  0  0  0  0  0  0
  180.7890  179.1970  139.7040 N   0  0  0  0  0  2  0  0  0  0  0  0
  180.0160  177.9890  141.7300 C   0  0  0  0  0  2  0  0  0  0  0  0
  180.9700  178.7310  142.6590 C   0  0  0  0  0  2  0  0  0  0  0  0
  179.6310  178.8690  140.5420 C   0  0  1  0  0  3  0  0  0  0  0  0
  178.9370  180.1540  141.0060 C   0  0  0  0  0  2  0  0  0  0  0  0
  180.4190  180.0740  143.0400 C   0  0  0  0  0  3  0  0  0  0  0  0
  179.5360  180.7360  142.2680 C   0  0  0  0  0  3  0  0  0  0  0  0
  191.3870  175.5070  136.0640 C   0  0  0  0  0  1  0  0  0  0  0  0
  191.1080  175.8340  137.4000 O   0  0  0  0  0  0  0  0  0  0  0  0
  185.9040  174.1880  135.1440 C   0  0  0  0  0  2  0  0  0  0  0  0
  183.5030  173.7160  134.6490 C   0  0  0  0  0  3  0  0  0  0  0  0
  184.3550  173.1780  136.8530 C   0  0  0  0  0  3  0  0  0  0  0  0
  182.0170  172.7670  136.3200 C   0  0  0  0  0  0  0  0  0  0  0  0
  183.0830  172.7270  137.2340 C   0  0  0  0  0  3  0  0  0  0  0  0
  182.2350  173.2660  135.0270 C   0  0  0  0  0  3  0  0  0  0  0  0
  184.5630  173.6750  135.5570 C   0  0  0  0  0  0  0  0  0  0  0  0
  180.2770  170.9600  136.3820 N   0  0  0  0  0  1  0  0  0  0  0  0
  180.6830  172.2830  136.7140 C   0  0  0  0  0  0  0  0  0  0  0  0
  179.8820  173.0400  137.3240 O   0  0  0  0  0  0  0  0  0  0  0  0
  187.5970  178.6020  140.6780 C   0  0  0  0  0  2  0  0  0  0  0  0
  186.4620  179.2280  141.4720 C   0  0  0  0  0  2  0  0  0  0  0  0
  185.3010  178.2640  141.5860 C   0  0  0  0  0  1  0  0  0  0  0  0
  190.1540  177.7610  139.1930 C   0  0  0  0  0  2  0  0  0  0  0  0
  191.1670  177.3560  140.2420 C   0  0  0  0  0  0  0  0  0  0  0  0
  192.3780  177.6760  140.0990 O   0  0  0  0  0  0  0  0  0  0  0  0
  190.8150  176.6420  141.3950 O   0  0  0  0  0  0  0  0  0  0  0  0
  190.6360  177.1870  142.6590 N   0  0  0  0  0  0  0  0  0  0  0  0
  191.8020  177.1090  143.3450 O   0  0  0  0  0  1  0  0  0  0  0  0
  189.6060  176.4120  143.3540 C   0  0  0  0  0  2  0  0  0  0  0  0
  187.7460  177.4030  144.5650 C   0  0  0  0  0  3  0  0  0  0  0  0
  189.0670  177.1910  144.5090 C   0  0  0  0  0  0  0  0  0  0  0  0
  189.8060  177.9100  146.7990 C   0  0  0  0  0  3  0  0  0  0  0  0
  188.5370  177.6380  147.5140 C   0  0  0  0  0  3  0  0  0  0  0  0
  187.3220  177.7400  146.9770 C   0  0  0  0  0  3  0  0  0  0  0  0
  187.0780  178.2550  145.5990 C   0  0  0  0  0  2  0  0  0  0  0  0
  190.0330  177.7220  145.4950 C   0  0  0  0  0  3  0  0  0  0  0  0
  2  7  2  0  0  0  0
  3  1  1  6  0  0  0
  3 13  1  0  0  0  0
  5  2  1  6  0  0  0
  5  6  1  0  0  0  0
  6 11  1  0  0  0  0
  7 15  1  0  0  0  0
  7 11  1  0  0  0  0
  8 31  1  1  0  0  0
  8 15  1  0  0  0  0
  9 32  1  1  0  0  0
  9  3  1  0  0  0  0
  9 12  1  0  0  0  0
 10  8  1  0  0  0  0
 11 42  1  0  0  0  0
 12 14  1  0  0  0  0
 12  2  1  0  0  0  0
 13 19  1  1  0  0  0
 13  5  1  0  0  0  0
 14  4  2  0  0  0  0
 14 10  1  0  0  0  0
 15 45  1  6  0  0  0
 16 21  2  0  0  0  0
 17 22  1  0  0  0  0
 17 20  2  0  0  0  0
 18 16  1  0  0  0  0
 18 19  2  0  0  0  0
 19 17  1  0  0  0  0
 21 22  1  0  0  0  0
 22 23  1  0  0  0  0
 24 25  1  0  0  0  0
 25 28  1  0  0  0  0
 26 23  1  1  0  0  0
 26 27  1  0  0  0  0
 26 24  1  0  0  0  0
 27 29  1  0  0  0  0
 29 28  2  0  0  0  0
 30 31  1  0  0  0  0
 32 38  1  0  0  0  0
 33 37  2  0  0  0  0
 33 38  1  0  0  0  0
 34 36  1  0  0  0  0
 35 40  1  0  0  0  0
 35 36  2  0  0  0  0
 37 35  1  0  0  0  0
 38 34  2  0  0  0  0
 39 40  1  0  0  0  0
 40 41  2  0  0  0  0
 42 43  1  0  0  0  0
 43 44  1  0  0  0  0
 45 46  1  0  0  0  0
 46 48  1  0  0  0  0
 47 46  2  0  0  0  0
 48 49  1  0  0  0  0
 49 50  1  0  0  0  0
 49 51  1  0  0  0  0
 51 53  1  0  0  0  0
 52 57  1  0  0  0  0
 53 52  2  0  0  0  0
 53 58  1  0  0  0  0
 54 55  1  0  0  0  0
 56 55  2  0  0  0  0
 57 56  1  0  0  0  0
 58 54  2  0  0  0  0
M  END
>  <MODEL>
8

>  <REMARK>
 VINA RESULT:      -6.9      1.919      2.752
  Name = 
  15 active torsions:
  status: ('A' for Active; 'I' for Inactive)
    1  A    between atoms: C_4  and  C_10
    2  A    between atoms: C_8  and  C_36
    3  A    between atoms: C_8  and  O_39
    4  A    between atoms: C_10  and  N_17
    5  A    between atoms: N_17  and  O_39
    6  A    between atoms: C_22  and  C_56
    7  A    between atoms: C_23  and  C_41
    8  A    between atoms: C_23  and  C_52
    9  A    between atoms: C_24  and  C_31
   10  A    between atoms: C_33  and  O_35
   11  A    between atoms: C_34  and  C_37
   12  A    between atoms: C_34  and  N_47
   13  A    between atoms: C_36  and  C_58
   14  A    between atoms: C_40  and  N_48
   15  A    between atoms: N_48  and  N_53
                            x       y       z     vdW  Elec       q    Type
                         _______ _______ _______ _____ _____    ______ ____

>  <TORSDO>
F 15

$$$$
=
 OpenBabel11032419133D

 58 64  0  0  1  0  0  0  0  0999 V2000
  188.6900  177.9580  134.5940 C   0  0  0  0  0  1  0  0  0  0  0  0
  189.0200  176.8730  138.4540 C   0  0  0  0  0  0  0  0  0  0  0  0
  188.4590  176.9010  135.6530 C   0  0  1  0  0  3  0  0  0  0  0  0
  190.9510  174.0460  137.8230 O   0  0  0  0  0  0  0  0  0  0  0  0
  187.6060  177.1090  138.1320 C   0  0  1  0  0  3  0  0  0  0  0  0
  187.1990  178.1920  138.9570 O   0  0  0  0  0  0  0  0  0  0  0  0
  189.3120  177.5060  139.5700 C   0  0  0  0  0  0  0  0  0  0  0  0
  191.8200  177.1110  139.5040 C   0  0  1  0  0  3  0  0  0  0  0  0
  189.8350  176.4320  136.1790 C   0  0  1  0  0  3  0  0  0  0  0  0
  191.8420  175.7570  139.0580 O   0  0  0  0  0  0  0  0  0  0  0  0
  188.1290  178.2060  139.9540 N   0  0  0  0  0  0  0  0  0  0  0  0
  189.8760  176.1090  137.6090 N   0  0  0  0  0  0  0  0  0  0  0  0
  187.3670  177.4100  136.6330 C   0  0  2  0  0  3  0  0  0  0  0  0
  190.8980  175.2580  138.1590 C   0  0  0  0  0  0  0  0  0  0  0  0
  190.5860  177.3880  140.3930 C   0  0  1  0  0  3  0  0  0  0  0  0
  184.5070  175.9130  134.6690 N   0  0  0  0  0  0  0  0  0  0  0  0
  184.7480  177.4540  136.9220 C   0  0  0  0  0  0  0  0  0  0  0  0
  185.7470  176.2420  135.1100 C   0  0  0  0  0  3  0  0  0  0  0  0
  185.9270  177.0500  136.2340 C   0  0  0  0  0  0  0  0  0  0  0  0
  184.8160  178.1430  137.9740 O   0  0  0  0  0  0  0  0  0  0  0  0
  183.4000  176.3620  135.3110 C   0  0  0  0  0  3  0  0  0  0  0  0
  183.5190  177.1250  136.4280 N   0  0  0  0  0  0  0  0  0  0  0  0
  182.3640  177.5780  137.0960 N   0  0  0  0  0  2  0  0  0  0  0  0
  182.1210  175.8870  138.8970 C   0  0  0  0  0  2  0  0  0  0  0  0
  182.6150  176.8320  139.9870 C   0  0  0  0  0  2  0  0  0  0  0  0
  181.4360  176.6710  137.7790 C   0  0  1  0  0  3  0  0  0  0  0  0
  180.2300  177.4540  138.3100 C   0  0  0  0  0  2  0  0  0  0  0  0
  181.5150  177.7390  140.4560 C   0  0  0  0  0  3  0  0  0  0  0  0
  180.4630  178.0570  139.6790 C   0  0  0  0  0  3  0  0  0  0  0  0
  193.8570  176.3480  140.2090 C   0  0  0  0  0  1  0  0  0  0  0  0
  193.0580  177.4920  140.0610 O   0  0  0  0  0  0  0  0  0  0  0  0
  190.3390  175.2790  135.3090 C   0  0  0  0  0  2  0  0  0  0  0  0
  192.4800  174.0110  135.1110 C   0  0  0  0  0  3  0  0  0  0  0  0
  192.5850  176.4040  135.4790 C   0  0  0  0  0  3  0  0  0  0  0  0
  194.6380  175.1110  135.3060 C   0  0  0  0  0  0  0  0  0  0  0  0
  193.9850  176.3410  135.4900 C   0  0  0  0  0  3  0  0  0  0  0  0
  193.8760  173.9470  135.1190 C   0  0  0  0  0  3  0  0  0  0  0  0
  191.8320  175.2350  135.2910 C   0  0  0  0  0  0  0  0  0  0  0  0
  196.7810  174.1000  136.1310 N   0  0  0  0  0  1  0  0  0  0  0  0
  196.1080  175.0440  135.3040 C   0  0  0  0  0  0  0  0  0  0  0  0
  196.7850  175.8350  134.5950 O   0  0  0  0  0  0  0  0  0  0  0  0
  187.7420  178.3970  141.3520 C   0  0  0  0  0  2  0  0  0  0  0  0
  186.2510  178.1940  141.5600 C   0  0  0  0  0  2  0  0  0  0  0  0
  185.6360  179.4120  142.2140 C   0  0  0  0  0  1  0  0  0  0  0  0
  190.8090  178.6060  141.3030 C   0  0  0  0  0  2  0  0  0  0  0  0
  191.0050  178.2000  142.7480 C   0  0  0  0  0  0  0  0  0  0  0  0
  191.2610  179.0790  143.6160 O   0  0  0  0  0  0  0  0  0  0  0  0
  190.8970  176.8710  143.1800 O   0  0  0  0  0  0  0  0  0  0  0  0
  189.7950  176.3160  143.8150 N   0  0  0  0  0  0  0  0  0  0  0  0
  189.3020  175.3130  143.0490 O   0  0  0  0  0  1  0  0  0  0  0  0
  188.7780  177.3580  143.9700 C   0  0  0  0  0  2  0  0  0  0  0  0
  189.1700  177.3780  146.3690 C   0  0  0  0  0  3  0  0  0  0  0  0
  188.2730  177.3790  145.3760 C   0  0  0  0  0  0  0  0  0  0  0  0
  186.1460  177.9150  146.5990 C   0  0  0  0  0  3  0  0  0  0  0  0
  186.7460  178.6640  147.7270 C   0  0  0  0  0  3  0  0  0  0  0  0
  187.9500  178.4270  148.2460 C   0  0  0  0  0  3  0  0  0  0  0  0
  188.8130  177.2880  147.8210 C   0  0  0  0  0  2  0  0  0  0  0  0
  186.8090  177.3520  145.5840 C   0  0  0  0  0  3  0  0  0  0  0  0
  2  7  2  0  0  0  0
  3  1  1  6  0  0  0
  3  9  1  0  0  0  0
  3 13  1  0  0  0  0
  4 14  2  0  0  0  0
  5  2  1  6  0  0  0
  5  6  1  0  0  0  0
  6 11  1  0  0  0  0
  7 11  1  0  0  0  0
  7 15  1  0  0  0  0
  8 31  1  1  0  0  0
  8 15  1  0  0  0  0
  9 32  1  6  0  0  0
  9 12  1  0  0  0  0
 10  8  1  0  0  0  0
 11 42  1  0  0  0  0
 12 14  1  0  0  0  0
 12  2  1  0  0  0  0
 13 19  1  6  0  0  0
 13  5  1  0  0  0  0
 14 10  1  0  0  0  0
 15 45  1  6  0  0  0
 16 18  1  0  0  0  0
 16 21  2  0  0  0  0
 17 20  2  0  0  0  0
 18 19  2  0  0  0  0
 19 17  1  0  0  0  0
 21 22  1  0  0  0  0
 22 17  1  0  0  0  0
 22 23  1  0  0  0  0
 24 25  1  0  0  0  0
 25 28  1  0  0  0  0
 26 23  1  1  0  0  0
 26 27  1  0  0  0  0
 26 24  1  0  0  0  0
 27 29  1  0  0  0  0
 29 28  2  0  0  0  0
 31 30  1  0  0  0  0
 33 37  2  0  0  0  0
 33 38  1  0  0  0  0
 34 36  1  0  0  0  0
 35 36  2  0  0  0  0
 37 35  1  0  0  0  0
 38 32  1  0  0  0  0
 38 34  2  0  0  0  0
 40 35  1  0  0  0  0
 40 39  1  0  0  0  0
 41 40  2  0  0  0  0
 42 43  1  0  0  0  0
 43 44  1  0  0  0  0
 45 46  1  0  0  0  0
 46 48  1  0  0  0  0
 46 47  2  0  0  0  0
 48 49  1  0  0  0  0
 49 51  1  0  0  0  0
 50 49  1  0  0  0  0
 51 53  1  0  0  0  0
 52 57  1  0  0  0  0
 53 58  1  0  0  0  0
 53 52  2  0  0  0  0
 54 55  1  0  0  0  0
 55 56  2  0  0  0  0
 57 56  1  0  0  0  0
 58 54  2  0  0  0  0
M  END
>  <MODEL>
9

>  <REMARK>
 VINA RESULT:      -6.7      2.340      4.946
  Name = 
  15 active torsions:
  status: ('A' for Active; 'I' for Inactive)
    1  A    between atoms: C_4  and  C_10
    2  A    between atoms: C_8  and  C_36
    3  A    between atoms: C_8  and  O_39
    4  A    between atoms: C_10  and  N_17
    5  A    between atoms: N_17  and  O_39
    6  A    between atoms: C_22  and  C_56
    7  A    between atoms: C_23  and  C_41
    8  A    between atoms: C_23  and  C_52
    9  A    between atoms: C_24  and  C_31
   10  A    between atoms: C_33  and  O_35
   11  A    between atoms: C_34  and  C_37
   12  A    between atoms: C_34  and  N_47
   13  A    between atoms: C_36  and  C_58
   14  A    between atoms: C_40  and  N_48
   15  A    between atoms: N_48  and  N_53
                            x       y       z     vdW  Elec       q    Type
                         _______ _______ _______ _____ _____    ______ ____

>  <TORSDO>
F 15

$$$$
