=
 OpenBabel11032419363D

 49 55  0  0  1  0  0  0  0  0999 V2000
  188.2990  177.8950  142.9500 C   0  0  0  0  0  3  0  0  0  0  0  0
  184.0730  178.6770  143.8550 C   0  0  0  0  0  0  0  0  0  0  0  0
  185.9550  178.4370  142.4820 C   0  0  0  0  0  0  0  0  0  0  0  0
  185.2000  178.6320  141.3650 C   0  0  0  0  0  0  0  0  0  0  0  0
  188.7970  177.7790  147.3690 C   0  0  0  0  0  1  0  0  0  0  0  0
  187.2860  178.0630  145.2870 C   0  0  0  0  0  0  0  0  0  0  0  0
  183.8150  178.7780  141.4450 C   0  0  0  0  0  0  0  0  0  0  0  0
  182.9860  178.6730  140.2140 C   0  0  0  0  0  2  0  0  0  0  0  0
  187.4790  178.0270  146.7160 C   0  0  0  0  0  0  0  0  0  0  0  0
  186.0510  178.5490  140.2880 C   0  0  0  0  0  0  0  0  0  0  0  0
  184.9460  178.5290  145.8230 C   0  0  0  0  0  0  0  0  0  0  0  0
  187.3070  178.2780  140.7500 N   0  0  0  0  0  0  0  0  0  0  0  0
  180.4160  179.6150  139.4610 O   0  0  0  0  0  0  0  0  0  0  0  0
  186.5190  178.7060  137.9780 O   0  0  0  0  0  0  0  0  0  0  0  0
  186.4320  178.2550  147.5710 N   0  0  0  0  0  0  0  0  0  0  0  0
  185.6970  178.9330  138.9010 C   0  0  0  0  0  0  0  0  0  0  0  0
  184.5240  179.7050  138.5930 N   0  0  0  0  0  0  0  0  0  0  0  0
  180.9930  180.6610  139.0550 C   0  0  0  0  0  0  0  0  0  0  0  0
  183.3560  179.6860  139.1650 C   0  0  0  0  0  0  0  0  0  0  0  0
  187.2400  178.2080  142.1110 C   0  0  0  0  0  0  0  0  0  0  0  0
  185.9540  178.3570  144.9070 C   0  0  0  0  0  0  0  0  0  0  0  0
  183.7220  178.7320  145.1950 C   0  0  0  0  0  3  0  0  0  0  0  0
  188.3510  177.7840  144.3560 C   0  0  0  0  0  0  0  0  0  0  0  0
  185.4010  178.4450  143.6990 N   0  0  0  0  0  0  0  0  0  0  0  0
  182.3910  180.6570  138.7440 N   0  0  0  0  0  2  0  0  0  0  0  0
  185.1910  178.5000  147.1450 N   0  0  0  0  0  0  0  0  0  0  0  0
  183.2220  178.8050  142.7330 C   0  0  0  0  0  3  0  0  0  0  0  0
  180.2050  181.9120  138.8940 C   0  0  0  0  0  2  0  0  0  0  0  0
  180.1980  181.7670  135.1520 C   0  0  0  0  0  3  0  0  0  0  0  0
  180.8450  183.1340  135.3900 C   0  0  0  0  0  2  0  0  0  0  0  0
  180.0580  182.2450  137.4860 N   0  0  0  0  0  0  0  0  0  0  0  0
  179.6350  181.2770  136.4960 C   0  0  0  0  0  3  0  0  0  0  0  0
  181.2420  184.2680  137.4850 O   0  0  0  0  0  0  0  0  0  0  0  0
  180.7530  183.2980  136.8530 C   0  0  0  0  0  0  0  0  0  0  0  0
  189.6010  177.2930  144.8670 N   0  0  0  0  0  2  0  0  0  0  0  0
  190.8310  177.1870  144.0830 C   0  0  2  0  0  3  0  0  0  0  0  0
  191.6100  176.1520  144.5950 O   0  0  0  0  0  1  0  0  0  0  0  0
  191.6090  178.4850  144.1810 C   0  0  0  0  0  1  0  0  0  0  0  0
  188.4950  178.0330  139.9300 C   0  0  0  0  0  2  0  0  0  0  0  0
  189.1150  176.6830  140.2780 C   0  0  0  0  0  2  0  0  0  0  0  0
  190.5740  176.6260  139.8640 C   0  0  0  0  0  2  0  0  0  0  0  0
  190.7810  177.3700  138.5590 C   0  0  0  0  0  2  0  0  0  0  0  0
  191.0960  176.4100  137.4040 C   0  0  0  0  0  2  0  0  0  0  0  0
  190.3820  173.6640  137.5620 O   0  0  0  0  0  0  0  0  0  0  0  0
  189.8800  175.8400  136.8300 N   0  0  0  0  0  0  0  0  0  0  0  0
  188.2760  173.8670  136.5060 C   0  0  0  0  0  1  0  0  0  0  0  0
  189.5660  174.4380  136.9960 C   0  0  0  0  0  0  0  0  0  0  0  0
  189.3090  177.3560  134.9910 C   0  0  0  0  0  1  0  0  0  0  0  0
  188.8810  176.7880  136.3320 C   0  0  0  0  0  2  0  0  0  0  0  0
  1 23  2  0  0  0  0
  2 22  2  0  0  0  0
  3 24  1  0  0  0  0
  4  7  1  0  0  0  0
  4  3  1  0  0  0  0
  6  9  1  0  0  0  0
  7 27  2  0  0  0  0
  8  7  1  0  0  0  0
  9  5  1  0  0  0  0
  9 15  2  0  0  0  0
 10 12  1  0  0  0  0
 10  4  2  0  0  0  0
 11 26  2  0  0  0  0
 12 20  1  0  0  0  0
 14 16  2  0  0  0  0
 16 10  1  0  0  0  0
 17 16  1  0  0  0  0
 17 19  2  0  0  0  0
 18 13  2  0  0  0  0
 19  8  1  0  0  0  0
 20  3  2  0  0  0  0
 20  1  1  0  0  0  0
 21  6  2  0  0  0  0
 21 11  1  0  0  0  0
 22 11  1  0  0  0  0
 23 35  1  0  0  0  0
 23  6  1  0  0  0  0
 24  2  1  0  0  0  0
 24 21  1  0  0  0  0
 25 18  1  0  0  0  0
 25 19  1  0  0  0  0
 26 15  1  0  0  0  0
 27  2  1  0  0  0  0
 28 18  1  0  0  0  0
 29 30  1  0  0  0  0
 29 32  2  0  0  0  0
 30 34  1  0  0  0  0
 31 28  1  0  0  0  0
 32 31  1  0  0  0  0
 34 33  2  0  0  0  0
 34 31  1  0  0  0  0
 36 38  1  1  0  0  0
 36 37  1  0  0  0  0
 36 35  1  0  0  0  0
 39 40  1  0  0  0  0
 39 12  1  0  0  0  0
 41 40  1  0  0  0  0
 42 41  1  0  0  0  0
 43 42  1  0  0  0  0
 45 47  1  0  0  0  0
 45 43  1  0  0  0  0
 46 47  1  0  0  0  0
 47 44  2  0  0  0  0
 48 49  1  0  0  0  0
 49 45  1  0  0  0  0
M  END
>  <MODEL>
1

>  <REMARK>
 VINA RESULT:      -9.8      0.000      0.000
  Name = 
  11 active torsions:
  status: ('A' for Active; 'I' for Inactive)
    1  A    between atoms: C_1  and  N_22
    2  A    between atoms: C_1  and  C_31
    3  A    between atoms: C_3  and  C_6
    4  A    between atoms: C_3  and  C_41
    5  A    between atoms: C_6  and  C_36
    6  A    between atoms: C_10  and  N_30
    7  A    between atoms: C_20  and  N_43
    8  A    between atoms: N_23  and  C_36
    9  A    between atoms: C_24  and  C_41
   10  A    between atoms: C_24  and  N_43
   11  A    between atoms: N_30  and  C_42
                            x       y       z     vdW  Elec       q    Type
                         _______ _______ _______ _____ _____    ______ ____

>  <TORSDO>
F 11

$$$$
=
 OpenBabel11032419363D

 49 55  0  0  1  0  0  0  0  0999 V2000
  187.1170  177.7780  143.9150 C   0  0  0  0  0  3  0  0  0  0  0  0
  191.4080  176.9420  143.4890 C   0  0  0  0  0  0  0  0  0  0  0  0
  189.2310  177.3740  142.7420 C   0  0  0  0  0  0  0  0  0  0  0  0
  189.6490  177.3880  141.4460 C   0  0  0  0  0  0  0  0  0  0  0  0
  187.8410  177.1260  148.2560 C   0  0  0  0  0  1  0  0  0  0  0  0
  188.7220  177.2340  145.8240 C   0  0  0  0  0  0  0  0  0  0  0  0
  190.9990  177.2600  141.1200 C   0  0  0  0  0  0  0  0  0  0  0  0
  191.4660  177.5920  139.7460 C   0  0  0  0  0  2  0  0  0  0  0  0
  188.9250  177.0210  147.2370 C   0  0  0  0  0  0  0  0  0  0  0  0
  188.5410  177.6370  140.6720 C   0  0  0  0  0  0  0  0  0  0  0  0
  191.1060  176.7330  145.6160 C   0  0  0  0  0  0  0  0  0  0  0  0
  187.4650  177.7980  141.4960 N   0  0  0  0  0  0  0  0  0  0  0  0
  193.7090  176.8470  138.1730 O   0  0  0  0  0  0  0  0  0  0  0  0
  187.4590  177.8680  138.5840 O   0  0  0  0  0  0  0  0  0  0  0  0
  190.1580  176.6720  147.7220 N   0  0  0  0  0  0  0  0  0  0  0  0
  188.4940  177.5030  139.1950 C   0  0  0  0  0  0  0  0  0  0  0  0
  189.5180  176.8210  138.4530 N   0  0  0  0  0  0  0  0  0  0  0  0
  193.0150  175.8740  137.7680 C   0  0  0  0  0  0  0  0  0  0  0  0
  190.7980  176.7660  138.6800 C   0  0  0  0  0  0  0  0  0  0  0  0
  187.9000  177.6360  142.7800 C   0  0  0  0  0  0  0  0  0  0  0  0
  189.8920  177.0370  145.0520 C   0  0  0  0  0  0  0  0  0  0  0  0
  192.1090  176.6660  144.6540 C   0  0  0  0  0  3  0  0  0  0  0  0
  187.4520  177.6460  145.2800 C   0  0  0  0  0  0  0  0  0  0  0  0
  190.0940  177.1690  143.7430 N   0  0  0  0  0  0  0  0  0  0  0  0
  191.5850  175.9020  137.8540 N   0  0  0  0  0  2  0  0  0  0  0  0
  191.2300  176.5300  146.9400 N   0  0  0  0  0  0  0  0  0  0  0  0
  191.9180  177.0260  142.1730 C   0  0  0  0  0  3  0  0  0  0  0  0
  193.6970  174.6850  137.1880 C   0  0  0  0  0  2  0  0  0  0  0  0
  197.3390  174.7040  136.3170 C   0  0  0  0  0  3  0  0  0  0  0  0
  197.3800  174.1150  137.7300 C   0  0  0  0  0  2  0  0  0  0  0  0
  195.1410  174.8530  137.2340 N   0  0  0  0  0  0  0  0  0  0  0  0
  195.9180  175.2390  136.0750 C   0  0  0  0  0  3  0  0  0  0  0  0
  195.5490  173.7570  139.2650 O   0  0  0  0  0  0  0  0  0  0  0  0
  195.9750  174.2070  138.1710 C   0  0  0  0  0  0  0  0  0  0  0  0
  186.4010  178.0160  146.1870 N   0  0  0  0  0  2  0  0  0  0  0  0
  185.5980  179.2320  146.0710 C   0  0  2  0  0  3  0  0  0  0  0  0
  185.6790  179.9480  147.2640 O   0  0  0  0  0  1  0  0  0  0  0  0
  184.1490  178.8610  145.8160 C   0  0  0  0  0  1  0  0  0  0  0  0
  186.1050  178.1550  141.0850 C   0  0  0  0  0  2  0  0  0  0  0  0
  185.5770  179.3100  141.9310 C   0  0  0  0  0  2  0  0  0  0  0  0
  184.1100  179.1150  142.2700 C   0  0  0  0  0  2  0  0  0  0  0  0
  183.4830  178.1010  141.3340 C   0  0  0  0  0  2  0  0  0  0  0  0
  182.2930  178.6960  140.5700 C   0  0  0  0  0  2  0  0  0  0  0  0
  181.1630  176.4290  139.2820 O   0  0  0  0  0  0  0  0  0  0  0  0
  181.0330  178.0680  140.9610 N   0  0  0  0  0  0  0  0  0  0  0  0
  179.3210  176.1740  140.7420 C   0  0  0  0  0  1  0  0  0  0  0  0
  180.5510  176.8860  140.2820 C   0  0  0  0  0  0  0  0  0  0  0  0
  180.0580  179.9830  142.1400 C   0  0  0  0  0  1  0  0  0  0  0  0
  180.4390  178.5150  142.2220 C   0  0  0  0  0  2  0  0  0  0  0  0
  1 23  2  0  0  0  0
  2 24  1  0  0  0  0
  2 22  2  0  0  0  0
  3 20  2  0  0  0  0
  3 24  1  0  0  0  0
  4  3  1  0  0  0  0
  6  9  1  0  0  0  0
  7  4  1  0  0  0  0
  7 27  2  0  0  0  0
  8  7  1  0  0  0  0
  9 15  2  0  0  0  0
  9  5  1  0  0  0  0
 10  4  2  0  0  0  0
 10 12  1  0  0  0  0
 11 26  2  0  0  0  0
 12 20  1  0  0  0  0
 14 16  2  0  0  0  0
 16 10  1  0  0  0  0
 17 19  2  0  0  0  0
 17 16  1  0  0  0  0
 18 25  1  0  0  0  0
 18 13  2  0  0  0  0
 19  8  1  0  0  0  0
 20  1  1  0  0  0  0
 21 11  1  0  0  0  0
 21  6  2  0  0  0  0
 22 11  1  0  0  0  0
 23  6  1  0  0  0  0
 23 35  1  0  0  0  0
 24 21  1  0  0  0  0
 25 19  1  0  0  0  0
 26 15  1  0  0  0  0
 27  2  1  0  0  0  0
 28 31  1  0  0  0  0
 28 18  1  0  0  0  0
 29 30  1  0  0  0  0
 30 34  1  0  0  0  0
 31 34  1  0  0  0  0
 32 29  2  0  0  0  0
 32 31  1  0  0  0  0
 34 33  2  0  0  0  0
 36 38  1  1  0  0  0
 36 35  1  0  0  0  0
 36 37  1  0  0  0  0
 39 12  1  0  0  0  0
 39 40  1  0  0  0  0
 40 41  1  0  0  0  0
 42 41  1  0  0  0  0
 43 45  1  0  0  0  0
 43 42  1  0  0  0  0
 44 47  2  0  0  0  0
 45 49  1  0  0  0  0
 47 46  1  0  0  0  0
 47 45  1  0  0  0  0
 48 49  1  0  0  0  0
M  END
>  <MODEL>
2

>  <REMARK>
 VINA RESULT:      -9.4      3.195      9.385
  Name = 
  11 active torsions:
  status: ('A' for Active; 'I' for Inactive)
    1  A    between atoms: C_1  and  N_22
    2  A    between atoms: C_1  and  C_31
    3  A    between atoms: C_3  and  C_6
    4  A    between atoms: C_3  and  C_41
    5  A    between atoms: C_6  and  C_36
    6  A    between atoms: C_10  and  N_30
    7  A    between atoms: C_20  and  N_43
    8  A    between atoms: N_23  and  C_36
    9  A    between atoms: C_24  and  C_41
   10  A    between atoms: C_24  and  N_43
   11  A    between atoms: N_30  and  C_42
                            x       y       z     vdW  Elec       q    Type
                         _______ _______ _______ _____ _____    ______ ____

>  <TORSDO>
F 11

$$$$
=
 OpenBabel11032419363D

 49 55  0  0  1  0  0  0  0  0999 V2000
  186.9200  178.3050  144.0140 C   0  0  0  0  0  3  0  0  0  0  0  0
  190.6050  177.0810  141.9620 C   0  0  0  0  0  0  0  0  0  0  0  0
  188.3840  177.8070  142.1120 C   0  0  0  0  0  0  0  0  0  0  0  0
  188.2960  177.9100  140.7570 C   0  0  0  0  0  0  0  0  0  0  0  0
  189.0900  177.1460  147.7210 C   0  0  0  0  0  1  0  0  0  0  0  0
  189.0250  177.4090  145.1470 C   0  0  0  0  0  0  0  0  0  0  0  0
  189.4030  177.6780  139.9410 C   0  0  0  0  0  0  0  0  0  0  0  0
  189.3740  178.0980  138.5140 C   0  0  0  0  0  2  0  0  0  0  0  0
  189.7010  177.0340  146.3650 C   0  0  0  0  0  0  0  0  0  0  0  0
  187.0240  178.3480  140.4710 C   0  0  0  0  0  0  0  0  0  0  0  0
  191.0780  176.6900  144.0300 C   0  0  0  0  0  0  0  0  0  0  0  0
  186.3570  178.5340  141.6480 N   0  0  0  0  0  0  0  0  0  0  0  0
  190.7640  177.2900  136.1740 O   0  0  0  0  0  0  0  0  0  0  0  0
  185.2940  178.8980  138.9600 O   0  0  0  0  0  0  0  0  0  0  0  0
  190.9680  176.5140  146.3310 N   0  0  0  0  0  0  0  0  0  0  0  0
  186.4230  178.3690  139.1160 C   0  0  0  0  0  0  0  0  0  0  0  0
  187.0040  177.6640  138.0060 N   0  0  0  0  0  0  0  0  0  0  0  0
  189.8480  176.4390  136.0050 C   0  0  0  0  0  0  0  0  0  0  0  0
  188.2590  177.4560  137.7320 C   0  0  0  0  0  0  0  0  0  0  0  0
  187.2060  178.1990  142.6620 C   0  0  0  0  0  0  0  0  0  0  0  0
  189.7940  177.1730  143.9820 C   0  0  0  0  0  0  0  0  0  0  0  0
  191.6400  176.6190  142.7600 C   0  0  0  0  0  3  0  0  0  0  0  0
  187.7110  178.0020  145.1440 C   0  0  0  0  0  0  0  0  0  0  0  0
  189.5180  177.4150  142.7020 N   0  0  0  0  0  0  0  0  0  0  0  0
  188.5660  176.6040  136.6240 N   0  0  0  0  0  2  0  0  0  0  0  0
  191.6500  176.3430  145.1970 N   0  0  0  0  0  0  0  0  0  0  0  0
  190.6040  177.2450  140.5570 C   0  0  0  0  0  3  0  0  0  0  0  0
  190.1060  175.2520  135.1470 C   0  0  0  0  0  2  0  0  0  0  0  0
  187.1190  173.1500  135.9780 C   0  0  0  0  0  3  0  0  0  0  0  0
  188.0550  172.8000  137.1380 C   0  0  0  0  0  2  0  0  0  0  0  0
  189.2420  174.1470  135.5320 N   0  0  0  0  0  0  0  0  0  0  0  0
  187.9380  173.9340  134.9390 C   0  0  0  0  0  3  0  0  0  0  0  0
  190.3210  173.5440  137.5230 O   0  0  0  0  0  0  0  0  0  0  0  0
  189.3020  173.5060  136.7880 C   0  0  0  0  0  0  0  0  0  0  0  0
  187.1240  178.3840  146.3990 N   0  0  0  0  0  2  0  0  0  0  0  0
  185.8580  179.1010  146.5360 C   0  0  2  0  0  3  0  0  0  0  0  0
  185.9570  180.0050  147.5920 O   0  0  0  0  0  1  0  0  0  0  0  0
  184.7450  178.1140  146.8340 C   0  0  0  0  0  1  0  0  0  0  0  0
  185.0010  179.0670  141.7970 C   0  0  0  0  0  2  0  0  0  0  0  0
  184.2270  178.2740  142.8460 C   0  0  0  0  0  2  0  0  0  0  0  0
  183.3590  179.1850  143.6940 C   0  0  0  0  0  2  0  0  0  0  0  0
  181.8980  178.8100  143.5410 C   0  0  0  0  0  2  0  0  0  0  0  0
  181.3020  179.3680  142.2420 C   0  0  0  0  0  2  0  0  0  0  0  0
  178.9330  177.8050  142.3920 O   0  0  0  0  0  0  0  0  0  0  0  0
  180.9570  178.3010  141.3060 N   0  0  0  0  0  0  0  0  0  0  0  0
  179.2960  176.5670  140.4110 C   0  0  0  0  0  1  0  0  0  0  0  0
  179.7070  177.5840  141.4240 C   0  0  0  0  0  0  0  0  0  0  0  0
  181.9590  179.5430  139.4450 C   0  0  0  0  0  1  0  0  0  0  0  0
  181.7880  178.1860  140.1050 C   0  0  0  0  0  2  0  0  0  0  0  0
  1 23  2  0  0  0  0
  2 24  1  0  0  0  0
  2 22  2  0  0  0  0
  3 20  2  0  0  0  0
  3 24  1  0  0  0  0
  4  3  1  0  0  0  0
  6  9  1  0  0  0  0
  7 27  2  0  0  0  0
  7  4  1  0  0  0  0
  8  7  1  0  0  0  0
  9  5  1  0  0  0  0
 10  4  2  0  0  0  0
 10 12  1  0  0  0  0
 11 26  2  0  0  0  0
 12 39  1  0  0  0  0
 12 20  1  0  0  0  0
 14 16  2  0  0  0  0
 15  9  2  0  0  0  0
 16 10  1  0  0  0  0
 17 16  1  0  0  0  0
 18 13  2  0  0  0  0
 18 25  1  0  0  0  0
 19 17  2  0  0  0  0
 19  8  1  0  0  0  0
 20  1  1  0  0  0  0
 21 11  1  0  0  0  0
 21  6  2  0  0  0  0
 22 11  1  0  0  0  0
 23  6  1  0  0  0  0
 23 35  1  0  0  0  0
 24 21  1  0  0  0  0
 25 19  1  0  0  0  0
 26 15  1  0  0  0  0
 27  2  1  0  0  0  0
 28 31  1  0  0  0  0
 28 18  1  0  0  0  0
 29 30  1  0  0  0  0
 31 34  1  0  0  0  0
 32 31  1  0  0  0  0
 32 29  2  0  0  0  0
 34 30  1  0  0  0  0
 34 33  2  0  0  0  0
 35 36  1  0  0  0  0
 36 38  1  1  0  0  0
 36 37  1  0  0  0  0
 39 40  1  0  0  0  0
 40 41  1  0  0  0  0
 42 41  1  0  0  0  0
 43 42  1  0  0  0  0
 45 47  1  0  0  0  0
 45 43  1  0  0  0  0
 46 47  1  0  0  0  0
 47 44  2  0  0  0  0
 48 49  1  0  0  0  0
 49 45  1  0  0  0  0
M  END
>  <MODEL>
3

>  <REMARK>
 VINA RESULT:      -9.4      2.649      7.870
  Name = 
  11 active torsions:
  status: ('A' for Active; 'I' for Inactive)
    1  A    between atoms: C_1  and  N_22
    2  A    between atoms: C_1  and  C_31
    3  A    between atoms: C_3  and  C_6
    4  A    between atoms: C_3  and  C_41
    5  A    between atoms: C_6  and  C_36
    6  A    between atoms: C_10  and  N_30
    7  A    between atoms: C_20  and  N_43
    8  A    between atoms: N_23  and  C_36
    9  A    between atoms: C_24  and  C_41
   10  A    between atoms: C_24  and  N_43
   11  A    between atoms: N_30  and  C_42
                            x       y       z     vdW  Elec       q    Type
                         _______ _______ _______ _____ _____    ______ ____

>  <TORSDO>
F 11

$$$$
=
 OpenBabel11032419363D

 49 55  0  0  1  0  0  0  0  0999 V2000
  186.8090  178.2690  144.1220 C   0  0  0  0  0  3  0  0  0  0  0  0
  190.4940  177.1500  142.0110 C   0  0  0  0  0  0  0  0  0  0  0  0
  188.2640  177.8390  142.1960 C   0  0  0  0  0  0  0  0  0  0  0  0
  188.1630  177.9730  140.8450 C   0  0  0  0  0  0  0  0  0  0  0  0
  189.0250  177.0510  147.7820 C   0  0  0  0  0  1  0  0  0  0  0  0
  188.9350  177.3770  145.2150 C   0  0  0  0  0  0  0  0  0  0  0  0
  189.2670  177.7780  140.0150 C   0  0  0  0  0  0  0  0  0  0  0  0
  189.2200  178.2320  138.5980 C   0  0  0  0  0  2  0  0  0  0  0  0
  189.6280  176.9820  146.4190 C   0  0  0  0  0  0  0  0  0  0  0  0
  186.8830  178.4000  140.5800 C   0  0  0  0  0  0  0  0  0  0  0  0
  190.9900  176.7150  144.0650 C   0  0  0  0  0  0  0  0  0  0  0  0
  186.2230  178.5470  141.7660 N   0  0  0  0  0  0  0  0  0  0  0  0
  190.6030  177.5010  136.2290 O   0  0  0  0  0  0  0  0  0  0  0  0
  185.1330  178.9610  139.0960 O   0  0  0  0  0  0  0  0  0  0  0  0
  190.9020  176.4810  146.3620 N   0  0  0  0  0  0  0  0  0  0  0  0
  186.2700  178.4460  139.2300 C   0  0  0  0  0  0  0  0  0  0  0  0
  186.8530  177.7760  138.0990 N   0  0  0  0  0  0  0  0  0  0  0  0
  189.6970  176.6420  136.0460 C   0  0  0  0  0  0  0  0  0  0  0  0
  188.1080  177.5930  137.8100 C   0  0  0  0  0  0  0  0  0  0  0  0
  187.0860  178.2000  142.7650 C   0  0  0  0  0  0  0  0  0  0  0  0
  189.6980  177.1800  144.0390 C   0  0  0  0  0  0  0  0  0  0  0  0
  191.5420  176.6830  142.7890 C   0  0  0  0  0  3  0  0  0  0  0  0
  187.6130  177.9500  145.2370 C   0  0  0  0  0  0  0  0  0  0  0  0
  189.4080  177.4490  142.7680 N   0  0  0  0  0  0  0  0  0  0  0  0
  188.4190  176.7730  136.6790 N   0  0  0  0  0  2  0  0  0  0  0  0
  191.5770  176.3470  145.2180 N   0  0  0  0  0  0  0  0  0  0  0  0
  190.4790  177.3480  140.6110 C   0  0  0  0  0  3  0  0  0  0  0  0
  189.9650  175.4800  135.1570 C   0  0  0  0  0  2  0  0  0  0  0  0
  193.2300  173.6550  134.9780 C   0  0  0  0  0  3  0  0  0  0  0  0
  192.6120  173.0250  136.2290 C   0  0  0  0  0  2  0  0  0  0  0  0
  191.2380  174.8620  135.4950 N   0  0  0  0  0  0  0  0  0  0  0  0
  192.3720  174.8710  134.5950 C   0  0  0  0  0  3  0  0  0  0  0  0
  190.5180  173.5610  137.3080 O   0  0  0  0  0  0  0  0  0  0  0  0
  191.3750  173.8050  136.4190 C   0  0  0  0  0  0  0  0  0  0  0  0
  187.0310  178.2920  146.5060 N   0  0  0  0  0  2  0  0  0  0  0  0
  185.8270  179.1030  146.6710 C   0  0  2  0  0  3  0  0  0  0  0  0
  186.0160  179.9900  147.7290 O   0  0  0  0  0  1  0  0  0  0  0  0
  184.6480  178.2030  146.9880 C   0  0  0  0  0  1  0  0  0  0  0  0
  184.8610  179.0570  141.9390 C   0  0  0  0  0  2  0  0  0  0  0  0
  184.0910  178.1970  142.9370 C   0  0  0  0  0  2  0  0  0  0  0  0
  183.0830  179.0250  143.7120 C   0  0  0  0  0  2  0  0  0  0  0  0
  181.7280  178.9740  143.0330 C   0  0  0  0  0  2  0  0  0  0  0  0
  181.8580  179.0180  141.5060 C   0  0  0  0  0  2  0  0  0  0  0  0
  182.7520  176.7230  140.0860 O   0  0  0  0  0  0  0  0  0  0  0  0
  180.9740  178.0510  140.8610 N   0  0  0  0  0  0  0  0  0  0  0  0
  180.6100  175.8320  139.6300 C   0  0  0  0  0  1  0  0  0  0  0  0
  181.5080  176.8820  140.1980 C   0  0  0  0  0  0  0  0  0  0  0  0
  178.9520  179.3690  140.4320 C   0  0  0  0  0  1  0  0  0  0  0  0
  179.5440  178.1710  141.1530 C   0  0  0  0  0  2  0  0  0  0  0  0
  1 23  2  0  0  0  0
  2 24  1  0  0  0  0
  2 22  2  0  0  0  0
  3 20  2  0  0  0  0
  3 24  1  0  0  0  0
  4  3  1  0  0  0  0
  6 23  1  0  0  0  0
  6  9  1  0  0  0  0
  7 27  2  0  0  0  0
  7  4  1  0  0  0  0
  8  7  1  0  0  0  0
  9  5  1  0  0  0  0
 10  4  2  0  0  0  0
 10 12  1  0  0  0  0
 11 26  2  0  0  0  0
 12 39  1  0  0  0  0
 12 20  1  0  0  0  0
 14 16  2  0  0  0  0
 15  9  2  0  0  0  0
 16 10  1  0  0  0  0
 17 16  1  0  0  0  0
 18 13  2  0  0  0  0
 18 25  1  0  0  0  0
 19 17  2  0  0  0  0
 19  8  1  0  0  0  0
 20  1  1  0  0  0  0
 21 11  1  0  0  0  0
 21  6  2  0  0  0  0
 22 11  1  0  0  0  0
 23 35  1  0  0  0  0
 24 21  1  0  0  0  0
 25 19  1  0  0  0  0
 26 15  1  0  0  0  0
 27  2  1  0  0  0  0
 28 31  1  0  0  0  0
 28 18  1  0  0  0  0
 29 30  1  0  0  0  0
 30 34  1  0  0  0  0
 31 34  1  0  0  0  0
 32 29  2  0  0  0  0
 32 31  1  0  0  0  0
 34 33  2  0  0  0  0
 35 36  1  0  0  0  0
 36 38  1  1  0  0  0
 36 37  1  0  0  0  0
 39 40  1  0  0  0  0
 40 41  1  0  0  0  0
 42 41  1  0  0  0  0
 43 42  1  0  0  0  0
 44 47  2  0  0  0  0
 45 49  1  0  0  0  0
 45 43  1  0  0  0  0
 46 47  1  0  0  0  0
 47 45  1  0  0  0  0
 48 49  1  0  0  0  0
M  END
>  <MODEL>
4

>  <REMARK>
 VINA RESULT:      -8.9      2.842      8.154
  Name = 
  11 active torsions:
  status: ('A' for Active; 'I' for Inactive)
    1  A    between atoms: C_1  and  N_22
    2  A    between atoms: C_1  and  C_31
    3  A    between atoms: C_3  and  C_6
    4  A    between atoms: C_3  and  C_41
    5  A    between atoms: C_6  and  C_36
    6  A    between atoms: C_10  and  N_30
    7  A    between atoms: C_20  and  N_43
    8  A    between atoms: N_23  and  C_36
    9  A    between atoms: C_24  and  C_41
   10  A    between atoms: C_24  and  N_43
   11  A    between atoms: N_30  and  C_42
                            x       y       z     vdW  Elec       q    Type
                         _______ _______ _______ _____ _____    ______ ____

>  <TORSDO>
F 11

$$$$
=
 OpenBabel11032419363D

 49 55  0  0  1  0  0  0  0  0999 V2000
  186.8810  178.3220  143.9320 C   0  0  0  0  0  3  0  0  0  0  0  0
  190.5740  177.0540  141.9210 C   0  0  0  0  0  0  0  0  0  0  0  0
  188.3600  177.8070  142.0470 C   0  0  0  0  0  0  0  0  0  0  0  0
  188.2890  177.9120  140.6900 C   0  0  0  0  0  0  0  0  0  0  0  0
  188.9930  177.1350  147.6630 C   0  0  0  0  0  1  0  0  0  0  0  0
  188.9610  177.4000  145.0880 C   0  0  0  0  0  0  0  0  0  0  0  0
  189.4030  177.6670  139.8870 C   0  0  0  0  0  0  0  0  0  0  0  0
  189.3950  178.0880  138.4600 C   0  0  0  0  0  2  0  0  0  0  0  0
  189.6190  177.0160  146.3140 C   0  0  0  0  0  0  0  0  0  0  0  0
  187.0270  178.3660  140.3900 C   0  0  0  0  0  0  0  0  0  0  0  0
  191.0190  176.6560  143.9950 C   0  0  0  0  0  0  0  0  0  0  0  0
  186.3480  178.5590  141.5590 N   0  0  0  0  0  0  0  0  0  0  0  0
  190.8030  177.2640  136.1360 O   0  0  0  0  0  0  0  0  0  0  0  0
  185.3210  178.9380  138.8590 O   0  0  0  0  0  0  0  0  0  0  0  0
  190.8800  176.4800  146.2940 N   0  0  0  0  0  0  0  0  0  0  0  0
  186.4410  178.3950  139.0280 C   0  0  0  0  0  0  0  0  0  0  0  0
  187.0270  177.6840  137.9250 N   0  0  0  0  0  0  0  0  0  0  0  0
  189.8780  176.4250  135.9560 C   0  0  0  0  0  0  0  0  0  0  0  0
  188.2820  177.4600  137.6650 C   0  0  0  0  0  0  0  0  0  0  0  0
  187.1820  178.2130  142.5830 C   0  0  0  0  0  0  0  0  0  0  0  0
  189.7410  177.1550  143.9320 C   0  0  0  0  0  0  0  0  0  0  0  0
  191.5940  176.5780  142.7310 C   0  0  0  0  0  3  0  0  0  0  0  0
  187.6550  178.0090  145.0700 C   0  0  0  0  0  0  0  0  0  0  0  0
  189.4820  177.4010  142.6490 N   0  0  0  0  0  0  0  0  0  0  0  0
  188.5920  176.6050  136.5600 N   0  0  0  0  0  2  0  0  0  0  0  0
  191.5730  176.3010  145.1680 N   0  0  0  0  0  0  0  0  0  0  0  0
  190.5920  177.2190  140.5170 C   0  0  0  0  0  3  0  0  0  0  0  0
  190.1310  175.2350  135.1000 C   0  0  0  0  0  2  0  0  0  0  0  0
  187.2070  173.0690  135.9830 C   0  0  0  0  0  3  0  0  0  0  0  0
  188.1380  172.7990  137.1680 C   0  0  0  0  0  2  0  0  0  0  0  0
  189.3000  174.1180  135.5200 N   0  0  0  0  0  0  0  0  0  0  0  0
  188.0120  173.8360  134.9210 C   0  0  0  0  0  3  0  0  0  0  0  0
  190.3720  173.6350  137.5480 O   0  0  0  0  0  0  0  0  0  0  0  0
  189.3650  173.5320  136.8030 C   0  0  0  0  0  0  0  0  0  0  0  0
  187.0580  178.3970  146.3190 N   0  0  0  0  0  2  0  0  0  0  0  0
  185.8340  179.1870  146.4400 C   0  0  2  0  0  3  0  0  0  0  0  0
  185.9120  179.9750  147.5870 O   0  0  0  0  0  1  0  0  0  0  0  0
  184.6400  178.2580  146.5600 C   0  0  0  0  0  1  0  0  0  0  0  0
  184.9970  179.1100  141.6930 C   0  0  0  0  0  2  0  0  0  0  0  0
  183.9720  177.9860  141.8150 C   0  0  0  0  0  2  0  0  0  0  0  0
  182.5590  178.5360  141.8690 C   0  0  0  0  0  2  0  0  0  0  0  0
  181.8070  178.1800  140.6010 C   0  0  0  0  0  2  0  0  0  0  0  0
  182.5480  177.1140  139.7840 C   0  0  0  0  0  2  0  0  0  0  0  0
  184.0250  175.7710  137.7610 O   0  0  0  0  0  0  0  0  0  0  0  0
  182.3250  177.2820  138.3500 N   0  0  0  0  0  0  0  0  0  0  0  0
  182.7970  176.6080  135.9230 C   0  0  0  0  0  1  0  0  0  0  0  0
  183.0890  176.5240  137.3850 C   0  0  0  0  0  0  0  0  0  0  0  0
  181.5000  179.4250  137.4910 C   0  0  0  0  0  1  0  0  0  0  0  0
  181.1280  178.0280  137.9540 C   0  0  0  0  0  2  0  0  0  0  0  0
  1 23  2  0  0  0  0
  2 24  1  0  0  0  0
  2 22  2  0  0  0  0
  3 20  2  0  0  0  0
  3 24  1  0  0  0  0
  4  3  1  0  0  0  0
  6  9  1  0  0  0  0
  7 27  2  0  0  0  0
  7  4  1  0  0  0  0
  8  7  1  0  0  0  0
  9  5  1  0  0  0  0
 10  4  2  0  0  0  0
 10 12  1  0  0  0  0
 11 26  2  0  0  0  0
 12 39  1  0  0  0  0
 12 20  1  0  0  0  0
 14 16  2  0  0  0  0
 15  9  2  0  0  0  0
 16 10  1  0  0  0  0
 17 16  1  0  0  0  0
 18 13  2  0  0  0  0
 18 25  1  0  0  0  0
 19 17  2  0  0  0  0
 19  8  1  0  0  0  0
 20  1  1  0  0  0  0
 21 11  1  0  0  0  0
 21  6  2  0  0  0  0
 22 11  1  0  0  0  0
 23  6  1  0  0  0  0
 23 35  1  0  0  0  0
 24 21  1  0  0  0  0
 25 19  1  0  0  0  0
 26 15  1  0  0  0  0
 27  2  1  0  0  0  0
 28 31  1  0  0  0  0
 28 18  1  0  0  0  0
 29 30  1  0  0  0  0
 31 34  1  0  0  0  0
 32 31  1  0  0  0  0
 32 29  2  0  0  0  0
 34 30  1  0  0  0  0
 34 33  2  0  0  0  0
 35 36  1  0  0  0  0
 36 38  1  1  0  0  0
 36 37  1  0  0  0  0
 39 40  1  0  0  0  0
 40 41  1  0  0  0  0
 42 41  1  0  0  0  0
 43 42  1  0  0  0  0
 45 43  1  0  0  0  0
 46 47  1  0  0  0  0
 47 44  2  0  0  0  0
 47 45  1  0  0  0  0
 48 49  1  0  0  0  0
 49 45  1  0  0  0  0
M  END
>  <MODEL>
5

>  <REMARK>
 VINA RESULT:      -8.9      2.556      7.348
  Name = 
  11 active torsions:
  status: ('A' for Active; 'I' for Inactive)
    1  A    between atoms: C_1  and  N_22
    2  A    between atoms: C_1  and  C_31
    3  A    between atoms: C_3  and  C_6
    4  A    between atoms: C_3  and  C_41
    5  A    between atoms: C_6  and  C_36
    6  A    between atoms: C_10  and  N_30
    7  A    between atoms: C_20  and  N_43
    8  A    between atoms: N_23  and  C_36
    9  A    between atoms: C_24  and  C_41
   10  A    between atoms: C_24  and  N_43
   11  A    between atoms: N_30  and  C_42
                            x       y       z     vdW  Elec       q    Type
                         _______ _______ _______ _____ _____    ______ ____

>  <TORSDO>
F 11

$$$$
=
 OpenBabel11032419363D

 49 55  0  0  1  0  0  0  0  0999 V2000
  186.0740  178.3890  142.5390 C   0  0  0  0  0  3  0  0  0  0  0  0
  190.2550  177.1560  143.0740 C   0  0  0  0  0  0  0  0  0  0  0  0
  188.3390  177.7420  141.8620 C   0  0  0  0  0  0  0  0  0  0  0  0
  189.0220  177.6570  140.6870 C   0  0  0  0  0  0  0  0  0  0  0  0
  185.7930  177.8860  146.9500 C   0  0  0  0  0  1  0  0  0  0  0  0
  187.1760  177.7980  144.7640 C   0  0  0  0  0  0  0  0  0  0  0  0
  190.3920  177.3940  140.6640 C   0  0  0  0  0  0  0  0  0  0  0  0
  191.1690  177.6160  139.4150 C   0  0  0  0  0  2  0  0  0  0  0  0
  187.0530  177.6360  146.1930 C   0  0  0  0  0  0  0  0  0  0  0  0
  188.1330  177.9660  139.6850 C   0  0  0  0  0  0  0  0  0  0  0  0
  189.4900  177.0770  145.0900 C   0  0  0  0  0  0  0  0  0  0  0  0
  186.9270  178.2610  140.2530 N   0  0  0  0  0  0  0  0  0  0  0  0
  193.6120  176.5990  138.3850 O   0  0  0  0  0  0  0  0  0  0  0  0
  187.5470  178.1900  137.4070 O   0  0  0  0  0  0  0  0  0  0  0  0
  188.1150  177.2030  146.9430 N   0  0  0  0  0  0  0  0  0  0  0  0
  188.3880  177.7650  138.2380 C   0  0  0  0  0  0  0  0  0  0  0  0
  189.4750  176.9590  137.7540 N   0  0  0  0  0  0  0  0  0  0  0  0
  192.9290  175.6740  137.8660 C   0  0  0  0  0  0  0  0  0  0  0  0
  190.6660  176.8020  138.2530 C   0  0  0  0  0  0  0  0  0  0  0  0
  187.0620  178.1230  141.6040 C   0  0  0  0  0  0  0  0  0  0  0  0
  188.4590  177.4610  144.2690 C   0  0  0  0  0  0  0  0  0  0  0  0
  190.6620  176.8750  144.3700 C   0  0  0  0  0  3  0  0  0  0  0  0
  186.0970  178.2940  143.9470 C   0  0  0  0  0  0  0  0  0  0  0  0
  188.9460  177.5100  143.0310 N   0  0  0  0  0  0  0  0  0  0  0  0
  191.5230  175.8320  137.6410 N   0  0  0  0  0  2  0  0  0  0  0  0
  189.3100  176.9290  146.4150 N   0  0  0  0  0  0  0  0  0  0  0  0
  191.0390  177.1300  141.8970 C   0  0  0  0  0  3  0  0  0  0  0  0
  193.5990  174.4020  137.4820 C   0  0  0  0  0  2  0  0  0  0  0  0
  197.0740  174.6260  136.1030 C   0  0  0  0  0  3  0  0  0  0  0  0
  197.3280  173.8790  137.4150 C   0  0  0  0  0  2  0  0  0  0  0  0
  195.0320  174.6050  137.3390 N   0  0  0  0  0  0  0  0  0  0  0  0
  195.6270  175.1440  136.1330 C   0  0  0  0  0  3  0  0  0  0  0  0
  195.7470  173.2930  139.1450 O   0  0  0  0  0  0  0  0  0  0  0  0
  196.0030  173.8790  138.0620 C   0  0  0  0  0  0  0  0  0  0  0  0
  184.9180  178.8000  144.5960 N   0  0  0  0  0  2  0  0  0  0  0  0
  183.7480  179.3230  143.8930 C   0  0  2  0  0  3  0  0  0  0  0  0
  183.6700  180.6990  144.0990 O   0  0  0  0  0  1  0  0  0  0  0  0
  182.4930  178.6710  144.4410 C   0  0  0  0  0  1  0  0  0  0  0  0
  185.7270  178.7170  139.5470 C   0  0  0  0  0  2  0  0  0  0  0  0
  184.5000  177.9500  140.0300 C   0  0  0  0  0  2  0  0  0  0  0  0
  183.2390  178.7820  139.8840 C   0  0  0  0  0  2  0  0  0  0  0  0
  182.1320  178.2160  140.7500 C   0  0  0  0  0  2  0  0  0  0  0  0
  180.9140  177.8020  139.9140 C   0  0  0  0  0  2  0  0  0  0  0  0
  178.9310  176.2740  141.2600 O   0  0  0  0  0  0  0  0  0  0  0  0
  180.7900  176.3490  139.8250 N   0  0  0  0  0  0  0  0  0  0  0  0
  179.5220  174.1810  140.3330 C   0  0  0  0  0  1  0  0  0  0  0  0
  179.7220  175.6510  140.5040 C   0  0  0  0  0  0  0  0  0  0  0  0
  181.2530  176.1770  137.4230 C   0  0  0  0  0  1  0  0  0  0  0  0
  181.6110  175.6800  138.8130 C   0  0  0  0  0  2  0  0  0  0  0  0
  1 23  2  0  0  0  0
  2 22  2  0  0  0  0
  3 24  1  0  0  0  0
  4  3  1  0  0  0  0
  6  9  1  0  0  0  0
  7  4  1  0  0  0  0
  7 27  2  0  0  0  0
  8  7  1  0  0  0  0
  9 15  2  0  0  0  0
  9  5  1  0  0  0  0
 10 12  1  0  0  0  0
 10  4  2  0  0  0  0
 11 26  2  0  0  0  0
 12 20  1  0  0  0  0
 14 16  2  0  0  0  0
 16 10  1  0  0  0  0
 17 16  1  0  0  0  0
 17 19  2  0  0  0  0
 18 13  2  0  0  0  0
 19  8  1  0  0  0  0
 20  3  2  0  0  0  0
 20  1  1  0  0  0  0
 21  6  2  0  0  0  0
 21 11  1  0  0  0  0
 22 11  1  0  0  0  0
 23 35  1  0  0  0  0
 23  6  1  0  0  0  0
 24  2  1  0  0  0  0
 24 21  1  0  0  0  0
 25 18  1  0  0  0  0
 25 19  1  0  0  0  0
 26 15  1  0  0  0  0
 27  2  1  0  0  0  0
 28 18  1  0  0  0  0
 29 32  2  0  0  0  0
 29 30  1  0  0  0  0
 30 34  1  0  0  0  0
 31 28  1  0  0  0  0
 31 34  1  0  0  0  0
 32 31  1  0  0  0  0
 34 33  2  0  0  0  0
 36 37  1  0  0  0  0
 36 38  1  1  0  0  0
 36 35  1  0  0  0  0
 39 40  1  0  0  0  0
 39 12  1  0  0  0  0
 41 40  1  0  0  0  0
 41 42  1  0  0  0  0
 43 42  1  0  0  0  0
 45 43  1  0  0  0  0
 45 47  1  0  0  0  0
 46 47  1  0  0  0  0
 47 44  2  0  0  0  0
 48 49  1  0  0  0  0
 49 45  1  0  0  0  0
M  END
>  <MODEL>
6

>  <REMARK>
 VINA RESULT:      -8.6      3.122      9.294
  Name = 
  11 active torsions:
  status: ('A' for Active; 'I' for Inactive)
    1  A    between atoms: C_1  and  N_22
    2  A    between atoms: C_1  and  C_31
    3  A    between atoms: C_3  and  C_6
    4  A    between atoms: C_3  and  C_41
    5  A    between atoms: C_6  and  C_36
    6  A    between atoms: C_10  and  N_30
    7  A    between atoms: C_20  and  N_43
    8  A    between atoms: N_23  and  C_36
    9  A    between atoms: C_24  and  C_41
   10  A    between atoms: C_24  and  N_43
   11  A    between atoms: N_30  and  C_42
                            x       y       z     vdW  Elec       q    Type
                         _______ _______ _______ _____ _____    ______ ____

>  <TORSDO>
F 11

$$$$
=
 OpenBabel11032419363D

 49 55  0  0  1  0  0  0  0  0999 V2000
  183.4080  178.1880  138.0400 C   0  0  0  0  0  3  0  0  0  0  0  0
  184.5840  178.8700  142.2160 C   0  0  0  0  0  0  0  0  0  0  0  0
  184.9320  178.4050  139.9480 C   0  0  0  0  0  0  0  0  0  0  0  0
  186.2820  178.3960  140.1280 C   0  0  0  0  0  0  0  0  0  0  0  0
  179.2500  178.4070  139.6070 C   0  0  0  0  0  1  0  0  0  0  0  0
  181.8070  178.5000  140.0030 C   0  0  0  0  0  0  0  0  0  0  0  0
  186.8490  178.7110  141.3630 C   0  0  0  0  0  0  0  0  0  0  0  0
  188.3050  179.0030  141.4580 C   0  0  0  0  0  2  0  0  0  0  0  0
  180.4470  178.5590  140.4840 C   0  0  0  0  0  0  0  0  0  0  0  0
  186.8460  178.1340  138.9020 C   0  0  0  0  0  0  0  0  0  0  0  0
  182.4290  178.8480  142.3420 C   0  0  0  0  0  0  0  0  0  0  0  0
  185.8450  178.0120  137.9830 N   0  0  0  0  0  0  0  0  0  0  0  0
  190.2220  178.8970  143.5500 O   0  0  0  0  0  0  0  0  0  0  0  0
  188.7010  177.6930  137.5070 O   0  0  0  0  0  0  0  0  0  0  0  0
  180.1830  178.7330  141.8170 N   0  0  0  0  0  0  0  0  0  0  0  0
  188.2750  177.8010  138.6840 C   0  0  0  0  0  0  0  0  0  0  0  0
  189.1510  177.4320  139.7620 N   0  0  0  0  0  0  0  0  0  0  0  0
  190.4230  177.6980  143.2120 C   0  0  0  0  0  0  0  0  0  0  0  0
  189.1670  177.8620  140.9900 C   0  0  0  0  0  0  0  0  0  0  0  0
  184.6600  178.1830  138.6370 C   0  0  0  0  0  0  0  0  0  0  0  0
  182.7720  178.6290  141.0310 C   0  0  0  0  0  0  0  0  0  0  0  0
  183.5580  179.0140  143.1380 C   0  0  0  0  0  3  0  0  0  0  0  0
  182.1260  178.3620  138.6040 C   0  0  0  0  0  0  0  0  0  0  0  0
  184.1020  178.6500  140.9670 N   0  0  0  0  0  0  0  0  0  0  0  0
  190.0690  177.2310  141.9050 N   0  0  0  0  0  2  0  0  0  0  0  0
  181.1430  178.8780  142.7320 N   0  0  0  0  0  0  0  0  0  0  0  0
  185.9750  178.9550  142.4530 C   0  0  0  0  0  3  0  0  0  0  0  0
  191.0410  176.7610  144.1890 C   0  0  0  0  0  2  0  0  0  0  0  0
  188.5620  177.5080  146.8940 C   0  0  0  0  0  3  0  0  0  0  0  0
  189.8440  177.3410  147.7120 C   0  0  0  0  0  2  0  0  0  0  0  0
  190.2710  176.7280  145.4220 N   0  0  0  0  0  0  0  0  0  0  0  0
  188.8540  177.0260  145.4630 C   0  0  0  0  0  3  0  0  0  0  0  0
  192.0540  176.7380  146.9430 O   0  0  0  0  0  0  0  0  0  0  0  0
  190.8320  176.9160  146.7030 C   0  0  0  0  0  0  0  0  0  0  0  0
  181.0620  178.4540  137.6420 N   0  0  0  0  0  2  0  0  0  0  0  0
  180.9930  179.4530  136.5780 C   0  0  2  0  0  3  0  0  0  0  0  0
  181.0230  180.7260  137.1440 O   0  0  0  0  0  1  0  0  0  0  0  0
  179.6960  179.2860  135.8080 C   0  0  0  0  0  1  0  0  0  0  0  0
  186.0140  177.8100  136.5420 C   0  0  0  0  0  2  0  0  0  0  0  0
  185.7920  176.3440  136.1790 C   0  0  0  0  0  2  0  0  0  0  0  0
  184.8600  176.2090  134.9880 C   0  0  0  0  0  2  0  0  0  0  0  0
  183.8290  175.1290  135.2470 C   0  0  0  0  0  2  0  0  0  0  0  0
  183.5780  174.9330  136.7480 C   0  0  0  0  0  2  0  0  0  0  0  0
  180.8360  174.1860  136.7640 O   0  0  0  0  0  0  0  0  0  0  0  0
  183.0910  173.5880  137.0430 N   0  0  0  0  0  0  0  0  0  0  0  0
  181.1820  171.8840  137.1770 C   0  0  0  0  0  1  0  0  0  0  0  0
  181.6800  173.2780  136.9830 C   0  0  0  0  0  0  0  0  0  0  0  0
  185.3080  173.0020  137.9100 C   0  0  0  0  0  1  0  0  0  0  0  0
  184.0990  172.5280  137.1240 C   0  0  0  0  0  2  0  0  0  0  0  0
  1 23  2  0  0  0  0
  1 20  1  0  0  0  0
  2 27  1  0  0  0  0
  2 22  2  0  0  0  0
  3  4  1  0  0  0  0
  3 24  1  0  0  0  0
  4  7  1  0  0  0  0
  5  9  1  0  0  0  0
  6  9  2  0  0  0  0
  6 21  1  0  0  0  0
  7  8  1  0  0  0  0
  7 27  2  0  0  0  0
  9 15  1  0  0  0  0
 10  4  2  0  0  0  0
 11 26  1  0  0  0  0
 11 22  1  0  0  0  0
 12 20  1  0  0  0  0
 12 10  1  0  0  0  0
 14 16  2  0  0  0  0
 15 26  2  0  0  0  0
 16 10  1  0  0  0  0
 16 17  1  0  0  0  0
 17 19  2  0  0  0  0
 18 13  2  0  0  0  0
 18 28  1  0  0  0  0
 19  8  1  0  0  0  0
 19 25  1  0  0  0  0
 20  3  2  0  0  0  0
 21 11  2  0  0  0  0
 23  6  1  0  0  0  0
 24 21  1  0  0  0  0
 24  2  1  0  0  0  0
 25 18  1  0  0  0  0
 28 31  1  0  0  0  0
 29 30  1  0  0  0  0
 31 32  1  0  0  0  0
 31 34  1  0  0  0  0
 32 29  2  0  0  0  0
 34 33  2  0  0  0  0
 34 30  1  0  0  0  0
 35 23  1  0  0  0  0
 36 38  1  1  0  0  0
 36 37  1  0  0  0  0
 36 35  1  0  0  0  0
 39 12  1  0  0  0  0
 40 39  1  0  0  0  0
 41 42  1  0  0  0  0
 41 40  1  0  0  0  0
 42 43  1  0  0  0  0
 43 45  1  0  0  0  0
 44 47  2  0  0  0  0
 45 49  1  0  0  0  0
 47 45  1  0  0  0  0
 47 46  1  0  0  0  0
 49 48  1  0  0  0  0
M  END
>  <MODEL>
7

>  <REMARK>
 VINA RESULT:      -8.3      3.021      8.891
  Name = 
  11 active torsions:
  status: ('A' for Active; 'I' for Inactive)
    1  A    between atoms: C_1  and  N_22
    2  A    between atoms: C_1  and  C_31
    3  A    between atoms: C_3  and  C_6
    4  A    between atoms: C_3  and  C_41
    5  A    between atoms: C_6  and  C_36
    6  A    between atoms: C_10  and  N_30
    7  A    between atoms: C_20  and  N_43
    8  A    between atoms: N_23  and  C_36
    9  A    between atoms: C_24  and  C_41
   10  A    between atoms: C_24  and  N_43
   11  A    between atoms: N_30  and  C_42
                            x       y       z     vdW  Elec       q    Type
                         _______ _______ _______ _____ _____    ______ ____

>  <TORSDO>
F 11

$$$$
=
 OpenBabel11032419363D

 49 55  0  0  1  0  0  0  0  0999 V2000
  183.3390  178.1950  138.0670 C   0  0  0  0  0  3  0  0  0  0  0  0
  184.5750  178.8960  142.2230 C   0  0  0  0  0  0  0  0  0  0  0  0
  184.8900  178.4220  139.9520 C   0  0  0  0  0  0  0  0  0  0  0  0
  186.2430  178.4160  140.1120 C   0  0  0  0  0  0  0  0  0  0  0  0
  179.2040  178.4140  139.6930 C   0  0  0  0  0  1  0  0  0  0  0  0
  181.7660  178.5120  140.0520 C   0  0  0  0  0  0  0  0  0  0  0  0
  186.8270  178.7360  141.3370 C   0  0  0  0  0  0  0  0  0  0  0  0
  188.2840  179.0310  141.4100 C   0  0  0  0  0  2  0  0  0  0  0  0
  180.4140  178.5710  140.5520 C   0  0  0  0  0  0  0  0  0  0  0  0
  186.7900  178.1500  138.8790 C   0  0  0  0  0  0  0  0  0  0  0  0
  182.4220  178.8710  142.3800 C   0  0  0  0  0  0  0  0  0  0  0  0
  185.7750  178.0220  137.9750 N   0  0  0  0  0  0  0  0  0  0  0  0
  190.2320  178.9370  143.4740 O   0  0  0  0  0  0  0  0  0  0  0  0
  188.6250  177.7060  137.4590 O   0  0  0  0  0  0  0  0  0  0  0  0
  180.1680  178.7510  141.8880 N   0  0  0  0  0  0  0  0  0  0  0  0
  188.2150  177.8180  138.6410 C   0  0  0  0  0  0  0  0  0  0  0  0
  189.1080  177.4550  139.7080 N   0  0  0  0  0  0  0  0  0  0  0  0
  190.4300  177.7370  143.1380 C   0  0  0  0  0  0  0  0  0  0  0  0
  189.1420  177.8900  140.9340 C   0  0  0  0  0  0  0  0  0  0  0  0
  184.6000  178.1940  138.6460 C   0  0  0  0  0  0  0  0  0  0  0  0
  182.7460  178.6470  141.0650 C   0  0  0  0  0  0  0  0  0  0  0  0
  183.5620  179.0420  143.1590 C   0  0  0  0  0  3  0  0  0  0  0  0
  182.0650  178.3690  138.6490 C   0  0  0  0  0  0  0  0  0  0  0  0
  184.0750  178.6700  140.9820 N   0  0  0  0  0  0  0  0  0  0  0  0
  190.0580  177.2640  141.8390 N   0  0  0  0  0  2  0  0  0  0  0  0
  181.1420  178.9000  142.7890 N   0  0  0  0  0  0  0  0  0  0  0  0
  185.9690  178.9840  142.4390 C   0  0  0  0  0  3  0  0  0  0  0  0
  191.0640  176.8050  144.1100 C   0  0  0  0  0  2  0  0  0  0  0  0
  188.5430  177.4490  146.8030 C   0  0  0  0  0  3  0  0  0  0  0  0
  189.8150  177.2610  147.6330 C   0  0  0  0  0  2  0  0  0  0  0  0
  190.2760  176.7270  145.3300 N   0  0  0  0  0  0  0  0  0  0  0  0
  188.8580  177.0170  145.3610 C   0  0  0  0  0  3  0  0  0  0  0  0
  192.0380  176.6940  146.8760 O   0  0  0  0  0  0  0  0  0  0  0  0
  190.8190  176.8740  146.6240 C   0  0  0  0  0  0  0  0  0  0  0  0
  180.9870  178.4550  137.7020 N   0  0  0  0  0  2  0  0  0  0  0  0
  180.8160  179.5410  136.7400 C   0  0  2  0  0  3  0  0  0  0  0  0
  179.5060  180.0100  136.8080 O   0  0  0  0  0  1  0  0  0  0  0  0
  181.0830  179.0250  135.3380 C   0  0  0  0  0  1  0  0  0  0  0  0
  185.9240  177.8140  136.5330 C   0  0  0  0  0  2  0  0  0  0  0  0
  185.4170  176.4300  136.1380 C   0  0  0  0  0  2  0  0  0  0  0  0
  186.2320  175.8530  134.9940 C   0  0  0  0  0  2  0  0  0  0  0  0
  187.4240  175.0870  135.5310 C   0  0  0  0  0  2  0  0  0  0  0  0
  187.0610  174.2810  136.7850 C   0  0  0  0  0  2  0  0  0  0  0  0
  184.5750  173.5540  137.9560 O   0  0  0  0  0  0  0  0  0  0  0  0
  186.3150  173.0710  136.4520 N   0  0  0  0  0  0  0  0  0  0  0  0
  184.2110  171.6190  136.6460 C   0  0  0  0  0  1  0  0  0  0  0  0
  185.0310  172.7970  137.0590 C   0  0  0  0  0  0  0  0  0  0  0  0
  187.7740  171.2390  135.7250 C   0  0  0  0  0  1  0  0  0  0  0  0
  186.7840  172.3070  135.2930 C   0  0  0  0  0  2  0  0  0  0  0  0
  1 20  1  0  0  0  0
  1 23  2  0  0  0  0
  2 27  1  0  0  0  0
  2 22  2  0  0  0  0
  3  4  1  0  0  0  0
  3 24  1  0  0  0  0
  4  7  1  0  0  0  0
  5  9  1  0  0  0  0
  6  9  2  0  0  0  0
  6 21  1  0  0  0  0
  7  8  1  0  0  0  0
  7 27  2  0  0  0  0
  9 15  1  0  0  0  0
 10  4  2  0  0  0  0
 11 26  1  0  0  0  0
 11 22  1  0  0  0  0
 12 20  1  0  0  0  0
 12 10  1  0  0  0  0
 14 16  2  0  0  0  0
 15 26  2  0  0  0  0
 16 10  1  0  0  0  0
 16 17  1  0  0  0  0
 17 19  2  0  0  0  0
 18 13  2  0  0  0  0
 18 28  1  0  0  0  0
 19  8  1  0  0  0  0
 19 25  1  0  0  0  0
 20  3  2  0  0  0  0
 21 11  2  0  0  0  0
 23  6  1  0  0  0  0
 24 21  1  0  0  0  0
 24  2  1  0  0  0  0
 25 18  1  0  0  0  0
 28 31  1  0  0  0  0
 29 30  1  0  0  0  0
 31 32  1  0  0  0  0
 31 34  1  0  0  0  0
 32 29  2  0  0  0  0
 34 33  2  0  0  0  0
 34 30  1  0  0  0  0
 35 23  1  0  0  0  0
 36 38  1  6  0  0  0
 36 37  1  0  0  0  0
 36 35  1  0  0  0  0
 39 12  1  0  0  0  0
 40 39  1  0  0  0  0
 41 42  1  0  0  0  0
 41 40  1  0  0  0  0
 42 43  1  0  0  0  0
 45 43  1  0  0  0  0
 45 47  1  0  0  0  0
 46 47  1  0  0  0  0
 47 44  2  0  0  0  0
 49 48  1  0  0  0  0
 49 45  1  0  0  0  0
M  END
>  <MODEL>
8

>  <REMARK>
 VINA RESULT:      -7.9      2.565      8.574
  Name = 
  11 active torsions:
  status: ('A' for Active; 'I' for Inactive)
    1  A    between atoms: C_1  and  N_22
    2  A    between atoms: C_1  and  C_31
    3  A    between atoms: C_3  and  C_6
    4  A    between atoms: C_3  and  C_41
    5  A    between atoms: C_6  and  C_36
    6  A    between atoms: C_10  and  N_30
    7  A    between atoms: C_20  and  N_43
    8  A    between atoms: N_23  and  C_36
    9  A    between atoms: C_24  and  C_41
   10  A    between atoms: C_24  and  N_43
   11  A    between atoms: N_30  and  C_42
                            x       y       z     vdW  Elec       q    Type
                         _______ _______ _______ _____ _____    ______ ____

>  <TORSDO>
F 11

$$$$
=
 OpenBabel11032419363D

 49 55  0  0  1  0  0  0  0  0999 V2000
  186.6080  177.8790  138.7080 C   0  0  0  0  0  3  0  0  0  0  0  0
  188.1400  174.8450  135.9270 C   0  0  0  0  0  0  0  0  0  0  0  0
  188.2730  176.4230  137.6510 C   0  0  0  0  0  0  0  0  0  0  0  0
  189.5870  176.1300  137.8560 C   0  0  0  0  0  0  0  0  0  0  0  0
  182.8120  177.4580  136.4270 C   0  0  0  0  0  1  0  0  0  0  0  0
  185.2780  176.7820  136.8250 C   0  0  0  0  0  0  0  0  0  0  0  0
  190.2190  175.1070  137.1490 C   0  0  0  0  0  0  0  0  0  0  0  0
  191.5410  174.5970  137.6040 C   0  0  0  0  0  2  0  0  0  0  0  0
  184.0360  176.6710  136.0990 C   0  0  0  0  0  0  0  0  0  0  0  0
  190.0200  176.9350  138.8830 C   0  0  0  0  0  0  0  0  0  0  0  0
  186.1120  175.1150  135.2410 C   0  0  0  0  0  0  0  0  0  0  0  0
  188.9680  177.6910  139.3120 N   0  0  0  0  0  0  0  0  0  0  0  0
  193.6940  173.2470  136.3380 O   0  0  0  0  0  0  0  0  0  0  0  0
  191.7070  177.7880  140.3000 O   0  0  0  0  0  0  0  0  0  0  0  0
  183.9270  175.8340  135.0200 N   0  0  0  0  0  0  0  0  0  0  0  0
  191.4400  177.1160  139.2730 C   0  0  0  0  0  0  0  0  0  0  0  0
  192.5270  176.6950  138.4330 N   0  0  0  0  0  0  0  0  0  0  0  0
  194.1600  174.3880  136.0660 C   0  0  0  0  0  0  0  0  0  0  0  0
  192.6030  175.6630  137.6440 C   0  0  0  0  0  0  0  0  0  0  0  0
  187.8860  177.3670  138.5460 C   0  0  0  0  0  0  0  0  0  0  0  0
  186.3100  175.9660  136.3010 C   0  0  0  0  0  0  0  0  0  0  0  0
  187.2560  174.3720  134.9690 C   0  0  0  0  0  3  0  0  0  0  0  0
  185.4200  177.6170  137.9920 C   0  0  0  0  0  0  0  0  0  0  0  0
  187.5620  175.7850  136.7160 N   0  0  0  0  0  0  0  0  0  0  0  0
  193.7620  175.5440  136.8120 N   0  0  0  0  0  2  0  0  0  0  0  0
  184.9340  175.0680  134.5940 N   0  0  0  0  0  0  0  0  0  0  0  0
  189.4770  174.4370  136.1440 C   0  0  0  0  0  3  0  0  0  0  0  0
  195.1400  174.5280  134.9550 C   0  0  0  0  0  2  0  0  0  0  0  0
  198.0730  172.9970  136.7100 C   0  0  0  0  0  3  0  0  0  0  0  0
  198.3550  174.4870  136.9160 C   0  0  0  0  0  2  0  0  0  0  0  0
  196.4840  174.2260  135.4210 N   0  0  0  0  0  0  0  0  0  0  0  0
  196.9320  172.8750  135.6860 C   0  0  0  0  0  3  0  0  0  0  0  0
  197.1110  176.3850  136.0850 O   0  0  0  0  0  0  0  0  0  0  0  0
  197.2930  175.1410  136.1290 C   0  0  0  0  0  0  0  0  0  0  0  0
  184.2450  178.2300  138.5470 N   0  0  0  0  0  2  0  0  0  0  0  0
  184.1880  179.5980  139.0570 C   0  0  2  0  0  3  0  0  0  0  0  0
  184.6480  179.6140  140.3720 O   0  0  0  0  0  1  0  0  0  0  0  0
  182.7540  180.0920  139.0300 C   0  0  0  0  0  1  0  0  0  0  0  0
  188.9780  178.6250  140.4410 C   0  0  0  0  0  2  0  0  0  0  0  0
  188.2590  178.0190  141.6420 C   0  0  0  0  0  2  0  0  0  0  0  0
  189.0280  176.8370  142.2030 C   0  0  0  0  0  2  0  0  0  0  0  0
  188.4770  176.4480  143.5610 C   0  0  0  0  0  2  0  0  0  0  0  0
  188.7460  177.5320  144.6130 C   0  0  0  0  0  2  0  0  0  0  0  0
  189.2060  176.7390  147.3030 O   0  0  0  0  0  0  0  0  0  0  0  0
  190.0690  177.3840  145.2150 N   0  0  0  0  0  0  0  0  0  0  0  0
  191.5650  176.6710  147.1700 C   0  0  0  0  0  1  0  0  0  0  0  0
  190.2180  176.9290  146.5790 C   0  0  0  0  0  0  0  0  0  0  0  0
  191.5690  178.8890  143.9930 C   0  0  0  0  0  1  0  0  0  0  0  0
  191.2150  177.4460  144.3060 C   0  0  0  0  0  2  0  0  0  0  0  0
  2 27  1  0  0  0  0
  2 24  1  0  0  0  0
  3  4  1  0  0  0  0
  3 20  2  0  0  0  0
  4 10  2  0  0  0  0
  6 23  1  0  0  0  0
  7  8  1  0  0  0  0
  7  4  1  0  0  0  0
  8 19  1  0  0  0  0
  9  5  1  0  0  0  0
  9  6  2  0  0  0  0
 10 16  1  0  0  0  0
 10 12  1  0  0  0  0
 11 21  2  0  0  0  0
 12 39  1  0  0  0  0
 15  9  1  0  0  0  0
 16 14  2  0  0  0  0
 17 16  1  0  0  0  0
 18 13  2  0  0  0  0
 18 25  1  0  0  0  0
 19 17  2  0  0  0  0
 20  1  1  0  0  0  0
 20 12  1  0  0  0  0
 21 24  1  0  0  0  0
 21  6  1  0  0  0  0
 22 11  1  0  0  0  0
 22  2  2  0  0  0  0
 23 35  1  0  0  0  0
 23  1  2  0  0  0  0
 24  3  1  0  0  0  0
 25 19  1  0  0  0  0
 26 15  2  0  0  0  0
 26 11  1  0  0  0  0
 27  7  2  0  0  0  0
 28 31  1  0  0  0  0
 28 18  1  0  0  0  0
 29 30  1  0  0  0  0
 31 32  1  0  0  0  0
 31 34  1  0  0  0  0
 32 29  2  0  0  0  0
 33 34  2  0  0  0  0
 34 30  1  0  0  0  0
 35 36  1  0  0  0  0
 36 38  1  1  0  0  0
 36 37  1  0  0  0  0
 39 40  1  0  0  0  0
 40 41  1  0  0  0  0
 41 42  1  0  0  0  0
 42 43  1  0  0  0  0
 43 45  1  0  0  0  0
 45 47  1  0  0  0  0
 47 46  1  0  0  0  0
 47 44  2  0  0  0  0
 48 49  1  0  0  0  0
 49 45  1  0  0  0  0
M  END
>  <MODEL>
9

>  <REMARK>
 VINA RESULT:      -7.9      3.522     11.011
  Name = 
  11 active torsions:
  status: ('A' for Active; 'I' for Inactive)
    1  A    between atoms: C_1  and  N_22
    2  A    between atoms: C_1  and  C_31
    3  A    between atoms: C_3  and  C_6
    4  A    between atoms: C_3  and  C_41
    5  A    between atoms: C_6  and  C_36
    6  A    between atoms: C_10  and  N_30
    7  A    between atoms: C_20  and  N_43
    8  A    between atoms: N_23  and  C_36
    9  A    between atoms: C_24  and  C_41
   10  A    between atoms: C_24  and  N_43
   11  A    between atoms: N_30  and  C_42
                            x       y       z     vdW  Elec       q    Type
                         _______ _______ _______ _____ _____    ______ ____

>  <TORSDO>
F 11

$$$$
