=
 OpenBabel11042411213D

 25 26  0  0  1  0  0  0  0  0999 V2000
  188.6460  177.4430  142.3740 C   0  0  0  0  0  0  0  0  0  0  0  0
  187.4360  177.6760  142.8280 C   0  0  0  0  0  0  0  0  0  0  0  0
  186.2360  177.9110  143.2780 C   0  0  0  0  0  3  0  0  0  0  0  0
  191.5970  177.1890  145.6100 C   0  0  0  0  0  0  0  0  0  0  0  0
  191.7020  176.9080  146.8330 O   0  0  0  0  0  0  0  0  0  0  0  0
  191.3590  176.0930  144.6410 C   0  0  0  0  0  0  0  0  0  0  0  0
  190.7820  178.6290  142.9940 C   0  0  0  0  0  3  0  0  0  0  0  0
  192.0160  174.7750  144.8980 C   0  0  0  0  0  1  0  0  0  0  0  0
  190.5570  175.2450  142.5850 O   0  0  0  0  0  1  0  0  0  0  0  0
  190.6000  176.2530  143.5470 C   0  0  0  0  0  0  0  0  0  0  0  0
  191.8260  178.5460  145.1960 N   0  0  0  0  0  2  0  0  0  0  0  0
  191.6660  179.0910  143.8770 C   0  0  0  0  0  3  0  0  0  0  0  0
  189.8250  177.5330  143.3370 C   0  0  2  0  0  3  0  0  0  0  0  0
  189.4110  177.7510  136.7160 N   0  0  0  0  0  1  0  0  0  0  0  0
  187.9370  178.2210  140.0990 C   0  0  0  0  0  3  0  0  0  0  0  0
  188.8420  177.5090  140.9030 C   0  0  0  0  0  0  0  0  0  0  0  0
  189.2210  177.6710  138.1220 C   0  0  0  0  0  0  0  0  0  0  0  0
  188.1240  178.3000  138.7150 C   0  0  0  0  0  3  0  0  0  0  0  0
  189.9450  176.8870  140.2940 C   0  0  0  0  0  3  0  0  0  0  0  0
  190.1330  176.9660  138.9110 C   0  0  0  0  0  3  0  0  0  0  0  0
  186.0560  178.6460  144.5600 C   0  0  0  0  0  2  0  0  0  0  0  0
  187.5460  177.6730  146.2700 C   0  0  0  0  0  1  0  0  0  0  0  0
  186.1280  177.6890  145.7390 C   0  0  1  0  0  3  0  0  0  0  0  0
  185.1930  178.1340  146.8530 C   0  0  0  0  0  2  0  0  0  0  0  0
  184.1610  178.9170  146.3340 O   0  0  0  0  0  1  0  0  0  0  0  0
  1  2  2  0  0  0  0
  2  3  2  0  0  0  0
  3 21  1  0  0  0  0
  4  5  2  0  0  0  0
  6  8  1  0  0  0  0
  6  4  1  0  0  0  0
  7 13  1  0  0  0  0
  7 12  2  0  0  0  0
  9 10  1  0  0  0  0
 10  6  2  0  0  0  0
 11  4  1  0  0  0  0
 12 11  1  0  0  0  0
 13  1  1  6  0  0  0
 13 10  1  0  0  0  0
 14 17  1  0  0  0  0
 15 16  1  0  0  0  0
 16  1  1  0  0  0  0
 17 18  1  0  0  0  0
 17 20  2  0  0  0  0
 18 15  2  0  0  0  0
 19 16  2  0  0  0  0
 20 19  1  0  0  0  0
 21 23  1  0  0  0  0
 23 22  1  1  0  0  0
 23 24  1  0  0  0  0
 25 24  1  0  0  0  0
M  END
>  <MODEL>
1

>  <REMARK>
 VINA RESULT:      -7.7      0.000      0.000
  Name = 
  5 active torsions:
  status: ('A' for Active; 'I' for Inactive)
    1  A    between atoms: C_3  and  C_8
    2  A    between atoms: C_3  and  C_24
    3  A    between atoms: C_9  and  C_14
    4  A    between atoms: C_10  and  C_12
    5  A    between atoms: C_10  and  C_14
                            x       y       z     vdW  Elec       q    Type
                         _______ _______ _______ _____ _____    ______ ____

>  <TORSDO>
F 5

$$$$
=
 OpenBabel11042411213D

 25 26  0  0  1  0  0  0  0  0999 V2000
  186.0530  177.8380  143.9280 C   0  0  0  0  0  0  0  0  0  0  0  0
  186.2180  177.8000  145.2300 C   0  0  0  0  0  0  0  0  0  0  0  0
  186.3810  177.7660  146.5220 C   0  0  0  0  0  3  0  0  0  0  0  0
  190.0170  177.8920  142.0470 C   0  0  0  0  0  0  0  0  0  0  0  0
  191.2170  178.1910  142.2800 O   0  0  0  0  0  0  0  0  0  0  0  0
  189.4400  176.6880  142.6900 C   0  0  0  0  0  0  0  0  0  0  0  0
  186.9650  178.1590  141.6000 C   0  0  0  0  0  3  0  0  0  0  0  0
  190.3270  175.4990  142.8730 C   0  0  0  0  0  1  0  0  0  0  0  0
  187.6300  175.4140  143.5210 O   0  0  0  0  0  1  0  0  0  0  0  0
  188.1610  176.6280  143.0860 C   0  0  0  0  0  0  0  0  0  0  0  0
  189.2920  178.6700  141.0800 N   0  0  0  0  0  2  0  0  0  0  0  0
  187.9010  178.5580  140.7390 C   0  0  0  0  0  3  0  0  0  0  0  0
  187.2850  177.8580  143.0280 C   0  0  2  0  0  3  0  0  0  0  0  0
  180.9160  179.4250  141.9820 N   0  0  0  0  0  1  0  0  0  0  0  0
  184.3890  178.0970  142.0700 C   0  0  0  0  0  3  0  0  0  0  0  0
  184.7220  178.2650  143.4250 C   0  0  0  0  0  0  0  0  0  0  0  0
  182.1930  179.0340  142.4670 C   0  0  0  0  0  0  0  0  0  0  0  0
  183.1330  178.4820  141.5930 C   0  0  0  0  0  3  0  0  0  0  0  0
  183.7650  178.8150  144.2950 C   0  0  0  0  0  3  0  0  0  0  0  0
  182.5080  179.1990  143.8180 C   0  0  0  0  0  3  0  0  0  0  0  0
  187.6900  178.1560  147.1130 C   0  0  0  0  0  2  0  0  0  0  0  0
  189.7830  178.2670  145.8110 C   0  0  0  0  0  1  0  0  0  0  0  0
  188.8170  177.3340  146.5080 C   0  0  1  0  0  3  0  0  0  0  0  0
  189.5670  176.5680  147.5870 C   0  0  0  0  0  2  0  0  0  0  0  0
  190.9140  176.4460  147.2460 O   0  0  0  0  0  1  0  0  0  0  0  0
  1  2  2  0  0  0  0
  2  3  2  0  0  0  0
  3 21  1  0  0  0  0
  4  5  2  0  0  0  0
  4  6  1  0  0  0  0
  6  8  1  0  0  0  0
  6 10  2  0  0  0  0
  7 13  1  0  0  0  0
 10  9  1  0  0  0  0
 11  4  1  0  0  0  0
 12 11  1  0  0  0  0
 12  7  2  0  0  0  0
 13 10  1  0  0  0  0
 13  1  1  1  0  0  0
 14 17  1  0  0  0  0
 15 16  1  0  0  0  0
 16  1  1  0  0  0  0
 16 19  2  0  0  0  0
 17 20  2  0  0  0  0
 18 15  2  0  0  0  0
 18 17  1  0  0  0  0
 20 19  1  0  0  0  0
 23 22  1  1  0  0  0
 23 21  1  0  0  0  0
 23 24  1  0  0  0  0
 25 24  1  0  0  0  0
M  END
>  <MODEL>
2

>  <REMARK>
 VINA RESULT:      -7.6      2.989      5.125
  Name = 
  5 active torsions:
  status: ('A' for Active; 'I' for Inactive)
    1  A    between atoms: C_3  and  C_8
    2  A    between atoms: C_3  and  C_24
    3  A    between atoms: C_9  and  C_14
    4  A    between atoms: C_10  and  C_12
    5  A    between atoms: C_10  and  C_14
                            x       y       z     vdW  Elec       q    Type
                         _______ _______ _______ _____ _____    ______ ____

>  <TORSDO>
F 5

$$$$
=
 OpenBabel11042411213D

 25 26  0  0  1  0  0  0  0  0999 V2000
  188.0400  177.8640  140.5590 C   0  0  0  0  0  0  0  0  0  0  0  0
  186.8420  178.2580  140.9260 C   0  0  0  0  0  0  0  0  0  0  0  0
  185.6550  178.6520  141.2910 C   0  0  0  0  0  3  0  0  0  0  0  0
  190.8030  178.3840  143.9260 C   0  0  0  0  0  0  0  0  0  0  0  0
  191.0980  179.1900  144.8470 O   0  0  0  0  0  0  0  0  0  0  0  0
  189.5400  177.6160  144.0240 C   0  0  0  0  0  0  0  0  0  0  0  0
  190.4040  177.1810  141.1010 C   0  0  0  0  0  3  0  0  0  0  0  0
  189.0980  177.1640  145.3790 C   0  0  0  0  0  1  0  0  0  0  0  0
  187.7250  176.4290  143.0830 O   0  0  0  0  0  1  0  0  0  0  0  0
  188.8040  177.3010  142.9490 C   0  0  0  0  0  0  0  0  0  0  0  0
  191.7590  178.1630  142.8760 N   0  0  0  0  0  2  0  0  0  0  0  0
  191.5830  177.3650  141.6940 C   0  0  0  0  0  3  0  0  0  0  0  0
  189.1630  177.8560  141.5900 C   0  0  2  0  0  3  0  0  0  0  0  0
  189.2050  177.7780  134.9610 N   0  0  0  0  0  1  0  0  0  0  0  0
  188.9240  178.9510  138.4800 C   0  0  0  0  0  3  0  0  0  0  0  0
  188.3280  177.8420  139.1020 C   0  0  0  0  0  0  0  0  0  0  0  0
  188.9120  177.7990  136.3520 C   0  0  0  0  0  0  0  0  0  0  0  0
  189.2130  178.9310  137.1120 C   0  0  0  0  0  3  0  0  0  0  0  0
  188.0370  176.7060  138.3270 C   0  0  0  0  0  3  0  0  0  0  0  0
  188.3250  176.6850  136.9590 C   0  0  0  0  0  3  0  0  0  0  0  0
  185.4910  179.4580  142.5320 C   0  0  0  0  0  2  0  0  0  0  0  0
  185.7950  178.6270  144.8350 C   0  0  0  0  0  1  0  0  0  0  0  0
  184.8700  178.6180  143.6370 C   0  0  1  0  0  3  0  0  0  0  0  0
  183.5220  179.1850  144.0540 C   0  0  0  0  0  2  0  0  0  0  0  0
  183.4040  179.1790  145.4440 O   0  0  0  0  0  1  0  0  0  0  0  0
  1  2  2  0  0  0  0
  2  3  2  0  0  0  0
  3 21  1  0  0  0  0
  4  6  1  0  0  0  0
  4  5  2  0  0  0  0
  6  8  1  0  0  0  0
  7 13  1  0  0  0  0
  7 12  2  0  0  0  0
 10  9  1  0  0  0  0
 10  6  2  0  0  0  0
 11  4  1  0  0  0  0
 12 11  1  0  0  0  0
 13  1  1  6  0  0  0
 13 10  1  0  0  0  0
 14 17  1  0  0  0  0
 15 16  1  0  0  0  0
 16  1  1  0  0  0  0
 17 20  2  0  0  0  0
 17 18  1  0  0  0  0
 18 15  2  0  0  0  0
 19 16  2  0  0  0  0
 20 19  1  0  0  0  0
 21 23  1  0  0  0  0
 23 24  1  0  0  0  0
 23 22  1  1  0  0  0
 24 25  1  0  0  0  0
M  END
>  <MODEL>
3

>  <REMARK>
 VINA RESULT:      -7.6      1.831      2.442
  Name = 
  5 active torsions:
  status: ('A' for Active; 'I' for Inactive)
    1  A    between atoms: C_3  and  C_8
    2  A    between atoms: C_3  and  C_24
    3  A    between atoms: C_9  and  C_14
    4  A    between atoms: C_10  and  C_12
    5  A    between atoms: C_10  and  C_14
                            x       y       z     vdW  Elec       q    Type
                         _______ _______ _______ _____ _____    ______ ____

>  <TORSDO>
F 5

$$$$
=
 OpenBabel11042411213D

 25 26  0  0  1  0  0  0  0  0999 V2000
  189.2900  177.5610  143.6750 C   0  0  0  0  0  0  0  0  0  0  0  0
  188.0060  177.7170  143.9010 C   0  0  0  0  0  0  0  0  0  0  0  0
  186.7310  177.8680  144.1250 C   0  0  0  0  0  3  0  0  0  0  0  0
  189.9850  176.7240  139.4260 C   0  0  0  0  0  0  0  0  0  0  0  0
  189.6510  175.9300  138.5070 O   0  0  0  0  0  0  0  0  0  0  0  0
  189.0000  177.7200  139.9060 C   0  0  0  0  0  0  0  0  0  0  0  0
  191.2020  177.8170  142.0540 C   0  0  0  0  0  3  0  0  0  0  0  0
  188.0690  178.3240  138.9030 C   0  0  0  0  0  1  0  0  0  0  0  0
  188.1080  179.1720  141.5450 O   0  0  0  0  0  1  0  0  0  0  0  0
  188.9330  178.1060  141.1880 C   0  0  0  0  0  0  0  0  0  0  0  0
  191.3450  176.7010  139.8910 N   0  0  0  0  0  2  0  0  0  0  0  0
  191.9040  177.4480  140.9820 C   0  0  0  0  0  3  0  0  0  0  0  0
  189.7740  177.4160  142.2360 C   0  0  2  0  0  3  0  0  0  0  0  0
  192.4890  175.8760  148.1060 N   0  0  0  0  0  1  0  0  0  0  0  0
  189.7820  177.4940  146.1330 C   0  0  0  0  0  3  0  0  0  0  0  0
  190.1320  177.1320  144.8210 C   0  0  0  0  0  0  0  0  0  0  0  0
  191.6960  176.2960  147.0030 C   0  0  0  0  0  0  0  0  0  0  0  0
  190.5610  177.0810  147.2170 C   0  0  0  0  0  3  0  0  0  0  0  0
  191.2730  176.3370  144.6200 C   0  0  0  0  0  3  0  0  0  0  0  0
  192.0520  175.9220  145.7040 C   0  0  0  0  0  3  0  0  0  0  0  0
  185.7450  177.4940  143.0750 C   0  0  0  0  0  2  0  0  0  0  0  0
  184.7850  179.5660  144.0090 C   0  0  0  0  0  1  0  0  0  0  0  0
  184.4720  178.3130  143.2200 C   0  0  1  0  0  3  0  0  0  0  0  0
  183.9310  178.7140  141.8560 C   0  0  0  0  0  2  0  0  0  0  0  0
  184.9020  179.4120  141.1370 O   0  0  0  0  0  1  0  0  0  0  0  0
  1  2  2  0  0  0  0
  1 16  1  0  0  0  0
  2  3  2  0  0  0  0
  4 11  1  0  0  0  0
  4  6  1  0  0  0  0
  5  4  2  0  0  0  0
  6 10  2  0  0  0  0
  7 13  1  0  0  0  0
  8  6  1  0  0  0  0
 10  9  1  0  0  0  0
 10 13  1  0  0  0  0
 11 12  1  0  0  0  0
 12  7  2  0  0  0  0
 13  1  1  1  0  0  0
 15 18  1  0  0  0  0
 16 15  2  0  0  0  0
 17 18  2  0  0  0  0
 17 14  1  0  0  0  0
 19 16  1  0  0  0  0
 19 20  2  0  0  0  0
 20 17  1  0  0  0  0
 21 23  1  0  0  0  0
 21  3  1  0  0  0  0
 23 22  1  1  0  0  0
 24 23  1  0  0  0  0
 25 24  1  0  0  0  0
M  END
>  <MODEL>
4

>  <REMARK>
 VINA RESULT:      -7.5      2.555      5.719
  Name = 
  5 active torsions:
  status: ('A' for Active; 'I' for Inactive)
    1  A    between atoms: C_3  and  C_8
    2  A    between atoms: C_3  and  C_24
    3  A    between atoms: C_9  and  C_14
    4  A    between atoms: C_10  and  C_12
    5  A    between atoms: C_10  and  C_14
                            x       y       z     vdW  Elec       q    Type
                         _______ _______ _______ _____ _____    ______ ____

>  <TORSDO>
F 5

$$$$
=
 OpenBabel11042411213D

 25 26  0  0  1  0  0  0  0  0999 V2000
  189.6630  177.1370  141.4350 C   0  0  0  0  0  0  0  0  0  0  0  0
  188.5570  177.6950  141.0000 C   0  0  0  0  0  0  0  0  0  0  0  0
  187.4610  178.2530  140.5680 C   0  0  0  0  0  3  0  0  0  0  0  0
  189.9080  177.5760  145.7930 C   0  0  0  0  0  0  0  0  0  0  0  0
  189.8050  178.4360  146.7080 O   0  0  0  0  0  0  0  0  0  0  0  0
  188.6830  177.1280  145.0910 C   0  0  0  0  0  0  0  0  0  0  0  0
  190.9520  176.0510  143.3090 C   0  0  0  0  0  3  0  0  0  0  0  0
  187.4230  177.0070  145.8870 C   0  0  0  0  0  1  0  0  0  0  0  0
  187.5410  176.2300  143.2260 O   0  0  0  0  0  1  0  0  0  0  0  0
  188.6760  176.8120  143.7880 C   0  0  0  0  0  0  0  0  0  0  0  0
  191.1950  176.9860  145.5480 N   0  0  0  0  0  2  0  0  0  0  0  0
  191.5460  176.0670  144.5020 C   0  0  0  0  0  3  0  0  0  0  0  0
  189.9030  177.0500  142.9390 C   0  0  2  0  0  3  0  0  0  0  0  0
  193.9290  176.6280  137.6620 N   0  0  0  0  0  1  0  0  0  0  0  0
  190.5620  176.3730  139.2240 C   0  0  0  0  0  3  0  0  0  0  0  0
  190.7780  176.9950  140.4650 C   0  0  0  0  0  0  0  0  0  0  0  0
  192.8700  176.7530  138.6030 C   0  0  0  0  0  0  0  0  0  0  0  0
  191.6030  176.2500  138.2990 C   0  0  0  0  0  3  0  0  0  0  0  0
  192.0560  177.5030  140.7550 C   0  0  0  0  0  3  0  0  0  0  0  0
  193.0970  177.3810  139.8300 C   0  0  0  0  0  3  0  0  0  0  0  0
  186.6780  179.1430  141.4680 C   0  0  0  0  0  2  0  0  0  0  0  0
  185.0200  178.9370  143.2840 C   0  0  0  0  0  1  0  0  0  0  0  0
  185.3820  178.4700  141.8900 C   0  0  1  0  0  3  0  0  0  0  0  0
  184.2500  178.8360  140.9410 C   0  0  0  0  0  2  0  0  0  0  0  0
  184.6960  179.7530  139.9890 O   0  0  0  0  0  1  0  0  0  0  0  0
  2  1  2  0  0  0  0
  3  2  2  0  0  0  0
  3 21  1  0  0  0  0
  4  5  2  0  0  0  0
  6  4  1  0  0  0  0
  6  8  1  0  0  0  0
  7 12  2  0  0  0  0
  9 10  1  0  0  0  0
 10  6  2  0  0  0  0
 11  4  1  0  0  0  0
 12 11  1  0  0  0  0
 13  1  1  6  0  0  0
 13  7  1  0  0  0  0
 13 10  1  0  0  0  0
 14 17  1  0  0  0  0
 15 16  1  0  0  0  0
 16 19  2  0  0  0  0
 16  1  1  0  0  0  0
 17 20  2  0  0  0  0
 18 17  1  0  0  0  0
 18 15  2  0  0  0  0
 20 19  1  0  0  0  0
 21 23  1  0  0  0  0
 23 22  1  1  0  0  0
 24 23  1  0  0  0  0
 25 24  1  0  0  0  0
M  END
>  <MODEL>
5

>  <REMARK>
 VINA RESULT:      -7.5      2.376      3.455
  Name = 
  5 active torsions:
  status: ('A' for Active; 'I' for Inactive)
    1  A    between atoms: C_3  and  C_8
    2  A    between atoms: C_3  and  C_24
    3  A    between atoms: C_9  and  C_14
    4  A    between atoms: C_10  and  C_12
    5  A    between atoms: C_10  and  C_14
                            x       y       z     vdW  Elec       q    Type
                         _______ _______ _______ _____ _____    ______ ____

>  <TORSDO>
F 5

$$$$
=
 OpenBabel11042411213D

 25 26  0  0  1  0  0  0  0  0999 V2000
  187.2260  178.0420  144.0080 C   0  0  0  0  0  0  0  0  0  0  0  0
  187.8190  177.7570  142.8710 C   0  0  0  0  0  0  0  0  0  0  0  0
  188.4060  177.4700  141.7440 C   0  0  0  0  0  3  0  0  0  0  0  0
  189.5520  176.3770  147.3340 C   0  0  0  0  0  0  0  0  0  0  0  0
  190.1050  175.3130  147.7190 O   0  0  0  0  0  0  0  0  0  0  0  0
  190.1620  177.1380  146.2180 C   0  0  0  0  0  0  0  0  0  0  0  0
  187.3720  178.4100  146.4970 C   0  0  0  0  0  3  0  0  0  0  0  0
  191.6540  177.1710  146.1260 C   0  0  0  0  0  1  0  0  0  0  0  0
  190.0570  178.6430  144.3980 O   0  0  0  0  0  1  0  0  0  0  0  0
  189.4270  177.8040  145.3160 C   0  0  0  0  0  0  0  0  0  0  0  0
  188.4170  176.8650  148.0680 N   0  0  0  0  0  2  0  0  0  0  0  0
  187.5920  177.9950  147.7440 C   0  0  0  0  0  3  0  0  0  0  0  0
  187.9220  177.6780  145.3150 C   0  0  2  0  0  3  0  0  0  0  0  0
  181.6030  179.0650  143.8090 N   0  0  0  0  0  1  0  0  0  0  0  0
  185.0730  178.2520  142.7410 C   0  0  0  0  0  3  0  0  0  0  0  0
  185.7680  178.3220  143.9600 C   0  0  0  0  0  0  0  0  0  0  0  0
  183.0010  178.8130  143.8600 C   0  0  0  0  0  0  0  0  0  0  0  0
  183.6980  178.4990  142.6910 C   0  0  0  0  0  3  0  0  0  0  0  0
  185.0540  178.6320  145.1300 C   0  0  0  0  0  3  0  0  0  0  0  0
  183.6790  178.8790  145.0800 C   0  0  0  0  0  3  0  0  0  0  0  0
  189.4970  176.4590  141.7140 C   0  0  0  0  0  2  0  0  0  0  0  0
  189.7680  177.6100  139.5480 C   0  0  0  0  0  1  0  0  0  0  0  0
  190.4680  176.7530  140.5810 C   0  0  1  0  0  3  0  0  0  0  0  0
  191.6870  177.5030  141.0960 C   0  0  0  0  0  2  0  0  0  0  0  0
  192.0140  177.0700  142.3810 O   0  0  0  0  0  1  0  0  0  0  0  0
  2  1  2  0  0  0  0
  3  2  2  0  0  0  0
  4  5  2  0  0  0  0
  4 11  1  0  0  0  0
  6  4  1  0  0  0  0
  7 12  2  0  0  0  0
  8  6  1  0  0  0  0
  9 10  1  0  0  0  0
 10  6  2  0  0  0  0
 12 11  1  0  0  0  0
 13  1  1  6  0  0  0
 13 10  1  0  0  0  0
 13  7  1  0  0  0  0
 14 17  1  0  0  0  0
 15 16  1  0  0  0  0
 16  1  1  0  0  0  0
 16 19  2  0  0  0  0
 17 20  2  0  0  0  0
 18 15  2  0  0  0  0
 18 17  1  0  0  0  0
 20 19  1  0  0  0  0
 21  3  1  0  0  0  0
 23 22  1  6  0  0  0
 23 24  1  0  0  0  0
 23 21  1  0  0  0  0
 24 25  1  0  0  0  0
M  END
>  <MODEL>
6

>  <REMARK>
 VINA RESULT:      -7.4      3.098      5.709
  Name = 
  5 active torsions:
  status: ('A' for Active; 'I' for Inactive)
    1  A    between atoms: C_3  and  C_8
    2  A    between atoms: C_3  and  C_24
    3  A    between atoms: C_9  and  C_14
    4  A    between atoms: C_10  and  C_12
    5  A    between atoms: C_10  and  C_14
                            x       y       z     vdW  Elec       q    Type
                         _______ _______ _______ _____ _____    ______ ____

>  <TORSDO>
F 5

$$$$
=
 OpenBabel11042411213D

 25 26  0  0  1  0  0  0  0  0999 V2000
  187.7440  177.6940  142.4680 C   0  0  0  0  0  0  0  0  0  0  0  0
  186.5550  178.2510  142.4820 C   0  0  0  0  0  0  0  0  0  0  0  0
  185.3770  178.8080  142.4960 C   0  0  0  0  0  3  0  0  0  0  0  0
  190.5660  177.0290  145.7600 C   0  0  0  0  0  0  0  0  0  0  0  0
  191.5510  176.3170  146.0890 O   0  0  0  0  0  0  0  0  0  0  0  0
  190.7520  178.0780  144.7310 C   0  0  0  0  0  0  0  0  0  0  0  0
  187.6910  177.8730  144.9810 C   0  0  0  0  0  3  0  0  0  0  0  0
  192.0550  178.8110  144.7060 C   0  0  0  0  0  1  0  0  0  0  0  0
  189.9620  179.5100  143.0240 O   0  0  0  0  0  1  0  0  0  0  0  0
  189.7950  178.3990  143.8490 C   0  0  0  0  0  0  0  0  0  0  0  0
  189.3310  176.8660  146.4780 N   0  0  0  0  0  2  0  0  0  0  0  0
  188.0750  177.5040  146.2030 C   0  0  0  0  0  3  0  0  0  0  0  0
  188.5240  177.5850  143.7740 C   0  0  2  0  0  3  0  0  0  0  0  0
  190.3330  177.1790  137.3950 N   0  0  0  0  0  1  0  0  0  0  0  0
  189.5560  176.7600  141.0090 C   0  0  0  0  0  3  0  0  0  0  0  0
  188.4200  177.5750  141.1510 C   0  0  0  0  0  0  0  0  0  0  0  0
  189.6890  177.3110  138.6560 C   0  0  0  0  0  0  0  0  0  0  0  0
  190.1890  176.6310  139.7690 C   0  0  0  0  0  3  0  0  0  0  0  0
  187.9240  178.2470  140.0210 C   0  0  0  0  0  3  0  0  0  0  0  0
  188.5560  178.1180  138.7810 C   0  0  0  0  0  3  0  0  0  0  0  0
  184.9820  179.6780  143.6370 C   0  0  0  0  0  2  0  0  0  0  0  0
  182.8630  178.6320  142.9290 C   0  0  0  0  0  1  0  0  0  0  0  0
  183.5360  179.4230  144.0300 C   0  0  1  0  0  3  0  0  0  0  0  0
  183.4610  178.6250  145.3230 C   0  0  0  0  0  2  0  0  0  0  0  0
  184.5030  178.9890  146.1760 O   0  0  0  0  0  1  0  0  0  0  0  0
  1  2  2  0  0  0  0
  2  3  2  0  0  0  0
  3 21  1  0  0  0  0
  4  5  2  0  0  0  0
  4 11  1  0  0  0  0
  6  4  1  0  0  0  0
  7 12  2  0  0  0  0
  8  6  1  0  0  0  0
  9 10  1  0  0  0  0
 10  6  2  0  0  0  0
 12 11  1  0  0  0  0
 13  1  1  6  0  0  0
 13 10  1  0  0  0  0
 13  7  1  0  0  0  0
 14 17  1  0  0  0  0
 15 16  1  0  0  0  0
 16  1  1  0  0  0  0
 17 20  2  0  0  0  0
 17 18  1  0  0  0  0
 18 15  2  0  0  0  0
 19 16  2  0  0  0  0
 20 19  1  0  0  0  0
 21 23  1  0  0  0  0
 23 22  1  6  0  0  0
 23 24  1  0  0  0  0
 24 25  1  0  0  0  0
M  END
>  <MODEL>
7

>  <REMARK>
 VINA RESULT:      -7.3      1.726      2.684
  Name = 
  5 active torsions:
  status: ('A' for Active; 'I' for Inactive)
    1  A    between atoms: C_3  and  C_8
    2  A    between atoms: C_3  and  C_24
    3  A    between atoms: C_9  and  C_14
    4  A    between atoms: C_10  and  C_12
    5  A    between atoms: C_10  and  C_14
                            x       y       z     vdW  Elec       q    Type
                         _______ _______ _______ _____ _____    ______ ____

>  <TORSDO>
F 5

$$$$
=
 OpenBabel11042411213D

 25 26  0  0  1  0  0  0  0  0999 V2000
  189.0110  177.9250  141.3070 C   0  0  0  0  0  0  0  0  0  0  0  0
  187.8250  178.4710  141.4450 C   0  0  0  0  0  0  0  0  0  0  0  0
  186.6460  179.0090  141.5810 C   0  0  0  0  0  3  0  0  0  0  0  0
  189.2120  175.9300  137.4050 C   0  0  0  0  0  0  0  0  0  0  0  0
  188.5320  175.2120  136.6260 O   0  0  0  0  0  0  0  0  0  0  0  0
  188.8440  177.3560  137.5700 C   0  0  0  0  0  0  0  0  0  0  0  0
  190.8040  176.8620  139.8920 C   0  0  0  0  0  3  0  0  0  0  0  0
  188.3340  178.0900  136.3710 C   0  0  0  0  0  1  0  0  0  0  0  0
  188.7800  179.3820  138.7860 O   0  0  0  0  0  1  0  0  0  0  0  0
  188.9730  178.0020  138.7370 C   0  0  0  0  0  0  0  0  0  0  0  0
  190.3830  175.3620  138.0150 N   0  0  0  0  0  2  0  0  0  0  0  0
  191.2350  175.9730  138.9970 C   0  0  0  0  0  3  0  0  0  0  0  0
  189.3640  177.2480  139.9870 C   0  0  2  0  0  3  0  0  0  0  0  0
  191.9100  176.8650  146.1210 N   0  0  0  0  0  1  0  0  0  0  0  0
  190.4380  178.6790  143.2260 C   0  0  0  0  0  3  0  0  0  0  0  0
  189.7740  177.6420  142.5500 C   0  0  0  0  0  0  0  0  0  0  0  0
  191.1910  177.1260  144.9230 C   0  0  0  0  0  0  0  0  0  0  0  0
  191.1450  178.4220  144.4040 C   0  0  0  0  0  3  0  0  0  0  0  0
  189.8220  176.3440  143.0860 C   0  0  0  0  0  3  0  0  0  0  0  0
  190.5290  176.0860  144.2650 C   0  0  0  0  0  3  0  0  0  0  0  0
  185.5420  178.6190  140.6630 C   0  0  0  0  0  2  0  0  0  0  0  0
  184.3350  178.8950  142.7970 C   0  0  0  0  0  1  0  0  0  0  0  0
  184.3110  178.2010  141.4520 C   0  0  1  0  0  3  0  0  0  0  0  0
  183.0390  178.5980  140.7180 C   0  0  0  0  0  2  0  0  0  0  0  0
  181.9550  178.5980  141.5960 O   0  0  0  0  0  1  0  0  0  0  0  0
  1  2  2  0  0  0  0
  1 16  1  0  0  0  0
  2  3  2  0  0  0  0
  4  6  1  0  0  0  0
  4 11  1  0  0  0  0
  5  4  2  0  0  0  0
  6 10  2  0  0  0  0
  7 13  1  0  0  0  0
  8  6  1  0  0  0  0
 10  9  1  0  0  0  0
 10 13  1  0  0  0  0
 11 12  1  0  0  0  0
 12  7  2  0  0  0  0
 13  1  1  1  0  0  0
 15 18  1  0  0  0  0
 16 19  1  0  0  0  0
 16 15  2  0  0  0  0
 17 14  1  0  0  0  0
 18 17  2  0  0  0  0
 19 20  2  0  0  0  0
 20 17  1  0  0  0  0
 21 23  1  0  0  0  0
 21  3  1  0  0  0  0
 23 22  1  1  0  0  0
 24 23  1  0  0  0  0
 24 25  1  0  0  0  0
M  END
>  <MODEL>
8

>  <REMARK>
 VINA RESULT:      -7.2      3.022      6.056
  Name = 
  5 active torsions:
  status: ('A' for Active; 'I' for Inactive)
    1  A    between atoms: C_3  and  C_8
    2  A    between atoms: C_3  and  C_24
    3  A    between atoms: C_9  and  C_14
    4  A    between atoms: C_10  and  C_12
    5  A    between atoms: C_10  and  C_14
                            x       y       z     vdW  Elec       q    Type
                         _______ _______ _______ _____ _____    ______ ____

>  <TORSDO>
F 5

$$$$
=
 OpenBabel11042411213D

 25 26  0  0  1  0  0  0  0  0999 V2000
  187.0750  177.5140  143.3460 C   0  0  0  0  0  0  0  0  0  0  0  0
  187.4150  177.6540  144.6060 C   0  0  0  0  0  0  0  0  0  0  0  0
  187.7540  177.7970  145.8560 C   0  0  0  0  0  3  0  0  0  0  0  0
  189.6070  176.8300  139.8290 C   0  0  0  0  0  0  0  0  0  0  0  0
  189.6050  176.2630  138.7050 O   0  0  0  0  0  0  0  0  0  0  0  0
  188.7900  178.0520  140.0160 C   0  0  0  0  0  0  0  0  0  0  0  0
  189.5420  177.2590  142.8940 C   0  0  0  0  0  3  0  0  0  0  0  0
  188.6780  179.0020  138.8660 C   0  0  0  0  0  1  0  0  0  0  0  0
  187.5730  179.5820  141.3450 O   0  0  0  0  0  1  0  0  0  0  0  0
  188.1770  178.3380  141.1730 C   0  0  0  0  0  0  0  0  0  0  0  0
  190.4880  176.3300  140.8480 N   0  0  0  0  0  2  0  0  0  0  0  0
  190.5760  176.7680  142.2130 C   0  0  0  0  0  3  0  0  0  0  0  0
  188.1710  177.3320  142.3010 C   0  0  2  0  0  3  0  0  0  0  0  0
  181.8140  179.2090  141.8810 N   0  0  0  0  0  1  0  0  0  0  0  0
  184.8360  178.4810  143.9240 C   0  0  0  0  0  3  0  0  0  0  0  0
  185.7050  177.9400  142.9620 C   0  0  0  0  0  0  0  0  0  0  0  0
  183.1210  178.7850  142.2440 C   0  0  0  0  0  0  0  0  0  0  0  0
  183.5500  178.8990  143.5680 C   0  0  0  0  0  3  0  0  0  0  0  0
  185.2630  177.8370  141.6320 C   0  0  0  0  0  3  0  0  0  0  0  0
  183.9780  178.2550  141.2750 C   0  0  0  0  0  3  0  0  0  0  0  0
  189.1460  178.1920  146.2060 C   0  0  0  0  0  2  0  0  0  0  0  0
  188.3060  177.1280  148.2680 C   0  0  0  0  0  1  0  0  0  0  0  0
  189.5510  177.5930  147.5440 C   0  0  1  0  0  3  0  0  0  0  0  0
  190.4760  176.4020  147.3430 C   0  0  0  0  0  2  0  0  0  0  0  0
  191.8090  176.8100  147.4040 O   0  0  0  0  0  1  0  0  0  0  0  0
  1  2  2  0  0  0  0
  2  3  2  0  0  0  0
  3 21  1  0  0  0  0
  4  6  1  0  0  0  0
  4 11  1  0  0  0  0
  5  4  2  0  0  0  0
  6 10  2  0  0  0  0
  8  6  1  0  0  0  0
 10  9  1  0  0  0  0
 10 13  1  0  0  0  0
 11 12  1  0  0  0  0
 12  7  2  0  0  0  0
 13  7  1  0  0  0  0
 13  1  1  1  0  0  0
 14 17  1  0  0  0  0
 16  1  1  0  0  0  0
 16 15  2  0  0  0  0
 17 18  2  0  0  0  0
 18 15  1  0  0  0  0
 19 16  1  0  0  0  0
 20 19  2  0  0  0  0
 20 17  1  0  0  0  0
 21 23  1  0  0  0  0
 23 22  1  6  0  0  0
 24 25  1  0  0  0  0
 24 23  1  0  0  0  0
M  END
>  <MODEL>
9

>  <REMARK>
 VINA RESULT:      -7.1      2.932      5.408
  Name = 
  5 active torsions:
  status: ('A' for Active; 'I' for Inactive)
    1  A    between atoms: C_3  and  C_8
    2  A    between atoms: C_3  and  C_24
    3  A    between atoms: C_9  and  C_14
    4  A    between atoms: C_10  and  C_12
    5  A    between atoms: C_10  and  C_14
                            x       y       z     vdW  Elec       q    Type
                         _______ _______ _______ _____ _____    ______ ____

>  <TORSDO>
F 5

$$$$
