=
 OpenBabel11042411073D

 39 43  0  0  1  0  0  0  0  0999 V2000
  181.3780  176.8730  137.8920 N   0  0  0  0  0  2  0  0  0  0  0  0
  182.6770  177.4970  139.8370 C   0  0  2  0  0  3  0  0  0  0  0  0
  181.0620  175.6880  139.8840 O   0  0  0  0  0  0  0  0  0  0  0  0
  182.9200  178.5020  138.7060 C   0  0  2  0  0  3  0  0  0  0  0  0
  182.2830  177.9140  137.4400 C   0  0  0  0  0  2  0  0  0  0  0  0
  181.6300  176.6210  139.2580 C   0  0  0  0  0  0  0  0  0  0  0  0
  183.0870  178.5780  142.1180 C   0  0  0  0  0  0  0  0  0  0  0  0
  182.1910  179.2910  143.3480 S   0  0  0  0  0  0  0  0  0  0  0  0
  179.4050  179.4740  143.0650 C   0  0  0  0  0  1  0  0  0  0  0  0
  182.2180  178.1790  141.1010 C   0  0  0  0  0  0  0  0  0  0  0  0
  180.7350  179.0770  142.5330 C   0  0  0  0  0  0  0  0  0  0  0  0
  180.9060  178.4630  141.3430 N   0  0  0  0  0  0  0  0  0  0  0  0
  185.6770  178.0710  142.2870 C   0  0  0  0  0  0  0  0  0  0  0  0
  184.4990  178.3160  142.1960 C   0  0  0  0  0  0  0  0  0  0  0  0
  187.1030  177.7420  142.4200 C   0  0  0  0  0  2  0  0  0  0  0  0
  188.9380  177.3150  144.1740 C   0  0  0  0  0  2  0  0  0  0  0  0
  189.2320  177.3250  145.6130 N   0  0  0  0  0  0  0  0  0  0  0  0
  187.5060  177.6530  143.8570 C   0  0  0  0  0  0  0  0  0  0  0  0
  188.1960  177.4160  146.6010 C   0  0  0  0  0  3  0  0  0  0  0  0
  186.9320  177.6150  146.2390 C   0  0  0  0  0  3  0  0  0  0  0  0
  186.5820  177.7530  144.8200 C   0  0  0  0  0  3  0  0  0  0  0  0
  190.5960  177.0610  146.0370 C   0  0  0  0  0  2  0  0  0  0  0  0
  190.6990  177.0470  147.5550 C   0  0  0  0  0  2  0  0  0  0  0  0
  192.4130  175.5290  147.1360 C   0  0  0  0  0  1  0  0  0  0  0  0
  192.0410  176.6650  147.9600 N   0  0  0  0  0  2  0  0  0  0  0  0
  184.7210  176.7320  137.3890 O   0  0  0  0  0  0  0  0  0  0  0  0
  184.3480  178.7350  138.5270 N   0  0  0  0  0  2  0  0  0  0  0  0
  185.1800  177.8390  137.7840 C   0  0  0  0  0  0  0  0  0  0  0  0
  186.5890  178.2500  137.4250 C   0  0  2  0  0  3  0  0  0  0  0  0
  186.8290  178.2880  135.9260 C   0  0  0  0  0  1  0  0  0  0  0  0
  189.8140  177.3490  137.5400 C   0  0  1  0  0  3  0  0  0  0  0  0
  190.9840  176.4950  139.5760 C   0  0  0  0  0  3  0  0  0  0  0  0
  190.2600  177.4480  140.4250 C   0  0  0  0  0  3  0  0  0  0  0  0
  189.0180  178.3060  138.4470 C   0  0  2  0  0  0  0  0  0  0  0  0
  189.3610  178.2890  139.9140 C   0  0  0  0  0  3  0  0  0  0  0  0
  190.7850  176.4440  138.2590 C   0  0  0  0  0  3  0  0  0  0  0  0
  187.7400  177.5220  138.1490 C   0  0  2  0  0  3  0  0  0  0  0  0
  189.0240  179.6080  137.9380 O   0  0  0  0  0  1  0  0  0  0  0  0
  188.5300  176.5850  137.2400 C   0  0  0  0  0  2  0  0  0  0  0  0
  1  6  1  0  0  0  0
  2 10  1  1  0  0  0
  4 27  1  6  0  0  0
  4  2  1  0  0  0  0
  5  1  1  0  0  0  0
  5  4  1  0  0  0  0
  6  2  1  0  0  0  0
  6  3  2  0  0  0  0
  7 14  1  0  0  0  0
  7  8  1  0  0  0  0
 10 12  1  0  0  0  0
 10  7  2  0  0  0  0
 11  9  1  0  0  0  0
 11  8  1  0  0  0  0
 12 11  2  0  0  0  0
 13 15  1  0  0  0  0
 14 13  3  0  0  0  0
 15 18  1  0  0  0  0
 16 17  1  0  0  0  0
 17 22  1  0  0  0  0
 17 19  1  0  0  0  0
 18 16  1  0  0  0  0
 18 21  2  0  0  0  0
 20 19  2  0  0  0  0
 21 20  1  0  0  0  0
 22 23  1  0  0  0  0
 23 25  1  0  0  0  0
 24 25  1  0  0  0  0
 26 28  2  0  0  0  0
 28 27  1  0  0  0  0
 29 30  1  6  0  0  0
 29 28  1  0  0  0  0
 31 39  1  1  0  0  0
 31 36  1  0  0  0  0
 31 34  1  0  0  0  0
 32 33  1  0  0  0  0
 34 38  1  6  0  0  0
 34 35  1  0  0  0  0
 35 33  2  0  0  0  0
 36 32  2  0  0  0  0
 37 29  1  6  0  0  0
 37 34  1  0  0  0  0
 39 37  1  0  0  0  0
M  END
>  <MODEL>
1

>  <REMARK>
 VINA RESULT:      -8.5      0.000      0.000
  Name = 
  10 active torsions:
  status: ('A' for Active; 'I' for Inactive)
    1  A    between atoms: C_2  and  C_34
    2  A    between atoms: C_3  and  C_25
    3  A    between atoms: C_4  and  C_29
    4  A    between atoms: C_4  and  C_30
    5  A    between atoms: C_5  and  C_18
    6  A    between atoms: C_5  and  C_21
    7  A    between atoms: C_8  and  N_14
    8  A    between atoms: N_17  and  C_20
    9  A    between atoms: C_20  and  C_27
   10  A    between atoms: C_27  and  N_33
                            x       y       z     vdW  Elec       q    Type
                         _______ _______ _______ _____ _____    ______ ____

>  <TORSDO>
F 10

$$$$
=
 OpenBabel11042411073D

 39 43  0  0  1  0  0  0  0  0999 V2000
  182.1390  174.8230  138.3290 N   0  0  0  0  0  2  0  0  0  0  0  0
  182.7510  177.1170  138.8020 C   0  0  2  0  0  3  0  0  0  0  0  0
  180.9700  175.9810  139.9930 O   0  0  0  0  0  0  0  0  0  0  0  0
  183.5230  176.6150  137.5770 C   0  0  2  0  0  3  0  0  0  0  0  0
  183.2900  175.1010  137.4900 C   0  0  0  0  0  2  0  0  0  0  0  0
  181.8550  175.9740  139.0970 C   0  0  0  0  0  0  0  0  0  0  0  0
  181.6450  179.3230  139.4710 C   0  0  0  0  0  0  0  0  0  0  0  0
  180.7970  180.5750  138.7370 S   0  0  0  0  0  0  0  0  0  0  0  0
  180.3210  180.4540  135.9740 C   0  0  0  0  0  1  0  0  0  0  0  0
  181.9860  178.3810  138.4990 C   0  0  0  0  0  0  0  0  0  0  0  0
  180.9100  179.8770  137.2110 C   0  0  0  0  0  0  0  0  0  0  0  0
  181.5710  178.7000  137.2400 N   0  0  0  0  0  0  0  0  0  0  0  0
  182.0450  179.0900  142.0740 C   0  0  0  0  0  0  0  0  0  0  0  0
  181.8460  179.2080  140.8900 C   0  0  0  0  0  0  0  0  0  0  0  0
  182.3210  178.9320  143.5090 C   0  0  0  0  0  2  0  0  0  0  0  0
  184.2860  178.6750  145.1520 C   0  0  0  0  0  2  0  0  0  0  0  0
  185.6800  178.2310  145.2770 N   0  0  0  0  0  0  0  0  0  0  0  0
  183.7520  178.5740  143.7480 C   0  0  0  0  0  0  0  0  0  0  0  0
  186.4980  177.9610  144.1300 C   0  0  0  0  0  3  0  0  0  0  0  0
  185.9790  177.9890  142.9070 C   0  0  0  0  0  3  0  0  0  0  0  0
  184.5550  178.2910  142.7150 C   0  0  0  0  0  3  0  0  0  0  0  0
  186.2880  178.2380  146.5960 C   0  0  0  0  0  2  0  0  0  0  0  0
  187.6610  177.5840  146.5650 C   0  0  0  0  0  2  0  0  0  0  0  0
  188.8760  178.2600  148.4320 C   0  0  0  0  0  1  0  0  0  0  0  0
  188.0540  177.1850  147.9050 N   0  0  0  0  0  2  0  0  0  0  0  0
  185.2700  177.2090  135.4080 O   0  0  0  0  0  0  0  0  0  0  0  0
  184.9410  176.9310  137.7010 N   0  0  0  0  0  2  0  0  0  0  0  0
  185.7430  177.2980  136.5730 C   0  0  0  0  0  0  0  0  0  0  0  0
  187.1330  177.8470  136.7910 C   0  0  2  0  0  3  0  0  0  0  0  0
  187.9890  177.8000  135.5370 C   0  0  0  0  0  1  0  0  0  0  0  0
  190.0520  177.3850  138.3690 C   0  0  1  0  0  3  0  0  0  0  0  0
  190.2900  176.8140  140.7900 C   0  0  0  0  0  3  0  0  0  0  0  0
  189.1820  177.7120  141.1390 C   0  0  0  0  0  3  0  0  0  0  0  0
  188.8550  178.2820  138.7390 C   0  0  2  0  0  0  0  0  0  0  0  0
  188.5240  178.3970  140.2030 C   0  0  0  0  0  3  0  0  0  0  0  0
  190.6910  176.6600  139.5290 C   0  0  0  0  0  3  0  0  0  0  0  0
  187.9140  177.3210  138.0120 C   0  0  2  0  0  3  0  0  0  0  0  0
  188.9630  179.5410  138.1410 O   0  0  0  0  0  1  0  0  0  0  0  0
  189.1050  176.4430  137.6360 C   0  0  0  0  0  2  0  0  0  0  0  0
  1  6  1  0  0  0  0
  2 10  1  6  0  0  0
  2  6  1  0  0  0  0
  4 27  1  1  0  0  0
  4  2  1  0  0  0  0
  5  4  1  0  0  0  0
  5  1  1  0  0  0  0
  6  3  2  0  0  0  0
  7 14  1  0  0  0  0
  8  7  1  0  0  0  0
  9 11  1  0  0  0  0
 10  7  2  0  0  0  0
 11 12  2  0  0  0  0
 11  8  1  0  0  0  0
 12 10  1  0  0  0  0
 13 15  1  0  0  0  0
 14 13  3  0  0  0  0
 15 18  1  0  0  0  0
 16 17  1  0  0  0  0
 17 22  1  0  0  0  0
 18 16  1  0  0  0  0
 19 17  1  0  0  0  0
 20 19  2  0  0  0  0
 21 20  1  0  0  0  0
 21 18  2  0  0  0  0
 23 22  1  0  0  0  0
 23 25  1  0  0  0  0
 25 24  1  0  0  0  0
 26 28  2  0  0  0  0
 28 29  1  0  0  0  0
 28 27  1  0  0  0  0
 29 30  1  6  0  0  0
 31 39  1  6  0  0  0
 31 34  1  0  0  0  0
 31 36  1  0  0  0  0
 32 33  1  0  0  0  0
 34 38  1  6  0  0  0
 34 35  1  0  0  0  0
 35 33  2  0  0  0  0
 36 32  2  0  0  0  0
 37 29  1  6  0  0  0
 37 34  1  0  0  0  0
 39 37  1  0  0  0  0
M  END
>  <MODEL>
2

>  <REMARK>
 VINA RESULT:      -8.3      1.964      3.133
  Name = 
  10 active torsions:
  status: ('A' for Active; 'I' for Inactive)
    1  A    between atoms: C_2  and  C_34
    2  A    between atoms: C_3  and  C_25
    3  A    between atoms: C_4  and  C_29
    4  A    between atoms: C_4  and  C_30
    5  A    between atoms: C_5  and  C_18
    6  A    between atoms: C_5  and  C_21
    7  A    between atoms: C_8  and  N_14
    8  A    between atoms: N_17  and  C_20
    9  A    between atoms: C_20  and  C_27
   10  A    between atoms: C_27  and  N_33
                            x       y       z     vdW  Elec       q    Type
                         _______ _______ _______ _____ _____    ______ ____

>  <TORSDO>
F 10

$$$$
=
 OpenBabel11042411073D

 39 43  0  0  1  0  0  0  0  0999 V2000
  187.4560  179.0910  136.8740 N   0  0  0  0  0  2  0  0  0  0  0  0
  188.5610  177.0860  137.6600 C   0  0  2  0  0  3  0  0  0  0  0  0
  189.0500  179.2770  138.5760 O   0  0  0  0  0  0  0  0  0  0  0  0
  187.6910  176.7560  136.4430 C   0  0  2  0  0  3  0  0  0  0  0  0
  186.8300  177.9940  136.1590 C   0  0  0  0  0  2  0  0  0  0  0  0
  188.4260  178.5590  137.7520 C   0  0  0  0  0  0  0  0  0  0  0  0
  190.8760  176.4100  138.5090 C   0  0  0  0  0  0  0  0  0  0  0  0
  192.3640  175.9570  137.8710 S   0  0  0  0  0  0  0  0  0  0  0  0
  192.6600  175.8240  135.0830 C   0  0  0  0  0  1  0  0  0  0  0  0
  189.9910  176.6530  137.4570 C   0  0  0  0  0  0  0  0  0  0  0  0
  191.8190  176.0750  136.2840 C   0  0  0  0  0  0  0  0  0  0  0  0
  190.5280  176.4630  136.2190 N   0  0  0  0  0  0  0  0  0  0  0  0
  190.4650  176.8220  141.0880 C   0  0  0  0  0  0  0  0  0  0  0  0
  190.6330  176.6320  139.9080 C   0  0  0  0  0  0  0  0  0  0  0  0
  190.2960  177.0630  142.5280 C   0  0  0  0  0  2  0  0  0  0  0  0
  188.0800  178.2600  141.9940 C   0  0  0  0  0  2  0  0  0  0  0  0
  186.6690  178.3770  142.3830 N   0  0  0  0  0  0  0  0  0  0  0  0
  188.8620  177.3170  142.8680 C   0  0  0  0  0  0  0  0  0  0  0  0
  186.1700  177.8280  143.6100 C   0  0  0  0  0  3  0  0  0  0  0  0
  186.9530  177.0840  144.3870 C   0  0  0  0  0  3  0  0  0  0  0  0
  188.3400  176.8100  143.9910 C   0  0  0  0  0  3  0  0  0  0  0  0
  185.8030  179.2230  141.5800 C   0  0  0  0  0  2  0  0  0  0  0  0
  185.6580  178.6680  140.1710 C   0  0  0  0  0  2  0  0  0  0  0  0
  183.9120  178.7480  138.6320 C   0  0  0  0  0  1  0  0  0  0  0  0
  184.8620  179.5720  139.3590 N   0  0  0  0  0  2  0  0  0  0  0  0
  187.7810  174.3230  134.9660 O   0  0  0  0  0  0  0  0  0  0  0  0
  186.8670  175.5820  136.7050 N   0  0  0  0  0  2  0  0  0  0  0  0
  187.0210  174.3620  135.9720 C   0  0  0  0  0  0  0  0  0  0  0  0
  186.3170  173.1120  136.4430 C   0  0  2  0  0  3  0  0  0  0  0  0
  187.1600  171.8600  136.2710 C   0  0  0  0  0  1  0  0  0  0  0  0
  183.2170  171.9630  136.9850 C   0  0  1  0  0  3  0  0  0  0  0  0
  181.2200  172.5380  135.5980 C   0  0  0  0  0  3  0  0  0  0  0  0
  181.6820  173.9250  135.4600 C   0  0  0  0  0  3  0  0  0  0  0  0
  183.7210  173.4060  136.7880 C   0  0  2  0  0  0  0  0  0  0  0  0
  182.8250  174.3340  136.0110 C   0  0  0  0  0  3  0  0  0  0  0  0
  181.9160  171.6380  136.2920 C   0  0  0  0  0  3  0  0  0  0  0  0
  184.8790  172.8820  135.9380 C   0  0  2  0  0  3  0  0  0  0  0  0
  184.1130  173.9760  138.0020 O   0  0  0  0  0  1  0  0  0  0  0  0
  184.3840  171.4540  136.1490 C   0  0  0  0  0  2  0  0  0  0  0  0
  1  6  1  0  0  0  0
  2 10  1  6  0  0  0
  2  6  1  0  0  0  0
  4 27  1  1  0  0  0
  4  2  1  0  0  0  0
  5  4  1  0  0  0  0
  5  1  1  0  0  0  0
  6  3  2  0  0  0  0
  7 14  1  0  0  0  0
  8  7  1  0  0  0  0
  9 11  1  0  0  0  0
 10  7  2  0  0  0  0
 11  8  1  0  0  0  0
 12 11  2  0  0  0  0
 12 10  1  0  0  0  0
 13 15  1  0  0  0  0
 14 13  3  0  0  0  0
 15 18  1  0  0  0  0
 16 17  1  0  0  0  0
 16 18  1  0  0  0  0
 17 19  1  0  0  0  0
 18 21  2  0  0  0  0
 19 20  2  0  0  0  0
 21 20  1  0  0  0  0
 22 17  1  0  0  0  0
 23 22  1  0  0  0  0
 24 25  1  0  0  0  0
 25 23  1  0  0  0  0
 26 28  2  0  0  0  0
 28 29  1  0  0  0  0
 28 27  1  0  0  0  0
 29 30  1  6  0  0  0
 31 39  1  6  0  0  0
 32 36  2  0  0  0  0
 33 32  1  0  0  0  0
 33 35  2  0  0  0  0
 34 31  1  0  0  0  0
 34 38  1  1  0  0  0
 35 34  1  0  0  0  0
 36 31  1  0  0  0  0
 37 39  1  0  0  0  0
 37 29  1  1  0  0  0
 37 34  1  0  0  0  0
M  END
>  <MODEL>
3

>  <REMARK>
 VINA RESULT:      -8.0      3.890      7.958
  Name = 
  10 active torsions:
  status: ('A' for Active; 'I' for Inactive)
    1  A    between atoms: C_2  and  C_34
    2  A    between atoms: C_3  and  C_25
    3  A    between atoms: C_4  and  C_29
    4  A    between atoms: C_4  and  C_30
    5  A    between atoms: C_5  and  C_18
    6  A    between atoms: C_5  and  C_21
    7  A    between atoms: C_8  and  N_14
    8  A    between atoms: N_17  and  C_20
    9  A    between atoms: C_20  and  C_27
   10  A    between atoms: C_27  and  N_33
                            x       y       z     vdW  Elec       q    Type
                         _______ _______ _______ _____ _____    ______ ____

>  <TORSDO>
F 10

$$$$
=
 OpenBabel11042411073D

 39 43  0  0  1  0  0  0  0  0999 V2000
  181.6390  180.5130  139.0580 N   0  0  0  0  0  2  0  0  0  0  0  0
  181.6430  178.3090  138.0570 C   0  0  2  0  0  3  0  0  0  0  0  0
  179.6260  179.6430  138.2420 O   0  0  0  0  0  0  0  0  0  0  0  0
  183.0170  178.6050  138.6670 C   0  0  2  0  0  3  0  0  0  0  0  0
  183.0280  180.0920  139.0470 C   0  0  0  0  0  2  0  0  0  0  0  0
  180.8570  179.4980  138.4640 C   0  0  0  0  0  0  0  0  0  0  0  0
  180.7960  176.8100  139.9480 C   0  0  0  0  0  0  0  0  0  0  0  0
  180.1590  175.2660  140.1350 S   0  0  0  0  0  0  0  0  0  0  0  0
  179.8220  173.6520  137.8630 C   0  0  0  0  0  1  0  0  0  0  0  0
  181.0590  177.0260  138.5940 C   0  0  0  0  0  0  0  0  0  0  0  0
  180.2300  174.9390  138.4860 C   0  0  0  0  0  0  0  0  0  0  0  0
  180.7380  175.9750  137.7860 N   0  0  0  0  0  0  0  0  0  0  0  0
  181.4320  178.4340  141.9340 C   0  0  0  0  0  0  0  0  0  0  0  0
  181.1290  177.6830  141.0400 C   0  0  0  0  0  0  0  0  0  0  0  0
  181.8190  179.3700  142.9990 C   0  0  0  0  0  2  0  0  0  0  0  0
  184.2370  178.5650  142.6340 C   0  0  0  0  0  2  0  0  0  0  0  0
  185.5180  178.3090  143.3050 N   0  0  0  0  0  0  0  0  0  0  0  0
  183.1510  179.0120  143.5760 C   0  0  0  0  0  0  0  0  0  0  0  0
  185.6330  178.2650  144.7340 C   0  0  0  0  0  3  0  0  0  0  0  0
  184.5960  178.5770  145.5060 C   0  0  0  0  0  3  0  0  0  0  0  0
  183.3190  178.9780  144.9030 C   0  0  0  0  0  3  0  0  0  0  0  0
  186.6540  177.9180  142.4890 C   0  0  0  0  0  2  0  0  0  0  0  0
  187.8310  177.5050  143.3610 C   0  0  0  0  0  2  0  0  0  0  0  0
  189.6080  176.0190  143.1180 C   0  0  0  0  0  1  0  0  0  0  0  0
  188.1580  176.1080  143.1280 N   0  0  0  0  0  2  0  0  0  0  0  0
  185.8040  178.6330  139.2490 O   0  0  0  0  0  0  0  0  0  0  0  0
  184.0770  178.2890  137.7180 N   0  0  0  0  0  2  0  0  0  0  0  0
  185.4560  178.2450  138.1010 C   0  0  0  0  0  0  0  0  0  0  0  0
  186.4800  177.6790  137.1450 C   0  0  2  0  0  3  0  0  0  0  0  0
  185.8840  176.6870  136.1610 C   0  0  0  0  0  1  0  0  0  0  0  0
  189.7990  177.2590  136.9620 C   0  0  1  0  0  3  0  0  0  0  0  0
  191.2610  176.5990  138.8770 C   0  0  0  0  0  3  0  0  0  0  0  0
  190.4850  177.4420  139.7950 C   0  0  0  0  0  3  0  0  0  0  0  0
  188.9570  178.0960  137.9430 C   0  0  2  0  0  0  0  0  0  0  0  0
  189.4300  178.1400  139.3730 C   0  0  0  0  0  3  0  0  0  0  0  0
  190.9530  176.5110  137.5840 C   0  0  0  0  0  3  0  0  0  0  0  0
  187.7850  177.1320  137.7570 C   0  0  2  0  0  3  0  0  0  0  0  0
  188.7270  179.3810  137.4440 O   0  0  0  0  0  1  0  0  0  0  0  0
  188.6180  176.3140  136.7740 C   0  0  0  0  0  2  0  0  0  0  0  0
  2  6  1  0  0  0  0
  2 10  1  1  0  0  0
  2  4  1  0  0  0  0
  3  6  2  0  0  0  0
  4 27  1  6  0  0  0
  4  5  1  0  0  0  0
  5  1  1  0  0  0  0
  6  1  1  0  0  0  0
  7  8  1  0  0  0  0
  7 14  1  0  0  0  0
  9 11  1  0  0  0  0
 10  7  2  0  0  0  0
 11  8  1  0  0  0  0
 12 11  2  0  0  0  0
 12 10  1  0  0  0  0
 13 15  1  0  0  0  0
 14 13  3  0  0  0  0
 15 18  1  0  0  0  0
 16 17  1  0  0  0  0
 16 18  1  0  0  0  0
 17 19  1  0  0  0  0
 18 21  2  0  0  0  0
 19 20  2  0  0  0  0
 21 20  1  0  0  0  0
 22 17  1  0  0  0  0
 22 23  1  0  0  0  0
 24 25  1  0  0  0  0
 25 23  1  0  0  0  0
 27 28  1  0  0  0  0
 28 26  2  0  0  0  0
 29 30  1  1  0  0  0
 29 28  1  0  0  0  0
 31 39  1  1  0  0  0
 31 36  1  0  0  0  0
 31 34  1  0  0  0  0
 32 33  1  0  0  0  0
 34 38  1  6  0  0  0
 34 35  1  0  0  0  0
 35 33  2  0  0  0  0
 36 32  2  0  0  0  0
 37 29  1  6  0  0  0
 37 34  1  0  0  0  0
 39 37  1  0  0  0  0
M  END
>  <MODEL>
4

>  <REMARK>
 VINA RESULT:      -7.7      2.357      3.643
  Name = 
  10 active torsions:
  status: ('A' for Active; 'I' for Inactive)
    1  A    between atoms: C_2  and  C_34
    2  A    between atoms: C_3  and  C_25
    3  A    between atoms: C_4  and  C_29
    4  A    between atoms: C_4  and  C_30
    5  A    between atoms: C_5  and  C_18
    6  A    between atoms: C_5  and  C_21
    7  A    between atoms: C_8  and  N_14
    8  A    between atoms: N_17  and  C_20
    9  A    between atoms: C_20  and  C_27
   10  A    between atoms: C_27  and  N_33
                            x       y       z     vdW  Elec       q    Type
                         _______ _______ _______ _____ _____    ______ ____

>  <TORSDO>
F 10

$$$$
=
 OpenBabel11042411073D

 39 43  0  0  1  0  0  0  0  0999 V2000
  178.9540  176.4380  141.2520 N   0  0  0  0  0  2  0  0  0  0  0  0
  180.8390  177.4590  140.1280 C   0  0  2  0  0  3  0  0  0  0  0  0
  180.0530  178.2240  142.2900 O   0  0  0  0  0  0  0  0  0  0  0  0
  180.1760  176.4340  139.2020 C   0  0  2  0  0  3  0  0  0  0  0  0
  179.1670  175.6490  140.0520 C   0  0  0  0  0  2  0  0  0  0  0  0
  179.9330  177.4550  141.3000 C   0  0  0  0  0  0  0  0  0  0  0  0
  182.0980  179.5850  139.4670 C   0  0  0  0  0  0  0  0  0  0  0  0
  181.7890  181.0250  138.6590 S   0  0  0  0  0  0  0  0  0  0  0  0
  179.2180  181.4810  137.6330 C   0  0  0  0  0  1  0  0  0  0  0  0
  180.9320  178.8180  139.4800 C   0  0  0  0  0  0  0  0  0  0  0  0
  180.1900  180.6110  138.3450 C   0  0  0  0  0  0  0  0  0  0  0  0
  179.8720  179.4000  138.8500 N   0  0  0  0  0  0  0  0  0  0  0  0
  184.3550  179.0010  140.7140 C   0  0  0  0  0  0  0  0  0  0  0  0
  183.3330  179.2860  140.1410 C   0  0  0  0  0  0  0  0  0  0  0  0
  185.5900  178.6180  141.4120 C   0  0  0  0  0  2  0  0  0  0  0  0
  186.5040  178.0900  143.7610 C   0  0  0  0  0  2  0  0  0  0  0  0
  186.2360  178.2270  145.1980 N   0  0  0  0  0  0  0  0  0  0  0  0
  185.4010  178.6390  142.8950 C   0  0  0  0  0  0  0  0  0  0  0  0
  184.9530  178.6270  145.6990 C   0  0  0  0  0  3  0  0  0  0  0  0
  183.9890  179.0050  144.8650 C   0  0  0  0  0  3  0  0  0  0  0  0
  184.2300  179.0250  143.4170 C   0  0  0  0  0  3  0  0  0  0  0  0
  187.2530  177.7760  146.1320 C   0  0  0  0  0  2  0  0  0  0  0  0
  186.9890  178.3220  147.5280 C   0  0  0  0  0  2  0  0  0  0  0  0
  188.8110  176.8830  147.7070 C   0  0  0  0  0  1  0  0  0  0  0  0
  187.9510  177.7720  148.4680 N   0  0  0  0  0  2  0  0  0  0  0  0
  181.4610  176.8520  136.6960 O   0  0  0  0  0  0  0  0  0  0  0  0
  181.1770  175.5530  138.6130 N   0  0  0  0  0  2  0  0  0  0  0  0
  181.8410  175.8660  137.3840 C   0  0  0  0  0  0  0  0  0  0  0  0
  183.0330  175.0470  136.9480 C   0  0  2  0  0  3  0  0  0  0  0  0
  182.8350  173.5560  137.1610 C   0  0  0  0  0  1  0  0  0  0  0  0
  186.3110  175.4690  136.3970 C   0  0  1  0  0  3  0  0  0  0  0  0
  187.8250  176.8730  137.8050 C   0  0  0  0  0  3  0  0  0  0  0  0
  186.7760  177.8870  137.9680 C   0  0  0  0  0  3  0  0  0  0  0  0
  185.2000  176.5120  136.6210 C   0  0  2  0  0  0  0  0  0  0  0  0
  185.5700  177.7340  137.4210 C   0  0  0  0  0  3  0  0  0  0  0  0
  187.6180  175.7670  137.0890 C   0  0  0  0  0  3  0  0  0  0  0  0
  184.4180  175.4970  137.4550 C   0  0  2  0  0  3  0  0  0  0  0  0
  184.5820  176.8610  135.4160 O   0  0  0  0  0  1  0  0  0  0  0  0
  185.5150  174.4620  137.2180 C   0  0  0  0  0  2  0  0  0  0  0  0
  1  6  1  0  0  0  0
  2 10  1  6  0  0  0
  2  6  1  0  0  0  0
  4 27  1  1  0  0  0
  4  5  1  0  0  0  0
  4  2  1  0  0  0  0
  5  1  1  0  0  0  0
  6  3  2  0  0  0  0
  7 10  2  0  0  0  0
  7 14  1  0  0  0  0
  8  7  1  0  0  0  0
  9 11  1  0  0  0  0
 11  8  1  0  0  0  0
 11 12  2  0  0  0  0
 12 10  1  0  0  0  0
 13 15  1  0  0  0  0
 14 13  3  0  0  0  0
 15 18  1  0  0  0  0
 16 17  1  0  0  0  0
 17 19  1  0  0  0  0
 17 22  1  0  0  0  0
 18 21  2  0  0  0  0
 18 16  1  0  0  0  0
 20 19  2  0  0  0  0
 21 20  1  0  0  0  0
 22 23  1  0  0  0  0
 23 25  1  0  0  0  0
 24 25  1  0  0  0  0
 26 28  2  0  0  0  0
 28 27  1  0  0  0  0
 29 30  1  1  0  0  0
 29 28  1  0  0  0  0
 31 34  1  0  0  0  0
 31 36  1  1  0  0  0
 31 39  1  0  0  0  0
 32 33  1  0  0  0  0
 34 38  1  6  0  0  0
 34 35  1  0  0  0  0
 34 37  1  0  0  0  0
 35 33  2  0  0  0  0
 36 32  2  0  0  0  0
 37 29  1  6  0  0  0
 39 37  1  0  0  0  0
M  END
>  <MODEL>
5

>  <REMARK>
 VINA RESULT:      -7.6      2.596      3.872
  Name = 
  10 active torsions:
  status: ('A' for Active; 'I' for Inactive)
    1  A    between atoms: C_2  and  C_34
    2  A    between atoms: C_3  and  C_25
    3  A    between atoms: C_4  and  C_29
    4  A    between atoms: C_4  and  C_30
    5  A    between atoms: C_5  and  C_18
    6  A    between atoms: C_5  and  C_21
    7  A    between atoms: C_8  and  N_14
    8  A    between atoms: N_17  and  C_20
    9  A    between atoms: C_20  and  C_27
   10  A    between atoms: C_27  and  N_33
                            x       y       z     vdW  Elec       q    Type
                         _______ _______ _______ _____ _____    ______ ____

>  <TORSDO>
F 10

$$$$
=
 OpenBabel11042411073D

 39 43  0  0  1  0  0  0  0  0999 V2000
  187.5510  179.0990  136.9640 N   0  0  0  0  0  2  0  0  0  0  0  0
  188.6940  177.1380  137.8070 C   0  0  2  0  0  3  0  0  0  0  0  0
  189.0750  179.3510  138.7210 O   0  0  0  0  0  0  0  0  0  0  0  0
  187.8810  176.7700  136.5610 C   0  0  2  0  0  3  0  0  0  0  0  0
  186.9890  177.9760  136.2350 C   0  0  0  0  0  2  0  0  0  0  0  0
  188.5060  178.6070  137.8810 C   0  0  0  0  0  0  0  0  0  0  0  0
  191.0210  176.6350  138.7400 C   0  0  0  0  0  0  0  0  0  0  0  0
  192.5370  176.1980  138.1620 S   0  0  0  0  0  0  0  0  0  0  0  0
  192.8870  175.8520  135.3990 C   0  0  0  0  0  1  0  0  0  0  0  0
  190.1450  176.7530  137.6600 C   0  0  0  0  0  0  0  0  0  0  0  0
  192.0160  176.1620  136.5630 C   0  0  0  0  0  0  0  0  0  0  0  0
  190.7110  176.4870  136.4480 N   0  0  0  0  0  0  0  0  0  0  0  0
  190.5470  177.2400  141.2700 C   0  0  0  0  0  0  0  0  0  0  0  0
  190.7440  176.9590  140.1130 C   0  0  0  0  0  0  0  0  0  0  0  0
  190.3410  177.5960  142.6810 C   0  0  0  0  0  2  0  0  0  0  0  0
  188.4530  177.6750  144.4290 C   0  0  0  0  0  2  0  0  0  0  0  0
  187.0170  177.9220  144.6160 N   0  0  0  0  0  0  0  0  0  0  0  0
  188.8880  177.7610  142.9900 C   0  0  0  0  0  0  0  0  0  0  0  0
  186.1070  177.9980  143.5110 C   0  0  0  0  0  3  0  0  0  0  0  0
  186.5570  177.9660  142.2600 C   0  0  0  0  0  3  0  0  0  0  0  0
  187.9970  177.8590  141.9950 C   0  0  0  0  0  3  0  0  0  0  0  0
  186.4910  177.9140  145.9700 C   0  0  0  0  0  2  0  0  0  0  0  0
  187.5230  177.3750  146.9500 C   0  0  0  0  0  2  0  0  0  0  0  0
  189.0590  178.2520  148.4630 C   0  0  0  0  0  1  0  0  0  0  0  0
  187.6590  178.2790  148.0780 N   0  0  0  0  0  2  0  0  0  0  0  0
  188.0890  174.3400  135.0910 O   0  0  0  0  0  0  0  0  0  0  0  0
  187.0890  175.5700  136.8030 N   0  0  0  0  0  2  0  0  0  0  0  0
  187.3020  174.3550  136.0760 C   0  0  0  0  0  0  0  0  0  0  0  0
  186.6260  173.0840  136.5310 C   0  0  2  0  0  3  0  0  0  0  0  0
  187.5380  171.8710  136.4570 C   0  0  0  0  0  1  0  0  0  0  0  0
  183.5930  171.6940  136.8390 C   0  0  1  0  0  3  0  0  0  0  0  0
  181.6460  172.1730  135.3490 C   0  0  0  0  0  3  0  0  0  0  0  0
  182.0100  173.5940  135.2860 C   0  0  0  0  0  3  0  0  0  0  0  0
  183.9980  173.1750  136.7220 C   0  0  2  0  0  0  0  0  0  0  0  0
  183.0840  174.0650  135.9210 C   0  0  0  0  0  3  0  0  0  0  0  0
  182.3640  171.3010  136.0560 C   0  0  0  0  0  3  0  0  0  0  0  0
  185.2410  172.7690  135.9290 C   0  0  2  0  0  3  0  0  0  0  0  0
  184.2730  173.7260  137.9770 O   0  0  0  0  0  1  0  0  0  0  0  0
  184.8430  171.3020  136.0610 C   0  0  0  0  0  2  0  0  0  0  0  0
  1  6  1  0  0  0  0
  2 10  1  6  0  0  0
  2  6  1  0  0  0  0
  4 27  1  1  0  0  0
  4  2  1  0  0  0  0
  5  4  1  0  0  0  0
  5  1  1  0  0  0  0
  6  3  2  0  0  0  0
  7 14  1  0  0  0  0
  8  7  1  0  0  0  0
  9 11  1  0  0  0  0
 10  7  2  0  0  0  0
 11  8  1  0  0  0  0
 12 11  2  0  0  0  0
 12 10  1  0  0  0  0
 13 15  1  0  0  0  0
 14 13  3  0  0  0  0
 15 18  1  0  0  0  0
 16 17  1  0  0  0  0
 17 22  1  0  0  0  0
 18 16  1  0  0  0  0
 19 17  1  0  0  0  0
 20 19  2  0  0  0  0
 21 20  1  0  0  0  0
 21 18  2  0  0  0  0
 22 23  1  0  0  0  0
 23 25  1  0  0  0  0
 25 24  1  0  0  0  0
 26 28  2  0  0  0  0
 28 29  1  0  0  0  0
 28 27  1  0  0  0  0
 29 30  1  6  0  0  0
 31 36  1  6  0  0  0
 32 36  2  0  0  0  0
 33 32  1  0  0  0  0
 33 35  2  0  0  0  0
 34 31  1  0  0  0  0
 34 38  1  1  0  0  0
 35 34  1  0  0  0  0
 37 39  1  0  0  0  0
 37 29  1  1  0  0  0
 37 34  1  0  0  0  0
 39 31  1  0  0  0  0
M  END
>  <MODEL>
6

>  <REMARK>
 VINA RESULT:      -7.5      3.934      7.374
  Name = 
  10 active torsions:
  status: ('A' for Active; 'I' for Inactive)
    1  A    between atoms: C_2  and  C_34
    2  A    between atoms: C_3  and  C_25
    3  A    between atoms: C_4  and  C_29
    4  A    between atoms: C_4  and  C_30
    5  A    between atoms: C_5  and  C_18
    6  A    between atoms: C_5  and  C_21
    7  A    between atoms: C_8  and  N_14
    8  A    between atoms: N_17  and  C_20
    9  A    between atoms: C_20  and  C_27
   10  A    between atoms: C_27  and  N_33
                            x       y       z     vdW  Elec       q    Type
                         _______ _______ _______ _____ _____    ______ ____

>  <TORSDO>
F 10

$$$$
=
 OpenBabel11042411073D

 39 43  0  0  1  0  0  0  0  0999 V2000
  189.2360  178.6170  136.9400 N   0  0  0  0  0  2  0  0  0  0  0  0
  187.6810  177.0100  137.8670 C   0  0  2  0  0  3  0  0  0  0  0  0
  188.7670  176.6740  135.7250 O   0  0  0  0  0  0  0  0  0  0  0  0
  187.7090  178.2680  138.7410 C   0  0  2  0  0  3  0  0  0  0  0  0
  188.8860  179.1260  138.2540 C   0  0  0  0  0  2  0  0  0  0  0  0
  188.5630  177.3920  136.7390 C   0  0  0  0  0  0  0  0  0  0  0  0
  185.9140  175.4280  136.9110 C   0  0  0  0  0  0  0  0  0  0  0  0
  184.2810  175.4630  136.5140 S   0  0  0  0  0  0  0  0  0  0  0  0
  182.8370  177.8340  136.9220 C   0  0  0  0  0  1  0  0  0  0  0  0
  186.2820  176.6770  137.4130 C   0  0  0  0  0  0  0  0  0  0  0  0
  184.1040  177.0610  137.0080 C   0  0  0  0  0  0  0  0  0  0  0  0
  185.2630  177.5820  137.4620 N   0  0  0  0  0  0  0  0  0  0  0  0
  187.5340  173.4070  136.3800 C   0  0  0  0  0  0  0  0  0  0  0  0
  186.7870  174.3190  136.6380 C   0  0  0  0  0  0  0  0  0  0  0  0
  188.4610  172.3180  136.0420 C   0  0  0  0  0  2  0  0  0  0  0  0
  190.3790  173.7920  136.9270 C   0  0  0  0  0  2  0  0  0  0  0  0
  191.7830  174.1650  136.7170 N   0  0  0  0  0  0  0  0  0  0  0  0
  189.8600  172.8260  135.8940 C   0  0  0  0  0  0  0  0  0  0  0  0
  192.4920  173.8230  135.5180 C   0  0  0  0  0  3  0  0  0  0  0  0
  191.9290  173.0440  134.5990 C   0  0  0  0  0  3  0  0  0  0  0  0
  190.5740  172.5180  134.8050 C   0  0  0  0  0  3  0  0  0  0  0  0
  192.4070  175.0560  137.6810 C   0  0  0  0  0  2  0  0  0  0  0  0
  193.7750  175.5110  137.1920 C   0  0  0  0  0  2  0  0  0  0  0  0
  194.8720  173.8030  138.3310 C   0  0  0  0  0  1  0  0  0  0  0  0
  194.7800  175.2470  138.2060 N   0  0  0  0  0  2  0  0  0  0  0  0
  186.1740  179.3580  140.8780 O   0  0  0  0  0  0  0  0  0  0  0  0
  187.8540  177.9120  140.1470 N   0  0  0  0  0  2  0  0  0  0  0  0
  186.9930  178.4410  141.1610 C   0  0  0  0  0  0  0  0  0  0  0  0
  187.0300  177.8570  142.5530 C   0  0  2  0  0  3  0  0  0  0  0  0
  185.8470  178.2840  143.4040 C   0  0  0  0  0  1  0  0  0  0  0  0
  189.0790  176.7590  144.9670 C   0  0  1  0  0  3  0  0  0  0  0  0
  191.4830  177.3960  145.1960 C   0  0  0  0  0  3  0  0  0  0  0  0
  191.6620  177.3500  143.7390 C   0  0  0  0  0  3  0  0  0  0  0  0
  189.2620  176.7680  143.4380 C   0  0  2  0  0  0  0  0  0  0  0  0
  190.6490  177.0530  142.9250 C   0  0  0  0  0  3  0  0  0  0  0  0
  190.3070  177.1280  145.7620 C   0  0  0  0  0  3  0  0  0  0  0  0
  188.3510  177.9920  143.3380 C   0  0  2  0  0  3  0  0  0  0  0  0
  188.7330  175.6110  142.8580 O   0  0  0  0  0  1  0  0  0  0  0  0
  188.1610  177.9700  144.8520 C   0  0  0  0  0  2  0  0  0  0  0  0
  1  5  1  0  0  0  0
  2 10  1  6  0  0  0
  2  4  1  0  0  0  0
  3  6  2  0  0  0  0
  4 27  1  1  0  0  0
  5  4  1  0  0  0  0
  6  1  1  0  0  0  0
  6  2  1  0  0  0  0
  7 10  2  0  0  0  0
  8  7  1  0  0  0  0
  8 11  1  0  0  0  0
  9 11  1  0  0  0  0
 10 12  1  0  0  0  0
 11 12  2  0  0  0  0
 13 14  3  0  0  0  0
 14  7  1  0  0  0  0
 15 13  1  0  0  0  0
 17 16  1  0  0  0  0
 17 22  1  0  0  0  0
 18 15  1  0  0  0  0
 18 16  1  0  0  0  0
 19 17  1  0  0  0  0
 20 21  1  0  0  0  0
 20 19  2  0  0  0  0
 21 18  2  0  0  0  0
 23 22  1  0  0  0  0
 23 25  1  0  0  0  0
 25 24  1  0  0  0  0
 26 28  2  0  0  0  0
 27 28  1  0  0  0  0
 28 29  1  0  0  0  0
 29 30  1  1  0  0  0
 31 39  1  6  0  0  0
 31 36  1  0  0  0  0
 32 36  2  0  0  0  0
 33 32  1  0  0  0  0
 34 38  1  6  0  0  0
 34 31  1  0  0  0  0
 35 34  1  0  0  0  0
 35 33  2  0  0  0  0
 37 29  1  6  0  0  0
 37 34  1  0  0  0  0
 37 39  1  0  0  0  0
M  END
>  <MODEL>
7

>  <REMARK>
 VINA RESULT:      -7.5      3.802      7.745
  Name = 
  10 active torsions:
  status: ('A' for Active; 'I' for Inactive)
    1  A    between atoms: C_2  and  C_34
    2  A    between atoms: C_3  and  C_25
    3  A    between atoms: C_4  and  C_29
    4  A    between atoms: C_4  and  C_30
    5  A    between atoms: C_5  and  C_18
    6  A    between atoms: C_5  and  C_21
    7  A    between atoms: C_8  and  N_14
    8  A    between atoms: N_17  and  C_20
    9  A    between atoms: C_20  and  C_27
   10  A    between atoms: C_27  and  N_33
                            x       y       z     vdW  Elec       q    Type
                         _______ _______ _______ _____ _____    ______ ____

>  <TORSDO>
F 10

$$$$
=
 OpenBabel11042411073D

 39 43  0  0  1  0  0  0  0  0999 V2000
  186.4070  178.6470  137.7150 N   0  0  0  0  0  2  0  0  0  0  0  0
  188.7320  177.9800  137.8180 C   0  0  2  0  0  3  0  0  0  0  0  0
  187.7690  179.0180  135.8490 O   0  0  0  0  0  0  0  0  0  0  0  0
  187.9960  177.4950  139.0720 C   0  0  2  0  0  3  0  0  0  0  0  0
  186.6150  178.1640  139.0680 C   0  0  0  0  0  2  0  0  0  0  0  0
  187.6310  178.5640  137.0160 C   0  0  0  0  0  0  0  0  0  0  0  0
  188.7490  175.7300  136.6030 C   0  0  0  0  0  0  0  0  0  0  0  0
  189.8670  174.7000  135.8860 S   0  0  0  0  0  0  0  0  0  0  0  0
  192.5770  175.4270  135.8870 C   0  0  0  0  0  1  0  0  0  0  0  0
  189.4220  176.8460  137.1030 C   0  0  0  0  0  0  0  0  0  0  0  0
  191.1600  175.7190  136.2290 C   0  0  0  0  0  0  0  0  0  0  0  0
  190.7690  176.8300  136.8890 N   0  0  0  0  0  0  0  0  0  0  0  0
  186.1880  175.1380  136.8850 C   0  0  0  0  0  0  0  0  0  0  0  0
  187.3560  175.4170  136.7740 C   0  0  0  0  0  0  0  0  0  0  0  0
  184.7680  174.7760  136.9900 C   0  0  0  0  0  2  0  0  0  0  0  0
  183.4990  176.2340  138.6910 C   0  0  0  0  0  2  0  0  0  0  0  0
  182.7340  177.4770  138.8540 N   0  0  0  0  0  0  0  0  0  0  0  0
  183.9230  175.9770  137.2690 C   0  0  0  0  0  0  0  0  0  0  0  0
  182.2510  178.2250  137.7300 C   0  0  0  0  0  3  0  0  0  0  0  0
  182.5860  177.8780  136.4910 C   0  0  0  0  0  3  0  0  0  0  0  0
  183.4640  176.7240  136.2580 C   0  0  0  0  0  3  0  0  0  0  0  0
  182.3130  177.8530  140.1920 C   0  0  0  0  0  2  0  0  0  0  0  0
  183.3250  178.7890  140.8360 C   0  0  0  0  0  2  0  0  0  0  0  0
  185.0390  179.0110  142.3970 C   0  0  0  0  0  1  0  0  0  0  0  0
  183.9770  178.1250  141.9520 N   0  0  0  0  0  2  0  0  0  0  0  0
  190.1780  175.9960  140.1210 O   0  0  0  0  0  0  0  0  0  0  0  0
  188.7500  177.8350  140.2720 N   0  0  0  0  0  2  0  0  0  0  0  0
  189.8880  177.0790  140.6990 C   0  0  0  0  0  0  0  0  0  0  0  0
  190.7720  177.6140  141.8010 C   0  0  2  0  0  3  0  0  0  0  0  0
  192.2510  177.5070  141.4760 C   0  0  0  0  0  1  0  0  0  0  0  0
  191.6800  177.4110  145.0200 C   0  0  1  0  0  3  0  0  0  0  0  0
  190.1620  176.7530  146.8920 C   0  0  0  0  0  3  0  0  0  0  0  0
  189.0520  177.5020  146.2900 C   0  0  0  0  0  3  0  0  0  0  0  0
  190.4940  178.1460  144.3680 C   0  0  2  0  0  0  0  0  0  0  0  0
  189.1980  178.1520  145.1350 C   0  0  0  0  0  3  0  0  0  0  0  0
  191.3640  176.7080  146.3170 C   0  0  0  0  0  3  0  0  0  0  0  0
  190.4850  177.1210  143.2340 C   0  0  2  0  0  3  0  0  0  0  0  0
  190.8560  179.4370  143.9710 O   0  0  0  0  0  1  0  0  0  0  0  0
  191.6690  176.4040  143.8760 C   0  0  0  0  0  2  0  0  0  0  0  0
  1  5  1  0  0  0  0
  2 10  1  6  0  0  0
  2  4  1  0  0  0  0
  3  6  2  0  0  0  0
  4 27  1  1  0  0  0
  5  4  1  0  0  0  0
  6  1  1  0  0  0  0
  6  2  1  0  0  0  0
  7 14  1  0  0  0  0
  7 10  2  0  0  0  0
  8 11  1  0  0  0  0
  8  7  1  0  0  0  0
  9 11  1  0  0  0  0
 11 12  2  0  0  0  0
 12 10  1  0  0  0  0
 13 15  1  0  0  0  0
 14 13  3  0  0  0  0
 15 18  1  0  0  0  0
 16 17  1  0  0  0  0
 17 22  1  0  0  0  0
 18 16  1  0  0  0  0
 19 17  1  0  0  0  0
 20 19  2  0  0  0  0
 21 20  1  0  0  0  0
 21 18  2  0  0  0  0
 22 23  1  0  0  0  0
 23 25  1  0  0  0  0
 25 24  1  0  0  0  0
 26 28  2  0  0  0  0
 27 28  1  0  0  0  0
 28 29  1  0  0  0  0
 29 30  1  6  0  0  0
 31 39  1  6  0  0  0
 31 36  1  0  0  0  0
 33 32  1  0  0  0  0
 34 38  1  6  0  0  0
 34 31  1  0  0  0  0
 34 35  1  0  0  0  0
 35 33  2  0  0  0  0
 36 32  2  0  0  0  0
 37 29  1  6  0  0  0
 37 39  1  0  0  0  0
 37 34  1  0  0  0  0
M  END
>  <MODEL>
8

>  <REMARK>
 VINA RESULT:      -7.4      3.343      8.282
  Name = 
  10 active torsions:
  status: ('A' for Active; 'I' for Inactive)
    1  A    between atoms: C_2  and  C_34
    2  A    between atoms: C_3  and  C_25
    3  A    between atoms: C_4  and  C_29
    4  A    between atoms: C_4  and  C_30
    5  A    between atoms: C_5  and  C_18
    6  A    between atoms: C_5  and  C_21
    7  A    between atoms: C_8  and  N_14
    8  A    between atoms: N_17  and  C_20
    9  A    between atoms: C_20  and  C_27
   10  A    between atoms: C_27  and  N_33
                            x       y       z     vdW  Elec       q    Type
                         _______ _______ _______ _____ _____    ______ ____

>  <TORSDO>
F 10

$$$$
=
 OpenBabel11042411073D

 39 43  0  0  1  0  0  0  0  0999 V2000
  188.7960  178.0150  135.7030 N   0  0  0  0  0  2  0  0  0  0  0  0
  188.3950  177.4640  138.0260 C   0  0  2  0  0  3  0  0  0  0  0  0
  188.7640  179.7420  137.2810 O   0  0  0  0  0  0  0  0  0  0  0  0
  188.5400  176.1780  137.2050 C   0  0  2  0  0  3  0  0  0  0  0  0
  188.5310  176.5880  135.7260 C   0  0  0  0  0  2  0  0  0  0  0  0
  188.6880  178.5130  137.0200 C   0  0  0  0  0  0  0  0  0  0  0  0
  188.9810  177.8270  140.4890 C   0  0  0  0  0  0  0  0  0  0  0  0
  190.3370  177.7550  141.4800 S   0  0  0  0  0  0  0  0  0  0  0  0
  192.8080  177.0520  140.3490 C   0  0  0  0  0  1  0  0  0  0  0  0
  189.3590  177.4970  139.1860 C   0  0  0  0  0  0  0  0  0  0  0  0
  191.3470  177.2930  140.2160 C   0  0  0  0  0  0  0  0  0  0  0  0
  190.6820  177.2000  139.0450 N   0  0  0  0  0  0  0  0  0  0  0  0
  186.5910  178.6510  141.2630 C   0  0  0  0  0  0  0  0  0  0  0  0
  187.6900  178.2900  140.9200 C   0  0  0  0  0  0  0  0  0  0  0  0
  185.2390  179.0580  141.6690 C   0  0  0  0  0  2  0  0  0  0  0  0
  186.1000  178.1400  143.9150 C   0  0  0  0  0  2  0  0  0  0  0  0
  185.8240  178.0750  145.3560 N   0  0  0  0  0  0  0  0  0  0  0  0
  185.0350  178.8660  143.1380 C   0  0  0  0  0  0  0  0  0  0  0  0
  184.5560  178.4590  145.9070 C   0  0  0  0  0  3  0  0  0  0  0  0
  183.6210  179.0040  145.1350 C   0  0  0  0  0  3  0  0  0  0  0  0
  183.8780  179.2280  143.7070 C   0  0  0  0  0  3  0  0  0  0  0  0
  186.8070  177.4390  146.2150 C   0  0  0  0  0  2  0  0  0  0  0  0
  188.2190  177.7130  145.7180 C   0  0  0  0  0  2  0  0  0  0  0  0
  189.3570  177.8400  147.7460 C   0  0  0  0  0  1  0  0  0  0  0  0
  189.1850  177.0240  146.5570 N   0  0  0  0  0  2  0  0  0  0  0  0
  185.7800  176.6530  136.6880 O   0  0  0  0  0  0  0  0  0  0  0  0
  187.4550  175.2520  137.5090 N   0  0  0  0  0  2  0  0  0  0  0  0
  186.0970  175.5230  137.1490 C   0  0  0  0  0  0  0  0  0  0  0  0
  185.0600  174.4310  137.2670 C   0  0  2  0  0  3  0  0  0  0  0  0
  185.5980  173.0620  136.8870 C   0  0  0  0  0  1  0  0  0  0  0  0
  181.7320  174.0400  137.2780 C   0  0  1  0  0  3  0  0  0  0  0  0
  180.1350  175.3780  135.9000 C   0  0  0  0  0  3  0  0  0  0  0  0
  180.9230  176.5970  136.1200 C   0  0  0  0  0  3  0  0  0  0  0  0
  182.5830  175.3120  137.4560 C   0  0  2  0  0  0  0  0  0  0  0  0
  182.0450  176.5770  136.8410 C   0  0  0  0  0  3  0  0  0  0  0  0
  180.4990  174.2090  136.4250 C   0  0  0  0  0  3  0  0  0  0  0  0
  183.6900  174.6870  136.6070 C   0  0  2  0  0  3  0  0  0  0  0  0
  182.9290  175.5060  138.7970 O   0  0  0  0  0  1  0  0  0  0  0  0
  182.8500  173.4240  136.4450 C   0  0  0  0  0  2  0  0  0  0  0  0
  1  5  1  0  0  0  0
  1  6  1  0  0  0  0
  2 10  1  1  0  0  0
  4 27  1  6  0  0  0
  4  2  1  0  0  0  0
  5  4  1  0  0  0  0
  6  3  2  0  0  0  0
  6  2  1  0  0  0  0
  7 14  1  0  0  0  0
  7  8  1  0  0  0  0
 10  7  2  0  0  0  0
 11  9  1  0  0  0  0
 11  8  1  0  0  0  0
 12 10  1  0  0  0  0
 12 11  2  0  0  0  0
 13 15  1  0  0  0  0
 14 13  3  0  0  0  0
 15 18  1  0  0  0  0
 16 17  1  0  0  0  0
 17 19  1  0  0  0  0
 17 22  1  0  0  0  0
 18 21  2  0  0  0  0
 18 16  1  0  0  0  0
 20 19  2  0  0  0  0
 21 20  1  0  0  0  0
 23 22  1  0  0  0  0
 23 25  1  0  0  0  0
 25 24  1  0  0  0  0
 26 28  2  0  0  0  0
 28 29  1  0  0  0  0
 28 27  1  0  0  0  0
 29 30  1  6  0  0  0
 31 36  1  6  0  0  0
 31 34  1  0  0  0  0
 32 33  1  0  0  0  0
 32 36  2  0  0  0  0
 33 35  2  0  0  0  0
 34 38  1  1  0  0  0
 35 34  1  0  0  0  0
 37 29  1  1  0  0  0
 37 34  1  0  0  0  0
 39 37  1  0  0  0  0
 39 31  1  0  0  0  0
M  END
>  <MODEL>
9

>  <REMARK>
 VINA RESULT:      -7.3      3.016      6.775
  Name = 
  10 active torsions:
  status: ('A' for Active; 'I' for Inactive)
    1  A    between atoms: C_2  and  C_34
    2  A    between atoms: C_3  and  C_25
    3  A    between atoms: C_4  and  C_29
    4  A    between atoms: C_4  and  C_30
    5  A    between atoms: C_5  and  C_18
    6  A    between atoms: C_5  and  C_21
    7  A    between atoms: C_8  and  N_14
    8  A    between atoms: N_17  and  C_20
    9  A    between atoms: C_20  and  C_27
   10  A    between atoms: C_27  and  N_33
                            x       y       z     vdW  Elec       q    Type
                         _______ _______ _______ _____ _____    ______ ____

>  <TORSDO>
F 10

$$$$
