=
 OpenBabel11032419313D

 31 35  0  0  1  0  0  0  0  0999 V2000
  187.4990  178.3340  140.3300 C   0  0  0  0  0  0  0  0  0  0  0  0
  190.1540  177.5410  139.8360 C   0  0  0  0  0  0  0  0  0  0  0  0
  189.3170  178.0110  138.8150 C   0  0  0  0  0  0  0  0  0  0  0  0
  186.1580  178.7380  140.5850 N   0  0  0  0  0  1  0  0  0  0  0  0
  188.0400  178.3950  139.0530 C   0  0  0  0  0  0  0  0  0  0  0  0
  189.5870  177.4840  141.1400 C   0  0  0  0  0  0  0  0  0  0  0  0
  188.4540  178.6950  137.0040 C   0  0  0  0  0  3  0  0  0  0  0  0
  189.6100  178.1980  137.5190 N   0  0  0  0  0  0  0  0  0  0  0  0
  187.4630  178.8310  137.9240 N   0  0  0  0  0  0  0  0  0  0  0  0
  188.2890  177.8770  141.3430 N   0  0  0  0  0  2  0  0  0  0  0  0
  192.0770  174.3390  137.1510 C   0  0  0  0  0  0  0  0  0  0  0  0
  191.5490  177.1400  139.5540 C   0  0  0  0  0  0  0  0  0  0  0  0
  194.1050  175.2970  138.0440 N   0  0  0  0  0  0  0  0  0  0  0  0
  191.9840  176.1560  138.6970 C   0  0  0  0  0  0  0  0  0  0  0  0
  191.4160  173.3430  136.2710 C   0  0  0  0  0  1  0  0  0  0  0  0
  193.3470  176.1640  138.7610 C   0  0  0  0  0  0  0  0  0  0  0  0
  193.4860  174.3850  137.2360 C   0  0  0  0  0  3  0  0  0  0  0  0
  192.7030  177.7050  140.0990 C   0  0  0  0  0  3  0  0  0  0  0  0
  193.8130  177.0970  139.6090 N   0  0  0  0  0  0  0  0  0  0  0  0
  191.3020  175.2410  137.9000 C   0  0  0  0  0  2  0  0  0  0  0  0
  190.5130  176.8670  142.5470 S   0  0  0  0  0  0  0  0  0  0  0  0
  189.9800  178.2490  143.6130 C   0  0  0  0  0  2  0  0  0  0  0  0
  190.7050  176.9360  145.4880 O   0  0  0  0  0  1  0  0  0  0  0  0
  189.7030  177.8000  145.0420 C   0  0  2  0  0  3  0  0  0  0  0  0
  188.3390  177.1320  145.1490 C   0  0  0  0  0  2  0  0  0  0  0  0
  186.6910  178.1020  146.4920 C   0  0  0  0  0  2  0  0  0  0  0  0
  187.2840  178.1320  145.1540 N   0  0  0  0  0  0  0  0  0  0  0  0
  185.6360  179.1080  146.5820 N   0  0  0  0  0  2  0  0  0  0  0  0
  184.6100  178.7960  145.5890 C   0  0  0  0  0  2  0  0  0  0  0  0
  185.2390  178.6990  144.2020 C   0  0  0  0  0  2  0  0  0  0  0  0
  186.3040  177.6990  144.2390 N   0  0  0  0  0  2  0  0  0  0  0  0
  1  4  1  0  0  0  0
  1 10  1  0  0  0  0
  2  6  2  0  0  0  0
  3  5  1  0  0  0  0
  3  2  1  0  0  0  0
  5  1  2  0  0  0  0
  6 10  1  0  0  0  0
  6 21  1  0  0  0  0
  7  8  1  0  0  0  0
  7  9  2  0  0  0  0
  8  3  2  0  0  0  0
  9  5  1  0  0  0  0
 11 17  2  0  0  0  0
 11 20  1  0  0  0  0
 12  2  1  0  0  0  0
 12 18  1  0  0  0  0
 13 16  2  0  0  0  0
 14 16  1  0  0  0  0
 14 12  2  0  0  0  0
 15 11  1  0  0  0  0
 16 19  1  0  0  0  0
 17 13  1  0  0  0  0
 19 18  2  0  0  0  0
 20 14  1  0  0  0  0
 21 22  1  0  0  0  0
 22 24  1  0  0  0  0
 24 25  1  0  0  0  0
 24 23  1  6  0  0  0
 25 27  1  0  0  0  0
 26 28  1  0  0  0  0
 27 26  1  0  0  0  0
 29 28  1  0  0  0  0
 30 31  1  0  0  0  0
 30 29  1  0  0  0  0
 31 27  1  0  0  0  0
M  END
>  <MODEL>
1

>  <REMARK>
 VINA RESULT:      -8.1      0.000      0.000
  Name = 
  6 active torsions:
  status: ('A' for Active; 'I' for Inactive)
    1  A    between atoms: C_3  and  N_9
    2  A    between atoms: C_3  and  C_19
    3  A    between atoms: C_4  and  C_5
    4  A    between atoms: C_8  and  C_19
    5  A    between atoms: C_8  and  S_31
    6  A    between atoms: C_21  and  S_31
                            x       y       z     vdW  Elec       q    Type
                         _______ _______ _______ _____ _____    ______ ____

>  <TORSDO>
F 6

$$$$
=
 OpenBabel11032419313D

 31 35  0  0  1  0  0  0  0  0999 V2000
  186.8150  178.1780  142.4240 C   0  0  0  0  0  0  0  0  0  0  0  0
  187.8130  178.0770  139.7930 C   0  0  0  0  0  0  0  0  0  0  0  0
  186.5020  178.4830  140.0750 C   0  0  0  0  0  0  0  0  0  0  0  0
  186.3160  178.2310  143.7560 N   0  0  0  0  0  1  0  0  0  0  0  0
  186.0220  178.5330  141.3410 C   0  0  0  0  0  0  0  0  0  0  0  0
  188.6160  177.7170  140.9120 C   0  0  0  0  0  0  0  0  0  0  0  0
  184.5070  179.1960  140.0280 C   0  0  0  0  0  3  0  0  0  0  0  0
  185.5600  178.9060  139.2190 N   0  0  0  0  0  0  0  0  0  0  0  0
  184.7580  178.9790  141.3460 N   0  0  0  0  0  0  0  0  0  0  0  0
  188.0950  177.7760  142.1790 N   0  0  0  0  0  2  0  0  0  0  0  0
  187.6100  174.9830  136.3960 C   0  0  0  0  0  0  0  0  0  0  0  0
  188.3190  178.0430  138.4040 C   0  0  0  0  0  0  0  0  0  0  0  0
  188.8420  176.6960  135.2230 N   0  0  0  0  0  0  0  0  0  0  0  0
  188.1650  177.0380  137.4780 C   0  0  0  0  0  0  0  0  0  0  0  0
  186.9800  173.6390  136.3980 C   0  0  0  0  0  1  0  0  0  0  0  0
  188.7880  177.4620  136.3420 C   0  0  0  0  0  0  0  0  0  0  0  0
  188.2570  175.4600  135.2350 C   0  0  0  0  0  3  0  0  0  0  0  0
  189.0430  179.0460  137.7580 C   0  0  0  0  0  3  0  0  0  0  0  0
  189.3340  178.6810  136.4830 N   0  0  0  0  0  0  0  0  0  0  0  0
  187.5640  175.7850  137.5500 C   0  0  0  0  0  2  0  0  0  0  0  0
  190.3020  177.1370  140.7170 S   0  0  0  0  0  0  0  0  0  0  0  0
  190.2720  176.2480  142.3100 C   0  0  0  0  0  2  0  0  0  0  0  0
  191.9270  175.2910  143.7630 O   0  0  0  0  0  1  0  0  0  0  0  0
  191.5450  176.4690  143.1180 C   0  0  2  0  0  3  0  0  0  0  0  0
  191.3620  177.5930  144.1280 C   0  0  0  0  0  2  0  0  0  0  0  0
  189.5210  178.0200  145.5010 C   0  0  0  0  0  2  0  0  0  0  0  0
  190.6490  177.1110  145.2990 N   0  0  0  0  0  0  0  0  0  0  0  0
  188.7360  177.5780  146.6520 N   0  0  0  0  0  2  0  0  0  0  0  0
  189.5940  177.5990  147.8340 C   0  0  0  0  0  2  0  0  0  0  0  0
  190.8400  176.7550  147.5900 C   0  0  0  0  0  2  0  0  0  0  0  0
  191.5200  177.2550  146.3980 N   0  0  0  0  0  2  0  0  0  0  0  0
  1  4  1  0  0  0  0
  2  3  1  0  0  0  0
  2  6  2  0  0  0  0
  3  5  1  0  0  0  0
  5  9  1  0  0  0  0
  5  1  2  0  0  0  0
  6 10  1  0  0  0  0
  7  9  2  0  0  0  0
  8  7  1  0  0  0  0
  8  3  2  0  0  0  0
 10  1  1  0  0  0  0
 11 15  1  0  0  0  0
 11 20  1  0  0  0  0
 12  2  1  0  0  0  0
 13 17  1  0  0  0  0
 13 16  2  0  0  0  0
 14 20  1  0  0  0  0
 14 12  2  0  0  0  0
 16 19  1  0  0  0  0
 16 14  1  0  0  0  0
 17 11  2  0  0  0  0
 18 12  1  0  0  0  0
 19 18  2  0  0  0  0
 21  6  1  0  0  0  0
 21 22  1  0  0  0  0
 22 24  1  0  0  0  0
 24 23  1  1  0  0  0
 24 25  1  0  0  0  0
 25 27  1  0  0  0  0
 26 28  1  0  0  0  0
 27 26  1  0  0  0  0
 27 31  1  0  0  0  0
 28 29  1  0  0  0  0
 30 29  1  0  0  0  0
 31 30  1  0  0  0  0
M  END
>  <MODEL>
2

>  <REMARK>
 VINA RESULT:      -7.9      3.037      4.098
  Name = 
  6 active torsions:
  status: ('A' for Active; 'I' for Inactive)
    1  A    between atoms: C_3  and  N_9
    2  A    between atoms: C_3  and  C_19
    3  A    between atoms: C_4  and  C_5
    4  A    between atoms: C_8  and  C_19
    5  A    between atoms: C_8  and  S_31
    6  A    between atoms: C_21  and  S_31
                            x       y       z     vdW  Elec       q    Type
                         _______ _______ _______ _____ _____    ______ ____

>  <TORSDO>
F 6

$$$$
=
 OpenBabel11032419313D

 31 35  0  0  1  0  0  0  0  0999 V2000
  187.6960  178.2590  140.1050 C   0  0  0  0  0  0  0  0  0  0  0  0
  190.1980  177.2140  139.3470 C   0  0  0  0  0  0  0  0  0  0  0  0
  189.3450  177.8380  138.4280 C   0  0  0  0  0  0  0  0  0  0  0  0
  186.4340  178.7890  140.4940 N   0  0  0  0  0  1  0  0  0  0  0  0
  188.1420  178.3440  138.7930 C   0  0  0  0  0  0  0  0  0  0  0  0
  189.7300  177.1340  140.6890 C   0  0  0  0  0  0  0  0  0  0  0  0
  188.4290  178.7290  136.7370 C   0  0  0  0  0  3  0  0  0  0  0  0
  189.5570  178.0760  137.1250 N   0  0  0  0  0  0  0  0  0  0  0  0
  187.5340  178.9120  137.7420 N   0  0  0  0  0  0  0  0  0  0  0  0
  188.5040  177.6530  141.0210 N   0  0  0  0  0  2  0  0  0  0  0  0
  191.5220  173.7880  136.5780 C   0  0  0  0  0  0  0  0  0  0  0  0
  191.5130  176.6830  138.9280 C   0  0  0  0  0  0  0  0  0  0  0  0
  193.7130  174.5800  137.2110 N   0  0  0  0  0  0  0  0  0  0  0  0
  191.7620  175.6430  138.0630 C   0  0  0  0  0  0  0  0  0  0  0  0
  190.6820  172.8350  135.8110 C   0  0  0  0  0  1  0  0  0  0  0  0
  193.1180  175.5290  137.9760 C   0  0  0  0  0  0  0  0  0  0  0  0
  192.9300  173.7080  136.5070 C   0  0  0  0  0  3  0  0  0  0  0  0
  192.7650  177.1540  139.3240 C   0  0  0  0  0  3  0  0  0  0  0  0
  193.7550  176.4360  138.7360 N   0  0  0  0  0  0  0  0  0  0  0  0
  190.9180  174.7740  137.3770 C   0  0  0  0  0  2  0  0  0  0  0  0
  190.6840  176.3290  141.9770 S   0  0  0  0  0  0  0  0  0  0  0  0
  191.3070  177.9170  142.6260 C   0  0  0  0  0  2  0  0  0  0  0  0
  190.9610  179.6460  144.2560 O   0  0  0  0  0  1  0  0  0  0  0  0
  190.5330  178.3800  143.8550 C   0  0  2  0  0  3  0  0  0  0  0  0
  190.6770  177.3830  144.9970 C   0  0  0  0  0  2  0  0  0  0  0  0
  188.3780  177.6190  144.6550 C   0  0  0  0  0  2  0  0  0  0  0  0
  189.3790  177.0980  145.5870 N   0  0  0  0  0  0  0  0  0  0  0  0
  187.0390  177.3410  145.1700 N   0  0  0  0  0  2  0  0  0  0  0  0
  186.8910  178.0050  146.4630 C   0  0  0  0  0  2  0  0  0  0  0  0
  188.0070  177.5650  147.4060 C   0  0  0  0  0  2  0  0  0  0  0  0
  189.2940  177.8500  146.7750 N   0  0  0  0  0  2  0  0  0  0  0  0
  1  4  1  0  0  0  0
  1 10  1  0  0  0  0
  2  6  2  0  0  0  0
  3  5  1  0  0  0  0
  3  2  1  0  0  0  0
  5  1  2  0  0  0  0
  6 10  1  0  0  0  0
  6 21  1  0  0  0  0
  7  8  1  0  0  0  0
  7  9  2  0  0  0  0
  8  3  2  0  0  0  0
  9  5  1  0  0  0  0
 11 20  1  0  0  0  0
 12 18  1  0  0  0  0
 12  2  1  0  0  0  0
 13 16  2  0  0  0  0
 14 12  2  0  0  0  0
 15 11  1  0  0  0  0
 16 14  1  0  0  0  0
 16 19  1  0  0  0  0
 17 11  2  0  0  0  0
 17 13  1  0  0  0  0
 19 18  2  0  0  0  0
 20 14  1  0  0  0  0
 21 22  1  0  0  0  0
 22 24  1  0  0  0  0
 24 23  1  1  0  0  0
 24 25  1  0  0  0  0
 25 27  1  0  0  0  0
 26 28  1  0  0  0  0
 26 27  1  0  0  0  0
 27 31  1  0  0  0  0
 28 29  1  0  0  0  0
 29 30  1  0  0  0  0
 31 30  1  0  0  0  0
M  END
>  <MODEL>
3

>  <REMARK>
 VINA RESULT:      -7.8      1.219      1.724
  Name = 
  6 active torsions:
  status: ('A' for Active; 'I' for Inactive)
    1  A    between atoms: C_3  and  N_9
    2  A    between atoms: C_3  and  C_19
    3  A    between atoms: C_4  and  C_5
    4  A    between atoms: C_8  and  C_19
    5  A    between atoms: C_8  and  S_31
    6  A    between atoms: C_21  and  S_31
                            x       y       z     vdW  Elec       q    Type
                         _______ _______ _______ _____ _____    ______ ____

>  <TORSDO>
F 6

$$$$
=
 OpenBabel11032419313D

 31 35  0  0  1  0  0  0  0  0999 V2000
  186.1400  178.8300  141.2930 C   0  0  0  0  0  0  0  0  0  0  0  0
  188.3440  177.6520  142.5900 C   0  0  0  0  0  0  0  0  0  0  0  0
  187.1180  177.8490  143.2400 C   0  0  0  0  0  0  0  0  0  0  0  0
  185.0280  179.4220  140.6320 N   0  0  0  0  0  1  0  0  0  0  0  0
  186.0570  178.4140  142.6150 C   0  0  0  0  0  0  0  0  0  0  0  0
  188.4160  178.0830  141.2360 C   0  0  0  0  0  0  0  0  0  0  0  0
  185.4760  177.8970  144.5780 C   0  0  0  0  0  3  0  0  0  0  0  0
  186.7740  177.5040  144.4890 N   0  0  0  0  0  2  0  0  0  0  0  0
  185.0000  178.4620  143.4380 N   0  0  0  0  0  0  0  0  0  0  0  0
  187.3230  178.6550  140.6360 N   0  0  0  0  0  0  0  0  0  0  0  0
  189.7580  177.5690  146.9660 C   0  0  0  0  0  0  0  0  0  0  0  0
  189.4840  177.0210  143.2890 C   0  0  0  0  0  0  0  0  0  0  0  0
  191.4920  176.1800  146.0220 N   0  0  0  0  0  0  0  0  0  0  0  0
  189.7780  177.0690  144.6320 C   0  0  0  0  0  0  0  0  0  0  0  0
  189.1530  178.2270  148.1520 C   0  0  0  0  0  1  0  0  0  0  0  0
  190.9110  176.3310  144.8050 C   0  0  0  0  0  0  0  0  0  0  0  0
  190.9270  176.7890  147.1080 C   0  0  0  0  0  3  0  0  0  0  0  0
  190.4820  176.2340  142.7100 C   0  0  0  0  0  3  0  0  0  0  0  0
  191.3640  175.8120  143.6520 N   0  0  0  0  0  0  0  0  0  0  0  0
  189.1670  177.7200  145.7000 C   0  0  0  0  0  2  0  0  0  0  0  0
  189.9260  177.9400  140.2770 S   0  0  0  0  0  0  0  0  0  0  0  0
  189.0580  177.1790  138.8640 C   0  0  0  0  0  2  0  0  0  0  0  0
  189.0620  179.3640  137.8660 O   0  0  0  0  0  1  0  0  0  0  0  0
  189.2030  178.0020  137.5890 C   0  0  2  0  0  3  0  0  0  0  0  0
  188.1900  177.5650  136.5400 C   0  0  0  0  0  2  0  0  0  0  0  0
  186.6830  175.7890  136.3580 C   0  0  0  0  0  2  0  0  0  0  0  0
  187.0360  176.9500  137.1760 N   0  0  0  0  0  0  0  0  0  0  0  0
  185.5430  175.0980  136.9560 N   0  0  0  0  0  2  0  0  0  0  0  0
  184.4120  176.0220  137.0000 C   0  0  0  0  0  2  0  0  0  0  0  0
  184.8070  177.2950  137.7420 C   0  0  0  0  0  2  0  0  0  0  0  0
  185.9770  177.8760  137.0880 N   0  0  0  0  0  2  0  0  0  0  0  0
  1  5  1  0  0  0  0
  2  3  1  0  0  0  0
  2 12  1  0  0  0  0
  3  8  1  0  0  0  0
  4  1  1  0  0  0  0
  5  3  2  0  0  0  0
  5  9  1  0  0  0  0
  6  2  2  0  0  0  0
  8  7  1  0  0  0  0
  9  7  2  0  0  0  0
 10  6  1  0  0  0  0
 10  1  2  0  0  0  0
 11 17  2  0  0  0  0
 11 15  1  0  0  0  0
 12 14  2  0  0  0  0
 13 17  1  0  0  0  0
 14 16  1  0  0  0  0
 14 20  1  0  0  0  0
 16 13  2  0  0  0  0
 18 12  1  0  0  0  0
 18 19  2  0  0  0  0
 19 16  1  0  0  0  0
 20 11  1  0  0  0  0
 21  6  1  0  0  0  0
 22 21  1  0  0  0  0
 24 23  1  1  0  0  0
 24 22  1  0  0  0  0
 25 27  1  0  0  0  0
 25 24  1  0  0  0  0
 26 28  1  0  0  0  0
 26 27  1  0  0  0  0
 28 29  1  0  0  0  0
 29 30  1  0  0  0  0
 31 27  1  0  0  0  0
 31 30  1  0  0  0  0
M  END
>  <MODEL>
4

>  <REMARK>
 VINA RESULT:      -7.6      3.219      7.144
  Name = 
  6 active torsions:
  status: ('A' for Active; 'I' for Inactive)
    1  A    between atoms: C_3  and  N_9
    2  A    between atoms: C_3  and  C_19
    3  A    between atoms: C_4  and  C_5
    4  A    between atoms: C_8  and  C_19
    5  A    between atoms: C_8  and  S_31
    6  A    between atoms: C_21  and  S_31
                            x       y       z     vdW  Elec       q    Type
                         _______ _______ _______ _____ _____    ______ ____

>  <TORSDO>
F 6

$$$$
=
 OpenBabel11032419313D

 31 35  0  0  1  0  0  0  0  0999 V2000
  186.0430  178.8020  141.3130 C   0  0  0  0  0  0  0  0  0  0  0  0
  188.2620  177.6580  142.6140 C   0  0  0  0  0  0  0  0  0  0  0  0
  187.0450  177.8750  143.2730 C   0  0  0  0  0  0  0  0  0  0  0  0
  184.9230  179.3780  140.6500 N   0  0  0  0  0  1  0  0  0  0  0  0
  185.9760  178.4230  142.6470 C   0  0  0  0  0  0  0  0  0  0  0  0
  188.3170  178.0500  141.2470 C   0  0  0  0  0  0  0  0  0  0  0  0
  185.4200  177.9630  144.6310 C   0  0  0  0  0  3  0  0  0  0  0  0
  186.7170  177.5650  144.5370 N   0  0  0  0  0  2  0  0  0  0  0  0
  184.9300  178.4960  143.4820 N   0  0  0  0  0  0  0  0  0  0  0  0
  187.2170  178.6070  140.6460 N   0  0  0  0  0  0  0  0  0  0  0  0
  189.6710  177.6020  146.9920 C   0  0  0  0  0  0  0  0  0  0  0  0
  189.4110  177.0450  143.3150 C   0  0  0  0  0  0  0  0  0  0  0  0
  191.4270  176.2380  146.0520 N   0  0  0  0  0  0  0  0  0  0  0  0
  189.7010  177.0980  144.6590 C   0  0  0  0  0  0  0  0  0  0  0  0
  189.0550  178.2530  148.1760 C   0  0  0  0  0  1  0  0  0  0  0  0
  190.8450  176.3780  144.8350 C   0  0  0  0  0  0  0  0  0  0  0  0
  190.8510  176.8400  147.1360 C   0  0  0  0  0  3  0  0  0  0  0  0
  190.4200  176.2720  142.7390 C   0  0  0  0  0  3  0  0  0  0  0  0
  191.3070  175.8640  143.6820 N   0  0  0  0  0  0  0  0  0  0  0  0
  189.0800  177.7420  145.7250 C   0  0  0  0  0  2  0  0  0  0  0  0
  189.8150  177.8780  140.2740 S   0  0  0  0  0  0  0  0  0  0  0  0
  188.9090  177.1980  138.8430 C   0  0  0  0  0  2  0  0  0  0  0  0
  189.2540  177.2910  136.4680 O   0  0  0  0  0  1  0  0  0  0  0  0
  189.8330  176.8850  137.6720 C   0  0  2  0  0  3  0  0  0  0  0  0
  190.1700  175.4010  137.6260 C   0  0  0  0  0  2  0  0  0  0  0  0
  192.2720  176.4170  137.7130 C   0  0  0  0  0  2  0  0  0  0  0  0
  191.5510  175.1830  138.0260 N   0  0  0  0  0  0  0  0  0  0  0  0
  193.6700  176.2830  138.1160 N   0  0  0  0  0  2  0  0  0  0  0  0
  194.2630  175.1730  137.3750 C   0  0  0  0  0  2  0  0  0  0  0  0
  193.4450  173.9040  137.5920 C   0  0  0  0  0  2  0  0  0  0  0  0
  192.0620  174.1640  137.1980 N   0  0  0  0  0  2  0  0  0  0  0  0
  1  5  1  0  0  0  0
  2  3  1  0  0  0  0
  2 12  1  0  0  0  0
  3  8  1  0  0  0  0
  4  1  1  0  0  0  0
  5  3  2  0  0  0  0
  5  9  1  0  0  0  0
  6  2  2  0  0  0  0
  8  7  1  0  0  0  0
  9  7  2  0  0  0  0
 10  6  1  0  0  0  0
 10  1  2  0  0  0  0
 11 17  2  0  0  0  0
 11 15  1  0  0  0  0
 12 14  2  0  0  0  0
 13 17  1  0  0  0  0
 14 16  1  0  0  0  0
 14 20  1  0  0  0  0
 16 13  2  0  0  0  0
 18 12  1  0  0  0  0
 18 19  2  0  0  0  0
 19 16  1  0  0  0  0
 20 11  1  0  0  0  0
 21  6  1  0  0  0  0
 22 21  1  0  0  0  0
 24 23  1  6  0  0  0
 24 22  1  0  0  0  0
 25 24  1  0  0  0  0
 25 27  1  0  0  0  0
 26 27  1  0  0  0  0
 26 28  1  0  0  0  0
 29 30  1  0  0  0  0
 29 28  1  0  0  0  0
 31 30  1  0  0  0  0
 31 27  1  0  0  0  0
M  END
>  <MODEL>
5

>  <REMARK>
 VINA RESULT:      -7.5      2.580      7.784
  Name = 
  6 active torsions:
  status: ('A' for Active; 'I' for Inactive)
    1  A    between atoms: C_3  and  N_9
    2  A    between atoms: C_3  and  C_19
    3  A    between atoms: C_4  and  C_5
    4  A    between atoms: C_8  and  C_19
    5  A    between atoms: C_8  and  S_31
    6  A    between atoms: C_21  and  S_31
                            x       y       z     vdW  Elec       q    Type
                         _______ _______ _______ _____ _____    ______ ____

>  <TORSDO>
F 6

$$$$
=
 OpenBabel11032419313D

 31 35  0  0  1  0  0  0  0  0999 V2000
  192.5280  176.3410  138.1380 C   0  0  0  0  0  0  0  0  0  0  0  0
  189.8260  176.9060  137.5820 C   0  0  0  0  0  0  0  0  0  0  0  0
  190.7190  176.4920  136.5850 C   0  0  0  0  0  0  0  0  0  0  0  0
  193.8920  176.0530  138.4250 N   0  0  0  0  0  1  0  0  0  0  0  0
  192.0190  176.2180  136.8520 C   0  0  0  0  0  0  0  0  0  0  0  0
  190.3610  177.0270  138.8960 C   0  0  0  0  0  0  0  0  0  0  0  0
  191.6720  175.8570  134.8010 C   0  0  0  0  0  3  0  0  0  0  0  0
  190.4690  176.2640  135.2870 N   0  0  0  0  0  0  0  0  0  0  0  0
  192.6520  175.8160  135.7420 N   0  0  0  0  0  0  0  0  0  0  0  0
  191.6820  176.7450  139.1290 N   0  0  0  0  0  2  0  0  0  0  0  0
  186.0770  174.2800  137.1290 C   0  0  0  0  0  0  0  0  0  0  0  0
  188.4090  177.1860  137.2680 C   0  0  0  0  0  0  0  0  0  0  0  0
  185.0460  176.4220  136.7070 N   0  0  0  0  0  0  0  0  0  0  0  0
  187.3730  176.2840  137.1810 C   0  0  0  0  0  0  0  0  0  0  0  0
  185.9520  172.8070  137.2590 C   0  0  0  0  0  1  0  0  0  0  0  0
  186.2570  177.0080  136.8820 C   0  0  0  0  0  0  0  0  0  0  0  0
  184.9410  175.0640  136.8300 C   0  0  0  0  0  3  0  0  0  0  0  0
  187.8450  178.4370  137.0130 C   0  0  0  0  0  3  0  0  0  0  0  0
  186.5140  178.3220  136.7720 N   0  0  0  0  0  0  0  0  0  0  0  0
  187.3260  174.8990  137.3060 C   0  0  0  0  0  2  0  0  0  0  0  0
  189.3590  177.5840  140.2760 S   0  0  0  0  0  0  0  0  0  0  0  0
  190.6560  177.1770  141.4930 C   0  0  0  0  0  2  0  0  0  0  0  0
  190.3240  175.1900  142.7990 O   0  0  0  0  0  1  0  0  0  0  0  0
  190.0810  176.5640  142.7640 C   0  0  2  0  0  3  0  0  0  0  0  0
  188.5880  176.8430  142.8760 C   0  0  0  0  0  2  0  0  0  0  0  0
  186.8820  177.4390  144.3570 C   0  0  0  0  0  2  0  0  0  0  0  0
  188.1530  176.7200  144.2580 N   0  0  0  0  0  0  0  0  0  0  0  0
  186.3650  177.3340  145.7200 N   0  0  0  0  0  2  0  0  0  0  0  0
  187.3350  177.9350  146.6320 C   0  0  0  0  0  2  0  0  0  0  0  0
  188.7000  177.2790  146.4490 C   0  0  0  0  0  2  0  0  0  0  0  0
  189.0980  177.4050  145.0480 N   0  0  0  0  0  2  0  0  0  0  0  0
  1  4  1  0  0  0  0
  1 10  1  0  0  0  0
  2  6  2  0  0  0  0
  3  5  1  0  0  0  0
  3  2  1  0  0  0  0
  5  1  2  0  0  0  0
  6 10  1  0  0  0  0
  6 21  1  0  0  0  0
  7  8  1  0  0  0  0
  7  9  2  0  0  0  0
  8  3  2  0  0  0  0
  9  5  1  0  0  0  0
 11 15  1  0  0  0  0
 11 20  1  0  0  0  0
 12  2  1  0  0  0  0
 13 17  1  0  0  0  0
 13 16  2  0  0  0  0
 14 12  2  0  0  0  0
 14 20  1  0  0  0  0
 16 14  1  0  0  0  0
 17 11  2  0  0  0  0
 18 12  1  0  0  0  0
 19 16  1  0  0  0  0
 19 18  2  0  0  0  0
 21 22  1  0  0  0  0
 22 24  1  0  0  0  0
 24 23  1  6  0  0  0
 24 25  1  0  0  0  0
 25 27  1  0  0  0  0
 26 28  1  0  0  0  0
 27 26  1  0  0  0  0
 27 31  1  0  0  0  0
 28 29  1  0  0  0  0
 30 29  1  0  0  0  0
 31 30  1  0  0  0  0
M  END
>  <MODEL>
6

>  <REMARK>
 VINA RESULT:      -7.4      2.621      4.953
  Name = 
  6 active torsions:
  status: ('A' for Active; 'I' for Inactive)
    1  A    between atoms: C_3  and  N_9
    2  A    between atoms: C_3  and  C_19
    3  A    between atoms: C_4  and  C_5
    4  A    between atoms: C_8  and  C_19
    5  A    between atoms: C_8  and  S_31
    6  A    between atoms: C_21  and  S_31
                            x       y       z     vdW  Elec       q    Type
                         _______ _______ _______ _____ _____    ______ ____

>  <TORSDO>
F 6

$$$$
=
 OpenBabel11032419313D

 31 35  0  0  1  0  0  0  0  0999 V2000
  188.9620  177.4830  140.4910 C   0  0  0  0  0  0  0  0  0  0  0  0
  187.7410  177.6640  143.0200 C   0  0  0  0  0  0  0  0  0  0  0  0
  188.8810  176.8800  142.8010 C   0  0  0  0  0  0  0  0  0  0  0  0
  189.5790  177.3980  139.2100 N   0  0  0  0  0  1  0  0  0  0  0  0
  189.4710  176.7940  141.5840 C   0  0  0  0  0  0  0  0  0  0  0  0
  187.2310  178.3650  141.8920 C   0  0  0  0  0  0  0  0  0  0  0  0
  190.5910  175.6360  142.9480 C   0  0  0  0  0  3  0  0  0  0  0  0
  189.5780  176.1570  143.6900 N   0  0  0  0  0  2  0  0  0  0  0  0
  190.5560  176.0100  141.6420 N   0  0  0  0  0  0  0  0  0  0  0  0
  187.8510  178.2510  140.6740 N   0  0  0  0  0  0  0  0  0  0  0  0
  189.3990  177.6020  147.3100 C   0  0  0  0  0  0  0  0  0  0  0  0
  187.1230  177.7520  144.3610 C   0  0  0  0  0  0  0  0  0  0  0  0
  187.0610  177.8590  147.8530 N   0  0  0  0  0  0  0  0  0  0  0  0
  187.7580  177.7370  145.5810 C   0  0  0  0  0  0  0  0  0  0  0  0
  190.8070  177.4670  147.7620 C   0  0  0  0  0  1  0  0  0  0  0  0
  186.7810  177.8560  146.5250 C   0  0  0  0  0  0  0  0  0  0  0  0
  188.3610  177.7360  148.2580 C   0  0  0  0  0  3  0  0  0  0  0  0
  185.7630  177.8850  144.6430 C   0  0  0  0  0  3  0  0  0  0  0  0
  185.5550  177.9460  145.9830 N   0  0  0  0  0  0  0  0  0  0  0  0
  189.0960  177.5970  145.9380 C   0  0  0  0  0  2  0  0  0  0  0  0
  185.7540  179.3780  141.9970 S   0  0  0  0  0  0  0  0  0  0  0  0
  184.8630  178.3590  140.7740 C   0  0  0  0  0  2  0  0  0  0  0  0
  184.1750  180.1310  139.3070 O   0  0  0  0  0  1  0  0  0  0  0  0
  184.9250  178.9550  139.3730 C   0  0  2  0  0  3  0  0  0  0  0  0
  184.4380  177.9550  138.3330 C   0  0  0  0  0  2  0  0  0  0  0  0
  185.7820  176.4770  137.1220 C   0  0  0  0  0  2  0  0  0  0  0  0
  185.3770  177.8790  137.2250 N   0  0  0  0  0  0  0  0  0  0  0  0
  186.7090  176.3170  136.0040 N   0  0  0  0  0  2  0  0  0  0  0  0
  187.8860  177.1450  136.2550 C   0  0  0  0  0  2  0  0  0  0  0  0
  187.4660  178.5920  136.4920 C   0  0  0  0  0  2  0  0  0  0  0  0
  186.5110  178.6290  137.5970 N   0  0  0  0  0  2  0  0  0  0  0  0
  1 10  2  0  0  0  0
  1  5  1  0  0  0  0
  2 12  1  0  0  0  0
  3  2  1  0  0  0  0
  3  8  1  0  0  0  0
  4  1  1  0  0  0  0
  5  9  1  0  0  0  0
  5  3  2  0  0  0  0
  6 21  1  0  0  0  0
  6  2  2  0  0  0  0
  7  8  1  0  0  0  0
  9  7  2  0  0  0  0
 10  6  1  0  0  0  0
 11 15  1  0  0  0  0
 11 17  2  0  0  0  0
 12 18  1  0  0  0  0
 12 14  2  0  0  0  0
 13 17  1  0  0  0  0
 14 20  1  0  0  0  0
 14 16  1  0  0  0  0
 16 13  2  0  0  0  0
 18 19  2  0  0  0  0
 19 16  1  0  0  0  0
 20 11  1  0  0  0  0
 22 21  1  0  0  0  0
 24 23  1  1  0  0  0
 24 22  1  0  0  0  0
 25 24  1  0  0  0  0
 26 27  1  0  0  0  0
 27 31  1  0  0  0  0
 27 25  1  0  0  0  0
 28 29  1  0  0  0  0
 28 26  1  0  0  0  0
 29 30  1  0  0  0  0
 30 31  1  0  0  0  0
M  END
>  <MODEL>
7

>  <REMARK>
 VINA RESULT:      -7.3      3.465      8.047
  Name = 
  6 active torsions:
  status: ('A' for Active; 'I' for Inactive)
    1  A    between atoms: C_3  and  N_9
    2  A    between atoms: C_3  and  C_19
    3  A    between atoms: C_4  and  C_5
    4  A    between atoms: C_8  and  C_19
    5  A    between atoms: C_8  and  S_31
    6  A    between atoms: C_21  and  S_31
                            x       y       z     vdW  Elec       q    Type
                         _______ _______ _______ _____ _____    ______ ____

>  <TORSDO>
F 6

$$$$
=
 OpenBabel11032419313D

 31 35  0  0  1  0  0  0  0  0999 V2000
  188.4580  177.7930  140.2830 C   0  0  0  0  0  0  0  0  0  0  0  0
  187.5190  177.7950  142.9370 C   0  0  0  0  0  0  0  0  0  0  0  0
  188.6830  177.1120  142.5620 C   0  0  0  0  0  0  0  0  0  0  0  0
  188.9310  177.7990  138.9410 N   0  0  0  0  0  1  0  0  0  0  0  0
  189.1370  177.1120  141.2850 C   0  0  0  0  0  0  0  0  0  0  0  0
  186.8340  178.4890  141.9010 C   0  0  0  0  0  0  0  0  0  0  0  0
  190.4870  176.0030  142.4690 C   0  0  0  0  0  3  0  0  0  0  0  0
  189.5280  176.4180  143.3390 N   0  0  0  0  0  2  0  0  0  0  0  0
  190.2770  176.4150  141.1920 N   0  0  0  0  0  0  0  0  0  0  0  0
  187.3190  178.4650  140.6190 N   0  0  0  0  0  0  0  0  0  0  0  0
  189.6230  177.3380  147.0020 C   0  0  0  0  0  0  0  0  0  0  0  0
  187.0520  177.7910  144.3400 C   0  0  0  0  0  0  0  0  0  0  0  0
  187.3670  177.6150  147.8160 N   0  0  0  0  0  0  0  0  0  0  0  0
  187.8120  177.6590  145.4790 C   0  0  0  0  0  0  0  0  0  0  0  0
  191.0650  177.1270  147.2850 C   0  0  0  0  0  1  0  0  0  0  0  0
  186.9470  177.7270  146.5300 C   0  0  0  0  0  0  0  0  0  0  0  0
  188.6970  177.4230  148.0660 C   0  0  0  0  0  3  0  0  0  0  0  0
  185.7350  177.9390  144.7780 C   0  0  0  0  0  3  0  0  0  0  0  0
  185.6740  177.8960  146.1340 N   0  0  0  0  0  0  0  0  0  0  0  0
  189.1750  177.4530  145.6750 C   0  0  0  0  0  2  0  0  0  0  0  0
  185.3060  179.3790  142.2100 S   0  0  0  0  0  0  0  0  0  0  0  0
  184.3140  178.1760  141.2600 C   0  0  0  0  0  2  0  0  0  0  0  0
  184.5360  179.8320  139.5350 O   0  0  0  0  0  1  0  0  0  0  0  0
  183.7320  178.7860  139.9910 C   0  0  2  0  0  3  0  0  0  0  0  0
  182.3080  179.2720  140.2240 C   0  0  0  0  0  2  0  0  0  0  0  0
  180.3930  178.1940  141.0160 C   0  0  0  0  0  2  0  0  0  0  0  0
  181.7380  178.6280  141.3960 N   0  0  0  0  0  0  0  0  0  0  0  0
  179.7650  177.5060  142.1420 N   0  0  0  0  0  2  0  0  0  0  0  0
  179.6750  178.4380  143.2640 C   0  0  0  0  0  2  0  0  0  0  0  0
  181.0570  178.9980  143.5890 C   0  0  0  0  0  2  0  0  0  0  0  0
  181.6060  179.6210  142.3870 N   0  0  0  0  0  2  0  0  0  0  0  0
  1 10  2  0  0  0  0
  1  5  1  0  0  0  0
  2 12  1  0  0  0  0
  3  2  1  0  0  0  0
  3  8  1  0  0  0  0
  4  1  1  0  0  0  0
  5  3  2  0  0  0  0
  6 21  1  0  0  0  0
  6  2  2  0  0  0  0
  7  8  1  0  0  0  0
  9  5  1  0  0  0  0
  9  7  2  0  0  0  0
 10  6  1  0  0  0  0
 11 15  1  0  0  0  0
 11 17  2  0  0  0  0
 12 18  1  0  0  0  0
 12 14  2  0  0  0  0
 13 17  1  0  0  0  0
 14 20  1  0  0  0  0
 14 16  1  0  0  0  0
 16 13  2  0  0  0  0
 18 19  2  0  0  0  0
 19 16  1  0  0  0  0
 20 11  1  0  0  0  0
 22 21  1  0  0  0  0
 24 23  1  1  0  0  0
 24 25  1  0  0  0  0
 24 22  1  0  0  0  0
 25 27  1  0  0  0  0
 26 27  1  0  0  0  0
 26 28  1  0  0  0  0
 27 31  1  0  0  0  0
 28 29  1  0  0  0  0
 29 30  1  0  0  0  0
 31 30  1  0  0  0  0
M  END
>  <MODEL>
8

>  <REMARK>
 VINA RESULT:      -7.2      3.608      7.408
  Name = 
  6 active torsions:
  status: ('A' for Active; 'I' for Inactive)
    1  A    between atoms: C_3  and  N_9
    2  A    between atoms: C_3  and  C_19
    3  A    between atoms: C_4  and  C_5
    4  A    between atoms: C_8  and  C_19
    5  A    between atoms: C_8  and  S_31
    6  A    between atoms: C_21  and  S_31
                            x       y       z     vdW  Elec       q    Type
                         _______ _______ _______ _____ _____    ______ ____

>  <TORSDO>
F 6

$$$$
=
 OpenBabel11032419313D

 31 35  0  0  1  0  0  0  0  0999 V2000
  189.2670  177.9280  141.5550 C   0  0  0  0  0  0  0  0  0  0  0  0
  188.2150  177.8010  138.9470 C   0  0  0  0  0  0  0  0  0  0  0  0
  189.5530  177.4900  139.2240 C   0  0  0  0  0  0  0  0  0  0  0  0
  189.7930  177.9900  142.8760 N   0  0  0  0  0  1  0  0  0  0  0  0
  190.0590  177.5480  140.4800 C   0  0  0  0  0  0  0  0  0  0  0  0
  187.4150  178.1880  140.0580 C   0  0  0  0  0  0  0  0  0  0  0  0
  191.5840  176.8880  139.1780 C   0  0  0  0  0  3  0  0  0  0  0  0
  190.5010  177.0650  138.3760 N   0  0  0  0  0  0  0  0  0  0  0  0
  191.3460  177.1760  140.4840 N   0  0  0  0  0  0  0  0  0  0  0  0
  187.9620  178.2410  141.3150 N   0  0  0  0  0  2  0  0  0  0  0  0
  186.4460  174.3960  136.4120 C   0  0  0  0  0  0  0  0  0  0  0  0
  187.6830  177.7160  137.5700 C   0  0  0  0  0  0  0  0  0  0  0  0
  186.2460  176.1690  134.7860 N   0  0  0  0  0  0  0  0  0  0  0  0
  187.1600  176.6120  136.9380 C   0  0  0  0  0  0  0  0  0  0  0  0
  186.2480  172.9700  136.7770 C   0  0  0  0  0  1  0  0  0  0  0  0
  186.7900  177.0210  135.6910 C   0  0  0  0  0  0  0  0  0  0  0  0
  186.0660  174.8590  135.1330 C   0  0  0  0  0  3  0  0  0  0  0  0
  187.5940  178.7590  136.6470 C   0  0  0  0  0  3  0  0  0  0  0  0
  187.0440  178.3250  135.4850 N   0  0  0  0  0  0  0  0  0  0  0  0
  187.0100  175.2880  137.3390 C   0  0  0  0  0  2  0  0  0  0  0  0
  185.6940  178.6580  139.8650 S   0  0  0  0  0  0  0  0  0  0  0  0
  185.5670  179.2300  141.5930 C   0  0  0  0  0  2  0  0  0  0  0  0
  183.6100  177.8440  141.7190 O   0  0  0  0  0  1  0  0  0  0  0  0
  184.7110  178.3010  142.4460 C   0  0  2  0  0  3  0  0  0  0  0  0
  184.2550  178.9980  143.7210 C   0  0  0  0  0  2  0  0  0  0  0  0
  186.1450  177.8400  144.4570 C   0  0  0  0  0  2  0  0  0  0  0  0
  185.3370  179.0370  144.6910 N   0  0  0  0  0  0  0  0  0  0  0  0
  187.2760  177.8250  145.3830 N   0  0  0  0  0  2  0  0  0  0  0  0
  186.7580  177.8010  146.7490 C   0  0  0  0  0  2  0  0  0  0  0  0
  185.8100  178.9760  146.9680 C   0  0  0  0  0  2  0  0  0  0  0  0
  184.7480  178.9160  145.9660 N   0  0  0  0  0  2  0  0  0  0  0  0
  1  4  1  0  0  0  0
  2  3  1  0  0  0  0
  2  6  2  0  0  0  0
  3  5  1  0  0  0  0
  5  9  1  0  0  0  0
  5  1  2  0  0  0  0
  6 10  1  0  0  0  0
  7  9  2  0  0  0  0
  8  7  1  0  0  0  0
  8  3  2  0  0  0  0
 10  1  1  0  0  0  0
 11 15  1  0  0  0  0
 11 20  1  0  0  0  0
 12  2  1  0  0  0  0
 13 17  1  0  0  0  0
 13 16  2  0  0  0  0
 14 20  1  0  0  0  0
 14 12  2  0  0  0  0
 16 14  1  0  0  0  0
 17 11  2  0  0  0  0
 18 12  1  0  0  0  0
 19 16  1  0  0  0  0
 19 18  2  0  0  0  0
 21  6  1  0  0  0  0
 21 22  1  0  0  0  0
 22 24  1  0  0  0  0
 24 23  1  6  0  0  0
 24 25  1  0  0  0  0
 25 27  1  0  0  0  0
 26 27  1  0  0  0  0
 26 28  1  0  0  0  0
 27 31  1  0  0  0  0
 28 29  1  0  0  0  0
 29 30  1  0  0  0  0
 31 30  1  0  0  0  0
M  END
>  <MODEL>
9

>  <REMARK>
 VINA RESULT:      -7.1      2.911      4.804
  Name = 
  6 active torsions:
  status: ('A' for Active; 'I' for Inactive)
    1  A    between atoms: C_3  and  N_9
    2  A    between atoms: C_3  and  C_19
    3  A    between atoms: C_4  and  C_5
    4  A    between atoms: C_8  and  C_19
    5  A    between atoms: C_8  and  S_31
    6  A    between atoms: C_21  and  S_31
                            x       y       z     vdW  Elec       q    Type
                         _______ _______ _______ _____ _____    ______ ____

>  <TORSDO>
F 6

$$$$
