=
 OpenBabel11032419203D

 25 26  0  0  1  0  0  0  0  0999 V2000
  188.6360  177.4640  144.1930 C   0  0  2  0  0  0  0  0  0  0  0  0
  189.3690  177.6640  142.8690 C   0  0  1  0  0  3  0  0  0  0  0  0
  189.4220  176.3230  143.5850 C   0  0  0  0  0  2  0  0  0  0  0  0
  187.1210  177.2300  144.1810 C   0  0  0  0  0  2  0  0  0  0  0  0
  186.3820  178.1960  145.0970 C   0  0  0  0  0  2  0  0  0  0  0  0
  185.0780  178.2880  142.9970 C   0  0  0  0  0  1  0  0  0  0  0  0
  185.0720  178.6320  144.4710 C   0  0  0  0  0  2  0  0  0  0  0  0
  188.4600  177.5640  141.7260 N   0  0  0  0  0  2  0  0  0  0  0  0
  189.1840  177.7250  140.4630 C   0  0  2  0  0  3  0  0  0  0  0  0
  188.2310  177.8100  139.2750 C   0  0  0  0  0  2  0  0  0  0  0  0
  189.7880  177.6140  137.3310 C   0  0  0  0  0  3  0  0  0  0  0  0
  190.8350  176.9560  137.8330 C   0  0  0  0  0  3  0  0  0  0  0  0
  188.9040  178.5290  138.1210 C   0  0  1  0  0  3  0  0  0  0  0  0
  190.2300  176.6310  140.2810 C   0  0  0  0  0  2  0  0  0  0  0  0
  191.1790  176.9560  139.2220 N   0  0  0  0  0  2  0  0  0  0  0  0
  187.8880  179.0880  137.2480 N   0  0  0  0  0  2  0  0  0  0  0  0
  186.4160  177.7030  136.0100 N   0  0  0  0  0  1  0  0  0  0  0  0
  186.7300  178.2150  137.3300 C   0  0  0  0  0  2  0  0  0  0  0  0
  189.3190  178.0330  145.4380 C   0  0  0  0  0  2  0  0  0  0  0  0
  189.4700  177.0430  146.6020 C   0  0  2  0  0  3  0  0  0  0  0  0
  187.6700  177.0890  148.1640 O   0  0  0  0  0  0  0  0  0  0  0  0
  189.4370  178.4510  148.6810 O   0  0  0  0  0  1  0  0  0  0  0  0
  188.8140  177.5170  147.8600 C   0  0  0  0  0  0  0  0  0  0  0  0
  190.8850  176.6110  146.8340 C   0  0  0  0  0  3  0  0  0  0  0  0
  191.8310  177.0550  146.0920 N   0  0  0  0  0  2  0  0  0  0  0  0
  1  4  1  6  0  0  0
  1 19  1  0  0  0  0
  2  8  1  6  0  0  0
  2  3  1  0  0  0  0
  2  1  1  0  0  0  0
  3  1  1  0  0  0  0
  4  5  1  0  0  0  0
  6  7  1  0  0  0  0
  7  5  1  0  0  0  0
  9  8  1  1  0  0  0
 10  9  1  0  0  0  0
 11 12  2  0  0  0  0
 11 13  1  0  0  0  0
 12 15  1  0  0  0  0
 13 16  1  6  0  0  0
 13 10  1  0  0  0  0
 14  9  1  0  0  0  0
 15 14  1  0  0  0  0
 16 18  1  0  0  0  0
 17 18  1  0  0  0  0
 20 19  1  6  0  0  0
 20 24  1  0  0  0  0
 20 23  1  0  0  0  0
 23 21  2  0  0  0  0
 23 22  1  0  0  0  0
 25 24  2  0  0  0  0
M  END
>  <MODEL>
1

>  <REMARK>
 VINA RESULT:      -6.9      0.000      0.000
  Name = 
  11 active torsions:
  status: ('A' for Active; 'I' for Inactive)
    1  A    between atoms: C_2  and  C_4
    2  A    between atoms: C_2  and  C_24
    3  A    between atoms: C_4  and  C_19
    4  A    between atoms: C_6  and  C_10
    5  A    between atoms: C_7  and  N_14
    6  A    between atoms: C_8  and  N_14
    7  A    between atoms: C_9  and  C_10
    8  A    between atoms: C_10  and  C_19
    9  A    between atoms: N_13  and  C_17
   10  A    between atoms: N_13  and  C_25
   11  A    between atoms: C_18  and  C_24
                            x       y       z     vdW  Elec       q    Type
                         _______ _______ _______ _____ _____    ______ ____

>  <TORSDO>
F 11

$$$$
=
 OpenBabel11032419203D

 25 26  0  0  1  0  0  0  0  0999 V2000
  187.9280  177.5790  144.7430 C   0  0  2  0  0  0  0  0  0  0  0  0
  187.2700  177.9930  143.4290 C   0  0  1  0  0  3  0  0  0  0  0  0
  187.8200  176.5860  143.6060 C   0  0  0  0  0  2  0  0  0  0  0  0
  187.0440  177.2250  145.9430 C   0  0  0  0  0  2  0  0  0  0  0  0
  187.1590  178.2480  147.0650 C   0  0  0  0  0  2  0  0  0  0  0  0
  184.7310  178.3510  146.5990 C   0  0  0  0  0  1  0  0  0  0  0  0
  185.9230  179.1250  147.1170 C   0  0  0  0  0  2  0  0  0  0  0  0
  185.8100  177.9540  143.5190 N   0  0  0  0  0  2  0  0  0  0  0  0
  185.1980  178.0510  142.1910 C   0  0  2  0  0  3  0  0  0  0  0  0
  186.0980  178.7970  141.2110 C   0  0  0  0  0  2  0  0  0  0  0  0
  184.5740  179.1570  139.2640 C   0  0  0  0  0  3  0  0  0  0  0  0
  183.3560  179.1310  139.8090 C   0  0  0  0  0  3  0  0  0  0  0  0
  185.7540  178.3990  139.7880 C   0  0  1  0  0  3  0  0  0  0  0  0
  183.8040  178.6610  142.2670 C   0  0  0  0  0  2  0  0  0  0  0  0
  183.0520  178.4570  141.0350 N   0  0  0  0  0  2  0  0  0  0  0  0
  186.9020  178.6440  138.9320 N   0  0  0  0  0  2  0  0  0  0  0  0
  189.2610  178.4220  138.8550 N   0  0  0  0  0  1  0  0  0  0  0  0
  188.0850  178.2790  139.6920 C   0  0  0  0  0  2  0  0  0  0  0  0
  189.3680  178.0520  144.9570 C   0  0  0  0  0  2  0  0  0  0  0  0
  190.4070  176.9270  145.0740 C   0  0  2  0  0  3  0  0  0  0  0  0
  190.3560  177.2630  147.4330 O   0  0  0  0  0  1  0  0  0  0  0  0
  192.2510  176.2540  146.6390 O   0  0  0  0  0  0  0  0  0  0  0  0
  190.9940  176.8160  146.4460 C   0  0  0  0  0  0  0  0  0  0  0  0
  191.4620  176.9810  144.0140 C   0  0  0  0  0  3  0  0  0  0  0  0
  191.3030  177.7150  142.9740 N   0  0  0  0  0  2  0  0  0  0  0  0
  1 19  1  1  0  0  0
  1  4  1  0  0  0  0
  2  8  1  1  0  0  0
  2  3  1  0  0  0  0
  2  1  1  0  0  0  0
  3  1  1  0  0  0  0
  4  5  1  0  0  0  0
  5  7  1  0  0  0  0
  6  7  1  0  0  0  0
  9 14  1  0  0  0  0
  9  8  1  1  0  0  0
 10  9  1  0  0  0  0
 11 13  1  0  0  0  0
 11 12  2  0  0  0  0
 12 15  1  0  0  0  0
 13 16  1  6  0  0  0
 13 10  1  0  0  0  0
 15 14  1  0  0  0  0
 16 18  1  0  0  0  0
 17 18  1  0  0  0  0
 19 20  1  0  0  0  0
 20 24  1  6  0  0  0
 20 23  1  0  0  0  0
 23 22  2  0  0  0  0
 23 21  1  0  0  0  0
 25 24  2  0  0  0  0
M  END
>  <MODEL>
2

>  <REMARK>
 VINA RESULT:      -6.9      2.407      3.947
  Name = 
  11 active torsions:
  status: ('A' for Active; 'I' for Inactive)
    1  A    between atoms: C_2  and  C_4
    2  A    between atoms: C_2  and  C_24
    3  A    between atoms: C_4  and  C_19
    4  A    between atoms: C_6  and  C_10
    5  A    between atoms: C_7  and  N_14
    6  A    between atoms: C_8  and  N_14
    7  A    between atoms: C_9  and  C_10
    8  A    between atoms: C_10  and  C_19
    9  A    between atoms: N_13  and  C_17
   10  A    between atoms: N_13  and  C_25
   11  A    between atoms: C_18  and  C_24
                            x       y       z     vdW  Elec       q    Type
                         _______ _______ _______ _____ _____    ______ ____

>  <TORSDO>
F 11

$$$$
=
 OpenBabel11032419203D

 25 26  0  0  1  0  0  0  0  0999 V2000
  190.1960  177.7500  144.5820 C   0  0  2  0  0  0  0  0  0  0  0  0
  190.1980  178.2910  143.1540 C   0  0  1  0  0  3  0  0  0  0  0  0
  191.2880  178.6980  144.1340 C   0  0  0  0  0  2  0  0  0  0  0  0
  190.6990  176.3260  144.8430 C   0  0  0  0  0  2  0  0  0  0  0  0
  191.9000  176.3020  145.7770 C   0  0  0  0  0  2  0  0  0  0  0  0
  192.6830  175.6870  148.0420 C   0  0  0  0  0  1  0  0  0  0  0  0
  191.4670  176.0000  147.1980 C   0  0  0  0  0  2  0  0  0  0  0  0
  190.7420  177.3170  142.2070 N   0  0  0  0  0  2  0  0  0  0  0  0
  190.1840  177.5180  140.8670 C   0  0  2  0  0  3  0  0  0  0  0  0
  188.6590  177.4780  140.8810 C   0  0  0  0  0  2  0  0  0  0  0  0
  188.1110  177.3920  138.4450 C   0  0  0  0  0  3  0  0  0  0  0  0
  189.2020  176.8540  137.8960 C   0  0  0  0  0  3  0  0  0  0  0  0
  188.1120  178.2330  139.6840 C   0  0  1  0  0  3  0  0  0  0  0  0
  190.7740  176.5310  139.8680 C   0  0  0  0  0  2  0  0  0  0  0  0
  190.5030  176.9220  138.4900 N   0  0  0  0  0  2  0  0  0  0  0  0
  186.7560  178.6670  139.9710 N   0  0  0  0  0  2  0  0  0  0  0  0
  185.4380  179.5070  141.7540 N   0  0  0  0  0  1  0  0  0  0  0  0
  186.6390  178.7660  141.4160 C   0  0  0  0  0  2  0  0  0  0  0  0
  189.2220  178.4160  145.5570 C   0  0  0  0  0  2  0  0  0  0  0  0
  188.1180  177.4960  146.0970 C   0  0  2  0  0  3  0  0  0  0  0  0
  186.0620  178.6980  146.1920 O   0  0  0  0  0  1  0  0  0  0  0  0
  186.2450  177.2260  144.4470 O   0  0  0  0  0  0  0  0  0  0  0  0
  186.7600  177.8490  145.5780 C   0  0  0  0  0  0  0  0  0  0  0  0
  188.1340  177.3620  147.5880 C   0  0  0  0  0  3  0  0  0  0  0  0
  188.7560  178.2170  148.3110 N   0  0  0  0  0  2  0  0  0  0  0  0
  1  4  1  1  0  0  0
  1 19  1  0  0  0  0
  2  8  1  6  0  0  0
  2  3  1  0  0  0  0
  2  1  1  0  0  0  0
  3  1  1  0  0  0  0
  4  5  1  0  0  0  0
  5  7  1  0  0  0  0
  7  6  1  0  0  0  0
  9 10  1  0  0  0  0
  9  8  1  1  0  0  0
 11 13  1  0  0  0  0
 12 11  2  0  0  0  0
 12 15  1  0  0  0  0
 13 16  1  1  0  0  0
 13 10  1  0  0  0  0
 14  9  1  0  0  0  0
 15 14  1  0  0  0  0
 16 18  1  0  0  0  0
 18 17  1  0  0  0  0
 20 19  1  1  0  0  0
 20 24  1  0  0  0  0
 22 23  2  0  0  0  0
 23 20  1  0  0  0  0
 23 21  1  0  0  0  0
 24 25  2  0  0  0  0
M  END
>  <MODEL>
3

>  <REMARK>
 VINA RESULT:      -6.9      2.092      3.828
  Name = 
  11 active torsions:
  status: ('A' for Active; 'I' for Inactive)
    1  A    between atoms: C_2  and  C_4
    2  A    between atoms: C_2  and  C_24
    3  A    between atoms: C_4  and  C_19
    4  A    between atoms: C_6  and  C_10
    5  A    between atoms: C_7  and  N_14
    6  A    between atoms: C_8  and  N_14
    7  A    between atoms: C_9  and  C_10
    8  A    between atoms: C_10  and  C_19
    9  A    between atoms: N_13  and  C_17
   10  A    between atoms: N_13  and  C_25
   11  A    between atoms: C_18  and  C_24
                            x       y       z     vdW  Elec       q    Type
                         _______ _______ _______ _____ _____    ______ ____

>  <TORSDO>
F 11

$$$$
=
 OpenBabel11032419203D

 25 26  0  0  1  0  0  0  0  0999 V2000
  190.1460  177.7710  144.5690 C   0  0  2  0  0  0  0  0  0  0  0  0
  189.7880  178.0010  143.1020 C   0  0  1  0  0  3  0  0  0  0  0  0
  190.8640  178.8400  143.7740 C   0  0  0  0  0  2  0  0  0  0  0  0
  191.0440  176.5870  144.9420 C   0  0  0  0  0  2  0  0  0  0  0  0
  191.7960  176.8240  146.2450 C   0  0  0  0  0  2  0  0  0  0  0  0
  192.7340  175.7540  148.2690 C   0  0  0  0  0  1  0  0  0  0  0  0
  192.2030  175.5050  146.8740 C   0  0  0  0  0  2  0  0  0  0  0  0
  190.4230  177.0130  142.2290 N   0  0  0  0  0  2  0  0  0  0  0  0
  189.8590  177.0650  140.8780 C   0  0  2  0  0  3  0  0  0  0  0  0
  190.9510  177.1050  139.8140 C   0  0  0  0  0  2  0  0  0  0  0  0
  189.6550  177.6430  137.7460 C   0  0  0  0  0  3  0  0  0  0  0  0
  188.5730  178.2720  138.2090 C   0  0  0  0  0  3  0  0  0  0  0  0
  190.4070  176.5860  138.4960 C   0  0  1  0  0  3  0  0  0  0  0  0
  188.8750  178.2210  140.7330 C   0  0  0  0  0  2  0  0  0  0  0  0
  188.0580  178.0930  139.5330 N   0  0  0  0  0  2  0  0  0  0  0  0
  191.5080  176.1100  137.6780 N   0  0  0  0  0  2  0  0  0  0  0  0
  193.7890  176.6600  137.3380 N   0  0  0  0  0  1  0  0  0  0  0  0
  192.7360  176.5360  138.3280 C   0  0  0  0  0  2  0  0  0  0  0  0
  189.1880  178.3700  145.6010 C   0  0  0  0  0  2  0  0  0  0  0  0
  188.1690  177.3810  146.1860 C   0  0  2  0  0  3  0  0  0  0  0  0
  185.9970  178.2080  146.7140 O   0  0  0  0  0  1  0  0  0  0  0  0
  186.2600  177.4830  144.5590 O   0  0  0  0  0  0  0  0  0  0  0  0
  186.7550  177.7240  145.8350 C   0  0  0  0  0  0  0  0  0  0  0  0
  188.3430  177.1500  147.6550 C   0  0  0  0  0  3  0  0  0  0  0  0
  188.9940  177.9880  148.3730 N   0  0  0  0  0  2  0  0  0  0  0  0
  1  4  1  1  0  0  0
  1 19  1  0  0  0  0
  2  8  1  6  0  0  0
  2  3  1  0  0  0  0
  2  1  1  0  0  0  0
  3  1  1  0  0  0  0
  4  5  1  0  0  0  0
  5  7  1  0  0  0  0
  7  6  1  0  0  0  0
  9  8  1  1  0  0  0
 10  9  1  0  0  0  0
 11 12  2  0  0  0  0
 11 13  1  0  0  0  0
 12 15  1  0  0  0  0
 13 16  1  6  0  0  0
 13 10  1  0  0  0  0
 14  9  1  0  0  0  0
 15 14  1  0  0  0  0
 16 18  1  0  0  0  0
 17 18  1  0  0  0  0
 20 19  1  1  0  0  0
 20 24  1  0  0  0  0
 22 23  2  0  0  0  0
 23 20  1  0  0  0  0
 23 21  1  0  0  0  0
 24 25  2  0  0  0  0
M  END
>  <MODEL>
4

>  <REMARK>
 VINA RESULT:      -6.8      2.035      4.232
  Name = 
  11 active torsions:
  status: ('A' for Active; 'I' for Inactive)
    1  A    between atoms: C_2  and  C_4
    2  A    between atoms: C_2  and  C_24
    3  A    between atoms: C_4  and  C_19
    4  A    between atoms: C_6  and  C_10
    5  A    between atoms: C_7  and  N_14
    6  A    between atoms: C_8  and  N_14
    7  A    between atoms: C_9  and  C_10
    8  A    between atoms: C_10  and  C_19
    9  A    between atoms: N_13  and  C_17
   10  A    between atoms: N_13  and  C_25
   11  A    between atoms: C_18  and  C_24
                            x       y       z     vdW  Elec       q    Type
                         _______ _______ _______ _____ _____    ______ ____

>  <TORSDO>
F 11

$$$$
=
 OpenBabel11032419203D

 25 26  0  0  1  0  0  0  0  0999 V2000
  188.4690  177.5550  144.4360 C   0  0  2  0  0  0  0  0  0  0  0  0
  188.9540  177.7640  143.0030 C   0  0  1  0  0  3  0  0  0  0  0  0
  189.0140  176.3860  143.6450 C   0  0  0  0  0  2  0  0  0  0  0  0
  186.9640  177.4540  144.7080 C   0  0  0  0  0  2  0  0  0  0  0  0
  186.4370  178.6550  145.4810 C   0  0  0  0  0  2  0  0  0  0  0  0
  183.9790  178.8650  145.2940 C   0  0  0  0  0  1  0  0  0  0  0  0
  185.1110  178.3270  146.1400 C   0  0  0  0  0  2  0  0  0  0  0  0
  187.8400  177.8050  142.0550 N   0  0  0  0  0  2  0  0  0  0  0  0
  188.2950  177.5030  140.6950 C   0  0  2  0  0  3  0  0  0  0  0  0
  189.7740  177.8280  140.5120 C   0  0  0  0  0  2  0  0  0  0  0  0
  190.0560  177.6300  138.0370 C   0  0  0  0  0  3  0  0  0  0  0  0
  188.8310  177.8620  137.5620 C   0  0  0  0  0  3  0  0  0  0  0  0
  190.3450  177.0090  139.3690 C   0  0  1  0  0  3  0  0  0  0  0  0
  187.4230  178.1920  139.6530 C   0  0  0  0  0  2  0  0  0  0  0  0
  187.6340  177.6460  138.3180 N   0  0  0  0  0  2  0  0  0  0  0  0
  191.7820  176.8880  139.5400 N   0  0  0  0  0  2  0  0  0  0  0  0
  193.7610  176.2760  138.3870 N   0  0  0  0  0  1  0  0  0  0  0  0
  192.3300  176.4740  138.2600 C   0  0  0  0  0  2  0  0  0  0  0  0
  189.4260  177.9940  145.5450 C   0  0  0  0  0  2  0  0  0  0  0  0
  189.5390  177.0180  146.7250 C   0  0  2  0  0  3  0  0  0  0  0  0
  189.3980  178.4570  148.6200 O   0  0  0  0  0  1  0  0  0  0  0  0
  187.6890  176.9450  148.4210 O   0  0  0  0  0  0  0  0  0  0  0  0
  188.8700  177.5210  147.9650 C   0  0  0  0  0  0  0  0  0  0  0  0
  190.9420  176.5650  146.9880 C   0  0  0  0  0  3  0  0  0  0  0  0
  191.8710  176.7970  146.1360 N   0  0  0  0  0  2  0  0  0  0  0  0
  1  4  1  1  0  0  0
  1 19  1  0  0  0  0
  2  8  1  6  0  0  0
  2  3  1  0  0  0  0
  2  1  1  0  0  0  0
  3  1  1  0  0  0  0
  4  5  1  0  0  0  0
  5  7  1  0  0  0  0
  6  7  1  0  0  0  0
  9  8  1  1  0  0  0
 10  9  1  0  0  0  0
 11 13  1  0  0  0  0
 12 11  2  0  0  0  0
 12 15  1  0  0  0  0
 13 16  1  1  0  0  0
 13 10  1  0  0  0  0
 14  9  1  0  0  0  0
 15 14  1  0  0  0  0
 18 17  1  0  0  0  0
 18 16  1  0  0  0  0
 20 19  1  6  0  0  0
 20 24  1  0  0  0  0
 20 23  1  0  0  0  0
 23 22  2  0  0  0  0
 23 21  1  0  0  0  0
 25 24  2  0  0  0  0
M  END
>  <MODEL>
5

>  <REMARK>
 VINA RESULT:      -6.8      1.107      2.720
  Name = 
  11 active torsions:
  status: ('A' for Active; 'I' for Inactive)
    1  A    between atoms: C_2  and  C_4
    2  A    between atoms: C_2  and  C_24
    3  A    between atoms: C_4  and  C_19
    4  A    between atoms: C_6  and  C_10
    5  A    between atoms: C_7  and  N_14
    6  A    between atoms: C_8  and  N_14
    7  A    between atoms: C_9  and  C_10
    8  A    between atoms: C_10  and  C_19
    9  A    between atoms: N_13  and  C_17
   10  A    between atoms: N_13  and  C_25
   11  A    between atoms: C_18  and  C_24
                            x       y       z     vdW  Elec       q    Type
                         _______ _______ _______ _____ _____    ______ ____

>  <TORSDO>
F 11

$$$$
=
 OpenBabel11032419203D

 25 26  0  0  1  0  0  0  0  0999 V2000
  188.0300  177.7800  144.4250 C   0  0  2  0  0  0  0  0  0  0  0  0
  186.7320  178.0470  143.6660 C   0  0  1  0  0  3  0  0  0  0  0  0
  187.2450  176.6260  143.8400 C   0  0  0  0  0  2  0  0  0  0  0  0
  188.0170  177.8050  145.9580 C   0  0  0  0  0  2  0  0  0  0  0  0
  189.2320  177.1090  146.5550 C   0  0  0  0  0  2  0  0  0  0  0  0
  188.2770  177.9600  148.6720 C   0  0  0  0  0  1  0  0  0  0  0  0
  189.5600  177.6820  147.9200 C   0  0  0  0  0  2  0  0  0  0  0  0
  185.6080  178.2680  144.5750 N   0  0  0  0  0  2  0  0  0  0  0  0
  184.3320  178.2200  143.8560 C   0  0  2  0  0  3  0  0  0  0  0  0
  184.4850  178.6810  142.4100 C   0  0  0  0  0  2  0  0  0  0  0  0
  182.1080  178.9000  141.6710 C   0  0  0  0  0  3  0  0  0  0  0  0
  181.4440  179.1120  142.8100 C   0  0  0  0  0  3  0  0  0  0  0  0
  183.3690  178.1000  141.5620 C   0  0  1  0  0  3  0  0  0  0  0  0
  183.2510  179.0000  144.5950 C   0  0  0  0  0  2  0  0  0  0  0  0
  181.9170  178.6900  144.0930 N   0  0  0  0  0  2  0  0  0  0  0  0
  183.7940  178.0600  140.1740 N   0  0  0  0  0  2  0  0  0  0  0  0
  184.4630  180.0690  139.1080 N   0  0  0  0  0  1  0  0  0  0  0  0
  184.8690  179.0270  140.0310 C   0  0  0  0  0  2  0  0  0  0  0  0
  189.3290  178.0390  143.6590 C   0  0  0  0  0  2  0  0  0  0  0  0
  189.8820  176.8270  142.8960 C   0  0  2  0  0  3  0  0  0  0  0  0
  192.2050  177.1170  142.4510 O   0  0  0  0  0  0  0  0  0  0  0  0
  191.7210  175.7200  144.1990 O   0  0  0  0  0  1  0  0  0  0  0  0
  191.3300  176.5740  143.1740 C   0  0  0  0  0  0  0  0  0  0  0  0
  189.5890  176.8660  141.4280 C   0  0  0  0  0  3  0  0  0  0  0  0
  189.0710  177.9100  140.8960 N   0  0  0  0  0  2  0  0  0  0  0  0
  1 19  1  6  0  0  0
  1  4  1  0  0  0  0
  2  3  1  0  0  0  0
  2  1  1  0  0  0  0
  2  8  1  1  0  0  0
  3  1  1  0  0  0  0
  4  5  1  0  0  0  0
  5  7  1  0  0  0  0
  7  6  1  0  0  0  0
  9  8  1  1  0  0  0
  9 14  1  0  0  0  0
 10  9  1  0  0  0  0
 11 12  2  0  0  0  0
 12 15  1  0  0  0  0
 13 16  1  6  0  0  0
 13 11  1  0  0  0  0
 13 10  1  0  0  0  0
 15 14  1  0  0  0  0
 17 18  1  0  0  0  0
 18 16  1  0  0  0  0
 20 24  1  6  0  0  0
 20 23  1  0  0  0  0
 20 19  1  0  0  0  0
 21 23  2  0  0  0  0
 23 22  1  0  0  0  0
 25 24  2  0  0  0  0
M  END
>  <MODEL>
6

>  <REMARK>
 VINA RESULT:      -6.8      3.144      5.871
  Name = 
  11 active torsions:
  status: ('A' for Active; 'I' for Inactive)
    1  A    between atoms: C_2  and  C_4
    2  A    between atoms: C_2  and  C_24
    3  A    between atoms: C_4  and  C_19
    4  A    between atoms: C_6  and  C_10
    5  A    between atoms: C_7  and  N_14
    6  A    between atoms: C_8  and  N_14
    7  A    between atoms: C_9  and  C_10
    8  A    between atoms: C_10  and  C_19
    9  A    between atoms: N_13  and  C_17
   10  A    between atoms: N_13  and  C_25
   11  A    between atoms: C_18  and  C_24
                            x       y       z     vdW  Elec       q    Type
                         _______ _______ _______ _____ _____    ______ ____

>  <TORSDO>
F 11

$$$$
=
 OpenBabel11032419203D

 25 26  0  0  1  0  0  0  0  0999 V2000
  187.7480  177.5420  144.5970 C   0  0  2  0  0  0  0  0  0  0  0  0
  187.0610  177.9650  143.3010 C   0  0  1  0  0  3  0  0  0  0  0  0
  187.6570  176.5720  143.4390 C   0  0  0  0  0  2  0  0  0  0  0  0
  186.8880  177.1340  145.7990 C   0  0  0  0  0  2  0  0  0  0  0  0
  187.0100  178.1180  146.9550 C   0  0  0  0  0  2  0  0  0  0  0  0
  184.5810  178.3810  146.5690 C   0  0  0  0  0  1  0  0  0  0  0  0
  185.8570  179.1020  146.9430 C   0  0  0  0  0  2  0  0  0  0  0  0
  185.6040  177.8780  143.4060 N   0  0  0  0  0  2  0  0  0  0  0  0
  184.9540  178.5730  142.2920 C   0  0  2  0  0  3  0  0  0  0  0  0
  183.5660  178.0060  142.0100 C   0  0  0  0  0  2  0  0  0  0  0  0
  182.9860  179.0850  139.8320 C   0  0  0  0  0  3  0  0  0  0  0  0
  184.1760  179.3540  139.2890 C   0  0  0  0  0  3  0  0  0  0  0  0
  182.7160  179.0470  141.3050 C   0  0  1  0  0  3  0  0  0  0  0  0
  185.8360  178.5730  141.0490 C   0  0  0  0  0  2  0  0  0  0  0  0
  185.3740  179.5310  140.0530 N   0  0  0  0  0  2  0  0  0  0  0  0
  181.3130  178.7500  141.5280 N   0  0  0  0  0  2  0  0  0  0  0  0
  180.1260  180.4860  142.6220 N   0  0  0  0  0  1  0  0  0  0  0  0
  180.9580  179.3140  142.8190 C   0  0  0  0  0  2  0  0  0  0  0  0
  189.1740  178.0550  144.8070 C   0  0  0  0  0  2  0  0  0  0  0  0
  190.2400  176.9590  144.9470 C   0  0  2  0  0  3  0  0  0  0  0  0
  189.9790  176.7200  147.3040 O   0  0  0  0  0  1  0  0  0  0  0  0
  192.1440  176.9010  146.5830 O   0  0  0  0  0  0  0  0  0  0  0  0
  190.7770  176.8420  146.3390 C   0  0  0  0  0  0  0  0  0  0  0  0
  191.3350  177.0620  143.9300 C   0  0  0  0  0  3  0  0  0  0  0  0
  191.6590  178.2000  143.4360 N   0  0  0  0  0  2  0  0  0  0  0  0
  1 19  1  1  0  0  0
  1  4  1  0  0  0  0
  2  8  1  1  0  0  0
  2  3  1  0  0  0  0
  2  1  1  0  0  0  0
  3  1  1  0  0  0  0
  4  5  1  0  0  0  0
  6  7  1  0  0  0  0
  7  5  1  0  0  0  0
  9  8  1  1  0  0  0
 10  9  1  0  0  0  0
 11 13  1  0  0  0  0
 12 11  2  0  0  0  0
 12 15  1  0  0  0  0
 13 16  1  6  0  0  0
 13 10  1  0  0  0  0
 14  9  1  0  0  0  0
 15 14  1  0  0  0  0
 16 18  1  0  0  0  0
 17 18  1  0  0  0  0
 19 20  1  0  0  0  0
 20 24  1  6  0  0  0
 20 23  1  0  0  0  0
 23 22  2  0  0  0  0
 23 21  1  0  0  0  0
 25 24  2  0  0  0  0
M  END
>  <MODEL>
7

>  <REMARK>
 VINA RESULT:      -6.7      3.299      4.834
  Name = 
  11 active torsions:
  status: ('A' for Active; 'I' for Inactive)
    1  A    between atoms: C_2  and  C_4
    2  A    between atoms: C_2  and  C_24
    3  A    between atoms: C_4  and  C_19
    4  A    between atoms: C_6  and  C_10
    5  A    between atoms: C_7  and  N_14
    6  A    between atoms: C_8  and  N_14
    7  A    between atoms: C_9  and  C_10
    8  A    between atoms: C_10  and  C_19
    9  A    between atoms: N_13  and  C_17
   10  A    between atoms: N_13  and  C_25
   11  A    between atoms: C_18  and  C_24
                            x       y       z     vdW  Elec       q    Type
                         _______ _______ _______ _____ _____    ______ ____

>  <TORSDO>
F 11

$$$$
=
 OpenBabel11032419203D

 25 26  0  0  1  0  0  0  0  0999 V2000
  189.8210  177.6410  142.9870 C   0  0  2  0  0  0  0  0  0  0  0  0
  188.3000  177.5400  143.0680 C   0  0  1  0  0  3  0  0  0  0  0  0
  189.1550  176.2820  143.0340 C   0  0  0  0  0  2  0  0  0  0  0  0
  190.6170  177.9690  144.2560 C   0  0  0  0  0  2  0  0  0  0  0  0
  191.2260  176.7270  144.8910 C   0  0  0  0  0  2  0  0  0  0  0  0
  192.0520  175.9930  147.1040 C   0  0  0  0  0  1  0  0  0  0  0  0
  190.9180  176.6800  146.3750 C   0  0  0  0  0  2  0  0  0  0  0  0
  187.8150  177.7550  144.4320 N   0  0  0  0  0  2  0  0  0  0  0  0
  186.3570  177.8960  144.4550 C   0  0  2  0  0  3  0  0  0  0  0  0
  185.8340  178.5440  143.1770 C   0  0  0  0  0  2  0  0  0  0  0  0
  183.4540  179.0270  143.7640 C   0  0  0  0  0  3  0  0  0  0  0  0
  183.4720  179.1210  145.0950 C   0  0  0  0  0  3  0  0  0  0  0  0
  184.3800  178.1660  142.9620 C   0  0  1  0  0  3  0  0  0  0  0  0
  185.8920  178.6350  145.7040 C   0  0  0  0  0  2  0  0  0  0  0  0
  184.4570  178.4910  145.9200 N   0  0  0  0  0  2  0  0  0  0  0  0
  184.0560  178.2940  141.5530 N   0  0  0  0  0  2  0  0  0  0  0  0
  184.6720  179.7530  139.7890 N   0  0  0  0  0  1  0  0  0  0  0  0
  185.1630  178.9940  140.9240 C   0  0  0  0  0  2  0  0  0  0  0  0
  190.4080  177.9460  141.6070 C   0  0  0  0  0  2  0  0  0  0  0  0
  189.8500  177.0870  140.4640 C   0  0  2  0  0  3  0  0  0  0  0  0
  190.6640  175.6040  138.7850 O   0  0  0  0  0  0  0  0  0  0  0  0
  192.1890  177.1310  139.5510 O   0  0  0  0  0  1  0  0  0  0  0  0
  190.9150  176.5730  139.5470 C   0  0  0  0  0  0  0  0  0  0  0  0
  188.7350  177.7480  139.7140 C   0  0  0  0  0  3  0  0  0  0  0  0
  188.9290  178.8570  139.1030 N   0  0  0  0  0  2  0  0  0  0  0  0
  1 19  1  6  0  0  0
  1  3  1  0  0  0  0
  1  2  1  0  0  0  0
  1  4  1  0  0  0  0
  2  8  1  1  0  0  0
  3  2  1  0  0  0  0
  4  5  1  0  0  0  0
  5  7  1  0  0  0  0
  7  6  1  0  0  0  0
  9  8  1  6  0  0  0
  9 14  1  0  0  0  0
 10  9  1  0  0  0  0
 11 12  2  0  0  0  0
 12 15  1  0  0  0  0
 13 16  1  6  0  0  0
 13 10  1  0  0  0  0
 13 11  1  0  0  0  0
 14 15  1  0  0  0  0
 17 18  1  0  0  0  0
 18 16  1  0  0  0  0
 20 24  1  6  0  0  0
 20 19  1  0  0  0  0
 21 23  2  0  0  0  0
 23 22  1  0  0  0  0
 23 20  1  0  0  0  0
 25 24  2  0  0  0  0
M  END
>  <MODEL>
8

>  <REMARK>
 VINA RESULT:      -6.7      3.493      6.636
  Name = 
  11 active torsions:
  status: ('A' for Active; 'I' for Inactive)
    1  A    between atoms: C_2  and  C_4
    2  A    between atoms: C_2  and  C_24
    3  A    between atoms: C_4  and  C_19
    4  A    between atoms: C_6  and  C_10
    5  A    between atoms: C_7  and  N_14
    6  A    between atoms: C_8  and  N_14
    7  A    between atoms: C_9  and  C_10
    8  A    between atoms: C_10  and  C_19
    9  A    between atoms: N_13  and  C_17
   10  A    between atoms: N_13  and  C_25
   11  A    between atoms: C_18  and  C_24
                            x       y       z     vdW  Elec       q    Type
                         _______ _______ _______ _____ _____    ______ ____

>  <TORSDO>
F 11

$$$$
=
 OpenBabel11032419203D

 25 26  0  0  1  0  0  0  0  0999 V2000
  187.6530  177.4940  144.7560 C   0  0  2  0  0  0  0  0  0  0  0  0
  188.5220  177.3540  143.5080 C   0  0  1  0  0  3  0  0  0  0  0  0
  187.3720  176.3900  143.7590 C   0  0  0  0  0  2  0  0  0  0  0  0
  186.5620  178.5700  144.7900 C   0  0  0  0  0  2  0  0  0  0  0  0
  185.5450  178.3240  145.8960 C   0  0  0  0  0  2  0  0  0  0  0  0
  184.1580  178.9060  143.9320 C   0  0  0  0  0  1  0  0  0  0  0  0
  184.1490  178.6890  145.4300 C   0  0  0  0  0  2  0  0  0  0  0  0
  188.1330  178.3070  142.4680 N   0  0  0  0  0  2  0  0  0  0  0  0
  189.0170  178.2040  141.3040 C   0  0  2  0  0  3  0  0  0  0  0  0
  188.2250  178.1070  140.0040 C   0  0  0  0  0  2  0  0  0  0  0  0
  189.9950  177.4970  138.3500 C   0  0  0  0  0  3  0  0  0  0  0  0
  190.9280  176.9000  139.0950 C   0  0  0  0  0  3  0  0  0  0  0  0
  189.0800  178.5750  138.8410 C   0  0  1  0  0  3  0  0  0  0  0  0
  190.0060  177.0550  141.4590 C   0  0  0  0  0  2  0  0  0  0  0  0
  191.0970  177.1420  140.4960 N   0  0  0  0  0  2  0  0  0  0  0  0
  188.2170  179.0040  137.7550 N   0  0  0  0  0  2  0  0  0  0  0  0
  186.9090  177.4340  136.5530 N   0  0  0  0  0  1  0  0  0  0  0  0
  187.0300  178.1680  137.7990 C   0  0  0  0  0  2  0  0  0  0  0  0
  188.2460  176.9540  146.0590 C   0  0  0  0  0  2  0  0  0  0  0  0
  189.3910  177.7930  146.6440 C   0  0  2  0  0  3  0  0  0  0  0  0
  191.4160  177.3820  145.4560 O   0  0  0  0  0  0  0  0  0  0  0  0
  191.2120  176.2600  147.4410 O   0  0  0  0  0  1  0  0  0  0  0  0
  190.7310  177.1450  146.4840 C   0  0  0  0  0  0  0  0  0  0  0  0
  189.1440  178.2330  148.0540 C   0  0  0  0  0  3  0  0  0  0  0  0
  188.1220  177.8050  148.6990 N   0  0  0  0  0  2  0  0  0  0  0  0
  1  4  1  1  0  0  0
  1 19  1  0  0  0  0
  2  8  1  6  0  0  0
  2  3  1  0  0  0  0
  2  1  1  0  0  0  0
  3  1  1  0  0  0  0
  4  5  1  0  0  0  0
  6  7  1  0  0  0  0
  7  5  1  0  0  0  0
  9 14  1  0  0  0  0
  9  8  1  1  0  0  0
 10  9  1  0  0  0  0
 11 13  1  0  0  0  0
 11 12  2  0  0  0  0
 12 15  1  0  0  0  0
 13 16  1  6  0  0  0
 13 10  1  0  0  0  0
 15 14  1  0  0  0  0
 16 18  1  0  0  0  0
 17 18  1  0  0  0  0
 20 19  1  1  0  0  0
 20 24  1  0  0  0  0
 21 23  2  0  0  0  0
 23 20  1  0  0  0  0
 23 22  1  0  0  0  0
 24 25  2  0  0  0  0
M  END
>  <MODEL>
9

>  <REMARK>
 VINA RESULT:      -6.6      1.635      1.931
  Name = 
  11 active torsions:
  status: ('A' for Active; 'I' for Inactive)
    1  A    between atoms: C_2  and  C_4
    2  A    between atoms: C_2  and  C_24
    3  A    between atoms: C_4  and  C_19
    4  A    between atoms: C_6  and  C_10
    5  A    between atoms: C_7  and  N_14
    6  A    between atoms: C_8  and  N_14
    7  A    between atoms: C_9  and  C_10
    8  A    between atoms: C_10  and  C_19
    9  A    between atoms: N_13  and  C_17
   10  A    between atoms: N_13  and  C_25
   11  A    between atoms: C_18  and  C_24
                            x       y       z     vdW  Elec       q    Type
                         _______ _______ _______ _____ _____    ______ ____

>  <TORSDO>
F 11

$$$$
