=
 OpenBabel11032421013D

 46 48  0  0  1  0  0  0  0  0999 V2000
  188.7520  175.1870  143.1600 F   0  0  0  0  0  0  0  0  0  0  0  0
  188.3460  176.4760  143.0040 C   0  0  0  0  0  0  0  0  0  0  0  0
  187.1090  176.8100  143.3860 C   0  0  0  0  0  3  0  0  0  0  0  0
  189.7850  178.4050  143.5830 C   0  0  0  0  0  2  0  0  0  0  0  0
  190.5450  176.8240  141.8930 C   0  0  2  0  0  3  0  0  0  0  0  0
  189.3080  177.4960  142.4690 C   0  0  1  0  0  3  0  0  0  0  0  0
  191.2140  178.7410  143.2330 C   0  0  1  0  0  3  0  0  0  0  0  0
  192.0200  178.9730  144.4940 C   0  0  0  0  0  1  0  0  0  0  0  0
  191.7490  177.5350  142.4870 C   0  0  0  0  0  2  0  0  0  0  0  0
  190.5670  176.9680  140.3810 C   0  0  0  0  0  2  0  0  0  0  0  0
  191.8570  177.2740  139.9370 O   0  0  0  0  0  0  0  0  0  0  0  0
  193.2730  176.6150  138.2800 O   0  0  0  0  0  1  0  0  0  0  0  0
  191.9350  176.7260  138.6550 C   0  0  1  0  0  3  0  0  0  0  0  0
  191.3160  175.4070  138.6390 N   0  0  0  0  0  2  0  0  0  0  0  0
  191.7520  174.7250  137.4280 C   0  0  0  0  0  2  0  0  0  0  0  0
  190.7840  174.2380  135.3080 O   0  0  0  0  0  0  0  0  0  0  0  0
  189.2630  174.5500  137.0490 N   0  0  0  0  0  2  0  0  0  0  0  0
  190.5900  174.4810  136.5280 C   0  0  0  0  0  0  0  0  0  0  0  0
  188.1790  174.3260  136.2650 O   0  0  0  0  0  0  0  0  0  0  0  0
  186.8040  176.3990  135.4210 O   0  0  0  0  0  0  0  0  0  0  0  0
  187.0820  175.5620  136.6490 P   0  0  1  0  0  0  0  0  0  0  0  0
  185.6380  174.8880  137.2160 O   0  0  0  0  0  1  0  0  0  0  0  0
  187.7680  176.5550  137.8760 O   0  0  0  0  0  0  0  0  0  0  0  0
  187.8600  177.9460  137.7710 C   0  0  0  0  0  0  0  0  0  0  0  0
  186.9110  178.6560  138.1970 O   0  0  0  0  0  0  0  0  0  0  0  0
  189.0480  178.6210  137.1710 C   0  0  0  0  0  1  0  0  0  0  0  0
  186.5690  178.2030  143.2700 C   0  0  0  0  0  2  0  0  0  0  0  0
  184.0910  178.4680  143.0030 C   0  0  0  0  0  0  0  0  0  0  0  0
  184.2340  178.3920  141.5800 N   0  0  0  0  0  2  0  0  0  0  0  0
  182.9630  178.7210  143.5120 O   0  0  0  0  0  0  0  0  0  0  0  0
  185.2340  178.2660  143.8490 N   0  0  0  0  0  0  0  0  0  0  0  0
  181.1840  177.4860  139.5690 C   0  0  2  0  0  3  0  0  0  0  0  0
  182.5440  177.3950  140.1400 C   0  0  1  0  0  3  0  0  0  0  0  0
  182.3730  177.5290  138.6730 N   0  0  2  0  0  0  0  0  0  0  0  0
  183.1450  178.6930  140.6650 C   0  0  2  0  0  3  0  0  0  0  0  0
  183.6760  179.4000  139.4500 C   0  0  0  0  0  2  0  0  0  0  0  0
  182.8130  178.8840  138.3280 C   0  0  0  0  0  2  0  0  0  0  0  0
  180.0220  178.9330  141.0900 O   0  0  0  0  0  1  0  0  0  0  0  0
  179.2370  178.8750  138.8520 C   0  0  0  0  0  1  0  0  0  0  0  0
  180.4460  178.8240  139.7660 C   0  0  2  0  0  3  0  0  0  0  0  0
  185.1030  178.2930  145.3020 C   0  0  0  0  0  2  0  0  0  0  0  0
  186.4400  178.6280  145.9520 C   0  0  0  0  0  2  0  0  0  0  0  0
  186.9200  177.5340  146.7270 O   0  0  0  0  0  0  0  0  0  0  0  0
  189.2100  177.0090  146.7340 C   0  0  0  0  0  2  0  0  0  0  0  0
  188.3610  178.1260  148.7150 C   0  0  0  0  0  1  0  0  0  0  0  0
  188.1690  177.5390  147.3570 C   0  0  0  0  0  0  0  0  0  0  0  0
  2  1  1  0  0  0  0
  2  3  2  0  0  0  0
  5 10  1  6  0  0  0
  5  6  1  0  0  0  0
  5  9  1  0  0  0  0
  6  2  1  1  0  0  0
  6  4  1  0  0  0  0
  7  4  1  0  0  0  0
  7  8  1  1  0  0  0
  9  7  1  0  0  0  0
 11 10  1  0  0  0  0
 13 12  1  1  0  0  0
 13 11  1  0  0  0  0
 14 13  1  0  0  0  0
 15 14  1  0  0  0  0
 16 18  2  0  0  0  0
 18 17  1  0  0  0  0
 18 15  1  0  0  0  0
 19 21  1  0  0  0  0
 19 17  1  0  0  0  0
 21 20  2  6  0  0  0
 21 22  1  0  0  0  0
 21 23  1  0  0  0  0
 24 23  1  0  0  0  0
 24 25  2  0  0  0  0
 26 24  1  0  0  0  0
 27  3  1  0  0  0  0
 27 31  1  0  0  0  0
 28 30  2  0  0  0  0
 28 31  1  0  0  0  0
 29 28  1  0  0  0  0
 31 41  1  0  0  0  0
 32 40  1  1  0  0  0
 32 33  1  0  0  0  0
 33 35  1  0  0  0  0
 34 32  1  0  0  0  0
 34 33  1  0  0  0  0
 35 29  1  0  0  0  0
 36 35  1  0  0  0  0
 37 34  1  0  0  0  0
 37 36  1  0  0  0  0
 39 40  1  0  0  0  0
 40 38  1  0  0  0  0
 41 42  1  0  0  0  0
 42 43  1  0  0  0  0
 43 46  1  0  0  0  0
 44 46  2  0  0  0  0
 46 45  1  0  0  0  0
M  END
>  <MODEL>
1

>  <REMARK>
 VINA RESULT:      -7.1      0.000      0.000
  Name = 
  19 active torsions:
  status: ('A' for Active; 'I' for Inactive)
    1  A    between atoms: C_2  and  C_7
    2  A    between atoms: C_2  and  N_24
    3  A    between atoms: C_6  and  C_23
    4  A    between atoms: C_6  and  N_43
    5  A    between atoms: C_7  and  O_8
    6  A    between atoms: O_8  and  C_45
    7  A    between atoms: C_10  and  O_30
    8  A    between atoms: C_11  and  C_36
    9  A    between atoms: N_13  and  C_37
   10  A    between atoms: C_14  and  C_34
   11  A    between atoms: O_15  and  C_34
   12  A    between atoms: O_15  and  C_46
   13  A    between atoms: C_18  and  C_27
   14  A    between atoms: C_21  and  C_26
   15  A    between atoms: N_22  and  O_31
   16  A    between atoms: N_24  and  C_26
   17  A    between atoms: O_30  and  P_38
   18  A    between atoms: O_31  and  P_38
   19  A    between atoms: N_43  and  C_46
                            x       y       z     vdW  Elec       q    Type
                         _______ _______ _______ _____ _____    ______ ____

>  <TORSDO>
F 19

$$$$
=
 OpenBabel11032421013D

 46 48  0  0  1  0  0  0  0  0999 V2000
  188.3060  175.3650  143.2140 F   0  0  0  0  0  0  0  0  0  0  0  0
  187.9390  176.6730  143.1380 C   0  0  0  0  0  0  0  0  0  0  0  0
  186.7230  177.0250  143.5660 C   0  0  0  0  0  3  0  0  0  0  0  0
  189.6930  178.2920  143.7940 C   0  0  0  0  0  2  0  0  0  0  0  0
  189.9490  177.0430  141.7180 C   0  0  2  0  0  3  0  0  0  0  0  0
  188.9230  177.6900  142.6370 C   0  0  1  0  0  3  0  0  0  0  0  0
  191.0750  178.5610  143.2500 C   0  0  1  0  0  3  0  0  0  0  0  0
  192.1020  178.4440  144.3560 C   0  0  0  0  0  1  0  0  0  0  0  0
  191.3170  177.4960  142.1990 C   0  0  0  0  0  2  0  0  0  0  0  0
  189.7380  177.5030  140.2860 C   0  0  0  0  0  2  0  0  0  0  0  0
  188.6600  178.3910  140.2120 O   0  0  0  0  0  0  0  0  0  0  0  0
  188.9850  179.1790  138.1000 O   0  0  0  0  0  1  0  0  0  0  0  0
  188.2240  178.3160  138.8870 C   0  0  1  0  0  3  0  0  0  0  0  0
  188.3670  176.9540  138.3920 N   0  0  0  0  0  2  0  0  0  0  0  0
  188.0520  176.9610  136.9700 C   0  0  0  0  0  2  0  0  0  0  0  0
  185.7280  176.4870  137.1780 O   0  0  0  0  0  0  0  0  0  0  0  0
  186.9550  174.9310  135.9450 N   0  0  0  0  0  2  0  0  0  0  0  0
  186.8410  176.1340  136.7070 C   0  0  0  0  0  0  0  0  0  0  0  0
  185.8750  174.1560  135.6760 O   0  0  0  0  0  0  0  0  0  0  0  0
  187.5050  172.6050  137.0310 O   0  0  0  0  0  0  0  0  0  0  0  0
  186.0500  172.7850  136.6620 P   0  0  1  0  0  0  0  0  0  0  0  0
  185.1260  172.9700  138.0670 O   0  0  0  0  0  1  0  0  0  0  0  0
  185.5030  171.4030  135.7960 O   0  0  0  0  0  0  0  0  0  0  0  0
  184.1490  171.0970  135.6200 C   0  0  0  0  0  0  0  0  0  0  0  0
  183.3860  171.9650  135.1210 O   0  0  0  0  0  0  0  0  0  0  0  0
  183.5780  169.7730  136.0030 C   0  0  0  0  0  1  0  0  0  0  0  0
  186.2270  178.4390  143.5390 C   0  0  0  0  0  2  0  0  0  0  0  0
  183.7710  178.5900  143.0620 C   0  0  0  0  0  0  0  0  0  0  0  0
  184.0310  178.4250  141.6630 N   0  0  0  0  0  2  0  0  0  0  0  0
  182.5990  178.8330  143.4610 O   0  0  0  0  0  0  0  0  0  0  0  0
  184.8490  178.4890  144.0060 N   0  0  0  0  0  0  0  0  0  0  0  0
  181.2310  177.2540  139.4370 C   0  0  2  0  0  3  0  0  0  0  0  0
  182.5390  177.2710  140.1250 C   0  0  1  0  0  3  0  0  0  0  0  0
  182.4890  177.3420  138.6450 N   0  0  2  0  0  0  0  0  0  0  0  0
  183.0100  178.6230  140.6470 C   0  0  2  0  0  3  0  0  0  0  0  0
  183.6010  179.3200  139.4540 C   0  0  0  0  0  2  0  0  0  0  0  0
  182.8730  178.7100  138.2840 C   0  0  0  0  0  2  0  0  0  0  0  0
  179.8480  178.6700  140.7910 O   0  0  0  0  0  1  0  0  0  0  0  0
  179.2770  178.4910  138.4960 C   0  0  0  0  0  1  0  0  0  0  0  0
  180.3970  178.5460  139.5160 C   0  0  2  0  0  3  0  0  0  0  0  0
  184.6010  178.6070  145.4390 C   0  0  0  0  0  2  0  0  0  0  0  0
  185.8230  179.1790  146.1470 C   0  0  0  0  0  2  0  0  0  0  0  0
  186.1520  178.4090  147.2990 O   0  0  0  0  0  0  0  0  0  0  0  0
  188.1120  177.3040  146.6220 C   0  0  0  0  0  2  0  0  0  0  0  0
  188.1060  178.1830  148.8840 C   0  0  0  0  0  1  0  0  0  0  0  0
  187.4480  177.9550  147.5640 C   0  0  0  0  0  0  0  0  0  0  0  0
  2  1  1  0  0  0  0
  2  3  2  0  0  0  0
  5 10  1  6  0  0  0
  5  9  1  0  0  0  0
  5  6  1  0  0  0  0
  6  2  1  1  0  0  0
  6  4  1  0  0  0  0
  7  4  1  0  0  0  0
  7  8  1  1  0  0  0
  9  7  1  0  0  0  0
 11 10  1  0  0  0  0
 13 12  1  6  0  0  0
 13 11  1  0  0  0  0
 14 13  1  0  0  0  0
 15 14  1  0  0  0  0
 17 18  1  0  0  0  0
 18 15  1  0  0  0  0
 18 16  2  0  0  0  0
 19 17  1  0  0  0  0
 19 21  1  0  0  0  0
 21 20  2  1  0  0  0
 21 22  1  0  0  0  0
 23 21  1  0  0  0  0
 24 23  1  0  0  0  0
 24 26  1  0  0  0  0
 25 24  2  0  0  0  0
 27  3  1  0  0  0  0
 27 31  1  0  0  0  0
 28 30  2  0  0  0  0
 28 31  1  0  0  0  0
 29 28  1  0  0  0  0
 31 41  1  0  0  0  0
 32 40  1  1  0  0  0
 32 33  1  0  0  0  0
 33 35  1  0  0  0  0
 34 32  1  0  0  0  0
 34 33  1  0  0  0  0
 35 29  1  0  0  0  0
 36 35  1  0  0  0  0
 37 34  1  0  0  0  0
 37 36  1  0  0  0  0
 39 40  1  0  0  0  0
 40 38  1  0  0  0  0
 41 42  1  0  0  0  0
 42 43  1  0  0  0  0
 43 46  1  0  0  0  0
 44 46  2  0  0  0  0
 46 45  1  0  0  0  0
M  END
>  <MODEL>
2

>  <REMARK>
 VINA RESULT:      -6.8      2.211      3.177
  Name = 
  19 active torsions:
  status: ('A' for Active; 'I' for Inactive)
    1  A    between atoms: C_2  and  C_7
    2  A    between atoms: C_2  and  N_24
    3  A    between atoms: C_6  and  C_23
    4  A    between atoms: C_6  and  N_43
    5  A    between atoms: C_7  and  O_8
    6  A    between atoms: O_8  and  C_45
    7  A    between atoms: C_10  and  O_30
    8  A    between atoms: C_11  and  C_36
    9  A    between atoms: N_13  and  C_37
   10  A    between atoms: C_14  and  C_34
   11  A    between atoms: O_15  and  C_34
   12  A    between atoms: O_15  and  C_46
   13  A    between atoms: C_18  and  C_27
   14  A    between atoms: C_21  and  C_26
   15  A    between atoms: N_22  and  O_31
   16  A    between atoms: N_24  and  C_26
   17  A    between atoms: O_30  and  P_38
   18  A    between atoms: O_31  and  P_38
   19  A    between atoms: N_43  and  C_46
                            x       y       z     vdW  Elec       q    Type
                         _______ _______ _______ _____ _____    ______ ____

>  <TORSDO>
F 19

$$$$
=
 OpenBabel11032421013D

 46 48  0  0  1  0  0  0  0  0999 V2000
  188.3180  175.2580  143.2000 F   0  0  0  0  0  0  0  0  0  0  0  0
  188.0020  176.5810  143.2150 C   0  0  0  0  0  0  0  0  0  0  0  0
  186.8660  176.9620  143.8070 C   0  0  0  0  0  3  0  0  0  0  0  0
  189.6960  178.3120  143.7260 C   0  0  0  0  0  2  0  0  0  0  0  0
  190.0130  176.8810  141.7810 C   0  0  2  0  0  3  0  0  0  0  0  0
  188.9570  177.5770  142.6270 C   0  0  1  0  0  3  0  0  0  0  0  0
  191.0740  178.5740  143.1700 C   0  0  1  0  0  3  0  0  0  0  0  0
  192.0930  178.5960  144.2890 C   0  0  0  0  0  1  0  0  0  0  0  0
  191.3610  177.4230  142.2260 C   0  0  0  0  0  2  0  0  0  0  0  0
  189.8010  177.1950  140.3100 C   0  0  0  0  0  2  0  0  0  0  0  0
  188.9480  178.2930  140.1630 O   0  0  0  0  0  0  0  0  0  0  0  0
  189.0020  179.3870  138.1660 O   0  0  0  0  0  1  0  0  0  0  0  0
  188.5370  178.2520  138.8280 C   0  0  1  0  0  3  0  0  0  0  0  0
  189.0690  177.0610  138.1810 N   0  0  0  0  0  2  0  0  0  0  0  0
  188.6830  177.1070  136.7770 C   0  0  0  0  0  2  0  0  0  0  0  0
  188.5400  174.8880  135.9240 O   0  0  0  0  0  0  0  0  0  0  0  0
  190.5650  175.9770  135.5300 N   0  0  0  0  0  2  0  0  0  0  0  0
  189.2370  175.9280  136.0520 C   0  0  0  0  0  0  0  0  0  0  0  0
  191.1020  174.9290  134.8560 O   0  0  0  0  0  0  0  0  0  0  0  0
  193.4080  173.6810  134.6980 O   0  0  0  0  0  0  0  0  0  0  0  0
  192.7250  174.8620  135.3500 P   0  0  1  0  0  0  0  0  0  0  0  0
  193.5160  176.2910  134.9070 O   0  0  0  0  0  1  0  0  0  0  0  0
  192.7800  174.6850  137.0600 O   0  0  0  0  0  0  0  0  0  0  0  0
  193.8160  175.1940  137.8490 C   0  0  0  0  0  0  0  0  0  0  0  0
  193.7430  176.3810  138.2640 O   0  0  0  0  0  0  0  0  0  0  0  0
  195.0090  174.3770  138.2170 C   0  0  0  0  0  1  0  0  0  0  0  0
  186.4320  178.3950  143.8900 C   0  0  0  0  0  2  0  0  0  0  0  0
  184.0020  178.5640  143.2980 C   0  0  0  0  0  0  0  0  0  0  0  0
  184.3240  178.3770  141.9160 N   0  0  0  0  0  2  0  0  0  0  0  0
  182.8160  178.8250  143.6410 O   0  0  0  0  0  0  0  0  0  0  0  0
  185.0350  178.4660  144.2930 N   0  0  0  0  0  0  0  0  0  0  0  0
  181.6690  177.1860  139.5280 C   0  0  2  0  0  3  0  0  0  0  0  0
  182.9390  177.2180  140.2840 C   0  0  1  0  0  3  0  0  0  0  0  0
  182.9640  177.3130  138.8050 N   0  0  2  0  0  0  0  0  0  0  0  0
  183.3530  178.5710  140.8510 C   0  0  2  0  0  3  0  0  0  0  0  0
  183.9900  179.3000  139.7010 C   0  0  0  0  0  2  0  0  0  0  0  0
  183.3370  178.6950  138.4860 C   0  0  0  0  0  2  0  0  0  0  0  0
  180.2150  178.5680  140.8430 O   0  0  0  0  0  1  0  0  0  0  0  0
  179.7180  178.3810  138.5310 C   0  0  0  0  0  1  0  0  0  0  0  0
  180.8050  178.4590  139.5850 C   0  0  2  0  0  3  0  0  0  0  0  0
  184.7220  178.6070  145.7110 C   0  0  0  0  0  2  0  0  0  0  0  0
  185.9810  178.9330  146.5050 C   0  0  0  0  0  2  0  0  0  0  0  0
  186.5400  177.7570  147.0810 O   0  0  0  0  0  0  0  0  0  0  0  0
  188.1440  178.2620  148.7230 C   0  0  0  0  0  2  0  0  0  0  0  0
  188.9370  177.0110  146.7990 C   0  0  0  0  0  1  0  0  0  0  0  0
  187.8520  177.6960  147.5620 C   0  0  0  0  0  0  0  0  0  0  0  0
  1  2  1  0  0  0  0
  2  3  2  0  0  0  0
  3 27  1  0  0  0  0
  5 10  1  6  0  0  0
  5  9  1  0  0  0  0
  5  6  1  0  0  0  0
  6  2  1  1  0  0  0
  6  4  1  0  0  0  0
  7  4  1  0  0  0  0
  7  8  1  1  0  0  0
  9  7  1  0  0  0  0
 11 10  1  0  0  0  0
 13 12  1  6  0  0  0
 13 11  1  0  0  0  0
 14 13  1  0  0  0  0
 15 14  1  0  0  0  0
 16 18  2  0  0  0  0
 17 18  1  0  0  0  0
 18 15  1  0  0  0  0
 19 21  1  0  0  0  0
 19 17  1  0  0  0  0
 21 20  2  6  0  0  0
 21 23  1  0  0  0  0
 22 21  1  0  0  0  0
 23 24  1  0  0  0  0
 24 26  1  0  0  0  0
 24 25  2  0  0  0  0
 27 31  1  0  0  0  0
 28 30  2  0  0  0  0
 28 31  1  0  0  0  0
 29 28  1  0  0  0  0
 31 41  1  0  0  0  0
 32 40  1  1  0  0  0
 32 33  1  0  0  0  0
 33 35  1  0  0  0  0
 34 32  1  0  0  0  0
 34 33  1  0  0  0  0
 35 29  1  0  0  0  0
 36 35  1  0  0  0  0
 37 34  1  0  0  0  0
 37 36  1  0  0  0  0
 39 40  1  0  0  0  0
 40 38  1  0  0  0  0
 41 42  1  0  0  0  0
 42 43  1  0  0  0  0
 43 46  1  0  0  0  0
 45 46  1  0  0  0  0
 46 44  2  0  0  0  0
M  END
>  <MODEL>
3

>  <REMARK>
 VINA RESULT:      -6.8      1.606      3.138
  Name = 
  19 active torsions:
  status: ('A' for Active; 'I' for Inactive)
    1  A    between atoms: C_2  and  C_7
    2  A    between atoms: C_2  and  N_24
    3  A    between atoms: C_6  and  C_23
    4  A    between atoms: C_6  and  N_43
    5  A    between atoms: C_7  and  O_8
    6  A    between atoms: O_8  and  C_45
    7  A    between atoms: C_10  and  O_30
    8  A    between atoms: C_11  and  C_36
    9  A    between atoms: N_13  and  C_37
   10  A    between atoms: C_14  and  C_34
   11  A    between atoms: O_15  and  C_34
   12  A    between atoms: O_15  and  C_46
   13  A    between atoms: C_18  and  C_27
   14  A    between atoms: C_21  and  C_26
   15  A    between atoms: N_22  and  O_31
   16  A    between atoms: N_24  and  C_26
   17  A    between atoms: O_30  and  P_38
   18  A    between atoms: O_31  and  P_38
   19  A    between atoms: N_43  and  C_46
                            x       y       z     vdW  Elec       q    Type
                         _______ _______ _______ _____ _____    ______ ____

>  <TORSDO>
F 19

$$$$
=
 OpenBabel11032421013D

 46 48  0  0  1  0  0  0  0  0999 V2000
  188.2840  175.3480  143.2000 F   0  0  0  0  0  0  0  0  0  0  0  0
  187.9740  176.6680  143.0970 C   0  0  0  0  0  0  0  0  0  0  0  0
  186.7740  177.0810  143.5180 C   0  0  0  0  0  3  0  0  0  0  0  0
  189.7210  178.3060  143.7240 C   0  0  0  0  0  2  0  0  0  0  0  0
  190.0590  176.9060  141.7600 C   0  0  2  0  0  3  0  0  0  0  0  0
  188.9990  177.6320  142.5760 C   0  0  1  0  0  3  0  0  0  0  0  0
  191.1330  178.5150  143.2350 C   0  0  1  0  0  3  0  0  0  0  0  0
  192.1010  178.4630  144.3980 C   0  0  0  0  0  1  0  0  0  0  0  0
  191.4090  177.3730  142.2770 C   0  0  0  0  0  2  0  0  0  0  0  0
  189.9280  177.2630  140.2900 C   0  0  0  0  0  2  0  0  0  0  0  0
  190.4220  176.2290  139.4890 O   0  0  0  0  0  0  0  0  0  0  0  0
  189.8470  177.9960  138.1720 O   0  0  0  0  0  1  0  0  0  0  0  0
  190.1770  176.6420  138.1780 C   0  0  1  0  0  3  0  0  0  0  0  0
  191.3630  176.4290  137.3590 N   0  0  0  0  0  2  0  0  0  0  0  0
  192.5060  176.3030  138.2540 C   0  0  0  0  0  2  0  0  0  0  0  0
  193.9360  176.9040  136.4470 O   0  0  0  0  0  0  0  0  0  0  0  0
  194.7610  175.2390  137.8590 N   0  0  0  0  0  2  0  0  0  0  0  0
  193.7660  176.1850  137.4670 C   0  0  0  0  0  0  0  0  0  0  0  0
  195.9240  175.1080  137.1740 O   0  0  0  0  0  0  0  0  0  0  0  0
  196.0730  173.1780  138.9500 O   0  0  0  0  0  1  0  0  0  0  0  0
  196.9200  174.1510  138.1600 P   0  0  1  0  0  0  0  0  0  0  0  0
  198.0220  173.2970  137.2020 O   0  0  0  0  0  0  0  0  0  0  0  0
  197.7790  175.1740  139.2450 O   0  0  0  0  0  0  0  0  0  0  0  0
  197.2990  175.5210  140.5120 C   0  0  0  0  0  0  0  0  0  0  0  0
  196.1320  175.9820  140.6190 O   0  0  0  0  0  0  0  0  0  0  0  0
  198.1240  175.3620  141.7440 C   0  0  0  0  0  1  0  0  0  0  0  0
  186.3390  178.5140  143.4620 C   0  0  0  0  0  2  0  0  0  0  0  0
  183.8590  178.5770  143.1010 C   0  0  0  0  0  0  0  0  0  0  0  0
  184.0450  178.1750  141.7400 N   0  0  0  0  0  2  0  0  0  0  0  0
  182.7070  178.8830  143.5170 O   0  0  0  0  0  0  0  0  0  0  0  0
  184.9870  178.6420  143.9890 N   0  0  0  0  0  0  0  0  0  0  0  0
  181.6020  176.5280  139.3970 C   0  0  2  0  0  3  0  0  0  0  0  0
  182.8790  176.8360  140.0750 C   0  0  1  0  0  3  0  0  0  0  0  0
  182.7500  177.0670  138.6160 N   0  0  2  0  0  0  0  0  0  0  0  0
  182.9690  178.1930  140.7620 C   0  0  2  0  0  3  0  0  0  0  0  0
  183.2880  179.1690  139.6650 C   0  0  0  0  0  2  0  0  0  0  0  0
  182.7150  178.5210  138.4300 C   0  0  0  0  0  2  0  0  0  0  0  0
  179.9140  177.2970  140.9180 O   0  0  0  0  0  1  0  0  0  0  0  0
  179.3540  177.2780  138.6120 C   0  0  0  0  0  1  0  0  0  0  0  0
  180.4410  177.5090  139.6450 C   0  0  2  0  0  3  0  0  0  0  0  0
  184.8150  179.0050  145.3920 C   0  0  0  0  0  2  0  0  0  0  0  0
  185.4440  177.9520  146.2960 C   0  0  0  0  0  2  0  0  0  0  0  0
  186.3910  178.5400  147.1820 O   0  0  0  0  0  0  0  0  0  0  0  0
  188.0230  176.9030  146.7570 C   0  0  0  0  0  2  0  0  0  0  0  0
  188.5800  178.5570  148.4430 C   0  0  0  0  0  1  0  0  0  0  0  0
  187.6470  177.9780  147.4320 C   0  0  0  0  0  0  0  0  0  0  0  0
  2  1  1  0  0  0  0
  2  3  2  0  0  0  0
  5 10  1  6  0  0  0
  5  9  1  0  0  0  0
  5  6  1  0  0  0  0
  6  2  1  1  0  0  0
  6  4  1  0  0  0  0
  7  4  1  0  0  0  0
  7  8  1  1  0  0  0
  9  7  1  0  0  0  0
 11 10  1  0  0  0  0
 13 12  1  1  0  0  0
 13 11  1  0  0  0  0
 14 13  1  0  0  0  0
 14 15  1  0  0  0  0
 16 18  2  0  0  0  0
 18 17  1  0  0  0  0
 18 15  1  0  0  0  0
 19 17  1  0  0  0  0
 19 21  1  0  0  0  0
 21 22  2  6  0  0  0
 21 20  1  0  0  0  0
 21 23  1  0  0  0  0
 23 24  1  0  0  0  0
 24 25  2  0  0  0  0
 24 26  1  0  0  0  0
 27  3  1  0  0  0  0
 27 31  1  0  0  0  0
 28 30  2  0  0  0  0
 28 31  1  0  0  0  0
 29 28  1  0  0  0  0
 31 41  1  0  0  0  0
 32 40  1  1  0  0  0
 32 33  1  0  0  0  0
 33 35  1  0  0  0  0
 34 32  1  0  0  0  0
 34 33  1  0  0  0  0
 35 29  1  0  0  0  0
 36 35  1  0  0  0  0
 37 34  1  0  0  0  0
 37 36  1  0  0  0  0
 39 40  1  0  0  0  0
 40 38  1  0  0  0  0
 41 42  1  0  0  0  0
 42 43  1  0  0  0  0
 43 46  1  0  0  0  0
 44 46  2  0  0  0  0
 46 45  1  0  0  0  0
M  END
>  <MODEL>
4

>  <REMARK>
 VINA RESULT:      -6.8      2.708      4.555
  Name = 
  19 active torsions:
  status: ('A' for Active; 'I' for Inactive)
    1  A    between atoms: C_2  and  C_7
    2  A    between atoms: C_2  and  N_24
    3  A    between atoms: C_6  and  C_23
    4  A    between atoms: C_6  and  N_43
    5  A    between atoms: C_7  and  O_8
    6  A    between atoms: O_8  and  C_45
    7  A    between atoms: C_10  and  O_30
    8  A    between atoms: C_11  and  C_36
    9  A    between atoms: N_13  and  C_37
   10  A    between atoms: C_14  and  C_34
   11  A    between atoms: O_15  and  C_34
   12  A    between atoms: O_15  and  C_46
   13  A    between atoms: C_18  and  C_27
   14  A    between atoms: C_21  and  C_26
   15  A    between atoms: N_22  and  O_31
   16  A    between atoms: N_24  and  C_26
   17  A    between atoms: O_30  and  P_38
   18  A    between atoms: O_31  and  P_38
   19  A    between atoms: N_43  and  C_46
                            x       y       z     vdW  Elec       q    Type
                         _______ _______ _______ _____ _____    ______ ____

>  <TORSDO>
F 19

$$$$
=
 OpenBabel11032421013D

 46 48  0  0  1  0  0  0  0  0999 V2000
  192.0290  178.8310  143.6950 F   0  0  0  0  0  0  0  0  0  0  0  0
  191.2170  177.8980  143.1290 C   0  0  0  0  0  0  0  0  0  0  0  0
  191.2970  177.6910  141.8110 C   0  0  0  0  0  3  0  0  0  0  0  0
  190.9590  176.8000  145.3330 C   0  0  0  0  0  2  0  0  0  0  0  0
  189.0210  177.8530  144.3000 C   0  0  2  0  0  3  0  0  0  0  0  0
  190.3010  177.0870  143.9990 C   0  0  1  0  0  3  0  0  0  0  0  0
  189.8330  176.8000  146.3370 C   0  0  1  0  0  3  0  0  0  0  0  0
  190.3380  177.2630  147.6870 C   0  0  0  0  0  1  0  0  0  0  0  0
  188.8050  177.7780  145.8010 C   0  0  0  0  0  2  0  0  0  0  0  0
  187.8440  177.2120  143.5860 C   0  0  0  0  0  2  0  0  0  0  0  0
  187.0100  178.1920  143.0390 O   0  0  0  0  0  0  0  0  0  0  0  0
  185.5300  178.8570  144.6370 O   0  0  0  0  0  1  0  0  0  0  0  0
  185.7550  177.9510  143.6020 C   0  0  1  0  0  3  0  0  0  0  0  0
  184.7190  178.1030  142.5900 N   0  0  0  0  0  2  0  0  0  0  0  0
  185.1410  179.1540  141.6730 C   0  0  0  0  0  2  0  0  0  0  0  0
  184.5480  179.9270  139.5010 O   0  0  0  0  0  0  0  0  0  0  0  0
  183.4770  177.9710  140.1880 N   0  0  0  0  0  2  0  0  0  0  0  0
  184.3900  179.0500  140.3900 C   0  0  0  0  0  0  0  0  0  0  0  0
  182.7820  177.8360  139.0310 O   0  0  0  0  0  0  0  0  0  0  0  0
  180.9470  177.9220  140.9080 O   0  0  0  0  0  1  0  0  0  0  0  0
  181.2020  177.4310  139.5010 P   0  0  1  0  0  0  0  0  0  0  0  0
  180.0920  178.1420  138.4410 O   0  0  0  0  0  0  0  0  0  0  0  0
  181.0260  175.7200  139.4490 O   0  0  0  0  0  0  0  0  0  0  0  0
  181.2190  174.9660  138.2880 C   0  0  0  0  0  0  0  0  0  0  0  0
  182.2210  175.2040  137.5630 O   0  0  0  0  0  0  0  0  0  0  0  0
  180.2760  173.8860  137.8770 C   0  0  0  0  0  1  0  0  0  0  0  0
  190.4570  176.6790  141.0920 C   0  0  0  0  0  2  0  0  0  0  0  0
  190.6730  176.6440  138.5950 C   0  0  0  0  0  0  0  0  0  0  0  0
  191.4740  175.4610  138.6790 N   0  0  0  0  0  2  0  0  0  0  0  0
  190.5000  177.2110  137.4810 O   0  0  0  0  0  0  0  0  0  0  0  0
  190.0770  177.1910  139.7830 N   0  0  0  0  0  0  0  0  0  0  0  0
  194.3900  175.3160  136.3030 C   0  0  2  0  0  3  0  0  0  0  0  0
  193.3020  175.8820  137.1270 C   0  0  1  0  0  3  0  0  0  0  0  0
  193.2570  176.0300  135.6530 N   0  0  2  0  0  0  0  0  0  0  0  0
  192.1950  174.9180  137.5380 C   0  0  2  0  0  3  0  0  0  0  0  0
  191.2830  174.8360  136.3460 C   0  0  0  0  0  2  0  0  0  0  0  0
  192.1860  175.1470  135.1810 C   0  0  0  0  0  2  0  0  0  0  0  0
  194.8530  173.1910  137.3160 O   0  0  0  0  0  1  0  0  0  0  0  0
  195.3280  173.4030  135.0020 C   0  0  0  0  0  1  0  0  0  0  0  0
  194.4010  173.7850  136.1390 C   0  0  2  0  0  3  0  0  0  0  0  0
  189.2190  178.3690  139.7150 C   0  0  0  0  0  2  0  0  0  0  0  0
  187.8000  177.9730  139.3270 C   0  0  0  0  0  2  0  0  0  0  0  0
  187.3780  178.6680  138.1580 O   0  0  0  0  0  0  0  0  0  0  0  0
  185.6270  177.4530  137.1680 C   0  0  0  0  0  2  0  0  0  0  0  0
  187.5240  177.9530  135.7390 C   0  0  0  0  0  1  0  0  0  0  0  0
  186.8160  178.0220  137.0520 C   0  0  0  0  0  0  0  0  0  0  0  0
  2  1  1  0  0  0  0
  3  2  2  0  0  0  0
  4  7  1  0  0  0  0
  5 10  1  6  0  0  0
  5  9  1  0  0  0  0
  6  2  1  6  0  0  0
  6  5  1  0  0  0  0
  6  4  1  0  0  0  0
  7  8  1  1  0  0  0
  9  7  1  0  0  0  0
 11 10  1  0  0  0  0
 11 13  1  0  0  0  0
 13 12  1  1  0  0  0
 14 13  1  0  0  0  0
 15 14  1  0  0  0  0
 16 18  2  0  0  0  0
 17 18  1  0  0  0  0
 18 15  1  0  0  0  0
 19 21  1  0  0  0  0
 19 17  1  0  0  0  0
 21 22  2  6  0  0  0
 21 20  1  0  0  0  0
 23 21  1  0  0  0  0
 24 23  1  0  0  0  0
 25 24  2  0  0  0  0
 26 24  1  0  0  0  0
 27  3  1  0  0  0  0
 28 29  1  0  0  0  0
 28 31  1  0  0  0  0
 30 28  2  0  0  0  0
 31 27  1  0  0  0  0
 32 40  1  6  0  0  0
 32 33  1  0  0  0  0
 33 35  1  0  0  0  0
 34 32  1  0  0  0  0
 34 33  1  0  0  0  0
 35 29  1  0  0  0  0
 36 35  1  0  0  0  0
 37 34  1  0  0  0  0
 37 36  1  0  0  0  0
 39 40  1  0  0  0  0
 40 38  1  0  0  0  0
 41 31  1  0  0  0  0
 42 41  1  0  0  0  0
 43 42  1  0  0  0  0
 45 46  1  0  0  0  0
 46 44  2  0  0  0  0
 46 43  1  0  0  0  0
M  END
>  <MODEL>
5

>  <REMARK>
 VINA RESULT:      -6.5      2.597      8.793
  Name = 
  19 active torsions:
  status: ('A' for Active; 'I' for Inactive)
    1  A    between atoms: C_2  and  C_7
    2  A    between atoms: C_2  and  N_24
    3  A    between atoms: C_6  and  C_23
    4  A    between atoms: C_6  and  N_43
    5  A    between atoms: C_7  and  O_8
    6  A    between atoms: O_8  and  C_45
    7  A    between atoms: C_10  and  O_30
    8  A    between atoms: C_11  and  C_36
    9  A    between atoms: N_13  and  C_37
   10  A    between atoms: C_14  and  C_34
   11  A    between atoms: O_15  and  C_34
   12  A    between atoms: O_15  and  C_46
   13  A    between atoms: C_18  and  C_27
   14  A    between atoms: C_21  and  C_26
   15  A    between atoms: N_22  and  O_31
   16  A    between atoms: N_24  and  C_26
   17  A    between atoms: O_30  and  P_38
   18  A    between atoms: O_31  and  P_38
   19  A    between atoms: N_43  and  C_46
                            x       y       z     vdW  Elec       q    Type
                         _______ _______ _______ _____ _____    ______ ____

>  <TORSDO>
F 19

$$$$
=
 OpenBabel11032421013D

 46 48  0  0  1  0  0  0  0  0999 V2000
  182.2980  178.4180  143.8340 F   0  0  0  0  0  0  0  0  0  0  0  0
  183.1730  178.7040  142.8340 C   0  0  0  0  0  0  0  0  0  0  0  0
  182.7260  178.7140  141.5740 C   0  0  0  0  0  3  0  0  0  0  0  0
  184.7990  179.0450  144.6690 C   0  0  0  0  0  2  0  0  0  0  0  0
  185.5580  178.0390  142.5850 C   0  0  2  0  0  3  0  0  0  0  0  0
  184.5920  179.0600  143.1690 C   0  0  1  0  0  3  0  0  0  0  0  0
  186.2150  178.5620  144.8680 C   0  0  1  0  0  3  0  0  0  0  0  0
  186.3320  177.8110  146.1770 C   0  0  0  0  0  1  0  0  0  0  0  0
  186.4990  177.6320  143.7050 C   0  0  0  0  0  2  0  0  0  0  0  0
  186.3580  178.6600  141.4530 C   0  0  0  0  0  2  0  0  0  0  0  0
  187.7070  178.3080  141.5570 O   0  0  0  0  0  0  0  0  0  0  0  0
  188.5010  178.9340  139.5150 O   0  0  0  0  0  1  0  0  0  0  0  0
  188.0600  177.8570  140.2830 C   0  0  1  0  0  3  0  0  0  0  0  0
  189.1230  176.8650  140.3830 N   0  0  0  0  0  2  0  0  0  0  0  0
  190.3580  177.4880  139.9260 C   0  0  0  0  0  2  0  0  0  0  0  0
  192.5320  177.1900  140.8520 O   0  0  0  0  0  0  0  0  0  0  0  0
  190.9250  178.0150  142.3290 N   0  0  0  0  0  2  0  0  0  0  0  0
  191.3430  177.5570  141.0430 C   0  0  0  0  0  0  0  0  0  0  0  0
  191.7930  178.1020  143.3680 O   0  0  0  0  0  0  0  0  0  0  0  0
  189.8050  176.7650  144.4460 O   0  0  0  0  0  1  0  0  0  0  0  0
  191.3120  176.8910  144.4560 P   0  0  1  0  0  0  0  0  0  0  0  0
  192.0090  175.4150  144.0130 O   0  0  0  0  0  0  0  0  0  0  0  0
  191.8410  177.3200  146.0370 O   0  0  0  0  0  0  0  0  0  0  0  0
  191.4030  176.6680  147.1940 C   0  0  0  0  0  0  0  0  0  0  0  0
  190.5310  177.2220  147.9150 O   0  0  0  0  0  0  0  0  0  0  0  0
  191.9350  175.3360  147.6040 C   0  0  0  0  0  1  0  0  0  0  0  0
  183.6040  179.0300  140.4010 C   0  0  0  0  0  2  0  0  0  0  0  0
  183.6470  178.0670  138.0870 C   0  0  0  0  0  0  0  0  0  0  0  0
  184.9830  177.6000  138.3040 N   0  0  0  0  0  2  0  0  0  0  0  0
  183.1130  177.9460  136.9490 O   0  0  0  0  0  0  0  0  0  0  0  0
  182.9200  178.6830  139.1630 N   0  0  0  0  0  0  0  0  0  0  0  0
  187.8900  177.7420  135.9170 C   0  0  2  0  0  3  0  0  0  0  0  0
  186.6990  178.1770  136.6770 C   0  0  1  0  0  3  0  0  0  0  0  0
  186.6410  178.1110  135.1970 N   0  0  2  0  0  0  0  0  0  0  0  0
  185.8120  177.0700  137.2340 C   0  0  2  0  0  3  0  0  0  0  0  0
  184.9500  176.6390  136.0800 C   0  0  0  0  0  2  0  0  0  0  0  0
  185.7810  176.9700  134.8680 C   0  0  0  0  0  2  0  0  0  0  0  0
  188.6660  175.8930  137.2350 O   0  0  0  0  0  1  0  0  0  0  0  0
  189.3090  175.9280  134.9520 C   0  0  0  0  0  1  0  0  0  0  0  0
  188.2200  176.2380  135.9600 C   0  0  2  0  0  3  0  0  0  0  0  0
  181.5420  179.1230  138.9780 C   0  0  0  0  0  2  0  0  0  0  0  0
  181.5050  180.4990  138.3250 C   0  0  0  0  0  2  0  0  0  0  0  0
  180.5120  180.5540  137.3050 O   0  0  0  0  0  0  0  0  0  0  0  0
  180.7030  180.7770  134.9730 C   0  0  0  0  0  2  0  0  0  0  0  0
  180.7050  182.8410  136.2500 C   0  0  0  0  0  1  0  0  0  0  0  0
  180.6390  181.3530  136.1640 C   0  0  0  0  0  0  0  0  0  0  0  0
  2  1  1  0  0  0  0
  3  2  2  0  0  0  0
  4  7  1  0  0  0  0
  5 10  1  6  0  0  0
  5  6  1  0  0  0  0
  5  9  1  0  0  0  0
  6  2  1  1  0  0  0
  6  4  1  0  0  0  0
  7  8  1  1  0  0  0
  9  7  1  0  0  0  0
 10 11  1  0  0  0  0
 13 12  1  6  0  0  0
 13 14  1  0  0  0  0
 13 11  1  0  0  0  0
 15 14  1  0  0  0  0
 15 18  1  0  0  0  0
 16 18  2  0  0  0  0
 17 19  1  0  0  0  0
 18 17  1  0  0  0  0
 19 21  1  0  0  0  0
 20 21  1  0  0  0  0
 21 22  2  6  0  0  0
 21 23  1  0  0  0  0
 23 24  1  0  0  0  0
 24 26  1  0  0  0  0
 24 25  2  0  0  0  0
 27  3  1  0  0  0  0
 28 29  1  0  0  0  0
 28 31  1  0  0  0  0
 30 28  2  0  0  0  0
 31 27  1  0  0  0  0
 32 40  1  1  0  0  0
 32 33  1  0  0  0  0
 33 35  1  0  0  0  0
 34 32  1  0  0  0  0
 34 33  1  0  0  0  0
 35 29  1  0  0  0  0
 36 35  1  0  0  0  0
 37 34  1  0  0  0  0
 37 36  1  0  0  0  0
 39 40  1  0  0  0  0
 40 38  1  0  0  0  0
 41 31  1  0  0  0  0
 42 41  1  0  0  0  0
 43 42  1  0  0  0  0
 44 46  2  0  0  0  0
 46 45  1  0  0  0  0
 46 43  1  0  0  0  0
M  END
>  <MODEL>
6

>  <REMARK>
 VINA RESULT:      -6.3      3.254      7.840
  Name = 
  19 active torsions:
  status: ('A' for Active; 'I' for Inactive)
    1  A    between atoms: C_2  and  C_7
    2  A    between atoms: C_2  and  N_24
    3  A    between atoms: C_6  and  C_23
    4  A    between atoms: C_6  and  N_43
    5  A    between atoms: C_7  and  O_8
    6  A    between atoms: O_8  and  C_45
    7  A    between atoms: C_10  and  O_30
    8  A    between atoms: C_11  and  C_36
    9  A    between atoms: N_13  and  C_37
   10  A    between atoms: C_14  and  C_34
   11  A    between atoms: O_15  and  C_34
   12  A    between atoms: O_15  and  C_46
   13  A    between atoms: C_18  and  C_27
   14  A    between atoms: C_21  and  C_26
   15  A    between atoms: N_22  and  O_31
   16  A    between atoms: N_24  and  C_26
   17  A    between atoms: O_30  and  P_38
   18  A    between atoms: O_31  and  P_38
   19  A    between atoms: N_43  and  C_46
                            x       y       z     vdW  Elec       q    Type
                         _______ _______ _______ _____ _____    ______ ____

>  <TORSDO>
F 19

$$$$
=
 OpenBabel11032421013D

 46 48  0  0  1  0  0  0  0  0999 V2000
  182.5940  179.0810  138.0310 F   0  0  0  0  0  0  0  0  0  0  0  0
  183.6890  178.6480  138.7130 C   0  0  0  0  0  0  0  0  0  0  0  0
  184.1320  179.3760  139.7420 C   0  0  0  0  0  3  0  0  0  0  0  0
  183.3900  176.1930  138.6270 C   0  0  0  0  0  2  0  0  0  0  0  0
  184.6280  177.2990  136.8450 C   0  0  2  0  0  3  0  0  0  0  0  0
  184.3290  177.3450  138.3360 C   0  0  1  0  0  3  0  0  0  0  0  0
  183.6620  175.1780  137.5430 C   0  0  1  0  0  3  0  0  0  0  0  0
  182.4060  174.3900  137.2390 C   0  0  0  0  0  1  0  0  0  0  0  0
  184.0820  175.9800  136.3270 C   0  0  0  0  0  2  0  0  0  0  0  0
  186.1260  177.3560  136.6060 C   0  0  0  0  0  2  0  0  0  0  0  0
  186.7690  177.9900  137.6740 O   0  0  0  0  0  0  0  0  0  0  0  0
  188.5790  179.3710  137.6180 O   0  0  0  0  0  1  0  0  0  0  0  0
  188.1010  178.1080  137.2730 C   0  0  1  0  0  3  0  0  0  0  0  0
  188.9100  177.0890  137.9290 N   0  0  0  0  0  2  0  0  0  0  0  0
  190.0550  176.8100  137.0730 C   0  0  0  0  0  2  0  0  0  0  0  0
  190.8450  175.6580  139.0020 O   0  0  0  0  0  0  0  0  0  0  0  0
  192.3500  175.7690  137.2220 N   0  0  0  0  0  2  0  0  0  0  0  0
  191.0860  176.0420  137.8270 C   0  0  0  0  0  0  0  0  0  0  0  0
  193.3110  175.0660  137.8720 O   0  0  0  0  0  0  0  0  0  0  0  0
  194.5800  174.0500  135.8090 O   0  0  0  0  0  0  0  0  0  0  0  0
  194.6740  175.1300  136.8630 P   0  0  1  0  0  0  0  0  0  0  0  0
  194.7620  176.6460  136.1170 O   0  0  0  0  0  1  0  0  0  0  0  0
  196.0860  174.8800  137.8160 O   0  0  0  0  0  0  0  0  0  0  0  0
  196.7330  173.6450  137.9140 C   0  0  0  0  0  0  0  0  0  0  0  0
  196.0920  172.6510  138.3450 O   0  0  0  0  0  0  0  0  0  0  0  0
  198.1620  173.4650  137.5240 C   0  0  0  0  0  1  0  0  0  0  0  0
  185.3200  178.9820  140.5670 C   0  0  0  0  0  2  0  0  0  0  0  0
  185.8380  178.0180  142.8220 C   0  0  0  0  0  0  0  0  0  0  0  0
  187.2390  178.1090  142.5420 N   0  0  0  0  0  2  0  0  0  0  0  0
  185.4410  177.4620  143.8840 O   0  0  0  0  0  0  0  0  0  0  0  0
  184.8840  178.5500  141.8880 N   0  0  0  0  0  0  0  0  0  0  0  0
  190.4170  178.1570  144.5580 C   0  0  2  0  0  3  0  0  0  0  0  0
  189.4880  178.3830  143.4310 C   0  0  1  0  0  3  0  0  0  0  0  0
  190.6780  177.5210  143.2380 N   0  0  2  0  0  0  0  0  0  0  0  0
  188.2500  177.4950  143.3880 C   0  0  2  0  0  3  0  0  0  0  0  0
  188.7140  176.2020  142.7780 C   0  0  0  0  0  2  0  0  0  0  0  0
  190.1790  176.1460  143.1280 C   0  0  0  0  0  2  0  0  0  0  0  0
  189.0070  177.8810  146.4790 O   0  0  0  0  0  1  0  0  0  0  0  0
  191.1050  176.7750  146.5200 C   0  0  0  0  0  1  0  0  0  0  0  0
  189.9270  177.2130  145.6720 C   0  0  2  0  0  3  0  0  0  0  0  0
  183.4550  178.5100  142.1740 C   0  0  0  0  0  2  0  0  0  0  0  0
  183.1300  179.3680  143.3910 C   0  0  0  0  0  2  0  0  0  0  0  0
  181.8240  179.9260  143.2890 O   0  0  0  0  0  0  0  0  0  0  0  0
  180.1330  178.5910  144.2270 C   0  0  0  0  0  2  0  0  0  0  0  0
  180.0330  178.9110  141.8230 C   0  0  0  0  0  1  0  0  0  0  0  0
  180.6720  179.1430  143.1520 C   0  0  0  0  0  0  0  0  0  0  0  0
  1  2  1  0  0  0  0
  2  3  2  0  0  0  0
  3 27  1  0  0  0  0
  5 10  1  1  0  0  0
  5  6  1  0  0  0  0
  6  4  1  0  0  0  0
  6  2  1  6  0  0  0
  7  8  1  6  0  0  0
  7  4  1  0  0  0  0
  9  5  1  0  0  0  0
  9  7  1  0  0  0  0
 10 11  1  0  0  0  0
 13 12  1  1  0  0  0
 13 11  1  0  0  0  0
 13 14  1  0  0  0  0
 15 18  1  0  0  0  0
 15 14  1  0  0  0  0
 17 18  1  0  0  0  0
 17 19  1  0  0  0  0
 18 16  2  0  0  0  0
 21 20  2  6  0  0  0
 21 23  1  0  0  0  0
 21 19  1  0  0  0  0
 22 21  1  0  0  0  0
 23 24  1  0  0  0  0
 24 25  2  0  0  0  0
 26 24  1  0  0  0  0
 27 31  1  0  0  0  0
 28 30  2  0  0  0  0
 29 28  1  0  0  0  0
 29 35  1  0  0  0  0
 31 41  1  0  0  0  0
 31 28  1  0  0  0  0
 32 40  1  1  0  0  0
 33 32  1  0  0  0  0
 34 33  1  0  0  0  0
 34 32  1  0  0  0  0
 35 33  1  0  0  0  0
 36 37  1  0  0  0  0
 36 35  1  0  0  0  0
 37 34  1  0  0  0  0
 40 38  1  0  0  0  0
 40 39  1  0  0  0  0
 41 42  1  0  0  0  0
 43 42  1  0  0  0  0
 45 46  1  0  0  0  0
 46 43  1  0  0  0  0
 46 44  2  0  0  0  0
M  END
>  <MODEL>
7

>  <REMARK>
 VINA RESULT:      -6.1      3.150      7.744
  Name = 
  19 active torsions:
  status: ('A' for Active; 'I' for Inactive)
    1  A    between atoms: C_2  and  C_7
    2  A    between atoms: C_2  and  N_24
    3  A    between atoms: C_6  and  C_23
    4  A    between atoms: C_6  and  N_43
    5  A    between atoms: C_7  and  O_8
    6  A    between atoms: O_8  and  C_45
    7  A    between atoms: C_10  and  O_30
    8  A    between atoms: C_11  and  C_36
    9  A    between atoms: N_13  and  C_37
   10  A    between atoms: C_14  and  C_34
   11  A    between atoms: O_15  and  C_34
   12  A    between atoms: O_15  and  C_46
   13  A    between atoms: C_18  and  C_27
   14  A    between atoms: C_21  and  C_26
   15  A    between atoms: N_22  and  O_31
   16  A    between atoms: N_24  and  C_26
   17  A    between atoms: O_30  and  P_38
   18  A    between atoms: O_31  and  P_38
   19  A    between atoms: N_43  and  C_46
                            x       y       z     vdW  Elec       q    Type
                         _______ _______ _______ _____ _____    ______ ____

>  <TORSDO>
F 19

$$$$
=
 OpenBabel11032421013D

 46 48  0  0  1  0  0  0  0  0999 V2000
  188.2170  175.6630  143.2180 F   0  0  0  0  0  0  0  0  0  0  0  0
  187.9270  176.9480  142.8790 C   0  0  0  0  0  0  0  0  0  0  0  0
  186.6590  177.3620  142.9550 C   0  0  0  0  0  3  0  0  0  0  0  0
  189.7180  178.4330  143.7250 C   0  0  0  0  0  2  0  0  0  0  0  0
  190.1070  177.1450  141.6940 C   0  0  2  0  0  3  0  0  0  0  0  0
  189.0380  177.8800  142.4900 C   0  0  1  0  0  3  0  0  0  0  0  0
  191.1690  178.5880  143.3400 C   0  0  1  0  0  3  0  0  0  0  0  0
  192.0540  178.4020  144.5550 C   0  0  0  0  0  1  0  0  0  0  0  0
  191.4430  177.4960  142.3250 C   0  0  0  0  0  2  0  0  0  0  0  0
  190.0940  177.6050  140.2470 C   0  0  0  0  0  2  0  0  0  0  0  0
  189.9020  176.5170  139.3900 O   0  0  0  0  0  0  0  0  0  0  0  0
  189.0490  178.4090  138.4520 O   0  0  0  0  0  1  0  0  0  0  0  0
  189.1510  177.0240  138.3270 C   0  0  1  0  0  3  0  0  0  0  0  0
  189.7950  176.6980  137.0620 N   0  0  0  0  0  2  0  0  0  0  0  0
  189.7160  175.2550  136.8810 C   0  0  0  0  0  2  0  0  0  0  0  0
  191.3870  174.2390  135.5220 O   0  0  0  0  0  0  0  0  0  0  0  0
  192.0100  174.6370  137.7350 N   0  0  0  0  0  2  0  0  0  0  0  0
  191.0760  174.6890  136.6560 C   0  0  0  0  0  0  0  0  0  0  0  0
  193.2600  174.1380  137.5690 O   0  0  0  0  0  0  0  0  0  0  0  0
  193.4980  176.7170  138.0120 O   0  0  0  0  0  0  0  0  0  0  0  0
  194.3050  175.4510  137.8260 P   0  0  1  0  0  0  0  0  0  0  0  0
  195.2470  175.1700  139.2020 O   0  0  0  0  0  1  0  0  0  0  0  0
  195.3320  175.6220  136.4560 O   0  0  0  0  0  0  0  0  0  0  0  0
  195.9830  174.5440  135.8490 C   0  0  0  0  0  0  0  0  0  0  0  0
  195.4760  174.0240  134.8200 O   0  0  0  0  0  0  0  0  0  0  0  0
  197.2620  173.9880  136.3790 C   0  0  0  0  0  1  0  0  0  0  0  0
  186.2360  178.7590  142.6180 C   0  0  0  0  0  2  0  0  0  0  0  0
  183.8020  178.6510  142.0280 C   0  0  0  0  0  0  0  0  0  0  0  0
  184.1240  177.9590  140.8170 N   0  0  0  0  0  2  0  0  0  0  0  0
  182.6110  179.0010  142.2570 O   0  0  0  0  0  0  0  0  0  0  0  0
  184.8380  178.9540  142.9770 N   0  0  0  0  0  0  0  0  0  0  0  0
  181.3720  175.9880  139.1730 C   0  0  2  0  0  3  0  0  0  0  0  0
  182.6540  176.2790  139.8480 C   0  0  1  0  0  3  0  0  0  0  0  0
  182.6600  175.7140  138.4770 N   0  0  2  0  0  0  0  0  0  0  0  0
  183.1480  177.7190  139.7670 C   0  0  2  0  0  3  0  0  0  0  0  0
  183.8030  177.8340  138.4190 C   0  0  0  0  0  2  0  0  0  0  0  0
  183.0990  176.7930  137.5870 C   0  0  0  0  0  2  0  0  0  0  0  0
  179.9920  177.8680  139.7330 O   0  0  0  0  0  1  0  0  0  0  0  0
  179.4880  176.7300  137.7130 C   0  0  0  0  0  1  0  0  0  0  0  0
  180.5770  177.2020  138.6570 C   0  0  2  0  0  3  0  0  0  0  0  0
  184.5260  179.6160  144.2390 C   0  0  0  0  0  2  0  0  0  0  0  0
  184.6830  178.6470  145.4030 C   0  0  0  0  0  2  0  0  0  0  0  0
  185.6720  179.1050  146.3190 O   0  0  0  0  0  0  0  0  0  0  0  0
  186.9410  177.1280  146.2450 C   0  0  0  0  0  2  0  0  0  0  0  0
  187.4000  178.6270  148.0990 C   0  0  0  0  0  1  0  0  0  0  0  0
  186.6580  178.2690  146.8550 C   0  0  0  0  0  0  0  0  0  0  0  0
  2  3  2  0  0  0  0
  2  1  1  0  0  0  0
  5 10  1  6  0  0  0
  5  9  1  0  0  0  0
  5  6  1  0  0  0  0
  6  2  1  1  0  0  0
  6  4  1  0  0  0  0
  7  4  1  0  0  0  0
  7  8  1  1  0  0  0
  9  7  1  0  0  0  0
 11 10  1  0  0  0  0
 13 12  1  1  0  0  0
 13 11  1  0  0  0  0
 14 13  1  0  0  0  0
 15 14  1  0  0  0  0
 16 18  2  0  0  0  0
 18 15  1  0  0  0  0
 18 17  1  0  0  0  0
 19 17  1  0  0  0  0
 19 21  1  0  0  0  0
 21 20  2  1  0  0  0
 21 22  1  0  0  0  0
 23 21  1  0  0  0  0
 24 26  1  0  0  0  0
 24 23  1  0  0  0  0
 25 24  2  0  0  0  0
 27  3  1  0  0  0  0
 27 31  1  0  0  0  0
 28 30  2  0  0  0  0
 28 31  1  0  0  0  0
 29 28  1  0  0  0  0
 31 41  1  0  0  0  0
 32 40  1  6  0  0  0
 32 33  1  0  0  0  0
 34 32  1  0  0  0  0
 34 33  1  0  0  0  0
 35 33  1  0  0  0  0
 35 29  1  0  0  0  0
 36 35  1  0  0  0  0
 37 36  1  0  0  0  0
 37 34  1  0  0  0  0
 39 40  1  0  0  0  0
 40 38  1  0  0  0  0
 41 42  1  0  0  0  0
 42 43  1  0  0  0  0
 43 46  1  0  0  0  0
 44 46  2  0  0  0  0
 46 45  1  0  0  0  0
M  END
>  <MODEL>
8

>  <REMARK>
 VINA RESULT:      -6.1      2.180      3.846
  Name = 
  19 active torsions:
  status: ('A' for Active; 'I' for Inactive)
    1  A    between atoms: C_2  and  C_7
    2  A    between atoms: C_2  and  N_24
    3  A    between atoms: C_6  and  C_23
    4  A    between atoms: C_6  and  N_43
    5  A    between atoms: C_7  and  O_8
    6  A    between atoms: O_8  and  C_45
    7  A    between atoms: C_10  and  O_30
    8  A    between atoms: C_11  and  C_36
    9  A    between atoms: N_13  and  C_37
   10  A    between atoms: C_14  and  C_34
   11  A    between atoms: O_15  and  C_34
   12  A    between atoms: O_15  and  C_46
   13  A    between atoms: C_18  and  C_27
   14  A    between atoms: C_21  and  C_26
   15  A    between atoms: N_22  and  O_31
   16  A    between atoms: N_24  and  C_26
   17  A    between atoms: O_30  and  P_38
   18  A    between atoms: O_31  and  P_38
   19  A    between atoms: N_43  and  C_46
                            x       y       z     vdW  Elec       q    Type
                         _______ _______ _______ _____ _____    ______ ____

>  <TORSDO>
F 19

$$$$
=
 OpenBabel11032421013D

 46 48  0  0  1  0  0  0  0  0999 V2000
  182.4200  175.6260  139.8390 F   0  0  0  0  0  0  0  0  0  0  0  0
  183.0700  176.5680  139.1050 C   0  0  0  0  0  0  0  0  0  0  0  0
  183.8000  176.1740  138.0560 C   0  0  0  0  0  3  0  0  0  0  0  0
  181.6550  178.5760  138.7990 C   0  0  0  0  0  2  0  0  0  0  0  0
  182.7380  178.2050  140.9490 C   0  0  2  0  0  3  0  0  0  0  0  0
  182.9050  178.0200  139.4480 C   0  0  1  0  0  3  0  0  0  0  0  0
  181.1240  179.5970  139.7760 C   0  0  1  0  0  3  0  0  0  0  0  0
  179.6150  179.6820  139.6740 C   0  0  0  0  0  1  0  0  0  0  0  0
  181.5260  179.0990  141.1500 C   0  0  0  0  0  2  0  0  0  0  0  0
  183.9660  178.8790  141.5360 C   0  0  0  0  0  2  0  0  0  0  0  0
  184.2760  178.3290  142.7840 O   0  0  0  0  0  0  0  0  0  0  0  0
  182.9930  179.3590  144.3590 O   0  0  0  0  0  1  0  0  0  0  0  0
  184.2080  179.4010  143.6760 C   0  0  1  0  0  3  0  0  0  0  0  0
  185.3040  179.3240  144.6320 N   0  0  0  0  0  2  0  0  0  0  0  0
  185.6980  177.9260  144.7470 C   0  0  0  0  0  2  0  0  0  0  0  0
  186.7070  178.2450  146.8800 O   0  0  0  0  0  0  0  0  0  0  0  0
  188.0370  177.1560  145.3020 N   0  0  0  0  0  2  0  0  0  0  0  0
  186.8240  177.7860  145.7130 C   0  0  0  0  0  0  0  0  0  0  0  0
  189.0810  177.0010  146.1540 O   0  0  0  0  0  0  0  0  0  0  0  0
  190.5460  178.7940  144.9150 O   0  0  0  0  0  0  0  0  0  0  0  0
  190.4680  177.3170  145.2290 P   0  0  1  0  0  0  0  0  0  0  0  0
  191.8470  176.8440  146.0860 O   0  0  0  0  0  1  0  0  0  0  0  0
  190.3730  176.4240  143.7610 O   0  0  0  0  0  0  0  0  0  0  0  0
  190.3660  177.0250  142.4980 C   0  0  0  0  0  0  0  0  0  0  0  0
  191.4410  177.4920  142.0370 O   0  0  0  0  0  0  0  0  0  0  0  0
  189.1250  177.1330  141.6770 C   0  0  0  0  0  1  0  0  0  0  0  0
  184.5440  177.1310  137.1750 C   0  0  0  0  0  2  0  0  0  0  0  0
  186.6030  176.2960  136.0150 C   0  0  0  0  0  0  0  0  0  0  0  0
  187.4000  176.7050  137.1320 N   0  0  0  0  0  2  0  0  0  0  0  0
  187.1580  175.8490  134.9730 O   0  0  0  0  0  0  0  0  0  0  0  0
  185.1720  176.4080  136.0780 N   0  0  0  0  0  0  0  0  0  0  0  0
  190.7850  175.0610  137.2090 C   0  0  2  0  0  3  0  0  0  0  0  0
  189.3930  175.3850  137.5880 C   0  0  1  0  0  3  0  0  0  0  0  0
  190.4950  175.6580  138.5420 N   0  0  2  0  0  0  0  0  0  0  0  0
  188.8540  176.7220  137.0940 C   0  0  2  0  0  3  0  0  0  0  0  0
  189.3810  177.7410  138.0650 C   0  0  0  0  0  2  0  0  0  0  0  0
  190.6480  177.1150  138.5890 C   0  0  0  0  0  2  0  0  0  0  0  0
  190.9490  175.7360  134.9130 O   0  0  0  0  0  1  0  0  0  0  0  0
  192.9510  175.7620  136.1850 C   0  0  0  0  0  1  0  0  0  0  0  0
  191.4530  175.9980  136.1860 C   0  0  2  0  0  3  0  0  0  0  0  0
  184.3370  175.9560  134.9700 C   0  0  0  0  0  2  0  0  0  0  0  0
  183.6660  174.6320  135.3140 C   0  0  0  0  0  2  0  0  0  0  0  0
  184.6260  173.5850  135.4180 O   0  0  0  0  0  0  0  0  0  0  0  0
  185.9390  172.9540  137.2610 C   0  0  0  0  0  2  0  0  0  0  0  0
  183.7610  171.8980  137.0870 C   0  0  0  0  0  1  0  0  0  0  0  0
  184.8080  172.8340  136.5840 C   0  0  0  0  0  0  0  0  0  0  0  0
  2  1  1  0  0  0  0
  3  2  2  0  0  0  0
  4  6  1  0  0  0  0
  4  7  1  0  0  0  0
  5  9  1  0  0  0  0
  5 10  1  6  0  0  0
  6  2  1  1  0  0  0
  6  5  1  0  0  0  0
  7  8  1  1  0  0  0
  7  9  1  0  0  0  0
 10 11  1  0  0  0  0
 11 13  1  0  0  0  0
 13 12  1  1  0  0  0
 13 14  1  0  0  0  0
 14 15  1  0  0  0  0
 15 18  1  0  0  0  0
 17 18  1  0  0  0  0
 17 19  1  0  0  0  0
 18 16  2  0  0  0  0
 21 20  2  6  0  0  0
 21 22  1  0  0  0  0
 21 19  1  0  0  0  0
 23 21  1  0  0  0  0
 24 23  1  0  0  0  0
 25 24  2  0  0  0  0
 26 24  1  0  0  0  0
 27  3  1  0  0  0  0
 28 31  1  0  0  0  0
 28 29  1  0  0  0  0
 30 28  2  0  0  0  0
 31 27  1  0  0  0  0
 32 40  1  6  0  0  0
 32 33  1  0  0  0  0
 32 34  1  0  0  0  0
 33 34  1  0  0  0  0
 34 37  1  0  0  0  0
 35 29  1  0  0  0  0
 35 33  1  0  0  0  0
 35 36  1  0  0  0  0
 36 37  1  0  0  0  0
 38 40  1  0  0  0  0
 39 40  1  0  0  0  0
 41 42  1  0  0  0  0
 41 31  1  0  0  0  0
 42 43  1  0  0  0  0
 43 46  1  0  0  0  0
 46 45  1  0  0  0  0
 46 44  2  0  0  0  0
M  END
>  <MODEL>
9

>  <REMARK>
 VINA RESULT:      -6.0      3.193      9.606
  Name = 
  19 active torsions:
  status: ('A' for Active; 'I' for Inactive)
    1  A    between atoms: C_2  and  C_7
    2  A    between atoms: C_2  and  N_24
    3  A    between atoms: C_6  and  C_23
    4  A    between atoms: C_6  and  N_43
    5  A    between atoms: C_7  and  O_8
    6  A    between atoms: O_8  and  C_45
    7  A    between atoms: C_10  and  O_30
    8  A    between atoms: C_11  and  C_36
    9  A    between atoms: N_13  and  C_37
   10  A    between atoms: C_14  and  C_34
   11  A    between atoms: O_15  and  C_34
   12  A    between atoms: O_15  and  C_46
   13  A    between atoms: C_18  and  C_27
   14  A    between atoms: C_21  and  C_26
   15  A    between atoms: N_22  and  O_31
   16  A    between atoms: N_24  and  C_26
   17  A    between atoms: O_30  and  P_38
   18  A    between atoms: O_31  and  P_38
   19  A    between atoms: N_43  and  C_46
                            x       y       z     vdW  Elec       q    Type
                         _______ _______ _______ _____ _____    ______ ____

>  <TORSDO>
F 19

$$$$
