=
 OpenBabel11042410253D

 29 33  0  0  0  0  0  0  0  0999 V2000
  185.9580  178.4500  147.3350 C   0  0  0  0  0  3  0  0  0  0  0  0
  184.1070  178.7530  145.8550 N   0  0  0  0  0  0  0  0  0  0  0  0
  186.2950  178.1930  144.9000 C   0  0  0  0  0  0  0  0  0  0  0  0
  188.1020  178.0700  148.7440 C   0  0  0  0  0  3  0  0  0  0  0  0
  187.6700  177.9050  145.1130 C   0  0  0  0  0  0  0  0  0  0  0  0
  188.1240  177.9190  146.4420 C   0  0  0  0  0  0  0  0  0  0  0  0
  187.3110  178.1740  147.4940 C   0  0  0  0  0  0  0  0  0  0  0  0
  189.4740  177.7180  148.3190 N   0  0  0  0  0  2  0  0  0  0  0  0
  182.5070  178.9250  142.8130 C   0  0  0  0  0  3  0  0  0  0  0  0
  183.7590  178.6130  142.3580 N   0  0  0  0  0  0  0  0  0  0  0  0
  183.6380  178.7720  144.5890 C   0  0  0  0  0  0  0  0  0  0  0  0
  185.4340  178.4680  146.0370 C   0  0  0  0  0  0  0  0  0  0  0  0
  185.7780  178.2340  143.6300 N   0  0  0  0  0  2  0  0  0  0  0  0
  189.4220  177.6340  146.9120 N   0  0  0  0  0  0  0  0  0  0  0  0
  184.4660  178.5180  143.4880 C   0  0  0  0  0  0  0  0  0  0  0  0
  182.3960  179.0320  144.1720 N   0  0  0  0  0  0  0  0  0  0  0  0
  188.5990  177.6000  143.9950 C   0  0  0  0  0  0  0  0  0  0  0  0
  190.3450  177.0210  141.8680 C   0  0  0  0  0  0  0  0  0  0  0  0
  188.5150  176.3740  143.3160 C   0  0  0  0  0  3  0  0  0  0  0  0
  189.3810  176.0860  142.2580 C   0  0  0  0  0  3  0  0  0  0  0  0
  190.4320  178.2480  142.5320 C   0  0  0  0  0  3  0  0  0  0  0  0
  189.5640  178.5350  143.5890 C   0  0  0  0  0  3  0  0  0  0  0  0
  191.2560  176.7220  140.7300 C   0  0  0  0  0  2  0  0  0  0  0  0
  190.4690  176.6650  139.4340 C   0  0  0  0  0  2  0  0  0  0  0  0
  191.0340  176.6910  136.7660 O   0  0  0  0  0  0  0  0  0  0  0  0
  191.5920  174.4540  138.0020 O   0  0  0  0  0  1  0  0  0  0  0  0
  191.5560  176.1430  138.0760 P   0  0  2  0  0  0  0  0  0  0  0  0
  193.9020  176.4640  137.2490 O   0  0  0  0  0  1  0  0  0  0  0  0
  193.1770  176.7440  138.3570 N   0  0  0  0  0  2  0  0  0  0  0  0
  1  7  1  0  0  0  0
  2 12  1  0  0  0  0
  3  5  2  0  0  0  0
  3 12  1  0  0  0  0
  5  6  1  0  0  0  0
  6 14  2  0  0  0  0
  6  7  1  0  0  0  0
  7  4  2  0  0  0  0
  8  4  1  0  0  0  0
  9 16  2  0  0  0  0
 10  9  1  0  0  0  0
 10 15  2  0  0  0  0
 11  2  2  0  0  0  0
 12  1  2  0  0  0  0
 13  3  1  0  0  0  0
 14  8  1  0  0  0  0
 15 13  1  0  0  0  0
 15 11  1  0  0  0  0
 16 11  1  0  0  0  0
 17  5  1  0  0  0  0
 18 20  2  0  0  0  0
 18 21  1  0  0  0  0
 19 17  2  0  0  0  0
 20 19  1  0  0  0  0
 21 22  2  0  0  0  0
 22 17  1  0  0  0  0
 23 18  1  0  0  0  0
 24 23  1  0  0  0  0
 26 27  1  0  0  0  0
 27 25  2  6  0  0  0
 27 29  1  0  0  0  0
 27 24  1  0  0  0  0
 28 29  1  0  0  0  0
M  END
>  <MODEL>
1

>  <REMARK>
 VINA RESULT:      -9.3      0.000      0.000
  Name = 
  5 active torsions:
  status: ('A' for Active; 'I' for Inactive)
    1  A    between atoms: C_2  and  C_6
    2  A    between atoms: C_7  and  C_28
    3  A    between atoms: C_13  and  P_17
    4  A    between atoms: C_13  and  C_28
    5  A    between atoms: P_17  and  N_26
                            x       y       z     vdW  Elec       q    Type
                         _______ _______ _______ _____ _____    ______ ____

>  <TORSDO>
F 5

$$$$
=
 OpenBabel11042410253D

 29 33  0  0  1  0  0  0  0  0999 V2000
  188.5210  177.4840  147.2590 C   0  0  0  0  0  3  0  0  0  0  0  0
  186.2460  178.1050  146.8770 N   0  0  0  0  0  0  0  0  0  0  0  0
  187.7160  177.7810  144.9420 C   0  0  0  0  0  0  0  0  0  0  0  0
  191.0180  176.8050  147.4320 C   0  0  0  0  0  3  0  0  0  0  0  0
  189.0070  177.4580  144.4440 C   0  0  0  0  0  0  0  0  0  0  0  0
  190.0020  177.1750  145.3930 C   0  0  0  0  0  0  0  0  0  0  0  0
  189.7690  177.1840  146.7270 C   0  0  1  0  0  3  0  0  0  0  0  0
  192.0170  176.5620  146.3680 N   0  0  0  0  0  0  0  0  0  0  0  0
  183.4880  178.9510  144.9990 C   0  0  0  0  0  3  0  0  0  0  0  0
  184.3710  178.7530  143.9730 N   0  0  0  0  0  0  0  0  0  0  0  0
  185.2680  178.4060  145.9960 C   0  0  0  0  0  0  0  0  0  0  0  0
  187.4800  177.7910  146.3750 C   0  0  0  0  0  0  0  0  0  0  0  0
  186.6960  178.1050  144.0830 N   0  0  0  0  0  2  0  0  0  0  0  0
  191.3380  176.7970  145.1540 N   0  0  0  0  0  0  0  0  0  0  0  0
  185.4930  178.4090  144.6120 C   0  0  0  0  0  0  0  0  0  0  0  0
  184.0020  178.7480  146.2500 N   0  0  0  0  0  0  0  0  0  0  0  0
  189.3080  177.4150  142.9900 C   0  0  0  0  0  0  0  0  0  0  0  0
  189.8740  177.3190  140.2380 C   0  0  0  0  0  0  0  0  0  0  0  0
  190.2130  176.4700  142.4800 C   0  0  0  0  0  3  0  0  0  0  0  0
  190.4930  176.4210  141.1120 C   0  0  0  0  0  3  0  0  0  0  0  0
  188.9660  178.2580  140.7330 C   0  0  0  0  0  3  0  0  0  0  0  0
  188.6850  178.3060  142.1020 C   0  0  0  0  0  3  0  0  0  0  0  0
  190.1590  177.2550  138.7780 C   0  0  0  0  0  2  0  0  0  0  0  0
  188.9250  176.7910  138.0260 C   0  0  0  0  0  2  0  0  0  0  0  0
  188.6430  177.8700  135.5380 O   0  0  0  0  0  0  0  0  0  0  0  0
  189.0010  179.5990  137.4670 O   0  0  0  0  0  1  0  0  0  0  0  0
  188.2960  178.1400  136.9850 P   0  0  2  0  0  0  0  0  0  0  0  0
  186.3100  178.6530  138.4280 O   0  0  0  0  0  1  0  0  0  0  0  0
  186.5570  178.2530  137.1590 N   0  0  0  0  0  2  0  0  0  0  0  0
  3 12  1  0  0  0  0
  5  3  2  0  0  0  0
  5  6  1  0  0  0  0
  6  7  1  0  0  0  0
  7  1  1  6  0  0  0
  7  4  1  0  0  0  0
  8  4  2  0  0  0  0
  9 16  2  0  0  0  0
 10 15  2  0  0  0  0
 10  9  1  0  0  0  0
 11 16  1  0  0  0  0
 11  2  2  0  0  0  0
 12  2  1  0  0  0  0
 12  1  2  0  0  0  0
 13 15  1  0  0  0  0
 13  3  1  0  0  0  0
 14  6  2  0  0  0  0
 14  8  1  0  0  0  0
 15 11  1  0  0  0  0
 17  5  1  0  0  0  0
 18 21  2  0  0  0  0
 18 20  1  0  0  0  0
 19 17  1  0  0  0  0
 20 19  2  0  0  0  0
 21 22  1  0  0  0  0
 22 17  2  0  0  0  0
 23 18  1  0  0  0  0
 24 23  1  0  0  0  0
 27 25  2  6  0  0  0
 27 29  1  0  0  0  0
 27 26  1  0  0  0  0
 27 24  1  0  0  0  0
 29 28  1  0  0  0  0
M  END
>  <MODEL>
2

>  <REMARK>
 VINA RESULT:      -9.3      2.516      3.155
  Name = 
  5 active torsions:
  status: ('A' for Active; 'I' for Inactive)
    1  A    between atoms: C_2  and  C_6
    2  A    between atoms: C_7  and  C_28
    3  A    between atoms: C_13  and  P_17
    4  A    between atoms: C_13  and  C_28
    5  A    between atoms: P_17  and  N_26
                            x       y       z     vdW  Elec       q    Type
                         _______ _______ _______ _____ _____    ______ ____

>  <TORSDO>
F 5

$$$$
=
 OpenBabel11042410253D

 29 33  0  0  0  0  0  0  0  0999 V2000
  190.7290  177.0110  144.9450 C   0  0  0  0  0  3  0  0  0  0  0  0
  191.1110  177.0430  142.5860 N   0  0  0  0  0  0  0  0  0  0  0  0
  188.8570  177.5310  143.4180 C   0  0  0  0  0  0  0  0  0  0  0  0
  190.0830  177.0410  147.4560 C   0  0  0  0  0  3  0  0  0  0  0  0
  187.9820  177.6770  144.5280 C   0  0  0  0  0  0  0  0  0  0  0  0
  188.5320  177.4660  145.8030 C   0  0  0  0  0  0  0  0  0  0  0  0
  189.8340  177.1540  145.9990 C   0  0  0  0  0  0  0  0  0  0  0  0
  188.7850  177.3270  148.1050 N   0  0  0  0  0  2  0  0  0  0  0  0
  190.2650  177.3710  139.2660 C   0  0  0  0  0  3  0  0  0  0  0  0
  189.0360  177.6310  139.8080 N   0  0  0  0  0  0  0  0  0  0  0  0
  190.6130  177.2160  141.3430 C   0  0  0  0  0  0  0  0  0  0  0  0
  190.2510  177.1940  143.6410 C   0  0  0  0  0  0  0  0  0  0  0  0
  188.3910  177.6860  142.1360 N   0  0  0  0  0  2  0  0  0  0  0  0
  187.8860  177.5830  147.0500 N   0  0  0  0  0  0  0  0  0  0  0  0
  189.2660  177.5310  141.1200 C   0  0  0  0  0  0  0  0  0  0  0  0
  191.2530  177.1110  140.1750 N   0  0  0  0  0  0  0  0  0  0  0  0
  186.5500  178.0360  144.3670 C   0  0  0  0  0  0  0  0  0  0  0  0
  183.8350  178.7010  144.0590 C   0  0  0  0  0  0  0  0  0  0  0  0
  185.9190  177.9000  143.1200 C   0  0  0  0  0  3  0  0  0  0  0  0
  184.5690  178.2290  142.9660 C   0  0  0  0  0  3  0  0  0  0  0  0
  184.4500  178.8320  145.3060 C   0  0  0  0  0  3  0  0  0  0  0  0
  185.8000  178.5010  145.4590 C   0  0  0  0  0  3  0  0  0  0  0  0
  182.3930  179.0350  143.8990 C   0  0  0  0  0  2  0  0  0  0  0  0
  181.9880  178.9110  142.4420 C   0  0  0  0  0  2  0  0  0  0  0  0
  179.8300  179.2100  140.8020 O   0  0  0  0  0  0  0  0  0  0  0  0
  179.9150  180.8460  142.8410 O   0  0  0  0  0  1  0  0  0  0  0  0
  180.2200  179.2880  142.2610 P   0  0  2  0  0  0  0  0  0  0  0  0
  178.9390  178.7370  144.3460 O   0  0  0  0  0  1  0  0  0  0  0  0
  179.2770  178.1340  143.1820 N   0  0  0  0  0  2  0  0  0  0  0  0
  1  7  1  0  0  0  0
  2 12  1  0  0  0  0
  3 12  1  0  0  0  0
  3  5  2  0  0  0  0
  4  8  1  0  0  0  0
  5  6  1  0  0  0  0
  6  7  1  0  0  0  0
  6 14  2  0  0  0  0
  7  4  2  0  0  0  0
  9 10  1  0  0  0  0
  9 16  2  0  0  0  0
 10 15  2  0  0  0  0
 11  2  2  0  0  0  0
 12  1  2  0  0  0  0
 13  3  1  0  0  0  0
 14  8  1  0  0  0  0
 15 11  1  0  0  0  0
 15 13  1  0  0  0  0
 16 11  1  0  0  0  0
 17  5  1  0  0  0  0
 17 22  1  0  0  0  0
 18 21  1  0  0  0  0
 19 17  2  0  0  0  0
 20 19  1  0  0  0  0
 20 18  2  0  0  0  0
 21 22  2  0  0  0  0
 23 18  1  0  0  0  0
 24 23  1  0  0  0  0
 27 25  2  6  0  0  0
 27 24  1  0  0  0  0
 27 26  1  0  0  0  0
 27 29  1  0  0  0  0
 29 28  1  0  0  0  0
M  END
>  <MODEL>
3

>  <REMARK>
 VINA RESULT:      -9.2      5.224      7.876
  Name = 
  5 active torsions:
  status: ('A' for Active; 'I' for Inactive)
    1  A    between atoms: C_2  and  C_6
    2  A    between atoms: C_7  and  C_28
    3  A    between atoms: C_13  and  P_17
    4  A    between atoms: C_13  and  C_28
    5  A    between atoms: P_17  and  N_26
                            x       y       z     vdW  Elec       q    Type
                         _______ _______ _______ _____ _____    ______ ____

>  <TORSDO>
F 5

$$$$
=
 OpenBabel11042410253D

 29 33  0  0  1  0  0  0  0  0999 V2000
  188.2080  177.6840  147.2140 C   0  0  0  0  0  3  0  0  0  0  0  0
  185.9520  178.2540  146.6710 N   0  0  0  0  0  0  0  0  0  0  0  0
  187.5320  177.8400  144.8420 C   0  0  0  0  0  0  0  0  0  0  0  0
  190.6980  177.0470  147.5630 C   0  0  0  0  0  3  0  0  0  0  0  0
  188.8520  177.5050  144.4350 C   0  0  0  0  0  0  0  0  0  0  0  0
  189.7950  177.2880  145.4540 C   0  0  0  0  0  0  0  0  0  0  0  0
  189.4870  177.3700  146.7690 C   0  0  1  0  0  3  0  0  0  0  0  0
  191.7570  176.7570  146.5720 N   0  0  0  0  0  0  0  0  0  0  0  0
  183.2970  178.9580  144.5970 C   0  0  0  0  0  3  0  0  0  0  0  0
  184.2380  178.7140  143.6340 N   0  0  0  0  0  0  0  0  0  0  0  0
  185.0240  178.4930  145.7200 C   0  0  0  0  0  0  0  0  0  0  0  0
  187.2150  177.9270  146.2560 C   0  0  0  0  0  0  0  0  0  0  0  0
  186.5590  178.1020  143.9100 N   0  0  0  0  0  2  0  0  0  0  0  0
  191.1460  176.9130  145.3110 N   0  0  0  0  0  0  0  0  0  0  0  0
  185.3250  178.4200  144.3540 C   0  0  0  0  0  0  0  0  0  0  0  0
  183.7420  178.8330  145.8840 N   0  0  0  0  0  0  0  0  0  0  0  0
  189.2350  177.3840  143.0060 C   0  0  0  0  0  0  0  0  0  0  0  0
  189.9670  177.1690  140.3000 C   0  0  0  0  0  0  0  0  0  0  0  0
  188.7870  178.3280  142.0680 C   0  0  0  0  0  3  0  0  0  0  0  0
  189.1520  178.2230  140.7230 C   0  0  0  0  0  3  0  0  0  0  0  0
  190.4260  176.2290  141.2260 C   0  0  0  0  0  3  0  0  0  0  0  0
  190.0610  176.3360  142.5710 C   0  0  0  0  0  3  0  0  0  0  0  0
  190.3710  177.0670  138.8700 C   0  0  0  0  0  2  0  0  0  0  0  0
  189.3860  176.1980  138.1120 C   0  0  0  0  0  2  0  0  0  0  0  0
  187.0350  177.5460  137.8050 O   0  0  0  0  0  1  0  0  0  0  0  0
  187.9650  176.4190  135.6350 O   0  0  0  0  0  0  0  0  0  0  0  0
  188.3220  177.2380  137.0710 P   0  0  2  0  0  0  0  0  0  0  0  0
  188.5350  179.7170  137.3890 O   0  0  0  0  0  1  0  0  0  0  0  0
  189.1510  178.7330  136.6920 N   0  0  0  0  0  2  0  0  0  0  0  0
  3 12  1  0  0  0  0
  5  3  2  0  0  0  0
  5  6  1  0  0  0  0
  6  7  1  0  0  0  0
  7  1  1  6  0  0  0
  7  4  1  0  0  0  0
  8  4  2  0  0  0  0
  9 16  2  0  0  0  0
 10 15  2  0  0  0  0
 10  9  1  0  0  0  0
 11 16  1  0  0  0  0
 11  2  2  0  0  0  0
 12  2  1  0  0  0  0
 12  1  2  0  0  0  0
 13 15  1  0  0  0  0
 13  3  1  0  0  0  0
 14  6  2  0  0  0  0
 14  8  1  0  0  0  0
 15 11  1  0  0  0  0
 17  5  1  0  0  0  0
 18 20  2  0  0  0  0
 18 21  1  0  0  0  0
 19 17  2  0  0  0  0
 20 19  1  0  0  0  0
 21 22  2  0  0  0  0
 22 17  1  0  0  0  0
 23 18  1  0  0  0  0
 24 23  1  0  0  0  0
 27 26  2  6  0  0  0
 27 25  1  0  0  0  0
 27 24  1  0  0  0  0
 29 27  1  0  0  0  0
 29 28  1  0  0  0  0
M  END
>  <MODEL>
4

>  <REMARK>
 VINA RESULT:      -8.8      2.292      2.748
  Name = 
  5 active torsions:
  status: ('A' for Active; 'I' for Inactive)
    1  A    between atoms: C_2  and  C_6
    2  A    between atoms: C_7  and  C_28
    3  A    between atoms: C_13  and  P_17
    4  A    between atoms: C_13  and  C_28
    5  A    between atoms: P_17  and  N_26
                            x       y       z     vdW  Elec       q    Type
                         _______ _______ _______ _____ _____    ______ ____

>  <TORSDO>
F 5

$$$$
=
 OpenBabel11042410253D

 29 33  0  0  1  0  0  0  0  0999 V2000
  188.6430  177.4400  147.3860 C   0  0  0  0  0  3  0  0  0  0  0  0
  186.4030  178.1040  146.8890 N   0  0  0  0  0  0  0  0  0  0  0  0
  187.9540  177.7200  145.0300 C   0  0  0  0  0  0  0  0  0  0  0  0
  191.1140  176.7110  147.6860 C   0  0  0  0  0  3  0  0  0  0  0  0
  189.2600  177.3630  144.5980 C   0  0  0  0  0  0  0  0  0  0  0  0
  190.2030  177.0720  145.5970 C   0  0  0  0  0  0  0  0  0  0  0  0
  189.9080  177.1060  146.9180 C   0  0  1  0  0  3  0  0  0  0  0  0
  192.1560  176.4310  146.6740 N   0  0  0  0  0  0  0  0  0  0  0  0
  183.7560  178.9810  144.8710 C   0  0  0  0  0  3  0  0  0  0  0  0
  184.6810  178.7490  143.8910 N   0  0  0  0  0  0  0  0  0  0  0  0
  185.4750  178.4130  145.9580 C   0  0  0  0  0  0  0  0  0  0  0  0
  187.6520  177.7560  146.4490 C   0  0  0  0  0  0  0  0  0  0  0  0
  186.9840  178.0530  144.1190 N   0  0  0  0  0  2  0  0  0  0  0  0
  191.5410  176.6620  145.4260 N   0  0  0  0  0  0  0  0  0  0  0  0
  185.7640  178.3910  144.5870 C   0  0  0  0  0  0  0  0  0  0  0  0
  184.2060  178.7860  146.1470 N   0  0  0  0  0  0  0  0  0  0  0  0
  189.6290  177.2920  143.1610 C   0  0  0  0  0  0  0  0  0  0  0  0
  190.3160  177.1710  140.4370 C   0  0  0  0  0  0  0  0  0  0  0  0
  188.6550  177.0060  142.1910 C   0  0  0  0  0  3  0  0  0  0  0  0
  188.9950  176.9470  140.8370 C   0  0  0  0  0  3  0  0  0  0  0  0
  191.2920  177.4650  141.3930 C   0  0  0  0  0  3  0  0  0  0  0  0
  190.9500  177.5250  142.7470 C   0  0  0  0  0  3  0  0  0  0  0  0
  190.6750  177.1260  138.9930 C   0  0  0  0  0  2  0  0  0  0  0  0
  192.1360  176.7500  138.8310 C   0  0  0  0  0  2  0  0  0  0  0  0
  192.1640  176.0260  136.2020 O   0  0  0  0  0  0  0  0  0  0  0  0
  191.0880  174.2820  137.8260 O   0  0  0  0  0  1  0  0  0  0  0  0
  192.3000  175.4360  137.5880 P   0  0  2  0  0  0  0  0  0  0  0  0
  194.7780  175.5110  137.2040 O   0  0  0  0  0  1  0  0  0  0  0  0
  193.8670  174.6700  137.7470 N   0  0  0  0  0  2  0  0  0  0  0  0
  3 12  1  0  0  0  0
  5  3  2  0  0  0  0
  5  6  1  0  0  0  0
  6  7  1  0  0  0  0
  7  1  1  6  0  0  0
  7  4  1  0  0  0  0
  8  4  2  0  0  0  0
  9 16  2  0  0  0  0
 10 15  2  0  0  0  0
 10  9  1  0  0  0  0
 11 16  1  0  0  0  0
 11  2  2  0  0  0  0
 12  2  1  0  0  0  0
 12  1  2  0  0  0  0
 13 15  1  0  0  0  0
 13  3  1  0  0  0  0
 14  6  2  0  0  0  0
 14  8  1  0  0  0  0
 15 11  1  0  0  0  0
 17  5  1  0  0  0  0
 18 20  2  0  0  0  0
 18 21  1  0  0  0  0
 19 17  2  0  0  0  0
 20 19  1  0  0  0  0
 21 22  2  0  0  0  0
 22 17  1  0  0  0  0
 23 18  1  0  0  0  0
 24 23  1  0  0  0  0
 27 25  2  6  0  0  0
 27 29  1  0  0  0  0
 27 26  1  0  0  0  0
 27 24  1  0  0  0  0
 28 29  1  0  0  0  0
M  END
>  <MODEL>
5

>  <REMARK>
 VINA RESULT:      -8.8      1.602      2.118
  Name = 
  5 active torsions:
  status: ('A' for Active; 'I' for Inactive)
    1  A    between atoms: C_2  and  C_6
    2  A    between atoms: C_7  and  C_28
    3  A    between atoms: C_13  and  P_17
    4  A    between atoms: C_13  and  C_28
    5  A    between atoms: P_17  and  N_26
                            x       y       z     vdW  Elec       q    Type
                         _______ _______ _______ _____ _____    ______ ____

>  <TORSDO>
F 5

$$$$
=
 OpenBabel11042410253D

 29 33  0  0  1  0  0  0  0  0999 V2000
  190.4490  177.5400  141.6580 C   0  0  0  0  0  3  0  0  0  0  0  0
  191.1720  177.0880  143.8900 N   0  0  0  0  0  0  0  0  0  0  0  0
  188.8150  177.6440  143.5090 C   0  0  0  0  0  0  0  0  0  0  0  0
  189.4390  178.0610  139.3260 C   0  0  0  0  0  3  0  0  0  0  0  0
  187.7860  177.9910  142.5910 C   0  0  0  0  0  0  0  0  0  0  0  0
  188.1520  178.1080  141.2400 C   0  0  0  0  0  0  0  0  0  0  0  0
  189.4130  177.8910  140.8000 C   0  0  0  0  0  0  0  0  0  0  0  0
  188.0510  178.3960  138.9410 N   0  0  0  0  0  0  0  0  0  0  0  0
  190.8350  176.7490  147.2990 C   0  0  0  0  0  3  0  0  0  0  0  0
  189.5380  177.0680  147.0040 N   0  0  0  0  0  0  0  0  0  0  0  0
  190.8630  176.9880  145.2010 C   0  0  0  0  0  0  0  0  0  0  0  0
  190.1640  177.4170  143.0240 C   0  0  1  0  0  3  0  0  0  0  0  0
  188.5490  177.5440  144.8510 N   0  0  0  0  0  2  0  0  0  0  0  0
  187.3170  178.4030  140.1440 N   0  0  0  0  0  0  0  0  0  0  0  0
  189.5650  177.2170  145.6770 C   0  0  0  0  0  0  0  0  0  0  0  0
  191.6740  176.6920  146.2210 N   0  0  0  0  0  0  0  0  0  0  0  0
  186.3830  178.2210  143.0220 C   0  0  0  0  0  0  0  0  0  0  0  0
  183.7320  178.6700  143.8450 C   0  0  0  0  0  0  0  0  0  0  0  0
  186.0690  178.3400  144.3860 C   0  0  0  0  0  3  0  0  0  0  0  0
  184.7520  178.5650  144.7950 C   0  0  0  0  0  3  0  0  0  0  0  0
  184.0350  178.5620  142.4840 C   0  0  0  0  0  3  0  0  0  0  0  0
  185.3530  178.3390  142.0760 C   0  0  0  0  0  3  0  0  0  0  0  0
  182.3320  178.9270  144.2790 C   0  0  0  0  0  2  0  0  0  0  0  0
  181.4480  179.1720  143.0710 C   0  0  0  0  0  2  0  0  0  0  0  0
  179.0010  179.8460  144.0690 O   0  0  0  0  0  0  0  0  0  0  0  0
  179.7540  177.3840  144.5320 O   0  0  0  0  0  1  0  0  0  0  0  0
  179.7410  178.6810  143.4480 P   0  0  2  0  0  0  0  0  0  0  0  0
  179.2800  176.9070  141.7360 O   0  0  0  0  0  1  0  0  0  0  0  0
  178.9310  178.1930  141.9740 N   0  0  0  0  0  2  0  0  0  0  0  0
  2 11  2  0  0  0  0
  3 13  1  0  0  0  0
  4  7  1  0  0  0  0
  5 17  1  0  0  0  0
  5  3  2  0  0  0  0
  6  5  1  0  0  0  0
  7  6  1  0  0  0  0
  7  1  2  0  0  0  0
  8  4  2  0  0  0  0
  8 14  1  0  0  0  0
 10  9  1  0  0  0  0
 11 15  1  0  0  0  0
 11 16  1  0  0  0  0
 12  1  1  1  0  0  0
 12  3  1  0  0  0  0
 12  2  1  0  0  0  0
 13 15  1  0  0  0  0
 14  6  2  0  0  0  0
 15 10  2  0  0  0  0
 16  9  2  0  0  0  0
 17 19  1  0  0  0  0
 18 23  1  0  0  0  0
 18 20  1  0  0  0  0
 19 20  2  0  0  0  0
 21 18  2  0  0  0  0
 22 21  1  0  0  0  0
 22 17  2  0  0  0  0
 24 27  1  0  0  0  0
 24 23  1  0  0  0  0
 27 25  2  1  0  0  0
 27 26  1  0  0  0  0
 28 29  1  0  0  0  0
 29 27  1  0  0  0  0
M  END
>  <MODEL>
6

>  <REMARK>
 VINA RESULT:      -8.7      5.555      8.706
  Name = 
  5 active torsions:
  status: ('A' for Active; 'I' for Inactive)
    1  A    between atoms: C_2  and  C_6
    2  A    between atoms: C_7  and  C_28
    3  A    between atoms: C_13  and  P_17
    4  A    between atoms: C_13  and  C_28
    5  A    between atoms: P_17  and  N_26
                            x       y       z     vdW  Elec       q    Type
                         _______ _______ _______ _____ _____    ______ ____

>  <TORSDO>
F 5

$$$$
=
 OpenBabel11042410253D

 29 33  0  0  0  0  0  0  0  0999 V2000
  183.5270  178.8920  140.8090 C   0  0  0  0  0  3  0  0  0  0  0  0
  185.4930  178.7450  139.4580 N   0  0  0  0  0  0  0  0  0  0  0  0
  185.7130  178.4770  141.8850 C   0  0  0  0  0  0  0  0  0  0  0  0
  181.5370  179.0070  142.4680 C   0  0  0  0  0  3  0  0  0  0  0  0
  185.0870  178.4450  143.1610 C   0  0  0  0  0  0  0  0  0  0  0  0
  183.6990  178.6540  143.1930 C   0  0  0  0  0  0  0  0  0  0  0  0
  182.9610  178.8630  142.0780 C   0  0  0  0  0  0  0  0  0  0  0  0
  181.5100  178.8530  143.9380 N   0  0  0  0  0  2  0  0  0  0  0  0
  188.8550  178.3710  138.8260 C   0  0  0  0  0  3  0  0  0  0  0  0
  188.8950  178.2340  140.1870 N   0  0  0  0  0  0  0  0  0  0  0  0
  186.8300  178.5710  139.3890 C   0  0  0  0  0  0  0  0  0  0  0  0
  184.9100  178.7040  140.6960 C   0  0  0  0  0  0  0  0  0  0  0  0
  187.0700  178.3160  141.7690 N   0  0  0  0  0  2  0  0  0  0  0  0
  182.8510  178.6350  144.3190 N   0  0  0  0  0  0  0  0  0  0  0  0
  187.6110  178.3620  140.5330 C   0  0  0  0  0  0  0  0  0  0  0  0
  187.6090  178.5790  138.3030 N   0  0  0  0  0  0  0  0  0  0  0  0
  185.8490  178.2010  144.4120 C   0  0  0  0  0  0  0  0  0  0  0  0
  187.2770  177.7360  146.7890 C   0  0  0  0  0  0  0  0  0  0  0  0
  185.6080  178.9820  145.5540 C   0  0  0  0  0  3  0  0  0  0  0  0
  186.3170  178.7510  146.7360 C   0  0  0  0  0  3  0  0  0  0  0  0
  187.5190  176.9470  145.6610 C   0  0  0  0  0  3  0  0  0  0  0  0
  186.8080  177.1790  144.4800 C   0  0  0  0  0  3  0  0  0  0  0  0
  188.0190  177.4770  148.0530 C   0  0  0  0  0  2  0  0  0  0  0  0
  189.3600  178.1870  148.0250 C   0  0  0  0  0  2  0  0  0  0  0  0
  190.1580  175.6510  147.4190 O   0  0  0  0  0  0  0  0  0  0  0  0
  192.0670  177.2660  148.1870 O   0  0  0  0  0  1  0  0  0  0  0  0
  190.6240  177.0870  147.3240 P   0  0  2  0  0  0  0  0  0  0  0  0
  191.6380  176.5070  145.1050 O   0  0  0  0  0  1  0  0  0  0  0  0
  190.8990  177.5040  145.6450 N   0  0  0  0  0  2  0  0  0  0  0  0
  1  7  1  0  0  0  0
  2 12  1  0  0  0  0
  3  5  2  0  0  0  0
  4  8  1  0  0  0  0
  5  6  1  0  0  0  0
  5 17  1  0  0  0  0
  6 14  2  0  0  0  0
  7  4  2  0  0  0  0
  7  6  1  0  0  0  0
  8 14  1  0  0  0  0
  9 10  1  0  0  0  0
 10 15  2  0  0  0  0
 11  2  2  0  0  0  0
 11 15  1  0  0  0  0
 12  1  2  0  0  0  0
 12  3  1  0  0  0  0
 13  3  1  0  0  0  0
 15 13  1  0  0  0  0
 16  9  2  0  0  0  0
 16 11  1  0  0  0  0
 17 22  2  0  0  0  0
 17 19  1  0  0  0  0
 18 23  1  0  0  0  0
 19 20  2  0  0  0  0
 20 18  1  0  0  0  0
 21 18  2  0  0  0  0
 22 21  1  0  0  0  0
 24 23  1  0  0  0  0
 27 25  2  1  0  0  0
 27 24  1  0  0  0  0
 27 26  1  0  0  0  0
 28 29  1  0  0  0  0
 29 27  1  0  0  0  0
M  END
>  <MODEL>
7

>  <REMARK>
 VINA RESULT:      -8.6      4.078      6.849
  Name = 
  5 active torsions:
  status: ('A' for Active; 'I' for Inactive)
    1  A    between atoms: C_2  and  C_6
    2  A    between atoms: C_7  and  C_28
    3  A    between atoms: C_13  and  P_17
    4  A    between atoms: C_13  and  C_28
    5  A    between atoms: P_17  and  N_26
                            x       y       z     vdW  Elec       q    Type
                         _______ _______ _______ _____ _____    ______ ____

>  <TORSDO>
F 5

$$$$
=
 OpenBabel11042410253D

 29 33  0  0  1  0  0  0  0  0999 V2000
  191.0210  177.0460  141.8450 C   0  0  0  0  0  3  0  0  0  0  0  0
  191.5940  176.7890  144.1500 N   0  0  0  0  0  0  0  0  0  0  0  0
  189.3010  177.4390  143.5750 C   0  0  0  0  0  0  0  0  0  0  0  0
  190.1730  177.3770  139.4170 C   0  0  0  0  0  3  0  0  0  0  0  0
  188.3470  177.7480  142.5670 C   0  0  0  0  0  0  0  0  0  0  0  0
  188.7920  177.7000  141.2360 C   0  0  0  0  0  0  0  0  0  0  0  0
  190.0580  177.3650  140.8950 C   0  0  0  0  0  0  0  0  0  0  0  0
  188.8320  177.7500  138.9170 N   0  0  0  0  0  0  0  0  0  0  0  0
  191.0550  176.8310  147.5500 C   0  0  0  0  0  3  0  0  0  0  0  0
  189.7990  177.1930  147.1480 N   0  0  0  0  0  0  0  0  0  0  0  0
  191.2100  176.8460  145.4440 C   0  0  0  0  0  0  0  0  0  0  0  0
  190.6570  177.0840  143.1970 C   0  0  1  0  0  3  0  0  0  0  0  0
  188.9580  177.4960  144.9020 N   0  0  0  0  0  2  0  0  0  0  0  0
  188.0370  177.9270  140.0680 N   0  0  0  0  0  0  0  0  0  0  0  0
  189.9060  177.1990  145.8160 C   0  0  0  0  0  0  0  0  0  0  0  0
  191.9450  176.6120  146.5350 N   0  0  0  0  0  0  0  0  0  0  0  0
  186.9420  178.1030  142.8880 C   0  0  0  0  0  0  0  0  0  0  0  0
  184.2750  178.7680  143.4820 C   0  0  0  0  0  0  0  0  0  0  0  0
  186.1470  178.7760  141.9460 C   0  0  0  0  0  3  0  0  0  0  0  0
  184.8210  179.1050  142.2400 C   0  0  0  0  0  3  0  0  0  0  0  0
  185.0540  178.0910  144.4240 C   0  0  0  0  0  3  0  0  0  0  0  0
  186.3800  177.7610  144.1280 C   0  0  0  0  0  3  0  0  0  0  0  0
  182.8570  179.1020  143.7890 C   0  0  0  0  0  2  0  0  0  0  0  0
  181.9800  178.8060  142.5870 C   0  0  0  0  0  2  0  0  0  0  0  0
  180.0180  178.7370  144.4790 O   0  0  0  0  0  1  0  0  0  0  0  0
  179.2640  178.0610  142.0680 O   0  0  0  0  0  0  0  0  0  0  0  0
  180.2350  179.0660  143.0190 P   0  0  2  0  0  0  0  0  0  0  0  0
  179.8440  180.9280  141.3850 O   0  0  0  0  0  1  0  0  0  0  0  0
  179.8010  180.7370  142.7240 N   0  0  0  0  0  2  0  0  0  0  0  0
  2 11  2  0  0  0  0
  3 13  1  0  0  0  0
  4  7  1  0  0  0  0
  5 17  1  0  0  0  0
  5  3  2  0  0  0  0
  6  5  1  0  0  0  0
  7  6  1  0  0  0  0
  7  1  2  0  0  0  0
  8  4  2  0  0  0  0
  8 14  1  0  0  0  0
 10  9  1  0  0  0  0
 11 15  1  0  0  0  0
 11 16  1  0  0  0  0
 12  1  1  1  0  0  0
 12  3  1  0  0  0  0
 12  2  1  0  0  0  0
 13 15  1  0  0  0  0
 14  6  2  0  0  0  0
 15 10  2  0  0  0  0
 16  9  2  0  0  0  0
 17 22  1  0  0  0  0
 18 23  1  0  0  0  0
 18 21  1  0  0  0  0
 19 20  1  0  0  0  0
 19 17  2  0  0  0  0
 20 18  2  0  0  0  0
 22 21  2  0  0  0  0
 24 27  1  0  0  0  0
 24 23  1  0  0  0  0
 27 26  2  6  0  0  0
 27 25  1  0  0  0  0
 28 29  1  0  0  0  0
 29 27  1  0  0  0  0
M  END
>  <MODEL>
8

>  <REMARK>
 VINA RESULT:      -8.5      5.540      8.593
  Name = 
  5 active torsions:
  status: ('A' for Active; 'I' for Inactive)
    1  A    between atoms: C_2  and  C_6
    2  A    between atoms: C_7  and  C_28
    3  A    between atoms: C_13  and  P_17
    4  A    between atoms: C_13  and  C_28
    5  A    between atoms: P_17  and  N_26
                            x       y       z     vdW  Elec       q    Type
                         _______ _______ _______ _____ _____    ______ ____

>  <TORSDO>
F 5

$$$$
=
 OpenBabel11042410253D

 29 33  0  0  1  0  0  0  0  0999 V2000
  184.5720  178.6480  145.4380 C   0  0  0  0  0  3  0  0  0  0  0  0
  186.1560  178.4600  147.2160 N   0  0  0  0  0  0  0  0  0  0  0  0
  186.9240  178.0980  144.9160 C   0  0  0  0  0  0  0  0  0  0  0  0
  183.0360  178.8050  143.3540 C   0  0  0  0  0  3  0  0  0  0  0  0
  186.6110  178.0420  143.5310 C   0  0  0  0  0  0  0  0  0  0  0  0
  185.2750  178.2820  143.1700 C   0  0  0  0  0  0  0  0  0  0  0  0
  184.3110  178.5720  144.0750 C   0  0  0  0  0  0  0  0  0  0  0  0
  183.3520  178.6280  141.9200 N   0  0  0  0  0  0  0  0  0  0  0  0
  189.2370  177.8780  148.6370 C   0  0  0  0  0  3  0  0  0  0  0  0
  189.5860  177.6880  147.3280 N   0  0  0  0  0  0  0  0  0  0  0  0
  187.4260  178.2120  147.6040 C   0  0  0  0  0  0  0  0  0  0  0  0
  185.8800  178.4070  145.8770 C   0  0  1  0  0  3  0  0  0  0  0  0
  188.1980  177.8400  145.3560 N   0  0  0  0  0  2  0  0  0  0  0  0
  184.7270  178.3180  141.8730 N   0  0  0  0  0  0  0  0  0  0  0  0
  188.4350  177.9020  146.6830 C   0  0  0  0  0  0  0  0  0  0  0  0
  187.9240  178.1980  148.8440 N   0  0  0  0  0  0  0  0  0  0  0  0
  187.6370  177.7460  142.4980 C   0  0  0  0  0  0  0  0  0  0  0  0
  189.5830  177.2010  140.5440 C   0  0  0  0  0  0  0  0  0  0  0  0
  187.7130  178.5220  141.3300 C   0  0  0  0  0  3  0  0  0  0  0  0
  188.6810  178.2530  140.3590 C   0  0  0  0  0  3  0  0  0  0  0  0
  189.5230  176.4280  141.7060 C   0  0  0  0  0  3  0  0  0  0  0  0
  188.5540  176.6990  142.6770 C   0  0  0  0  0  3  0  0  0  0  0  0
  190.6270  176.9260  139.5180 C   0  0  0  0  0  2  0  0  0  0  0  0
  190.1490  177.3840  138.1530 C   0  0  0  0  0  2  0  0  0  0  0  0
  190.0830  176.2160  135.6890 O   0  0  0  0  0  0  0  0  0  0  0  0
  188.0660  175.6380  137.2510 O   0  0  0  0  0  1  0  0  0  0  0  0
  189.7250  175.9420  137.1330 P   0  0  2  0  0  0  0  0  0  0  0  0
  189.8050  173.4670  137.5290 O   0  0  0  0  0  1  0  0  0  0  0  0
  190.6110  174.5420  137.7000 N   0  0  0  0  0  2  0  0  0  0  0  0
  2 11  2  0  0  0  0
  3 13  1  0  0  0  0
  3 12  1  0  0  0  0
  4  7  1  0  0  0  0
  5  3  2  0  0  0  0
  6  5  1  0  0  0  0
  6  7  1  0  0  0  0
  7  1  2  0  0  0  0
  8  4  2  0  0  0  0
  9 16  2  0  0  0  0
 10  9  1  0  0  0  0
 11 16  1  0  0  0  0
 12  1  1  1  0  0  0
 12  2  1  0  0  0  0
 13 15  1  0  0  0  0
 14  8  1  0  0  0  0
 14  6  2  0  0  0  0
 15 10  2  0  0  0  0
 15 11  1  0  0  0  0
 17 22  1  0  0  0  0
 17  5  1  0  0  0  0
 18 21  1  0  0  0  0
 19 17  2  0  0  0  0
 20 18  2  0  0  0  0
 20 19  1  0  0  0  0
 21 22  2  0  0  0  0
 23 18  1  0  0  0  0
 24 23  1  0  0  0  0
 27 25  2  6  0  0  0
 27 26  1  0  0  0  0
 27 29  1  0  0  0  0
 27 24  1  0  0  0  0
 28 29  1  0  0  0  0
M  END
>  <MODEL>
9

>  <REMARK>
 VINA RESULT:      -8.5      1.673      4.498
  Name = 
  5 active torsions:
  status: ('A' for Active; 'I' for Inactive)
    1  A    between atoms: C_2  and  C_6
    2  A    between atoms: C_7  and  C_28
    3  A    between atoms: C_13  and  P_17
    4  A    between atoms: C_13  and  C_28
    5  A    between atoms: P_17  and  N_26
                            x       y       z     vdW  Elec       q    Type
                         _______ _______ _______ _____ _____    ______ ____

>  <TORSDO>
F 5

$$$$
