=
 OpenBabel11032420283D

 39 44  0  0  1  0  0  0  0  0999 V2000
  183.7000  178.5010  141.6190 C   0  0  0  0  0  0  0  0  0  0  0  0
  183.1290  178.9950  142.9190 C   0  0  0  0  0  3  0  0  0  0  0  0
  181.8750  176.2540  139.4450 C   0  0  1  0  0  3  0  0  0  0  0  0
  179.7460  176.5340  140.4470 C   0  0  1  0  0  3  0  0  0  0  0  0
  181.1200  176.7070  140.5600 N   0  0  0  0  0  0  0  0  0  0  0  0
  178.9710  177.1510  141.3130 N   0  0  0  0  0  2  0  0  0  0  0  0
  178.9310  174.6990  139.0390 C   0  0  0  0  0  1  0  0  0  0  0  0
  179.4090  176.1370  139.0540 C   0  0  2  0  0  3  0  0  0  0  0  0
  179.6170  177.9060  142.3980 C   0  0  0  0  0  2  0  0  0  0  0  0
  180.7960  176.2410  138.3300 C   0  0  0  0  0  2  0  0  0  0  0  0
  183.1160  177.2270  139.4180 C   0  0  2  0  0  3  0  0  0  0  0  0
  182.8660  178.1040  140.6410 C   0  0  0  0  0  0  0  0  0  0  0  0
  180.9020  178.3180  142.2210 C   0  0  0  0  0  0  0  0  0  0  0  0
  181.4420  178.0490  140.8770 C   0  0  0  0  0  0  0  0  0  0  0  0
  181.8110  178.9090  143.2150 C   0  0  0  0  0  3  0  0  0  0  0  0
  183.2020  178.0230  138.0850 C   0  0  1  0  0  3  0  0  0  0  0  0
  186.1120  178.5440  137.5970 N   0  0  0  0  0  2  0  0  0  0  0  0
  185.3370  179.3460  138.5280 C   0  0  0  0  0  2  0  0  0  0  0  0
  183.8810  179.4040  138.0840 C   0  0  2  0  0  3  0  0  0  0  0  0
  183.6140  177.2600  136.9590 O   0  0  0  0  0  0  0  0  0  0  0  0
  185.9220  177.1550  137.9850 C   0  0  1  0  0  3  0  0  0  0  0  0
  184.7980  176.4930  137.1650 C   0  0  1  0  0  3  0  0  0  0  0  0
  183.7810  174.5940  136.6470 C   0  0  0  0  0  1  0  0  0  0  0  0
  184.4860  175.2260  137.6710 O   0  0  0  0  0  0  0  0  0  0  0  0
  187.2360  176.3780  137.8830 C   0  0  0  0  0  2  0  0  0  0  0  0
  188.4640  177.2450  138.1380 C   0  0  0  0  0  2  0  0  0  0  0  0
  188.7250  177.3180  139.5060 O   0  0  0  0  0  1  0  0  0  0  0  0
  183.0870  180.4460  138.8610 C   0  0  0  0  0  2  0  0  0  0  0  0
  180.7680  181.2040  138.9760 C   0  0  0  0  0  2  0  0  0  0  0  0
  181.7340  180.6340  138.2640 C   0  0  0  0  0  3  0  0  0  0  0  0
  185.1770  178.3680  141.4700 C   0  0  0  0  0  2  0  0  0  0  0  0
  185.8110  178.8260  142.6250 O   0  0  0  0  0  0  0  0  0  0  0  0
  186.6510  177.7800  143.0050 C   0  0  0  0  0  2  0  0  0  0  0  0
  187.1880  177.8750  147.2550 C   0  0  0  0  0  3  0  0  0  0  0  0
  186.8310  177.7930  144.4820 C   0  0  0  0  0  0  0  0  0  0  0  0
  188.2250  177.4290  146.4290 C   0  0  0  0  0  3  0  0  0  0  0  0
  188.0480  177.3910  145.0440 C   0  0  0  0  0  3  0  0  0  0  0  0
  185.7980  178.2490  145.3080 C   0  0  0  0  0  3  0  0  0  0  0  0
  185.9750  178.2870  146.6950 C   0  0  0  0  0  3  0  0  0  0  0  0
  1  2  1  0  0  0  0
  2 15  2  0  0  0  0
  3 10  1  6  0  0  0
  3  5  1  0  0  0  0
  4  5  1  0  0  0  0
  4  6  1  6  0  0  0
  5 14  1  0  0  0  0
  6  9  1  0  0  0  0
  8  7  1  1  0  0  0
  8  4  1  0  0  0  0
 10  8  1  0  0  0  0
 11  3  1  0  0  0  0
 11 12  1  1  0  0  0
 12 14  1  0  0  0  0
 12  1  2  0  0  0  0
 13  9  1  0  0  0  0
 13 15  1  0  0  0  0
 14 13  2  0  0  0  0
 16 20  1  6  0  0  0
 16 11  1  0  0  0  0
 17 21  1  0  0  0  0
 17 18  1  0  0  0  0
 19 16  1  0  0  0  0
 19 18  1  0  0  0  0
 19 28  1  1  0  0  0
 20 22  1  0  0  0  0
 21 25  1  6  0  0  0
 22 24  1  1  0  0  0
 22 21  1  0  0  0  0
 23 24  1  0  0  0  0
 25 26  1  0  0  0  0
 26 27  1  0  0  0  0
 30 28  1  0  0  0  0
 30 29  2  0  0  0  0
 31  1  1  0  0  0  0
 31 32  1  0  0  0  0
 32 33  1  0  0  0  0
 33 35  1  0  0  0  0
 35 37  2  0  0  0  0
 35 38  1  0  0  0  0
 36 34  2  0  0  0  0
 37 36  1  0  0  0  0
 38 39  2  0  0  0  0
 39 34  1  0  0  0  0
M  END
>  <MODEL>
1

>  <REMARK>
 VINA RESULT:      -6.4      0.000      0.000
  Name = 
  10 active torsions:
  status: ('A' for Active; 'I' for Inactive)
    1  A    between atoms: C_1  and  C_22
    2  A    between atoms: C_4  and  C_23
    3  A    between atoms: O_5  and  C_22
    4  A    between atoms: O_5  and  C_31
    5  A    between atoms: C_8  and  C_9
    6  A    between atoms: C_9  and  C_33
    7  A    between atoms: C_16  and  C_21
    8  A    between atoms: C_16  and  C_26
    9  A    between atoms: C_20  and  C_31
   10  A    between atoms: O_34  and  C_35
                            x       y       z     vdW  Elec       q    Type
                         _______ _______ _______ _____ _____    ______ ____

>  <TORSDO>
F 10

$$$$
=
 OpenBabel11032420283D

 39 44  0  0  1  0  0  0  0  0999 V2000
  182.5260  175.7200  138.4630 C   0  0  0  0  0  0  0  0  0  0  0  0
  181.1350  175.6530  139.0270 C   0  0  0  0  0  3  0  0  0  0  0  0
  184.1320  172.8480  136.9530 C   0  0  1  0  0  3  0  0  0  0  0  0
  182.1880  171.5140  136.7100 C   0  0  1  0  0  3  0  0  0  0  0  0
  182.7760  172.6200  137.3110 N   0  0  0  0  0  0  0  0  0  0  0  0
  180.8810  171.3870  136.7900 N   0  0  0  0  0  2  0  0  0  0  0  0
  183.6450  169.6520  136.0570 C   0  0  0  0  0  1  0  0  0  0  0  0
  183.0830  170.9970  135.6410 C   0  0  2  0  0  3  0  0  0  0  0  0
  180.1420  172.3750  137.5920 C   0  0  0  0  0  2  0  0  0  0  0  0
  184.2310  172.0660  135.6160 C   0  0  0  0  0  2  0  0  0  0  0  0
  184.2790  174.4160  137.0360 C   0  0  2  0  0  3  0  0  0  0  0  0
  182.8930  174.8460  137.5080 C   0  0  0  0  0  0  0  0  0  0  0  0
  180.7230  173.5840  137.8210 C   0  0  0  0  0  0  0  0  0  0  0  0
  181.9970  173.7860  137.1090 C   0  0  0  0  0  0  0  0  0  0  0  0
  180.2780  174.6470  138.7340 C   0  0  0  0  0  3  0  0  0  0  0  0
  184.6920  175.0330  135.6700 C   0  0  1  0  0  3  0  0  0  0  0  0
  186.2980  177.4830  136.3010 N   0  0  0  0  0  2  0  0  0  0  0  0
  184.8460  177.4860  136.3520 C   0  0  0  0  0  2  0  0  0  0  0  0
  184.2840  176.4830  135.3530 C   0  0  2  0  0  3  0  0  0  0  0  0
  186.0420  174.7980  135.2920 O   0  0  0  0  0  0  0  0  0  0  0  0
  186.7420  176.3790  137.1370 C   0  0  1  0  0  3  0  0  0  0  0  0
  187.0020  175.1110  136.2990 C   0  0  1  0  0  3  0  0  0  0  0  0
  188.1400  173.2140  136.4090 C   0  0  0  0  0  1  0  0  0  0  0  0
  187.2380  174.0050  137.1220 O   0  0  0  0  0  0  0  0  0  0  0  0
  187.9680  176.7790  137.9600 C   0  0  0  0  0  2  0  0  0  0  0  0
  187.7280  178.0090  138.8290 C   0  0  0  0  0  2  0  0  0  0  0  0
  188.7230  178.9590  138.6040 O   0  0  0  0  0  1  0  0  0  0  0  0
  182.7800  176.6390  135.1680 C   0  0  0  0  0  2  0  0  0  0  0  0
  181.1130  178.1660  136.0910 C   0  0  0  0  0  2  0  0  0  0  0  0
  182.3320  177.9950  135.5950 C   0  0  0  0  0  3  0  0  0  0  0  0
  183.5050  176.6870  139.0370 C   0  0  0  0  0  2  0  0  0  0  0  0
  183.0710  177.1070  140.2940 O   0  0  0  0  0  0  0  0  0  0  0  0
  183.8210  178.2520  140.5610 C   0  0  0  0  0  2  0  0  0  0  0  0
  184.3350  178.7480  144.7860 C   0  0  0  0  0  3  0  0  0  0  0  0
  183.9950  178.4040  142.0310 C   0  0  0  0  0  0  0  0  0  0  0  0
  185.4220  178.3760  143.9880 C   0  0  0  0  0  3  0  0  0  0  0  0
  185.2540  178.2070  142.6120 C   0  0  0  0  0  3  0  0  0  0  0  0
  182.9110  178.7860  142.8280 C   0  0  0  0  0  3  0  0  0  0  0  0
  183.0800  178.9560  144.2050 C   0  0  0  0  0  3  0  0  0  0  0  0
  1  2  1  0  0  0  0
  1 31  1  0  0  0  0
  3 10  1  6  0  0  0
  3 11  1  0  0  0  0
  3  5  1  0  0  0  0
  4  6  1  6  0  0  0
  4  5  1  0  0  0  0
  6  9  1  0  0  0  0
  8  7  1  1  0  0  0
  8  4  1  0  0  0  0
  9 13  1  0  0  0  0
 10  8  1  0  0  0  0
 11 12  1  6  0  0  0
 12  1  2  0  0  0  0
 13 15  1  0  0  0  0
 14  5  1  0  0  0  0
 14 12  1  0  0  0  0
 14 13  2  0  0  0  0
 15  2  2  0  0  0  0
 16 20  1  1  0  0  0
 16 11  1  0  0  0  0
 17 18  1  0  0  0  0
 17 21  1  0  0  0  0
 19 28  1  1  0  0  0
 19 16  1  0  0  0  0
 19 18  1  0  0  0  0
 20 22  1  0  0  0  0
 21 25  1  6  0  0  0
 22 24  1  1  0  0  0
 22 21  1  0  0  0  0
 23 24  1  0  0  0  0
 25 26  1  0  0  0  0
 27 26  1  0  0  0  0
 28 30  1  0  0  0  0
 30 29  2  0  0  0  0
 31 32  1  0  0  0  0
 32 33  1  0  0  0  0
 33 35  1  0  0  0  0
 35 37  2  0  0  0  0
 35 38  1  0  0  0  0
 36 34  2  0  0  0  0
 37 36  1  0  0  0  0
 38 39  2  0  0  0  0
 39 34  1  0  0  0  0
M  END
>  <MODEL>
2

>  <REMARK>
 VINA RESULT:      -6.0      2.645      4.666
  Name = 
  10 active torsions:
  status: ('A' for Active; 'I' for Inactive)
    1  A    between atoms: C_1  and  C_22
    2  A    between atoms: C_4  and  C_23
    3  A    between atoms: O_5  and  C_22
    4  A    between atoms: O_5  and  C_31
    5  A    between atoms: C_8  and  C_9
    6  A    between atoms: C_9  and  C_33
    7  A    between atoms: C_16  and  C_21
    8  A    between atoms: C_16  and  C_26
    9  A    between atoms: C_20  and  C_31
   10  A    between atoms: O_34  and  C_35
                            x       y       z     vdW  Elec       q    Type
                         _______ _______ _______ _____ _____    ______ ____

>  <TORSDO>
F 10

$$$$
=
 OpenBabel11032420283D

 39 44  0  0  1  0  0  0  0  0999 V2000
  188.2200  174.4470  136.3860 C   0  0  0  0  0  0  0  0  0  0  0  0
  188.1270  173.3900  135.3220 C   0  0  0  0  0  3  0  0  0  0  0  0
  191.3590  175.3310  137.9570 C   0  0  1  0  0  3  0  0  0  0  0  0
  192.7850  174.2770  136.3840 C   0  0  1  0  0  3  0  0  0  0  0  0
  191.4970  174.4040  136.8880 N   0  0  0  0  0  0  0  0  0  0  0  0
  192.9440  173.6410  135.2430 N   0  0  0  0  0  2  0  0  0  0  0  0
  194.6620  174.7420  137.8920 C   0  0  0  0  0  1  0  0  0  0  0  0
  193.6460  175.3510  136.9460 C   0  0  2  0  0  3  0  0  0  0  0  0
  191.7570  173.0240  134.6290 C   0  0  0  0  0  2  0  0  0  0  0  0
  192.6180  176.2160  137.7570 C   0  0  0  0  0  2  0  0  0  0  0  0
  189.8930  175.8830  137.7810 C   0  0  2  0  0  3  0  0  0  0  0  0
  189.3880  175.0850  136.5830 C   0  0  0  0  0  0  0  0  0  0  0  0
  190.5310  173.4980  134.9780 C   0  0  0  0  0  0  0  0  0  0  0  0
  190.5680  174.6810  135.8550 C   0  0  0  0  0  0  0  0  0  0  0  0
  189.2120  172.9320  134.6550 C   0  0  0  0  0  3  0  0  0  0  0  0
  189.8750  177.4220  137.5580 C   0  0  1  0  0  3  0  0  0  0  0  0
  187.6300  178.4930  139.2290 N   0  0  0  0  0  2  0  0  0  0  0  0
  187.3930  177.8680  137.9380 C   0  0  0  0  0  2  0  0  0  0  0  0
  188.5920  178.0830  137.0240 C   0  0  2  0  0  3  0  0  0  0  0  0
  190.4280  178.1860  138.6210 O   0  0  0  0  0  0  0  0  0  0  0  0
  188.4140  177.5500  140.0100 C   0  0  1  0  0  3  0  0  0  0  0  0
  189.9210  177.8580  139.9120 C   0  0  1  0  0  3  0  0  0  0  0  0
  191.6980  177.5050  141.1860 C   0  0  0  0  0  1  0  0  0  0  0  0
  190.6810  176.8410  140.5000 O   0  0  0  0  0  0  0  0  0  0  0  0
  187.9320  177.5140  141.4620 C   0  0  0  0  0  2  0  0  0  0  0  0
  187.0700  178.7140  141.8340 C   0  0  0  0  0  2  0  0  0  0  0  0
  185.7970  178.2920  142.2150 O   0  0  0  0  0  1  0  0  0  0  0  0
  188.2900  177.6930  135.5830 C   0  0  0  0  0  2  0  0  0  0  0  0
  186.1260  177.1070  134.6150 C   0  0  0  0  0  2  0  0  0  0  0  0
  186.8770  178.0120  135.2320 C   0  0  0  0  0  3  0  0  0  0  0  0
  187.0460  174.7030  137.2690 C   0  0  0  0  0  2  0  0  0  0  0  0
  185.8910  174.1920  136.6780 O   0  0  0  0  0  0  0  0  0  0  0  0
  185.4070  173.2620  137.5980 C   0  0  0  0  0  2  0  0  0  0  0  0
  182.9980  170.3860  135.5270 C   0  0  0  0  0  3  0  0  0  0  0  0
  184.5740  172.2490  136.8930 C   0  0  0  0  0  0  0  0  0  0  0  0
  182.4200  171.2180  136.4900 C   0  0  0  0  0  3  0  0  0  0  0  0
  183.2060  172.1510  137.1710 C   0  0  0  0  0  3  0  0  0  0  0  0
  185.1500  171.4230  135.9230 C   0  0  0  0  0  3  0  0  0  0  0  0
  184.3630  170.4900  135.2410 C   0  0  0  0  0  3  0  0  0  0  0  0
  1 12  1  0  0  0  0
  1 31  1  0  0  0  0
  2  1  2  0  0  0  0
  3 10  1  6  0  0  0
  4  6  1  6  0  0  0
  4  5  1  0  0  0  0
  4  8  1  0  0  0  0
  5  3  1  0  0  0  0
  8 10  1  0  0  0  0
  8  7  1  1  0  0  0
  9 13  1  0  0  0  0
  9  6  1  0  0  0  0
 11 12  1  6  0  0  0
 11  3  1  0  0  0  0
 13 14  1  0  0  0  0
 14 12  2  0  0  0  0
 14  5  1  0  0  0  0
 15 13  2  0  0  0  0
 15  2  1  0  0  0  0
 16 11  1  0  0  0  0
 16 20  1  1  0  0  0
 17 21  1  0  0  0  0
 18 17  1  0  0  0  0
 19 28  1  6  0  0  0
 19 16  1  0  0  0  0
 19 18  1  0  0  0  0
 20 22  1  0  0  0  0
 21 25  1  1  0  0  0
 22 21  1  0  0  0  0
 22 24  1  6  0  0  0
 24 23  1  0  0  0  0
 25 26  1  0  0  0  0
 26 27  1  0  0  0  0
 29 30  2  0  0  0  0
 30 28  1  0  0  0  0
 32 31  1  0  0  0  0
 32 33  1  0  0  0  0
 34 36  1  0  0  0  0
 35 37  1  0  0  0  0
 35 33  1  0  0  0  0
 36 37  2  0  0  0  0
 38 35  2  0  0  0  0
 39 34  2  0  0  0  0
 39 38  1  0  0  0  0
M  END
>  <MODEL>
3

>  <REMARK>
 VINA RESULT:      -5.4      4.624      9.889
  Name = 
  10 active torsions:
  status: ('A' for Active; 'I' for Inactive)
    1  A    between atoms: C_1  and  C_22
    2  A    between atoms: C_4  and  C_23
    3  A    between atoms: O_5  and  C_22
    4  A    between atoms: O_5  and  C_31
    5  A    between atoms: C_8  and  C_9
    6  A    between atoms: C_9  and  C_33
    7  A    between atoms: C_16  and  C_21
    8  A    between atoms: C_16  and  C_26
    9  A    between atoms: C_20  and  C_31
   10  A    between atoms: O_34  and  C_35
                            x       y       z     vdW  Elec       q    Type
                         _______ _______ _______ _____ _____    ______ ____

>  <TORSDO>
F 10

$$$$
=
 OpenBabel11032420283D

 39 44  0  0  1  0  0  0  0  0999 V2000
  184.3620  178.1550  138.2540 C   0  0  0  0  0  0  0  0  0  0  0  0
  184.0900  179.4240  139.0120 C   0  0  0  0  0  3  0  0  0  0  0  0
  182.2870  175.2110  138.6180 C   0  0  1  0  0  3  0  0  0  0  0  0
  180.4620  176.2660  139.7010 C   0  0  1  0  0  3  0  0  0  0  0  0
  181.7950  176.3460  139.3180 N   0  0  0  0  0  0  0  0  0  0  0  0
  179.8710  177.3650  140.1200 N   0  0  0  0  0  2  0  0  0  0  0  0
  179.5090  174.0400  140.0890 C   0  0  0  0  0  1  0  0  0  0  0  0
  179.8270  175.0920  139.0450 C   0  0  2  0  0  3  0  0  0  0  0  0
  180.6900  178.5810  140.2440 C   0  0  0  0  0  2  0  0  0  0  0  0
  180.9690  174.5750  138.1030 C   0  0  0  0  0  2  0  0  0  0  0  0
  183.3760  175.8160  137.6510 C   0  0  2  0  0  3  0  0  0  0  0  0
  183.3530  177.2960  138.0230 C   0  0  0  0  0  0  0  0  0  0  0  0
  181.8400  178.6610  139.5210 C   0  0  0  0  0  0  0  0  0  0  0  0
  182.0480  177.5360  138.5930 C   0  0  0  0  0  0  0  0  0  0  0  0
  182.9050  179.6710  139.6180 C   0  0  0  0  0  3  0  0  0  0  0  0
  183.0420  175.5440  136.1570 C   0  0  1  0  0  3  0  0  0  0  0  0
  185.6620  175.4660  134.7050 N   0  0  0  0  0  2  0  0  0  0  0  0
  185.0240  176.7200  135.0660 C   0  0  0  0  0  2  0  0  0  0  0  0
  183.5100  176.5510  135.0920 C   0  0  2  0  0  3  0  0  0  0  0  0
  183.2790  174.2110  135.7250 O   0  0  0  0  0  0  0  0  0  0  0  0
  185.7550  174.6800  135.9240 C   0  0  1  0  0  3  0  0  0  0  0  0
  184.5700  173.7030  136.0540 C   0  0  1  0  0  3  0  0  0  0  0  0
  183.8250  171.9180  137.1340 C   0  0  0  0  0  1  0  0  0  0  0  0
  184.5570  173.0920  137.3130 O   0  0  0  0  0  0  0  0  0  0  0  0
  187.1010  173.9560  136.0030 C   0  0  0  0  0  2  0  0  0  0  0  0
  188.1390  174.7150  136.8230 C   0  0  0  0  0  2  0  0  0  0  0  0
  188.9830  175.4370  135.9800 O   0  0  0  0  0  1  0  0  0  0  0  0
  182.7870  177.8870  135.1930 C   0  0  0  0  0  2  0  0  0  0  0  0
  180.4250  178.3980  135.5470 C   0  0  0  0  0  2  0  0  0  0  0  0
  181.3430  177.7350  134.8540 C   0  0  0  0  0  3  0  0  0  0  0  0
  185.7600  177.8250  137.8560 C   0  0  0  0  0  2  0  0  0  0  0  0
  186.6540  178.6320  138.5590 O   0  0  0  0  0  0  0  0  0  0  0  0
  187.9050  178.0640  138.3180 C   0  0  0  0  0  2  0  0  0  0  0  0
  189.9620  177.4620  142.0280 C   0  0  0  0  0  3  0  0  0  0  0  0
  188.6090  177.8370  139.6090 C   0  0  0  0  0  0  0  0  0  0  0  0
  190.4690  176.9050  140.8490 C   0  0  0  0  0  3  0  0  0  0  0  0
  189.7950  177.0950  139.6410 C   0  0  0  0  0  3  0  0  0  0  0  0
  188.1080  178.4030  140.7870 C   0  0  0  0  0  3  0  0  0  0  0  0
  188.7830  178.2130  141.9970 C   0  0  0  0  0  3  0  0  0  0  0  0
  1  2  1  0  0  0  0
  2 15  2  0  0  0  0
  3 10  1  6  0  0  0
  3  5  1  0  0  0  0
  4  6  1  6  0  0  0
  5  4  1  0  0  0  0
  6  9  1  0  0  0  0
  8  4  1  0  0  0  0
  8  7  1  1  0  0  0
 10  8  1  0  0  0  0
 11 12  1  6  0  0  0
 11  3  1  0  0  0  0
 12  1  2  0  0  0  0
 12 14  1  0  0  0  0
 13 15  1  0  0  0  0
 13  9  1  0  0  0  0
 14  5  1  0  0  0  0
 14 13  2  0  0  0  0
 16 20  1  6  0  0  0
 16 11  1  0  0  0  0
 17 18  1  0  0  0  0
 17 21  1  0  0  0  0
 18 19  1  0  0  0  0
 19 28  1  1  0  0  0
 19 16  1  0  0  0  0
 20 22  1  0  0  0  0
 21 25  1  6  0  0  0
 21 22  1  0  0  0  0
 22 24  1  1  0  0  0
 23 24  1  0  0  0  0
 25 26  1  0  0  0  0
 27 26  1  0  0  0  0
 30 28  1  0  0  0  0
 30 29  2  0  0  0  0
 31  1  1  0  0  0  0
 31 32  1  0  0  0  0
 33 32  1  0  0  0  0
 33 35  1  0  0  0  0
 35 37  2  0  0  0  0
 35 38  1  0  0  0  0
 36 34  2  0  0  0  0
 37 36  1  0  0  0  0
 38 39  2  0  0  0  0
 39 34  1  0  0  0  0
M  END
>  <MODEL>
4

>  <REMARK>
 VINA RESULT:      -5.4      2.651      3.691
  Name = 
  10 active torsions:
  status: ('A' for Active; 'I' for Inactive)
    1  A    between atoms: C_1  and  C_22
    2  A    between atoms: C_4  and  C_23
    3  A    between atoms: O_5  and  C_22
    4  A    between atoms: O_5  and  C_31
    5  A    between atoms: C_8  and  C_9
    6  A    between atoms: C_9  and  C_33
    7  A    between atoms: C_16  and  C_21
    8  A    between atoms: C_16  and  C_26
    9  A    between atoms: C_20  and  C_31
   10  A    between atoms: O_34  and  C_35
                            x       y       z     vdW  Elec       q    Type
                         _______ _______ _______ _____ _____    ______ ____

>  <TORSDO>
F 10

$$$$
=
 OpenBabel11032420283D

 39 44  0  0  1  0  0  0  0  0999 V2000
  186.1760  177.5970  138.2300 C   0  0  0  0  0  0  0  0  0  0  0  0
  185.2170  178.3570  139.1020 C   0  0  0  0  0  3  0  0  0  0  0  0
  185.4910  174.2280  137.0940 C   0  0  1  0  0  3  0  0  0  0  0  0
  183.1820  174.2000  137.6250 C   0  0  1  0  0  3  0  0  0  0  0  0
  184.4110  174.8230  137.8000 N   0  0  0  0  0  0  0  0  0  0  0  0
  182.1020  174.8320  138.0330 N   0  0  0  0  0  2  0  0  0  0  0  0
  183.1720  171.8040  137.0990 C   0  0  0  0  0  1  0  0  0  0  0  0
  183.2840  173.2030  136.5260 C   0  0  2  0  0  3  0  0  0  0  0  0
  182.2810  176.1140  138.7340 C   0  0  0  0  0  2  0  0  0  0  0  0
  184.7380  173.4410  135.9890 C   0  0  0  0  0  2  0  0  0  0  0  0
  186.4410  175.4460  136.7760 C   0  0  2  0  0  3  0  0  0  0  0  0
  185.7120  176.6080  137.4450 C   0  0  0  0  0  0  0  0  0  0  0  0
  183.4380  176.8010  138.5360 C   0  0  0  0  0  0  0  0  0  0  0  0
  184.3260  176.2090  137.5210 C   0  0  0  0  0  0  0  0  0  0  0  0
  183.9240  177.9880  139.2570 C   0  0  0  0  0  3  0  0  0  0  0  0
  186.6480  175.6370  135.2470 C   0  0  1  0  0  3  0  0  0  0  0  0
  189.2690  177.0530  134.9190 N   0  0  0  0  0  2  0  0  0  0  0  0
  188.0540  177.7640  135.2800 C   0  0  0  0  0  2  0  0  0  0  0  0
  186.8390  177.0600  134.6920 C   0  0  2  0  0  3  0  0  0  0  0  0
  187.5760  174.7380  134.6530 O   0  0  0  0  0  0  0  0  0  0  0  0
  189.4160  175.9680  135.8760 C   0  0  1  0  0  3  0  0  0  0  0  0
  188.8300  174.6530  135.3260 C   0  0  1  0  0  3  0  0  0  0  0  0
  188.7660  172.4580  135.6180 C   0  0  0  0  0  1  0  0  0  0  0  0
  188.7960  173.6650  136.3160 O   0  0  0  0  0  0  0  0  0  0  0  0
  190.8780  175.8090  136.2970 C   0  0  0  0  0  2  0  0  0  0  0  0
  191.0460  175.5780  137.7950 C   0  0  0  0  0  2  0  0  0  0  0  0
  191.8590  174.4680  138.0210 O   0  0  0  0  0  1  0  0  0  0  0  0
  185.5760  177.9040  134.8040 C   0  0  0  0  0  2  0  0  0  0  0  0
  183.1550  177.6260  134.6540 C   0  0  0  0  0  2  0  0  0  0  0  0
  184.3600  177.0700  134.5940 C   0  0  0  0  0  3  0  0  0  0  0  0
  187.6360  177.8840  138.3210 C   0  0  0  0  0  2  0  0  0  0  0  0
  187.8690  178.8310  139.3190 O   0  0  0  0  0  0  0  0  0  0  0  0
  188.8980  178.2870  140.0870 C   0  0  0  0  0  2  0  0  0  0  0  0
  187.3610  176.9510  143.8560 C   0  0  0  0  0  3  0  0  0  0  0  0
  188.3540  177.8080  141.3860 C   0  0  0  0  0  0  0  0  0  0  0  0
  188.5460  176.4060  143.3520 C   0  0  0  0  0  3  0  0  0  0  0  0
  189.0440  176.8360  142.1200 C   0  0  0  0  0  3  0  0  0  0  0  0
  187.1740  178.3600  141.8960 C   0  0  0  0  0  3  0  0  0  0  0  0
  186.6760  177.9290  143.1300 C   0  0  0  0  0  3  0  0  0  0  0  0
  1 31  1  0  0  0  0
  1  2  1  0  0  0  0
  2 15  2  0  0  0  0
  3 10  1  6  0  0  0
  3  5  1  0  0  0  0
  4  5  1  0  0  0  0
  4  6  1  6  0  0  0
  6  9  1  0  0  0  0
  8  7  1  1  0  0  0
  8  4  1  0  0  0  0
 10  8  1  0  0  0  0
 11  3  1  0  0  0  0
 11 12  1  6  0  0  0
 12 14  1  0  0  0  0
 12  1  2  0  0  0  0
 13  9  1  0  0  0  0
 13 15  1  0  0  0  0
 14  5  1  0  0  0  0
 14 13  2  0  0  0  0
 16 20  1  1  0  0  0
 16 11  1  0  0  0  0
 17 18  1  0  0  0  0
 17 21  1  0  0  0  0
 19 28  1  1  0  0  0
 19 16  1  0  0  0  0
 19 18  1  0  0  0  0
 20 22  1  0  0  0  0
 21 25  1  6  0  0  0
 22 21  1  0  0  0  0
 22 24  1  1  0  0  0
 23 24  1  0  0  0  0
 25 26  1  0  0  0  0
 26 27  1  0  0  0  0
 30 29  2  0  0  0  0
 30 28  1  0  0  0  0
 31 32  1  0  0  0  0
 32 33  1  0  0  0  0
 33 35  1  0  0  0  0
 35 38  2  0  0  0  0
 35 37  1  0  0  0  0
 36 34  1  0  0  0  0
 37 36  2  0  0  0  0
 38 39  1  0  0  0  0
 39 34  2  0  0  0  0
M  END
>  <MODEL>
5

>  <REMARK>
 VINA RESULT:      -5.4      2.970      4.611
  Name = 
  10 active torsions:
  status: ('A' for Active; 'I' for Inactive)
    1  A    between atoms: C_1  and  C_22
    2  A    between atoms: C_4  and  C_23
    3  A    between atoms: O_5  and  C_22
    4  A    between atoms: O_5  and  C_31
    5  A    between atoms: C_8  and  C_9
    6  A    between atoms: C_9  and  C_33
    7  A    between atoms: C_16  and  C_21
    8  A    between atoms: C_16  and  C_26
    9  A    between atoms: C_20  and  C_31
   10  A    between atoms: O_34  and  C_35
                            x       y       z     vdW  Elec       q    Type
                         _______ _______ _______ _____ _____    ______ ____

>  <TORSDO>
F 10

$$$$
=
 OpenBabel11032420283D

 39 44  0  0  1  0  0  0  0  0999 V2000
  185.0440  177.6700  138.5860 C   0  0  0  0  0  0  0  0  0  0  0  0
  183.8390  178.2020  139.3100 C   0  0  0  0  0  3  0  0  0  0  0  0
  185.1820  174.2880  137.3020 C   0  0  1  0  0  3  0  0  0  0  0  0
  182.8650  173.8140  137.4640 C   0  0  1  0  0  3  0  0  0  0  0  0
  183.9150  174.6430  137.8400 N   0  0  0  0  0  0  0  0  0  0  0  0
  181.6370  174.2200  137.7090 N   0  0  0  0  0  2  0  0  0  0  0  0
  183.3840  171.4840  136.9040 C   0  0  0  0  0  1  0  0  0  0  0  0
  183.3160  172.9040  136.3790 C   0  0  2  0  0  3  0  0  0  0  0  0
  181.4650  175.4800  138.4500 C   0  0  0  0  0  2  0  0  0  0  0  0
  184.7640  173.4280  136.0800 C   0  0  0  0  0  2  0  0  0  0  0  0
  185.9230  175.6720  137.1560 C   0  0  2  0  0  3  0  0  0  0  0  0
  184.8970  176.6500  137.7220 C   0  0  0  0  0  0  0  0  0  0  0  0
  182.4890  176.3750  138.4470 C   0  0  0  0  0  0  0  0  0  0  0  0
  183.6150  176.0010  137.5740 C   0  0  0  0  0  0  0  0  0  0  0  0
  182.6300  177.5970  139.2550 C   0  0  0  0  0  3  0  0  0  0  0  0
  186.3190  175.9670  135.6820 C   0  0  1  0  0  3  0  0  0  0  0  0
  188.7340  177.7370  135.7920 N   0  0  0  0  0  2  0  0  0  0  0  0
  187.3930  178.2590  135.9890 C   0  0  0  0  0  2  0  0  0  0  0  0
  186.3850  177.4280  135.2050 C   0  0  2  0  0  3  0  0  0  0  0  0
  187.4390  175.2320  135.2060 O   0  0  0  0  0  0  0  0  0  0  0  0
  188.8930  176.6340  136.7260 C   0  0  1  0  0  3  0  0  0  0  0  0
  188.5830  175.2810  136.0550 C   0  0  1  0  0  3  0  0  0  0  0  0
  188.9330  173.1070  136.2960 C   0  0  0  0  0  1  0  0  0  0  0  0
  188.5460  174.2490  136.9990 O   0  0  0  0  0  0  0  0  0  0  0  0
  190.2880  176.6510  137.3550 C   0  0  0  0  0  2  0  0  0  0  0  0
  190.3200  177.3360  138.7170 C   0  0  0  0  0  2  0  0  0  0  0  0
  190.2390  176.3860  139.7350 O   0  0  0  0  0  1  0  0  0  0  0  0
  185.0140  178.0890  135.1540 C   0  0  0  0  0  2  0  0  0  0  0  0
  182.7090  177.4850  134.6190 C   0  0  0  0  0  2  0  0  0  0  0  0
  183.9950  177.1540  134.5990 C   0  0  0  0  0  3  0  0  0  0  0  0
  186.3930  178.2150  138.9090 C   0  0  0  0  0  2  0  0  0  0  0  0
  186.3290  178.9720  140.0790 O   0  0  0  0  0  0  0  0  0  0  0  0
  187.4680  178.6100  140.7970 C   0  0  0  0  0  2  0  0  0  0  0  0
  186.3510  177.5100  144.7840 C   0  0  0  0  0  3  0  0  0  0  0  0
  187.0880  178.2450  142.1890 C   0  0  0  0  0  0  0  0  0  0  0  0
  185.4690  178.2500  143.9900 C   0  0  0  0  0  3  0  0  0  0  0  0
  185.8360  178.6150  142.6930 C   0  0  0  0  0  3  0  0  0  0  0  0
  187.9650  177.4960  142.9800 C   0  0  0  0  0  3  0  0  0  0  0  0
  187.5980  177.1300  144.2780 C   0  0  0  0  0  3  0  0  0  0  0  0
  1 31  1  0  0  0  0
  1  2  1  0  0  0  0
  3 10  1  6  0  0  0
  3  5  1  0  0  0  0
  4  6  1  6  0  0  0
  4  5  1  0  0  0  0
  6  9  1  0  0  0  0
  8  7  1  1  0  0  0
  8  4  1  0  0  0  0
 10  8  1  0  0  0  0
 11  3  1  0  0  0  0
 11 12  1  6  0  0  0
 12  1  2  0  0  0  0
 13  9  1  0  0  0  0
 13 15  1  0  0  0  0
 14 12  1  0  0  0  0
 14  5  1  0  0  0  0
 14 13  2  0  0  0  0
 15  2  2  0  0  0  0
 16 20  1  1  0  0  0
 16 11  1  0  0  0  0
 17 18  1  0  0  0  0
 17 21  1  0  0  0  0
 19 28  1  1  0  0  0
 19 16  1  0  0  0  0
 19 18  1  0  0  0  0
 20 22  1  0  0  0  0
 21 25  1  6  0  0  0
 22 21  1  0  0  0  0
 22 24  1  1  0  0  0
 23 24  1  0  0  0  0
 25 26  1  0  0  0  0
 26 27  1  0  0  0  0
 30 29  2  0  0  0  0
 30 28  1  0  0  0  0
 31 32  1  0  0  0  0
 32 33  1  0  0  0  0
 33 35  1  0  0  0  0
 35 37  2  0  0  0  0
 35 38  1  0  0  0  0
 36 34  2  0  0  0  0
 37 36  1  0  0  0  0
 38 39  2  0  0  0  0
 39 34  1  0  0  0  0
M  END
>  <MODEL>
6

>  <REMARK>
 VINA RESULT:      -5.3      2.576      4.155
  Name = 
  10 active torsions:
  status: ('A' for Active; 'I' for Inactive)
    1  A    between atoms: C_1  and  C_22
    2  A    between atoms: C_4  and  C_23
    3  A    between atoms: O_5  and  C_22
    4  A    between atoms: O_5  and  C_31
    5  A    between atoms: C_8  and  C_9
    6  A    between atoms: C_9  and  C_33
    7  A    between atoms: C_16  and  C_21
    8  A    between atoms: C_16  and  C_26
    9  A    between atoms: C_20  and  C_31
   10  A    between atoms: O_34  and  C_35
                            x       y       z     vdW  Elec       q    Type
                         _______ _______ _______ _____ _____    ______ ____

>  <TORSDO>
F 10

$$$$
=
 OpenBabel11032420283D

 39 44  0  0  1  0  0  0  0  0999 V2000
  183.3270  178.0250  138.7590 C   0  0  0  0  0  0  0  0  0  0  0  0
  182.2350  178.8240  139.4150 C   0  0  0  0  0  3  0  0  0  0  0  0
  182.9350  174.5150  137.9650 C   0  0  1  0  0  3  0  0  0  0  0  0
  180.5810  174.4140  138.2200 C   0  0  1  0  0  3  0  0  0  0  0  0
  181.7510  175.1230  138.4620 N   0  0  0  0  0  0  0  0  0  0  0  0
  179.4330  175.0260  138.4190 N   0  0  0  0  0  2  0  0  0  0  0  0
  180.7410  171.9780  137.9890 C   0  0  0  0  0  1  0  0  0  0  0  0
  180.8610  173.3060  137.2690 C   0  0  2  0  0  3  0  0  0  0  0  0
  179.4670  176.3870  138.9770 C   0  0  0  0  0  2  0  0  0  0  0  0
  182.3590  173.5650  136.8820 C   0  0  0  0  0  2  0  0  0  0  0  0
  183.8620  175.7420  137.6160 C   0  0  2  0  0  3  0  0  0  0  0  0
  183.0070  176.9280  138.0490 C   0  0  0  0  0  0  0  0  0  0  0  0
  180.6090  177.1130  138.8350 C   0  0  0  0  0  0  0  0  0  0  0  0
  181.6410  176.4610  138.0100 C   0  0  0  0  0  0  0  0  0  0  0  0
  180.9510  178.4010  139.4600 C   0  0  0  0  0  3  0  0  0  0  0  0
  184.2490  175.7680  136.1100 C   0  0  1  0  0  3  0  0  0  0  0  0
  186.9480  177.0610  135.9510 N   0  0  0  0  0  2  0  0  0  0  0  0
  185.7320  177.8430  136.0970 C   0  0  0  0  0  2  0  0  0  0  0  0
  184.5610  177.1200  135.4440 C   0  0  2  0  0  3  0  0  0  0  0  0
  185.1980  174.7850  135.7190 O   0  0  0  0  0  0  0  0  0  0  0  0
  186.9390  176.0750  137.0200 C   0  0  1  0  0  3  0  0  0  0  0  0
  186.3630  174.7290  136.5380 C   0  0  1  0  0  3  0  0  0  0  0  0
  186.0220  172.5950  137.0210 C   0  0  0  0  0  1  0  0  0  0  0  0
  186.1760  173.8500  137.6100 O   0  0  0  0  0  0  0  0  0  0  0  0
  188.3370  175.9140  137.6220 C   0  0  0  0  0  2  0  0  0  0  0  0
  189.2510  175.0290  136.7810 C   0  0  0  0  0  2  0  0  0  0  0  0
  190.0550  174.2460  137.6080 O   0  0  0  0  0  1  0  0  0  0  0  0
  183.3320  178.0110  135.3250 C   0  0  0  0  0  2  0  0  0  0  0  0
  180.9960  177.7790  134.6500 C   0  0  0  0  0  2  0  0  0  0  0  0
  182.2380  177.3110  134.5930 C   0  0  0  0  0  3  0  0  0  0  0  0
  184.7510  178.4060  138.9860 C   0  0  0  0  0  2  0  0  0  0  0  0
  184.8430  179.2460  140.0950 O   0  0  0  0  0  0  0  0  0  0  0  0
  185.7530  178.6120  140.9410 C   0  0  0  0  0  2  0  0  0  0  0  0
  184.2880  178.6860  144.9670 C   0  0  0  0  0  3  0  0  0  0  0  0
  185.2500  178.6580  142.3410 C   0  0  0  0  0  0  0  0  0  0  0  0
  183.4460  179.0450  143.9100 C   0  0  0  0  0  3  0  0  0  0  0  0
  183.9250  179.0290  142.5980 C   0  0  0  0  0  3  0  0  0  0  0  0
  186.0890  178.2890  143.3980 C   0  0  0  0  0  3  0  0  0  0  0  0
  185.6090  178.3060  144.7110 C   0  0  0  0  0  3  0  0  0  0  0  0
  1 31  1  0  0  0  0
  1  2  1  0  0  0  0
  2 15  2  0  0  0  0
  3 10  1  6  0  0  0
  3  5  1  0  0  0  0
  4  6  1  6  0  0  0
  4  5  1  0  0  0  0
  6  9  1  0  0  0  0
  8  7  1  1  0  0  0
  8  4  1  0  0  0  0
 10  8  1  0  0  0  0
 11  3  1  0  0  0  0
 11 12  1  6  0  0  0
 12  1  2  0  0  0  0
 13  9  1  0  0  0  0
 13 15  1  0  0  0  0
 14 12  1  0  0  0  0
 14  5  1  0  0  0  0
 14 13  2  0  0  0  0
 16 20  1  1  0  0  0
 16 11  1  0  0  0  0
 17 18  1  0  0  0  0
 17 21  1  0  0  0  0
 19 28  1  1  0  0  0
 19 18  1  0  0  0  0
 19 16  1  0  0  0  0
 20 22  1  0  0  0  0
 21 25  1  6  0  0  0
 22 21  1  0  0  0  0
 22 24  1  1  0  0  0
 23 24  1  0  0  0  0
 26 27  1  0  0  0  0
 26 25  1  0  0  0  0
 30 29  2  0  0  0  0
 30 28  1  0  0  0  0
 31 32  1  0  0  0  0
 32 33  1  0  0  0  0
 33 35  1  0  0  0  0
 35 37  2  0  0  0  0
 35 38  1  0  0  0  0
 36 34  2  0  0  0  0
 37 36  1  0  0  0  0
 38 39  2  0  0  0  0
 39 34  1  0  0  0  0
M  END
>  <MODEL>
7

>  <REMARK>
 VINA RESULT:      -5.3      2.108      3.346
  Name = 
  10 active torsions:
  status: ('A' for Active; 'I' for Inactive)
    1  A    between atoms: C_1  and  C_22
    2  A    between atoms: C_4  and  C_23
    3  A    between atoms: O_5  and  C_22
    4  A    between atoms: O_5  and  C_31
    5  A    between atoms: C_8  and  C_9
    6  A    between atoms: C_9  and  C_33
    7  A    between atoms: C_16  and  C_21
    8  A    between atoms: C_16  and  C_26
    9  A    between atoms: C_20  and  C_31
   10  A    between atoms: O_34  and  C_35
                            x       y       z     vdW  Elec       q    Type
                         _______ _______ _______ _____ _____    ______ ____

>  <TORSDO>
F 10

$$$$
=
 OpenBabel11032420283D

 39 44  0  0  1  0  0  0  0  0999 V2000
  186.8750  177.8270  139.0890 C   0  0  0  0  0  0  0  0  0  0  0  0
  185.7900  178.6280  139.7520 C   0  0  0  0  0  3  0  0  0  0  0  0
  186.1650  174.8490  137.1560 C   0  0  1  0  0  3  0  0  0  0  0  0
  183.8310  175.1940  136.9270 C   0  0  1  0  0  3  0  0  0  0  0  0
  185.0000  175.5360  137.5940 N   0  0  0  0  0  0  0  0  0  0  0  0
  182.7740  175.9600  137.0960 N   0  0  0  0  0  2  0  0  0  0  0  0
  183.6740  172.9440  135.9630 C   0  0  0  0  0  1  0  0  0  0  0  0
  184.1630  174.3620  135.7400 C   0  0  2  0  0  3  0  0  0  0  0  0
  182.8770  177.0710  138.0560 C   0  0  0  0  0  2  0  0  0  0  0  0
  185.7320  174.3870  135.7400 C   0  0  0  0  0  2  0  0  0  0  0  0
  187.3220  175.8930  137.3950 C   0  0  2  0  0  3  0  0  0  0  0  0
  186.5750  177.0680  138.0190 C   0  0  0  0  0  0  0  0  0  0  0  0
  184.1150  177.5420  138.3660 C   0  0  0  0  0  0  0  0  0  0  0  0
  185.2050  176.9380  137.5810 C   0  0  0  0  0  0  0  0  0  0  0  0
  184.4840  178.4980  139.4220 C   0  0  0  0  0  3  0  0  0  0  0  0
  188.0610  176.2530  136.0750 C   0  0  1  0  0  3  0  0  0  0  0  0
  190.8450  177.0430  136.8520 N   0  0  0  0  0  2  0  0  0  0  0  0
  189.7250  177.9600  136.9820 C   0  0  0  0  0  2  0  0  0  0  0  0
  188.6730  177.6570  135.9230 C   0  0  2  0  0  3  0  0  0  0  0  0
  188.9600  175.2600  135.6030 O   0  0  0  0  0  0  0  0  0  0  0  0
  190.4690  175.8250  137.5510 C   0  0  1  0  0  3  0  0  0  0  0  0
  189.8800  174.7810  136.5810 C   0  0  1  0  0  3  0  0  0  0  0  0
  189.1050  172.7250  136.3040 C   0  0  0  0  0  1  0  0  0  0  0  0
  189.3430  173.6940  137.2790 O   0  0  0  0  0  0  0  0  0  0  0  0
  191.6540  175.2640  138.3410 C   0  0  0  0  0  2  0  0  0  0  0  0
  192.9520  175.2520  137.5420 C   0  0  0  0  0  2  0  0  0  0  0  0
  193.8860  176.1050  138.1290 O   0  0  0  0  0  1  0  0  0  0  0  0
  187.6160  178.7500  135.8360 C   0  0  0  0  0  2  0  0  0  0  0  0
  185.6860  177.8910  134.6110 C   0  0  0  0  0  2  0  0  0  0  0  0
  186.8050  178.6060  134.5940 C   0  0  0  0  0  3  0  0  0  0  0  0
  188.2420  177.8110  139.6840 C   0  0  0  0  0  2  0  0  0  0  0  0
  188.2320  178.4800  140.9070 O   0  0  0  0  0  0  0  0  0  0  0  0
  189.0330  177.7010  141.7420 C   0  0  0  0  0  2  0  0  0  0  0  0
  187.2410  177.5030  145.6280 C   0  0  0  0  0  3  0  0  0  0  0  0
  188.4110  177.6110  143.0910 C   0  0  0  0  0  0  0  0  0  0  0  0
  188.6330  177.5190  145.5010 C   0  0  0  0  0  3  0  0  0  0  0  0
  189.2180  177.5770  144.2340 C   0  0  0  0  0  3  0  0  0  0  0  0
  187.0180  177.6050  143.2190 C   0  0  0  0  0  3  0  0  0  0  0  0
  186.4330  177.5480  144.4880 C   0  0  0  0  0  3  0  0  0  0  0  0
  1 31  1  0  0  0  0
  1  2  1  0  0  0  0
  3 10  1  6  0  0  0
  3 11  1  0  0  0  0
  3  5  1  0  0  0  0
  4  6  1  6  0  0  0
  4  5  1  0  0  0  0
  6  9  1  0  0  0  0
  8 10  1  0  0  0  0
  8  7  1  1  0  0  0
  8  4  1  0  0  0  0
  9 13  1  0  0  0  0
 11 12  1  6  0  0  0
 12  1  2  0  0  0  0
 13 15  1  0  0  0  0
 14  5  1  0  0  0  0
 14 12  1  0  0  0  0
 14 13  2  0  0  0  0
 15  2  2  0  0  0  0
 16 20  1  1  0  0  0
 16 11  1  0  0  0  0
 17 18  1  0  0  0  0
 17 21  1  0  0  0  0
 19 28  1  1  0  0  0
 19 16  1  0  0  0  0
 19 18  1  0  0  0  0
 20 22  1  0  0  0  0
 21 25  1  6  0  0  0
 22 24  1  1  0  0  0
 22 21  1  0  0  0  0
 23 24  1  0  0  0  0
 26 27  1  0  0  0  0
 26 25  1  0  0  0  0
 30 29  2  0  0  0  0
 30 28  1  0  0  0  0
 31 32  1  0  0  0  0
 32 33  1  0  0  0  0
 33 35  1  0  0  0  0
 35 38  2  0  0  0  0
 35 37  1  0  0  0  0
 36 34  1  0  0  0  0
 37 36  2  0  0  0  0
 38 39  1  0  0  0  0
 39 34  2  0  0  0  0
M  END
>  <MODEL>
8

>  <REMARK>
 VINA RESULT:      -5.2      3.061      4.847
  Name = 
  10 active torsions:
  status: ('A' for Active; 'I' for Inactive)
    1  A    between atoms: C_1  and  C_22
    2  A    between atoms: C_4  and  C_23
    3  A    between atoms: O_5  and  C_22
    4  A    between atoms: O_5  and  C_31
    5  A    between atoms: C_8  and  C_9
    6  A    between atoms: C_9  and  C_33
    7  A    between atoms: C_16  and  C_21
    8  A    between atoms: C_16  and  C_26
    9  A    between atoms: C_20  and  C_31
   10  A    between atoms: O_34  and  C_35
                            x       y       z     vdW  Elec       q    Type
                         _______ _______ _______ _____ _____    ______ ____

>  <TORSDO>
F 10

$$$$
=
 OpenBabel11032420283D

 39 44  0  0  1  0  0  0  0  0999 V2000
  183.9070  175.4750  137.6430 C   0  0  0  0  0  0  0  0  0  0  0  0
  182.5310  174.8810  137.7480 C   0  0  0  0  0  3  0  0  0  0  0  0
  186.7950  173.4940  136.7240 C   0  0  1  0  0  3  0  0  0  0  0  0
  185.6140  171.6130  135.8970 C   0  0  1  0  0  3  0  0  0  0  0  0
  185.5670  172.7830  136.6440 N   0  0  0  0  0  0  0  0  0  0  0  0
  184.4750  171.0420  135.5680 N   0  0  0  0  0  2  0  0  0  0  0  0
  187.7600  170.4360  135.7400 C   0  0  0  0  0  1  0  0  0  0  0  0
  186.9050  171.5460  135.1620 C   0  0  2  0  0  3  0  0  0  0  0  0
  183.2330  171.6310  136.0950 C   0  0  0  0  0  2  0  0  0  0  0  0
  187.5510  172.9370  135.4890 C   0  0  0  0  0  2  0  0  0  0  0  0
  186.3440  175.0010  136.8390 C   0  0  2  0  0  3  0  0  0  0  0  0
  184.8230  174.8830  136.8550 C   0  0  0  0  0  0  0  0  0  0  0  0
  183.2530  172.9340  136.4850 C   0  0  0  0  0  0  0  0  0  0  0  0
  184.5200  173.6300  136.2030 C   0  0  0  0  0  0  0  0  0  0  0  0
  182.2120  173.6810  137.2090 C   0  0  0  0  0  3  0  0  0  0  0  0
  186.8910  175.8620  135.6660 C   0  0  1  0  0  3  0  0  0  0  0  0
  187.2780  178.6270  136.7550 N   0  0  0  0  0  2  0  0  0  0  0  0
  185.9700  178.1380  136.3550 C   0  0  0  0  0  2  0  0  0  0  0  0
  186.1100  177.1160  135.2340 C   0  0  2  0  0  3  0  0  0  0  0  0
  188.2850  176.1330  135.7230 O   0  0  0  0  0  0  0  0  0  0  0  0
  187.8190  177.6530  137.6890 C   0  0  1  0  0  3  0  0  0  0  0  0
  188.7380  176.6410  136.9760 C   0  0  1  0  0  3  0  0  0  0  0  0
  190.3970  175.2540  137.4570 C   0  0  0  0  0  1  0  0  0  0  0  0
  189.0980  175.5970  137.8340 O   0  0  0  0  0  0  0  0  0  0  0  0
  188.5320  178.3510  138.8490 C   0  0  0  0  0  2  0  0  0  0  0  0
  187.7760  178.2380  140.1690 C   0  0  0  0  0  2  0  0  0  0  0  0
  188.6630  177.9660  141.2090 O   0  0  0  0  0  1  0  0  0  0  0  0
  184.7700  176.7790  134.5940 C   0  0  0  0  0  2  0  0  0  0  0  0
  182.4600  177.5070  134.9080 C   0  0  0  0  0  2  0  0  0  0  0  0
  183.7510  177.8170  134.9200 C   0  0  0  0  0  3  0  0  0  0  0  0
  184.2640  176.6510  138.4870 C   0  0  0  0  0  2  0  0  0  0  0  0
  183.3500  176.7760  139.5320 O   0  0  0  0  0  0  0  0  0  0  0  0
  183.2980  178.1460  139.7920 C   0  0  0  0  0  2  0  0  0  0  0  0
  183.2270  178.8670  144.0140 C   0  0  0  0  0  3  0  0  0  0  0  0
  183.2700  178.3760  141.2620 C   0  0  0  0  0  0  0  0  0  0  0  0
  184.4320  178.5480  143.3800 C   0  0  0  0  0  3  0  0  0  0  0  0
  184.4540  178.3050  142.0050 C   0  0  0  0  0  3  0  0  0  0  0  0
  182.0670  178.7050  141.8950 C   0  0  0  0  0  3  0  0  0  0  0  0
  182.0450  178.9480  143.2720 C   0  0  0  0  0  3  0  0  0  0  0  0
  1  2  1  0  0  0  0
  1 31  1  0  0  0  0
  3 10  1  6  0  0  0
  3 11  1  0  0  0  0
  4  6  1  6  0  0  0
  4  5  1  0  0  0  0
  5  3  1  0  0  0  0
  6  9  1  0  0  0  0
  8 10  1  0  0  0  0
  8  7  1  1  0  0  0
  8  4  1  0  0  0  0
  9 13  1  0  0  0  0
 11 12  1  6  0  0  0
 12  1  2  0  0  0  0
 13 15  1  0  0  0  0
 14 13  2  0  0  0  0
 14  5  1  0  0  0  0
 14 12  1  0  0  0  0
 15  2  2  0  0  0  0
 16 20  1  1  0  0  0
 16 11  1  0  0  0  0
 17 21  1  0  0  0  0
 18 17  1  0  0  0  0
 19 28  1  1  0  0  0
 19 16  1  0  0  0  0
 19 18  1  0  0  0  0
 20 22  1  0  0  0  0
 21 25  1  1  0  0  0
 22 21  1  0  0  0  0
 22 24  1  1  0  0  0
 23 24  1  0  0  0  0
 25 26  1  0  0  0  0
 26 27  1  0  0  0  0
 28 30  1  0  0  0  0
 29 30  2  0  0  0  0
 31 32  1  0  0  0  0
 32 33  1  0  0  0  0
 33 35  1  0  0  0  0
 35 38  2  0  0  0  0
 35 37  1  0  0  0  0
 36 34  1  0  0  0  0
 37 36  2  0  0  0  0
 38 39  1  0  0  0  0
 39 34  2  0  0  0  0
M  END
>  <MODEL>
9

>  <REMARK>
 VINA RESULT:      -5.1      3.141      5.994
  Name = 
  10 active torsions:
  status: ('A' for Active; 'I' for Inactive)
    1  A    between atoms: C_1  and  C_22
    2  A    between atoms: C_4  and  C_23
    3  A    between atoms: O_5  and  C_22
    4  A    between atoms: O_5  and  C_31
    5  A    between atoms: C_8  and  C_9
    6  A    between atoms: C_9  and  C_33
    7  A    between atoms: C_16  and  C_21
    8  A    between atoms: C_16  and  C_26
    9  A    between atoms: C_20  and  C_31
   10  A    between atoms: O_34  and  C_35
                            x       y       z     vdW  Elec       q    Type
                         _______ _______ _______ _____ _____    ______ ____

>  <TORSDO>
F 10

$$$$
