=
 OpenBabel11042410123D

 32 34  0  0  0  0  0  0  0  0999 V2000
  188.0620  177.8600  142.0770 C   0  0  0  0  0  0  0  0  0  0  0  0
  187.3420  177.1590  143.0950 N   0  0  0  0  0  2  0  0  0  0  0  0
  187.7390  179.0410  141.7700 O   0  0  0  0  0  0  0  0  0  0  0  0
  186.5730  178.8410  147.5380 F   0  0  0  0  0  0  0  0  0  0  0  0
  183.0740  179.1320  144.4080 N   0  0  0  0  0  0  0  0  0  0  0  0
  182.5640  178.9680  143.1560 C   0  0  0  0  0  0  0  0  0  0  0  0
  183.3740  178.3950  142.1630 C   0  0  0  0  0  0  0  0  0  0  0  0
  184.6390  178.0060  142.4700 N   0  0  0  0  0  0  0  0  0  0  0  0
  182.8670  178.2040  140.7750 C   0  0  0  0  0  1  0  0  0  0  0  0
  184.8330  178.9550  145.9650 N   0  0  0  0  0  0  0  0  0  0  0  0
  185.1430  178.1510  143.7240 C   0  0  0  0  0  0  0  0  0  0  0  0
  186.9390  178.0130  145.3370 C   0  0  0  0  0  3  0  0  0  0  0  0
  184.3380  178.7460  144.7160 C   0  0  0  0  0  0  0  0  0  0  0  0
  186.1070  178.6080  146.2890 C   0  0  0  0  0  0  0  0  0  0  0  0
  186.4550  177.7580  144.0500 C   0  0  0  0  0  0  0  0  0  0  0  0
  181.2550  179.3650  142.8420 O   0  0  0  0  0  0  0  0  0  0  0  0
  180.0920  178.6560  143.1720 C   0  0  0  0  0  0  0  0  0  0  0  0
  179.3190  179.0590  144.3760 C   0  0  0  0  0  1  0  0  0  0  0  0
  179.6860  177.6880  142.4760 O   0  0  0  0  0  0  0  0  0  0  0  0
  189.0900  177.1940  141.3980 O   0  0  0  0  0  0  0  0  0  0  0  0
  191.3130  177.5050  140.8520 O   0  0  0  0  0  0  0  0  0  0  0  0
  190.4500  177.2460  141.7360 C   0  0  0  0  0  0  0  0  0  0  0  0
  191.2390  175.6930  143.4980 C   0  0  0  0  0  3  0  0  0  0  0  0
  190.6430  179.4510  143.8350 C   0  0  0  0  0  1  0  0  0  0  0  0
  191.6630  175.3930  144.7920 C   0  0  0  0  0  3  0  0  0  0  0  0
  191.4120  177.7130  145.4070 C   0  0  0  0  0  3  0  0  0  0  0  0
  190.8930  177.0040  143.1330 C   0  0  0  0  0  0  0  0  0  0  0  0
  190.9840  178.0260  144.1120 C   0  0  0  0  0  0  0  0  0  0  0  0
  191.7530  176.4010  145.7560 C   0  0  0  0  0  0  0  0  0  0  0  0
  192.2000  176.0820  147.1200 C   0  0  0  0  0  0  0  0  0  0  0  0
  192.1250  177.0410  148.1240 O   0  0  0  0  0  1  0  0  0  0  0  0
  192.6540  174.9390  147.3940 O   0  0  0  0  0  0  0  0  0  0  0  0
  1  2  1  0  0  0  0
  2 15  1  0  0  0  0
  3  1  2  0  0  0  0
  5 13  1  0  0  0  0
  6  5  2  0  0  0  0
  7  8  2  0  0  0  0
  7  6  1  0  0  0  0
  8 11  1  0  0  0  0
  9  7  1  0  0  0  0
 10 14  1  0  0  0  0
 11 15  2  0  0  0  0
 11 13  1  0  0  0  0
 12 14  2  0  0  0  0
 13 10  2  0  0  0  0
 14  4  1  0  0  0  0
 15 12  1  0  0  0  0
 16  6  1  0  0  0  0
 16 17  1  0  0  0  0
 17 18  1  0  0  0  0
 19 17  2  0  0  0  0
 20 22  1  0  0  0  0
 20  1  1  0  0  0  0
 21 22  2  0  0  0  0
 22 27  1  0  0  0  0
 23 25  1  0  0  0  0
 24 28  1  0  0  0  0
 25 29  2  0  0  0  0
 26 29  1  0  0  0  0
 27 23  2  0  0  0  0
 27 28  1  0  0  0  0
 28 26  2  0  0  0  0
 29 30  1  0  0  0  0
 30 32  2  0  0  0  0
 30 31  1  0  0  0  0
M  END
>  <MODEL>
1

>  <REMARK>
 VINA RESULT:      -9.3      0.000      0.000
  Name = 
  7 active torsions:
  status: ('A' for Active; 'I' for Inactive)
    1  A    between atoms: C_5  and  O_10
    2  A    between atoms: C_6  and  C_21
    3  A    between atoms: O_10  and  C_15
    4  A    between atoms: C_17  and  C_29
    5  A    between atoms: C_19  and  O_30
    6  A    between atoms: N_22  and  C_31
    7  A    between atoms: C_29  and  O_30
                            x       y       z     vdW  Elec       q    Type
                         _______ _______ _______ _____ _____    ______ ____

>  <TORSDO>
F 7

$$$$
=
 OpenBabel11042410123D

 32 34  0  0  0  0  0  0  0  0999 V2000
  191.5760  177.3990  141.7570 C   0  0  0  0  0  0  0  0  0  0  0  0
  190.2350  176.9930  141.4650 N   0  0  0  0  0  2  0  0  0  0  0  0
  192.3120  177.8590  140.8410 O   0  0  0  0  0  0  0  0  0  0  0  0
  189.9670  177.1270  136.6610 F   0  0  0  0  0  0  0  0  0  0  0  0
  186.2810  178.6680  139.1440 N   0  0  0  0  0  0  0  0  0  0  0  0
  185.6330  178.8920  140.3210 C   0  0  0  0  0  0  0  0  0  0  0  0
  186.2830  178.5780  141.5240 C   0  0  0  0  0  0  0  0  0  0  0  0
  187.5430  178.0710  141.4950 N   0  0  0  0  0  0  0  0  0  0  0  0
  185.6130  178.7940  142.8370 C   0  0  0  0  0  1  0  0  0  0  0  0
  188.1480  177.9120  137.9220 N   0  0  0  0  0  0  0  0  0  0  0  0
  188.1990  177.8650  140.3220 C   0  0  0  0  0  0  0  0  0  0  0  0
  190.0850  177.0670  139.0380 C   0  0  0  0  0  3  0  0  0  0  0  0
  187.5390  178.1600  139.1120 C   0  0  0  0  0  0  0  0  0  0  0  0
  189.3940  177.3720  137.8630 C   0  0  0  0  0  0  0  0  0  0  0  0
  189.5020  177.3320  140.2800 C   0  0  0  0  0  0  0  0  0  0  0  0
  184.3340  179.4220  140.3500 O   0  0  0  0  0  0  0  0  0  0  0  0
  183.5490  179.7090  139.2250 C   0  0  0  0  0  0  0  0  0  0  0  0
  182.8470  178.5980  138.5320 C   0  0  0  0  0  1  0  0  0  0  0  0
  183.4250  180.8830  138.7870 O   0  0  0  0  0  0  0  0  0  0  0  0
  192.0640  177.2260  143.0570 O   0  0  0  0  0  0  0  0  0  0  0  0
  191.9260  175.1060  143.9640 O   0  0  0  0  0  0  0  0  0  0  0  0
  191.5620  176.3140  143.9970 C   0  0  0  0  0  0  0  0  0  0  0  0
  189.3920  177.3300  144.6260 C   0  0  0  0  0  3  0  0  0  0  0  0
  192.0980  176.0270  146.9860 C   0  0  0  0  0  1  0  0  0  0  0  0
  188.4450  177.7660  145.5530 C   0  0  0  0  0  3  0  0  0  0  0  0
  189.8910  177.0630  147.3530 C   0  0  0  0  0  3  0  0  0  0  0  0
  190.6030  176.7540  145.0420 C   0  0  0  0  0  0  0  0  0  0  0  0
  190.8480  176.6230  146.4330 C   0  0  0  0  0  0  0  0  0  0  0  0
  188.6880  177.6360  146.9230 C   0  0  0  0  0  0  0  0  0  0  0  0
  187.6880  178.0960  147.8990 C   0  0  0  0  0  0  0  0  0  0  0  0
  186.4230  178.4870  147.4750 O   0  0  0  0  0  0  0  0  0  0  0  0
  187.9660  178.1410  149.1270 O   0  0  0  0  0  1  0  0  0  0  0  0
  1 20  1  0  0  0  0
  2  1  1  0  0  0  0
  3  1  2  0  0  0  0
  4 14  1  0  0  0  0
  5  6  2  0  0  0  0
  6 16  1  0  0  0  0
  6  7  1  0  0  0  0
  7  9  1  0  0  0  0
  8  7  2  0  0  0  0
 10 13  1  0  0  0  0
 11  8  1  0  0  0  0
 12 15  2  0  0  0  0
 13  5  1  0  0  0  0
 13 11  2  0  0  0  0
 14 10  2  0  0  0  0
 14 12  1  0  0  0  0
 15 11  1  0  0  0  0
 15  2  1  0  0  0  0
 17 16  1  0  0  0  0
 18 17  1  0  0  0  0
 19 17  2  0  0  0  0
 20 22  1  0  0  0  0
 21 22  2  0  0  0  0
 22 27  1  0  0  0  0
 23 27  2  0  0  0  0
 23 25  1  0  0  0  0
 25 29  2  0  0  0  0
 27 28  1  0  0  0  0
 28 24  1  0  0  0  0
 28 26  2  0  0  0  0
 29 26  1  0  0  0  0
 29 30  1  0  0  0  0
 30 32  1  0  0  0  0
 31 30  2  0  0  0  0
M  END
>  <MODEL>
2

>  <REMARK>
 VINA RESULT:      -9.1      3.687      5.302
  Name = 
  7 active torsions:
  status: ('A' for Active; 'I' for Inactive)
    1  A    between atoms: C_5  and  O_10
    2  A    between atoms: C_6  and  C_21
    3  A    between atoms: O_10  and  C_15
    4  A    between atoms: C_17  and  C_29
    5  A    between atoms: C_19  and  O_30
    6  A    between atoms: N_22  and  C_31
    7  A    between atoms: C_29  and  O_30
                            x       y       z     vdW  Elec       q    Type
                         _______ _______ _______ _____ _____    ______ ____

>  <TORSDO>
F 7

$$$$
=
 OpenBabel11042410123D

 32 34  0  0  0  0  0  0  0  0999 V2000
  184.8760  178.9540  143.3730 C   0  0  0  0  0  0  0  0  0  0  0  0
  185.5960  179.5050  142.2660 N   0  0  0  0  0  2  0  0  0  0  0  0
  183.8780  178.2080  143.1720 O   0  0  0  0  0  0  0  0  0  0  0  0
  182.9860  178.9880  138.2550 F   0  0  0  0  0  0  0  0  0  0  0  0
  187.4720  177.5770  138.1920 N   0  0  0  0  0  0  0  0  0  0  0  0
  188.6960  177.4340  138.7730 C   0  0  0  0  0  0  0  0  0  0  0  0
  188.8710  177.8540  140.1010 C   0  0  0  0  0  0  0  0  0  0  0  0
  187.8200  178.3810  140.7820 N   0  0  0  0  0  0  0  0  0  0  0  0
  190.1920  177.7300  140.7770 C   0  0  0  0  0  1  0  0  0  0  0  0
  185.2220  178.2700  138.2550 N   0  0  0  0  0  0  0  0  0  0  0  0
  186.5930  178.5060  140.2110 C   0  0  0  0  0  0  0  0  0  0  0  0
  184.2890  179.2370  140.2310 C   0  0  0  0  0  3  0  0  0  0  0  0
  186.4220  178.1050  138.8710 C   0  0  0  0  0  0  0  0  0  0  0  0
  184.1640  178.8270  138.9020 C   0  0  0  0  0  0  0  0  0  0  0  0
  185.5000  179.0590  140.9060 C   0  0  0  0  0  0  0  0  0  0  0  0
  189.7790  176.8840  138.0700 O   0  0  0  0  0  0  0  0  0  0  0  0
  189.9630  175.5210  137.8020 C   0  0  0  0  0  0  0  0  0  0  0  0
  189.0020  174.8250  136.9080 C   0  0  0  0  0  1  0  0  0  0  0  0
  190.9210  174.8720  138.2990 O   0  0  0  0  0  0  0  0  0  0  0  0
  185.2680  179.3000  144.6710 O   0  0  0  0  0  0  0  0  0  0  0  0
  184.9450  177.9540  146.5210 O   0  0  0  0  0  0  0  0  0  0  0  0
  185.7330  178.4040  145.6440 C   0  0  0  0  0  0  0  0  0  0  0  0
  187.7150  177.5210  144.4470 C   0  0  0  0  0  3  0  0  0  0  0  0
  187.4750  178.4340  148.1480 C   0  0  0  0  0  1  0  0  0  0  0  0
  189.0430  177.0970  144.3830 C   0  0  0  0  0  3  0  0  0  0  0  0
  189.2960  177.5530  146.7390 C   0  0  0  0  0  3  0  0  0  0  0  0
  187.1530  177.9680  145.6540 C   0  0  0  0  0  0  0  0  0  0  0  0
  187.9660  177.9800  146.8150 C   0  0  0  0  0  0  0  0  0  0  0  0
  189.8420  177.1100  145.5290 C   0  0  0  0  0  0  0  0  0  0  0  0
  191.2420  176.6620  145.4590 C   0  0  0  0  0  0  0  0  0  0  0  0
  191.7480  176.1260  144.2800 O   0  0  0  0  0  0  0  0  0  0  0  0
  191.9950  176.7600  146.4640 O   0  0  0  0  0  1  0  0  0  0  0  0
  1 20  1  0  0  0  0
  2  1  1  0  0  0  0
  3  1  2  0  0  0  0
  4 14  1  0  0  0  0
  5  6  2  0  0  0  0
  5 13  1  0  0  0  0
  6  7  1  0  0  0  0
  7  9  1  0  0  0  0
  7  8  2  0  0  0  0
 10 13  2  0  0  0  0
 10 14  1  0  0  0  0
 11  8  1  0  0  0  0
 11 15  2  0  0  0  0
 12 15  1  0  0  0  0
 13 11  1  0  0  0  0
 14 12  2  0  0  0  0
 15  2  1  0  0  0  0
 16  6  1  0  0  0  0
 17 16  1  0  0  0  0
 17 19  2  0  0  0  0
 18 17  1  0  0  0  0
 20 22  1  0  0  0  0
 22 27  1  0  0  0  0
 22 21  2  0  0  0  0
 23 27  1  0  0  0  0
 25 23  2  0  0  0  0
 25 29  1  0  0  0  0
 26 28  1  0  0  0  0
 27 28  2  0  0  0  0
 28 24  1  0  0  0  0
 29 26  2  0  0  0  0
 30 29  1  0  0  0  0
 30 32  1  0  0  0  0
 31 30  2  0  0  0  0
M  END
>  <MODEL>
3

>  <REMARK>
 VINA RESULT:      -8.6      3.403      6.629
  Name = 
  7 active torsions:
  status: ('A' for Active; 'I' for Inactive)
    1  A    between atoms: C_5  and  O_10
    2  A    between atoms: C_6  and  C_21
    3  A    between atoms: O_10  and  C_15
    4  A    between atoms: C_17  and  C_29
    5  A    between atoms: C_19  and  O_30
    6  A    between atoms: N_22  and  C_31
    7  A    between atoms: C_29  and  O_30
                            x       y       z     vdW  Elec       q    Type
                         _______ _______ _______ _____ _____    ______ ____

>  <TORSDO>
F 7

$$$$
=
 OpenBabel11042410123D

 32 34  0  0  0  0  0  0  0  0999 V2000
  191.1480  176.7360  143.8690 C   0  0  0  0  0  0  0  0  0  0  0  0
  190.7660  177.7660  142.9520 N   0  0  0  0  0  2  0  0  0  0  0  0
  191.2250  175.5380  143.4810 O   0  0  0  0  0  0  0  0  0  0  0  0
  193.0550  176.6590  138.8650 F   0  0  0  0  0  0  0  0  0  0  0  0
  188.5400  177.9530  138.6110 N   0  0  0  0  0  0  0  0  0  0  0  0
  187.3600  178.3170  139.1850 C   0  0  0  0  0  0  0  0  0  0  0  0
  187.2960  178.4520  140.5800 C   0  0  0  0  0  0  0  0  0  0  0  0
  188.4080  178.2290  141.3280 N   0  0  0  0  0  0  0  0  0  0  0  0
  186.0260  178.8370  141.2560 C   0  0  0  0  0  1  0  0  0  0  0  0
  190.8070  177.3300  138.7610 N   0  0  0  0  0  0  0  0  0  0  0  0
  189.5920  177.8840  140.7560 C   0  0  0  0  0  0  0  0  0  0  0  0
  191.9100  177.2100  140.8780 C   0  0  0  0  0  3  0  0  0  0  0  0
  189.6520  177.7280  139.3570 C   0  0  0  0  0  0  0  0  0  0  0  0
  191.9250  177.0660  139.4890 C   0  0  0  0  0  0  0  0  0  0  0  0
  190.7480  177.6430  141.5230 C   0  0  0  0  0  0  0  0  0  0  0  0
  186.2130  178.5530  138.4110 O   0  0  0  0  0  0  0  0  0  0  0  0
  185.6300  177.6380  137.5240 C   0  0  0  0  0  0  0  0  0  0  0  0
  184.3610  176.9680  137.9090 C   0  0  0  0  0  1  0  0  0  0  0  0
  186.1560  177.3680  136.4120 O   0  0  0  0  0  0  0  0  0  0  0  0
  191.3780  177.0780  145.2070 O   0  0  0  0  0  0  0  0  0  0  0  0
  190.8870  176.2130  147.2930 O   0  0  0  0  0  0  0  0  0  0  0  0
  190.4940  176.8380  146.2690 C   0  0  0  0  0  0  0  0  0  0  0  0
  188.3790  177.1270  145.0100 C   0  0  0  0  0  3  0  0  0  0  0  0
  189.0890  178.2070  148.6050 C   0  0  0  0  0  1  0  0  0  0  0  0
  187.0570  177.5520  144.8820 C   0  0  0  0  0  3  0  0  0  0  0  0
  187.1060  178.3760  147.1490 C   0  0  0  0  0  3  0  0  0  0  0  0
  189.0890  177.3170  146.2070 C   0  0  0  0  0  0  0  0  0  0  0  0
  188.4320  177.9550  147.2900 C   0  0  0  0  0  0  0  0  0  0  0  0
  186.4110  178.1800  145.9500 C   0  0  0  0  0  0  0  0  0  0  0  0
  185.0170  178.6280  145.8120 C   0  0  0  0  0  0  0  0  0  0  0  0
  184.5680  179.1640  144.6100 O   0  0  0  0  0  0  0  0  0  0  0  0
  184.2150  178.5290  146.7790 O   0  0  0  0  0  1  0  0  0  0  0  0
  1 20  1  0  0  0  0
  2  1  1  0  0  0  0
  3  1  2  0  0  0  0
  4 14  1  0  0  0  0
  5  6  2  0  0  0  0
  5 13  1  0  0  0  0
  6  7  1  0  0  0  0
  7  9  1  0  0  0  0
  7  8  2  0  0  0  0
 10 13  2  0  0  0  0
 10 14  1  0  0  0  0
 11  8  1  0  0  0  0
 11 15  2  0  0  0  0
 12 15  1  0  0  0  0
 13 11  1  0  0  0  0
 14 12  2  0  0  0  0
 15  2  1  0  0  0  0
 16  6  1  0  0  0  0
 17 18  1  0  0  0  0
 17 16  1  0  0  0  0
 19 17  2  0  0  0  0
 20 22  1  0  0  0  0
 22 21  2  0  0  0  0
 23 27  1  0  0  0  0
 25 23  2  0  0  0  0
 25 29  1  0  0  0  0
 26 28  1  0  0  0  0
 27 22  1  0  0  0  0
 27 28  2  0  0  0  0
 28 24  1  0  0  0  0
 29 26  2  0  0  0  0
 30 29  1  0  0  0  0
 30 32  1  0  0  0  0
 31 30  2  0  0  0  0
M  END
>  <MODEL>
4

>  <REMARK>
 VINA RESULT:      -8.6      3.697      6.524
  Name = 
  7 active torsions:
  status: ('A' for Active; 'I' for Inactive)
    1  A    between atoms: C_5  and  O_10
    2  A    between atoms: C_6  and  C_21
    3  A    between atoms: O_10  and  C_15
    4  A    between atoms: C_17  and  C_29
    5  A    between atoms: C_19  and  O_30
    6  A    between atoms: N_22  and  C_31
    7  A    between atoms: C_29  and  O_30
                            x       y       z     vdW  Elec       q    Type
                         _______ _______ _______ _____ _____    ______ ____

>  <TORSDO>
F 7

$$$$
=
 OpenBabel11042410123D

 32 34  0  0  0  0  0  0  0  0999 V2000
  184.8760  178.6960  140.8460 C   0  0  0  0  0  0  0  0  0  0  0  0
  186.0720  178.9670  140.1080 N   0  0  0  0  0  2  0  0  0  0  0  0
  183.9780  177.9620  140.3490 O   0  0  0  0  0  0  0  0  0  0  0  0
  185.3210  177.5150  135.5810 F   0  0  0  0  0  0  0  0  0  0  0  0
  189.3560  176.2990  137.6720 N   0  0  0  0  0  0  0  0  0  0  0  0
  190.2220  176.3300  138.7220 C   0  0  0  0  0  0  0  0  0  0  0  0
  189.8560  177.0270  139.8850 C   0  0  0  0  0  0  0  0  0  0  0  0
  188.6480  177.6440  139.9450 N   0  0  0  0  0  0  0  0  0  0  0  0
  190.7740  177.0990  141.0560 C   0  0  0  0  0  1  0  0  0  0  0  0
  187.3180  176.9010  136.6540 N   0  0  0  0  0  0  0  0  0  0  0  0
  187.7730  177.5980  138.9050 C   0  0  0  0  0  0  0  0  0  0  0  0
  185.7060  178.2260  137.8200 C   0  0  0  0  0  3  0  0  0  0  0  0
  188.1480  176.9170  137.7300 C   0  0  0  0  0  0  0  0  0  0  0  0
  186.1190  177.5410  136.6750 C   0  0  0  0  0  0  0  0  0  0  0  0
  186.5210  178.2420  138.9550 C   0  0  0  0  0  0  0  0  0  0  0  0
  191.4680  175.6870  138.6610 O   0  0  0  0  0  0  0  0  0  0  0  0
  192.5930  176.1610  137.9730 C   0  0  0  0  0  0  0  0  0  0  0  0
  192.6900  175.9390  136.5070 C   0  0  0  0  0  1  0  0  0  0  0  0
  193.5220  176.7700  138.5660 O   0  0  0  0  0  0  0  0  0  0  0  0
  184.7040  179.3010  142.0960 O   0  0  0  0  0  0  0  0  0  0  0  0
  183.4550  178.3450  143.7880 O   0  0  0  0  0  0  0  0  0  0  0  0
  184.5930  178.6200  143.3170 C   0  0  0  0  0  0  0  0  0  0  0  0
  186.9160  177.7570  143.3350 C   0  0  0  0  0  3  0  0  0  0  0  0
  184.7900  178.7170  146.3600 C   0  0  0  0  0  1  0  0  0  0  0  0
  188.0890  177.3570  143.9750 C   0  0  0  0  0  3  0  0  0  0  0  0
  187.0850  177.8490  146.1130 C   0  0  0  0  0  3  0  0  0  0  0  0
  185.8080  178.2100  144.0680 C   0  0  0  0  0  0  0  0  0  0  0  0
  185.9030  178.2530  145.4830 C   0  0  0  0  0  0  0  0  0  0  0  0
  188.1820  177.4000  145.3680 C   0  0  0  0  0  0  0  0  0  0  0  0
  189.4190  176.9760  146.0410 C   0  0  0  0  0  0  0  0  0  0  0  0
  190.6140  176.9110  145.3340 O   0  0  0  0  0  0  0  0  0  0  0  0
  189.4100  176.6700  147.2630 O   0  0  0  0  0  1  0  0  0  0  0  0
  1 20  1  0  0  0  0
  2  1  1  0  0  0  0
  3  1  2  0  0  0  0
  4 14  1  0  0  0  0
  5 13  1  0  0  0  0
  5  6  2  0  0  0  0
  6  7  1  0  0  0  0
  7  8  2  0  0  0  0
  7  9  1  0  0  0  0
 10 14  2  0  0  0  0
 10 13  1  0  0  0  0
 11 15  1  0  0  0  0
 11  8  1  0  0  0  0
 12 15  2  0  0  0  0
 13 11  2  0  0  0  0
 14 12  1  0  0  0  0
 15  2  1  0  0  0  0
 16  6  1  0  0  0  0
 17 19  2  0  0  0  0
 17 16  1  0  0  0  0
 18 17  1  0  0  0  0
 20 22  1  0  0  0  0
 22 21  2  0  0  0  0
 22 27  1  0  0  0  0
 23 25  2  0  0  0  0
 23 27  1  0  0  0  0
 25 29  1  0  0  0  0
 27 28  2  0  0  0  0
 28 26  1  0  0  0  0
 28 24  1  0  0  0  0
 29 30  1  0  0  0  0
 29 26  2  0  0  0  0
 30 32  1  0  0  0  0
 31 30  2  0  0  0  0
M  END
>  <MODEL>
5

>  <REMARK>
 VINA RESULT:      -8.3      3.895      7.898
  Name = 
  7 active torsions:
  status: ('A' for Active; 'I' for Inactive)
    1  A    between atoms: C_5  and  O_10
    2  A    between atoms: C_6  and  C_21
    3  A    between atoms: O_10  and  C_15
    4  A    between atoms: C_17  and  C_29
    5  A    between atoms: C_19  and  O_30
    6  A    between atoms: N_22  and  C_31
    7  A    between atoms: C_29  and  O_30
                            x       y       z     vdW  Elec       q    Type
                         _______ _______ _______ _____ _____    ______ ____

>  <TORSDO>
F 7

$$$$
=
 OpenBabel11042410123D

 32 34  0  0  0  0  0  0  0  0999 V2000
  185.8960  178.9940  141.7500 C   0  0  0  0  0  0  0  0  0  0  0  0
  186.1380  177.8570  142.5840 N   0  0  0  0  0  2  0  0  0  0  0  0
  185.6460  180.1170  142.2670 O   0  0  0  0  0  0  0  0  0  0  0  0
  184.5980  178.2720  147.1250 F   0  0  0  0  0  0  0  0  0  0  0  0
  189.1940  177.5980  146.3830 N   0  0  0  0  0  0  0  0  0  0  0  0
  190.2590  177.3730  145.5640 C   0  0  0  0  0  0  0  0  0  0  0  0
  190.0490  177.3080  144.1780 C   0  0  0  0  0  0  0  0  0  0  0  0
  188.7970  177.4820  143.6800 N   0  0  0  0  0  0  0  0  0  0  0  0
  191.1790  177.0530  143.2420 C   0  0  0  0  0  1  0  0  0  0  0  0
  186.8920  177.9580  146.7280 N   0  0  0  0  0  0  0  0  0  0  0  0
  187.7360  177.7270  144.4930 C   0  0  0  0  0  0  0  0  0  0  0  0
  185.3740  178.0650  144.8850 C   0  0  0  0  0  3  0  0  0  0  0  0
  187.9420  177.7710  145.8860 C   0  0  0  0  0  0  0  0  0  0  0  0
  185.6240  178.0990  146.2580 C   0  0  0  0  0  0  0  0  0  0  0  0
  186.4330  177.9010  143.9870 C   0  0  0  0  0  0  0  0  0  0  0  0
  191.5530  177.1990  146.0800 O   0  0  0  0  0  0  0  0  0  0  0  0
  192.0570  176.0090  146.6200 C   0  0  0  0  0  0  0  0  0  0  0  0
  192.4310  175.9700  148.0570 C   0  0  0  0  0  1  0  0  0  0  0  0
  192.2030  174.9730  145.9180 O   0  0  0  0  0  0  0  0  0  0  0  0
  185.8920  178.8210  140.3610 O   0  0  0  0  0  0  0  0  0  0  0  0
  184.5270  180.1540  139.0580 O   0  0  0  0  0  0  0  0  0  0  0  0
  184.7820  179.0100  139.5240 C   0  0  0  0  0  0  0  0  0  0  0  0
  184.2130  177.1160  138.0310 C   0  0  0  0  0  3  0  0  0  0  0  0
  182.3250  178.2340  141.1580 C   0  0  0  0  0  1  0  0  0  0  0  0
  183.4260  176.0330  137.6410 C   0  0  0  0  0  3  0  0  0  0  0  0
  181.9720  176.4170  139.5290 C   0  0  0  0  0  3  0  0  0  0  0  0
  183.8970  177.8700  139.1730 C   0  0  0  0  0  0  0  0  0  0  0  0
  182.7540  177.5060  139.9290 C   0  0  0  0  0  0  0  0  0  0  0  0
  182.3000  175.6750  138.3870 C   0  0  0  0  0  0  0  0  0  0  0  0
  181.4710  174.5320  137.9750 C   0  0  0  0  0  0  0  0  0  0  0  0
  180.2770  174.2580  138.6330 O   0  0  0  0  0  1  0  0  0  0  0  0
  181.8320  173.7910  137.0220 O   0  0  0  0  0  0  0  0  0  0  0  0
  1  3  2  0  0  0  0
  1  2  1  0  0  0  0
  2 15  1  0  0  0  0
  6 16  1  0  0  0  0
  6  5  2  0  0  0  0
  7  6  1  0  0  0  0
  8  7  2  0  0  0  0
  8 11  1  0  0  0  0
  9  7  1  0  0  0  0
 11 13  1  0  0  0  0
 12 14  2  0  0  0  0
 13  5  1  0  0  0  0
 13 10  2  0  0  0  0
 14 10  1  0  0  0  0
 14  4  1  0  0  0  0
 15 11  2  0  0  0  0
 15 12  1  0  0  0  0
 16 17  1  0  0  0  0
 17 18  1  0  0  0  0
 19 17  2  0  0  0  0
 20  1  1  0  0  0  0
 21 22  2  0  0  0  0
 22 20  1  0  0  0  0
 23 27  1  0  0  0  0
 25 23  2  0  0  0  0
 25 29  1  0  0  0  0
 26 28  1  0  0  0  0
 27 22  1  0  0  0  0
 27 28  2  0  0  0  0
 28 24  1  0  0  0  0
 29 26  2  0  0  0  0
 30 29  1  0  0  0  0
 30 31  1  0  0  0  0
 32 30  2  0  0  0  0
M  END
>  <MODEL>
6

>  <REMARK>
 VINA RESULT:      -8.3      2.709      8.725
  Name = 
  7 active torsions:
  status: ('A' for Active; 'I' for Inactive)
    1  A    between atoms: C_5  and  O_10
    2  A    between atoms: C_6  and  C_21
    3  A    between atoms: O_10  and  C_15
    4  A    between atoms: C_17  and  C_29
    5  A    between atoms: C_19  and  O_30
    6  A    between atoms: N_22  and  C_31
    7  A    between atoms: C_29  and  O_30
                            x       y       z     vdW  Elec       q    Type
                         _______ _______ _______ _____ _____    ______ ____

>  <TORSDO>
F 7

$$$$
=
 OpenBabel11042410123D

 32 34  0  0  0  0  0  0  0  0999 V2000
  186.9750  177.5720  145.9580 C   0  0  0  0  0  0  0  0  0  0  0  0
  187.6050  177.1240  144.7540 N   0  0  0  0  0  2  0  0  0  0  0  0
  187.6440  177.6770  147.0230 O   0  0  0  0  0  0  0  0  0  0  0  0
  192.0510  176.5490  146.5070 F   0  0  0  0  0  0  0  0  0  0  0  0
  191.5440  177.1550  141.8700 N   0  0  0  0  0  0  0  0  0  0  0  0
  190.7790  177.3130  140.7540 C   0  0  0  0  0  0  0  0  0  0  0  0
  189.3830  177.3770  140.8920 C   0  0  0  0  0  0  0  0  0  0  0  0
  188.8260  177.2930  142.1290 N   0  0  0  0  0  0  0  0  0  0  0  0
  188.5020  177.5370  139.7020 C   0  0  0  0  0  1  0  0  0  0  0  0
  191.7750  176.8760  144.1980 N   0  0  0  0  0  0  0  0  0  0  0  0
  189.5890  177.1560  143.2450 C   0  0  0  0  0  0  0  0  0  0  0  0
  189.8580  176.8350  145.6260 C   0  0  0  0  0  3  0  0  0  0  0  0
  190.9890  177.0700  143.1060 C   0  0  0  0  0  0  0  0  0  0  0  0
  191.2410  176.7530  145.4420 C   0  0  0  0  0  0  0  0  0  0  0  0
  189.0210  177.0600  144.5300 C   0  0  0  0  0  0  0  0  0  0  0  0
  191.3560  177.4060  139.4790 O   0  0  0  0  0  0  0  0  0  0  0  0
  191.7160  176.3190  138.6710 C   0  0  0  0  0  0  0  0  0  0  0  0
  192.9890  176.3780  137.9070 C   0  0  0  0  0  1  0  0  0  0  0  0
  190.9890  175.2950  138.5760 O   0  0  0  0  0  0  0  0  0  0  0  0
  185.6010  177.8380  145.9400 O   0  0  0  0  0  0  0  0  0  0  0  0
  185.3060  180.1280  145.8420 O   0  0  0  0  0  0  0  0  0  0  0  0
  185.0050  178.9860  145.3970 C   0  0  0  0  0  0  0  0  0  0  0  0
  182.6540  178.9250  144.6170 C   0  0  0  0  0  3  0  0  0  0  0  0
  185.8020  178.6600  142.4710 C   0  0  0  0  0  1  0  0  0  0  0  0
  181.6730  178.8280  143.6300 C   0  0  0  0  0  3  0  0  0  0  0  0
  183.3920  178.6280  141.9490 C   0  0  0  0  0  3  0  0  0  0  0  0
  184.0190  178.8760  144.2920 C   0  0  0  0  0  0  0  0  0  0  0  0
  184.3850  178.7240  142.9300 C   0  0  0  0  0  0  0  0  0  0  0  0
  182.0350  178.6780  142.2890 C   0  0  0  0  0  0  0  0  0  0  0  0
  181.0000  178.5760  141.2500 C   0  0  0  0  0  0  0  0  0  0  0  0
  180.7700  177.3650  140.6050 O   0  0  0  0  0  0  0  0  0  0  0  0
  180.3100  179.5820  140.9330 O   0  0  0  0  0  1  0  0  0  0  0  0
  1  3  2  0  0  0  0
  2  1  1  0  0  0  0
  5 13  1  0  0  0  0
  6  7  1  0  0  0  0
  6  5  2  0  0  0  0
  7  8  2  0  0  0  0
  8 11  1  0  0  0  0
  9  7  1  0  0  0  0
 10 14  1  0  0  0  0
 11 15  2  0  0  0  0
 13 11  1  0  0  0  0
 13 10  2  0  0  0  0
 14 12  2  0  0  0  0
 14  4  1  0  0  0  0
 15  2  1  0  0  0  0
 15 12  1  0  0  0  0
 16  6  1  0  0  0  0
 17 16  1  0  0  0  0
 18 17  1  0  0  0  0
 19 17  2  0  0  0  0
 20  1  1  0  0  0  0
 22 21  2  0  0  0  0
 22 20  1  0  0  0  0
 24 28  1  0  0  0  0
 25 23  2  0  0  0  0
 26 29  2  0  0  0  0
 26 28  1  0  0  0  0
 27 23  1  0  0  0  0
 27 22  1  0  0  0  0
 28 27  2  0  0  0  0
 29 25  1  0  0  0  0
 30 29  1  0  0  0  0
 31 30  2  0  0  0  0
 32 30  1  0  0  0  0
M  END
>  <MODEL>
7

>  <REMARK>
 VINA RESULT:      -8.3      2.736      8.651
  Name = 
  7 active torsions:
  status: ('A' for Active; 'I' for Inactive)
    1  A    between atoms: C_5  and  O_10
    2  A    between atoms: C_6  and  C_21
    3  A    between atoms: O_10  and  C_15
    4  A    between atoms: C_17  and  C_29
    5  A    between atoms: C_19  and  O_30
    6  A    between atoms: N_22  and  C_31
    7  A    between atoms: C_29  and  O_30
                            x       y       z     vdW  Elec       q    Type
                         _______ _______ _______ _____ _____    ______ ____

>  <TORSDO>
F 7

$$$$
=
 OpenBabel11042410123D

 32 34  0  0  0  0  0  0  0  0999 V2000
  184.4090  178.8580  141.8260 C   0  0  0  0  0  0  0  0  0  0  0  0
  184.9990  179.3750  140.6300 N   0  0  0  0  0  2  0  0  0  0  0  0
  183.6210  177.8740  141.7710 O   0  0  0  0  0  0  0  0  0  0  0  0
  182.7280  177.9120  136.6470 F   0  0  0  0  0  0  0  0  0  0  0  0
  187.3290  177.0190  137.0440 N   0  0  0  0  0  0  0  0  0  0  0  0
  188.5190  177.1110  137.6990 C   0  0  0  0  0  0  0  0  0  0  0  0
  188.5620  177.7630  138.9420 C   0  0  0  0  0  0  0  0  0  0  0  0
  187.4200  178.2750  139.4710 N   0  0  0  0  0  0  0  0  0  0  0  0
  189.8410  177.9000  139.6920 C   0  0  0  0  0  1  0  0  0  0  0  0
  185.0200  177.4570  136.8780 N   0  0  0  0  0  0  0  0  0  0  0  0
  186.2270  178.1660  138.8280 C   0  0  0  0  0  0  0  0  0  0  0  0
  183.8640  178.6290  138.6110 C   0  0  0  0  0  3  0  0  0  0  0  0
  186.1870  177.5320  137.5700 C   0  0  0  0  0  0  0  0  0  0  0  0
  183.8700  177.9930  137.3680 C   0  0  0  0  0  0  0  0  0  0  0  0
  185.0400  178.7020  139.3640 C   0  0  0  0  0  0  0  0  0  0  0  0
  189.6960  176.5760  137.1550 O   0  0  0  0  0  0  0  0  0  0  0  0
  190.1630  175.2700  137.3570 C   0  0  0  0  0  0  0  0  0  0  0  0
  191.5700  175.0640  137.7860 C   0  0  0  0  0  1  0  0  0  0  0  0
  189.4200  174.2680  137.1830 O   0  0  0  0  0  0  0  0  0  0  0  0
  184.6800  179.4970  143.0420 O   0  0  0  0  0  0  0  0  0  0  0  0
  183.3600  178.7230  144.7730 O   0  0  0  0  0  0  0  0  0  0  0  0
  184.5170  178.9250  144.3120 C   0  0  0  0  0  0  0  0  0  0  0  0
  185.6930  178.8750  146.4930 C   0  0  0  0  0  3  0  0  0  0  0  0
  186.9400  177.4650  143.1690 C   0  0  0  0  0  1  0  0  0  0  0  0
  186.7680  178.5480  147.3190 C   0  0  0  0  0  3  0  0  0  0  0  0
  187.9000  177.5430  145.4390 C   0  0  0  0  0  3  0  0  0  0  0  0
  185.6990  178.5440  145.1280 C   0  0  0  0  0  0  0  0  0  0  0  0
  186.8270  177.8660  144.6010 C   0  0  0  0  0  0  0  0  0  0  0  0
  187.8790  177.8800  146.7980 C   0  0  0  0  0  0  0  0  0  0  0  0
  189.0130  177.5370  147.6700 C   0  0  0  0  0  0  0  0  0  0  0  0
  189.2350  178.2500  148.8430 O   0  0  0  0  0  1  0  0  0  0  0  0
  189.7920  176.5950  147.3660 O   0  0  0  0  0  0  0  0  0  0  0  0
  1 20  1  0  0  0  0
  2  1  1  0  0  0  0
  3  1  2  0  0  0  0
  4 14  1  0  0  0  0
  5 13  1  0  0  0  0
  5  6  2  0  0  0  0
  6  7  1  0  0  0  0
  7  8  2  0  0  0  0
  7  9  1  0  0  0  0
 10 14  2  0  0  0  0
 10 13  1  0  0  0  0
 11 15  1  0  0  0  0
 11  8  1  0  0  0  0
 12 15  2  0  0  0  0
 13 11  2  0  0  0  0
 14 12  1  0  0  0  0
 15  2  1  0  0  0  0
 16 17  1  0  0  0  0
 16  6  1  0  0  0  0
 17 18  1  0  0  0  0
 19 17  2  0  0  0  0
 20 22  1  0  0  0  0
 22 21  2  0  0  0  0
 22 27  1  0  0  0  0
 23 25  1  0  0  0  0
 24 28  1  0  0  0  0
 26 29  1  0  0  0  0
 27 23  2  0  0  0  0
 28 27  1  0  0  0  0
 28 26  2  0  0  0  0
 29 25  2  0  0  0  0
 29 30  1  0  0  0  0
 30 31  1  0  0  0  0
 32 30  2  0  0  0  0
M  END
>  <MODEL>
8

>  <REMARK>
 VINA RESULT:      -8.2      3.844      7.378
  Name = 
  7 active torsions:
  status: ('A' for Active; 'I' for Inactive)
    1  A    between atoms: C_5  and  O_10
    2  A    between atoms: C_6  and  C_21
    3  A    between atoms: O_10  and  C_15
    4  A    between atoms: C_17  and  C_29
    5  A    between atoms: C_19  and  O_30
    6  A    between atoms: N_22  and  C_31
    7  A    between atoms: C_29  and  O_30
                            x       y       z     vdW  Elec       q    Type
                         _______ _______ _______ _____ _____    ______ ____

>  <TORSDO>
F 7

$$$$
=
 OpenBabel11042410123D

 32 34  0  0  0  0  0  0  0  0999 V2000
  190.2190  178.5800  144.2850 C   0  0  0  0  0  0  0  0  0  0  0  0
  189.9310  177.5640  143.3200 N   0  0  0  0  0  2  0  0  0  0  0  0
  191.1730  179.3840  144.0950 O   0  0  0  0  0  0  0  0  0  0  0  0
  193.5630  176.7740  140.2620 F   0  0  0  0  0  0  0  0  0  0  0  0
  189.3760  177.9730  138.4870 N   0  0  0  0  0  0  0  0  0  0  0  0
  188.0540  178.2730  138.6210 C   0  0  0  0  0  0  0  0  0  0  0  0
  187.4950  178.3160  139.9080 C   0  0  0  0  0  0  0  0  0  0  0  0
  188.2810  178.0730  140.9900 N   0  0  0  0  0  0  0  0  0  0  0  0
  186.0520  178.6280  140.1070 C   0  0  0  0  0  1  0  0  0  0  0  0
  191.4690  177.3960  139.4010 N   0  0  0  0  0  0  0  0  0  0  0  0
  189.6040  177.7940  140.8590 C   0  0  0  0  0  0  0  0  0  0  0  0
  191.7580  177.1680  141.7620 C   0  0  0  0  0  3  0  0  0  0  0  0
  190.1620  177.7280  139.5660 C   0  0  0  0  0  0  0  0  0  0  0  0
  192.2680  177.1130  140.4640 C   0  0  0  0  0  0  0  0  0  0  0  0
  190.4250  177.5320  141.9730 C   0  0  0  0  0  0  0  0  0  0  0  0
  187.2460  178.5300  137.5030 O   0  0  0  0  0  0  0  0  0  0  0  0
  186.7840  177.5660  136.5970 C   0  0  0  0  0  0  0  0  0  0  0  0
  186.8620  177.8480  135.1410 C   0  0  0  0  0  1  0  0  0  0  0  0
  186.3050  176.4680  136.9860 O   0  0  0  0  0  0  0  0  0  0  0  0
  189.4580  178.6290  145.4590 O   0  0  0  0  0  0  0  0  0  0  0  0
  188.5870  176.7590  146.5010 O   0  0  0  0  0  0  0  0  0  0  0  0
  188.3940  177.7710  145.7710 C   0  0  0  0  0  0  0  0  0  0  0  0
  186.7360  177.6650  143.9320 C   0  0  0  0  0  3  0  0  0  0  0  0
  186.2050  179.0920  147.4350 C   0  0  0  0  0  1  0  0  0  0  0  0
  185.4740  177.8870  143.3810 C   0  0  0  0  0  3  0  0  0  0  0  0
  184.7460  178.8720  145.4600 C   0  0  0  0  0  3  0  0  0  0  0  0
  187.0270  178.0400  145.2540 C   0  0  0  0  0  0  0  0  0  0  0  0
  186.0070  178.6540  146.0230 C   0  0  0  0  0  0  0  0  0  0  0  0
  184.4700  178.4930  144.1410 C   0  0  0  0  0  0  0  0  0  0  0  0
  183.1400  178.7270  143.5580 C   0  0  0  0  0  0  0  0  0  0  0  0
  182.0020  178.6470  144.3520 O   0  0  0  0  0  1  0  0  0  0  0  0
  183.0190  179.0040  142.3340 O   0  0  0  0  0  0  0  0  0  0  0  0
  1 20  1  0  0  0  0
  2  1  1  0  0  0  0
  3  1  2  0  0  0  0
  4 14  1  0  0  0  0
  5  6  2  0  0  0  0
  5 13  1  0  0  0  0
  6  7  1  0  0  0  0
  7  9  1  0  0  0  0
  7  8  2  0  0  0  0
 10 13  2  0  0  0  0
 10 14  1  0  0  0  0
 11  8  1  0  0  0  0
 11 15  2  0  0  0  0
 12 15  1  0  0  0  0
 13 11  1  0  0  0  0
 14 12  2  0  0  0  0
 15  2  1  0  0  0  0
 16  6  1  0  0  0  0
 17 19  2  0  0  0  0
 17 16  1  0  0  0  0
 18 17  1  0  0  0  0
 20 22  1  0  0  0  0
 22 21  2  0  0  0  0
 23 27  1  0  0  0  0
 25 23  2  0  0  0  0
 25 29  1  0  0  0  0
 26 28  1  0  0  0  0
 27 22  1  0  0  0  0
 27 28  2  0  0  0  0
 28 24  1  0  0  0  0
 29 26  2  0  0  0  0
 30 29  1  0  0  0  0
 30 31  1  0  0  0  0
 32 30  2  0  0  0  0
M  END
>  <MODEL>
9

>  <REMARK>
 VINA RESULT:      -8.1      3.541      7.275
  Name = 
  7 active torsions:
  status: ('A' for Active; 'I' for Inactive)
    1  A    between atoms: C_5  and  O_10
    2  A    between atoms: C_6  and  C_21
    3  A    between atoms: O_10  and  C_15
    4  A    between atoms: C_17  and  C_29
    5  A    between atoms: C_19  and  O_30
    6  A    between atoms: N_22  and  C_31
    7  A    between atoms: C_29  and  O_30
                            x       y       z     vdW  Elec       q    Type
                         _______ _______ _______ _____ _____    ______ ____

>  <TORSDO>
F 7

$$$$
