=
 OpenBabel11032421123D

 50 51  0  0  1  0  0  0  0  0999 V2000
  186.0680  178.1020  145.6800 N   0  0  0  0  0  1  0  0  0  0  0  0
  183.5280  178.9950  143.0770 C   0  0  0  0  0  0  0  0  0  0  0  0
  184.2300  178.6670  141.8940 C   0  0  0  0  0  0  0  0  0  0  0  0
  183.5040  179.1050  145.5160 O   0  0  0  0  0  1  0  0  0  0  0  0
  184.1580  178.7930  144.3290 C   0  0  0  0  0  0  0  0  0  0  0  0
  185.4590  178.2720  144.3980 C   0  0  0  0  0  0  0  0  0  0  0  0
  185.5270  178.1510  141.9900 C   0  0  0  0  0  3  0  0  0  0  0  0
  186.1550  177.9450  143.2180 C   0  0  0  0  0  0  0  0  0  0  0  0
  187.7420  176.1690  143.3860 O   0  0  0  0  0  0  0  0  0  0  0  0
  188.6410  178.2850  143.0220 N   0  0  0  0  0  2  0  0  0  0  0  0
  187.5330  177.4010  143.2180 C   0  0  0  0  0  0  0  0  0  0  0  0
  190.0150  177.8140  142.9510 C   0  0  0  0  0  2  0  0  0  0  0  0
  190.3160  176.9190  144.1390 C   0  0  0  0  0  2  0  0  0  0  0  0
  191.2280  177.6030  145.0400 N   0  0  0  0  0  2  0  0  0  0  0  0
  190.7670  177.3610  146.4000 C   0  0  2  0  0  3  0  0  0  0  0  0
  191.7880  176.5990  147.1920 C   0  0  0  0  0  0  0  0  0  0  0  0
  192.3320  175.0510  146.5600 Cl  0  0  0  0  0  0  0  0  0  0  0  0
  192.2190  177.0650  148.3260 N   0  0  0  0  0  0  0  0  0  0  0  0
  193.1690  176.3830  149.1400 C   0  0  0  0  0  3  0  0  0  0  0  0
  194.0320  177.0360  149.7820 O   0  0  0  0  0  0  0  0  0  0  0  0
  189.3960  176.6840  146.4060 C   0  0  0  0  0  2  0  0  0  0  0  0
  188.7820  176.6210  147.7980 C   0  0  0  0  0  2  0  0  0  0  0  0
  188.6110  178.3000  148.4590 S   0  0  0  0  0  1  0  0  0  0  0  0
  183.9740  179.8170  139.8110 O   0  0  0  0  0  0  0  0  0  0  0  0
  183.6430  178.8450  140.5400 C   0  0  0  0  0  0  0  0  0  0  0  0
  182.6830  177.9040  140.0280 C   0  0  0  0  0  0  0  0  0  0  0  0
  181.8890  177.1050  139.5980 C   0  0  0  0  0  0  0  0  0  0  0  0
  180.7420  175.9200  138.9730 S   0  0  0  0  0  0  0  0  0  0  0  0
  182.4120  175.0320  136.9530 C   0  0  0  0  0  0  0  0  0  0  0  0
  182.0430  174.9280  138.2300 C   0  0  0  0  0  3  0  0  0  0  0  0
  181.7330  176.0020  136.0300 C   0  0  0  0  0  2  0  0  0  0  0  0
  182.7620  176.8730  135.3350 C   0  0  0  0  0  2  0  0  0  0  0  0
  183.5960  177.4610  136.2870 O   0  0  0  0  0  0  0  0  0  0  0  0
  184.8090  177.3360  135.7900 O   0  0  0  0  0  0  0  0  0  0  0  0
  184.9710  176.7350  137.9720 F   0  0  0  0  0  0  0  0  0  0  0  0
  185.6520  177.2880  136.9040 C   0  0  1  0  0  3  0  0  0  0  0  0
  186.8140  176.4680  136.5990 N   0  0  0  0  0  2  0  0  0  0  0  0
  188.1990  178.0230  137.8130 C   0  0  0  0  0  2  0  0  0  0  0  0
  187.7490  176.6060  137.7060 C   0  0  2  0  0  3  0  0  0  0  0  0
  189.4590  178.1720  137.4380 C   0  0  0  0  0  2  0  0  0  0  0  0
  191.3400  176.6310  137.7840 C   0  0  0  0  0  1  0  0  0  0  0  0
  190.0620  176.8830  137.0150 C   0  0  1  0  0  3  0  0  0  0  0  0
  189.0210  175.8360  137.3840 C   0  0  0  0  0  2  0  0  0  0  0  0
  183.4410  174.1940  136.4980 O   0  0  0  0  0  0  0  0  0  0  0  0
  184.1670  173.2700  137.3120 C   0  0  2  0  0  3  0  0  0  0  0  0
  185.5420  173.4260  137.1300 O   0  0  0  0  0  1  0  0  0  0  0  0
  183.7550  171.8350  137.0310 C   0  0  0  0  0  2  0  0  0  0  0  0
  182.8800  171.7990  135.9610 F   0  0  0  0  0  0  0  0  0  0  0  0
  180.9710  178.8030  143.3580 C   0  0  0  0  0  1  0  0  0  0  0  0
  182.1860  179.5020  142.9770 N   0  0  0  0  0  2  0  0  0  0  0  0
  2  5  1  0  0  0  0
  3  7  1  0  0  0  0
  3  2  2  0  0  0  0
  5  6  2  0  0  0  0
  5  4  1  0  0  0  0
  6  1  1  0  0  0  0
  7  8  2  0  0  0  0
  8 11  1  0  0  0  0
  8  6  1  0  0  0  0
 10 11  1  0  0  0  0
 11  9  2  0  0  0  0
 12 10  1  0  0  0  0
 12 13  1  0  0  0  0
 13 14  1  0  0  0  0
 14 15  1  0  0  0  0
 15 21  1  6  0  0  0
 15 16  1  0  0  0  0
 16 18  2  0  0  0  0
 17 16  1  0  0  0  0
 18 19  1  0  0  0  0
 19 20  2  0  0  0  0
 21 22  1  0  0  0  0
 22 23  1  0  0  0  0
 24 25  2  0  0  0  0
 25  3  1  0  0  0  0
 26 25  1  0  0  0  0
 27 26  3  0  0  0  0
 28 27  1  0  0  0  0
 29 30  2  0  0  0  0
 30 28  1  0  0  0  0
 31 29  1  0  0  0  0
 32 31  1  0  0  0  0
 32 33  1  0  0  0  0
 34 33  1  0  0  0  0
 34 36  1  0  0  0  0
 36 35  1  1  0  0  0
 37 36  1  0  0  0  0
 39 37  1  6  0  0  0
 39 38  1  0  0  0  0
 40 38  1  0  0  0  0
 42 43  1  0  0  0  0
 42 40  1  0  0  0  0
 42 41  1  1  0  0  0
 43 39  1  0  0  0  0
 44 29  1  0  0  0  0
 44 45  1  0  0  0  0
 45 46  1  6  0  0  0
 47 45  1  0  0  0  0
 48 47  1  0  0  0  0
 50  2  1  0  0  0  0
 50 49  1  0  0  0  0
M  END
>  <MODEL>
1

>  <REMARK>
 VINA RESULT:      -6.2      0.000      0.000
  Name = 
  24 active torsions:
  status: ('A' for Active; 'I' for Inactive)
    1  A    between atoms: C_1  and  N_47
    2  A    between atoms: C_5  and  N_29
    3  A    between atoms: C_5  and  C_39
    4  A    between atoms: N_7  and  C_19
    5  A    between atoms: N_7  and  C_37
    6  A    between atoms: C_8  and  C_13
    7  A    between atoms: C_9  and  C_25
    8  A    between atoms: C_9  and  O_43
    9  A    between atoms: C_10  and  N_49
   10  A    between atoms: C_11  and  C_20
   11  A    between atoms: C_11  and  O_43
   12  A    between atoms: C_12  and  C_42
   13  A    between atoms: C_13  and  N_29
   14  A    between atoms: C_13  and  C_42
   15  A    between atoms: C_15  and  C_50
   16  A    between atoms: S_16  and  C_22
   17  A    between atoms: S_16  and  C_33
   18  A    between atoms: O_18  and  O_32
   19  A    between atoms: O_18  and  C_46
   20  A    between atoms: C_21  and  C_50
   21  A    between atoms: N_23  and  C_39
   22  A    between atoms: C_25  and  C_46
   23  A    between atoms: C_27  and  C_45
   24  A    between atoms: O_32  and  C_37
                            x       y       z     vdW  Elec       q    Type
                         _______ _______ _______ _____ _____    ______ ____

>  <TORSDO>
F 24

$$$$
=
 OpenBabel11032421123D

 50 51  0  0  1  0  0  0  0  0999 V2000
  185.6420  178.9740  147.2150 N   0  0  0  0  0  1  0  0  0  0  0  0
  188.4370  177.3270  145.3440 C   0  0  0  0  0  0  0  0  0  0  0  0
  187.8520  177.1800  144.0650 C   0  0  0  0  0  0  0  0  0  0  0  0
  188.2200  178.0950  147.6520 O   0  0  0  0  0  1  0  0  0  0  0  0
  187.6840  177.9340  146.3790 C   0  0  0  0  0  0  0  0  0  0  0  0
  186.3770  178.3860  146.1400 C   0  0  0  0  0  0  0  0  0  0  0  0
  186.5470  177.6370  143.8530 C   0  0  0  0  0  3  0  0  0  0  0  0
  185.7980  178.2390  144.8650 C   0  0  0  0  0  0  0  0  0  0  0  0
  183.6860  179.1960  145.4330 O   0  0  0  0  0  0  0  0  0  0  0  0
  183.9210  178.5330  143.2140 N   0  0  0  0  0  2  0  0  0  0  0  0
  184.4210  178.6840  144.5460 C   0  0  0  0  0  0  0  0  0  0  0  0
  182.6030  179.0000  142.8150 C   0  0  0  0  0  2  0  0  0  0  0  0
  182.3240  178.5930  141.3810 C   0  0  0  0  0  2  0  0  0  0  0  0
  181.1540  179.3050  140.8960 N   0  0  0  0  0  2  0  0  0  0  0  0
  180.9260  178.8920  139.5190 C   0  0  2  0  0  3  0  0  0  0  0  0
  180.7690  180.0770  138.6140 C   0  0  0  0  0  0  0  0  0  0  0  0
  181.0280  179.8380  136.8910 Cl  0  0  0  0  0  0  0  0  0  0  0  0
  180.4870  181.2460  139.1070 N   0  0  0  0  0  0  0  0  0  0  0  0
  180.3480  182.4180  138.3080 C   0  0  0  0  0  3  0  0  0  0  0  0
  181.3560  182.9220  137.7500 O   0  0  0  0  0  0  0  0  0  0  0  0
  179.7490  177.9210  139.4210 C   0  0  0  0  0  2  0  0  0  0  0  0
  180.0830  176.6780  138.6080 C   0  0  0  0  0  2  0  0  0  0  0  0
  179.9580  175.2120  139.6670 S   0  0  0  0  0  1  0  0  0  0  0  0
  189.0810  175.4100  143.0240 O   0  0  0  0  0  0  0  0  0  0  0  0
  188.5730  176.5580  142.9240 C   0  0  0  0  0  0  0  0  0  0  0  0
  188.7030  177.2530  141.6710 C   0  0  0  0  0  0  0  0  0  0  0  0
  188.8270  177.8310  140.6200 C   0  0  0  0  0  0  0  0  0  0  0  0
  189.0270  178.6660  139.0800 S   0  0  0  0  0  0  0  0  0  0  0  0
  187.9850  177.1440  137.0170 C   0  0  0  0  0  0  0  0  0  0  0  0
  187.8290  177.6100  138.2560 C   0  0  0  0  0  3  0  0  0  0  0  0
  189.2000  177.4950  136.2070 C   0  0  0  0  0  2  0  0  0  0  0  0
  189.8260  176.2410  135.6290 C   0  0  0  0  0  2  0  0  0  0  0  0
  190.5950  175.6090  136.6070 O   0  0  0  0  0  0  0  0  0  0  0  0
  191.8380  175.9270  136.3100 O   0  0  0  0  0  0  0  0  0  0  0  0
  191.7680  175.9430  138.5780 F   0  0  0  0  0  0  0  0  0  0  0  0
  192.3430  176.5300  137.4660 C   0  0  1  0  0  3  0  0  0  0  0  0
  193.7850  176.3480  137.5190 N   0  0  0  0  0  2  0  0  0  0  0  0
  194.2280  174.0130  137.9190 C   0  0  0  0  0  2  0  0  0  0  0  0
  194.0870  175.0740  136.8830 C   0  0  2  0  0  3  0  0  0  0  0  0
  195.4850  173.6240  138.0630 C   0  0  0  0  0  2  0  0  0  0  0  0
  197.2080  173.3850  136.3290 C   0  0  0  0  0  1  0  0  0  0  0  0
  196.3950  174.3610  137.1490 C   0  0  1  0  0  3  0  0  0  0  0  0
  195.4640  175.1510  136.2400 C   0  0  0  0  0  2  0  0  0  0  0  0
  186.9700  176.3310  136.4900 O   0  0  0  0  0  0  0  0  0  0  0  0
  185.6490  176.2190  137.0230 C   0  0  2  0  0  3  0  0  0  0  0  0
  185.2260  174.8890  137.0210 O   0  0  0  0  0  1  0  0  0  0  0  0
  184.6640  177.0900  136.2630 C   0  0  0  0  0  2  0  0  0  0  0  0
  184.9760  177.0850  134.9160 F   0  0  0  0  0  0  0  0  0  0  0  0
  190.9960  177.6580  145.3420 C   0  0  0  0  0  1  0  0  0  0  0  0
  189.7880  176.8790  145.5530 N   0  0  0  0  0  2  0  0  0  0  0  0
  2 50  1  0  0  0  0
  2  5  1  0  0  0  0
  3  2  2  0  0  0  0
  5  4  1  0  0  0  0
  6  5  2  0  0  0  0
  6  1  1  0  0  0  0
  7  3  1  0  0  0  0
  7  8  2  0  0  0  0
  8  6  1  0  0  0  0
 10 11  1  0  0  0  0
 11  8  1  0  0  0  0
 11  9  2  0  0  0  0
 12 10  1  0  0  0  0
 13 12  1  0  0  0  0
 14 13  1  0  0  0  0
 15 21  1  1  0  0  0
 15 14  1  0  0  0  0
 16 18  2  0  0  0  0
 16 15  1  0  0  0  0
 17 16  1  0  0  0  0
 19 18  1  0  0  0  0
 20 19  2  0  0  0  0
 22 21  1  0  0  0  0
 22 23  1  0  0  0  0
 25 24  2  0  0  0  0
 25  3  1  0  0  0  0
 26 25  1  0  0  0  0
 27 26  3  0  0  0  0
 28 27  1  0  0  0  0
 29 30  2  0  0  0  0
 30 28  1  0  0  0  0
 31 29  1  0  0  0  0
 32 31  1  0  0  0  0
 32 33  1  0  0  0  0
 34 33  1  0  0  0  0
 34 36  1  0  0  0  0
 36 37  1  0  0  0  0
 36 35  1  1  0  0  0
 38 40  1  0  0  0  0
 39 37  1  1  0  0  0
 39 38  1  0  0  0  0
 42 41  1  6  0  0  0
 42 40  1  0  0  0  0
 43 39  1  0  0  0  0
 43 42  1  0  0  0  0
 44 29  1  0  0  0  0
 44 45  1  0  0  0  0
 45 46  1  6  0  0  0
 47 45  1  0  0  0  0
 48 47  1  0  0  0  0
 49 50  1  0  0  0  0
M  END
>  <MODEL>
2

>  <REMARK>
 VINA RESULT:      -5.7      4.098      8.530
  Name = 
  24 active torsions:
  status: ('A' for Active; 'I' for Inactive)
    1  A    between atoms: C_1  and  N_47
    2  A    between atoms: C_5  and  N_29
    3  A    between atoms: C_5  and  C_39
    4  A    between atoms: N_7  and  C_19
    5  A    between atoms: N_7  and  C_37
    6  A    between atoms: C_8  and  C_13
    7  A    between atoms: C_9  and  C_25
    8  A    between atoms: C_9  and  O_43
    9  A    between atoms: C_10  and  N_49
   10  A    between atoms: C_11  and  C_20
   11  A    between atoms: C_11  and  O_43
   12  A    between atoms: C_12  and  C_42
   13  A    between atoms: C_13  and  N_29
   14  A    between atoms: C_13  and  C_42
   15  A    between atoms: C_15  and  C_50
   16  A    between atoms: S_16  and  C_22
   17  A    between atoms: S_16  and  C_33
   18  A    between atoms: O_18  and  O_32
   19  A    between atoms: O_18  and  C_46
   20  A    between atoms: C_21  and  C_50
   21  A    between atoms: N_23  and  C_39
   22  A    between atoms: C_25  and  C_46
   23  A    between atoms: C_27  and  C_45
   24  A    between atoms: O_32  and  C_37
                            x       y       z     vdW  Elec       q    Type
                         _______ _______ _______ _____ _____    ______ ____

>  <TORSDO>
F 24

$$$$
=
 OpenBabel11032421123D

 50 51  0  0  1  0  0  0  0  0999 V2000
  185.3500  179.3430  144.4030 N   0  0  0  0  0  1  0  0  0  0  0  0
  181.9110  178.7230  143.0570 C   0  0  0  0  0  0  0  0  0  0  0  0
  182.2100  178.3150  141.7360 C   0  0  0  0  0  0  0  0  0  0  0  0
  182.7240  179.4650  145.2360 O   0  0  0  0  0  1  0  0  0  0  0  0
  182.9740  179.0550  143.9310 C   0  0  0  0  0  0  0  0  0  0  0  0
  184.3060  178.9790  143.4970 C   0  0  0  0  0  0  0  0  0  0  0  0
  183.5460  178.2480  141.3270 C   0  0  0  0  0  3  0  0  0  0  0  0
  184.6010  178.5710  142.1820 C   0  0  0  0  0  0  0  0  0  0  0  0
  186.2850  178.9800  140.5380 O   0  0  0  0  0  0  0  0  0  0  0  0
  186.9870  177.8110  142.4240 N   0  0  0  0  0  2  0  0  0  0  0  0
  185.9830  178.4770  141.6550 C   0  0  0  0  0  0  0  0  0  0  0  0
  188.3750  177.7310  141.9980 C   0  0  0  0  0  2  0  0  0  0  0  0
  189.0530  176.5480  142.6630 C   0  0  0  0  0  2  0  0  0  0  0  0
  188.7490  176.5530  144.0840 N   0  0  0  0  0  2  0  0  0  0  0  0
  189.7530  177.3740  144.7460 C   0  0  2  0  0  3  0  0  0  0  0  0
  190.8950  176.5400  145.2430 C   0  0  0  0  0  0  0  0  0  0  0  0
  191.8360  175.6430  144.0580 Cl  0  0  0  0  0  0  0  0  0  0  0  0
  191.1460  176.4630  146.5160 N   0  0  0  0  0  0  0  0  0  0  0  0
  192.2000  175.6700  147.0580 C   0  0  0  0  0  3  0  0  0  0  0  0
  192.8960  176.1140  148.0070 O   0  0  0  0  0  0  0  0  0  0  0  0
  189.1270  178.2280  145.8490 C   0  0  0  0  0  2  0  0  0  0  0  0
  187.9720  177.5260  146.5490 C   0  0  0  0  0  2  0  0  0  0  0  0
  188.1250  177.7530  148.3420 S   0  0  0  0  0  1  0  0  0  0  0  0
  180.0630  177.4450  141.1350 O   0  0  0  0  0  0  0  0  0  0  0  0
  181.1550  177.9450  140.7560 C   0  0  0  0  0  0  0  0  0  0  0  0
  181.3560  178.1560  139.3470 C   0  0  0  0  0  0  0  0  0  0  0  0
  181.5180  178.3470  138.1680 C   0  0  0  0  0  0  0  0  0  0  0  0
  181.7490  178.6470  136.4450 S   0  0  0  0  0  0  0  0  0  0  0  0
  183.1130  176.2980  135.9210 C   0  0  0  0  0  0  0  0  0  0  0  0
  181.9340  176.8980  136.0790 C   0  0  0  0  0  3  0  0  0  0  0  0
  184.3950  177.0740  136.0300 C   0  0  0  0  0  2  0  0  0  0  0  0
  185.1450  177.0320  134.7130 C   0  0  0  0  0  2  0  0  0  0  0  0
  186.2340  177.9040  134.7670 O   0  0  0  0  0  0  0  0  0  0  0  0
  187.2810  177.1200  134.9230 O   0  0  0  0  0  0  0  0  0  0  0  0
  187.4140  178.7990  136.4420 F   0  0  0  0  0  0  0  0  0  0  0  0
  188.1330  177.8210  135.7810 C   0  0  1  0  0  3  0  0  0  0  0  0
  188.7020  176.9040  136.7560 N   0  0  0  0  0  2  0  0  0  0  0  0
  191.0420  176.4010  137.0410 C   0  0  0  0  0  2  0  0  0  0  0  0
  189.9890  177.4470  137.1680 C   0  0  2  0  0  3  0  0  0  0  0  0
  191.4560  175.9700  138.2220 C   0  0  0  0  0  2  0  0  0  0  0  0
  191.7500  177.2590  140.2920 C   0  0  0  0  0  1  0  0  0  0  0  0
  190.7480  176.6530  139.3340 C   0  0  1  0  0  3  0  0  0  0  0  0
  189.9470  177.7550  138.6570 C   0  0  0  0  0  2  0  0  0  0  0  0
  183.1160  174.9250  135.6330 O   0  0  0  0  0  0  0  0  0  0  0  0
  183.1780  173.8820  136.6080 C   0  0  2  0  0  3  0  0  0  0  0  0
  181.9030  173.5720  137.0830 O   0  0  0  0  0  1  0  0  0  0  0  0
  184.0990  174.2480  137.7600 C   0  0  0  0  0  2  0  0  0  0  0  0
  185.4170  174.0830  137.3770 F   0  0  0  0  0  0  0  0  0  0  0  0
  179.6680  179.9300  143.4660 C   0  0  0  0  0  1  0  0  0  0  0  0
  180.5380  178.7670  143.4830 N   0  0  0  0  0  2  0  0  0  0  0  0
  2 50  1  0  0  0  0
  2  5  1  0  0  0  0
  3  2  2  0  0  0  0
  5  4  1  0  0  0  0
  6  5  2  0  0  0  0
  6  1  1  0  0  0  0
  7  3  1  0  0  0  0
  7  8  2  0  0  0  0
  8  6  1  0  0  0  0
  9 11  2  0  0  0  0
 11  8  1  0  0  0  0
 11 10  1  0  0  0  0
 12 10  1  0  0  0  0
 12 13  1  0  0  0  0
 13 14  1  0  0  0  0
 14 15  1  0  0  0  0
 15 16  1  0  0  0  0
 15 21  1  1  0  0  0
 16 18  2  0  0  0  0
 17 16  1  0  0  0  0
 18 19  1  0  0  0  0
 19 20  2  0  0  0  0
 21 22  1  0  0  0  0
 22 23  1  0  0  0  0
 25 24  2  0  0  0  0
 25  3  1  0  0  0  0
 26 25  1  0  0  0  0
 27 26  3  0  0  0  0
 28 27  1  0  0  0  0
 29 31  1  0  0  0  0
 29 30  2  0  0  0  0
 30 28  1  0  0  0  0
 32 33  1  0  0  0  0
 32 31  1  0  0  0  0
 33 34  1  0  0  0  0
 34 36  1  0  0  0  0
 36 35  1  1  0  0  0
 36 37  1  0  0  0  0
 38 39  1  0  0  0  0
 38 40  1  0  0  0  0
 39 37  1  1  0  0  0
 39 43  1  0  0  0  0
 40 42  1  0  0  0  0
 42 41  1  1  0  0  0
 43 42  1  0  0  0  0
 44 29  1  0  0  0  0
 44 45  1  0  0  0  0
 45 46  1  1  0  0  0
 45 47  1  0  0  0  0
 48 47  1  0  0  0  0
 49 50  1  0  0  0  0
M  END
>  <MODEL>
3

>  <REMARK>
 VINA RESULT:      -5.6      1.920      2.491
  Name = 
  24 active torsions:
  status: ('A' for Active; 'I' for Inactive)
    1  A    between atoms: C_1  and  N_47
    2  A    between atoms: C_5  and  N_29
    3  A    between atoms: C_5  and  C_39
    4  A    between atoms: N_7  and  C_19
    5  A    between atoms: N_7  and  C_37
    6  A    between atoms: C_8  and  C_13
    7  A    between atoms: C_9  and  C_25
    8  A    between atoms: C_9  and  O_43
    9  A    between atoms: C_10  and  N_49
   10  A    between atoms: C_11  and  C_20
   11  A    between atoms: C_11  and  O_43
   12  A    between atoms: C_12  and  C_42
   13  A    between atoms: C_13  and  N_29
   14  A    between atoms: C_13  and  C_42
   15  A    between atoms: C_15  and  C_50
   16  A    between atoms: S_16  and  C_22
   17  A    between atoms: S_16  and  C_33
   18  A    between atoms: O_18  and  O_32
   19  A    between atoms: O_18  and  C_46
   20  A    between atoms: C_21  and  C_50
   21  A    between atoms: N_23  and  C_39
   22  A    between atoms: C_25  and  C_46
   23  A    between atoms: C_27  and  C_45
   24  A    between atoms: O_32  and  C_37
                            x       y       z     vdW  Elec       q    Type
                         _______ _______ _______ _____ _____    ______ ____

>  <TORSDO>
F 24

$$$$
=
 OpenBabel11032421123D

 50 51  0  0  1  0  0  0  0  0999 V2000
  185.4660  179.2720  147.1860 N   0  0  0  0  0  1  0  0  0  0  0  0
  188.2570  177.5740  145.3540 C   0  0  0  0  0  0  0  0  0  0  0  0
  187.6350  177.3010  144.1130 C   0  0  0  0  0  0  0  0  0  0  0  0
  188.0880  178.5220  147.5980 O   0  0  0  0  0  1  0  0  0  0  0  0
  187.5160  178.2380  146.3630 C   0  0  0  0  0  0  0  0  0  0  0  0
  186.1860  178.6230  146.1360 C   0  0  0  0  0  0  0  0  0  0  0  0
  186.3080  177.6950  143.9120 C   0  0  0  0  0  3  0  0  0  0  0  0
  185.5710  178.3520  144.8980 C   0  0  0  0  0  0  0  0  0  0  0  0
  183.3720  179.0480  145.5160 O   0  0  0  0  0  0  0  0  0  0  0  0
  183.7140  178.7110  143.2380 N   0  0  0  0  0  2  0  0  0  0  0  0
  184.1690  178.7220  144.5940 C   0  0  0  0  0  0  0  0  0  0  0  0
  182.3700  179.1180  142.8600 C   0  0  0  0  0  2  0  0  0  0  0  0
  181.9920  178.4830  141.5350 C   0  0  0  0  0  2  0  0  0  0  0  0
  182.8880  178.9630  140.4960 N   0  0  0  0  0  2  0  0  0  0  0  0
  182.1700  178.8980  139.2310 C   0  0  2  0  0  3  0  0  0  0  0  0
  182.5860  177.7000  138.4310 C   0  0  0  0  0  0  0  0  0  0  0  0
  182.7830  176.1720  139.2800 Cl  0  0  0  0  0  0  0  0  0  0  0  0
  182.8260  177.8110  137.1590 N   0  0  0  0  0  0  0  0  0  0  0  0
  183.2470  176.7200  136.3450 C   0  0  0  0  0  3  0  0  0  0  0  0
  183.2100  176.8200  135.0910 O   0  0  0  0  0  0  0  0  0  0  0  0
  182.3120  180.2030  138.4480 C   0  0  0  0  0  2  0  0  0  0  0  0
  180.9670  180.8190  138.0890 C   0  0  0  0  0  2  0  0  0  0  0  0
  180.0510  181.1970  139.6080 S   0  0  0  0  0  1  0  0  0  0  0  0
  188.7630  175.4330  143.1310 O   0  0  0  0  0  0  0  0  0  0  0  0
  188.3410  176.6130  143.0010 C   0  0  0  0  0  0  0  0  0  0  0  0
  188.5520  177.2770  141.7430 C   0  0  0  0  0  0  0  0  0  0  0  0
  188.7410  177.8240  140.6850 C   0  0  0  0  0  0  0  0  0  0  0  0
  189.0280  178.6060  139.1300 S   0  0  0  0  0  0  0  0  0  0  0  0
  187.9970  176.9060  137.2060 C   0  0  0  0  0  0  0  0  0  0  0  0
  187.7710  177.6210  138.3080 C   0  0  0  0  0  3  0  0  0  0  0  0
  189.3530  176.8930  136.5590 C   0  0  0  0  0  2  0  0  0  0  0  0
  190.2300  175.8370  137.2030 C   0  0  0  0  0  2  0  0  0  0  0  0
  191.5700  176.1010  136.9110 O   0  0  0  0  0  0  0  0  0  0  0  0
  192.2480  175.4050  137.7990 O   0  0  0  0  0  0  0  0  0  0  0  0
  193.7740  176.5570  136.5800 F   0  0  0  0  0  0  0  0  0  0  0  0
  193.5680  175.4220  137.3410 C   0  0  1  0  0  3  0  0  0  0  0  0
  194.4760  175.4330  138.4760 N   0  0  0  0  0  2  0  0  0  0  0  0
  196.5790  174.4160  139.0710 C   0  0  0  0  0  2  0  0  0  0  0  0
  195.2530  174.2020  138.4260 C   0  0  2  0  0  3  0  0  0  0  0  0
  197.5630  174.4350  138.1870 C   0  0  0  0  0  2  0  0  0  0  0  0
  197.7930  173.0940  136.1410 C   0  0  0  0  0  1  0  0  0  0  0  0
  197.0600  174.2410  136.8030 C   0  0  1  0  0  3  0  0  0  0  0  0
  195.5910  173.8840  136.9780 C   0  0  0  0  0  2  0  0  0  0  0  0
  186.9250  176.1840  136.6610 O   0  0  0  0  0  0  0  0  0  0  0  0
  187.0340  174.9140  136.0150 C   0  0  2  0  0  3  0  0  0  0  0  0
  186.2530  174.8780  134.8590 O   0  0  0  0  0  1  0  0  0  0  0  0
  186.6510  173.7780  136.9490 C   0  0  0  0  0  2  0  0  0  0  0  0
  185.8870  172.8490  136.2680 F   0  0  0  0  0  0  0  0  0  0  0  0
  190.1530  176.3940  146.6460 C   0  0  0  0  0  1  0  0  0  0  0  0
  189.6290  177.1910  145.5500 N   0  0  0  0  0  2  0  0  0  0  0  0
  2 50  1  0  0  0  0
  2  5  1  0  0  0  0
  3  2  2  0  0  0  0
  5  4  1  0  0  0  0
  6  5  2  0  0  0  0
  6  1  1  0  0  0  0
  7  3  1  0  0  0  0
  7  8  2  0  0  0  0
  8  6  1  0  0  0  0
 10 11  1  0  0  0  0
 11  8  1  0  0  0  0
 11  9  2  0  0  0  0
 12 10  1  0  0  0  0
 13 12  1  0  0  0  0
 14 13  1  0  0  0  0
 15 21  1  6  0  0  0
 15 14  1  0  0  0  0
 16 15  1  0  0  0  0
 16 17  1  0  0  0  0
 18 16  2  0  0  0  0
 19 18  1  0  0  0  0
 20 19  2  0  0  0  0
 22 21  1  0  0  0  0
 22 23  1  0  0  0  0
 25 24  2  0  0  0  0
 25  3  1  0  0  0  0
 26 25  1  0  0  0  0
 27 26  3  0  0  0  0
 28 27  1  0  0  0  0
 29 30  2  0  0  0  0
 30 28  1  0  0  0  0
 31 32  1  0  0  0  0
 31 29  1  0  0  0  0
 33 32  1  0  0  0  0
 33 34  1  0  0  0  0
 36 35  1  1  0  0  0
 36 34  1  0  0  0  0
 36 37  1  0  0  0  0
 39 37  1  6  0  0  0
 39 38  1  0  0  0  0
 40 38  1  0  0  0  0
 42 41  1  1  0  0  0
 42 43  1  0  0  0  0
 42 40  1  0  0  0  0
 43 39  1  0  0  0  0
 44 29  1  0  0  0  0
 45 46  1  6  0  0  0
 45 44  1  0  0  0  0
 45 47  1  0  0  0  0
 48 47  1  0  0  0  0
 50 49  1  0  0  0  0
M  END
>  <MODEL>
4

>  <REMARK>
 VINA RESULT:      -5.5      4.174      8.374
  Name = 
  24 active torsions:
  status: ('A' for Active; 'I' for Inactive)
    1  A    between atoms: C_1  and  N_47
    2  A    between atoms: C_5  and  N_29
    3  A    between atoms: C_5  and  C_39
    4  A    between atoms: N_7  and  C_19
    5  A    between atoms: N_7  and  C_37
    6  A    between atoms: C_8  and  C_13
    7  A    between atoms: C_9  and  C_25
    8  A    between atoms: C_9  and  O_43
    9  A    between atoms: C_10  and  N_49
   10  A    between atoms: C_11  and  C_20
   11  A    between atoms: C_11  and  O_43
   12  A    between atoms: C_12  and  C_42
   13  A    between atoms: C_13  and  N_29
   14  A    between atoms: C_13  and  C_42
   15  A    between atoms: C_15  and  C_50
   16  A    between atoms: S_16  and  C_22
   17  A    between atoms: S_16  and  C_33
   18  A    between atoms: O_18  and  O_32
   19  A    between atoms: O_18  and  C_46
   20  A    between atoms: C_21  and  C_50
   21  A    between atoms: N_23  and  C_39
   22  A    between atoms: C_25  and  C_46
   23  A    between atoms: C_27  and  C_45
   24  A    between atoms: O_32  and  C_37
                            x       y       z     vdW  Elec       q    Type
                         _______ _______ _______ _____ _____    ______ ____

>  <TORSDO>
F 24

$$$$
=
 OpenBabel11032421123D

 50 51  0  0  1  0  0  0  0  0999 V2000
  188.9560  172.9860  135.1160 N   0  0  0  0  0  1  0  0  0  0  0  0
  187.4250  176.1530  136.4010 C   0  0  0  0  0  0  0  0  0  0  0  0
  188.5530  176.7810  136.9770 C   0  0  0  0  0  0  0  0  0  0  0  0
  186.5000  174.2360  135.2040 O   0  0  0  0  0  1  0  0  0  0  0  0
  187.5840  174.8900  135.7800 C   0  0  0  0  0  0  0  0  0  0  0  0
  188.8420  174.2700  135.7330 C   0  0  0  0  0  0  0  0  0  0  0  0
  189.7960  176.1420  136.9180 C   0  0  0  0  0  3  0  0  0  0  0  0
  189.9630  174.8990  136.3070 C   0  0  0  0  0  0  0  0  0  0  0  0
  191.7600  173.7090  135.2780 O   0  0  0  0  0  0  0  0  0  0  0  0
  192.1350  174.3880  137.4720 N   0  0  0  0  0  2  0  0  0  0  0  0
  191.3180  174.2980  136.3020 C   0  0  0  0  0  0  0  0  0  0  0  0
  193.4930  173.8730  137.5200 C   0  0  0  0  0  2  0  0  0  0  0  0
  194.4310  174.8230  136.7990 C   0  0  0  0  0  2  0  0  0  0  0  0
  195.3360  174.0600  135.9550 N   0  0  0  0  0  2  0  0  0  0  0  0
  195.8840  172.9790  136.7610 C   0  0  2  0  0  3  0  0  0  0  0  0
  197.2020  173.3640  137.3640 C   0  0  0  0  0  0  0  0  0  0  0  0
  198.5470  172.2450  137.1840 Cl  0  0  0  0  0  0  0  0  0  0  0  0
  197.3200  174.4750  138.0270 N   0  0  0  0  0  0  0  0  0  0  0  0
  198.5350  174.8900  138.6450 C   0  0  0  0  0  3  0  0  0  0  0  0
  198.5480  175.9050  139.3880 O   0  0  0  0  0  0  0  0  0  0  0  0
  195.9640  171.6790  135.9600 C   0  0  0  0  0  2  0  0  0  0  0  0
  194.8370  171.5470  134.9450 C   0  0  0  0  0  2  0  0  0  0  0  0
  193.5080  170.5320  135.6460 S   0  0  0  0  0  1  0  0  0  0  0  0
  188.8640  179.1530  137.0590 O   0  0  0  0  0  0  0  0  0  0  0  0
  188.4760  178.1070  137.6450 C   0  0  0  0  0  0  0  0  0  0  0  0
  187.9480  178.2280  138.9770 C   0  0  0  0  0  0  0  0  0  0  0  0
  187.5090  178.3450  140.0940 C   0  0  0  0  0  0  0  0  0  0  0  0
  186.8680  178.5380  141.7260 S   0  0  0  0  0  0  0  0  0  0  0  0
  184.1220  178.8460  141.8620 C   0  0  0  0  0  0  0  0  0  0  0  0
  185.2270  178.9480  141.1230 C   0  0  0  0  0  3  0  0  0  0  0  0
  184.1840  178.3530  143.2790 C   0  0  0  0  0  2  0  0  0  0  0  0
  183.9770  179.5040  144.2440 C   0  0  0  0  0  2  0  0  0  0  0  0
  183.9810  179.0230  145.5540 O   0  0  0  0  0  0  0  0  0  0  0  0
  185.1150  179.4550  146.0650 O   0  0  0  0  0  0  0  0  0  0  0  0
  185.4060  177.2070  146.1210 F   0  0  0  0  0  0  0  0  0  0  0  0
  185.6040  178.3840  146.8170 C   0  0  1  0  0  3  0  0  0  0  0  0
  187.0270  178.5670  147.0550 N   0  0  0  0  0  2  0  0  0  0  0  0
  188.7660  176.9730  147.5530 C   0  0  0  0  0  2  0  0  0  0  0  0
  187.7070  177.3700  146.5820 C   0  0  2  0  0  3  0  0  0  0  0  0
  189.9810  177.1950  147.0790 C   0  0  0  0  0  2  0  0  0  0  0  0
  190.7790  176.9490  144.7690 C   0  0  0  0  0  1  0  0  0  0  0  0
  189.9390  177.7800  145.7140 C   0  0  1  0  0  3  0  0  0  0  0  0
  188.4740  177.7010  145.3100 C   0  0  0  0  0  2  0  0  0  0  0  0
  182.9010  179.1950  141.2660 O   0  0  0  0  0  0  0  0  0  0  0  0
  182.3960  178.6480  140.0460 C   0  0  2  0  0  3  0  0  0  0  0  0
  181.6950  179.6140  139.3230 O   0  0  0  0  0  1  0  0  0  0  0  0
  181.5190  177.4340  140.3000 C   0  0  0  0  0  2  0  0  0  0  0  0
  181.1890  176.8350  139.0980 F   0  0  0  0  0  0  0  0  0  0  0  0
  185.0040  176.4420  137.2430 C   0  0  0  0  0  1  0  0  0  0  0  0
  186.1530  176.8230  136.4410 N   0  0  0  0  0  2  0  0  0  0  0  0
  1  6  1  0  0  0  0
  2 50  1  0  0  0  0
  2  3  1  0  0  0  0
  3 25  1  0  0  0  0
  4  5  1  0  0  0  0
  5  2  2  0  0  0  0
  6  5  1  0  0  0  0
  6  8  2  0  0  0  0
  7  3  2  0  0  0  0
  8  7  1  0  0  0  0
  9 11  2  0  0  0  0
 10 12  1  0  0  0  0
 11  8  1  0  0  0  0
 11 10  1  0  0  0  0
 13 12  1  0  0  0  0
 14 15  1  0  0  0  0
 14 13  1  0  0  0  0
 15 21  1  6  0  0  0
 15 16  1  0  0  0  0
 16 18  2  0  0  0  0
 17 16  1  0  0  0  0
 18 19  1  0  0  0  0
 19 20  2  0  0  0  0
 22 23  1  0  0  0  0
 22 21  1  0  0  0  0
 24 25  2  0  0  0  0
 25 26  1  0  0  0  0
 26 27  3  0  0  0  0
 27 28  1  0  0  0  0
 29 31  1  0  0  0  0
 30 28  1  0  0  0  0
 30 29  2  0  0  0  0
 31 32  1  0  0  0  0
 32 33  1  0  0  0  0
 33 34  1  0  0  0  0
 34 36  1  0  0  0  0
 36 35  1  6  0  0  0
 36 37  1  0  0  0  0
 39 37  1  1  0  0  0
 39 38  1  0  0  0  0
 40 38  1  0  0  0  0
 42 41  1  6  0  0  0
 42 40  1  0  0  0  0
 43 42  1  0  0  0  0
 43 39  1  0  0  0  0
 44 29  1  0  0  0  0
 45 46  1  1  0  0  0
 45 47  1  0  0  0  0
 45 44  1  0  0  0  0
 48 47  1  0  0  0  0
 50 49  1  0  0  0  0
M  END
>  <MODEL>
5

>  <REMARK>
 VINA RESULT:      -5.4      4.941      9.337
  Name = 
  24 active torsions:
  status: ('A' for Active; 'I' for Inactive)
    1  A    between atoms: C_1  and  N_47
    2  A    between atoms: C_5  and  N_29
    3  A    between atoms: C_5  and  C_39
    4  A    between atoms: N_7  and  C_19
    5  A    between atoms: N_7  and  C_37
    6  A    between atoms: C_8  and  C_13
    7  A    between atoms: C_9  and  C_25
    8  A    between atoms: C_9  and  O_43
    9  A    between atoms: C_10  and  N_49
   10  A    between atoms: C_11  and  C_20
   11  A    between atoms: C_11  and  O_43
   12  A    between atoms: C_12  and  C_42
   13  A    between atoms: C_13  and  N_29
   14  A    between atoms: C_13  and  C_42
   15  A    between atoms: C_15  and  C_50
   16  A    between atoms: S_16  and  C_22
   17  A    between atoms: S_16  and  C_33
   18  A    between atoms: O_18  and  O_32
   19  A    between atoms: O_18  and  C_46
   20  A    between atoms: C_21  and  C_50
   21  A    between atoms: N_23  and  C_39
   22  A    between atoms: C_25  and  C_46
   23  A    between atoms: C_27  and  C_45
   24  A    between atoms: O_32  and  C_37
                            x       y       z     vdW  Elec       q    Type
                         _______ _______ _______ _____ _____    ______ ____

>  <TORSDO>
F 24

$$$$
=
 OpenBabel11032421123D

 50 51  0  0  1  0  0  0  0  0999 V2000
  187.2220  173.2230  135.0320 N   0  0  0  0  0  1  0  0  0  0  0  0
  186.0570  176.1860  137.0030 C   0  0  0  0  0  0  0  0  0  0  0  0
  187.2730  176.8860  137.1790 C   0  0  0  0  0  0  0  0  0  0  0  0
  184.8890  174.2480  136.0850 O   0  0  0  0  0  1  0  0  0  0  0  0
  186.0620  174.9700  136.2780 C   0  0  0  0  0  0  0  0  0  0  0  0
  187.2550  174.4650  135.7390 C   0  0  0  0  0  0  0  0  0  0  0  0
  188.4490  176.3610  136.6320 C   0  0  0  0  0  3  0  0  0  0  0  0
  188.4640  175.1650  135.9140 C   0  0  0  0  0  0  0  0  0  0  0  0
  190.4400  175.3990  134.5940 O   0  0  0  0  0  0  0  0  0  0  0  0
  190.2480  173.3960  135.7630 N   0  0  0  0  0  2  0  0  0  0  0  0
  189.7610  174.6850  135.3800 C   0  0  0  0  0  0  0  0  0  0  0  0
  191.5370  172.8850  135.3260 C   0  0  0  0  0  2  0  0  0  0  0  0
  192.5940  173.1840  136.3720 C   0  0  0  0  0  2  0  0  0  0  0  0
  193.5430  174.1460  135.8390 N   0  0  0  0  0  2  0  0  0  0  0  0
  193.8210  175.1180  136.8870 C   0  0  2  0  0  3  0  0  0  0  0  0
  195.1510  174.8620  137.5280 C   0  0  0  0  0  0  0  0  0  0  0  0
  195.2200  174.8010  139.2850 Cl  0  0  0  0  0  0  0  0  0  0  0  0
  196.2170  174.7270  136.7970 N   0  0  0  0  0  0  0  0  0  0  0  0
  197.5160  174.5060  137.3420 C   0  0  0  0  0  3  0  0  0  0  0  0
  198.3470  175.4490  137.3890 O   0  0  0  0  0  0  0  0  0  0  0  0
  192.6810  175.1750  137.9040 C   0  0  0  0  0  2  0  0  0  0  0  0
  191.9400  176.5040  137.8800 C   0  0  0  0  0  2  0  0  0  0  0  0
  190.9700  176.6830  139.4010 S   0  0  0  0  0  1  0  0  0  0  0  0
  187.4240  179.2710  137.3130 O   0  0  0  0  0  0  0  0  0  0  0  0
  187.3560  178.1700  137.9230 C   0  0  0  0  0  0  0  0  0  0  0  0
  187.3540  178.1870  139.3610 C   0  0  0  0  0  0  0  0  0  0  0  0
  187.3660  178.1930  140.5660 C   0  0  0  0  0  0  0  0  0  0  0  0
  187.4050  178.1970  142.3300 S   0  0  0  0  0  0  0  0  0  0  0  0
  185.0650  179.0860  143.5090 C   0  0  0  0  0  0  0  0  0  0  0  0
  185.8690  179.1210  142.4460 C   0  0  0  0  0  3  0  0  0  0  0  0
  185.3980  178.2350  144.7010 C   0  0  0  0  0  2  0  0  0  0  0  0
  185.1040  178.9910  145.9820 C   0  0  0  0  0  2  0  0  0  0  0  0
  185.8590  178.4530  147.0260 O   0  0  0  0  0  0  0  0  0  0  0  0
  187.0370  178.2060  146.4930 O   0  0  0  0  0  0  0  0  0  0  0  0
  187.6620  176.8050  148.1640 F   0  0  0  0  0  0  0  0  0  0  0  0
  187.8980  178.0360  147.5810 C   0  0  1  0  0  3  0  0  0  0  0  0
  189.2770  178.0940  147.1230 N   0  0  0  0  0  2  0  0  0  0  0  0
  190.9020  176.3140  147.1350 C   0  0  0  0  0  2  0  0  0  0  0  0
  189.6080  176.7890  146.5690 C   0  0  2  0  0  3  0  0  0  0  0  0
  191.8750  176.3410  146.2380 C   0  0  0  0  0  2  0  0  0  0  0  0
  191.7400  175.8480  143.8350 C   0  0  0  0  0  1  0  0  0  0  0  0
  191.3960  176.8410  144.9240 C   0  0  1  0  0  3  0  0  0  0  0  0
  189.8850  176.9350  145.0800 C   0  0  0  0  0  2  0  0  0  0  0  0
  183.8910  179.8530  143.4680 O   0  0  0  0  0  0  0  0  0  0  0  0
  182.5790  179.3350  143.2420 C   0  0  2  0  0  3  0  0  0  0  0  0
  182.2460  178.3910  144.2150 O   0  0  0  0  0  1  0  0  0  0  0  0
  182.4480  178.7330  141.8530 C   0  0  0  0  0  2  0  0  0  0  0  0
  181.2740  178.0090  141.7650 F   0  0  0  0  0  0  0  0  0  0  0  0
  183.6740  175.9950  137.9730 C   0  0  0  0  0  1  0  0  0  0  0  0
  184.8450  176.7400  137.5450 N   0  0  0  0  0  2  0  0  0  0  0  0
  1  6  1  0  0  0  0
  2  3  1  0  0  0  0
  2 50  1  0  0  0  0
  3 25  1  0  0  0  0
  4  5  1  0  0  0  0
  5  2  2  0  0  0  0
  6  8  2  0  0  0  0
  6  5  1  0  0  0  0
  7  3  2  0  0  0  0
  8  7  1  0  0  0  0
  9 11  2  0  0  0  0
 11 10  1  0  0  0  0
 11  8  1  0  0  0  0
 12 10  1  0  0  0  0
 12 13  1  0  0  0  0
 14 13  1  0  0  0  0
 14 15  1  0  0  0  0
 15 16  1  0  0  0  0
 15 21  1  1  0  0  0
 16 17  1  0  0  0  0
 18 19  1  0  0  0  0
 18 16  2  0  0  0  0
 19 20  2  0  0  0  0
 22 21  1  0  0  0  0
 22 23  1  0  0  0  0
 24 25  2  0  0  0  0
 25 26  1  0  0  0  0
 26 27  3  0  0  0  0
 27 28  1  0  0  0  0
 28 30  1  0  0  0  0
 29 31  1  0  0  0  0
 30 29  2  0  0  0  0
 31 32  1  0  0  0  0
 32 33  1  0  0  0  0
 34 33  1  0  0  0  0
 34 36  1  0  0  0  0
 36 35  1  6  0  0  0
 37 36  1  0  0  0  0
 39 37  1  1  0  0  0
 39 38  1  0  0  0  0
 40 38  1  0  0  0  0
 42 41  1  6  0  0  0
 42 43  1  0  0  0  0
 42 40  1  0  0  0  0
 43 39  1  0  0  0  0
 44 29  1  0  0  0  0
 45 44  1  0  0  0  0
 45 46  1  1  0  0  0
 47 45  1  0  0  0  0
 48 47  1  0  0  0  0
 50 49  1  0  0  0  0
M  END
>  <MODEL>
6

>  <REMARK>
 VINA RESULT:      -5.4      4.290      9.121
  Name = 
  24 active torsions:
  status: ('A' for Active; 'I' for Inactive)
    1  A    between atoms: C_1  and  N_47
    2  A    between atoms: C_5  and  N_29
    3  A    between atoms: C_5  and  C_39
    4  A    between atoms: N_7  and  C_19
    5  A    between atoms: N_7  and  C_37
    6  A    between atoms: C_8  and  C_13
    7  A    between atoms: C_9  and  C_25
    8  A    between atoms: C_9  and  O_43
    9  A    between atoms: C_10  and  N_49
   10  A    between atoms: C_11  and  C_20
   11  A    between atoms: C_11  and  O_43
   12  A    between atoms: C_12  and  C_42
   13  A    between atoms: C_13  and  N_29
   14  A    between atoms: C_13  and  C_42
   15  A    between atoms: C_15  and  C_50
   16  A    between atoms: S_16  and  C_22
   17  A    between atoms: S_16  and  C_33
   18  A    between atoms: O_18  and  O_32
   19  A    between atoms: O_18  and  C_46
   20  A    between atoms: C_21  and  C_50
   21  A    between atoms: N_23  and  C_39
   22  A    between atoms: C_25  and  C_46
   23  A    between atoms: C_27  and  C_45
   24  A    between atoms: O_32  and  C_37
                            x       y       z     vdW  Elec       q    Type
                         _______ _______ _______ _____ _____    ______ ____

>  <TORSDO>
F 24

$$$$
=
 OpenBabel11032421123D

 50 51  0  0  1  0  0  0  0  0999 V2000
  186.0050  178.1190  145.4740 N   0  0  0  0  0  1  0  0  0  0  0  0
  183.2360  178.8350  143.0580 C   0  0  0  0  0  0  0  0  0  0  0  0
  183.8520  178.4870  141.8340 C   0  0  0  0  0  0  0  0  0  0  0  0
  183.4040  179.0320  145.4860 O   0  0  0  0  0  1  0  0  0  0  0  0
  183.9700  178.6980  144.2610 C   0  0  0  0  0  0  0  0  0  0  0  0
  185.2910  178.2220  144.2420 C   0  0  0  0  0  0  0  0  0  0  0  0
  185.1700  178.0160  141.8410 C   0  0  0  0  0  3  0  0  0  0  0  0
  185.9010  177.8760  143.0210 C   0  0  0  0  0  0  0  0  0  0  0  0
  187.5600  176.1610  143.1340 O   0  0  0  0  0  0  0  0  0  0  0  0
  188.3470  178.2840  142.5930 N   0  0  0  0  0  2  0  0  0  0  0  0
  187.2930  177.3760  142.9260 C   0  0  0  0  0  0  0  0  0  0  0  0
  189.7260  177.8540  142.4260 C   0  0  0  0  0  2  0  0  0  0  0  0
  190.1460  176.9960  143.6040 C   0  0  0  0  0  2  0  0  0  0  0  0
  191.1810  177.6820  144.3580 N   0  0  0  0  0  2  0  0  0  0  0  0
  190.8310  177.5930  145.7690 C   0  0  2  0  0  3  0  0  0  0  0  0
  191.6730  176.5720  146.4740 C   0  0  0  0  0  0  0  0  0  0  0  0
  192.0530  175.0850  145.6150 Cl  0  0  0  0  0  0  0  0  0  0  0  0
  192.0700  176.7770  147.6940 N   0  0  0  0  0  0  0  0  0  0  0  0
  192.8500  175.8390  148.4300 C   0  0  0  0  0  3  0  0  0  0  0  0
  193.5220  176.2220  149.4220 O   0  0  0  0  0  0  0  0  0  0  0  0
  189.3340  177.3460  145.9520 C   0  0  0  0  0  2  0  0  0  0  0  0
  188.9910  176.8410  147.3460 C   0  0  0  0  0  2  0  0  0  0  0  0
  188.3170  178.2040  148.3340 S   0  0  0  0  0  1  0  0  0  0  0  0
  182.0710  179.2340  140.4210 O   0  0  0  0  0  0  0  0  0  0  0  0
  183.1520  178.5970  140.5270 C   0  0  0  0  0  0  0  0  0  0  0  0
  183.6980  177.9810  139.3480 C   0  0  0  0  0  0  0  0  0  0  0  0
  184.1670  177.4760  138.3580 C   0  0  0  0  0  0  0  0  0  0  0  0
  184.8700  176.7500  136.9130 S   0  0  0  0  0  0  0  0  0  0  0  0
  183.3990  174.4080  137.0050 C   0  0  0  0  0  0  0  0  0  0  0  0
  183.4430  175.6910  136.6470 C   0  0  0  0  0  3  0  0  0  0  0  0
  184.5800  173.7480  137.6570 C   0  0  0  0  0  2  0  0  0  0  0  0
  185.5960  173.3360  136.6080 C   0  0  0  0  0  2  0  0  0  0  0  0
  186.8640  173.2650  137.1880 O   0  0  0  0  0  0  0  0  0  0  0  0
  187.6870  173.1230  136.1710 O   0  0  0  0  0  0  0  0  0  0  0  0
  189.9350  172.9800  136.4430 F   0  0  0  0  0  0  0  0  0  0  0  0
  188.8410  173.8200  136.5410 C   0  0  1  0  0  3  0  0  0  0  0  0
  189.0280  174.9560  135.6530 N   0  0  0  0  0  2  0  0  0  0  0  0
  189.3700  175.9840  137.8060 C   0  0  0  0  0  2  0  0  0  0  0  0
  189.7980  175.9570  136.3790 C   0  0  2  0  0  3  0  0  0  0  0  0
  188.6890  177.0800  138.0980 C   0  0  0  0  0  2  0  0  0  0  0  0
  189.0390  179.3580  137.2490 C   0  0  0  0  0  1  0  0  0  0  0  0
  188.5440  177.9670  136.9160 C   0  0  1  0  0  3  0  0  0  0  0  0
  189.4380  177.3400  135.8570 C   0  0  0  0  0  2  0  0  0  0  0  0
  182.2230  173.6930  136.7350 O   0  0  0  0  0  0  0  0  0  0  0  0
  182.0800  172.2760  136.8480 C   0  0  2  0  0  3  0  0  0  0  0  0
  182.5090  171.6400  135.6810 O   0  0  0  0  0  1  0  0  0  0  0  0
  180.6480  171.8830  137.1700 C   0  0  0  0  0  2  0  0  0  0  0  0
  180.4130  172.0370  138.5240 F   0  0  0  0  0  0  0  0  0  0  0  0
  180.8070  178.8420  143.9280 C   0  0  0  0  0  1  0  0  0  0  0  0
  181.8730  179.2950  143.0510 N   0  0  0  0  0  2  0  0  0  0  0  0
  2  5  1  0  0  0  0
  3  7  1  0  0  0  0
  3  2  2  0  0  0  0
  5  4  1  0  0  0  0
  6  5  2  0  0  0  0
  6  1  1  0  0  0  0
  7  8  2  0  0  0  0
  8  6  1  0  0  0  0
 10 11  1  0  0  0  0
 11  8  1  0  0  0  0
 11  9  2  0  0  0  0
 12 10  1  0  0  0  0
 12 13  1  0  0  0  0
 13 14  1  0  0  0  0
 14 15  1  0  0  0  0
 15 21  1  6  0  0  0
 15 16  1  0  0  0  0
 16 18  2  0  0  0  0
 17 16  1  0  0  0  0
 18 19  1  0  0  0  0
 19 20  2  0  0  0  0
 21 22  1  0  0  0  0
 22 23  1  0  0  0  0
 24 25  2  0  0  0  0
 25  3  1  0  0  0  0
 26 25  1  0  0  0  0
 27 26  3  0  0  0  0
 28 27  1  0  0  0  0
 29 31  1  0  0  0  0
 30 28  1  0  0  0  0
 30 29  2  0  0  0  0
 32 33  1  0  0  0  0
 32 31  1  0  0  0  0
 34 36  1  0  0  0  0
 34 33  1  0  0  0  0
 36 35  1  6  0  0  0
 37 36  1  0  0  0  0
 38 40  1  0  0  0  0
 39 37  1  6  0  0  0
 39 38  1  0  0  0  0
 42 41  1  1  0  0  0
 42 40  1  0  0  0  0
 43 39  1  0  0  0  0
 43 42  1  0  0  0  0
 44 45  1  0  0  0  0
 44 29  1  0  0  0  0
 45 46  1  6  0  0  0
 45 47  1  0  0  0  0
 47 48  1  0  0  0  0
 50  2  1  0  0  0  0
 50 49  1  0  0  0  0
M  END
>  <MODEL>
7

>  <REMARK>
 VINA RESULT:      -5.3      1.853      2.425
  Name = 
  24 active torsions:
  status: ('A' for Active; 'I' for Inactive)
    1  A    between atoms: C_1  and  N_47
    2  A    between atoms: C_5  and  N_29
    3  A    between atoms: C_5  and  C_39
    4  A    between atoms: N_7  and  C_19
    5  A    between atoms: N_7  and  C_37
    6  A    between atoms: C_8  and  C_13
    7  A    between atoms: C_9  and  C_25
    8  A    between atoms: C_9  and  O_43
    9  A    between atoms: C_10  and  N_49
   10  A    between atoms: C_11  and  C_20
   11  A    between atoms: C_11  and  O_43
   12  A    between atoms: C_12  and  C_42
   13  A    between atoms: C_13  and  N_29
   14  A    between atoms: C_13  and  C_42
   15  A    between atoms: C_15  and  C_50
   16  A    between atoms: S_16  and  C_22
   17  A    between atoms: S_16  and  C_33
   18  A    between atoms: O_18  and  O_32
   19  A    between atoms: O_18  and  C_46
   20  A    between atoms: C_21  and  C_50
   21  A    between atoms: N_23  and  C_39
   22  A    between atoms: C_25  and  C_46
   23  A    between atoms: C_27  and  C_45
   24  A    between atoms: O_32  and  C_37
                            x       y       z     vdW  Elec       q    Type
                         _______ _______ _______ _____ _____    ______ ____

>  <TORSDO>
F 24

$$$$
=
 OpenBabel11032421123D

 50 51  0  0  1  0  0  0  0  0999 V2000
  181.7850  179.5220  142.8860 N   0  0  0  0  0  1  0  0  0  0  0  0
  181.0770  177.3460  139.9220 C   0  0  0  0  0  0  0  0  0  0  0  0
  182.3790  176.8940  139.6040 C   0  0  0  0  0  0  0  0  0  0  0  0
  179.6390  178.6870  141.3690 O   0  0  0  0  0  1  0  0  0  0  0  0
  180.9010  178.2170  141.0250 C   0  0  0  0  0  0  0  0  0  0  0  0
  182.0010  178.6260  141.7940 C   0  0  0  0  0  0  0  0  0  0  0  0
  183.4590  177.3170  140.3860 C   0  0  0  0  0  3  0  0  0  0  0  0
  183.2960  178.1730  141.4750 C   0  0  0  0  0  0  0  0  0  0  0  0
  184.9700  179.7390  142.1450 O   0  0  0  0  0  0  0  0  0  0  0  0
  185.1420  177.6210  143.0940 N   0  0  0  0  0  2  0  0  0  0  0  0
  184.5020  178.5720  142.2390 C   0  0  0  0  0  0  0  0  0  0  0  0
  186.2930  177.9580  143.9170 C   0  0  0  0  0  2  0  0  0  0  0  0
  187.5360  177.2840  143.3670 C   0  0  0  0  0  2  0  0  0  0  0  0
  188.7160  177.8890  143.9610 N   0  0  0  0  0  2  0  0  0  0  0  0
  189.3630  176.8760  144.7830 C   0  0  2  0  0  3  0  0  0  0  0  0
  189.3660  177.2710  146.2300 C   0  0  0  0  0  0  0  0  0  0  0  0
  190.7160  176.7400  147.2250 Cl  0  0  0  0  0  0  0  0  0  0  0  0
  188.3780  177.9540  146.7260 N   0  0  0  0  0  0  0  0  0  0  0  0
  188.3050  178.3410  148.0960 C   0  0  0  0  0  3  0  0  0  0  0  0
  187.9060  177.5200  148.9610 O   0  0  0  0  0  0  0  0  0  0  0  0
  190.7630  176.5530  144.2610 C   0  0  0  0  0  2  0  0  0  0  0  0
  191.2710  177.5890  143.2690 C   0  0  0  0  0  2  0  0  0  0  0  0
  191.5950  179.1480  144.1360 S   0  0  0  0  0  1  0  0  0  0  0  0
  181.9150  174.9790  138.2470 O   0  0  0  0  0  0  0  0  0  0  0  0
  182.6510  175.9770  138.4670 C   0  0  0  0  0  0  0  0  0  0  0  0
  183.7620  176.2120  137.5840 C   0  0  0  0  0  0  0  0  0  0  0  0
  184.7030  176.4070  136.8550 C   0  0  0  0  0  0  0  0  0  0  0  0
  186.0930  176.6840  135.8060 S   0  0  0  0  0  0  0  0  0  0  0  0
  188.5740  176.6400  137.0290 C   0  0  0  0  0  0  0  0  0  0  0  0
  187.2500  176.6060  137.1770 C   0  0  0  0  0  3  0  0  0  0  0  0
  189.1960  176.7360  135.6640 C   0  0  0  0  0  2  0  0  0  0  0  0
  190.3330  175.7410  135.5360 C   0  0  0  0  0  2  0  0  0  0  0  0
  191.5530  176.4050  135.6770 O   0  0  0  0  0  0  0  0  0  0  0  0
  192.4200  175.4530  135.9510 O   0  0  0  0  0  0  0  0  0  0  0  0
  192.4670  174.8180  138.1280 F   0  0  0  0  0  0  0  0  0  0  0  0
  192.9090  175.7650  137.2230 C   0  0  1  0  0  3  0  0  0  0  0  0
  194.3630  175.7650  137.1980 N   0  0  0  0  0  2  0  0  0  0  0  0
  195.6880  174.4280  138.7050 C   0  0  0  0  0  2  0  0  0  0  0  0
  194.8040  174.4110  137.5060 C   0  0  2  0  0  3  0  0  0  0  0  0
  196.9510  174.1900  138.3930 C   0  0  0  0  0  2  0  0  0  0  0  0
  197.8320  172.6620  136.6830 C   0  0  0  0  0  1  0  0  0  0  0  0
  197.1250  173.9760  136.9340 C   0  0  1  0  0  3  0  0  0  0  0  0
  195.7070  173.9140  136.3860 C   0  0  0  0  0  2  0  0  0  0  0  0
  189.3660  176.5660  138.1850 O   0  0  0  0  0  0  0  0  0  0  0  0
  189.9290  177.6880  138.8670 C   0  0  2  0  0  3  0  0  0  0  0  0
  191.0620  177.3100  139.5890 O   0  0  0  0  0  1  0  0  0  0  0  0
  188.9140  178.3520  139.7810 C   0  0  0  0  0  2  0  0  0  0  0  0
  187.9330  177.4440  140.1310 F   0  0  0  0  0  0  0  0  0  0  0  0
  179.0350  175.8300  139.4850 C   0  0  0  0  0  1  0  0  0  0  0  0
  179.9650  176.8890  139.1320 N   0  0  0  0  0  2  0  0  0  0  0  0
  2  5  1  0  0  0  0
  3  2  2  0  0  0  0
  3  7  1  0  0  0  0
  5  4  1  0  0  0  0
  5  6  2  0  0  0  0
  6  1  1  0  0  0  0
  7  8  2  0  0  0  0
  8  6  1  0  0  0  0
  8 11  1  0  0  0  0
  9 11  2  0  0  0  0
 10 12  1  0  0  0  0
 11 10  1  0  0  0  0
 13 12  1  0  0  0  0
 13 14  1  0  0  0  0
 14 15  1  0  0  0  0
 15 21  1  6  0  0  0
 15 16  1  0  0  0  0
 16 18  2  0  0  0  0
 16 17  1  0  0  0  0
 18 19  1  0  0  0  0
 19 20  2  0  0  0  0
 22 23  1  0  0  0  0
 22 21  1  0  0  0  0
 24 25  2  0  0  0  0
 25  3  1  0  0  0  0
 26 25  1  0  0  0  0
 27 26  3  0  0  0  0
 28 27  1  0  0  0  0
 28 30  1  0  0  0  0
 29 30  2  0  0  0  0
 29 44  1  0  0  0  0
 31 29  1  0  0  0  0
 32 31  1  0  0  0  0
 32 33  1  0  0  0  0
 33 34  1  0  0  0  0
 34 36  1  0  0  0  0
 36 35  1  1  0  0  0
 37 36  1  0  0  0  0
 39 37  1  6  0  0  0
 39 38  1  0  0  0  0
 40 38  1  0  0  0  0
 42 41  1  1  0  0  0
 42 40  1  0  0  0  0
 43 42  1  0  0  0  0
 43 39  1  0  0  0  0
 44 45  1  0  0  0  0
 45 46  1  1  0  0  0
 45 47  1  0  0  0  0
 47 48  1  0  0  0  0
 50 49  1  0  0  0  0
 50  2  1  0  0  0  0
M  END
>  <MODEL>
8

>  <REMARK>
 VINA RESULT:      -5.1      3.817      5.844
  Name = 
  24 active torsions:
  status: ('A' for Active; 'I' for Inactive)
    1  A    between atoms: C_1  and  N_47
    2  A    between atoms: C_5  and  N_29
    3  A    between atoms: C_5  and  C_39
    4  A    between atoms: N_7  and  C_19
    5  A    between atoms: N_7  and  C_37
    6  A    between atoms: C_8  and  C_13
    7  A    between atoms: C_9  and  C_25
    8  A    between atoms: C_9  and  O_43
    9  A    between atoms: C_10  and  N_49
   10  A    between atoms: C_11  and  C_20
   11  A    between atoms: C_11  and  O_43
   12  A    between atoms: C_12  and  C_42
   13  A    between atoms: C_13  and  N_29
   14  A    between atoms: C_13  and  C_42
   15  A    between atoms: C_15  and  C_50
   16  A    between atoms: S_16  and  C_22
   17  A    between atoms: S_16  and  C_33
   18  A    between atoms: O_18  and  O_32
   19  A    between atoms: O_18  and  C_46
   20  A    between atoms: C_21  and  C_50
   21  A    between atoms: N_23  and  C_39
   22  A    between atoms: C_25  and  C_46
   23  A    between atoms: C_27  and  C_45
   24  A    between atoms: O_32  and  C_37
                            x       y       z     vdW  Elec       q    Type
                         _______ _______ _______ _____ _____    ______ ____

>  <TORSDO>
F 24

$$$$
=
 OpenBabel11032421123D

 50 51  0  0  1  0  0  0  0  0999 V2000
  185.2150  178.9700  146.8640 N   0  0  0  0  0  1  0  0  0  0  0  0
  188.2130  177.2930  145.3740 C   0  0  0  0  0  0  0  0  0  0  0  0
  187.8770  177.3160  144.0000 C   0  0  0  0  0  0  0  0  0  0  0  0
  187.6020  177.8520  147.6710 O   0  0  0  0  0  1  0  0  0  0  0  0
  187.3130  177.8570  146.3110 C   0  0  0  0  0  0  0  0  0  0  0  0
  186.1060  178.4320  145.8850 C   0  0  0  0  0  0  0  0  0  0  0  0
  186.6670  177.8940  143.6020 C   0  0  0  0  0  3  0  0  0  0  0  0
  185.7750  178.4530  144.5170 C   0  0  0  0  0  0  0  0  0  0  0  0
  184.1610  180.2020  144.3210 O   0  0  0  0  0  0  0  0  0  0  0  0
  183.6890  178.2640  143.1220 N   0  0  0  0  0  2  0  0  0  0  0  0
  184.5140  179.0360  143.9990 C   0  0  0  0  0  0  0  0  0  0  0  0
  182.4700  178.7910  142.5300 C   0  0  0  0  0  2  0  0  0  0  0  0
  182.1210  178.0050  141.2800 C   0  0  0  0  0  2  0  0  0  0  0  0
  181.3970  178.8610  140.3570 N   0  0  0  0  0  2  0  0  0  0  0  0
  181.6260  178.3520  139.0120 C   0  0  2  0  0  3  0  0  0  0  0  0
  183.0760  178.4330  138.6390 C   0  0  0  0  0  0  0  0  0  0  0  0
  183.9640  179.8800  139.0980 Cl  0  0  0  0  0  0  0  0  0  0  0  0
  183.6350  177.4720  137.9660 N   0  0  0  0  0  0  0  0  0  0  0  0
  185.0000  177.4950  137.5580 C   0  0  0  0  0  3  0  0  0  0  0  0
  185.2910  177.5230  136.3350 O   0  0  0  0  0  0  0  0  0  0  0  0
  180.7200  179.0490  137.9960 C   0  0  0  0  0  2  0  0  0  0  0  0
  181.3590  180.2940  137.3990 C   0  0  0  0  0  2  0  0  0  0  0  0
  180.6310  181.7700  138.1600 S   0  0  0  0  0  1  0  0  0  0  0  0
  189.5200  175.7720  143.1970 O   0  0  0  0  0  0  0  0  0  0  0  0
  188.7660  176.7510  142.9510 C   0  0  0  0  0  0  0  0  0  0  0  0
  188.7800  177.3060  141.6250 C   0  0  0  0  0  0  0  0  0  0  0  0
  188.8060  177.7650  140.5100 C   0  0  0  0  0  0  0  0  0  0  0  0
  188.8610  178.4220  138.8740 S   0  0  0  0  0  0  0  0  0  0  0  0
  190.0740  176.1740  137.8120 C   0  0  0  0  0  0  0  0  0  0  0  0
  190.2300  177.3590  138.4020 C   0  0  0  0  0  3  0  0  0  0  0  0
  188.7050  175.6350  137.5120 C   0  0  0  0  0  2  0  0  0  0  0  0
  188.3250  175.9400  136.0760 C   0  0  0  0  0  2  0  0  0  0  0  0
  188.6650  174.8570  135.2620 O   0  0  0  0  0  0  0  0  0  0  0  0
  188.5890  173.8090  136.0540 O   0  0  0  0  0  0  0  0  0  0  0  0
  188.2160  171.9800  134.7650 F   0  0  0  0  0  0  0  0  0  0  0  0
  187.6090  172.9930  135.4820 C   0  0  1  0  0  3  0  0  0  0  0  0
  186.7870  172.4130  136.5320 N   0  0  0  0  0  2  0  0  0  0  0  0
  185.0920  173.4780  135.1880 C   0  0  0  0  0  2  0  0  0  0  0  0
  185.4350  172.2800  136.0050 C   0  0  2  0  0  3  0  0  0  0  0  0
  184.2010  174.2490  135.7890 C   0  0  0  0  0  2  0  0  0  0  0  0
  182.2960  173.5680  137.1830 C   0  0  0  0  0  1  0  0  0  0  0  0
  183.8020  173.6990  137.1100 C   0  0  1  0  0  3  0  0  0  0  0  0
  184.4440  172.3200  137.1580 C   0  0  0  0  0  2  0  0  0  0  0  0
  191.2290  175.4410  137.5000 O   0  0  0  0  0  0  0  0  0  0  0  0
  192.2550  175.8690  136.6030 C   0  0  2  0  0  3  0  0  0  0  0  0
  191.7540  176.0110  135.3080 O   0  0  0  0  0  1  0  0  0  0  0  0
  193.4380  174.9150  136.6120 C   0  0  0  0  0  2  0  0  0  0  0  0
  194.4200  175.3930  137.4590 F   0  0  0  0  0  0  0  0  0  0  0  0
  190.2580  177.1080  146.9360 C   0  0  0  0  0  1  0  0  0  0  0  0
  189.4690  176.7210  145.7790 N   0  0  0  0  0  2  0  0  0  0  0  0
  2 50  1  0  0  0  0
  2  5  1  0  0  0  0
  3  2  2  0  0  0  0
  5  4  1  0  0  0  0
  6  5  2  0  0  0  0
  6  1  1  0  0  0  0
  7  3  1  0  0  0  0
  7  8  2  0  0  0  0
  8  6  1  0  0  0  0
 10 11  1  0  0  0  0
 11  9  2  0  0  0  0
 11  8  1  0  0  0  0
 12 10  1  0  0  0  0
 13 12  1  0  0  0  0
 14 13  1  0  0  0  0
 15 21  1  6  0  0  0
 15 14  1  0  0  0  0
 16 15  1  0  0  0  0
 16 17  1  0  0  0  0
 18 16  2  0  0  0  0
 19 18  1  0  0  0  0
 20 19  2  0  0  0  0
 22 21  1  0  0  0  0
 22 23  1  0  0  0  0
 25 24  2  0  0  0  0
 25  3  1  0  0  0  0
 26 25  1  0  0  0  0
 27 26  3  0  0  0  0
 28 27  1  0  0  0  0
 29 30  2  0  0  0  0
 30 28  1  0  0  0  0
 31 29  1  0  0  0  0
 32 31  1  0  0  0  0
 33 34  1  0  0  0  0
 33 32  1  0  0  0  0
 36 35  1  1  0  0  0
 36 34  1  0  0  0  0
 36 37  1  0  0  0  0
 38 40  1  0  0  0  0
 38 39  1  0  0  0  0
 39 37  1  1  0  0  0
 39 43  1  0  0  0  0
 40 42  1  0  0  0  0
 42 43  1  0  0  0  0
 42 41  1  6  0  0  0
 44 29  1  0  0  0  0
 45 46  1  6  0  0  0
 45 47  1  0  0  0  0
 45 44  1  0  0  0  0
 47 48  1  0  0  0  0
 50 49  1  0  0  0  0
M  END
>  <MODEL>
9

>  <REMARK>
 VINA RESULT:      -5.1      3.658      8.392
  Name = 
  24 active torsions:
  status: ('A' for Active; 'I' for Inactive)
    1  A    between atoms: C_1  and  N_47
    2  A    between atoms: C_5  and  N_29
    3  A    between atoms: C_5  and  C_39
    4  A    between atoms: N_7  and  C_19
    5  A    between atoms: N_7  and  C_37
    6  A    between atoms: C_8  and  C_13
    7  A    between atoms: C_9  and  C_25
    8  A    between atoms: C_9  and  O_43
    9  A    between atoms: C_10  and  N_49
   10  A    between atoms: C_11  and  C_20
   11  A    between atoms: C_11  and  O_43
   12  A    between atoms: C_12  and  C_42
   13  A    between atoms: C_13  and  N_29
   14  A    between atoms: C_13  and  C_42
   15  A    between atoms: C_15  and  C_50
   16  A    between atoms: S_16  and  C_22
   17  A    between atoms: S_16  and  C_33
   18  A    between atoms: O_18  and  O_32
   19  A    between atoms: O_18  and  C_46
   20  A    between atoms: C_21  and  C_50
   21  A    between atoms: N_23  and  C_39
   22  A    between atoms: C_25  and  C_46
   23  A    between atoms: C_27  and  C_45
   24  A    between atoms: O_32  and  C_37
                            x       y       z     vdW  Elec       q    Type
                         _______ _______ _______ _____ _____    ______ ____

>  <TORSDO>
F 24

$$$$
