=
 OpenBabel11032419313D

 31 35  0  0  0  0  0  0  0  0999 V2000
  190.9880  177.5430  142.3030 N   0  0  0  0  0  0  0  0  0  0  0  0
  190.0110  177.2000  141.4330 C   0  0  0  0  0  0  0  0  0  0  0  0
  190.5380  177.0800  140.1600 C   0  0  0  0  0  0  0  0  0  0  0  0
  192.1470  177.6090  141.6100 C   0  0  0  0  0  3  0  0  0  0  0  0
  192.9530  177.1040  139.2530 C   0  0  0  0  0  1  0  0  0  0  0  0
  191.8990  177.3250  140.2800 C   0  0  0  0  0  0  0  0  0  0  0  0
  192.1420  175.9940  146.6910 C   0  0  0  0  0  0  0  0  0  0  0  0
  191.5350  176.8220  145.7550 C   0  0  0  0  0  0  0  0  0  0  0  0
  191.2270  178.1280  145.8730 N   0  0  0  0  0  0  0  0  0  0  0  0
  191.3870  176.3860  144.4760 C   0  0  0  0  0  0  0  0  0  0  0  0
  192.5230  174.7430  146.2960 N   0  0  0  0  0  2  0  0  0  0  0  0
  192.3760  174.3340  144.9950 C   0  0  0  0  0  3  0  0  0  0  0  0
  191.8270  175.1700  144.0670 N   0  0  0  0  0  0  0  0  0  0  0  0
  192.3830  176.4310  148.0240 N   0  0  0  0  0  1  0  0  0  0  0  0
  190.8780  178.5270  144.6180 C   0  0  0  0  0  3  0  0  0  0  0  0
  190.9360  177.4500  143.7350 C   0  0  0  0  0  0  0  0  0  0  0  0
  189.0300  178.5630  138.0170 C   0  0  0  0  0  2  0  0  0  0  0  0
  189.8670  176.4850  139.0390 N   0  0  0  0  0  0  0  0  0  0  0  0
  188.2220  178.7260  136.7410 C   0  0  0  0  0  2  0  0  0  0  0  0
  188.6940  176.4220  136.9150 C   0  0  0  0  0  2  0  0  0  0  0  0
  189.2790  177.1190  138.0690 C   0  0  0  0  0  0  0  0  0  0  0  0
  188.2300  177.4590  135.9860 N   0  0  0  0  0  0  0  0  0  0  0  0
  186.8520  177.1530  135.5760 C   0  0  0  0  0  3  0  0  0  0  0  0
  185.8570  177.4840  136.6840 C   0  0  0  0  0  1  0  0  0  0  0  0
  186.7000  175.6720  135.2630 C   0  0  0  0  0  1  0  0  0  0  0  0
  188.6290  177.0410  141.7950 N   0  0  0  0  0  0  0  0  0  0  0  0
  188.2680  176.1500  142.8920 C   0  0  0  0  0  2  0  0  0  0  0  0
  187.6890  176.9900  144.0370 C   0  0  0  0  0  2  0  0  0  0  0  0
  186.5680  177.8010  143.5450 N   0  0  0  0  0  2  0  0  0  0  0  0
  187.6110  177.9810  141.3320 C   0  0  0  0  0  2  0  0  0  0  0  0
  187.0540  178.7430  142.5370 C   0  0  0  0  0  2  0  0  0  0  0  0
  1 16  1  0  0  0  0
  2 26  1  0  0  0  0
  2  1  1  0  0  0  0
  3  6  1  0  0  0  0
  3  2  2  0  0  0  0
  4  1  1  0  0  0  0
  5  6  1  0  0  0  0
  6  4  2  0  0  0  0
  7 14  1  0  0  0  0
  8  9  1  0  0  0  0
  8  7  2  0  0  0  0
 10  8  1  0  0  0  0
 11  7  1  0  0  0  0
 12 11  1  0  0  0  0
 13 10  1  0  0  0  0
 13 12  2  0  0  0  0
 15  9  2  0  0  0  0
 16 10  2  0  0  0  0
 16 15  1  0  0  0  0
 17 21  1  0  0  0  0
 18  3  1  0  0  0  0
 19 17  1  0  0  0  0
 20 21  1  0  0  0  0
 21 18  2  0  0  0  0
 22 19  1  0  0  0  0
 22 20  1  0  0  0  0
 23 22  1  0  0  0  0
 23 24  1  0  0  0  0
 25 23  1  0  0  0  0
 26 27  1  0  0  0  0
 27 28  1  0  0  0  0
 29 28  1  0  0  0  0
 30 26  1  0  0  0  0
 30 31  1  0  0  0  0
 31 29  1  0  0  0  0
M  END
>  <MODEL>
1

>  <REMARK>
 VINA RESULT:      -6.9      0.000      0.000
  Name = 
  4 active torsions:
  status: ('A' for Active; 'I' for Inactive)
    1  A    between atoms: N_1  and  C_28
    2  A    between atoms: C_3  and  N_8
    3  A    between atoms: C_5  and  N_30
    4  A    between atoms: N_6  and  C_23
                            x       y       z     vdW  Elec       q    Type
                         _______ _______ _______ _____ _____    ______ ____

>  <TORSDO>
F 4

$$$$
=
 OpenBabel11032419313D

 31 35  0  0  1  0  0  0  0  0999 V2000
  190.8370  176.6050  139.8440 N   0  0  0  0  0  0  0  0  0  0  0  0
  189.6290  177.1380  139.5470 C   0  0  0  0  0  0  0  0  0  0  0  0
  189.0440  177.6410  140.6940 C   0  0  0  0  0  0  0  0  0  0  0  0
  191.0510  176.7940  141.1660 C   0  0  0  0  0  3  0  0  0  0  0  0
  189.9120  177.9900  143.0980 C   0  0  0  0  0  1  0  0  0  0  0  0
  189.9580  177.4350  141.7180 C   0  0  0  0  0  0  0  0  0  0  0  0
  192.8610  174.8060  135.8890 C   0  0  0  0  0  0  0  0  0  0  0  0
  192.8030  175.5540  137.0570 C   0  0  0  0  0  0  0  0  0  0  0  0
  193.4790  176.6770  137.3630 N   0  0  0  0  0  0  0  0  0  0  0  0
  191.8240  175.2950  137.9650 C   0  0  2  0  0  3  0  0  0  0  0  0
  191.9540  173.7970  135.7200 N   0  0  0  0  0  0  0  0  0  0  0  0
  190.9680  173.5690  136.6450 C   0  0  0  0  0  3  0  0  0  0  0  0
  190.8820  174.3400  137.7680 N   0  0  0  0  0  0  0  0  0  0  0  0
  193.8230  175.0830  134.8760 N   0  0  0  0  0  1  0  0  0  0  0  0
  192.8980  177.1450  138.5030 C   0  0  0  0  0  3  0  0  0  0  0  0
  191.8860  176.2810  138.9190 C   0  0  0  0  0  0  0  0  0  0  0  0
  186.8440  177.5640  142.7480 C   0  0  0  0  0  2  0  0  0  0  0  0
  187.8950  178.5010  140.7270 N   0  0  0  0  0  0  0  0  0  0  0  0
  185.5590  178.0010  143.4310 C   0  0  0  0  0  2  0  0  0  0  0  0
  185.8840  179.5060  141.6440 C   0  0  0  0  0  2  0  0  0  0  0  0
  186.9800  178.5270  141.6500 C   0  0  0  0  0  0  0  0  0  0  0  0
  185.1280  179.3030  142.8850 N   0  0  0  0  0  0  0  0  0  0  0  0
  183.6950  179.2220  142.5660 C   0  0  0  0  0  3  0  0  0  0  0  0
  182.8840  178.7570  143.7710 C   0  0  0  0  0  1  0  0  0  0  0  0
  183.4500  178.2220  141.4460 C   0  0  0  0  0  1  0  0  0  0  0  0
  189.0430  177.1220  138.2350 N   0  0  0  0  0  0  0  0  0  0  0  0
  187.8680  176.2950  137.9790 C   0  0  0  0  0  2  0  0  0  0  0  0
  186.6780  177.2120  137.6750 C   0  0  0  0  0  2  0  0  0  0  0  0
  187.0130  178.1160  136.5670 N   0  0  0  0  0  2  0  0  0  0  0  0
  189.3710  178.1450  137.2450 C   0  0  0  0  0  2  0  0  0  0  0  0
  188.1220  178.9840  136.9650 C   0  0  0  0  0  2  0  0  0  0  0  0
  1  4  1  0  0  0  0
  2  1  1  0  0  0  0
  2  3  2  0  0  0  0
  3 18  1  0  0  0  0
  3  6  1  0  0  0  0
  4  6  2  0  0  0  0
  6  5  1  0  0  0  0
  7  8  1  0  0  0  0
  8  9  2  0  0  0  0
  9 15  1  0  0  0  0
 10  8  1  6  0  0  0
 10 16  1  0  0  0  0
 11  7  2  0  0  0  0
 11 12  1  0  0  0  0
 12 13  2  0  0  0  0
 13 10  1  0  0  0  0
 14  7  1  0  0  0  0
 15 16  2  0  0  0  0
 16  1  1  0  0  0  0
 17 19  1  0  0  0  0
 18 21  2  0  0  0  0
 20 21  1  0  0  0  0
 20 22  1  0  0  0  0
 21 17  1  0  0  0  0
 22 19  1  0  0  0  0
 23 22  1  0  0  0  0
 23 24  1  0  0  0  0
 25 23  1  0  0  0  0
 26  2  1  0  0  0  0
 27 26  1  0  0  0  0
 28 27  1  0  0  0  0
 29 31  1  0  0  0  0
 29 28  1  0  0  0  0
 30 26  1  0  0  0  0
 31 30  1  0  0  0  0
M  END
>  <MODEL>
2

>  <REMARK>
 VINA RESULT:      -6.8      3.088      6.744
  Name = 
  4 active torsions:
  status: ('A' for Active; 'I' for Inactive)
    1  A    between atoms: N_1  and  C_28
    2  A    between atoms: C_3  and  N_8
    3  A    between atoms: C_5  and  N_30
    4  A    between atoms: N_6  and  C_23
                            x       y       z     vdW  Elec       q    Type
                         _______ _______ _______ _____ _____    ______ ____

>  <TORSDO>
F 4

$$$$
=
 OpenBabel11032419313D

 31 35  0  0  1  0  0  0  0  0999 V2000
  190.5670  177.2000  139.5850 N   0  0  0  0  0  0  0  0  0  0  0  0
  190.1290  177.1570  140.8650 C   0  0  0  0  0  0  0  0  0  0  0  0
  188.7910  177.5030  140.9140 C   0  0  0  0  0  0  0  0  0  0  0  0
  189.5140  177.5340  138.8050 C   0  0  0  0  0  3  0  0  0  0  0  0
  187.0160  177.9060  139.0860 C   0  0  0  0  0  1  0  0  0  0  0  0
  188.4010  177.7270  139.6010 C   0  0  0  0  0  0  0  0  0  0  0  0
  193.3260  174.6170  136.6360 C   0  0  0  0  0  0  0  0  0  0  0  0
  193.0550  175.5170  137.6590 C   0  0  0  0  0  0  0  0  0  0  0  0
  193.7950  176.5670  138.0630 N   0  0  0  0  0  0  0  0  0  0  0  0
  191.8220  175.5230  138.2320 C   0  0  2  0  0  3  0  0  0  0  0  0
  192.3490  173.7310  136.2790 N   0  0  0  0  0  0  0  0  0  0  0  0
  191.1080  173.7700  136.8630 C   0  0  0  0  0  3  0  0  0  0  0  0
  190.8300  174.6900  137.8310 N   0  0  0  0  0  0  0  0  0  0  0  0
  194.5770  174.6180  135.9570 N   0  0  0  0  0  1  0  0  0  0  0  0
  192.9940  177.2600  138.9180 C   0  0  0  0  0  3  0  0  0  0  0  0
  191.7700  176.6110  139.0680 C   0  0  0  0  0  0  0  0  0  0  0  0
  186.3670  179.1620  141.5730 C   0  0  0  0  0  2  0  0  0  0  0  0
  187.9300  177.3200  142.0480 N   0  0  0  0  0  0  0  0  0  0  0  0
  185.1360  179.5790  142.3600 C   0  0  0  0  0  2  0  0  0  0  0  0
  185.9740  177.6600  143.4440 C   0  0  0  0  0  2  0  0  0  0  0  0
  186.8400  177.9800  142.3010 C   0  0  0  0  0  0  0  0  0  0  0  0
  184.7960  178.5290  143.3390 N   0  0  0  0  0  0  0  0  0  0  0  0
  184.5550  179.1690  144.6410 C   0  0  0  0  0  3  0  0  0  0  0  0
  185.3890  178.5190  145.7410 C   0  0  0  0  0  1  0  0  0  0  0  0
  183.0950  179.0330  145.0440 C   0  0  0  0  0  1  0  0  0  0  0  0
  190.9640  176.8460  141.9920 N   0  0  0  0  0  0  0  0  0  0  0  0
  191.9610  177.8130  142.4400 C   0  0  0  0  0  2  0  0  0  0  0  0
  191.5640  178.3170  143.8330 C   0  0  0  0  0  2  0  0  0  0  0  0
  191.3950  177.1800  144.7480 N   0  0  0  0  0  2  0  0  0  0  0  0
  190.6330  175.7530  142.9020 C   0  0  0  0  0  2  0  0  0  0  0  0
  190.2970  176.3360  144.2770 C   0  0  0  0  0  2  0  0  0  0  0  0
  1  2  1  0  0  0  0
  2  3  2  0  0  0  0
  2 26  1  0  0  0  0
  3 18  1  0  0  0  0
  4  1  1  0  0  0  0
  4  6  2  0  0  0  0
  5  6  1  0  0  0  0
  6  3  1  0  0  0  0
  7  8  1  0  0  0  0
  8  9  2  0  0  0  0
  9 15  1  0  0  0  0
 10  8  1  6  0  0  0
 10 16  1  0  0  0  0
 11  7  2  0  0  0  0
 11 12  1  0  0  0  0
 12 13  2  0  0  0  0
 13 10  1  0  0  0  0
 14  7  1  0  0  0  0
 15 16  2  0  0  0  0
 16  1  1  0  0  0  0
 17 21  1  0  0  0  0
 17 19  1  0  0  0  0
 18 21  2  0  0  0  0
 19 22  1  0  0  0  0
 21 20  1  0  0  0  0
 22 20  1  0  0  0  0
 22 23  1  0  0  0  0
 23 25  1  0  0  0  0
 23 24  1  0  0  0  0
 26 27  1  0  0  0  0
 26 30  1  0  0  0  0
 27 28  1  0  0  0  0
 28 29  1  0  0  0  0
 30 31  1  0  0  0  0
 31 29  1  0  0  0  0
M  END
>  <MODEL>
3

>  <REMARK>
 VINA RESULT:      -6.6      2.517      6.715
  Name = 
  4 active torsions:
  status: ('A' for Active; 'I' for Inactive)
    1  A    between atoms: N_1  and  C_28
    2  A    between atoms: C_3  and  N_8
    3  A    between atoms: C_5  and  N_30
    4  A    between atoms: N_6  and  C_23
                            x       y       z     vdW  Elec       q    Type
                         _______ _______ _______ _____ _____    ______ ____

>  <TORSDO>
F 4

$$$$
=
 OpenBabel11032419313D

 31 35  0  0  0  0  0  0  0  0999 V2000
  183.9880  178.8530  141.3340 N   0  0  0  0  0  0  0  0  0  0  0  0
  182.9870  178.6640  140.4440 C   0  0  0  0  0  0  0  0  0  0  0  0
  183.5090  178.5380  139.1700 C   0  0  0  0  0  0  0  0  0  0  0  0
  185.1540  178.8120  140.6500 C   0  0  0  0  0  3  0  0  0  0  0  0
  185.9200  178.3170  138.2780 C   0  0  0  0  0  1  0  0  0  0  0  0
  184.8890  178.6160  139.3080 C   0  0  0  0  0  0  0  0  0  0  0  0
  185.5660  178.5060  145.8480 C   0  0  0  0  0  0  0  0  0  0  0  0
  184.6210  178.6540  144.8410 C   0  0  0  0  0  0  0  0  0  0  0  0
  183.4470  179.3100  144.8890 N   0  0  0  0  0  0  0  0  0  0  0  0
  184.9390  178.2900  143.5700 C   0  0  0  0  0  0  0  0  0  0  0  0
  186.7720  177.9490  145.5270 N   0  0  0  0  0  2  0  0  0  0  0  0
  187.0720  177.6050  144.2330 C   0  0  0  0  0  3  0  0  0  0  0  0
  186.1590  177.8000  143.2380 N   0  0  0  0  0  0  0  0  0  0  0  0
  185.3060  178.9370  147.1800 N   0  0  0  0  0  1  0  0  0  0  0  0
  183.0150  179.3660  143.5990 C   0  0  0  0  0  3  0  0  0  0  0  0
  183.9110  178.7050  142.7600 C   0  0  0  0  0  0  0  0  0  0  0  0
  183.0550  175.6580  138.4180 C   0  0  0  0  0  2  0  0  0  0  0  0
  182.7850  178.0740  138.0210 N   0  0  0  0  0  0  0  0  0  0  0  0
  182.5150  174.5020  137.5930 C   0  0  0  0  0  2  0  0  0  0  0  0
  181.6920  176.4630  136.5720 C   0  0  0  0  0  2  0  0  0  0  0  0
  182.5180  176.8360  137.7280 C   0  0  0  0  0  0  0  0  0  0  0  0
  181.5180  175.0070  136.6290 N   0  0  0  0  0  0  0  0  0  0  0  0
  181.8180  174.4350  135.3080 C   0  0  0  0  0  3  0  0  0  0  0  0
  182.2880  172.9890  135.4230 C   0  0  0  0  0  1  0  0  0  0  0  0
  182.9310  175.2170  134.6260 C   0  0  0  0  0  1  0  0  0  0  0  0
  181.5930  178.6530  140.7920 N   0  0  0  0  0  0  0  0  0  0  0  0
  180.7860  179.8500  140.5740 C   0  0  0  0  0  2  0  0  0  0  0  0
  179.7420  179.5480  139.4910 C   0  0  0  0  0  2  0  0  0  0  0  0
  178.9540  178.3680  139.8700 N   0  0  0  0  0  2  0  0  0  0  0  0
  180.8830  177.4010  141.0400 C   0  0  0  0  0  2  0  0  0  0  0  0
  179.8320  177.2000  139.9450 C   0  0  0  0  0  2  0  0  0  0  0  0
  1 16  1  0  0  0  0
  2 26  1  0  0  0  0
  2  1  1  0  0  0  0
  3  6  1  0  0  0  0
  3  2  2  0  0  0  0
  4  1  1  0  0  0  0
  5  6  1  0  0  0  0
  6  4  2  0  0  0  0
  7 14  1  0  0  0  0
  8  9  1  0  0  0  0
  8  7  2  0  0  0  0
 10  8  1  0  0  0  0
 11  7  1  0  0  0  0
 12 11  1  0  0  0  0
 13 10  1  0  0  0  0
 13 12  2  0  0  0  0
 15  9  2  0  0  0  0
 16 10  2  0  0  0  0
 16 15  1  0  0  0  0
 18  3  1  0  0  0  0
 19 17  1  0  0  0  0
 20 22  1  0  0  0  0
 20 21  1  0  0  0  0
 21 18  2  0  0  0  0
 21 17  1  0  0  0  0
 22 19  1  0  0  0  0
 23 24  1  0  0  0  0
 23 22  1  0  0  0  0
 25 23  1  0  0  0  0
 26 30  1  0  0  0  0
 27 26  1  0  0  0  0
 28 29  1  0  0  0  0
 28 27  1  0  0  0  0
 29 31  1  0  0  0  0
 31 30  1  0  0  0  0
M  END
>  <MODEL>
4

>  <REMARK>
 VINA RESULT:      -6.6      4.622      7.169
  Name = 
  4 active torsions:
  status: ('A' for Active; 'I' for Inactive)
    1  A    between atoms: N_1  and  C_28
    2  A    between atoms: C_3  and  N_8
    3  A    between atoms: C_5  and  N_30
    4  A    between atoms: N_6  and  C_23
                            x       y       z     vdW  Elec       q    Type
                         _______ _______ _______ _____ _____    ______ ____

>  <TORSDO>
F 4

$$$$
=
 OpenBabel11032419313D

 31 35  0  0  0  0  0  0  0  0999 V2000
  187.6600  177.9900  141.1040 N   0  0  0  0  0  0  0  0  0  0  0  0
  188.9410  177.6100  141.3210 C   0  0  0  0  0  0  0  0  0  0  0  0
  189.6330  177.5920  140.1250 C   0  0  0  0  0  0  0  0  0  0  0  0
  187.5320  178.2530  139.7840 C   0  0  0  0  0  3  0  0  0  0  0  0
  189.0410  178.3860  137.7430 C   0  0  0  0  0  1  0  0  0  0  0  0
  188.7380  178.0170  139.1520 C   0  0  0  0  0  0  0  0  0  0  0  0
  183.3790  178.7920  143.1050 C   0  0  0  0  0  0  0  0  0  0  0  0
  184.7650  178.7170  143.0590 C   0  0  0  0  0  0  0  0  0  0  0  0
  185.6190  178.4470  144.0640 N   0  0  0  0  0  2  0  0  0  0  0  0
  185.3920  178.7050  141.8530 C   0  0  0  0  0  0  0  0  0  0  0  0
  182.6970  178.9050  141.9260 N   0  0  0  0  0  0  0  0  0  0  0  0
  183.3550  178.8750  140.7220 C   0  0  0  0  0  3  0  0  0  0  0  0
  184.7120  178.7480  140.6800 N   0  0  0  0  0  0  0  0  0  0  0  0
  182.6720  178.7380  144.3410 N   0  0  0  0  0  1  0  0  0  0  0  0
  186.8260  178.2530  143.4650 C   0  0  0  0  0  3  0  0  0  0  0  0
  186.7180  178.4430  142.0890 C   0  0  0  0  0  0  0  0  0  0  0  0
  191.1130  175.6680  138.3440 C   0  0  0  0  0  2  0  0  0  0  0  0
  191.0590  177.4930  139.9960 N   0  0  0  0  0  0  0  0  0  0  0  0
  192.3250  175.0200  137.6940 C   0  0  0  0  0  2  0  0  0  0  0  0
  193.1700  176.7530  139.0530 C   0  0  0  0  0  2  0  0  0  0  0  0
  191.7060  176.7200  139.1760 C   0  0  0  0  0  0  0  0  0  0  0  0
  193.5240  175.8370  137.9630 N   0  0  0  0  0  0  0  0  0  0  0  0
  194.6010  174.9450  138.4160 C   0  0  0  0  0  3  0  0  0  0  0  0
  195.3270  175.5220  139.6270 C   0  0  0  0  0  1  0  0  0  0  0  0
  195.6390  174.7540  137.3200 C   0  0  0  0  0  1  0  0  0  0  0  0
  189.4620  177.2350  142.6070 N   0  0  0  0  0  0  0  0  0  0  0  0
  189.5100  175.8260  142.9830 C   0  0  0  0  0  2  0  0  0  0  0  0
  190.9790  175.4000  143.1050 C   0  0  0  0  0  2  0  0  0  0  0  0
  191.6800  176.2840  144.0440 N   0  0  0  0  0  2  0  0  0  0  0  0
  190.2460  178.1710  143.4090 C   0  0  0  0  0  2  0  0  0  0  0  0
  191.6800  177.6500  143.5200 C   0  0  0  0  0  2  0  0  0  0  0  0
  1  2  1  0  0  0  0
  1 16  1  0  0  0  0
  2 26  1  0  0  0  0
  3  2  2  0  0  0  0
  4  1  1  0  0  0  0
  5  6  1  0  0  0  0
  6  4  2  0  0  0  0
  6  3  1  0  0  0  0
  7 14  1  0  0  0  0
  8  7  1  0  0  0  0
  8  9  1  0  0  0  0
 10 16  1  0  0  0  0
 10  8  2  0  0  0  0
 11  7  2  0  0  0  0
 12 11  1  0  0  0  0
 13 12  2  0  0  0  0
 13 10  1  0  0  0  0
 15  9  1  0  0  0  0
 16 15  2  0  0  0  0
 17 21  1  0  0  0  0
 18  3  1  0  0  0  0
 19 22  1  0  0  0  0
 19 17  1  0  0  0  0
 20 21  1  0  0  0  0
 21 18  2  0  0  0  0
 22 23  1  0  0  0  0
 22 20  1  0  0  0  0
 23 24  1  0  0  0  0
 25 23  1  0  0  0  0
 26 27  1  0  0  0  0
 26 30  1  0  0  0  0
 27 28  1  0  0  0  0
 28 29  1  0  0  0  0
 30 31  1  0  0  0  0
 31 29  1  0  0  0  0
M  END
>  <MODEL>
5

>  <REMARK>
 VINA RESULT:      -6.5      2.372      6.335
  Name = 
  4 active torsions:
  status: ('A' for Active; 'I' for Inactive)
    1  A    between atoms: N_1  and  C_28
    2  A    between atoms: C_3  and  N_8
    3  A    between atoms: C_5  and  N_30
    4  A    between atoms: N_6  and  C_23
                            x       y       z     vdW  Elec       q    Type
                         _______ _______ _______ _____ _____    ______ ____

>  <TORSDO>
F 4

$$$$
=
 OpenBabel11032419313D

 31 35  0  0  0  0  0  0  0  0999 V2000
  184.8710  178.1150  139.0450 N   0  0  0  0  0  0  0  0  0  0  0  0
  186.2200  178.2020  139.1020 C   0  0  0  0  0  0  0  0  0  0  0  0
  186.6030  178.7680  140.3030 C   0  0  0  0  0  0  0  0  0  0  0  0
  184.3830  178.5850  140.2160 C   0  0  0  0  0  3  0  0  0  0  0  0
  185.3050  179.3790  142.4470 C   0  0  0  0  0  1  0  0  0  0  0  0
  185.4330  178.9950  141.0150 C   0  0  0  0  0  0  0  0  0  0  0  0
  181.0830  175.6680  137.4180 C   0  0  0  0  0  0  0  0  0  0  0  0
  182.3280  176.2790  137.3420 C   0  0  0  0  0  0  0  0  0  0  0  0
  182.9170  176.8420  136.2700 N   0  0  0  0  0  0  0  0  0  0  0  0
  183.0050  176.5570  138.4890 C   0  0  0  0  0  0  0  0  0  0  0  0
  180.6070  175.3210  138.6500 N   0  0  0  0  0  2  0  0  0  0  0  0
  181.3030  175.6280  139.7920 C   0  0  0  0  0  3  0  0  0  0  0  0
  182.5020  176.2750  139.7160 N   0  0  0  0  0  0  0  0  0  0  0  0
  180.3050  175.4200  136.2510 N   0  0  0  0  0  1  0  0  0  0  0  0
  184.0010  177.5030  136.7630 C   0  0  0  0  0  3  0  0  0  0  0  0
  184.0980  177.3110  138.1400 C   0  0  0  0  0  0  0  0  0  0  0  0
  187.6520  177.0190  142.5180 C   0  0  0  0  0  2  0  0  0  0  0  0
  187.9410  178.7810  140.8220 N   0  0  0  0  0  0  0  0  0  0  0  0
  188.6870  176.4550  143.4760 C   0  0  0  0  0  2  0  0  0  0  0  0
  189.8370  178.0130  142.1290 C   0  0  0  0  0  2  0  0  0  0  0  0
  188.4250  177.9800  141.7240 C   0  0  0  0  0  0  0  0  0  0  0  0
  190.0330  176.9030  143.0690 N   0  0  0  0  0  0  0  0  0  0  0  0
  190.7360  177.4010  144.2600 C   0  0  0  0  0  3  0  0  0  0  0  0
  189.7910  177.5260  145.4510 C   0  0  0  0  0  1  0  0  0  0  0  0
  191.3180  178.7830  144.0010 C   0  0  0  0  0  1  0  0  0  0  0  0
  187.0970  177.8070  138.0340 N   0  0  0  0  0  0  0  0  0  0  0  0
  187.5430  178.7990  137.0620 C   0  0  0  0  0  2  0  0  0  0  0  0
  189.0560  178.9960  137.2190 C   0  0  0  0  0  2  0  0  0  0  0  0
  189.7440  177.7050  137.0980 N   0  0  0  0  0  2  0  0  0  0  0  0
  187.8200  176.5380  138.0770 C   0  0  0  0  0  2  0  0  0  0  0  0
  189.3190  176.8240  138.1870 C   0  0  0  0  0  2  0  0  0  0  0  0
  1  2  1  0  0  0  0
  1  4  1  0  0  0  0
  2  3  2  0  0  0  0
  3 18  1  0  0  0  0
  3  6  1  0  0  0  0
  4  6  2  0  0  0  0
  6  5  1  0  0  0  0
  7 11  1  0  0  0  0
  8  7  2  0  0  0  0
  8 10  1  0  0  0  0
  9 15  2  0  0  0  0
  9  8  1  0  0  0  0
 10 13  1  0  0  0  0
 11 12  1  0  0  0  0
 13 12  2  0  0  0  0
 14  7  1  0  0  0  0
 15 16  1  0  0  0  0
 16 10  2  0  0  0  0
 16  1  1  0  0  0  0
 17 19  1  0  0  0  0
 18 21  2  0  0  0  0
 20 22  1  0  0  0  0
 21 20  1  0  0  0  0
 21 17  1  0  0  0  0
 22 19  1  0  0  0  0
 22 23  1  0  0  0  0
 23 24  1  0  0  0  0
 25 23  1  0  0  0  0
 26 30  1  0  0  0  0
 26  2  1  0  0  0  0
 27 28  1  0  0  0  0
 27 26  1  0  0  0  0
 29 28  1  0  0  0  0
 29 31  1  0  0  0  0
 30 31  1  0  0  0  0
M  END
>  <MODEL>
6

>  <REMARK>
 VINA RESULT:      -6.5      3.447      9.010
  Name = 
  4 active torsions:
  status: ('A' for Active; 'I' for Inactive)
    1  A    between atoms: N_1  and  C_28
    2  A    between atoms: C_3  and  N_8
    3  A    between atoms: C_5  and  N_30
    4  A    between atoms: N_6  and  C_23
                            x       y       z     vdW  Elec       q    Type
                         _______ _______ _______ _____ _____    ______ ____

>  <TORSDO>
F 4

$$$$
=
 OpenBabel11032419313D

 31 35  0  0  0  0  0  0  0  0999 V2000
  185.6160  178.6820  143.2040 N   0  0  0  0  0  0  0  0  0  0  0  0
  186.6190  177.9150  143.6870 C   0  0  0  0  0  0  0  0  0  0  0  0
  186.6360  177.9800  145.0680 C   0  0  0  0  0  0  0  0  0  0  0  0
  184.9610  179.2120  144.2630 C   0  0  0  0  0  3  0  0  0  0  0  0
  185.0150  179.0030  146.7950 C   0  0  0  0  0  1  0  0  0  0  0  0
  185.5700  178.7920  145.4300 C   0  0  0  0  0  0  0  0  0  0  0  0
  182.3560  179.2950  139.7430 C   0  0  0  0  0  0  0  0  0  0  0  0
  183.6090  179.0140  140.2710 C   0  0  0  0  0  0  0  0  0  0  0  0
  184.8160  179.2150  139.7090 N   0  0  0  0  0  0  0  0  0  0  0  0
  183.7180  178.6810  141.5850 C   0  0  0  0  0  0  0  0  0  0  0  0
  181.2670  179.1730  140.5600 N   0  0  0  0  0  2  0  0  0  0  0  0
  181.4080  178.8510  141.8860 C   0  0  0  0  0  3  0  0  0  0  0  0
  182.6460  178.6270  142.4130 N   0  0  0  0  0  0  0  0  0  0  0  0
  182.1960  179.7160  138.3920 N   0  0  0  0  0  1  0  0  0  0  0  0
  185.7160  179.0070  140.7090 C   0  0  0  0  0  3  0  0  0  0  0  0
  185.0580  178.6370  141.8810 C   0  0  0  0  0  0  0  0  0  0  0  0
  189.5610  178.2370  145.7330 C   0  0  0  0  0  2  0  0  0  0  0  0
  187.3820  177.1070  145.9290 N   0  0  0  0  0  0  0  0  0  0  0  0
  190.8730  177.8780  146.4100 C   0  0  0  0  0  2  0  0  0  0  0  0
  189.2790  176.3510  147.2420 C   0  0  0  0  0  2  0  0  0  0  0  0
  188.6240  177.2510  146.2830 C   0  0  0  0  0  0  0  0  0  0  0  0
  190.6240  176.8900  147.4770 N   0  0  0  0  0  0  0  0  0  0  0  0
  191.6050  175.8030  147.3430 C   0  0  0  0  0  3  0  0  0  0  0  0
  192.8060  176.0240  148.2580 C   0  0  0  0  0  1  0  0  0  0  0  0
  192.1340  175.7300  145.9190 C   0  0  0  0  0  1  0  0  0  0  0  0
  187.5490  177.1920  142.8630 N   0  0  0  0  0  0  0  0  0  0  0  0
  188.3230  177.9060  141.8530 C   0  0  0  0  0  2  0  0  0  0  0  0
  189.8040  177.8630  142.2480 C   0  0  0  0  0  2  0  0  0  0  0  0
  190.2310  176.4710  142.4410 N   0  0  0  0  0  2  0  0  0  0  0  0
  187.9890  175.8450  143.2180 C   0  0  0  0  0  2  0  0  0  0  0  0
  189.4820  175.8820  143.5510 C   0  0  0  0  0  2  0  0  0  0  0  0
  1  2  1  0  0  0  0
  1  4  1  0  0  0  0
  2  3  2  0  0  0  0
  3  6  1  0  0  0  0
  3 18  1  0  0  0  0
  4  6  2  0  0  0  0
  6  5  1  0  0  0  0
  7  8  2  0  0  0  0
  7 11  1  0  0  0  0
  8 10  1  0  0  0  0
  9  8  1  0  0  0  0
  9 15  2  0  0  0  0
 10 16  2  0  0  0  0
 10 13  1  0  0  0  0
 11 12  1  0  0  0  0
 12 13  2  0  0  0  0
 14  7  1  0  0  0  0
 15 16  1  0  0  0  0
 16  1  1  0  0  0  0
 17 21  1  0  0  0  0
 17 19  1  0  0  0  0
 18 21  2  0  0  0  0
 19 22  1  0  0  0  0
 20 22  1  0  0  0  0
 21 20  1  0  0  0  0
 23 22  1  0  0  0  0
 23 24  1  0  0  0  0
 25 23  1  0  0  0  0
 26 30  1  0  0  0  0
 26  2  1  0  0  0  0
 27 28  1  0  0  0  0
 27 26  1  0  0  0  0
 28 29  1  0  0  0  0
 29 31  1  0  0  0  0
 30 31  1  0  0  0  0
M  END
>  <MODEL>
7

>  <REMARK>
 VINA RESULT:      -6.4      3.128      9.048
  Name = 
  4 active torsions:
  status: ('A' for Active; 'I' for Inactive)
    1  A    between atoms: N_1  and  C_28
    2  A    between atoms: C_3  and  N_8
    3  A    between atoms: C_5  and  N_30
    4  A    between atoms: N_6  and  C_23
                            x       y       z     vdW  Elec       q    Type
                         _______ _______ _______ _____ _____    ______ ____

>  <TORSDO>
F 4

$$$$
=
 OpenBabel11032419313D

 31 35  0  0  0  0  0  0  0  0999 V2000
  188.9960  177.4570  138.5260 N   0  0  0  0  0  0  0  0  0  0  0  0
  189.6590  176.4420  137.9250 C   0  0  0  0  0  0  0  0  0  0  0  0
  190.9140  176.3030  138.4880 C   0  0  0  0  0  0  0  0  0  0  0  0
  189.7980  177.9480  139.4980 C   0  0  0  0  0  3  0  0  0  0  0  0
  192.0380  177.3710  140.5500 C   0  0  0  0  0  1  0  0  0  0  0  0
  190.9920  177.2520  139.4990 C   0  0  0  0  0  0  0  0  0  0  0  0
  184.7720  179.3060  139.8360 C   0  0  0  0  0  0  0  0  0  0  0  0
  185.6650  178.6450  139.0030 C   0  0  0  0  0  0  0  0  0  0  0  0
  185.6630  178.5860  137.6570 N   0  0  0  0  0  0  0  0  0  0  0  0
  186.8160  178.1440  139.5240 C   0  0  0  0  0  0  0  0  0  0  0  0
  185.0650  179.3820  141.1680 N   0  0  0  0  0  2  0  0  0  0  0  0
  186.2410  178.8810  141.6650 C   0  0  0  0  0  3  0  0  0  0  0  0
  187.1400  178.2780  140.8340 N   0  0  0  0  0  0  0  0  0  0  0  0
  183.5870  179.9090  139.3260 N   0  0  0  0  0  1  0  0  0  0  0  0
  186.8610  178.0320  137.3220 C   0  0  0  0  0  3  0  0  0  0  0  0
  187.5840  177.7150  138.4700 C   0  0  0  0  0  0  0  0  0  0  0  0
  193.3610  176.2670  136.7340 C   0  0  0  0  0  2  0  0  0  0  0  0
  191.7900  175.1840  138.2910 N   0  0  0  0  0  0  0  0  0  0  0  0
  194.6060  175.6800  136.0920 C   0  0  0  0  0  2  0  0  0  0  0  0
  193.7690  174.0050  137.5260 C   0  0  0  0  0  2  0  0  0  0  0  0
  192.8890  175.1790  137.5980 C   0  0  0  0  0  0  0  0  0  0  0  0
  194.9520  174.4080  136.7560 N   0  0  0  0  0  0  0  0  0  0  0  0
  195.2170  173.4000  135.7200 C   0  0  0  0  0  3  0  0  0  0  0  0
  194.1150  173.3860  134.6650 C   0  0  0  0  0  1  0  0  0  0  0  0
  195.2740  172.0070  136.3280 C   0  0  0  0  0  1  0  0  0  0  0  0
  189.1330  175.6740  136.8300 N   0  0  0  0  0  0  0  0  0  0  0  0
  189.5250  176.0050  135.4630 C   0  0  0  0  0  2  0  0  0  0  0  0
  190.3490  174.8430  134.8940 C   0  0  0  0  0  2  0  0  0  0  0  0
  189.5900  173.5900  135.0020 N   0  0  0  0  0  2  0  0  0  0  0  0
  188.4920  174.3800  137.0500 C   0  0  0  0  0  2  0  0  0  0  0  0
  189.3520  173.2860  136.4130 C   0  0  0  0  0  2  0  0  0  0  0  0
  1  4  1  0  0  0  0
  2  3  2  0  0  0  0
  2  1  1  0  0  0  0
  3  6  1  0  0  0  0
  4  6  2  0  0  0  0
  6  5  1  0  0  0  0
  7 11  1  0  0  0  0
  8 10  1  0  0  0  0
  8  7  2  0  0  0  0
  9  8  1  0  0  0  0
 10 13  1  0  0  0  0
 11 12  1  0  0  0  0
 13 12  2  0  0  0  0
 14  7  1  0  0  0  0
 15  9  2  0  0  0  0
 15 16  1  0  0  0  0
 16  1  1  0  0  0  0
 16 10  2  0  0  0  0
 17 21  1  0  0  0  0
 18  3  1  0  0  0  0
 19 17  1  0  0  0  0
 19 22  1  0  0  0  0
 20 21  1  0  0  0  0
 21 18  2  0  0  0  0
 22 20  1  0  0  0  0
 23 25  1  0  0  0  0
 23 22  1  0  0  0  0
 24 23  1  0  0  0  0
 26 30  1  0  0  0  0
 26  2  1  0  0  0  0
 27 26  1  0  0  0  0
 28 29  1  0  0  0  0
 28 27  1  0  0  0  0
 29 31  1  0  0  0  0
 31 30  1  0  0  0  0
M  END
>  <MODEL>
8

>  <REMARK>
 VINA RESULT:      -6.2      3.864      7.430
  Name = 
  4 active torsions:
  status: ('A' for Active; 'I' for Inactive)
    1  A    between atoms: N_1  and  C_28
    2  A    between atoms: C_3  and  N_8
    3  A    between atoms: C_5  and  N_30
    4  A    between atoms: N_6  and  C_23
                            x       y       z     vdW  Elec       q    Type
                         _______ _______ _______ _____ _____    ______ ____

>  <TORSDO>
F 4

$$$$
=
 OpenBabel11032419313D

 31 35  0  0  0  0  0  0  0  0999 V2000
  185.6200  178.2890  139.5260 N   0  0  0  0  0  0  0  0  0  0  0  0
  186.1310  178.4280  140.7710 C   0  0  0  0  0  0  0  0  0  0  0  0
  187.5120  178.4440  140.7120 C   0  0  0  0  0  0  0  0  0  0  0  0
  186.6600  178.2530  138.6610 C   0  0  0  0  0  3  0  0  0  0  0  0
  189.1820  178.5470  138.7490 C   0  0  0  0  0  1  0  0  0  0  0  0
  187.8430  178.3490  139.3670 C   0  0  0  0  0  0  0  0  0  0  0  0
  180.8780  177.6540  139.2280 C   0  0  0  0  0  0  0  0  0  0  0  0
  182.0820  178.3260  139.0620 C   0  0  0  0  0  0  0  0  0  0  0  0
  182.2990  179.6550  139.0360 N   0  0  0  0  0  0  0  0  0  0  0  0
  183.2480  177.6300  139.1280 C   0  0  0  0  0  0  0  0  0  0  0  0
  180.9120  176.2990  139.4010 N   0  0  0  0  0  2  0  0  0  0  0  0
  182.1040  175.6240  139.4790 C   0  0  0  0  0  3  0  0  0  0  0  0
  183.2860  176.2960  139.3680 N   0  0  0  0  0  0  0  0  0  0  0  0
  179.6340  178.3480  139.2380 N   0  0  0  0  0  1  0  0  0  0  0  0
  183.6520  179.7970  139.0930 C   0  0  0  0  0  3  0  0  0  0  0  0
  184.2690  178.5480  139.1160 C   0  0  0  0  0  0  0  0  0  0  0  0
  189.0950  176.5730  142.4620 C   0  0  0  0  0  2  0  0  0  0  0  0
  188.3810  178.8310  141.7860 N   0  0  0  0  0  0  0  0  0  0  0  0
  190.0670  176.1810  143.5620 C   0  0  0  0  0  2  0  0  0  0  0  0
  190.0540  178.5400  143.5210 C   0  0  0  0  0  2  0  0  0  0  0  0
  189.1270  178.0390  142.4980 C   0  0  0  0  0  0  0  0  0  0  0  0
  190.7960  177.3780  144.0250 N   0  0  0  0  0  0  0  0  0  0  0  0
  190.7720  177.3950  145.4950 C   0  0  0  0  0  3  0  0  0  0  0  0
  191.6800  176.3160  146.0770 C   0  0  0  0  0  1  0  0  0  0  0  0
  189.3670  177.1280  146.0130 C   0  0  0  0  0  1  0  0  0  0  0  0
  185.3340  178.4930  141.9650 N   0  0  0  0  0  0  0  0  0  0  0  0
  185.3690  177.3870  142.9170 C   0  0  0  0  0  2  0  0  0  0  0  0
  186.0060  177.8820  144.2210 C   0  0  0  0  0  2  0  0  0  0  0  0
  185.2830  179.0610  144.7160 N   0  0  0  0  0  2  0  0  0  0  0  0
  184.7530  179.7530  142.4220 C   0  0  0  0  0  2  0  0  0  0  0  0
  185.4080  180.1500  143.7470 C   0  0  0  0  0  2  0  0  0  0  0  0
  1  2  1  0  0  0  0
  2 26  1  0  0  0  0
  3  2  2  0  0  0  0
  3 18  1  0  0  0  0
  4  6  2  0  0  0  0
  4  1  1  0  0  0  0
  5  6  1  0  0  0  0
  6  3  1  0  0  0  0
  7 14  1  0  0  0  0
  7 11  1  0  0  0  0
  8 10  1  0  0  0  0
  8  7  2  0  0  0  0
  9  8  1  0  0  0  0
  9 15  2  0  0  0  0
 10 13  1  0  0  0  0
 11 12  1  0  0  0  0
 13 12  2  0  0  0  0
 15 16  1  0  0  0  0
 16 10  2  0  0  0  0
 16  1  1  0  0  0  0
 17 21  1  0  0  0  0
 17 19  1  0  0  0  0
 18 21  2  0  0  0  0
 19 22  1  0  0  0  0
 20 22  1  0  0  0  0
 21 20  1  0  0  0  0
 22 23  1  0  0  0  0
 23 25  1  0  0  0  0
 23 24  1  0  0  0  0
 26 30  1  0  0  0  0
 26 27  1  0  0  0  0
 27 28  1  0  0  0  0
 28 29  1  0  0  0  0
 30 31  1  0  0  0  0
 31 29  1  0  0  0  0
M  END
>  <MODEL>
9

>  <REMARK>
 VINA RESULT:      -6.1      3.524      8.326
  Name = 
  4 active torsions:
  status: ('A' for Active; 'I' for Inactive)
    1  A    between atoms: N_1  and  C_28
    2  A    between atoms: C_3  and  N_8
    3  A    between atoms: C_5  and  N_30
    4  A    between atoms: N_6  and  C_23
                            x       y       z     vdW  Elec       q    Type
                         _______ _______ _______ _____ _____    ______ ____

>  <TORSDO>
F 4

$$$$
