=
 OpenBabel11042412133D

 37 42  0  0  1  0  0  0  0  0999 V2000
  182.3390  179.0500  144.0810 C   0  0  0  0  0  3  0  0  0  0  0  0
  187.0920  177.2830  143.0600 C   0  0  0  0  0  3  0  0  0  0  0  0
  186.4330  178.4580  146.4950 C   0  0  0  0  0  3  0  0  0  0  0  0
  182.9610  178.7780  142.8770 C   0  0  0  0  0  0  0  0  0  0  0  0
  184.3340  178.5180  142.7890 C   0  0  0  0  0  0  0  0  0  0  0  0
  183.0850  179.0560  145.2110 N   0  0  0  0  0  0  0  0  0  0  0  0
  185.2220  178.5930  138.7320 N   0  0  0  0  0  0  0  0  0  0  0  0
  189.0770  176.9530  144.3780 C   0  0  0  0  0  3  0  0  0  0  0  0
  185.9990  178.4660  140.9580 N   0  0  0  0  0  0  0  0  0  0  0  0
  185.0960  178.8120  146.4210 C   0  0  0  0  0  3  0  0  0  0  0  0
  186.4400  177.9260  144.1180 C   0  0  0  0  0  0  0  0  0  0  0  0
  188.3930  176.8080  143.1770 C   0  0  0  0  0  3  0  0  0  0  0  0
  184.7280  178.4860  141.4230 C   0  0  0  0  0  0  0  0  0  0  0  0
  184.4170  178.7650  145.2080 C   0  0  0  0  0  0  0  0  0  0  0  0
  182.2380  178.8570  141.3640 S   0  0  0  0  0  0  0  0  0  0  0  0
  183.9240  178.6560  139.1380 C   0  0  0  0  0  0  0  0  0  0  0  0
  183.6730  178.6180  140.5210 C   0  0  0  0  0  0  0  0  0  0  0  0
  188.4670  177.5510  145.4820 C   0  0  0  0  0  0  0  0  0  0  0  0
  187.1240  178.0030  145.3720 C   0  0  0  0  0  0  0  0  0  0  0  0
  186.2500  178.5020  139.6210 C   0  0  0  0  0  0  0  0  0  0  0  0
  185.0970  178.4060  144.0020 C   0  0  0  0  0  0  0  0  0  0  0  0
  182.1650  177.6890  137.6420 C   0  0  0  0  0  1  0  0  0  0  0  0
  182.9300  178.7700  138.1530 O   0  0  0  0  0  0  0  0  0  0  0  0
  189.2430  177.6350  146.6880 N   0  0  0  0  0  2  0  0  0  0  0  0
  190.0790  176.6120  147.1570 N   0  0  0  0  0  2  0  0  0  0  0  0
  191.9330  177.4000  145.9760 O   0  0  0  0  0  0  0  0  0  0  0  0
  191.4490  176.5440  146.7650 C   0  0  0  0  0  0  0  0  0  0  0  0
  193.0460  175.8870  148.4360 N   0  0  0  0  0  1  0  0  0  0  0  0
  192.3060  175.4390  147.2700 C   0  0  0  0  0  2  0  0  0  0  0  0
  187.6530  178.4660  139.1300 C   0  0  0  0  0  2  0  0  0  0  0  0
  187.8480  177.3270  138.3480 O   0  0  0  0  0  0  0  0  0  0  0  0
  188.9910  176.7250  138.8750 C   0  0  2  0  0  3  0  0  0  0  0  0
  189.9160  177.7940  139.4530 C   0  0  0  0  0  2  0  0  0  0  0  0
  191.8450  176.3720  138.7580 C   0  0  0  0  0  2  0  0  0  0  0  0
  190.9240  175.3260  138.3170 N   0  0  0  0  0  2  0  0  0  0  0  0
  189.7250  175.9610  137.7710 C   0  0  0  0  0  2  0  0  0  0  0  0
  191.2290  177.1630  139.9110 C   0  0  0  0  0  2  0  0  0  0  0  0
  1  6  1  0  0  0  0
  2 12  2  0  0  0  0
  2 11  1  0  0  0  0
  4  1  2  0  0  0  0
  5  4  1  0  0  0  0
  5 21  2  0  0  0  0
  7 16  2  0  0  0  0
  7 20  1  0  0  0  0
  8 18  2  0  0  0  0
  9 13  1  0  0  0  0
 10  3  2  0  0  0  0
 11 19  2  0  0  0  0
 12  8  1  0  0  0  0
 13  5  1  0  0  0  0
 14  6  2  0  0  0  0
 14 10  1  0  0  0  0
 15  4  1  0  0  0  0
 16 17  1  0  0  0  0
 17 15  1  0  0  0  0
 17 13  2  0  0  0  0
 18 24  1  0  0  0  0
 19 18  1  0  0  0  0
 19  3  1  0  0  0  0
 20  9  2  0  0  0  0
 21 11  1  0  0  0  0
 21 14  1  0  0  0  0
 22 23  1  0  0  0  0
 23 16  1  0  0  0  0
 24 25  1  0  0  0  0
 26 27  2  0  0  0  0
 27 25  1  0  0  0  0
 27 29  1  0  0  0  0
 29 28  1  0  0  0  0
 30 20  1  0  0  0  0
 31 30  1  0  0  0  0
 32 31  1  6  0  0  0
 32 33  1  0  0  0  0
 33 37  1  0  0  0  0
 34 37  1  0  0  0  0
 35 34  1  0  0  0  0
 36 35  1  0  0  0  0
 36 32  1  0  0  0  0
M  END
>  <MODEL>
1

>  <REMARK>
 VINA RESULT:     -10.5      0.000      0.000
  Name = 
  7 active torsions:
  status: ('A' for Active; 'I' for Inactive)
    1  A    between atoms: N_1  and  N_9
    2  A    between atoms: N_1  and  C_30
    3  A    between atoms: C_7  and  O_31
    4  A    between atoms: C_15  and  O_31
    5  A    between atoms: C_15  and  C_34
    6  A    between atoms: O_20  and  C_26
    7  A    between atoms: C_22  and  C_35
                            x       y       z     vdW  Elec       q    Type
                         _______ _______ _______ _____ _____    ______ ____

>  <TORSDO>
F 7

$$$$
=
 OpenBabel11042412133D

 37 42  0  0  1  0  0  0  0  0999 V2000
  186.0480  178.4400  147.5290 C   0  0  0  0  0  3  0  0  0  0  0  0
  186.5460  178.7200  142.3880 C   0  0  0  0  0  3  0  0  0  0  0  0
  183.1160  178.6900  143.7500 C   0  0  0  0  0  3  0  0  0  0  0  0
  187.1450  178.2290  146.7160 C   0  0  0  0  0  0  0  0  0  0  0  0
  187.0350  178.1310  145.3250 C   0  0  0  0  0  0  0  0  0  0  0  0
  184.8280  178.5640  146.9540 N   0  0  0  0  0  0  0  0  0  0  0  0
  190.7330  176.7730  144.0070 N   0  0  0  0  0  0  0  0  0  0  0  0
  184.9930  178.9210  140.5620 C   0  0  0  0  0  3  0  0  0  0  0  0
  188.4890  177.3050  143.4990 N   0  0  0  0  0  0  0  0  0  0  0  0
  183.3550  178.6490  145.1140 C   0  0  0  0  0  3  0  0  0  0  0  0
  185.5080  178.5520  143.3130 C   0  0  0  0  0  0  0  0  0  0  0  0
  186.3000  178.8950  141.0310 C   0  0  0  0  0  3  0  0  0  0  0  0
  188.2750  177.7060  144.7750 C   0  0  0  0  0  0  0  0  0  0  0  0
  184.6500  178.5260  145.6030 C   0  0  0  0  0  0  0  0  0  0  0  0
  188.7080  177.9190  147.2460 S   0  0  0  0  0  0  0  0  0  0  0  0
  190.5710  177.1230  145.3120 C   0  0  0  0  0  0  0  0  0  0  0  0
  189.3030  177.5860  145.7090 C   0  0  0  0  0  0  0  0  0  0  0  0
  183.9150  178.7970  141.4400 C   0  0  0  0  0  0  0  0  0  0  0  0
  184.1660  178.6560  142.8320 C   0  0  0  0  0  0  0  0  0  0  0  0
  189.7130  176.8580  143.1070 C   0  0  0  0  0  0  0  0  0  0  0  0
  185.7590  178.3830  144.7120 C   0  0  0  0  0  0  0  0  0  0  0  0
  192.0650  175.7720  146.8000 C   0  0  0  0  0  1  0  0  0  0  0  0
  191.6700  176.9840  146.1740 O   0  0  0  0  0  0  0  0  0  0  0  0
  182.5990  178.8610  140.8670 N   0  0  0  0  0  2  0  0  0  0  0  0
  181.9010  177.7490  140.3750 N   0  0  0  0  0  2  0  0  0  0  0  0
  180.0440  178.1420  141.7340 O   0  0  0  0  0  0  0  0  0  0  0  0
  180.5940  177.4320  140.8500 C   0  0  0  0  0  0  0  0  0  0  0  0
  179.1160  175.6120  141.3770 N   0  0  0  0  0  1  0  0  0  0  0  0
  179.8860  176.2380  140.3170 C   0  0  0  0  0  2  0  0  0  0  0  0
  189.9310  176.4350  141.6990 C   0  0  0  0  0  2  0  0  0  0  0  0
  191.1180  176.9910  141.2200 O   0  0  0  0  0  0  0  0  0  0  0  0
  190.8130  177.4250  139.9300 C   0  0  2  0  0  3  0  0  0  0  0  0
  189.3490  177.8540  139.8630 C   0  0  0  0  0  2  0  0  0  0  0  0
  189.3080  177.0290  137.5080 C   0  0  0  0  0  2  0  0  0  0  0  0
  190.7390  176.7350  137.5790 N   0  0  0  0  0  2  0  0  0  0  0  0
  191.0550  176.2870  138.9350 C   0  0  0  0  0  2  0  0  0  0  0  0
  188.9670  178.2020  138.4260 C   0  0  0  0  0  2  0  0  0  0  0  0
  2 11  1  0  0  0  0
  3 10  2  0  0  0  0
  4 15  1  0  0  0  0
  4  1  2  0  0  0  0
  5  4  1  0  0  0  0
  6  1  1  0  0  0  0
  7 16  2  0  0  0  0
  8 12  1  0  0  0  0
  8 18  2  0  0  0  0
  9 13  1  0  0  0  0
 10 14  1  0  0  0  0
 11 21  1  0  0  0  0
 12  2  2  0  0  0  0
 13  5  1  0  0  0  0
 13 17  2  0  0  0  0
 14  6  2  0  0  0  0
 16 17  1  0  0  0  0
 16 23  1  0  0  0  0
 17 15  1  0  0  0  0
 18 19  1  0  0  0  0
 19 11  2  0  0  0  0
 19  3  1  0  0  0  0
 20  9  2  0  0  0  0
 20  7  1  0  0  0  0
 21  5  2  0  0  0  0
 21 14  1  0  0  0  0
 23 22  1  0  0  0  0
 24 18  1  0  0  0  0
 25 27  1  0  0  0  0
 25 24  1  0  0  0  0
 27 26  2  0  0  0  0
 29 27  1  0  0  0  0
 29 28  1  0  0  0  0
 30 20  1  0  0  0  0
 31 30  1  0  0  0  0
 32 31  1  1  0  0  0
 33 32  1  0  0  0  0
 34 35  1  0  0  0  0
 34 37  1  0  0  0  0
 35 36  1  0  0  0  0
 36 32  1  0  0  0  0
 37 33  1  0  0  0  0
M  END
>  <MODEL>
2

>  <REMARK>
 VINA RESULT:     -10.3      2.704      7.177
  Name = 
  7 active torsions:
  status: ('A' for Active; 'I' for Inactive)
    1  A    between atoms: N_1  and  N_9
    2  A    between atoms: N_1  and  C_30
    3  A    between atoms: C_7  and  O_31
    4  A    between atoms: C_15  and  O_31
    5  A    between atoms: C_15  and  C_34
    6  A    between atoms: O_20  and  C_26
    7  A    between atoms: C_22  and  C_35
                            x       y       z     vdW  Elec       q    Type
                         _______ _______ _______ _____ _____    ______ ____

>  <TORSDO>
F 7

$$$$
=
 OpenBabel11042412133D

 37 42  0  0  1  0  0  0  0  0999 V2000
  190.0400  177.4070  145.3570 C   0  0  0  0  0  3  0  0  0  0  0  0
  186.4670  178.7290  141.8580 C   0  0  0  0  0  3  0  0  0  0  0  0
  185.2760  177.8920  145.2500 C   0  0  0  0  0  3  0  0  0  0  0  0
  190.1250  177.5330  143.9840 C   0  0  0  0  0  0  0  0  0  0  0  0
  188.9910  177.6830  143.1760 C   0  0  0  0  0  0  0  0  0  0  0  0
  188.8160  177.4400  145.9370 N   0  0  0  0  0  0  0  0  0  0  0  0
  190.3330  177.2090  139.2730 N   0  0  0  0  0  0  0  0  0  0  0  0
  184.0790  179.0190  141.9270 C   0  0  0  0  0  3  0  0  0  0  0  0
  188.5130  177.4610  140.7570 N   0  0  0  0  0  0  0  0  0  0  0  0
  186.4660  177.6330  145.9100 C   0  0  0  0  0  3  0  0  0  0  0  0
  186.4890  178.2250  143.1640 C   0  0  0  0  0  0  0  0  0  0  0  0
  185.2830  179.1160  141.2400 C   0  0  0  0  0  3  0  0  0  0  0  0
  189.3600  177.5740  141.8080 C   0  0  0  0  0  0  0  0  0  0  0  0
  187.6730  177.6300  145.2210 C   0  0  0  0  0  0  0  0  0  0  0  0
  191.5290  177.3830  143.0740 S   0  0  0  0  0  0  0  0  0  0  0  0
  191.2340  177.2760  140.2910 C   0  0  0  0  0  0  0  0  0  0  0  0
  190.7330  177.4460  141.5940 C   0  0  0  0  0  0  0  0  0  0  0  0
  184.0420  178.5610  143.2450 C   0  0  0  0  0  0  0  0  0  0  0  0
  185.2570  178.2020  143.8890 C   0  0  0  0  0  0  0  0  0  0  0  0
  188.9910  177.2980  139.4930 C   0  0  0  0  0  0  0  0  0  0  0  0
  187.7090  177.8370  143.8060 C   0  0  0  0  0  0  0  0  0  0  0  0
  193.1050  176.7130  138.7250 C   0  0  0  0  0  1  0  0  0  0  0  0
  192.5960  177.1550  139.9750 O   0  0  0  0  0  0  0  0  0  0  0  0
  182.7560  178.5190  143.8840 N   0  0  0  0  0  2  0  0  0  0  0  0
  181.6760  179.3390  143.5290 N   0  0  0  0  0  2  0  0  0  0  0  0
  180.0880  177.7220  144.0890 O   0  0  0  0  0  0  0  0  0  0  0  0
  180.3310  178.8830  143.6600 C   0  0  0  0  0  0  0  0  0  0  0  0
  179.7000  180.8130  142.3760 N   0  0  0  0  0  1  0  0  0  0  0  0
  179.2090  179.7720  143.2620 C   0  0  0  0  0  2  0  0  0  0  0  0
  188.0450  177.1890  138.3530 C   0  0  0  0  0  2  0  0  0  0  0  0
  187.3730  178.4000  138.1830 O   0  0  0  0  0  0  0  0  0  0  0  0
  186.4350  178.1500  137.1820 C   0  0  2  0  0  3  0  0  0  0  0  0
  185.1420  177.6300  137.8060 C   0  0  0  0  0  2  0  0  0  0  0  0
  184.8230  176.2330  135.7630 C   0  0  0  0  0  2  0  0  0  0  0  0
  186.0080  176.8380  135.1560 N   0  0  0  0  0  2  0  0  0  0  0  0
  186.9860  177.1050  136.2100 C   0  0  0  0  0  2  0  0  0  0  0  0
  184.1550  177.2250  136.7140 C   0  0  0  0  0  2  0  0  0  0  0  0
  1  6  1  0  0  0  0
  2 11  1  0  0  0  0
  3 10  2  0  0  0  0
  4  1  2  0  0  0  0
  5 21  2  0  0  0  0
  5  4  1  0  0  0  0
  7 20  1  0  0  0  0
  7 16  2  0  0  0  0
  8 18  2  0  0  0  0
  9 13  1  0  0  0  0
 11 21  1  0  0  0  0
 11 19  2  0  0  0  0
 12  2  2  0  0  0  0
 12  8  1  0  0  0  0
 13  5  1  0  0  0  0
 14 10  1  0  0  0  0
 14  6  2  0  0  0  0
 15  4  1  0  0  0  0
 16 17  1  0  0  0  0
 17 13  2  0  0  0  0
 17 15  1  0  0  0  0
 18 24  1  0  0  0  0
 18 19  1  0  0  0  0
 19  3  1  0  0  0  0
 20  9  2  0  0  0  0
 21 14  1  0  0  0  0
 22 23  1  0  0  0  0
 23 16  1  0  0  0  0
 25 27  1  0  0  0  0
 25 24  1  0  0  0  0
 27 26  2  0  0  0  0
 28 29  1  0  0  0  0
 29 27  1  0  0  0  0
 30 20  1  0  0  0  0
 31 30  1  0  0  0  0
 32 33  1  0  0  0  0
 32 31  1  1  0  0  0
 34 37  1  0  0  0  0
 35 34  1  0  0  0  0
 35 36  1  0  0  0  0
 36 32  1  0  0  0  0
 37 33  1  0  0  0  0
M  END
>  <MODEL>
3

>  <REMARK>
 VINA RESULT:      -9.7      2.851      7.087
  Name = 
  7 active torsions:
  status: ('A' for Active; 'I' for Inactive)
    1  A    between atoms: N_1  and  N_9
    2  A    between atoms: N_1  and  C_30
    3  A    between atoms: C_7  and  O_31
    4  A    between atoms: C_15  and  O_31
    5  A    between atoms: C_15  and  C_34
    6  A    between atoms: O_20  and  C_26
    7  A    between atoms: C_22  and  C_35
                            x       y       z     vdW  Elec       q    Type
                         _______ _______ _______ _____ _____    ______ ____

>  <TORSDO>
F 7

$$$$
=
 OpenBabel11042412133D

 37 42  0  0  1  0  0  0  0  0999 V2000
  184.6890  178.6040  145.9640 C   0  0  0  0  0  3  0  0  0  0  0  0
  188.6460  176.7160  143.2210 C   0  0  0  0  0  3  0  0  0  0  0  0
  189.2250  177.3260  146.8140 C   0  0  0  0  0  3  0  0  0  0  0  0
  184.8720  178.5010  144.5980 C   0  0  0  0  0  0  0  0  0  0  0  0
  186.1080  178.1660  144.0350 C   0  0  0  0  0  0  0  0  0  0  0  0
  185.7420  178.3640  146.7810 N   0  0  0  0  0  0  0  0  0  0  0  0
  185.7040  178.8750  139.9610 N   0  0  0  0  0  0  0  0  0  0  0  0
  190.8870  176.0290  143.7650 C   0  0  0  0  0  3  0  0  0  0  0  0
  187.1090  178.3150  141.7750 N   0  0  0  0  0  0  0  0  0  0  0  0
  187.9830  177.7790  147.2270 C   0  0  0  0  0  3  0  0  0  0  0  0
  188.4350  177.2110  144.5130 C   0  0  0  0  0  0  0  0  0  0  0  0
  189.8530  176.1390  142.8430 C   0  0  0  0  0  3  0  0  0  0  0  0
  186.0550  178.3420  142.6250 C   0  0  0  0  0  0  0  0  0  0  0  0
  186.9630  177.9880  146.3060 C   0  0  0  0  0  0  0  0  0  0  0  0
  183.7320  178.8880  143.4280 S   0  0  0  0  0  0  0  0  0  0  0  0
  184.6120  178.9570  140.7700 C   0  0  0  0  0  0  0  0  0  0  0  0
  184.7970  178.6990  142.1410 C   0  0  0  0  0  0  0  0  0  0  0  0
  190.7230  176.4690  145.0790 C   0  0  0  0  0  0  0  0  0  0  0  0
  189.4760  177.0240  145.4750 C   0  0  0  0  0  0  0  0  0  0  0  0
  186.9370  178.5620  140.4480 C   0  0  0  0  0  0  0  0  0  0  0  0
  187.1890  177.7960  144.9060 C   0  0  0  0  0  0  0  0  0  0  0  0
  183.1430  179.3960  138.7910 C   0  0  0  0  0  1  0  0  0  0  0  0
  183.3840  179.3060  140.1870 O   0  0  0  0  0  0  0  0  0  0  0  0
  191.8370  176.2900  145.9680 N   0  0  0  0  0  2  0  0  0  0  0  0
  191.9850  176.9640  147.1890 N   0  0  0  0  0  2  0  0  0  0  0  0
  193.1610  175.2040  148.1740 O   0  0  0  0  0  0  0  0  0  0  0  0
  192.6770  176.3630  148.2820 C   0  0  0  0  0  0  0  0  0  0  0  0
  194.2070  177.2480  149.9090 N   0  0  0  0  0  1  0  0  0  0  0  0
  192.8040  177.0990  149.5680 C   0  0  0  0  0  2  0  0  0  0  0  0
  188.1050  178.5150  139.5290 C   0  0  0  0  0  2  0  0  0  0  0  0
  187.9220  177.5000  138.5890 O   0  0  0  0  0  0  0  0  0  0  0  0
  188.9900  176.6270  138.7950 C   0  0  2  0  0  3  0  0  0  0  0  0
  190.2730  177.4260  139.0160 C   0  0  0  0  0  2  0  0  0  0  0  0
  191.5100  175.5840  137.8740 C   0  0  0  0  0  2  0  0  0  0  0  0
  190.2770  174.8040  137.7810 N   0  0  0  0  0  2  0  0  0  0  0  0
  189.1590  175.7240  137.5720 C   0  0  0  0  0  2  0  0  0  0  0  0
  191.4710  176.4840  139.1080 C   0  0  0  0  0  2  0  0  0  0  0  0
  1  6  1  0  0  0  0
  2 11  1  0  0  0  0
  3 10  2  0  0  0  0
  4  1  2  0  0  0  0
  5  4  1  0  0  0  0
  5 21  2  0  0  0  0
  7 20  1  0  0  0  0
  7 16  2  0  0  0  0
  8 18  2  0  0  0  0
  9 13  1  0  0  0  0
 11 21  1  0  0  0  0
 11 19  2  0  0  0  0
 12  2  2  0  0  0  0
 12  8  1  0  0  0  0
 13  5  1  0  0  0  0
 14  6  2  0  0  0  0
 14 10  1  0  0  0  0
 15  4  1  0  0  0  0
 16 17  1  0  0  0  0
 17 13  2  0  0  0  0
 17 15  1  0  0  0  0
 18 19  1  0  0  0  0
 18 24  1  0  0  0  0
 19  3  1  0  0  0  0
 20  9  2  0  0  0  0
 21 14  1  0  0  0  0
 22 23  1  0  0  0  0
 23 16  1  0  0  0  0
 24 25  1  0  0  0  0
 25 27  1  0  0  0  0
 26 27  2  0  0  0  0
 27 29  1  0  0  0  0
 29 28  1  0  0  0  0
 30 20  1  0  0  0  0
 31 30  1  0  0  0  0
 32 31  1  6  0  0  0
 32 33  1  0  0  0  0
 33 37  1  0  0  0  0
 34 37  1  0  0  0  0
 35 34  1  0  0  0  0
 36 35  1  0  0  0  0
 36 32  1  0  0  0  0
M  END
>  <MODEL>
4

>  <REMARK>
 VINA RESULT:      -9.7      1.556      2.140
  Name = 
  7 active torsions:
  status: ('A' for Active; 'I' for Inactive)
    1  A    between atoms: N_1  and  N_9
    2  A    between atoms: N_1  and  C_30
    3  A    between atoms: C_7  and  O_31
    4  A    between atoms: C_15  and  O_31
    5  A    between atoms: C_15  and  C_34
    6  A    between atoms: O_20  and  C_26
    7  A    between atoms: C_22  and  C_35
                            x       y       z     vdW  Elec       q    Type
                         _______ _______ _______ _____ _____    ______ ____

>  <TORSDO>
F 7

$$$$
=
 OpenBabel11042412133D

 37 42  0  0  1  0  0  0  0  0999 V2000
  184.5630  178.6290  146.5990 C   0  0  0  0  0  3  0  0  0  0  0  0
  187.9030  176.9630  143.0180 C   0  0  0  0  0  3  0  0  0  0  0  0
  189.2560  177.6990  146.3720 C   0  0  0  0  0  3  0  0  0  0  0  0
  184.4300  178.5060  145.2290 C   0  0  0  0  0  0  0  0  0  0  0  0
  185.5230  178.2470  144.3940 C   0  0  0  0  0  0  0  0  0  0  0  0
  185.7930  178.4850  147.1480 N   0  0  0  0  0  0  0  0  0  0  0  0
  184.1290  178.8270  140.5240 N   0  0  0  0  0  0  0  0  0  0  0  0
  190.2540  176.4510  143.0280 C   0  0  0  0  0  3  0  0  0  0  0  0
  185.9560  178.4130  141.9620 N   0  0  0  0  0  0  0  0  0  0  0  0
  188.1140  178.0720  147.0610 C   0  0  0  0  0  3  0  0  0  0  0  0
  187.9620  177.4730  144.3200 C   0  0  0  0  0  0  0  0  0  0  0  0
  189.0290  176.4650  142.3720 C   0  0  0  0  0  3  0  0  0  0  0  0
  185.1300  178.3840  143.0350 C   0  0  0  0  0  0  0  0  0  0  0  0
  186.8950  178.1850  146.4030 C   0  0  0  0  0  0  0  0  0  0  0  0
  183.0230  178.7830  144.3550 S   0  0  0  0  0  0  0  0  0  0  0  0
  183.2530  178.8500  141.5650 C   0  0  0  0  0  0  0  0  0  0  0  0
  183.7700  178.6390  142.8560 C   0  0  0  0  0  0  0  0  0  0  0  0
  190.3680  176.9100  144.3410 C   0  0  0  0  0  0  0  0  0  0  0  0
  189.2100  177.3840  145.0140 C   0  0  0  0  0  0  0  0  0  0  0  0
  185.4620  178.6140  140.7100 C   0  0  0  0  0  0  0  0  0  0  0  0
  186.8020  177.9760  144.9910 C   0  0  0  0  0  0  0  0  0  0  0  0
  180.9120  178.0940  141.0990 C   0  0  0  0  0  1  0  0  0  0  0  0
  181.9000  179.0970  141.2840 O   0  0  0  0  0  0  0  0  0  0  0  0
  191.6690  176.8330  144.9460 N   0  0  0  0  0  2  0  0  0  0  0  0
  191.8920  176.7980  146.3290 N   0  0  0  0  0  2  0  0  0  0  0  0
  192.7060  174.6100  146.2810 O   0  0  0  0  0  0  0  0  0  0  0  0
  192.4300  175.6370  146.9590 C   0  0  0  0  0  0  0  0  0  0  0  0
  192.8050  176.9890  148.9090 N   0  0  0  0  0  1  0  0  0  0  0  0
  192.6420  175.6280  148.4300 C   0  0  0  0  0  2  0  0  0  0  0  0
  186.3830  178.6290  139.5440 C   0  0  0  0  0  2  0  0  0  0  0  0
  187.6950  178.4410  139.9800 O   0  0  0  0  0  0  0  0  0  0  0  0
  188.2630  177.5780  139.0430 C   0  0  2  0  0  3  0  0  0  0  0  0
  189.7280  177.9500  138.8210 C   0  0  0  0  0  2  0  0  0  0  0  0
  189.4580  177.2290  136.4470 C   0  0  0  0  0  2  0  0  0  0  0  0
  188.0940  176.7850  136.7300 N   0  0  0  0  0  2  0  0  0  0  0  0
  187.5050  177.6880  137.7180 C   0  0  0  0  0  2  0  0  0  0  0  0
  190.3230  177.1010  137.7000 C   0  0  0  0  0  2  0  0  0  0  0  0
  1  6  1  0  0  0  0
  2 11  1  0  0  0  0
  3 10  2  0  0  0  0
  4  1  2  0  0  0  0
  5 21  2  0  0  0  0
  5  4  1  0  0  0  0
  7 20  1  0  0  0  0
  7 16  2  0  0  0  0
  8 18  2  0  0  0  0
  9 13  1  0  0  0  0
 11 21  1  0  0  0  0
 11 19  2  0  0  0  0
 12  2  2  0  0  0  0
 12  8  1  0  0  0  0
 13  5  1  0  0  0  0
 14 10  1  0  0  0  0
 14  6  2  0  0  0  0
 15  4  1  0  0  0  0
 16 17  1  0  0  0  0
 17 13  2  0  0  0  0
 17 15  1  0  0  0  0
 18 24  1  0  0  0  0
 18 19  1  0  0  0  0
 19  3  1  0  0  0  0
 20  9  2  0  0  0  0
 21 14  1  0  0  0  0
 22 23  1  0  0  0  0
 23 16  1  0  0  0  0
 24 25  1  0  0  0  0
 25 27  1  0  0  0  0
 26 27  2  0  0  0  0
 27 29  1  0  0  0  0
 29 28  1  0  0  0  0
 30 31  1  0  0  0  0
 30 20  1  0  0  0  0
 32 31  1  1  0  0  0
 33 32  1  0  0  0  0
 34 35  1  0  0  0  0
 34 37  1  0  0  0  0
 35 36  1  0  0  0  0
 36 32  1  0  0  0  0
 37 33  1  0  0  0  0
M  END
>  <MODEL>
5

>  <REMARK>
 VINA RESULT:      -9.7      1.807      2.394
  Name = 
  7 active torsions:
  status: ('A' for Active; 'I' for Inactive)
    1  A    between atoms: N_1  and  N_9
    2  A    between atoms: N_1  and  C_30
    3  A    between atoms: C_7  and  O_31
    4  A    between atoms: C_15  and  O_31
    5  A    between atoms: C_15  and  C_34
    6  A    between atoms: O_20  and  C_26
    7  A    between atoms: C_22  and  C_35
                            x       y       z     vdW  Elec       q    Type
                         _______ _______ _______ _____ _____    ______ ____

>  <TORSDO>
F 7

$$$$
=
 OpenBabel11042412133D

 37 42  0  0  1  0  0  0  0  0999 V2000
  185.5360  178.5240  147.1220 C   0  0  0  0  0  3  0  0  0  0  0  0
  186.3580  178.7140  142.0190 C   0  0  0  0  0  3  0  0  0  0  0  0
  182.8490  178.6460  143.1600 C   0  0  0  0  0  3  0  0  0  0  0  0
  186.6870  178.3180  146.3850 C   0  0  0  0  0  0  0  0  0  0  0  0
  186.6670  178.1910  144.9920 C   0  0  0  0  0  0  0  0  0  0  0  0
  184.3540  178.6130  146.4680 N   0  0  0  0  0  0  0  0  0  0  0  0
  190.4660  176.8770  143.9400 N   0  0  0  0  0  0  0  0  0  0  0  0
  184.9210  178.8510  140.0930 C   0  0  0  0  0  3  0  0  0  0  0  0
  188.2500  177.3580  143.2790 N   0  0  0  0  0  0  0  0  0  0  0  0
  183.0000  178.6350  144.5370 C   0  0  0  0  0  3  0  0  0  0  0  0
  185.2660  178.5440  142.8780 C   0  0  0  0  0  0  0  0  0  0  0  0
  186.1960  178.8580  140.6450 C   0  0  0  0  0  3  0  0  0  0  0  0
  187.9480  177.7790  144.5300 C   0  0  0  0  0  0  0  0  0  0  0  0
  184.2630  178.5470  145.1100 C   0  0  0  0  0  0  0  0  0  0  0  0
  188.2180  178.0470  147.0200 S   0  0  0  0  0  0  0  0  0  0  0  0
  190.2140  177.2490  145.2250 C   0  0  0  0  0  0  0  0  0  0  0  0
  188.9160  177.6960  145.5310 C   0  0  0  0  0  0  0  0  0  0  0  0
  183.7920  178.7240  140.9040 C   0  0  0  0  0  0  0  0  0  0  0  0
  183.9560  178.6140  142.3110 C   0  0  0  0  0  0  0  0  0  0  0  0
  189.5040  176.9250  142.9760 C   0  0  0  0  0  0  0  0  0  0  0  0
  185.4300  178.4070  144.2940 C   0  0  0  0  0  0  0  0  0  0  0  0
  191.9550  175.9500  146.4700 C   0  0  0  0  0  1  0  0  0  0  0  0
  191.2580  177.1470  146.1580 O   0  0  0  0  0  0  0  0  0  0  0  0
  182.5140  178.7520  140.2470 N   0  0  0  0  0  2  0  0  0  0  0  0
  181.9850  179.8800  139.6060 N   0  0  0  0  0  2  0  0  0  0  0  0
  182.0420  178.8790  137.4970 O   0  0  0  0  0  0  0  0  0  0  0  0
  181.7580  179.8880  138.1980 C   0  0  0  0  0  0  0  0  0  0  0  0
  181.6290  182.2860  138.2820 N   0  0  0  0  0  1  0  0  0  0  0  0
  181.2080  181.1070  137.5470 C   0  0  0  0  0  2  0  0  0  0  0  0
  189.8190  176.4800  141.5940 C   0  0  0  0  0  2  0  0  0  0  0  0
  189.6610  177.5470  140.7090 O   0  0  0  0  0  0  0  0  0  0  0  0
  189.4940  176.9520  139.4580 C   0  0  2  0  0  3  0  0  0  0  0  0
  190.7590  176.1810  139.0820 C   0  0  0  0  0  2  0  0  0  0  0  0
  190.3070  176.7800  136.7020 C   0  0  0  0  0  2  0  0  0  0  0  0
  189.0480  177.4130  137.0930 N   0  0  0  0  0  2  0  0  0  0  0  0
  189.2250  178.0300  138.4070 C   0  0  0  0  0  2  0  0  0  0  0  0
  190.6410  175.6380  137.6600 C   0  0  0  0  0  2  0  0  0  0  0  0
  2 11  1  0  0  0  0
  3 10  2  0  0  0  0
  4 15  1  0  0  0  0
  4  1  2  0  0  0  0
  5  4  1  0  0  0  0
  6  1  1  0  0  0  0
  7 16  2  0  0  0  0
  8 12  1  0  0  0  0
  8 18  2  0  0  0  0
  9 13  1  0  0  0  0
 10 14  1  0  0  0  0
 11 21  1  0  0  0  0
 12  2  2  0  0  0  0
 13  5  1  0  0  0  0
 13 17  2  0  0  0  0
 14  6  2  0  0  0  0
 16 17  1  0  0  0  0
 16 23  1  0  0  0  0
 17 15  1  0  0  0  0
 18 19  1  0  0  0  0
 19 11  2  0  0  0  0
 19  3  1  0  0  0  0
 20  9  2  0  0  0  0
 20  7  1  0  0  0  0
 21  5  2  0  0  0  0
 21 14  1  0  0  0  0
 23 22  1  0  0  0  0
 24 18  1  0  0  0  0
 25 24  1  0  0  0  0
 26 27  2  0  0  0  0
 27 25  1  0  0  0  0
 29 27  1  0  0  0  0
 29 28  1  0  0  0  0
 30 20  1  0  0  0  0
 31 30  1  0  0  0  0
 32 31  1  1  0  0  0
 33 32  1  0  0  0  0
 34 35  1  0  0  0  0
 34 37  1  0  0  0  0
 35 36  1  0  0  0  0
 36 32  1  0  0  0  0
 37 33  1  0  0  0  0
M  END
>  <MODEL>
6

>  <REMARK>
 VINA RESULT:      -9.6      2.366      7.348
  Name = 
  7 active torsions:
  status: ('A' for Active; 'I' for Inactive)
    1  A    between atoms: N_1  and  N_9
    2  A    between atoms: N_1  and  C_30
    3  A    between atoms: C_7  and  O_31
    4  A    between atoms: C_15  and  O_31
    5  A    between atoms: C_15  and  C_34
    6  A    between atoms: O_20  and  C_26
    7  A    between atoms: C_22  and  C_35
                            x       y       z     vdW  Elec       q    Type
                         _______ _______ _______ _____ _____    ______ ____

>  <TORSDO>
F 7

$$$$
=
 OpenBabel11042412133D

 37 42  0  0  1  0  0  0  0  0999 V2000
  186.8310  178.0640  137.4440 C   0  0  0  0  0  3  0  0  0  0  0  0
  187.1490  177.6370  142.5890 C   0  0  0  0  0  3  0  0  0  0  0  0
  184.1210  179.2380  141.2140 C   0  0  0  0  0  3  0  0  0  0  0  0
  187.9020  177.7510  138.2590 C   0  0  0  0  0  0  0  0  0  0  0  0
  187.8510  177.9030  139.6490 C   0  0  0  0  0  0  0  0  0  0  0  0
  185.6930  178.5250  138.0150 N   0  0  0  0  0  0  0  0  0  0  0  0
  191.7590  177.4070  140.9680 N   0  0  0  0  0  0  0  0  0  0  0  0
  185.6810  178.1970  144.4120 C   0  0  0  0  0  3  0  0  0  0  0  0
  189.5250  177.9800  141.4720 N   0  0  0  0  0  0  0  0  0  0  0  0
  184.3500  179.1510  139.8510 C   0  0  0  0  0  3  0  0  0  0  0  0
  186.3060  178.2580  141.6590 C   0  0  0  0  0  0  0  0  0  0  0  0
  186.8510  177.6100  143.9470 C   0  0  0  0  0  3  0  0  0  0  0  0
  189.1480  177.7110  140.2000 C   0  0  0  0  0  0  0  0  0  0  0  0
  185.5540  178.6550  139.3650 C   0  0  0  0  0  0  0  0  0  0  0  0
  189.4300  177.2960  137.7320 S   0  0  0  0  0  0  0  0  0  0  0  0
  191.4520  177.1590  139.6650 C   0  0  0  0  0  0  0  0  0  0  0  0
  190.1140  177.3320  139.2670 C   0  0  0  0  0  0  0  0  0  0  0  0
  184.7820  178.7970  143.5280 C   0  0  0  0  0  0  0  0  0  0  0  0
  185.0680  178.7920  142.1360 C   0  0  0  0  0  0  0  0  0  0  0  0
  190.8170  177.8140  141.8640 C   0  0  0  0  0  0  0  0  0  0  0  0
  186.6050  178.2770  140.2590 C   0  0  0  0  0  0  0  0  0  0  0  0
  192.4690  175.6070  137.9840 C   0  0  0  0  0  1  0  0  0  0  0  0
  192.4900  176.7650  138.8060 O   0  0  0  0  0  0  0  0  0  0  0  0
  183.5870  179.3560  144.0970 N   0  0  0  0  0  2  0  0  0  0  0  0
  182.4090  178.6290  144.3210 N   0  0  0  0  0  2  0  0  0  0  0  0
  181.1320  180.0090  142.9370 O   0  0  0  0  0  0  0  0  0  0  0  0
  181.1830  179.0050  143.6970 C   0  0  0  0  0  0  0  0  0  0  0  0
  179.0850  178.2510  142.8000 N   0  0  0  0  0  1  0  0  0  0  0  0
  179.9480  178.2210  143.9670 C   0  0  0  0  0  2  0  0  0  0  0  0
  191.2080  178.1020  143.2690 C   0  0  0  0  0  2  0  0  0  0  0  0
  191.6800  176.9360  143.8730 O   0  0  0  0  0  0  0  0  0  0  0  0
  190.8450  176.7410  144.9730 C   0  0  2  0  0  3  0  0  0  0  0  0
  190.0610  178.0210  145.2580 C   0  0  0  0  0  2  0  0  0  0  0  0
  190.1630  177.4370  147.6820 C   0  0  0  0  0  2  0  0  0  0  0  0
  190.8150  176.1680  147.3560 N   0  0  0  0  0  2  0  0  0  0  0  0
  191.6840  176.3760  146.1980 C   0  0  0  0  0  2  0  0  0  0  0  0
  189.2450  177.8650  146.5380 C   0  0  0  0  0  2  0  0  0  0  0  0
  1  6  2  0  0  0  0
  1  4  1  0  0  0  0
  2 12  1  0  0  0  0
  3 19  1  0  0  0  0
  4  5  2  0  0  0  0
  5 13  1  0  0  0  0
  5 21  1  0  0  0  0
  6 14  1  0  0  0  0
  7 20  1  0  0  0  0
  9 20  2  0  0  0  0
 10  3  2  0  0  0  0
 11 19  1  0  0  0  0
 11  2  2  0  0  0  0
 12  8  2  0  0  0  0
 13  9  1  0  0  0  0
 14 10  1  0  0  0  0
 14 21  2  0  0  0  0
 15  4  1  0  0  0  0
 15 17  1  0  0  0  0
 16  7  2  0  0  0  0
 17 16  1  0  0  0  0
 17 13  2  0  0  0  0
 18 24  1  0  0  0  0
 18  8  1  0  0  0  0
 19 18  2  0  0  0  0
 20 30  1  0  0  0  0
 21 11  1  0  0  0  0
 22 23  1  0  0  0  0
 23 16  1  0  0  0  0
 24 25  1  0  0  0  0
 26 27  2  0  0  0  0
 27 29  1  0  0  0  0
 27 25  1  0  0  0  0
 28 29  1  0  0  0  0
 30 31  1  0  0  0  0
 32 31  1  6  0  0  0
 32 33  1  0  0  0  0
 32 36  1  0  0  0  0
 33 37  1  0  0  0  0
 35 34  1  0  0  0  0
 36 35  1  0  0  0  0
 37 34  1  0  0  0  0
M  END
>  <MODEL>
7

>  <REMARK>
 VINA RESULT:      -9.4      2.449      7.492
  Name = 
  7 active torsions:
  status: ('A' for Active; 'I' for Inactive)
    1  A    between atoms: N_1  and  N_9
    2  A    between atoms: N_1  and  C_30
    3  A    between atoms: C_7  and  O_31
    4  A    between atoms: C_15  and  O_31
    5  A    between atoms: C_15  and  C_34
    6  A    between atoms: O_20  and  C_26
    7  A    between atoms: C_22  and  C_35
                            x       y       z     vdW  Elec       q    Type
                         _______ _______ _______ _____ _____    ______ ____

>  <TORSDO>
F 7

$$$$
=
 OpenBabel11042412133D

 37 42  0  0  1  0  0  0  0  0999 V2000
  188.5870  177.7120  146.4080 C   0  0  0  0  0  3  0  0  0  0  0  0
  188.6130  177.3420  141.2490 C   0  0  0  0  0  3  0  0  0  0  0  0
  191.8790  177.7030  142.9290 C   0  0  0  0  0  3  0  0  0  0  0  0
  187.5580  177.8130  145.4910 C   0  0  0  0  0  0  0  0  0  0  0  0
  187.7930  177.9080  144.1140 C   0  0  0  0  0  0  0  0  0  0  0  0
  189.8630  177.6980  145.9530 N   0  0  0  0  0  0  0  0  0  0  0  0
  184.1290  178.9050  142.4280 N   0  0  0  0  0  0  0  0  0  0  0  0
  190.3460  177.2710  139.5810 C   0  0  0  0  0  3  0  0  0  0  0  0
  186.4500  178.5790  142.1450 N   0  0  0  0  0  0  0  0  0  0  0  0
  191.5080  177.7340  144.2630 C   0  0  0  0  0  3  0  0  0  0  0  0
  189.5370  177.6140  142.2640 C   0  0  0  0  0  0  0  0  0  0  0  0
  189.0030  177.1790  139.9240 C   0  0  0  0  0  3  0  0  0  0  0  0
  186.5770  178.2110  143.4420 C   0  0  0  0  0  0  0  0  0  0  0  0
  190.1660  177.7400  144.6250 C   0  0  0  0  0  0  0  0  0  0  0  0
  185.9300  177.9800  145.8640 S   0  0  0  0  0  0  0  0  0  0  0  0
  184.1960  178.5830  143.7490 C   0  0  0  0  0  0  0  0  0  0  0  0
  185.4570  178.2430  144.2730 C   0  0  0  0  0  0  0  0  0  0  0  0
  191.3190  177.5020  140.5560 C   0  0  0  0  0  0  0  0  0  0  0  0
  190.9240  177.6310  141.9140 C   0  0  0  0  0  0  0  0  0  0  0  0
  185.2340  178.9070  141.6310 C   0  0  0  0  0  0  0  0  0  0  0  0
  189.1380  177.7720  143.6300 C   0  0  0  0  0  0  0  0  0  0  0  0
  181.7210  178.8920  143.9690 C   0  0  0  0  0  1  0  0  0  0  0  0
  183.0110  178.6260  144.5000 O   0  0  0  0  0  0  0  0  0  0  0  0
  192.6840  177.5560  140.1110 N   0  0  0  0  0  2  0  0  0  0  0  0
  193.4290  176.4340  139.7210 N   0  0  0  0  0  2  0  0  0  0  0  0
  192.9760  176.7520  137.4530 O   0  0  0  0  0  0  0  0  0  0  0  0
  193.5500  176.0730  138.3470 C   0  0  0  0  0  0  0  0  0  0  0  0
  195.5720  174.8330  138.7280 N   0  0  0  0  0  1  0  0  0  0  0  0
  194.3360  174.8690  137.9680 C   0  0  0  0  0  2  0  0  0  0  0  0
  185.1140  179.2950  140.2010 C   0  0  0  0  0  2  0  0  0  0  0  0
  186.0810  178.6270  139.4510 O   0  0  0  0  0  0  0  0  0  0  0  0
  185.5000  178.4510  138.1950 C   0  0  2  0  0  3  0  0  0  0  0  0
  184.2020  177.6590  138.3360 C   0  0  0  0  0  2  0  0  0  0  0  0
  184.6850  176.6440  136.1070 C   0  0  0  0  0  2  0  0  0  0  0  0
  185.8610  177.5020  135.9650 N   0  0  0  0  0  2  0  0  0  0  0  0
  186.4640  177.6890  137.2840 C   0  0  0  0  0  2  0  0  0  0  0  0
  183.6250  177.3430  136.9570 C   0  0  0  0  0  2  0  0  0  0  0  0
  2 11  1  0  0  0  0
  3 10  2  0  0  0  0
  4 15  1  0  0  0  0
  4  1  2  0  0  0  0
  5  4  1  0  0  0  0
  6  1  1  0  0  0  0
  7 16  2  0  0  0  0
  8 12  1  0  0  0  0
  8 18  2  0  0  0  0
  9 13  1  0  0  0  0
 10 14  1  0  0  0  0
 11 21  1  0  0  0  0
 12  2  2  0  0  0  0
 13  5  1  0  0  0  0
 13 17  2  0  0  0  0
 14  6  2  0  0  0  0
 16 17  1  0  0  0  0
 16 23  1  0  0  0  0
 17 15  1  0  0  0  0
 18 19  1  0  0  0  0
 19 11  2  0  0  0  0
 19  3  1  0  0  0  0
 20  9  2  0  0  0  0
 20  7  1  0  0  0  0
 21  5  2  0  0  0  0
 21 14  1  0  0  0  0
 22 23  1  0  0  0  0
 24 18  1  0  0  0  0
 25 24  1  0  0  0  0
 26 27  2  0  0  0  0
 27 25  1  0  0  0  0
 29 27  1  0  0  0  0
 29 28  1  0  0  0  0
 30 20  1  0  0  0  0
 31 30  1  0  0  0  0
 32 33  1  0  0  0  0
 32 31  1  1  0  0  0
 34 37  1  0  0  0  0
 35 34  1  0  0  0  0
 35 36  1  0  0  0  0
 36 32  1  0  0  0  0
 37 33  1  0  0  0  0
M  END
>  <MODEL>
8

>  <REMARK>
 VINA RESULT:      -8.7      2.579      5.881
  Name = 
  7 active torsions:
  status: ('A' for Active; 'I' for Inactive)
    1  A    between atoms: N_1  and  N_9
    2  A    between atoms: N_1  and  C_30
    3  A    between atoms: C_7  and  O_31
    4  A    between atoms: C_15  and  O_31
    5  A    between atoms: C_15  and  C_34
    6  A    between atoms: O_20  and  C_26
    7  A    between atoms: C_22  and  C_35
                            x       y       z     vdW  Elec       q    Type
                         _______ _______ _______ _____ _____    ______ ____

>  <TORSDO>
F 7

$$$$
=
 OpenBabel11042412133D

 37 42  0  0  1  0  0  0  0  0999 V2000
  190.0920  177.2510  145.2710 C   0  0  0  0  0  3  0  0  0  0  0  0
  186.6330  178.7770  141.7410 C   0  0  0  0  0  3  0  0  0  0  0  0
  185.3440  177.8440  145.0700 C   0  0  0  0  0  3  0  0  0  0  0  0
  190.2130  177.4240  143.9050 C   0  0  0  0  0  0  0  0  0  0  0  0
  189.1030  177.6280  143.0780 C   0  0  0  0  0  0  0  0  0  0  0  0
  188.8560  177.2890  145.8230 N   0  0  0  0  0  0  0  0  0  0  0  0
  190.5280  177.2670  139.1920 N   0  0  0  0  0  0  0  0  0  0  0  0
  184.2520  179.1170  141.7650 C   0  0  0  0  0  3  0  0  0  0  0  0
  188.6790  177.5050  140.6420 N   0  0  0  0  0  0  0  0  0  0  0  0
  186.5120  177.5350  145.7480 C   0  0  0  0  0  3  0  0  0  0  0  0
  186.6140  178.2250  143.0270 C   0  0  0  0  0  0  0  0  0  0  0  0
  185.4730  179.2120  141.1090 C   0  0  0  0  0  3  0  0  0  0  0  0
  189.5030  177.5610  141.7150 C   0  0  0  0  0  0  0  0  0  0  0  0
  187.7350  177.5300  145.0880 C   0  0  0  0  0  0  0  0  0  0  0  0
  191.6350  177.2770  143.0240 S   0  0  0  0  0  0  0  0  0  0  0  0
  191.4060  177.2770  140.2330 C   0  0  0  0  0  0  0  0  0  0  0  0
  190.8770  177.4110  141.5300 C   0  0  0  0  0  0  0  0  0  0  0  0
  184.1730  178.6120  143.0640 C   0  0  0  0  0  0  0  0  0  0  0  0
  185.3650  178.2030  143.7220 C   0  0  0  0  0  0  0  0  0  0  0  0
  189.1840  177.3770  139.3840 C   0  0  0  0  0  0  0  0  0  0  0  0
  187.8090  177.7880  143.6820 C   0  0  0  0  0  0  0  0  0  0  0  0
  193.3000  176.4630  138.8120 C   0  0  0  0  0  1  0  0  0  0  0  0
  192.7720  177.1380  139.9440 O   0  0  0  0  0  0  0  0  0  0  0  0
  182.8720  178.5760  143.6700 N   0  0  0  0  0  0  0  0  0  0  0  0
  181.7440  179.2240  143.1480 N   0  0  0  0  0  0  0  0  0  0  0  0
  180.2510  177.8760  144.3350 O   0  0  0  0  0  0  0  0  0  0  0  0
  180.4260  178.8280  143.5280 C   0  0  0  0  0  0  0  0  0  0  0  0
  179.6220  180.8820  142.5740 N   0  0  0  0  0  1  0  0  0  0  0  0
  179.2510  179.5280  142.9460 C   0  0  0  0  0  2  0  0  0  0  0  0
  188.2630  177.3310  138.2190 C   0  0  0  0  0  2  0  0  0  0  0  0
  187.7970  176.0280  138.0400 O   0  0  0  0  0  0  0  0  0  0  0  0
  188.6280  175.4830  137.0600 C   0  0  2  0  0  3  0  0  0  0  0  0
  188.2280  176.0230  135.6880 C   0  0  0  0  0  2  0  0  0  0  0  0
  188.8930  173.8190  134.7270 C   0  0  0  0  0  2  0  0  0  0  0  0
  189.3660  173.3810  136.0400 N   0  0  0  0  0  2  0  0  0  0  0  0
  188.4970  173.9590  137.0640 C   0  0  0  0  0  2  0  0  0  0  0  0
  189.0390  175.3340  134.5940 C   0  0  0  0  0  2  0  0  0  0  0  0
  1  6  1  0  0  0  0
  2 11  1  0  0  0  0
  3 10  2  0  0  0  0
  4  1  2  0  0  0  0
  5 21  2  0  0  0  0
  5  4  1  0  0  0  0
  7 20  1  0  0  0  0
  7 16  2  0  0  0  0
  8 18  2  0  0  0  0
  9 13  1  0  0  0  0
 11 21  1  0  0  0  0
 11 19  2  0  0  0  0
 12  2  2  0  0  0  0
 12  8  1  0  0  0  0
 13  5  1  0  0  0  0
 14 10  1  0  0  0  0
 14  6  2  0  0  0  0
 15  4  1  0  0  0  0
 16 17  1  0  0  0  0
 17 13  2  0  0  0  0
 17 15  1  0  0  0  0
 18 24  1  0  0  0  0
 18 19  1  0  0  0  0
 19  3  1  0  0  0  0
 20  9  2  0  0  0  0
 21 14  1  0  0  0  0
 22 23  1  0  0  0  0
 23 16  1  0  0  0  0
 25 27  1  0  0  0  0
 25 24  2  0  0  0  0
 27 26  2  0  0  0  0
 28 29  1  0  0  0  0
 29 27  1  0  0  0  0
 30 20  1  0  0  0  0
 31 30  1  0  0  0  0
 32 36  1  0  0  0  0
 32 31  1  1  0  0  0
 33 32  1  0  0  0  0
 34 35  1  0  0  0  0
 35 36  1  0  0  0  0
 37 34  1  0  0  0  0
 37 33  1  0  0  0  0
M  END
>  <MODEL>
9

>  <REMARK>
 VINA RESULT:      -8.6      2.880      6.950
  Name = 
  7 active torsions:
  status: ('A' for Active; 'I' for Inactive)
    1  A    between atoms: N_1  and  N_9
    2  A    between atoms: N_1  and  C_30
    3  A    between atoms: C_7  and  O_31
    4  A    between atoms: C_15  and  O_31
    5  A    between atoms: C_15  and  C_34
    6  A    between atoms: O_20  and  C_26
    7  A    between atoms: C_22  and  C_35
                            x       y       z     vdW  Elec       q    Type
                         _______ _______ _______ _____ _____    ______ ____

>  <TORSDO>
F 7

$$$$
