=
 OpenBabel11042412303D

 31 37  0  0  1  0  0  0  0  0999 V2000
  189.1510  177.4110  138.4230 C   0  0  0  0  0  2  0  0  0  0  0  0
  186.6380  178.4110  140.9740 C   0  0  0  0  0  0  0  0  0  0  0  0
  186.8470  178.2230  142.3150 C   0  0  0  0  0  0  0  0  0  0  0  0
  186.6030  178.0770  145.0710 C   0  0  0  0  0  0  0  0  0  0  0  0
  185.3130  178.3450  147.0330 C   0  0  0  0  0  3  0  0  0  0  0  0
  187.0670  178.6350  138.5720 N   0  0  1  0  0  0  0  0  0  0  0  0
  185.5010  178.5090  144.2940 C   0  0  0  0  0  0  0  0  0  0  0  0
  185.6530  178.5730  142.9100 C   0  0  0  0  0  0  0  0  0  0  0  0
  187.9290  177.8910  137.6310 C   0  0  2  0  0  3  0  0  0  0  0  0
  184.7610  178.9390  142.0090 O   0  0  0  0  0  0  0  0  0  0  0  0
  185.6120  178.4060  138.3860 C   0  0  0  0  0  2  0  0  0  0  0  0
  185.3460  178.8310  140.8300 C   0  0  0  0  0  0  0  0  0  0  0  0
  187.9540  177.7940  143.0450 C   0  0  0  0  0  3  0  0  0  0  0  0
  184.3160  178.8500  144.9430 C   0  0  0  0  0  3  0  0  0  0  0  0
  188.7170  177.4480  139.8730 C   0  0  0  0  0  2  0  0  0  0  0  0
  187.4770  178.1900  139.8440 N   0  0  0  0  0  0  0  0  0  0  0  0
  184.7670  179.1130  139.4750 C   0  0  2  0  0  3  0  0  0  0  0  0
  184.2460  178.7620  146.2980 N   0  0  0  0  0  0  0  0  0  0  0  0
  187.8190  177.7230  144.4450 C   0  0  0  0  0  3  0  0  0  0  0  0
  186.4810  178.0060  146.4210 N   0  0  0  0  0  0  0  0  0  0  0  0
  181.0120  179.1830  139.1340 N   0  0  0  0  0  0  0  0  0  0  0  0
  183.3340  178.6880  139.3910 C   0  0  0  0  0  0  0  0  0  0  0  0
  182.2980  179.6120  139.2110 C   0  0  0  0  0  3  0  0  0  0  0  0
  183.0040  177.3360  139.4820 C   0  0  0  0  0  3  0  0  0  0  0  0
  180.7130  177.8600  139.2270 C   0  0  0  0  0  3  0  0  0  0  0  0
  181.7050  176.9470  139.4010 N   0  0  0  0  0  0  0  0  0  0  0  0
  187.8760  174.7820  135.6690 C   0  0  0  0  0  2  0  0  0  0  0  0
  187.2470  176.7220  136.8860 C   0  0  1  0  0  3  0  0  0  0  0  0
  187.1200  177.0180  135.5200 O   0  0  0  0  0  0  0  0  0  0  0  0
  187.0490  175.7720  134.8820 C   0  0  0  0  0  2  0  0  0  0  0  0
  187.9860  175.4020  137.0290 C   0  0  0  0  0  2  0  0  0  0  0  0
  1 15  1  0  0  0  0
  2  3  1  0  0  0  0
  3  8  2  0  0  0  0
  3 13  1  0  0  0  0
  4 20  1  0  0  0  0
  6 11  1  6  0  0  0
  6 16  1  0  0  0  0
  7 14  1  0  0  0  0
  7  4  2  0  0  0  0
  8  7  1  0  0  0  0
  9  1  1  1  0  0  0
  9  6  1  0  0  0  0
 10  8  1  0  0  0  0
 11 17  1  0  0  0  0
 12  2  2  0  0  0  0
 12 10  1  0  0  0  0
 13 19  2  0  0  0  0
 14 18  2  0  0  0  0
 16 15  1  0  0  0  0
 16  2  1  0  0  0  0
 17 22  1  1  0  0  0
 17 12  1  0  0  0  0
 18  5  1  0  0  0  0
 19  4  1  0  0  0  0
 20  5  2  0  0  0  0
 21 23  2  0  0  0  0
 21 25  1  0  0  0  0
 22 24  2  0  0  0  0
 23 22  1  0  0  0  0
 25 26  2  0  0  0  0
 26 24  1  0  0  0  0
 27 31  1  0  0  0  0
 28 31  1  6  0  0  0
 28  9  1  0  0  0  0
 29 28  1  0  0  0  0
 30 29  1  0  0  0  0
 30 27  1  0  0  0  0
M  END
>  <MODEL>
1

>  <REMARK>
 VINA RESULT:      -9.0      0.000      0.000
  Name = 
  2 active torsions:
  status: ('A' for Active; 'I' for Inactive)
    1  A    between atoms: C_8  and  C_14
    2  A    between atoms: C_9  and  C_26
                            x       y       z     vdW  Elec       q    Type
                         _______ _______ _______ _____ _____    ______ ____

>  <TORSDO>
F 2

$$$$
=
 OpenBabel11042412303D

 31 37  0  0  1  0  0  0  0  0999 V2000
  190.2650  176.6700  138.0260 C   0  0  0  0  0  2  0  0  0  0  0  0
  189.4360  177.6200  141.5230 C   0  0  0  0  0  0  0  0  0  0  0  0
  190.1620  177.1650  142.5930 C   0  0  0  0  0  0  0  0  0  0  0  0
  191.1230  176.5800  145.1240 C   0  0  0  0  0  0  0  0  0  0  0  0
  190.9260  176.7140  147.4750 C   0  0  0  0  0  3  0  0  0  0  0  0
  188.8070  178.1870  139.2230 N   0  0  1  0  0  0  0  0  0  0  0  0
  189.9270  177.3240  144.9860 C   0  0  0  0  0  0  0  0  0  0  0  0
  189.4670  177.6040  143.7010 C   0  0  0  0  0  0  0  0  0  0  0  0
  188.9690  177.4840  137.9340 C   0  0  2  0  0  3  0  0  0  0  0  0
  188.3830  178.2710  143.3510 O   0  0  0  0  0  0  0  0  0  0  0  0
  187.4100  178.2470  139.7200 C   0  0  0  0  0  2  0  0  0  0  0  0
  188.3490  178.2740  142.0300 C   0  0  0  0  0  0  0  0  0  0  0  0
  191.3410  176.4320  142.6860 C   0  0  0  0  0  3  0  0  0  0  0  0
  189.2630  177.7430  146.1370 C   0  0  0  0  0  3  0  0  0  0  0  0
  190.5320  176.5250  139.5080 C   0  0  0  0  0  2  0  0  0  0  0  0
  189.6170  177.4610  140.1190 N   0  0  0  0  0  0  0  0  0  0  0  0
  187.3180  178.8850  141.1280 C   0  0  2  0  0  3  0  0  0  0  0  0
  189.7750  177.4310  147.3570 N   0  0  0  0  0  0  0  0  0  0  0  0
  191.8220  176.1390  143.9780 C   0  0  0  0  0  3  0  0  0  0  0  0
  191.5920  176.2940  146.3650 N   0  0  0  0  0  0  0  0  0  0  0  0
  184.4500  178.2750  143.4990 N   0  0  0  0  0  0  0  0  0  0  0  0
  185.9380  178.7330  141.6890 C   0  0  0  0  0  0  0  0  0  0  0  0
  185.7180  178.3960  143.0290 C   0  0  0  0  0  3  0  0  0  0  0  0
  184.8290  178.9400  140.8700 C   0  0  0  0  0  3  0  0  0  0  0  0
  183.3820  178.4790  142.6820 C   0  0  0  0  0  3  0  0  0  0  0  0
  183.5750  178.8090  141.3770 N   0  0  0  0  0  0  0  0  0  0  0  0
  187.2910  174.9450  135.8720 C   0  0  0  0  0  2  0  0  0  0  0  0
  187.7770  176.5990  137.5040 C   0  0  1  0  0  3  0  0  0  0  0  0
  187.0530  177.2190  136.4750 O   0  0  0  0  0  0  0  0  0  0  0  0
  186.4120  176.1710  135.7990 C   0  0  0  0  0  2  0  0  0  0  0  0
  188.1920  175.2140  137.0380 C   0  0  0  0  0  2  0  0  0  0  0  0
  1 15  1  0  0  0  0
  2 12  2  0  0  0  0
  2  3  1  0  0  0  0
  3 13  2  0  0  0  0
  3  8  1  0  0  0  0
  4 20  1  0  0  0  0
  6 11  1  1  0  0  0
  6 16  1  0  0  0  0
  7  4  1  0  0  0  0
  7 14  1  0  0  0  0
  8  7  2  0  0  0  0
  9  1  1  1  0  0  0
  9  6  1  0  0  0  0
 10  8  1  0  0  0  0
 11 17  1  0  0  0  0
 12 10  1  0  0  0  0
 13 19  1  0  0  0  0
 14 18  2  0  0  0  0
 15 16  1  0  0  0  0
 16  2  1  0  0  0  0
 17 22  1  1  0  0  0
 17 12  1  0  0  0  0
 18  5  1  0  0  0  0
 19  4  2  0  0  0  0
 20  5  2  0  0  0  0
 22 23  2  0  0  0  0
 23 21  1  0  0  0  0
 24 26  2  0  0  0  0
 24 22  1  0  0  0  0
 25 21  2  0  0  0  0
 26 25  1  0  0  0  0
 27 31  1  0  0  0  0
 28 31  1  6  0  0  0
 28  9  1  0  0  0  0
 29 28  1  0  0  0  0
 30 27  1  0  0  0  0
 30 29  1  0  0  0  0
M  END
>  <MODEL>
2

>  <REMARK>
 VINA RESULT:      -8.6      2.471      3.625
  Name = 
  2 active torsions:
  status: ('A' for Active; 'I' for Inactive)
    1  A    between atoms: C_8  and  C_14
    2  A    between atoms: C_9  and  C_26
                            x       y       z     vdW  Elec       q    Type
                         _______ _______ _______ _____ _____    ______ ____

>  <TORSDO>
F 2

$$$$
=
 OpenBabel11042412303D

 31 37  0  0  1  0  0  0  0  0999 V2000
  188.2120  177.1510  137.5430 C   0  0  0  0  0  2  0  0  0  0  0  0
  188.2590  177.9050  141.1830 C   0  0  0  0  0  0  0  0  0  0  0  0
  189.2140  177.3900  142.0210 C   0  0  0  0  0  0  0  0  0  0  0  0
  190.7470  176.6640  144.2110 C   0  0  0  0  0  0  0  0  0  0  0  0
  191.1220  176.6670  146.5440 C   0  0  0  0  0  3  0  0  0  0  0  0
  187.1050  178.6000  139.1370 N   0  0  1  0  0  0  0  0  0  0  0  0
  189.5630  177.4160  144.4050 C   0  0  0  0  0  0  0  0  0  0  0  0
  188.8120  177.7670  143.2860 C   0  0  0  0  0  0  0  0  0  0  0  0
  186.9430  177.9700  137.8100 C   0  0  2  0  0  3  0  0  0  0  0  0
  187.6850  178.4530  143.2430 O   0  0  0  0  0  0  0  0  0  0  0  0
  185.8690  178.6320  139.9570 C   0  0  0  0  0  2  0  0  0  0  0  0
  187.3360  178.5300  141.9720 C   0  0  0  0  0  0  0  0  0  0  0  0
  190.3720  176.6520  141.7880 C   0  0  0  0  0  3  0  0  0  0  0  0
  189.2010  177.7700  145.7030 C   0  0  0  0  0  3  0  0  0  0  0  0
  188.8250  176.9230  138.9070 C   0  0  0  0  0  2  0  0  0  0  0  0
  188.0960  177.8250  139.7710 N   0  0  0  0  0  0  0  0  0  0  0  0
  186.1270  179.1910  141.3780 C   0  0  2  0  0  3  0  0  0  0  0  0
  189.9870  177.3890  146.7450 N   0  0  0  0  0  0  0  0  0  0  0  0
  191.1440  176.2880  142.9090 C   0  0  0  0  0  3  0  0  0  0  0  0
  191.4970  176.3090  145.2850 N   0  0  0  0  0  0  0  0  0  0  0  0
  182.6210  178.4360  142.5450 N   0  0  0  0  0  0  0  0  0  0  0  0
  184.9200  179.0090  142.2450 C   0  0  0  0  0  0  0  0  0  0  0  0
  183.6890  178.5950  141.7220 C   0  0  0  0  0  3  0  0  0  0  0  0
  185.0090  179.2440  143.6170 C   0  0  0  0  0  3  0  0  0  0  0  0
  182.7290  178.6730  143.8800 C   0  0  0  0  0  3  0  0  0  0  0  0
  183.9160  179.0740  144.4070 N   0  0  0  0  0  0  0  0  0  0  0  0
  184.7720  175.5710  136.0640 C   0  0  0  0  0  2  0  0  0  0  0  0
  185.6710  177.1110  137.6320 C   0  0  1  0  0  3  0  0  0  0  0  0
  184.7210  177.7970  136.8610 O   0  0  0  0  0  0  0  0  0  0  0  0
  183.9180  176.7960  136.2960 C   0  0  0  0  0  2  0  0  0  0  0  0
  185.9390  175.7630  136.9830 C   0  0  0  0  0  2  0  0  0  0  0  0
  1 15  1  0  0  0  0
  2 12  2  0  0  0  0
  2  3  1  0  0  0  0
  3  8  1  0  0  0  0
  4  7  1  0  0  0  0
  4 20  1  0  0  0  0
  5 18  1  0  0  0  0
  6 16  1  0  0  0  0
  6 11  1  1  0  0  0
  7 14  1  0  0  0  0
  8  7  2  0  0  0  0
  9  1  1  1  0  0  0
  9  6  1  0  0  0  0
 10  8  1  0  0  0  0
 11 17  1  0  0  0  0
 12 10  1  0  0  0  0
 13  3  2  0  0  0  0
 13 19  1  0  0  0  0
 14 18  2  0  0  0  0
 15 16  1  0  0  0  0
 16  2  1  0  0  0  0
 17 12  1  0  0  0  0
 17 22  1  1  0  0  0
 19  4  2  0  0  0  0
 20  5  2  0  0  0  0
 21 25  1  0  0  0  0
 22 24  2  0  0  0  0
 23 22  1  0  0  0  0
 23 21  2  0  0  0  0
 24 26  1  0  0  0  0
 25 26  2  0  0  0  0
 27 30  1  0  0  0  0
 27 31  1  0  0  0  0
 28 31  1  6  0  0  0
 28  9  1  0  0  0  0
 29 28  1  0  0  0  0
 30 29  1  0  0  0  0
M  END
>  <MODEL>
3

>  <REMARK>
 VINA RESULT:      -8.2      2.356      3.577
  Name = 
  2 active torsions:
  status: ('A' for Active; 'I' for Inactive)
    1  A    between atoms: C_8  and  C_14
    2  A    between atoms: C_9  and  C_26
                            x       y       z     vdW  Elec       q    Type
                         _______ _______ _______ _____ _____    ______ ____

>  <TORSDO>
F 2

$$$$
=
 OpenBabel11042412303D

 31 37  0  0  1  0  0  0  0  0999 V2000
  183.0970  178.4790  138.3970 C   0  0  0  0  0  2  0  0  0  0  0  0
  186.2290  178.6100  140.3950 C   0  0  0  0  0  0  0  0  0  0  0  0
  187.4300  178.1750  139.8960 C   0  0  0  0  0  0  0  0  0  0  0  0
  190.0760  177.4330  139.5490 C   0  0  0  0  0  0  0  0  0  0  0  0
  192.2520  177.1270  140.4190 C   0  0  0  0  0  3  0  0  0  0  0  0
  183.9040  179.3770  140.4960 N   0  0  1  0  0  0  0  0  0  0  0  0
  189.6360  177.8770  140.8190 C   0  0  0  0  0  0  0  0  0  0  0  0
  188.3000  178.2430  140.9650 C   0  0  0  0  0  0  0  0  0  0  0  0
  182.6760  178.9570  139.7920 C   0  0  2  0  0  3  0  0  0  0  0  0
  187.6870  178.6750  142.0520 O   0  0  0  0  0  0  0  0  0  0  0  0
  183.9450  179.0130  141.9340 C   0  0  0  0  0  2  0  0  0  0  0  0
  186.4270  178.8870  141.7180 C   0  0  0  0  0  0  0  0  0  0  0  0
  187.8240  177.7460  138.6320 C   0  0  0  0  0  3  0  0  0  0  0  0
  190.5540  177.9270  141.8660 C   0  0  0  0  0  3  0  0  0  0  0  0
  184.5710  178.1610  138.5210 C   0  0  0  0  0  2  0  0  0  0  0  0
  184.9430  178.7330  139.7960 N   0  0  0  0  0  0  0  0  0  0  0  0
  185.3030  179.3690  142.5880 C   0  0  2  0  0  3  0  0  0  0  0  0
  191.8420  177.5520  141.6450 N   0  0  0  0  0  0  0  0  0  0  0  0
  189.1720  177.3700  138.4660 C   0  0  0  0  0  3  0  0  0  0  0  0
  191.3730  177.0700  139.3810 N   0  0  0  0  0  0  0  0  0  0  0  0
  186.4360  177.3880  145.5900 N   0  0  0  0  0  0  0  0  0  0  0  0
  185.3920  178.7960  143.9680 C   0  0  0  0  0  0  0  0  0  0  0  0
  186.3860  177.8790  144.3250 C   0  0  0  0  0  3  0  0  0  0  0  0
  184.4730  179.1850  144.9410 C   0  0  0  0  0  3  0  0  0  0  0  0
  185.5280  177.7790  146.5230 C   0  0  0  0  0  3  0  0  0  0  0  0
  184.5550  178.6710  146.1970 N   0  0  0  0  0  0  0  0  0  0  0  0
  180.1720  176.2710  139.9860 C   0  0  0  0  0  2  0  0  0  0  0  0
  181.8240  177.8910  140.5190 C   0  0  1  0  0  3  0  0  0  0  0  0
  180.5760  178.4230  140.8780 O   0  0  0  0  0  0  0  0  0  0  0  0
  179.7240  177.3150  140.9820 C   0  0  0  0  0  2  0  0  0  0  0  0
  181.5960  176.6360  139.6940 C   0  0  0  0  0  2  0  0  0  0  0  0
  1 15  1  0  0  0  0
  2 12  2  0  0  0  0
  3  2  1  0  0  0  0
  3  8  1  0  0  0  0
  4  7  1  0  0  0  0
  5 18  1  0  0  0  0
  6 11  1  1  0  0  0
  7  8  2  0  0  0  0
  7 14  1  0  0  0  0
  8 10  1  0  0  0  0
  9  1  1  6  0  0  0
  9  6  1  0  0  0  0
  9 28  1  0  0  0  0
 11 17  1  0  0  0  0
 12 10  1  0  0  0  0
 12 17  1  0  0  0  0
 13  3  2  0  0  0  0
 15 16  1  0  0  0  0
 16  2  1  0  0  0  0
 16  6  1  0  0  0  0
 17 22  1  1  0  0  0
 18 14  2  0  0  0  0
 19 13  1  0  0  0  0
 19  4  2  0  0  0  0
 20  4  1  0  0  0  0
 20  5  2  0  0  0  0
 21 25  1  0  0  0  0
 22 23  1  0  0  0  0
 22 24  2  0  0  0  0
 23 21  2  0  0  0  0
 24 26  1  0  0  0  0
 26 25  2  0  0  0  0
 27 30  1  0  0  0  0
 28 31  1  6  0  0  0
 28 29  1  0  0  0  0
 29 30  1  0  0  0  0
 31 27  1  0  0  0  0
M  END
>  <MODEL>
4

>  <REMARK>
 VINA RESULT:      -7.7      2.277      6.345
  Name = 
  2 active torsions:
  status: ('A' for Active; 'I' for Inactive)
    1  A    between atoms: C_8  and  C_14
    2  A    between atoms: C_9  and  C_26
                            x       y       z     vdW  Elec       q    Type
                         _______ _______ _______ _____ _____    ______ ____

>  <TORSDO>
F 2

$$$$
=
 OpenBabel11042412303D

 31 37  0  0  1  0  0  0  0  0999 V2000
  187.0960  177.9850  138.3230 C   0  0  0  0  0  2  0  0  0  0  0  0
  186.3950  178.4390  141.9460 C   0  0  0  0  0  0  0  0  0  0  0  0
  187.2560  177.9970  142.9150 C   0  0  0  0  0  0  0  0  0  0  0  0
  188.4770  177.3160  145.3070 C   0  0  0  0  0  0  0  0  0  0  0  0
  188.4360  177.1810  147.6660 C   0  0  0  0  0  3  0  0  0  0  0  0
  185.5220  179.1300  139.7630 N   0  0  1  0  0  0  0  0  0  0  0  0
  187.1780  177.8760  145.3210 C   0  0  0  0  0  0  0  0  0  0  0  0
  186.5880  178.2090  144.1030 C   0  0  0  0  0  0  0  0  0  0  0  0
  185.6910  178.5940  138.3970 C   0  0  2  0  0  3  0  0  0  0  0  0
  185.3940  178.7320  143.8920 O   0  0  0  0  0  0  0  0  0  0  0  0
  184.1710  178.9220  140.3420 C   0  0  0  0  0  2  0  0  0  0  0  0
  185.2630  178.8620  142.5840 C   0  0  0  0  0  0  0  0  0  0  0  0
  188.5360  177.4490  142.8600 C   0  0  0  0  0  3  0  0  0  0  0  0
  186.5450  178.0690  146.5480 C   0  0  0  0  0  3  0  0  0  0  0  0
  187.4900  177.7350  139.7630 C   0  0  0  0  0  2  0  0  0  0  0  0
  186.4930  178.4520  140.5250 N   0  0  0  0  0  0  0  0  0  0  0  0
  184.0900  179.3940  141.8150 C   0  0  2  0  0  3  0  0  0  0  0  0
  187.1860  177.7190  147.6940 N   0  0  0  0  0  0  0  0  0  0  0  0
  189.1480  177.1060  144.0810 C   0  0  0  0  0  3  0  0  0  0  0  0
  189.0740  176.9830  146.4800 N   0  0  0  0  0  0  0  0  0  0  0  0
  181.3960  178.6210  144.3380 N   0  0  0  0  0  0  0  0  0  0  0  0
  182.7930  178.9750  142.4340 C   0  0  0  0  0  0  0  0  0  0  0  0
  182.5900  179.0040  143.8180 C   0  0  0  0  0  3  0  0  0  0  0  0
  181.7420  178.5490  141.6230 C   0  0  0  0  0  3  0  0  0  0  0  0
  180.3850  178.2080  143.5290 C   0  0  0  0  0  3  0  0  0  0  0  0
  180.5610  178.1740  142.1810 N   0  0  0  0  0  0  0  0  0  0  0  0
  184.0200  176.3860  135.9780 C   0  0  0  0  0  2  0  0  0  0  0  0
  184.6150  177.5820  137.9410 C   0  0  1  0  0  3  0  0  0  0  0  0
  183.5340  178.2510  137.3480 O   0  0  0  0  0  0  0  0  0  0  0  0
  182.9410  177.3050  136.5000 C   0  0  0  0  0  2  0  0  0  0  0  0
  185.1390  176.5450  136.9620 C   0  0  0  0  0  2  0  0  0  0  0  0
  1 15  1  0  0  0  0
  2 12  2  0  0  0  0
  2  3  1  0  0  0  0
  3  8  1  0  0  0  0
  4  7  1  0  0  0  0
  4 20  1  0  0  0  0
  5 18  1  0  0  0  0
  6 11  1  1  0  0  0
  6 16  1  0  0  0  0
  7 14  1  0  0  0  0
  8  7  2  0  0  0  0
  9  1  1  1  0  0  0
  9  6  1  0  0  0  0
 10  8  1  0  0  0  0
 11 17  1  0  0  0  0
 12 10  1  0  0  0  0
 13  3  2  0  0  0  0
 13 19  1  0  0  0  0
 14 18  2  0  0  0  0
 15 16  1  0  0  0  0
 16  2  1  0  0  0  0
 17 22  1  1  0  0  0
 17 12  1  0  0  0  0
 19  4  2  0  0  0  0
 20  5  2  0  0  0  0
 22 23  2  0  0  0  0
 23 21  1  0  0  0  0
 24 26  2  0  0  0  0
 24 22  1  0  0  0  0
 25 21  2  0  0  0  0
 26 25  1  0  0  0  0
 27 30  1  0  0  0  0
 27 31  1  0  0  0  0
 28 31  1  6  0  0  0
 28  9  1  0  0  0  0
 29 28  1  0  0  0  0
 30 29  1  0  0  0  0
M  END
>  <MODEL>
5

>  <REMARK>
 VINA RESULT:      -7.5      2.200      2.910
  Name = 
  2 active torsions:
  status: ('A' for Active; 'I' for Inactive)
    1  A    between atoms: C_8  and  C_14
    2  A    between atoms: C_9  and  C_26
                            x       y       z     vdW  Elec       q    Type
                         _______ _______ _______ _____ _____    ______ ____

>  <TORSDO>
F 2

$$$$
=
 OpenBabel11042412303D

 31 37  0  0  1  0  0  0  0  0999 V2000
  192.3340  176.3310  138.3770 C   0  0  0  0  0  2  0  0  0  0  0  0
  189.3300  177.5170  140.2190 C   0  0  0  0  0  0  0  0  0  0  0  0
  189.2290  177.4240  141.5820 C   0  0  0  0  0  0  0  0  0  0  0  0
  188.3670  177.4760  144.2140 C   0  0  0  0  0  0  0  0  0  0  0  0
  186.6730  177.8870  145.8110 C   0  0  0  0  0  3  0  0  0  0  0  0
  190.2930  177.5680  137.9660 N   0  0  1  0  0  0  0  0  0  0  0  0
  187.4770  177.8550  143.1810 C   0  0  0  0  0  0  0  0  0  0  0  0
  187.9370  177.8190  141.8660 C   0  0  0  0  0  0  0  0  0  0  0  0
  191.3310  176.7560  137.2980 C   0  0  2  0  0  3  0  0  0  0  0  0
  187.2780  178.1230  140.7630 O   0  0  0  0  0  0  0  0  0  0  0  0
  188.9140  177.3300  137.4730 C   0  0  0  0  0  2  0  0  0  0  0  0
  188.1120  177.9300  139.7580 C   0  0  0  0  0  0  0  0  0  0  0  0
  190.1340  177.0460  142.5710 C   0  0  0  0  0  3  0  0  0  0  0  0
  186.1830  178.2450  143.5200 C   0  0  0  0  0  3  0  0  0  0  0  0
  191.5850  176.4720  139.6850 C   0  0  0  0  0  2  0  0  0  0  0  0
  190.3970  177.2140  139.3260 N   0  0  0  0  0  0  0  0  0  0  0  0
  187.8590  178.1150  138.2910 C   0  0  2  0  0  3  0  0  0  0  0  0
  185.8080  178.2530  144.8270 N   0  0  0  0  0  0  0  0  0  0  0  0
  189.6850  177.0750  143.9060 C   0  0  0  0  0  3  0  0  0  0  0  0
  187.9420  177.5020  145.5030 N   0  0  0  0  0  0  0  0  0  0  0  0
  184.9620  176.1880  136.8360 N   0  0  0  0  0  0  0  0  0  0  0  0
  186.4740  177.6900  137.9140 C   0  0  0  0  0  0  0  0  0  0  0  0
  186.2350  176.5420  137.1500 C   0  0  0  0  0  3  0  0  0  0  0  0
  185.3780  178.4400  138.3380 C   0  0  0  0  0  3  0  0  0  0  0  0
  183.9080  176.9360  137.2580 C   0  0  0  0  0  3  0  0  0  0  0  0
  184.1190  178.0530  138.0030 N   0  0  0  0  0  0  0  0  0  0  0  0
  191.6050  173.4220  135.7730 C   0  0  0  0  0  2  0  0  0  0  0  0
  190.8120  175.5380  136.5000 C   0  0  1  0  0  3  0  0  0  0  0  0
  191.1570  175.6570  135.1450 O   0  0  0  0  0  0  0  0  0  0  0  0
  191.1730  174.3440  134.6570 C   0  0  0  0  0  2  0  0  0  0  0  0
  191.3360  174.2100  137.0190 C   0  0  0  0  0  2  0  0  0  0  0  0
  1 15  1  0  0  0  0
  2  3  1  0  0  0  0
  3  8  2  0  0  0  0
  3 13  1  0  0  0  0
  4 20  1  0  0  0  0
  6 11  1  6  0  0  0
  6 16  1  0  0  0  0
  7 14  1  0  0  0  0
  7  4  2  0  0  0  0
  8  7  1  0  0  0  0
  9  6  1  0  0  0  0
  9  1  1  1  0  0  0
 10  8  1  0  0  0  0
 11 17  1  0  0  0  0
 12  2  2  0  0  0  0
 12 10  1  0  0  0  0
 13 19  2  0  0  0  0
 14 18  2  0  0  0  0
 16 15  1  0  0  0  0
 16  2  1  0  0  0  0
 17 22  1  1  0  0  0
 17 12  1  0  0  0  0
 18  5  1  0  0  0  0
 19  4  1  0  0  0  0
 20  5  2  0  0  0  0
 21 23  2  0  0  0  0
 21 25  1  0  0  0  0
 22 24  2  0  0  0  0
 23 22  1  0  0  0  0
 25 26  2  0  0  0  0
 26 24  1  0  0  0  0
 27 31  1  0  0  0  0
 28 31  1  1  0  0  0
 28  9  1  0  0  0  0
 29 28  1  0  0  0  0
 30 29  1  0  0  0  0
 30 27  1  0  0  0  0
M  END
>  <MODEL>
6

>  <REMARK>
 VINA RESULT:      -7.5      2.407      3.320
  Name = 
  2 active torsions:
  status: ('A' for Active; 'I' for Inactive)
    1  A    between atoms: C_8  and  C_14
    2  A    between atoms: C_9  and  C_26
                            x       y       z     vdW  Elec       q    Type
                         _______ _______ _______ _____ _____    ______ ____

>  <TORSDO>
F 2

$$$$
=
 OpenBabel11042412303D

 31 37  0  0  1  0  0  0  0  0999 V2000
  184.9410  178.3140  138.3390 C   0  0  0  0  0  2  0  0  0  0  0  0
  188.3280  176.7900  138.1590 C   0  0  0  0  0  0  0  0  0  0  0  0
  188.6420  175.8200  137.2430 C   0  0  0  0  0  0  0  0  0  0  0  0
  189.8890  173.8480  135.7510 C   0  0  0  0  0  0  0  0  0  0  0  0
  191.7570  172.4600  135.3380 C   0  0  0  0  0  3  0  0  0  0  0  0
  187.1520  178.6280  139.2750 N   0  0  1  0  0  0  0  0  0  0  0  0
  190.5660  174.4220  136.8540 C   0  0  0  0  0  0  0  0  0  0  0  0
  189.9140  175.4110  137.5860 C   0  0  0  0  0  0  0  0  0  0  0  0
  185.7220  178.9050  139.5190 C   0  0  2  0  0  3  0  0  0  0  0  0
  190.3570  176.0680  138.6430 O   0  0  0  0  0  0  0  0  0  0  0  0
  187.9220  178.2580  140.4890 C   0  0  0  0  0  2  0  0  0  0  0  0
  189.3950  176.8970  139.0050 C   0  0  0  0  0  0  0  0  0  0  0  0
  187.9440  175.2800  136.1660 C   0  0  0  0  0  3  0  0  0  0  0  0
  191.8490  173.9740  137.1590 C   0  0  0  0  0  3  0  0  0  0  0  0
  185.8730  177.2890  137.7280 C   0  0  0  0  0  2  0  0  0  0  0  0
  187.1470  177.5630  138.3530 N   0  0  0  0  0  0  0  0  0  0  0  0
  189.3810  177.8610  140.1550 C   0  0  2  0  0  3  0  0  0  0  0  0
  192.4180  173.0030  136.3960 N   0  0  0  0  0  0  0  0  0  0  0  0
  188.5870  174.2780  135.4140 C   0  0  0  0  0  3  0  0  0  0  0  0
  190.5020  172.8810  135.0210 N   0  0  0  0  0  0  0  0  0  0  0  0
  192.0000  176.9710  142.7180 N   0  0  0  0  0  0  0  0  0  0  0  0
  190.0630  177.2890  141.3590 C   0  0  0  0  0  0  0  0  0  0  0  0
  191.4220  177.5030  141.6100 C   0  0  0  0  0  3  0  0  0  0  0  0
  189.3350  176.5270  142.2720 C   0  0  0  0  0  3  0  0  0  0  0  0
  191.2720  176.2290  143.5940 C   0  0  0  0  0  3  0  0  0  0  0  0
  189.9490  176.0110  143.3680 N   0  0  0  0  0  0  0  0  0  0  0  0
  183.1470  178.5120  142.1130 C   0  0  0  0  0  2  0  0  0  0  0  0
  185.1670  178.4020  140.8700 C   0  0  1  0  0  3  0  0  0  0  0  0
  185.3330  179.3790  141.8630 O   0  0  0  0  0  0  0  0  0  0  0  0
  184.3480  179.0970  142.8190 C   0  0  0  0  0  2  0  0  0  0  0  0
  183.6990  178.0140  140.8120 C   0  0  0  0  0  2  0  0  0  0  0  0
  2 16  1  0  0  0  0
  2 12  2  0  0  0  0
  3  8  1  0  0  0  0
  3  2  1  0  0  0  0
  4  7  1  0  0  0  0
  5 18  1  0  0  0  0
  6  9  1  0  0  0  0
  6 11  1  1  0  0  0
  7 14  1  0  0  0  0
  7  8  2  0  0  0  0
  8 10  1  0  0  0  0
  9  1  1  6  0  0  0
  9 28  1  0  0  0  0
 10 12  1  0  0  0  0
 12 17  1  0  0  0  0
 13  3  2  0  0  0  0
 15  1  1  0  0  0  0
 15 16  1  0  0  0  0
 16  6  1  0  0  0  0
 17 11  1  0  0  0  0
 17 22  1  1  0  0  0
 18 14  2  0  0  0  0
 19  4  2  0  0  0  0
 19 13  1  0  0  0  0
 20  5  2  0  0  0  0
 20  4  1  0  0  0  0
 21 25  1  0  0  0  0
 22 23  1  0  0  0  0
 22 24  2  0  0  0  0
 23 21  2  0  0  0  0
 24 26  1  0  0  0  0
 26 25  2  0  0  0  0
 27 30  1  0  0  0  0
 28 31  1  6  0  0  0
 28 29  1  0  0  0  0
 29 30  1  0  0  0  0
 31 27  1  0  0  0  0
M  END
>  <MODEL>
7

>  <REMARK>
 VINA RESULT:      -7.4      3.135      8.350
  Name = 
  2 active torsions:
  status: ('A' for Active; 'I' for Inactive)
    1  A    between atoms: C_8  and  C_14
    2  A    between atoms: C_9  and  C_26
                            x       y       z     vdW  Elec       q    Type
                         _______ _______ _______ _____ _____    ______ ____

>  <TORSDO>
F 2

$$$$
=
 OpenBabel11042412303D

 31 37  0  0  1  0  0  0  0  0999 V2000
  180.1940  179.6380  139.9190 C   0  0  0  0  0  2  0  0  0  0  0  0
  183.3800  178.4950  141.4550 C   0  0  0  0  0  0  0  0  0  0  0  0
  183.6310  178.6250  142.7960 C   0  0  0  0  0  0  0  0  0  0  0  0
  184.7750  178.6450  145.3180 C   0  0  0  0  0  0  0  0  0  0  0  0
  186.6330  178.2740  146.7310 C   0  0  0  0  0  3  0  0  0  0  0  0
  182.1770  178.3840  139.3230 N   0  0  1  0  0  0  0  0  0  0  0  0
  185.5460  178.2350  144.2050 C   0  0  0  0  0  0  0  0  0  0  0  0
  184.9450  178.2350  142.9480 C   0  0  0  0  0  0  0  0  0  0  0  0
  181.0720  179.1790  138.7500 C   0  0  2  0  0  3  0  0  0  0  0  0
  185.4790  177.8980  141.7890 O   0  0  0  0  0  0  0  0  0  0  0  0
  183.4940  178.6030  138.6760 C   0  0  0  0  0  2  0  0  0  0  0  0
  184.5410  178.0650  140.8750 C   0  0  0  0  0  0  0  0  0  0  0  0
  182.8390  179.0350  143.8660 C   0  0  0  0  0  3  0  0  0  0  0  0
  186.8700  177.8500  144.4120 C   0  0  0  0  0  3  0  0  0  0  0  0
  181.0810  179.5320  141.1410 C   0  0  0  0  0  2  0  0  0  0  0  0
  182.2220  178.7760  140.6760 N   0  0  0  0  0  0  0  0  0  0  0  0
  184.6320  177.8380  139.3950 C   0  0  2  0  0  3  0  0  0  0  0  0
  187.3850  177.8770  145.6690 N   0  0  0  0  0  0  0  0  0  0  0  0
  183.4310  179.0410  145.1440 C   0  0  0  0  0  3  0  0  0  0  0  0
  185.3380  178.6540  146.5540 N   0  0  0  0  0  0  0  0  0  0  0  0
  188.3090  178.6280  139.1290 N   0  0  0  0  0  0  0  0  0  0  0  0
  185.9680  178.2480  138.8580 C   0  0  0  0  0  0  0  0  0  0  0  0
  187.1160  178.2550  139.6580 C   0  0  0  0  0  3  0  0  0  0  0  0
  186.0920  178.6280  137.5220 C   0  0  0  0  0  3  0  0  0  0  0  0
  188.4080  178.9970  137.8240 C   0  0  0  0  0  3  0  0  0  0  0  0
  187.3040  178.9960  137.0300 N   0  0  0  0  0  0  0  0  0  0  0  0
  180.8040  182.5990  137.4270 C   0  0  0  0  0  2  0  0  0  0  0  0
  181.5010  180.3720  137.8660 C   0  0  1  0  0  3  0  0  0  0  0  0
  180.7920  180.3640  136.6550 O   0  0  0  0  0  0  0  0  0  0  0  0
  180.8050  181.6960  136.2160 C   0  0  0  0  0  2  0  0  0  0  0  0
  181.3010  181.7220  138.5350 C   0  0  0  0  0  2  0  0  0  0  0  0
  1 15  1  0  0  0  0
  2  3  1  0  0  0  0
  3  8  2  0  0  0  0
  3 13  1  0  0  0  0
  4 20  1  0  0  0  0
  6 11  1  6  0  0  0
  6 16  1  0  0  0  0
  7 14  1  0  0  0  0
  7  4  2  0  0  0  0
  8  7  1  0  0  0  0
  9  6  1  0  0  0  0
  9  1  1  1  0  0  0
 10  8  1  0  0  0  0
 11 17  1  0  0  0  0
 12  2  2  0  0  0  0
 12 10  1  0  0  0  0
 13 19  2  0  0  0  0
 14 18  2  0  0  0  0
 16 15  1  0  0  0  0
 16  2  1  0  0  0  0
 17 22  1  6  0  0  0
 17 12  1  0  0  0  0
 18  5  1  0  0  0  0
 19  4  1  0  0  0  0
 20  5  2  0  0  0  0
 21 23  1  0  0  0  0
 22 23  2  0  0  0  0
 24 22  1  0  0  0  0
 25 21  2  0  0  0  0
 26 24  2  0  0  0  0
 26 25  1  0  0  0  0
 27 31  1  0  0  0  0
 28 31  1  1  0  0  0
 28  9  1  0  0  0  0
 29 28  1  0  0  0  0
 30 29  1  0  0  0  0
 30 27  1  0  0  0  0
M  END
>  <MODEL>
8

>  <REMARK>
 VINA RESULT:      -7.3      2.149      5.518
  Name = 
  2 active torsions:
  status: ('A' for Active; 'I' for Inactive)
    1  A    between atoms: C_8  and  C_14
    2  A    between atoms: C_9  and  C_26
                            x       y       z     vdW  Elec       q    Type
                         _______ _______ _______ _____ _____    ______ ____

>  <TORSDO>
F 2

$$$$
=
 OpenBabel11042412303D

 31 37  0  0  1  0  0  0  0  0999 V2000
  184.3480  178.2340  137.5540 C   0  0  0  0  0  2  0  0  0  0  0  0
  187.8680  177.9650  138.7190 C   0  0  0  0  0  0  0  0  0  0  0  0
  188.8490  177.3980  137.9480 C   0  0  0  0  0  0  0  0  0  0  0  0
  191.2210  176.3500  136.9740 C   0  0  0  0  0  0  0  0  0  0  0  0
  193.4920  175.7760  137.2880 C   0  0  0  0  0  3  0  0  0  0  0  0
  185.7470  179.0030  139.3740 N   0  0  1  0  0  0  0  0  0  0  0  0
  191.1620  176.8270  138.3060 C   0  0  0  0  0  0  0  0  0  0  0  0
  189.9560  177.3480  138.7690 C   0  0  0  0  0  0  0  0  0  0  0  0
  184.3420  178.7410  139.0010 C   0  0  2  0  0  3  0  0  0  0  0  0
  189.6850  177.8350  139.9660 O   0  0  0  0  0  0  0  0  0  0  0  0
  186.0960  178.6180  140.7640 C   0  0  0  0  0  2  0  0  0  0  0  0
  188.4160  178.2000  139.9480 C   0  0  0  0  0  0  0  0  0  0  0  0
  188.8670  176.9410  136.6330 C   0  0  0  0  0  3  0  0  0  0  0  0
  192.3090  176.7530  139.0950 C   0  0  0  0  0  3  0  0  0  0  0  0
  185.7590  177.7420  137.3170 C   0  0  0  0  0  2  0  0  0  0  0  0
  186.4980  178.2490  138.4510 N   0  0  0  0  0  0  0  0  0  0  0  0
  187.6060  178.8010  141.0580 C   0  0  2  0  0  3  0  0  0  0  0  0
  193.4490  176.2300  138.5700 N   0  0  0  0  0  0  0  0  0  0  0  0
  190.0780  176.4090  136.1470 C   0  0  0  0  0  3  0  0  0  0  0  0
  192.3850  175.8370  136.4990 N   0  0  0  0  0  0  0  0  0  0  0  0
  187.3840  177.0120  144.3700 N   0  0  0  0  0  0  0  0  0  0  0  0
  187.9620  178.2040  142.3840 C   0  0  0  0  0  0  0  0  0  0  0  0
  187.0160  177.5450  143.1770 C   0  0  0  0  0  3  0  0  0  0  0  0
  189.2730  178.2880  142.8530 C   0  0  0  0  0  3  0  0  0  0  0  0
  188.6670  177.1070  144.8100 C   0  0  0  0  0  3  0  0  0  0  0  0
  189.6010  177.7420  144.0540 N   0  0  0  0  0  0  0  0  0  0  0  0
  181.6680  176.3640  139.8450 C   0  0  0  0  0  2  0  0  0  0  0  0
  183.5750  177.7750  139.9320 C   0  0  1  0  0  3  0  0  0  0  0  0
  182.5220  178.4460  140.5720 O   0  0  0  0  0  0  0  0  0  0  0  0
  181.5980  177.4430  140.8990 C   0  0  0  0  0  2  0  0  0  0  0  0
  183.0100  176.5630  139.2110 C   0  0  0  0  0  2  0  0  0  0  0  0
  2 12  2  0  0  0  0
  3  2  1  0  0  0  0
  3  8  1  0  0  0  0
  4  7  1  0  0  0  0
  5 18  1  0  0  0  0
  6 11  1  1  0  0  0
  7  8  2  0  0  0  0
  7 14  1  0  0  0  0
  8 10  1  0  0  0  0
  9  1  1  6  0  0  0
  9  6  1  0  0  0  0
  9 28  1  0  0  0  0
 11 17  1  0  0  0  0
 12 10  1  0  0  0  0
 12 17  1  0  0  0  0
 13  3  2  0  0  0  0
 15  1  1  0  0  0  0
 15 16  1  0  0  0  0
 16  2  1  0  0  0  0
 16  6  1  0  0  0  0
 17 22  1  1  0  0  0
 18 14  2  0  0  0  0
 19 13  1  0  0  0  0
 19  4  2  0  0  0  0
 20  4  1  0  0  0  0
 20  5  2  0  0  0  0
 21 25  1  0  0  0  0
 22 24  2  0  0  0  0
 22 23  1  0  0  0  0
 23 21  2  0  0  0  0
 24 26  1  0  0  0  0
 26 25  2  0  0  0  0
 27 30  1  0  0  0  0
 28 31  1  6  0  0  0
 28 29  1  0  0  0  0
 29 30  1  0  0  0  0
 31 27  1  0  0  0  0
M  END
>  <MODEL>
9

>  <REMARK>
 VINA RESULT:      -7.3      2.643      7.255
  Name = 
  2 active torsions:
  status: ('A' for Active; 'I' for Inactive)
    1  A    between atoms: C_8  and  C_14
    2  A    between atoms: C_9  and  C_26
                            x       y       z     vdW  Elec       q    Type
                         _______ _______ _______ _____ _____    ______ ____

>  <TORSDO>
F 2

$$$$
