=
 OpenBabel11042411013D

 29 31  0  0  0  0  0  0  0  0999 V2000
  190.0720  177.3690  140.2060 N   0  0  0  0  0  0  0  0  0  0  0  0
  189.6750  177.0570  141.4080 C   0  0  0  0  0  0  0  0  0  0  0  0
  183.5530  178.8610  144.9180 C   0  0  0  0  0  1  0  0  0  0  0  0
  185.3700  179.2870  141.6700 C   0  0  0  0  0  3  0  0  0  0  0  0
  186.5200  178.5490  141.9240 C   0  0  0  0  0  0  0  0  0  0  0  0
  188.3750  177.5590  141.8800 C   0  0  0  0  0  0  0  0  0  0  0  0
  186.7080  177.9280  143.1140 C   0  0  0  0  0  0  0  0  0  0  0  0
  184.4340  179.3640  142.6630 N   0  0  0  0  0  0  0  0  0  0  0  0
  187.8840  177.2850  143.1200 N   0  0  0  0  0  0  0  0  0  0  0  0
  184.6040  178.7430  143.8740 C   0  0  0  0  0  0  0  0  0  0  0  0
  185.7670  177.9950  144.1360 C   0  0  0  0  0  3  0  0  0  0  0  0
  187.5640  178.3360  141.1110 N   0  0  0  0  0  2  0  0  0  0  0  0
  191.3740  175.9370  138.2570 S   0  0  0  0  0  0  0  0  0  0  0  0
  192.5850  177.4250  139.8730 C   0  0  0  0  0  3  0  0  0  0  0  0
  191.2980  177.0010  139.5540 C   0  0  0  0  0  0  0  0  0  0  0  0
  193.0490  176.0580  138.1450 C   0  0  0  0  0  0  0  0  0  0  0  0
  193.5550  176.8940  139.0800 N   0  0  0  0  0  0  0  0  0  0  0  0
  195.0250  175.7690  136.8790 O   0  0  0  0  0  0  0  0  0  0  0  0
  193.8710  175.3500  137.1610 C   0  0  0  0  0  0  0  0  0  0  0  0
  193.3940  174.2400  136.5470 F   0  0  0  0  0  0  0  0  0  0  0  0
  190.5180  176.2510  142.3470 C   0  0  0  0  0  2  0  0  0  0  0  0
  192.0050  178.1800  145.0700 O   0  0  0  0  0  0  0  0  0  0  0  0
  190.1210  176.8020  145.1840 N   0  0  0  0  0  2  0  0  0  0  0  0
  191.2090  177.4060  144.4740 C   0  0  0  0  0  0  0  0  0  0  0  0
  191.4060  177.1320  143.0890 N   0  0  0  0  0  2  0  0  0  0  0  0
  189.8590  177.0650  146.5900 C   0  0  0  0  0  2  0  0  0  0  0  0
  188.3730  177.2910  146.8100 C   0  0  0  0  0  2  0  0  0  0  0  0
  189.3650  178.3760  148.6890 O   0  0  0  0  0  1  0  0  0  0  0  0
  188.1420  178.0330  148.1130 C   0  0  0  0  0  2  0  0  0  0  0  0
  1  2  2  0  0  0  0
  2  6  1  0  0  0  0
  2 21  1  0  0  0  0
  4  5  2  0  0  0  0
  4  8  1  0  0  0  0
  5  7  1  0  0  0  0
  6  9  2  0  0  0  0
  7  9  1  0  0  0  0
  7 11  2  0  0  0  0
  8 10  2  0  0  0  0
 10 11  1  0  0  0  0
 10  3  1  0  0  0  0
 12  6  1  0  0  0  0
 12  5  1  0  0  0  0
 13 15  1  0  0  0  0
 15 14  2  0  0  0  0
 15  1  1  0  0  0  0
 16 13  1  0  0  0  0
 16 17  2  0  0  0  0
 17 14  1  0  0  0  0
 18 19  2  0  0  0  0
 19 16  1  0  0  0  0
 20 19  1  0  0  0  0
 21 25  1  0  0  0  0
 23 26  1  0  0  0  0
 24 22  2  0  0  0  0
 24 23  1  0  0  0  0
 25 24  1  0  0  0  0
 26 27  1  0  0  0  0
 27 29  1  0  0  0  0
 29 28  1  0  0  0  0
M  END
>  <MODEL>
1

>  <REMARK>
 VINA RESULT:      -7.8      0.000      0.000
  Name = 
  8 active torsions:
  status: ('A' for Active; 'I' for Inactive)
    1  A    between atoms: C_6  and  C_17
    2  A    between atoms: N_7  and  C_12
    3  A    between atoms: N_8  and  C_22
    4  A    between atoms: C_10  and  C_17
    5  A    between atoms: C_10  and  N_18
    6  A    between atoms: C_12  and  C_20
    7  A    between atoms: C_20  and  C_23
    8  A    between atoms: C_21  and  C_26
                            x       y       z     vdW  Elec       q    Type
                         _______ _______ _______ _____ _____    ______ ____

>  <TORSDO>
F 8

$$$$
=
 OpenBabel11042411013D

 29 31  0  0  0  0  0  0  0  0999 V2000
  189.2350  177.6030  140.7200 N   0  0  0  0  0  0  0  0  0  0  0  0
  188.6730  178.1150  141.7790 C   0  0  0  0  0  0  0  0  0  0  0  0
  192.3140  175.8880  147.6820 C   0  0  0  0  0  1  0  0  0  0  0  0
  188.9850  177.1610  146.5300 C   0  0  0  0  0  3  0  0  0  0  0  0
  189.2310  177.3260  145.1720 C   0  0  0  0  0  0  0  0  0  0  0  0
  189.1680  177.7180  143.1070 C   0  0  0  0  0  0  0  0  0  0  0  0
  190.4430  177.0330  144.6370 C   0  0  0  0  0  0  0  0  0  0  0  0
  190.0060  176.6950  147.3080 N   0  0  0  0  0  0  0  0  0  0  0  0
  190.4360  177.2720  143.3190 N   0  0  0  0  0  0  0  0  0  0  0  0
  191.2390  176.3930  146.7880 C   0  0  0  0  0  0  0  0  0  0  0  0
  191.4940  176.5580  145.4140 C   0  0  0  0  0  3  0  0  0  0  0  0
  188.3920  177.7650  144.2250 N   0  0  0  0  0  2  0  0  0  0  0  0
  188.2730  176.6640  138.3240 S   0  0  0  0  0  0  0  0  0  0  0  0
  189.0670  179.0230  138.6260 C   0  0  0  0  0  3  0  0  0  0  0  0
  188.9080  177.8400  139.3410 C   0  0  0  0  0  0  0  0  0  0  0  0
  188.2170  177.7090  137.0070 C   0  0  0  0  0  0  0  0  0  0  0  0
  188.6770  178.9400  137.3250 N   0  0  0  0  0  0  0  0  0  0  0  0
  187.1170  178.1860  134.9700 O   0  0  0  0  0  0  0  0  0  0  0  0
  187.7340  177.3440  135.6730 C   0  0  0  0  0  0  0  0  0  0  0  0
  187.9500  176.0960  135.1890 F   0  0  0  0  0  0  0  0  0  0  0  0
  187.5060  179.0500  141.6960 C   0  0  0  0  0  2  0  0  0  0  0  0
  184.0810  177.7820  141.6450 O   0  0  0  0  0  0  0  0  0  0  0  0
  184.9880  179.3300  143.1400 N   0  0  0  0  0  2  0  0  0  0  0  0
  185.0840  178.4460  142.0180 C   0  0  0  0  0  0  0  0  0  0  0  0
  186.3140  178.3120  141.3090 N   0  0  0  0  0  2  0  0  0  0  0  0
  183.7670  179.4870  143.9140 C   0  0  0  0  0  2  0  0  0  0  0  0
  183.9660  178.9440  145.3190 C   0  0  0  0  0  2  0  0  0  0  0  0
  185.5890  179.3460  147.0220 O   0  0  0  0  0  1  0  0  0  0  0  0
  185.4380  178.9680  145.6880 C   0  0  0  0  0  2  0  0  0  0  0  0
  1  2  2  0  0  0  0
  2  6  1  0  0  0  0
  4  8  1  0  0  0  0
  5  4  2  0  0  0  0
  6  9  2  0  0  0  0
  6 12  1  0  0  0  0
  7  5  1  0  0  0  0
  7 11  2  0  0  0  0
  9  7  1  0  0  0  0
 10  8  2  0  0  0  0
 10  3  1  0  0  0  0
 11 10  1  0  0  0  0
 12  5  1  0  0  0  0
 13 15  1  0  0  0  0
 14 15  2  0  0  0  0
 15  1  1  0  0  0  0
 16 17  2  0  0  0  0
 16 13  1  0  0  0  0
 17 14  1  0  0  0  0
 18 19  2  0  0  0  0
 19 16  1  0  0  0  0
 20 19  1  0  0  0  0
 21  2  1  0  0  0  0
 22 24  2  0  0  0  0
 23 26  1  0  0  0  0
 24 23  1  0  0  0  0
 25 21  1  0  0  0  0
 25 24  1  0  0  0  0
 26 27  1  0  0  0  0
 27 29  1  0  0  0  0
 29 28  1  0  0  0  0
M  END
>  <MODEL>
2

>  <REMARK>
 VINA RESULT:      -7.6      3.316      5.573
  Name = 
  8 active torsions:
  status: ('A' for Active; 'I' for Inactive)
    1  A    between atoms: C_6  and  C_17
    2  A    between atoms: N_7  and  C_12
    3  A    between atoms: N_8  and  C_22
    4  A    between atoms: C_10  and  C_17
    5  A    between atoms: C_10  and  N_18
    6  A    between atoms: C_12  and  C_20
    7  A    between atoms: C_20  and  C_23
    8  A    between atoms: C_21  and  C_26
                            x       y       z     vdW  Elec       q    Type
                         _______ _______ _______ _____ _____    ______ ____

>  <TORSDO>
F 8

$$$$
=
 OpenBabel11042411013D

 29 31  0  0  0  0  0  0  0  0999 V2000
  188.1910  177.2690  141.7810 N   0  0  0  0  0  0  0  0  0  0  0  0
  189.4730  177.4950  141.6980 C   0  0  0  0  0  0  0  0  0  0  0  0
  194.1060  176.0850  136.2580 C   0  0  0  0  0  1  0  0  0  0  0  0
  190.4670  176.1380  137.1430 C   0  0  0  0  0  3  0  0  0  0  0  0
  190.5330  176.5550  138.4670 C   0  0  0  0  0  0  0  0  0  0  0  0
  190.1760  177.1500  140.4520 C   0  0  0  0  0  0  0  0  0  0  0  0
  191.7240  176.8140  139.0630 C   0  0  0  0  0  0  0  0  0  0  0  0
  191.6430  175.9980  136.4620 N   0  0  0  0  0  0  0  0  0  0  0  0
  191.5310  177.1970  140.3330 N   0  0  0  0  0  0  0  0  0  0  0  0
  192.8570  176.2550  137.0460 C   0  0  0  0  0  0  0  0  0  0  0  0
  192.9300  176.6760  138.3870 C   0  0  0  0  0  3  0  0  0  0  0  0
  189.5230  176.7590  139.3230 N   0  0  0  0  0  2  0  0  0  0  0  0
  186.0290  178.5910  142.8410 S   0  0  0  0  0  0  0  0  0  0  0  0
  187.3870  176.9490  144.1640 C   0  0  0  0  0  3  0  0  0  0  0  0
  187.3170  177.5160  142.8940 C   0  0  0  0  0  0  0  0  0  0  0  0
  185.6010  178.2920  144.4410 C   0  0  0  0  0  0  0  0  0  0  0  0
  186.4230  177.3880  145.0190 N   0  0  0  0  0  0  0  0  0  0  0  0
  184.3050  178.7350  146.3680 O   0  0  0  0  0  0  0  0  0  0  0  0
  184.4780  178.9260  145.1360 C   0  0  0  0  0  0  0  0  0  0  0  0
  183.6190  179.7230  144.4540 F   0  0  0  0  0  0  0  0  0  0  0  0
  190.2660  178.0410  142.8450 C   0  0  0  0  0  2  0  0  0  0  0  0
  191.9440  175.7850  145.1780 O   0  0  0  0  0  0  0  0  0  0  0  0
  190.3300  177.3950  145.6880 N   0  0  0  0  0  2  0  0  0  0  0  0
  191.1700  176.6910  144.7680 C   0  0  0  0  0  0  0  0  0  0  0  0
  191.1360  177.0030  143.3760 N   0  0  0  0  0  2  0  0  0  0  0  0
  190.3420  177.1350  147.1190 C   0  0  0  0  0  2  0  0  0  0  0  0
  188.9240  176.9170  147.6210 C   0  0  0  0  0  2  0  0  0  0  0  0
  187.2980  178.6070  148.0580 O   0  0  0  0  0  1  0  0  0  0  0  0
  188.5000  178.0670  148.5150 C   0  0  0  0  0  2  0  0  0  0  0  0
  1 15  1  0  0  0  0
  2  1  2  0  0  0  0
  2 21  1  0  0  0  0
  3 10  1  0  0  0  0
  4  5  1  0  0  0  0
  5  7  2  0  0  0  0
  5 12  1  0  0  0  0
  6  2  1  0  0  0  0
  7  9  1  0  0  0  0
  8 10  1  0  0  0  0
  8  4  2  0  0  0  0
  9  6  2  0  0  0  0
 10 11  2  0  0  0  0
 11  7  1  0  0  0  0
 12  6  1  0  0  0  0
 13 15  1  0  0  0  0
 13 16  1  0  0  0  0
 14 17  1  0  0  0  0
 15 14  2  0  0  0  0
 16 17  2  0  0  0  0
 16 19  1  0  0  0  0
 19 18  2  0  0  0  0
 20 19  1  0  0  0  0
 21 25  1  0  0  0  0
 23 26  1  0  0  0  0
 24 22  2  0  0  0  0
 24 23  1  0  0  0  0
 25 24  1  0  0  0  0
 26 27  1  0  0  0  0
 27 29  1  0  0  0  0
 28 29  1  0  0  0  0
M  END
>  <MODEL>
3

>  <REMARK>
 VINA RESULT:      -7.4      3.641      7.373
  Name = 
  8 active torsions:
  status: ('A' for Active; 'I' for Inactive)
    1  A    between atoms: C_6  and  C_17
    2  A    between atoms: N_7  and  C_12
    3  A    between atoms: N_8  and  C_22
    4  A    between atoms: C_10  and  C_17
    5  A    between atoms: C_10  and  N_18
    6  A    between atoms: C_12  and  C_20
    7  A    between atoms: C_20  and  C_23
    8  A    between atoms: C_21  and  C_26
                            x       y       z     vdW  Elec       q    Type
                         _______ _______ _______ _____ _____    ______ ____

>  <TORSDO>
F 8

$$$$
=
 OpenBabel11042411013D

 29 31  0  0  0  0  0  0  0  0999 V2000
  189.3700  176.7470  142.1710 N   0  0  0  0  0  0  0  0  0  0  0  0
  189.2940  177.4770  141.0930 C   0  0  0  0  0  0  0  0  0  0  0  0
  194.1670  175.7710  135.9550 C   0  0  0  0  0  1  0  0  0  0  0  0
  190.4910  175.8770  136.6680 C   0  0  0  0  0  3  0  0  0  0  0  0
  190.4980  176.3640  137.9690 C   0  0  0  0  0  0  0  0  0  0  0  0
  190.0520  177.0650  139.9010 C   0  0  0  0  0  0  0  0  0  0  0  0
  191.6610  176.6520  138.6050 C   0  0  0  0  0  0  0  0  0  0  0  0
  191.6960  175.6990  136.0500 N   0  0  0  0  0  0  0  0  0  0  0  0
  191.4120  177.1030  139.8420 N   0  0  0  0  0  0  0  0  0  0  0  0
  192.8840  175.9840  136.6750 C   0  0  0  0  0  0  0  0  0  0  0  0
  192.8970  176.4770  137.9930 C   0  0  0  0  0  3  0  0  0  0  0  0
  189.4500  176.6150  138.7660 N   0  0  0  0  0  2  0  0  0  0  0  0
  189.5260  177.5670  144.7880 S   0  0  0  0  0  0  0  0  0  0  0  0
  187.3990  176.7170  143.7670 C   0  0  0  0  0  3  0  0  0  0  0  0
  188.7290  176.9670  143.4380 C   0  0  0  0  0  0  0  0  0  0  0  0
  188.1440  177.4930  145.7450 C   0  0  0  0  0  0  0  0  0  0  0  0
  187.0830  177.0160  145.0560 N   0  0  0  0  0  0  0  0  0  0  0  0
  186.9740  178.1430  147.6930 O   0  0  0  0  0  0  0  0  0  0  0  0
  188.0830  177.8910  147.1530 C   0  0  0  0  0  0  0  0  0  0  0  0
  189.2210  177.9910  147.8820 F   0  0  0  0  0  0  0  0  0  0  0  0
  188.5060  178.7490  141.0400 C   0  0  0  0  0  2  0  0  0  0  0  0
  185.0440  178.5350  139.8950 O   0  0  0  0  0  0  0  0  0  0  0  0
  185.7850  179.0250  142.0550 N   0  0  0  0  0  2  0  0  0  0  0  0
  186.0150  178.7020  140.6790 C   0  0  0  0  0  0  0  0  0  0  0  0
  187.3450  178.5710  140.1820 N   0  0  0  0  0  2  0  0  0  0  0  0
  184.4510  179.1460  142.6210 C   0  0  0  0  0  2  0  0  0  0  0  0
  184.5320  179.6990  144.0340 C   0  0  0  0  0  2  0  0  0  0  0  0
  184.1340  178.8410  146.2250 O   0  0  0  0  0  1  0  0  0  0  0  0
  183.5830  178.9460  144.9480 C   0  0  0  0  0  2  0  0  0  0  0  0
  1 15  1  0  0  0  0
  2  1  2  0  0  0  0
  3 10  1  0  0  0  0
  4  5  1  0  0  0  0
  5  7  2  0  0  0  0
  5 12  1  0  0  0  0
  6  2  1  0  0  0  0
  7  9  1  0  0  0  0
  8  4  2  0  0  0  0
  8 10  1  0  0  0  0
  9  6  2  0  0  0  0
 10 11  2  0  0  0  0
 11  7  1  0  0  0  0
 12  6  1  0  0  0  0
 13 16  1  0  0  0  0
 14 17  1  0  0  0  0
 15 14  2  0  0  0  0
 15 13  1  0  0  0  0
 16 19  1  0  0  0  0
 17 16  2  0  0  0  0
 19 18  2  0  0  0  0
 19 20  1  0  0  0  0
 21  2  1  0  0  0  0
 22 24  2  0  0  0  0
 23 26  1  0  0  0  0
 24 23  1  0  0  0  0
 25 24  1  0  0  0  0
 25 21  1  0  0  0  0
 26 27  1  0  0  0  0
 27 29  1  0  0  0  0
 29 28  1  0  0  0  0
M  END
>  <MODEL>
4

>  <REMARK>
 VINA RESULT:      -7.4      3.846      7.921
  Name = 
  8 active torsions:
  status: ('A' for Active; 'I' for Inactive)
    1  A    between atoms: C_6  and  C_17
    2  A    between atoms: N_7  and  C_12
    3  A    between atoms: N_8  and  C_22
    4  A    between atoms: C_10  and  C_17
    5  A    between atoms: C_10  and  N_18
    6  A    between atoms: C_12  and  C_20
    7  A    between atoms: C_20  and  C_23
    8  A    between atoms: C_21  and  C_26
                            x       y       z     vdW  Elec       q    Type
                         _______ _______ _______ _____ _____    ______ ____

>  <TORSDO>
F 8

$$$$
=
 OpenBabel11042411013D

 29 31  0  0  0  0  0  0  0  0999 V2000
  190.3040  176.9990  143.0500 N   0  0  0  0  0  0  0  0  0  0  0  0
  189.3090  177.0000  142.2070 C   0  0  0  0  0  0  0  0  0  0  0  0
  189.5160  177.2400  134.9300 C   0  0  0  0  0  1  0  0  0  0  0  0
  191.4290  176.0830  137.9360 C   0  0  0  0  0  3  0  0  0  0  0  0
  190.5730  176.4870  138.9540 C   0  0  0  0  0  0  0  0  0  0  0  0
  189.5980  176.9160  140.7670 C   0  0  0  0  0  0  0  0  0  0  0  0
  189.4040  177.1180  138.6790 C   0  0  0  0  0  0  0  0  0  0  0  0
  191.0530  176.3440  136.6490 N   0  0  0  0  0  0  0  0  0  0  0  0
  188.7560  177.4060  139.8160 N   0  0  0  0  0  0  0  0  0  0  0  0
  189.8750  176.9810  136.3500 C   0  0  0  0  0  0  0  0  0  0  0  0
  189.0050  177.3920  137.3760 C   0  0  0  0  0  3  0  0  0  0  0  0
  190.7300  176.3410  140.2760 N   0  0  0  0  0  2  0  0  0  0  0  0
  188.9420  177.7070  145.3280 S   0  0  0  0  0  0  0  0  0  0  0  0
  191.2380  176.7000  145.3880 C   0  0  0  0  0  3  0  0  0  0  0  0
  190.2520  177.0840  144.4840 C   0  0  0  0  0  0  0  0  0  0  0  0
  189.6770  177.4610  146.8220 C   0  0  0  0  0  0  0  0  0  0  0  0
  190.9060  176.9130  146.6910 N   0  0  0  0  0  0  0  0  0  0  0  0
  187.9220  177.3730  148.4030 O   0  0  0  0  0  0  0  0  0  0  0  0
  189.0720  177.7940  148.1140 C   0  0  0  0  0  0  0  0  0  0  0  0
  189.7490  178.5590  149.0040 F   0  0  0  0  0  0  0  0  0  0  0  0
  187.8840  177.1380  142.6480 C   0  0  0  0  0  2  0  0  0  0  0  0
  185.4760  179.7000  141.6600 O   0  0  0  0  0  0  0  0  0  0  0  0
  185.2780  178.1880  143.4300 N   0  0  0  0  0  2  0  0  0  0  0  0
  185.9790  178.7480  142.3140 C   0  0  0  0  0  0  0  0  0  0  0  0
  187.2550  178.2370  141.9340 N   0  0  0  0  0  2  0  0  0  0  0  0
  183.9640  178.6530  143.8460 C   0  0  0  0  0  2  0  0  0  0  0  0
  183.9300  178.8420  145.3530 C   0  0  0  0  0  2  0  0  0  0  0  0
  185.5080  179.3720  147.0630 O   0  0  0  0  0  1  0  0  0  0  0  0
  185.2970  178.5600  145.9480 C   0  0  0  0  0  2  0  0  0  0  0  0
  1 15  1  0  0  0  0
  2 21  1  0  0  0  0
  2  1  2  0  0  0  0
  3 10  1  0  0  0  0
  4  5  1  0  0  0  0
  5 12  1  0  0  0  0
  6  2  1  0  0  0  0
  7  5  2  0  0  0  0
  7  9  1  0  0  0  0
  8  4  2  0  0  0  0
  9  6  2  0  0  0  0
 10  8  1  0  0  0  0
 10 11  2  0  0  0  0
 11  7  1  0  0  0  0
 12  6  1  0  0  0  0
 13 16  1  0  0  0  0
 14 17  1  0  0  0  0
 15 13  1  0  0  0  0
 15 14  2  0  0  0  0
 16 19  1  0  0  0  0
 17 16  2  0  0  0  0
 19 18  2  0  0  0  0
 19 20  1  0  0  0  0
 22 24  2  0  0  0  0
 23 26  1  0  0  0  0
 24 23  1  0  0  0  0
 25 24  1  0  0  0  0
 25 21  1  0  0  0  0
 26 27  1  0  0  0  0
 27 29  1  0  0  0  0
 29 28  1  0  0  0  0
M  END
>  <MODEL>
5

>  <REMARK>
 VINA RESULT:      -7.4      3.986      7.352
  Name = 
  8 active torsions:
  status: ('A' for Active; 'I' for Inactive)
    1  A    between atoms: C_6  and  C_17
    2  A    between atoms: N_7  and  C_12
    3  A    between atoms: N_8  and  C_22
    4  A    between atoms: C_10  and  C_17
    5  A    between atoms: C_10  and  N_18
    6  A    between atoms: C_12  and  C_20
    7  A    between atoms: C_20  and  C_23
    8  A    between atoms: C_21  and  C_26
                            x       y       z     vdW  Elec       q    Type
                         _______ _______ _______ _____ _____    ______ ____

>  <TORSDO>
F 8

$$$$
=
 OpenBabel11042411013D

 29 31  0  0  0  0  0  0  0  0999 V2000
  186.4060  178.0300  145.4540 N   0  0  0  0  0  0  0  0  0  0  0  0
  186.1550  177.9130  144.1810 C   0  0  0  0  0  0  0  0  0  0  0  0
  179.2140  179.8250  143.0780 C   0  0  0  0  0  1  0  0  0  0  0  0
  182.3280  178.7310  141.3070 C   0  0  0  0  0  3  0  0  0  0  0  0
  183.1960  178.5890  142.3830 C   0  0  0  0  0  0  0  0  0  0  0  0
  184.8120  178.2540  143.6860 C   0  0  0  0  0  0  0  0  0  0  0  0
  182.7890  178.8400  143.6520 C   0  0  0  0  0  0  0  0  0  0  0  0
  181.0490  179.1320  141.5720 N   0  0  0  0  0  0  0  0  0  0  0  0
  183.7970  178.6350  144.5100 N   0  0  0  0  0  0  0  0  0  0  0  0
  180.6170  179.3910  142.8480 C   0  0  0  0  0  0  0  0  0  0  0  0
  181.4920  179.2500  143.9410 C   0  0  0  0  0  3  0  0  0  0  0  0
  184.4820  178.2120  142.3660 N   0  0  0  0  0  2  0  0  0  0  0  0
  189.0480  177.2810  145.3730 S   0  0  0  0  0  0  0  0  0  0  0  0
  187.8530  177.7790  147.5220 C   0  0  0  0  0  3  0  0  0  0  0  0
  187.6320  177.7440  146.1480 C   0  0  0  0  0  0  0  0  0  0  0  0
  189.8970  177.1470  146.8200 C   0  0  0  0  0  0  0  0  0  0  0  0
  189.1210  177.4450  147.8860 N   0  0  0  0  0  0  0  0  0  0  0  0
  191.9500  176.9890  147.9820 O   0  0  0  0  0  0  0  0  0  0  0  0
  191.3040  176.7540  146.9260 C   0  0  0  0  0  0  0  0  0  0  0  0
  191.9190  176.1360  145.8880 F   0  0  0  0  0  0  0  0  0  0  0  0
  187.1690  177.3920  143.2090 C   0  0  0  0  0  2  0  0  0  0  0  0
  188.3570  179.0030  140.1530 O   0  0  0  0  0  0  0  0  0  0  0  0
  189.3480  177.2110  141.2780 N   0  0  0  0  0  2  0  0  0  0  0  0
  188.3250  178.2020  141.1240 C   0  0  0  0  0  0  0  0  0  0  0  0
  187.2570  178.2870  142.0660 N   0  0  0  0  0  2  0  0  0  0  0  0
  190.4720  177.0940  140.3630 C   0  0  0  0  0  2  0  0  0  0  0  0
  191.7580  177.5020  141.0620 C   0  0  0  0  0  2  0  0  0  0  0  0
  191.7170  178.3450  143.2940 O   0  0  0  0  0  1  0  0  0  0  0  0
  191.6790  177.1710  142.5410 C   0  0  0  0  0  2  0  0  0  0  0  0
  1 15  1  0  0  0  0
  2  1  2  0  0  0  0
  4  8  2  0  0  0  0
  4  5  1  0  0  0  0
  5  7  2  0  0  0  0
  6  2  1  0  0  0  0
  6  9  2  0  0  0  0
  7 11  1  0  0  0  0
  7  9  1  0  0  0  0
  8 10  1  0  0  0  0
 10  3  1  0  0  0  0
 10 11  2  0  0  0  0
 12  5  1  0  0  0  0
 12  6  1  0  0  0  0
 13 15  1  0  0  0  0
 13 16  1  0  0  0  0
 14 17  1  0  0  0  0
 15 14  2  0  0  0  0
 16 19  1  0  0  0  0
 16 17  2  0  0  0  0
 19 18  2  0  0  0  0
 20 19  1  0  0  0  0
 21  2  1  0  0  0  0
 22 24  2  0  0  0  0
 24 23  1  0  0  0  0
 24 25  1  0  0  0  0
 25 21  1  0  0  0  0
 26 27  1  0  0  0  0
 26 23  1  0  0  0  0
 27 29  1  0  0  0  0
 29 28  1  0  0  0  0
M  END
>  <MODEL>
6

>  <REMARK>
 VINA RESULT:      -7.3      3.374      6.438
  Name = 
  8 active torsions:
  status: ('A' for Active; 'I' for Inactive)
    1  A    between atoms: C_6  and  C_17
    2  A    between atoms: N_7  and  C_12
    3  A    between atoms: N_8  and  C_22
    4  A    between atoms: C_10  and  C_17
    5  A    between atoms: C_10  and  N_18
    6  A    between atoms: C_12  and  C_20
    7  A    between atoms: C_20  and  C_23
    8  A    between atoms: C_21  and  C_26
                            x       y       z     vdW  Elec       q    Type
                         _______ _______ _______ _____ _____    ______ ____

>  <TORSDO>
F 8

$$$$
=
 OpenBabel11042411013D

 29 31  0  0  0  0  0  0  0  0999 V2000
  187.7230  177.8250  144.7580 N   0  0  0  0  0  0  0  0  0  0  0  0
  187.2420  177.7300  143.5500 C   0  0  0  0  0  0  0  0  0  0  0  0
  180.5590  179.2150  141.0610 C   0  0  0  0  0  1  0  0  0  0  0  0
  182.6000  179.0020  144.1950 C   0  0  0  0  0  3  0  0  0  0  0  0
  183.8320  178.6300  143.6710 C   0  0  0  0  0  0  0  0  0  0  0  0
  185.8300  178.0740  143.3180 C   0  0  0  0  0  0  0  0  0  0  0  0
  184.0040  178.4500  142.3380 C   0  0  0  0  0  0  0  0  0  0  0  0
  181.5670  179.1820  143.3190 N   0  0  0  0  0  0  0  0  0  0  0  0
  185.2690  178.0950  142.0780 N   0  0  0  0  0  0  0  0  0  0  0  0
  181.7190  179.0060  141.9670 C   0  0  0  0  0  0  0  0  0  0  0  0
  182.9640  178.6280  141.4320 C   0  0  0  0  0  3  0  0  0  0  0  0
  184.9770  178.3980  144.3280 N   0  0  0  0  0  2  0  0  0  0  0  0
  189.3990  176.8150  146.6860 S   0  0  0  0  0  0  0  0  0  0  0  0
  190.2490  177.7940  144.5390 C   0  0  0  0  0  3  0  0  0  0  0  0
  189.0560  177.5320  145.2070 C   0  0  0  0  0  0  0  0  0  0  0  0
  191.0600  176.8580  146.4200 C   0  0  0  0  0  0  0  0  0  0  0  0
  191.3610  177.4120  145.2240 N   0  0  0  0  0  0  0  0  0  0  0  0
  192.2590  176.9510  148.4550 O   0  0  0  0  0  0  0  0  0  0  0  0
  192.0670  176.3610  147.3600 C   0  0  0  0  0  0  0  0  0  0  0  0
  192.8000  175.2620  147.0530 F   0  0  0  0  0  0  0  0  0  0  0  0
  188.0590  177.2310  142.3980 C   0  0  0  0  0  2  0  0  0  0  0  0
  188.9650  179.0070  139.3380 O   0  0  0  0  0  0  0  0  0  0  0  0
  189.4330  176.7800  139.8650 N   0  0  0  0  0  2  0  0  0  0  0  0
  188.8710  178.0630  140.1660 C   0  0  0  0  0  0  0  0  0  0  0  0
  188.1950  178.2810  141.4020 N   0  0  0  0  0  2  0  0  0  0  0  0
  190.1540  176.5080  138.6320 C   0  0  0  0  0  2  0  0  0  0  0  0
  191.6500  176.6340  138.8630 C   0  0  0  0  0  2  0  0  0  0  0  0
  193.7080  176.7500  137.6620 O   0  0  0  0  0  1  0  0  0  0  0  0
  192.4100  176.2410  137.6110 C   0  0  0  0  0  2  0  0  0  0  0  0
  1 15  1  0  0  0  0
  2  1  2  0  0  0  0
  3 10  1  0  0  0  0
  5  4  1  0  0  0  0
  5 12  1  0  0  0  0
  6  2  1  0  0  0  0
  6 12  1  0  0  0  0
  7  5  2  0  0  0  0
  8  4  2  0  0  0  0
  9  7  1  0  0  0  0
  9  6  2  0  0  0  0
 10  8  1  0  0  0  0
 11 10  2  0  0  0  0
 11  7  1  0  0  0  0
 14 15  2  0  0  0  0
 14 17  1  0  0  0  0
 15 13  1  0  0  0  0
 16 13  1  0  0  0  0
 16 19  1  0  0  0  0
 17 16  2  0  0  0  0
 19 18  2  0  0  0  0
 20 19  1  0  0  0  0
 21  2  1  0  0  0  0
 22 24  2  0  0  0  0
 23 24  1  0  0  0  0
 24 25  1  0  0  0  0
 25 21  1  0  0  0  0
 26 27  1  0  0  0  0
 26 23  1  0  0  0  0
 29 28  1  0  0  0  0
 29 27  1  0  0  0  0
M  END
>  <MODEL>
7

>  <REMARK>
 VINA RESULT:      -7.2      3.386      6.732
  Name = 
  8 active torsions:
  status: ('A' for Active; 'I' for Inactive)
    1  A    between atoms: C_6  and  C_17
    2  A    between atoms: N_7  and  C_12
    3  A    between atoms: N_8  and  C_22
    4  A    between atoms: C_10  and  C_17
    5  A    between atoms: C_10  and  N_18
    6  A    between atoms: C_12  and  C_20
    7  A    between atoms: C_20  and  C_23
    8  A    between atoms: C_21  and  C_26
                            x       y       z     vdW  Elec       q    Type
                         _______ _______ _______ _____ _____    ______ ____

>  <TORSDO>
F 8

$$$$
=
 OpenBabel11042411013D

 29 31  0  0  0  0  0  0  0  0999 V2000
  185.7650  177.9330  143.3920 N   0  0  0  0  0  0  0  0  0  0  0  0
  185.9460  178.5220  142.2430 C   0  0  0  0  0  0  0  0  0  0  0  0
  181.0640  180.1780  137.0970 C   0  0  0  0  0  1  0  0  0  0  0  0
  181.6540  177.9450  140.0470 C   0  0  0  0  0  3  0  0  0  0  0  0
  182.9260  178.3550  140.4250 C   0  0  0  0  0  0  0  0  0  0  0  0
  184.8020  178.6580  141.3270 C   0  0  0  0  0  0  0  0  0  0  0  0
  183.5820  179.3290  139.7460 C   0  0  0  0  0  0  0  0  0  0  0  0
  181.0850  178.5580  138.9660 N   0  0  0  0  0  0  0  0  0  0  0  0
  184.7840  179.5480  140.2970 N   0  0  0  0  0  0  0  0  0  0  0  0
  181.7300  179.5460  138.2650 C   0  0  0  0  0  0  0  0  0  0  0  0
  183.0200  179.9640  138.6440 C   0  0  0  0  0  3  0  0  0  0  0  0
  183.6750  177.9030  141.4400 N   0  0  0  0  0  2  0  0  0  0  0  0
  186.5930  178.2770  145.9890 S   0  0  0  0  0  0  0  0  0  0  0  0
  187.9170  176.9600  144.3140 C   0  0  0  0  0  3  0  0  0  0  0  0
  186.7340  177.6850  144.4240 C   0  0  0  0  0  0  0  0  0  0  0  0
  188.0460  177.5810  146.4750 C   0  0  0  0  0  0  0  0  0  0  0  0
  188.6410  176.9060  145.4650 N   0  0  0  0  0  0  0  0  0  0  0  0
  187.8550  177.8450  148.8160 O   0  0  0  0  0  0  0  0  0  0  0  0
  188.6110  177.6860  147.8220 C   0  0  0  0  0  0  0  0  0  0  0  0
  189.9520  177.6130  148.0050 F   0  0  0  0  0  0  0  0  0  0  0  0
  187.2870  179.0160  141.7970 C   0  0  0  0  0  2  0  0  0  0  0  0
  189.3650  176.9840  139.5850 O   0  0  0  0  0  0  0  0  0  0  0  0
  189.9170  177.7580  141.7180 N   0  0  0  0  0  2  0  0  0  0  0  0
  189.0230  177.6360  140.6060 C   0  0  0  0  0  0  0  0  0  0  0  0
  187.7350  178.2480  140.6470 N   0  0  0  0  0  2  0  0  0  0  0  0
  191.2510  177.1770  141.7210 C   0  0  0  0  0  2  0  0  0  0  0  0
  191.6600  176.8180  143.1400 C   0  0  0  0  0  2  0  0  0  0  0  0
  191.8340  177.6960  145.3520 O   0  0  0  0  0  1  0  0  0  0  0  0
  191.6610  178.0570  144.0150 C   0  0  0  0  0  2  0  0  0  0  0  0
  1 15  1  0  0  0  0
  2  1  2  0  0  0  0
  3 10  1  0  0  0  0
  4  5  1  0  0  0  0
  5 12  1  0  0  0  0
  6 12  1  0  0  0  0
  6  2  1  0  0  0  0
  7  9  1  0  0  0  0
  7  5  2  0  0  0  0
  8  4  2  0  0  0  0
  9  6  2  0  0  0  0
 10 11  2  0  0  0  0
 10  8  1  0  0  0  0
 11  7  1  0  0  0  0
 13 16  1  0  0  0  0
 14 15  2  0  0  0  0
 14 17  1  0  0  0  0
 15 13  1  0  0  0  0
 16 19  1  0  0  0  0
 17 16  2  0  0  0  0
 19 20  1  0  0  0  0
 19 18  2  0  0  0  0
 21  2  1  0  0  0  0
 22 24  2  0  0  0  0
 23 26  1  0  0  0  0
 24 25  1  0  0  0  0
 24 23  1  0  0  0  0
 25 21  1  0  0  0  0
 26 27  1  0  0  0  0
 27 29  1  0  0  0  0
 29 28  1  0  0  0  0
M  END
>  <MODEL>
8

>  <REMARK>
 VINA RESULT:      -7.1      3.969      6.885
  Name = 
  8 active torsions:
  status: ('A' for Active; 'I' for Inactive)
    1  A    between atoms: C_6  and  C_17
    2  A    between atoms: N_7  and  C_12
    3  A    between atoms: N_8  and  C_22
    4  A    between atoms: C_10  and  C_17
    5  A    between atoms: C_10  and  N_18
    6  A    between atoms: C_12  and  C_20
    7  A    between atoms: C_20  and  C_23
    8  A    between atoms: C_21  and  C_26
                            x       y       z     vdW  Elec       q    Type
                         _______ _______ _______ _____ _____    ______ ____

>  <TORSDO>
F 8

$$$$
=
 OpenBabel11042411013D

 29 31  0  0  0  0  0  0  0  0999 V2000
  186.5680  177.8450  143.3190 N   0  0  0  0  0  0  0  0  0  0  0  0
  186.6200  178.4210  142.1510 C   0  0  0  0  0  0  0  0  0  0  0  0
  181.2200  180.2440  137.6160 C   0  0  0  0  0  1  0  0  0  0  0  0
  181.9710  178.3420  140.7550 C   0  0  0  0  0  3  0  0  0  0  0  0
  183.3380  178.5630  140.8650 C   0  0  0  0  0  0  0  0  0  0  0  0
  185.3680  178.6400  141.4110 C   0  0  0  0  0  0  0  0  0  0  0  0
  184.0050  179.3090  139.9500 C   0  0  0  0  0  0  0  0  0  0  0  0
  181.3210  178.9010  139.6910 N   0  0  0  0  0  0  0  0  0  0  0  0
  185.3050  179.3780  140.2690 N   0  0  0  0  0  0  0  0  0  0  0  0
  181.9770  179.6590  138.7540 C   0  0  0  0  0  0  0  0  0  0  0  0
  183.3620  179.8860  138.8610 C   0  0  0  0  0  3  0  0  0  0  0  0
  184.1760  178.1200  141.8120 N   0  0  0  0  0  2  0  0  0  0  0  0
  187.6540  177.8770  145.8430 S   0  0  0  0  0  0  0  0  0  0  0  0
  188.8640  176.9170  143.8660 C   0  0  0  0  0  3  0  0  0  0  0  0
  187.6580  177.5270  144.2010 C   0  0  0  0  0  0  0  0  0  0  0  0
  189.1920  177.2320  146.0720 C   0  0  0  0  0  0  0  0  0  0  0  0
  189.7120  176.7550  144.9180 N   0  0  0  0  0  0  0  0  0  0  0  0
  190.8900  176.4330  147.5090 O   0  0  0  0  0  0  0  0  0  0  0  0
  189.8930  177.1860  147.3570 C   0  0  0  0  0  0  0  0  0  0  0  0
  189.4720  177.9560  148.3900 F   0  0  0  0  0  0  0  0  0  0  0  0
  187.9140  178.8200  141.5110 C   0  0  0  0  0  2  0  0  0  0  0  0
  189.3060  176.7010  138.8810 O   0  0  0  0  0  0  0  0  0  0  0  0
  188.5720  178.9090  138.6700 N   0  0  0  0  0  2  0  0  0  0  0  0
  188.8100  177.7190  139.4320 C   0  0  0  0  0  0  0  0  0  0  0  0
  188.4920  177.6780  140.8210 N   0  0  0  0  0  2  0  0  0  0  0  0
  188.8540  178.9990  137.2460 C   0  0  0  0  0  2  0  0  0  0  0  0
  187.5560  179.0050  136.4570 C   0  0  0  0  0  2  0  0  0  0  0  0
  185.6890  177.6440  137.0560 O   0  0  0  0  0  1  0  0  0  0  0  0
  186.9430  177.6170  136.4440 C   0  0  0  0  0  2  0  0  0  0  0  0
  1 15  1  0  0  0  0
  2  1  2  0  0  0  0
  3 10  1  0  0  0  0
  4  5  1  0  0  0  0
  5 12  1  0  0  0  0
  6 12  1  0  0  0  0
  6  2  1  0  0  0  0
  7  9  1  0  0  0  0
  7  5  2  0  0  0  0
  8  4  2  0  0  0  0
  9  6  2  0  0  0  0
 10 11  2  0  0  0  0
 10  8  1  0  0  0  0
 11  7  1  0  0  0  0
 13 16  1  0  0  0  0
 14 15  2  0  0  0  0
 14 17  1  0  0  0  0
 15 13  1  0  0  0  0
 16 19  1  0  0  0  0
 17 16  2  0  0  0  0
 19 18  2  0  0  0  0
 19 20  1  0  0  0  0
 21  2  1  0  0  0  0
 22 24  2  0  0  0  0
 23 24  1  0  0  0  0
 24 25  1  0  0  0  0
 25 21  1  0  0  0  0
 26 23  1  0  0  0  0
 27 26  1  0  0  0  0
 29 27  1  0  0  0  0
 29 28  1  0  0  0  0
M  END
>  <MODEL>
9

>  <REMARK>
 VINA RESULT:      -7.1      4.536      7.445
  Name = 
  8 active torsions:
  status: ('A' for Active; 'I' for Inactive)
    1  A    between atoms: C_6  and  C_17
    2  A    between atoms: N_7  and  C_12
    3  A    between atoms: N_8  and  C_22
    4  A    between atoms: C_10  and  C_17
    5  A    between atoms: C_10  and  N_18
    6  A    between atoms: C_12  and  C_20
    7  A    between atoms: C_20  and  C_23
    8  A    between atoms: C_21  and  C_26
                            x       y       z     vdW  Elec       q    Type
                         _______ _______ _______ _____ _____    ______ ____

>  <TORSDO>
F 8

$$$$
