=
 OpenBabel11032419143D

 30 35  0  0  1  0  0  0  0  0999 V2000
  192.2980  175.4920  146.9480 N   0  0  0  0  0  0  0  0  0  0  0  0
  191.0370  177.1520  148.0910 O   0  0  0  0  0  0  0  0  0  0  0  0
  191.2460  175.8540  143.5170 C   0  0  0  0  0  3  0  0  0  0  0  0
  187.6040  177.9310  144.8110 C   0  0  0  0  0  0  0  0  0  0  0  0
  187.5240  178.0950  142.4130 N   0  0  0  0  0  0  0  0  0  0  0  0
  184.2040  178.3200  143.5410 N   0  0  0  0  0  0  0  0  0  0  0  0
  188.2310  177.9400  143.5700 C   0  0  0  0  0  0  0  0  0  0  0  0
  188.6320  177.7810  145.8070 C   0  0  0  0  0  0  0  0  0  0  0  0
  188.4380  177.6790  147.0470 O   0  0  0  0  0  0  0  0  0  0  0  0
  189.7240  177.8350  143.7130 C   0  0  1  0  0  3  0  0  0  0  0  0
  186.1720  178.2090  142.5260 C   0  0  0  0  0  0  0  0  0  0  0  0
  189.9120  177.7020  145.1770 N   0  0  0  0  0  0  0  0  0  0  0  0
  190.3200  176.6500  142.9520 C   0  0  0  0  0  0  0  0  0  0  0  0
  184.1140  178.4210  142.1870 C   0  0  0  0  0  0  0  0  0  0  0  0
  191.3990  176.5910  147.0240 C   0  0  0  0  0  0  0  0  0  0  0  0
  191.6220  176.0490  144.9230 C   0  0  0  0  0  0  0  0  0  0  0  0
  182.8140  178.5890  141.4850 C   0  0  0  0  0  1  0  0  0  0  0  0
  192.4230  175.1720  145.7180 N   0  0  0  0  0  0  0  0  0  0  0  0
  186.2120  178.0480  144.9420 C   0  0  0  0  0  3  0  0  0  0  0  0
  185.2980  178.3580  141.5230 N   0  0  0  0  0  2  0  0  0  0  0  0
  185.5240  178.1860  143.7320 C   0  0  0  0  0  0  0  0  0  0  0  0
  191.0080  176.9330  145.6750 C   0  0  0  0  0  0  0  0  0  0  0  0
  190.0110  176.4700  141.5030 C   0  0  0  0  0  2  0  0  0  0  0  0
  191.1800  176.7050  139.4870 C   0  0  0  0  0  2  0  0  0  0  0  0
  190.7780  177.4230  140.7060 N   0  0  0  0  0  0  0  0  0  0  0  0
  190.1650  177.7480  139.3870 C   0  0  2  0  0  3  0  0  0  0  0  0
  188.9010  176.0660  138.2710 F   0  0  0  0  0  0  0  0  0  0  0  0
  188.7840  177.1380  139.1380 C   0  0  2  0  0  3  0  0  0  0  0  0
  188.6300  179.2090  137.9710 O   0  0  0  0  0  1  0  0  0  0  0  0
  187.8690  178.1840  138.5320 C   0  0  0  0  0  2  0  0  0  0  0  0
  1 15  1  0  0  0  0
  3 16  1  0  0  0  0
  4 19  1  0  0  0  0
  4  8  1  0  0  0  0
  5 11  2  0  0  0  0
  5  7  1  0  0  0  0
  6 21  1  0  0  0  0
  7 10  1  0  0  0  0
  7  4  2  0  0  0  0
  8  9  2  0  0  0  0
 10 13  1  6  0  0  0
 10 12  1  0  0  0  0
 11 21  1  0  0  0  0
 12 22  1  0  0  0  0
 12  8  1  0  0  0  0
 13  3  2  0  0  0  0
 14  6  2  0  0  0  0
 15  2  2  0  0  0  0
 16 22  2  0  0  0  0
 16 18  1  0  0  0  0
 17 14  1  0  0  0  0
 18  1  2  0  0  0  0
 20 14  1  0  0  0  0
 20 11  1  0  0  0  0
 21 19  2  0  0  0  0
 22 15  1  0  0  0  0
 23 13  1  0  0  0  0
 24 25  1  0  0  0  0
 25 23  1  0  0  0  0
 26 28  1  1  0  0  0
 26 24  1  0  0  0  0
 26 25  1  0  0  0  0
 28 27  1  6  0  0  0
 29 30  1  0  0  0  0
 30 28  1  0  0  0  0
M  END
>  <MODEL>
1

>  <REMARK>
 VINA RESULT:      -9.2      0.000      0.000
  Name = 
  4 active torsions:
  status: ('A' for Active; 'I' for Inactive)
    1  A    between atoms: N_10  and  C_23
    2  A    between atoms: C_11  and  C_20
    3  A    between atoms: C_18  and  C_23
    4  A    between atoms: C_20  and  C_26
                            x       y       z     vdW  Elec       q    Type
                         _______ _______ _______ _____ _____    ______ ____

>  <TORSDO>
F 4

$$$$
=
 OpenBabel11032419143D

 30 35  0  0  1  0  0  0  0  0999 V2000
  189.2850  178.1590  148.6260 N   0  0  0  0  0  0  0  0  0  0  0  0
  191.1180  176.9020  147.7820 O   0  0  0  0  0  0  0  0  0  0  0  0
  186.9270  178.1380  145.8980 C   0  0  0  0  0  3  0  0  0  0  0  0
  190.1380  177.1400  143.0780 C   0  0  0  0  0  0  0  0  0  0  0  0
  188.1490  177.0290  141.7290 N   0  0  0  0  0  0  0  0  0  0  0  0
  190.8060  177.7220  139.5370 N   0  0  0  0  0  0  0  0  0  0  0  0
  188.7640  176.9700  142.9470 C   0  0  0  0  0  0  0  0  0  0  0  0
  190.4540  176.9880  144.4740 C   0  0  0  0  0  0  0  0  0  0  0  0
  191.5980  177.1270  144.9820 O   0  0  0  0  0  0  0  0  0  0  0  0
  188.1250  176.6550  144.2710 C   0  0  1  0  0  3  0  0  0  0  0  0
  188.9380  177.2940  140.6520 C   0  0  0  0  0  0  0  0  0  0  0  0
  189.2650  176.7150  145.2160 N   0  0  0  0  0  0  0  0  0  0  0  0
  187.0150  177.6360  144.6520 C   0  0  0  0  0  0  0  0  0  0  0  0
  189.7070  177.6640  138.7370 C   0  0  0  0  0  0  0  0  0  0  0  0
  189.9490  177.3520  147.6610 C   0  0  0  0  0  0  0  0  0  0  0  0
  187.9680  177.8320  146.8870 C   0  0  0  0  0  0  0  0  0  0  0  0
  189.7800  177.8700  137.2660 C   0  0  0  0  0  1  0  0  0  0  0  0
  188.1280  178.4440  148.1690 N   0  0  0  0  0  0  0  0  0  0  0  0
  190.9620  177.4120  141.9750 C   0  0  0  0  0  3  0  0  0  0  0  0
  188.5370  177.4030  139.3790 N   0  0  0  0  0  2  0  0  0  0  0  0
  190.2900  177.4820  140.7510 C   0  0  0  0  0  0  0  0  0  0  0  0
  189.0380  177.1450  146.5590 C   0  0  0  0  0  0  0  0  0  0  0  0
  185.9060  177.9100  143.6910 C   0  0  0  0  0  2  0  0  0  0  0  0
  184.6370  179.8650  143.9230 C   0  0  0  0  0  2  0  0  0  0  0  0
  184.7620  178.4790  144.3990 N   0  0  0  0  0  0  0  0  0  0  0  0
  183.6370  178.8870  143.5110 C   0  0  2  0  0  3  0  0  0  0  0  0
  184.6360  179.4550  141.4250 F   0  0  0  0  0  0  0  0  0  0  0  0
  183.8070  178.5290  142.0320 C   0  0  2  0  0  3  0  0  0  0  0  0
  181.4450  178.6880  142.3010 O   0  0  0  0  0  1  0  0  0  0  0  0
  182.4530  178.5370  141.3500 C   0  0  0  0  0  2  0  0  0  0  0  0
  3 16  1  0  0  0  0
  4  8  1  0  0  0  0
  5  7  1  0  0  0  0
  6 21  1  0  0  0  0
  7  4  2  0  0  0  0
  8  9  2  0  0  0  0
  8 12  1  0  0  0  0
 10  7  1  6  0  0  0
 10 13  1  0  0  0  0
 10 12  1  0  0  0  0
 11 21  1  0  0  0  0
 11  5  2  0  0  0  0
 12 22  1  0  0  0  0
 13  3  2  0  0  0  0
 14 20  1  0  0  0  0
 14  6  2  0  0  0  0
 15  2  2  0  0  0  0
 15  1  1  0  0  0  0
 16 18  1  0  0  0  0
 17 14  1  0  0  0  0
 18  1  2  0  0  0  0
 19  4  1  0  0  0  0
 20 11  1  0  0  0  0
 21 19  2  0  0  0  0
 22 16  2  0  0  0  0
 22 15  1  0  0  0  0
 23 25  1  0  0  0  0
 23 13  1  0  0  0  0
 24 25  1  0  0  0  0
 26 28  1  6  0  0  0
 26 24  1  0  0  0  0
 26 25  1  0  0  0  0
 28 27  1  6  0  0  0
 30 28  1  0  0  0  0
 30 29  1  0  0  0  0
M  END
>  <MODEL>
2

>  <REMARK>
 VINA RESULT:      -9.0      2.513      5.227
  Name = 
  4 active torsions:
  status: ('A' for Active; 'I' for Inactive)
    1  A    between atoms: N_10  and  C_23
    2  A    between atoms: C_11  and  C_20
    3  A    between atoms: C_18  and  C_23
    4  A    between atoms: C_20  and  C_26
                            x       y       z     vdW  Elec       q    Type
                         _______ _______ _______ _____ _____    ______ ____

>  <TORSDO>
F 4

$$$$
=
 OpenBabel11032419143D

 30 35  0  0  1  0  0  0  0  0999 V2000
  183.2860  179.8020  139.4310 N   0  0  0  0  0  0  0  0  0  0  0  0
  181.9320  178.9000  141.1650 O   0  0  0  0  0  0  0  0  0  0  0  0
  186.6350  178.9170  140.4340 C   0  0  0  0  0  3  0  0  0  0  0  0
  185.2850  178.3350  144.5700 C   0  0  0  0  0  0  0  0  0  0  0  0
  187.5800  177.6140  144.6190 N   0  0  0  0  0  0  0  0  0  0  0  0
  186.7760  178.6180  147.8890 N   0  0  0  0  0  0  0  0  0  0  0  0
  186.4210  177.8450  143.9350 C   0  0  0  0  0  0  0  0  0  0  0  0
  184.2490  178.4310  143.5750 C   0  0  0  0  0  0  0  0  0  0  0  0
  183.0910  178.8850  143.7690 O   0  0  0  0  0  0  0  0  0  0  0  0
  186.1530  177.5570  142.4830 C   0  0  1  0  0  3  0  0  0  0  0  0
  187.5820  177.9180  145.9470 C   0  0  0  0  0  0  0  0  0  0  0  0
  184.7450  177.9880  142.3110 N   0  0  0  0  0  0  0  0  0  0  0  0
  187.0970  178.3000  141.5380 C   0  0  0  0  0  0  0  0  0  0  0  0
  188.0740  178.2170  147.9630 C   0  0  0  0  0  0  0  0  0  0  0  0
  183.0560  179.0550  140.6190 C   0  0  0  0  0  0  0  0  0  0  0  0
  185.1900  178.9770  140.1790 C   0  0  0  0  0  0  0  0  0  0  0  0
  188.8490  178.2540  149.2310 C   0  0  0  0  0  1  0  0  0  0  0  0
  184.5360  179.7610  139.1780 N   0  0  0  0  0  0  0  0  0  0  0  0
  185.2750  178.6510  145.9360 C   0  0  0  0  0  3  0  0  0  0  0  0
  188.6110  177.7780  146.7930 N   0  0  0  0  0  2  0  0  0  0  0  0
  186.4860  178.4180  146.5960 C   0  0  0  0  0  0  0  0  0  0  0  0
  184.3250  178.5150  141.0510 C   0  0  0  0  0  0  0  0  0  0  0  0
  188.5730  178.1970  141.7330 C   0  0  0  0  0  2  0  0  0  0  0  0
  190.3650  177.0260  140.7820 C   0  0  0  0  0  2  0  0  0  0  0  0
  189.0320  176.8560  141.3810 N   0  0  0  0  0  0  0  0  0  0  0  0
  190.2590  176.4210  142.1050 C   0  0  2  0  0  3  0  0  0  0  0  0
  191.7840  178.1610  142.6690 F   0  0  0  0  0  0  0  0  0  0  0  0
  190.7610  177.3850  143.1820 C   0  0  2  0  0  3  0  0  0  0  0  0
  191.6700  177.4680  145.3830 O   0  0  0  0  0  1  0  0  0  0  0  0
  191.2710  176.5950  144.3720 C   0  0  0  0  0  2  0  0  0  0  0  0
  1 15  1  0  0  0  0
  3 13  2  0  0  0  0
  4 19  1  0  0  0  0
  5 11  2  0  0  0  0
  6 14  2  0  0  0  0
  7  4  2  0  0  0  0
  7  5  1  0  0  0  0
  8  9  2  0  0  0  0
  8  4  1  0  0  0  0
 10 13  1  6  0  0  0
 10  7  1  0  0  0  0
 11 21  1  0  0  0  0
 11 20  1  0  0  0  0
 12 10  1  0  0  0  0
 12  8  1  0  0  0  0
 13 23  1  0  0  0  0
 14 17  1  0  0  0  0
 15 22  1  0  0  0  0
 15  2  2  0  0  0  0
 16  3  1  0  0  0  0
 16 22  2  0  0  0  0
 18  1  2  0  0  0  0
 18 16  1  0  0  0  0
 19 21  2  0  0  0  0
 20 14  1  0  0  0  0
 21  6  1  0  0  0  0
 22 12  1  0  0  0  0
 24 25  1  0  0  0  0
 24 26  1  0  0  0  0
 25 23  1  0  0  0  0
 25 26  1  0  0  0  0
 26 28  1  1  0  0  0
 28 27  1  6  0  0  0
 28 30  1  0  0  0  0
 30 29  1  0  0  0  0
M  END
>  <MODEL>
3

>  <REMARK>
 VINA RESULT:      -8.6      2.801      6.537
  Name = 
  4 active torsions:
  status: ('A' for Active; 'I' for Inactive)
    1  A    between atoms: N_10  and  C_23
    2  A    between atoms: C_11  and  C_20
    3  A    between atoms: C_18  and  C_23
    4  A    between atoms: C_20  and  C_26
                            x       y       z     vdW  Elec       q    Type
                         _______ _______ _______ _____ _____    ______ ____

>  <TORSDO>
F 4

$$$$
=
 OpenBabel11032419143D

 30 35  0  0  1  0  0  0  0  0999 V2000
  186.4590  179.0590  148.1370 N   0  0  0  0  0  0  0  0  0  0  0  0
  188.1560  177.3960  148.2170 O   0  0  0  0  0  0  0  0  0  0  0  0
  185.4600  179.0740  144.6720 C   0  0  0  0  0  3  0  0  0  0  0  0
  189.2350  177.1460  143.5340 C   0  0  0  0  0  0  0  0  0  0  0  0
  187.9870  177.2000  141.4780 N   0  0  0  0  0  0  0  0  0  0  0  0
  191.3840  177.1050  140.5840 N   0  0  0  0  0  0  0  0  0  0  0  0
  188.0300  177.2040  142.8430 C   0  0  0  0  0  0  0  0  0  0  0  0
  188.9200  177.1370  144.9390 C   0  0  0  0  0  0  0  0  0  0  0  0
  189.7620  177.1420  145.8750 O   0  0  0  0  0  0  0  0  0  0  0  0
  186.8590  177.1930  143.7860 C   0  0  1  0  0  3  0  0  0  0  0  0
  189.1820  177.1700  140.8240 C   0  0  0  0  0  0  0  0  0  0  0  0
  187.5040  177.1820  145.1200 N   0  0  0  0  0  0  0  0  0  0  0  0
  185.9320  178.3960  143.6090 C   0  0  0  0  0  0  0  0  0  0  0  0
  190.7180  177.1300  139.3980 C   0  0  0  0  0  0  0  0  0  0  0  0
  187.2630  178.0220  147.5880 C   0  0  0  0  0  0  0  0  0  0  0  0
  185.9200  178.7300  146.0240 C   0  0  0  0  0  0  0  0  0  0  0  0
  191.4210  177.1140  138.0880 C   0  0  0  0  0  1  0  0  0  0  0  0
  185.6780  179.4770  147.2190 N   0  0  0  0  0  0  0  0  0  0  0  0
  190.4710  177.1140  142.8720 C   0  0  0  0  0  3  0  0  0  0  0  0
  189.3620  177.1700  139.4970 N   0  0  0  0  0  2  0  0  0  0  0  0
  190.3840  177.1310  141.4760 C   0  0  0  0  0  0  0  0  0  0  0  0
  186.8530  177.8280  146.2170 C   0  0  0  0  0  0  0  0  0  0  0  0
  185.3940  178.7240  142.2560 C   0  0  0  0  0  2  0  0  0  0  0  0
  183.1160  178.7390  141.7090 C   0  0  0  0  0  2  0  0  0  0  0  0
  184.2660  177.8510  141.9420 N   0  0  0  0  0  0  0  0  0  0  0  0
  183.7090  178.0430  140.5730 C   0  0  2  0  0  3  0  0  0  0  0  0
  183.6180  179.9850  139.1990 F   0  0  0  0  0  0  0  0  0  0  0  0
  184.4810  179.0200  139.6830 C   0  0  2  0  0  3  0  0  0  0  0  0
  186.4430  178.6230  138.3900 O   0  0  0  0  0  1  0  0  0  0  0  0
  185.1020  178.2660  138.5220 C   0  0  0  0  0  2  0  0  0  0  0  0
  3 16  1  0  0  0  0
  4  8  1  0  0  0  0
  5  7  1  0  0  0  0
  6 21  1  0  0  0  0
  7  4  2  0  0  0  0
  8 12  1  0  0  0  0
  8  9  2  0  0  0  0
 10  7  1  6  0  0  0
 10 12  1  0  0  0  0
 11 21  1  0  0  0  0
 11  5  2  0  0  0  0
 12 22  1  0  0  0  0
 13 10  1  0  0  0  0
 13  3  2  0  0  0  0
 14 20  1  0  0  0  0
 14  6  2  0  0  0  0
 15  1  1  0  0  0  0
 15  2  2  0  0  0  0
 16 22  2  0  0  0  0
 16 18  1  0  0  0  0
 17 14  1  0  0  0  0
 18  1  2  0  0  0  0
 19  4  1  0  0  0  0
 20 11  1  0  0  0  0
 21 19  2  0  0  0  0
 22 15  1  0  0  0  0
 23 13  1  0  0  0  0
 24 25  1  0  0  0  0
 25 23  1  0  0  0  0
 26 28  1  6  0  0  0
 26 24  1  0  0  0  0
 26 25  1  0  0  0  0
 28 27  1  6  0  0  0
 29 30  1  0  0  0  0
 30 28  1  0  0  0  0
M  END
>  <MODEL>
4

>  <REMARK>
 VINA RESULT:      -8.5      2.416      5.340
  Name = 
  4 active torsions:
  status: ('A' for Active; 'I' for Inactive)
    1  A    between atoms: N_10  and  C_23
    2  A    between atoms: C_11  and  C_20
    3  A    between atoms: C_18  and  C_23
    4  A    between atoms: C_20  and  C_26
                            x       y       z     vdW  Elec       q    Type
                         _______ _______ _______ _____ _____    ______ ____

>  <TORSDO>
F 4

$$$$
=
 OpenBabel11032419143D

 30 35  0  0  1  0  0  0  0  0999 V2000
  184.5010  178.3740  142.6290 N   0  0  0  0  0  0  0  0  0  0  0  0
  184.6570  179.4680  140.5240 O   0  0  0  0  0  0  0  0  0  0  0  0
  187.8780  177.2770  143.2570 C   0  0  0  0  0  3  0  0  0  0  0  0
  188.8290  177.6280  138.9870 C   0  0  0  0  0  0  0  0  0  0  0  0
  190.9480  177.0980  139.9940 N   0  0  0  0  0  0  0  0  0  0  0  0
  191.1250  176.0050  136.6600 N   0  0  0  0  0  0  0  0  0  0  0  0
  189.6850  177.6080  140.0830 C   0  0  0  0  0  0  0  0  0  0  0  0
  187.6040  178.2530  139.4140 C   0  0  0  0  0  0  0  0  0  0  0  0
  186.5740  178.4010  138.7050 O   0  0  0  0  0  0  0  0  0  0  0  0
  189.0550  178.2680  141.2780 C   0  0  1  0  0  3  0  0  0  0  0  0
  191.3210  176.5800  138.7910 C   0  0  0  0  0  0  0  0  0  0  0  0
  187.7040  178.6300  140.7880 N   0  0  0  0  0  0  0  0  0  0  0  0
  188.9920  177.3570  142.5040 C   0  0  0  0  0  0  0  0  0  0  0  0
  192.3390  175.6910  137.1880 C   0  0  0  0  0  0  0  0  0  0  0  0
  185.1990  178.8890  141.5010 C   0  0  0  0  0  0  0  0  0  0  0  0
  186.6620  177.9890  142.8430 C   0  0  0  0  0  0  0  0  0  0  0  0
  193.4070  175.0290  136.3940 C   0  0  0  0  0  1  0  0  0  0  0  0
  185.3580  177.8420  143.4100 N   0  0  0  0  0  0  0  0  0  0  0  0
  189.2020  177.0990  137.7420 C   0  0  0  0  0  3  0  0  0  0  0  0
  192.5040  176.0270  138.4960 N   0  0  0  0  0  2  0  0  0  0  0  0
  190.4960  176.5700  137.7000 C   0  0  0  0  0  0  0  0  0  0  0  0
  186.6070  178.6370  141.7030 C   0  0  0  0  0  0  0  0  0  0  0  0
  190.2300  176.6780  142.9880 C   0  0  0  0  0  2  0  0  0  0  0  0
  190.6000  178.5730  144.3140 C   0  0  0  0  0  2  0  0  0  0  0  0
  191.2390  177.6720  143.3430 N   0  0  0  0  0  0  0  0  0  0  0  0
  191.6330  177.6550  144.7800 C   0  0  2  0  0  3  0  0  0  0  0  0
  189.9320  177.0110  146.3170 F   0  0  0  0  0  0  0  0  0  0  0  0
  191.0200  176.5270  145.6140 C   0  0  2  0  0  3  0  0  0  0  0  0
  192.0550  176.7670  147.7460 O   0  0  0  0  0  1  0  0  0  0  0  0
  192.0550  175.9950  146.5850 C   0  0  0  0  0  2  0  0  0  0  0  0
  1 18  2  0  0  0  0
  2 15  2  0  0  0  0
  4  8  1  0  0  0  0
  4  7  2  0  0  0  0
  5  7  1  0  0  0  0
  6 14  2  0  0  0  0
  6 21  1  0  0  0  0
  8 12  1  0  0  0  0
  9  8  2  0  0  0  0
 10  7  1  6  0  0  0
 10 13  1  0  0  0  0
 11  5  2  0  0  0  0
 12 10  1  0  0  0  0
 12 22  1  0  0  0  0
 13 23  1  0  0  0  0
 13  3  2  0  0  0  0
 14 20  1  0  0  0  0
 15 22  1  0  0  0  0
 15  1  1  0  0  0  0
 16  3  1  0  0  0  0
 16 18  1  0  0  0  0
 17 14  1  0  0  0  0
 19  4  1  0  0  0  0
 20 11  1  0  0  0  0
 21 19  2  0  0  0  0
 21 11  1  0  0  0  0
 22 16  2  0  0  0  0
 23 25  1  0  0  0  0
 24 26  1  0  0  0  0
 25 24  1  0  0  0  0
 25 26  1  0  0  0  0
 26 28  1  1  0  0  0
 28 27  1  1  0  0  0
 28 30  1  0  0  0  0
 30 29  1  0  0  0  0
M  END
>  <MODEL>
5

>  <REMARK>
 VINA RESULT:      -8.5      2.471      7.301
  Name = 
  4 active torsions:
  status: ('A' for Active; 'I' for Inactive)
    1  A    between atoms: N_10  and  C_23
    2  A    between atoms: C_11  and  C_20
    3  A    between atoms: C_18  and  C_23
    4  A    between atoms: C_20  and  C_26
                            x       y       z     vdW  Elec       q    Type
                         _______ _______ _______ _____ _____    ______ ____

>  <TORSDO>
F 4

$$$$
=
 OpenBabel11032419143D

 30 35  0  0  1  0  0  0  0  0999 V2000
  186.7750  177.4580  146.6190 N   0  0  0  0  0  0  0  0  0  0  0  0
  184.7570  178.6920  146.8530 O   0  0  0  0  0  0  0  0  0  0  0  0
  187.5070  177.7070  143.0970 C   0  0  0  0  0  3  0  0  0  0  0  0
  183.3250  178.7420  142.2600 C   0  0  0  0  0  0  0  0  0  0  0  0
  184.4060  178.9940  140.1260 N   0  0  0  0  0  0  0  0  0  0  0  0
  181.0210  178.3280  139.4590 N   0  0  0  0  0  0  0  0  0  0  0  0
  184.4610  178.9660  141.4900 C   0  0  0  0  0  0  0  0  0  0  0  0
  183.7270  178.8070  143.6400 C   0  0  0  0  0  0  0  0  0  0  0  0
  182.9760  178.6020  144.6300 O   0  0  0  0  0  0  0  0  0  0  0  0
  185.6620  179.2320  142.3540 C   0  0  1  0  0  3  0  0  0  0  0  0
  183.1930  178.7600  139.5520 C   0  0  0  0  0  0  0  0  0  0  0  0
  185.1260  179.0810  143.7280 N   0  0  0  0  0  0  0  0  0  0  0  0
  186.8210  178.2720  142.0850 C   0  0  0  0  0  0  0  0  0  0  0  0
  181.5910  178.4660  138.2320 C   0  0  0  0  0  0  0  0  0  0  0  0
  185.7210  178.2910  146.1520 C   0  0  0  0  0  0  0  0  0  0  0  0
  187.0770  177.9230  144.4840 C   0  0  0  0  0  0  0  0  0  0  0  0
  180.8130  178.3370  136.9720 C   0  0  0  0  0  1  0  0  0  0  0  0
  187.5640  177.2370  145.6410 N   0  0  0  0  0  0  0  0  0  0  0  0
  182.0700  178.5010  141.6810 C   0  0  0  0  0  3  0  0  0  0  0  0
  182.9250  178.7340  138.2410 N   0  0  0  0  0  2  0  0  0  0  0  0
  182.0610  178.5190  140.2830 C   0  0  0  0  0  0  0  0  0  0  0  0
  185.9800  178.5880  144.7620 C   0  0  0  0  0  0  0  0  0  0  0  0
  187.3240  178.0880  140.6920 C   0  0  0  0  0  2  0  0  0  0  0  0
  189.4960  177.2560  140.4150 C   0  0  0  0  0  2  0  0  0  0  0  0
  188.7250  178.4940  140.6080 N   0  0  0  0  0  0  0  0  0  0  0  0
  189.3710  178.1900  139.3010 C   0  0  2  0  0  3  0  0  0  0  0  0
  188.8370  176.3440  137.8940 F   0  0  0  0  0  0  0  0  0  0  0  0
  188.4390  177.6260  138.2250 C   0  0  2  0  0  3  0  0  0  0  0  0
  188.9280  179.7860  137.3460 O   0  0  0  0  0  1  0  0  0  0  0  0
  188.4960  178.5090  136.9930 C   0  0  0  0  0  2  0  0  0  0  0  0
  3 16  1  0  0  0  0
  4  8  1  0  0  0  0
  5  7  1  0  0  0  0
  6 21  1  0  0  0  0
  7  4  2  0  0  0  0
  8 12  1  0  0  0  0
  8  9  2  0  0  0  0
 10  7  1  6  0  0  0
 10 12  1  0  0  0  0
 11  5  2  0  0  0  0
 11 21  1  0  0  0  0
 12 22  1  0  0  0  0
 13 10  1  0  0  0  0
 13  3  2  0  0  0  0
 14 20  1  0  0  0  0
 14  6  2  0  0  0  0
 15  1  1  0  0  0  0
 15  2  2  0  0  0  0
 16 22  2  0  0  0  0
 16 18  1  0  0  0  0
 17 14  1  0  0  0  0
 18  1  2  0  0  0  0
 19  4  1  0  0  0  0
 20 11  1  0  0  0  0
 21 19  2  0  0  0  0
 22 15  1  0  0  0  0
 23 13  1  0  0  0  0
 24 25  1  0  0  0  0
 25 23  1  0  0  0  0
 26 28  1  6  0  0  0
 26 24  1  0  0  0  0
 26 25  1  0  0  0  0
 28 27  1  6  0  0  0
 30 29  1  0  0  0  0
 30 28  1  0  0  0  0
M  END
>  <MODEL>
6

>  <REMARK>
 VINA RESULT:      -7.8      2.875      4.427
  Name = 
  4 active torsions:
  status: ('A' for Active; 'I' for Inactive)
    1  A    between atoms: N_10  and  C_23
    2  A    between atoms: C_11  and  C_20
    3  A    between atoms: C_18  and  C_23
    4  A    between atoms: C_20  and  C_26
                            x       y       z     vdW  Elec       q    Type
                         _______ _______ _______ _____ _____    ______ ____

>  <TORSDO>
F 4

$$$$
=
 OpenBabel11032419143D

 30 35  0  0  1  0  0  0  0  0999 V2000
  180.4360  180.8830  139.1150 N   0  0  0  0  0  0  0  0  0  0  0  0
  179.5050  179.8660  141.0520 O   0  0  0  0  0  0  0  0  0  0  0  0
  183.8370  179.6840  139.0910 C   0  0  0  0  0  3  0  0  0  0  0  0
  183.5630  178.7010  143.3590 C   0  0  0  0  0  0  0  0  0  0  0  0
  185.7170  177.8410  142.7200 N   0  0  0  0  0  0  0  0  0  0  0  0
  185.8860  178.4990  146.1680 N   0  0  0  0  0  0  0  0  0  0  0  0
  184.4460  178.2210  142.3980 C   0  0  0  0  0  0  0  0  0  0  0  0
  182.3170  178.9760  142.6930 C   0  0  0  0  0  0  0  0  0  0  0  0
  181.2950  179.4740  143.2350 O   0  0  0  0  0  0  0  0  0  0  0  0
  183.7850  178.1230  141.0510 C   0  0  1  0  0  3  0  0  0  0  0  0
  186.0920  177.9850  144.0210 C   0  0  0  0  0  0  0  0  0  0  0  0
  182.4250  178.6560  141.3060 N   0  0  0  0  0  0  0  0  0  0  0  0
  184.5140  178.9130  139.9640 C   0  0  0  0  0  0  0  0  0  0  0  0
  187.1160  178.0140  145.8510 C   0  0  0  0  0  0  0  0  0  0  0  0
  180.4570  180.0160  140.2420 C   0  0  0  0  0  0  0  0  0  0  0  0
  182.3870  179.8610  139.2400 C   0  0  0  0  0  0  0  0  0  0  0  0
  188.1950  177.8530  146.8610 C   0  0  0  0  0  1  0  0  0  0  0  0
  181.5690  180.7960  138.5330 N   0  0  0  0  0  0  0  0  0  0  0  0
  183.9380  178.8530  144.7020 C   0  0  0  0  0  3  0  0  0  0  0  0
  187.2880  177.6840  144.5420 N   0  0  0  0  0  2  0  0  0  0  0  0
  185.2530  178.4710  144.9860 C   0  0  0  0  0  0  0  0  0  0  0  0
  181.7410  179.3530  140.2630 C   0  0  0  0  0  0  0  0  0  0  0  0
  185.9740  178.6990  139.7450 C   0  0  0  0  0  2  0  0  0  0  0  0
  186.7780  178.5480  137.5500 C   0  0  0  0  0  2  0  0  0  0  0  0
  186.1820  177.7640  138.6420 N   0  0  0  0  0  0  0  0  0  0  0  0
  187.6100  177.5820  138.2570 C   0  0  2  0  0  3  0  0  0  0  0  0
  189.4100  179.1370  138.3840 F   0  0  0  0  0  0  0  0  0  0  0  0
  188.6260  178.2960  139.1530 C   0  0  2  0  0  3  0  0  0  0  0  0
  189.0600  177.0630  141.1450 O   0  0  0  0  0  1  0  0  0  0  0  0
  189.5050  177.2690  139.8400 C   0  0  0  0  0  2  0  0  0  0  0  0
  1 15  1  0  0  0  0
  3 16  1  0  0  0  0
  3 13  2  0  0  0  0
  4 19  1  0  0  0  0
  5 11  2  0  0  0  0
  7  5  1  0  0  0  0
  7  4  2  0  0  0  0
  8  9  2  0  0  0  0
  8  4  1  0  0  0  0
 10 13  1  6  0  0  0
 10 12  1  0  0  0  0
 10  7  1  0  0  0  0
 11 20  1  0  0  0  0
 11 21  1  0  0  0  0
 12  8  1  0  0  0  0
 14  6  2  0  0  0  0
 14 17  1  0  0  0  0
 15 22  1  0  0  0  0
 15  2  2  0  0  0  0
 16 22  2  0  0  0  0
 18  1  2  0  0  0  0
 18 16  1  0  0  0  0
 19 21  2  0  0  0  0
 20 14  1  0  0  0  0
 21  6  1  0  0  0  0
 22 12  1  0  0  0  0
 23 13  1  0  0  0  0
 24 26  1  0  0  0  0
 24 25  1  0  0  0  0
 25 23  1  0  0  0  0
 26 25  1  0  0  0  0
 26 28  1  1  0  0  0
 28 27  1  6  0  0  0
 28 30  1  0  0  0  0
 30 29  1  0  0  0  0
M  END
>  <MODEL>
7

>  <REMARK>
 VINA RESULT:      -7.8      3.371      7.509
  Name = 
  4 active torsions:
  status: ('A' for Active; 'I' for Inactive)
    1  A    between atoms: N_10  and  C_23
    2  A    between atoms: C_11  and  C_20
    3  A    between atoms: C_18  and  C_23
    4  A    between atoms: C_20  and  C_26
                            x       y       z     vdW  Elec       q    Type
                         _______ _______ _______ _____ _____    ______ ____

>  <TORSDO>
F 4

$$$$
=
 OpenBabel11032419143D

 30 35  0  0  1  0  0  0  0  0999 V2000
  191.1680  176.0010  144.2100 N   0  0  0  0  0  0  0  0  0  0  0  0
  189.6970  177.1480  145.6830 O   0  0  0  0  0  0  0  0  0  0  0  0
  190.0750  177.0590  140.9400 C   0  0  0  0  0  3  0  0  0  0  0  0
  186.1870  178.2590  142.5840 C   0  0  0  0  0  0  0  0  0  0  0  0
  186.0850  178.9990  140.2980 N   0  0  0  0  0  0  0  0  0  0  0  0
  182.7650  178.5040  141.3380 N   0  0  0  0  0  0  0  0  0  0  0  0
  186.8070  178.6560  141.4040 C   0  0  0  0  0  0  0  0  0  0  0  0
  187.2270  178.0030  143.5460 C   0  0  0  0  0  0  0  0  0  0  0  0
  187.0490  177.5740  144.7160 O   0  0  0  0  0  0  0  0  0  0  0  0
  188.3010  178.7140  141.5660 C   0  0  1  0  0  3  0  0  0  0  0  0
  184.7290  178.9040  140.3920 C   0  0  0  0  0  0  0  0  0  0  0  0
  188.5050  178.2500  142.9580 N   0  0  0  0  0  0  0  0  0  0  0  0
  189.0500  177.8430  140.5570 C   0  0  0  0  0  0  0  0  0  0  0  0
  182.6610  178.9230  140.0480 C   0  0  0  0  0  0  0  0  0  0  0  0
  190.1290  176.9200  144.5230 C   0  0  0  0  0  0  0  0  0  0  0  0
  190.4220  176.9480  142.3630 C   0  0  0  0  0  0  0  0  0  0  0  0
  181.3500  179.0890  139.3670 C   0  0  0  0  0  1  0  0  0  0  0  0
  191.3340  176.0140  142.9440 N   0  0  0  0  0  0  0  0  0  0  0  0
  184.7930  178.1580  142.6940 C   0  0  0  0  0  3  0  0  0  0  0  0
  183.8430  179.1810  139.4270 N   0  0  0  0  0  2  0  0  0  0  0  0
  184.0920  178.5000  141.5330 C   0  0  0  0  0  0  0  0  0  0  0  0
  189.6960  177.5310  143.2880 C   0  0  0  0  0  0  0  0  0  0  0  0
  188.7670  177.9870  139.0990 C   0  0  0  0  0  2  0  0  0  0  0  0
  187.7990  177.0370  137.1890 C   0  0  0  0  0  2  0  0  0  0  0  0
  188.1890  176.7510  138.5780 N   0  0  0  0  0  0  0  0  0  0  0  0
  188.9400  176.1610  137.4330 C   0  0  2  0  0  3  0  0  0  0  0  0
  190.3270  177.0360  135.7060 F   0  0  0  0  0  0  0  0  0  0  0  0
  190.2500  176.8680  137.0770 C   0  0  2  0  0  3  0  0  0  0  0  0
  190.9720  174.7790  137.9660 O   0  0  0  0  0  1  0  0  0  0  0  0
  191.4230  176.0310  137.5520 C   0  0  0  0  0  2  0  0  0  0  0  0
  1 15  1  0  0  0  0
  3 16  1  0  0  0  0
  4 19  1  0  0  0  0
  4  8  1  0  0  0  0
  5 11  2  0  0  0  0
  5  7  1  0  0  0  0
  6 21  1  0  0  0  0
  7 10  1  0  0  0  0
  7  4  2  0  0  0  0
  8  9  2  0  0  0  0
 10 13  1  6  0  0  0
 10 12  1  0  0  0  0
 11 21  1  0  0  0  0
 12 22  1  0  0  0  0
 12  8  1  0  0  0  0
 13  3  2  0  0  0  0
 14  6  2  0  0  0  0
 15  2  2  0  0  0  0
 16 18  1  0  0  0  0
 16 22  2  0  0  0  0
 17 14  1  0  0  0  0
 18  1  2  0  0  0  0
 20 14  1  0  0  0  0
 20 11  1  0  0  0  0
 21 19  2  0  0  0  0
 22 15  1  0  0  0  0
 23 13  1  0  0  0  0
 24 26  1  0  0  0  0
 24 25  1  0  0  0  0
 25 23  1  0  0  0  0
 26 28  1  6  0  0  0
 26 25  1  0  0  0  0
 28 27  1  6  0  0  0
 28 30  1  0  0  0  0
 30 29  1  0  0  0  0
M  END
>  <MODEL>
8

>  <REMARK>
 VINA RESULT:      -7.8      2.099      3.024
  Name = 
  4 active torsions:
  status: ('A' for Active; 'I' for Inactive)
    1  A    between atoms: N_10  and  C_23
    2  A    between atoms: C_11  and  C_20
    3  A    between atoms: C_18  and  C_23
    4  A    between atoms: C_20  and  C_26
                            x       y       z     vdW  Elec       q    Type
                         _______ _______ _______ _____ _____    ______ ____

>  <TORSDO>
F 4

$$$$
=
 OpenBabel11032419143D

 30 35  0  0  1  0  0  0  0  0999 V2000
  184.8600  177.7520  137.3410 N   0  0  0  0  0  0  0  0  0  0  0  0
  187.1330  178.3040  136.9160 O   0  0  0  0  0  0  0  0  0  0  0  0
  184.5830  178.0370  140.9250 C   0  0  0  0  0  3  0  0  0  0  0  0
  188.9370  177.6670  141.3320 C   0  0  0  0  0  0  0  0  0  0  0  0
  188.1990  178.1350  143.5730 N   0  0  0  0  0  0  0  0  0  0  0  0
  191.2460  176.4090  143.8630 N   0  0  0  0  0  0  0  0  0  0  0  0
  188.0090  178.1960  142.2220 C   0  0  0  0  0  0  0  0  0  0  0  0
  188.4460  177.9250  140.0030 C   0  0  0  0  0  0  0  0  0  0  0  0
  188.9970  177.5460  138.9360 O   0  0  0  0  0  0  0  0  0  0  0  0
  186.8770  178.8680  141.4950 C   0  0  1  0  0  3  0  0  0  0  0  0
  189.3240  177.5040  144.0100 C   0  0  0  0  0  0  0  0  0  0  0  0
  187.2050  178.6280  140.0700 N   0  0  0  0  0  0  0  0  0  0  0  0
  185.5050  178.3070  141.8680 C   0  0  0  0  0  0  0  0  0  0  0  0
  190.8680  176.6560  145.1460 C   0  0  0  0  0  0  0  0  0  0  0  0
  186.1630  178.1890  137.7090 C   0  0  0  0  0  0  0  0  0  0  0  0
  184.9250  178.1790  139.5040 C   0  0  0  0  0  0  0  0  0  0  0  0
  191.6820  176.2250  146.3140 C   0  0  0  0  0  1  0  0  0  0  0  0
  184.1390  177.7400  138.3930 N   0  0  0  0  0  0  0  0  0  0  0  0
  190.1000  177.0160  141.7690 C   0  0  0  0  0  3  0  0  0  0  0  0
  189.6940  177.3280  145.2840 N   0  0  0  0  0  2  0  0  0  0  0  0
  190.2470  176.9590  143.1580 C   0  0  0  0  0  0  0  0  0  0  0  0
  186.1440  178.4810  139.1240 C   0  0  0  0  0  0  0  0  0  0  0  0
  185.1050  178.2180  143.3030 C   0  0  0  0  0  2  0  0  0  0  0  0
  183.5100  179.3750  144.5710 C   0  0  0  0  0  2  0  0  0  0  0  0
  184.7560  179.5440  143.8070 N   0  0  0  0  0  0  0  0  0  0  0  0
  184.7460  179.6490  145.2940 C   0  0  2  0  0  3  0  0  0  0  0  0
  184.1800  177.8780  146.7820 F   0  0  0  0  0  0  0  0  0  0  0  0
  185.2240  178.4020  146.0410 C   0  0  2  0  0  3  0  0  0  0  0  0
  186.0550  179.9430  147.6570 O   0  0  0  0  0  1  0  0  0  0  0  0
  186.3670  178.7720  146.9670 C   0  0  0  0  0  2  0  0  0  0  0  0
  1 15  1  0  0  0  0
  1 18  2  0  0  0  0
  2 15  2  0  0  0  0
  3 13  2  0  0  0  0
  4 19  1  0  0  0  0
  4  7  2  0  0  0  0
  5 11  2  0  0  0  0
  6 14  2  0  0  0  0
  7  5  1  0  0  0  0
  8 12  1  0  0  0  0
  8  4  1  0  0  0  0
  9  8  2  0  0  0  0
 10 13  1  1  0  0  0
 10  7  1  0  0  0  0
 11 20  1  0  0  0  0
 12 10  1  0  0  0  0
 13 23  1  0  0  0  0
 14 20  1  0  0  0  0
 14 17  1  0  0  0  0
 15 22  1  0  0  0  0
 16  3  1  0  0  0  0
 18 16  1  0  0  0  0
 19 21  2  0  0  0  0
 21  6  1  0  0  0  0
 21 11  1  0  0  0  0
 22 16  2  0  0  0  0
 22 12  1  0  0  0  0
 23 25  1  0  0  0  0
 24 26  1  0  0  0  0
 25 24  1  0  0  0  0
 25 26  1  0  0  0  0
 26 28  1  1  0  0  0
 28 27  1  1  0  0  0
 28 30  1  0  0  0  0
 30 29  1  0  0  0  0
M  END
>  <MODEL>
9

>  <REMARK>
 VINA RESULT:      -7.8      2.721      7.805
  Name = 
  4 active torsions:
  status: ('A' for Active; 'I' for Inactive)
    1  A    between atoms: N_10  and  C_23
    2  A    between atoms: C_11  and  C_20
    3  A    between atoms: C_18  and  C_23
    4  A    between atoms: C_20  and  C_26
                            x       y       z     vdW  Elec       q    Type
                         _______ _______ _______ _____ _____    ______ ____

>  <TORSDO>
F 4

$$$$
