=
 OpenBabel11042412543D

 43 46  0  0  1  0  0  0  0  0999 V2000
  188.9290  176.3630  137.1030 F   0  0  0  0  0  0  0  0  0  0  0  0
  188.3200  177.4180  137.7620 C   0  0  0  0  0  0  0  0  0  0  0  0
  185.1350  176.9920  138.4070 C   0  0  0  0  0  2  0  0  0  0  0  0
  186.6850  177.7500  144.3530 N   0  0  0  0  0  0  0  0  0  0  0  0
  189.4160  177.8950  140.7250 C   0  0  2  0  0  3  0  0  0  0  0  0
  188.5890  177.8550  141.9250 N   0  0  0  0  0  0  0  0  0  0  0  0
  185.8360  176.9940  137.0340 C   0  0  1  0  0  3  0  0  0  0  0  0
  187.3570  178.2590  141.9510 C   0  0  0  0  0  0  0  0  0  0  0  0
  187.9250  177.0200  139.0610 O   0  0  0  0  0  0  0  0  0  0  0  0
  185.6260  177.7560  145.2170 C   0  0  0  0  0  3  0  0  0  0  0  0
  184.4000  179.3650  138.9610 C   0  0  2  0  0  3  0  0  0  0  0  0
  187.0960  177.8780  136.9520 C   0  0  1  0  0  3  0  0  0  0  0  0
  184.3970  178.2100  144.8070 N   0  0  0  0  0  0  0  0  0  0  0  0
  186.7820  179.2120  137.2280 O   0  0  0  0  0  1  0  0  0  0  0  0
  183.9500  177.9590  138.5100 C   0  0  1  0  0  3  0  0  0  0  0  0
  184.1930  178.6690  143.5370 C   0  0  0  0  0  3  0  0  0  0  0  0
  185.2820  178.6910  142.6780 C   0  0  0  0  0  0  0  0  0  0  0  0
  189.0800  176.7230  139.8030 C   0  0  0  0  0  2  0  0  0  0  0  0
  186.6230  178.7460  140.8180 N   0  0  0  0  0  0  0  0  0  0  0  0
  185.4190  178.9880  141.2540 C   0  0  0  0  0  0  0  0  0  0  0  0
  184.3470  179.4260  140.4160 N   0  0  0  0  0  2  0  0  0  0  0  0
  189.2210  178.4760  137.8190 F   0  0  0  0  0  0  0  0  0  0  0  0
  186.4910  178.2440  143.1090 C   0  0  0  0  0  0  0  0  0  0  0  0
  186.0910  175.6020  136.5190 C   0  0  0  0  0  0  0  0  0  0  0  0
  186.4040  175.3910  135.0790 C   0  0  0  0  0  1  0  0  0  0  0  0
  186.0650  174.6380  137.2690 O   0  0  0  0  0  0  0  0  0  0  0  0
  183.5640  180.5030  138.3850 C   0  0  0  0  0  2  0  0  0  0  0  0
  182.3800  180.6380  139.1110 O   0  0  0  0  0  1  0  0  0  0  0  0
  181.7560  177.4980  137.4630 C   0  0  0  0  0  3  0  0  0  0  0  0
  183.0280  177.8700  137.3180 C   0  0  0  0  0  3  0  0  0  0  0  0
  180.8510  177.4120  136.2800 C   0  0  0  0  0  2  0  0  0  0  0  0
  181.2880  178.4250  135.2420 C   0  0  0  0  0  1  0  0  0  0  0  0
  191.5950  177.0830  140.2070 F   0  0  0  0  0  0  0  0  0  0  0  0
  190.8970  177.8830  141.0970 C   0  0  2  0  0  3  0  0  0  0  0  0
  191.0580  177.3350  142.4390 N   0  0  0  0  0  2  0  0  0  0  0  0
  191.0930  178.1510  143.6150 C   0  0  0  0  0  0  0  0  0  0  0  0
  191.2690  179.3970  143.5150 O   0  0  0  0  0  0  0  0  0  0  0  0
  189.7920  177.8640  145.7200 C   0  0  0  0  0  3  0  0  0  0  0  0
  191.8650  176.6420  145.4510 C   0  0  0  0  0  3  0  0  0  0  0  0
  190.5790  176.4160  147.4910 C   0  0  0  0  0  3  0  0  0  0  0  0
  189.6240  177.3040  146.9890 C   0  0  0  0  0  3  0  0  0  0  0  0
  191.7000  176.0860  146.7240 C   0  0  0  0  0  3  0  0  0  0  0  0
  190.9090  177.5350  144.9390 C   0  0  0  0  0  0  0  0  0  0  0  0
  1  2  1  0  0  0  0
  2 22  1  0  0  0  0
  2  9  1  0  0  0  0
  3 15  1  0  0  0  0
  4 10  1  0  0  0  0
  5 34  1  1  0  0  0
  5  6  1  0  0  0  0
  6  8  2  0  0  0  0
  7 24  1  1  0  0  0
  7  3  1  0  0  0  0
  8 23  1  0  0  0  0
  9 18  1  0  0  0  0
 11 27  1  6  0  0  0
 11 21  1  0  0  0  0
 12  7  1  0  0  0  0
 12 14  1  1  0  0  0
 12  2  1  0  0  0  0
 13 10  2  0  0  0  0
 15 30  1  6  0  0  0
 15 11  1  0  0  0  0
 16 13  1  0  0  0  0
 17 23  1  0  0  0  0
 17 16  2  0  0  0  0
 18  5  1  0  0  0  0
 19 20  2  0  0  0  0
 19  8  1  0  0  0  0
 20 17  1  0  0  0  0
 21 20  1  0  0  0  0
 23  4  2  0  0  0  0
 24 26  2  0  0  0  0
 25 24  1  0  0  0  0
 27 28  1  0  0  0  0
 30 29  2  0  0  0  0
 31 29  1  0  0  0  0
 32 31  1  0  0  0  0
 34 33  1  6  0  0  0
 34 35  1  0  0  0  0
 35 36  1  0  0  0  0
 36 43  1  0  0  0  0
 37 36  2  0  0  0  0
 38 41  1  0  0  0  0
 39 42  2  0  0  0  0
 41 40  2  0  0  0  0
 42 40  1  0  0  0  0
 43 39  1  0  0  0  0
 43 38  2  0  0  0  0
M  END
>  <MODEL>
1

>  <REMARK>
 VINA RESULT:      -8.1      0.000      0.000
  Name = 
  7 active torsions:
  status: ('A' for Active; 'I' for Inactive)
    1  A    between atoms: C_5  and  CA_17
    2  A    between atoms: C_6  and  C_37
    3  A    between atoms: C_8  and  C_13
    4  A    between atoms: C_10  and  C_30
    5  A    between atoms: N_16  and  C_37
    6  A    between atoms: C_21  and  C_25
    7  A    between atoms: C_34  and  C_42
                            x       y       z     vdW  Elec       q    Type
                         _______ _______ _______ _____ _____    ______ ____

>  <TORSDO>
F 7

$$$$
=
 OpenBabel11042412543D

 43 46  0  0  1  0  0  0  0  0999 V2000
  179.9500  180.3430  142.3430 F   0  0  0  0  0  0  0  0  0  0  0  0
  180.5850  179.3170  141.6640 C   0  0  0  0  0  0  0  0  0  0  0  0
  181.5150  180.0460  138.6070 C   0  0  0  0  0  2  0  0  0  0  0  0
  187.2510  178.6760  140.4890 N   0  0  0  0  0  0  0  0  0  0  0  0
  183.4100  178.4990  142.9110 C   0  0  2  0  0  3  0  0  0  0  0  0
  184.6750  178.5410  142.1850 N   0  0  0  0  0  0  0  0  0  0  0  0
  180.0910  180.0690  139.2000 C   0  0  1  0  0  3  0  0  0  0  0  0
  184.7740  178.2760  140.9190 C   0  0  0  0  0  0  0  0  0  0  0  0
  181.9350  179.6570  141.4150 O   0  0  0  0  0  0  0  0  0  0  0  0
  188.1960  178.7230  139.5030 C   0  0  0  0  0  3  0  0  0  0  0  0
  181.9680  177.7350  137.6420 C   0  0  2  0  0  3  0  0  0  0  0  0
  179.8490  179.0580  140.3380 C   0  0  1  0  0  3  0  0  0  0  0  0
  187.8580  178.4420  138.2030 N   0  0  0  0  0  0  0  0  0  0  0  0
  180.0600  177.7510  139.8910 O   0  0  0  0  0  1  0  0  0  0  0  0
  181.6490  179.2130  137.3280 C   0  0  1  0  0  3  0  0  0  0  0  0
  186.5810  178.1050  137.8540 C   0  0  0  0  0  3  0  0  0  0  0  0
  185.6380  178.0250  138.8670 C   0  0  0  0  0  0  0  0  0  0  0  0
  182.5990  179.7670  142.6480 C   0  0  0  0  0  2  0  0  0  0  0  0
  183.6750  177.9610  140.0520 N   0  0  0  0  0  0  0  0  0  0  0  0
  184.1910  177.8230  138.8630 C   0  0  0  0  0  0  0  0  0  0  0  0
  183.4150  177.5710  137.6890 N   0  0  0  0  0  2  0  0  0  0  0  0
  180.4990  178.1630  142.4370 F   0  0  0  0  0  0  0  0  0  0  0  0
  185.9960  178.3010  140.1480 C   0  0  0  0  0  0  0  0  0  0  0  0
  179.6500  181.4590  139.5780 C   0  0  0  0  0  0  0  0  0  0  0  0
  180.0700  182.6190  138.7470 C   0  0  0  0  0  1  0  0  0  0  0  0
  178.9330  181.6500  140.5480 O   0  0  0  0  0  0  0  0  0  0  0  0
  181.3890  176.7440  136.6380 C   0  0  0  0  0  2  0  0  0  0  0  0
  181.0510  175.5540  137.2850 O   0  0  0  0  0  1  0  0  0  0  0  0
  180.5710  180.5860  135.5740 C   0  0  0  0  0  3  0  0  0  0  0  0
  180.5450  179.4930  136.3370 C   0  0  0  0  0  3  0  0  0  0  0  0
  179.4760  180.8560  134.5990 C   0  0  0  0  0  2  0  0  0  0  0  0
  179.0700  182.3130  134.6940 C   0  0  0  0  0  1  0  0  0  0  0  0
  183.1060  179.3780  145.1040 F   0  0  0  0  0  0  0  0  0  0  0  0
  183.6610  178.3170  144.4070 C   0  0  2  0  0  3  0  0  0  0  0  0
  185.0970  178.2950  144.6610 N   0  0  0  0  0  2  0  0  0  0  0  0
  185.6550  178.3140  145.9790 C   0  0  0  0  0  0  0  0  0  0  0  0
  184.9370  178.6340  146.9660 O   0  0  0  0  0  0  0  0  0  0  0  0
  187.5910  177.8540  147.4790 C   0  0  0  0  0  3  0  0  0  0  0  0
  187.9090  177.7110  145.0830 C   0  0  0  0  0  3  0  0  0  0  0  0
  189.7680  177.3000  146.5800 C   0  0  0  0  0  3  0  0  0  0  0  0
  188.9350  177.5290  147.6790 C   0  0  0  0  0  3  0  0  0  0  0  0
  189.2560  177.3920  145.2830 C   0  0  0  0  0  3  0  0  0  0  0  0
  187.0660  177.9430  146.1830 C   0  0  0  0  0  0  0  0  0  0  0  0
  2  1  1  0  0  0  0
  2 22  1  0  0  0  0
  3  7  1  0  0  0  0
  5 34  1  1  0  0  0
  6  5  1  0  0  0  0
  7 24  1  1  0  0  0
  7 12  1  0  0  0  0
  8  6  2  0  0  0  0
  9  2  1  0  0  0  0
  9 18  1  0  0  0  0
 10  4  2  0  0  0  0
 11 27  1  6  0  0  0
 11 21  1  0  0  0  0
 12 14  1  6  0  0  0
 12  2  1  0  0  0  0
 13 10  1  0  0  0  0
 15 30  1  1  0  0  0
 15 11  1  0  0  0  0
 15  3  1  0  0  0  0
 16 13  2  0  0  0  0
 16 17  1  0  0  0  0
 17 23  2  0  0  0  0
 18  5  1  0  0  0  0
 19  8  1  0  0  0  0
 20 17  1  0  0  0  0
 20 19  2  0  0  0  0
 21 20  1  0  0  0  0
 23  4  1  0  0  0  0
 23  8  1  0  0  0  0
 24 26  2  0  0  0  0
 25 24  1  0  0  0  0
 27 28  1  0  0  0  0
 29 30  2  0  0  0  0
 31 32  1  0  0  0  0
 31 29  1  0  0  0  0
 34 35  1  0  0  0  0
 34 33  1  1  0  0  0
 35 36  1  0  0  0  0
 36 43  1  0  0  0  0
 36 37  2  0  0  0  0
 38 41  1  0  0  0  0
 39 42  2  0  0  0  0
 39 43  1  0  0  0  0
 40 41  2  0  0  0  0
 42 40  1  0  0  0  0
 43 38  2  0  0  0  0
M  END
>  <MODEL>
2

>  <REMARK>
 VINA RESULT:      -7.3      3.756      6.193
  Name = 
  7 active torsions:
  status: ('A' for Active; 'I' for Inactive)
    1  A    between atoms: C_5  and  CA_17
    2  A    between atoms: C_6  and  C_37
    3  A    between atoms: C_8  and  C_13
    4  A    between atoms: C_10  and  C_30
    5  A    between atoms: N_16  and  C_37
    6  A    between atoms: C_21  and  C_25
    7  A    between atoms: C_34  and  C_42
                            x       y       z     vdW  Elec       q    Type
                         _______ _______ _______ _____ _____    ______ ____

>  <TORSDO>
F 7

$$$$
=
 OpenBabel11042412543D

 43 46  0  0  1  0  0  0  0  0999 V2000
  186.9290  175.1910  135.6340 F   0  0  0  0  0  0  0  0  0  0  0  0
  186.1210  176.2340  136.0540 C   0  0  0  0  0  0  0  0  0  0  0  0
  183.5090  175.3370  137.8180 C   0  0  0  0  0  2  0  0  0  0  0  0
  185.8220  178.9560  142.2770 N   0  0  0  0  0  0  0  0  0  0  0  0
  187.5320  178.2050  138.1340 C   0  0  2  0  0  3  0  0  0  0  0  0
  187.0330  178.4800  139.4770 N   0  0  0  0  0  0  0  0  0  0  0  0
  183.8720  174.9230  136.3780 C   0  0  1  0  0  3  0  0  0  0  0  0
  185.7700  178.5290  139.7680 C   0  0  0  0  0  0  0  0  0  0  0  0
  186.1650  176.3520  137.4620 O   0  0  0  0  0  0  0  0  0  0  0  0
  185.0280  179.0660  143.3840 C   0  0  0  0  0  3  0  0  0  0  0  0
  182.0830  177.4440  137.7340 C   0  0  2  0  0  3  0  0  0  0  0  0
  184.6780  175.9730  135.5870 C   0  0  1  0  0  3  0  0  0  0  0  0
  183.6630  178.9700  143.2730 N   0  0  0  0  0  0  0  0  0  0  0  0
  183.9600  177.1660  135.4760 O   0  0  0  0  0  1  0  0  0  0  0  0
  182.0980  175.9180  137.9680 C   0  0  1  0  0  3  0  0  0  0  0  0
  183.0580  178.7670  142.0660 C   0  0  0  0  0  3  0  0  0  0  0  0
  183.8690  178.6910  140.9440 C   0  0  0  0  0  0  0  0  0  0  0  0
  187.4710  176.7080  137.8370 C   0  0  0  0  0  2  0  0  0  0  0  0
  184.7000  178.2740  138.8460 N   0  0  0  0  0  0  0  0  0  0  0  0
  183.6030  178.3670  139.5440 C   0  0  0  0  0  0  0  0  0  0  0  0
  182.3020  178.1130  139.0100 N   0  0  0  0  0  2  0  0  0  0  0  0
  186.5650  177.4030  135.4440 F   0  0  0  0  0  0  0  0  0  0  0  0
  185.2180  178.7970  141.0760 C   0  0  0  0  0  0  0  0  0  0  0  0
  184.5100  173.5600  136.3180 C   0  0  0  0  0  0  0  0  0  0  0  0
  185.0020  172.9170  137.5660 C   0  0  0  0  0  1  0  0  0  0  0  0
  184.6150  172.9590  135.2590 O   0  0  0  0  0  0  0  0  0  0  0  0
  180.7920  177.9690  137.1130 C   0  0  0  0  0  2  0  0  0  0  0  0
  180.2060  178.9120  137.9590 O   0  0  0  0  0  1  0  0  0  0  0  0
  180.6300  173.9360  137.7640 C   0  0  0  0  0  3  0  0  0  0  0  0
  181.0550  175.0930  137.2540 C   0  0  0  0  0  3  0  0  0  0  0  0
  179.6010  173.1260  137.0520 C   0  0  0  0  0  2  0  0  0  0  0  0
  179.9740  171.6600  137.1340 C   0  0  0  0  0  1  0  0  0  0  0  0
  188.9610  179.8110  137.1090 F   0  0  0  0  0  0  0  0  0  0  0  0
  188.9570  178.7320  137.9780 C   0  0  2  0  0  3  0  0  0  0  0  0
  189.8050  177.6840  137.4210 N   0  0  0  0  0  2  0  0  0  0  0  0
  190.7110  176.9110  138.2150 C   0  0  0  0  0  0  0  0  0  0  0  0
  191.0190  177.2940  139.3770 O   0  0  0  0  0  0  0  0  0  0  0  0
  192.6550  175.4310  137.7230 C   0  0  0  0  0  3  0  0  0  0  0  0
  190.4370  174.7010  137.0810 C   0  0  0  0  0  3  0  0  0  0  0  0
  192.3590  173.3080  136.6010 C   0  0  0  0  0  3  0  0  0  0  0  0
  193.1970  174.2580  137.1910 C   0  0  0  0  0  3  0  0  0  0  0  0
  190.9800  173.5300  136.5440 C   0  0  0  0  0  3  0  0  0  0  0  0
  191.2720  175.6600  137.6780 C   0  0  0  0  0  0  0  0  0  0  0  0
  1  2  1  0  0  0  0
  2  9  1  0  0  0  0
  3 15  1  0  0  0  0
  4 10  1  0  0  0  0
  5 34  1  1  0  0  0
  5  6  1  0  0  0  0
  6  8  2  0  0  0  0
  7 24  1  1  0  0  0
  7  3  1  0  0  0  0
  8 23  1  0  0  0  0
  9 18  1  0  0  0  0
 11 27  1  1  0  0  0
 11 15  1  0  0  0  0
 11 21  1  0  0  0  0
 12 14  1  1  0  0  0
 12  2  1  0  0  0  0
 12  7  1  0  0  0  0
 13 10  2  0  0  0  0
 15 30  1  6  0  0  0
 16 13  1  0  0  0  0
 17 23  1  0  0  0  0
 17 16  2  0  0  0  0
 18  5  1  0  0  0  0
 19 20  2  0  0  0  0
 19  8  1  0  0  0  0
 20 17  1  0  0  0  0
 21 20  1  0  0  0  0
 22  2  1  0  0  0  0
 23  4  2  0  0  0  0
 24 25  1  0  0  0  0
 26 24  2  0  0  0  0
 27 28  1  0  0  0  0
 30 29  2  0  0  0  0
 31 32  1  0  0  0  0
 31 29  1  0  0  0  0
 34 33  1  6  0  0  0
 35 34  1  0  0  0  0
 35 36  1  0  0  0  0
 36 37  2  0  0  0  0
 39 43  2  0  0  0  0
 40 41  1  0  0  0  0
 41 38  2  0  0  0  0
 42 40  2  0  0  0  0
 42 39  1  0  0  0  0
 43 38  1  0  0  0  0
 43 36  1  0  0  0  0
M  END
>  <MODEL>
3

>  <REMARK>
 VINA RESULT:      -7.3      3.441      4.873
  Name = 
  7 active torsions:
  status: ('A' for Active; 'I' for Inactive)
    1  A    between atoms: C_5  and  CA_17
    2  A    between atoms: C_6  and  C_37
    3  A    between atoms: C_8  and  C_13
    4  A    between atoms: C_10  and  C_30
    5  A    between atoms: N_16  and  C_37
    6  A    between atoms: C_21  and  C_25
    7  A    between atoms: C_34  and  C_42
                            x       y       z     vdW  Elec       q    Type
                         _______ _______ _______ _____ _____    ______ ____

>  <TORSDO>
F 7

$$$$
=
 OpenBabel11042412543D

 43 46  0  0  1  0  0  0  0  0999 V2000
  185.8910  176.2280  135.8670 F   0  0  0  0  0  0  0  0  0  0  0  0
  185.5040  177.2010  136.7740 C   0  0  0  0  0  0  0  0  0  0  0  0
  183.4260  176.1820  139.0940 C   0  0  0  0  0  2  0  0  0  0  0  0
  187.7380  178.0040  143.1450 N   0  0  0  0  0  0  0  0  0  0  0  0
  187.8860  178.2750  138.6120 C   0  0  2  0  0  3  0  0  0  0  0  0
  187.8970  178.2100  140.0690 N   0  0  0  0  0  0  0  0  0  0  0  0
  183.2290  176.1610  137.5650 C   0  0  1  0  0  3  0  0  0  0  0  0
  186.8270  178.3380  140.7910 C   0  0  0  0  0  0  0  0  0  0  0  0
  186.0020  176.8960  138.0620 O   0  0  0  0  0  0  0  0  0  0  0  0
  187.3670  177.8900  144.4550 C   0  0  0  0  0  3  0  0  0  0  0  0
  182.5510  178.3900  140.0080 C   0  0  2  0  0  3  0  0  0  0  0  0
  183.9680  177.2800  136.8030 C   0  0  1  0  0  3  0  0  0  0  0  0
  186.0480  178.0120  144.8170 N   0  0  0  0  0  0  0  0  0  0  0  0
  183.5350  178.5380  137.2310 O   0  0  0  0  0  1  0  0  0  0  0  0
  182.2950  176.8750  139.8640 C   0  0  1  0  0  3  0  0  0  0  0  0
  185.0730  178.2510  143.8910 C   0  0  0  0  0  3  0  0  0  0  0  0
  185.4640  178.4000  142.5690 C   0  0  0  0  0  0  0  0  0  0  0  0
  187.4050  176.9510  138.0190 C   0  0  0  0  0  2  0  0  0  0  0  0
  185.4980  178.5070  140.2770 N   0  0  0  0  0  0  0  0  0  0  0  0
  184.7170  178.5360  141.3210 C   0  0  0  0  0  0  0  0  0  0  0  0
  183.2930  178.6220  141.2400 N   0  0  0  0  0  2  0  0  0  0  0  0
  185.9890  178.4280  136.3320 F   0  0  0  0  0  0  0  0  0  0  0  0
  186.7760  178.2830  142.2350 C   0  0  0  0  0  0  0  0  0  0  0  0
  183.4970  174.8030  136.9710 C   0  0  0  0  0  0  0  0  0  0  0  0
  182.8550  174.4180  135.6850 C   0  0  0  0  0  1  0  0  0  0  0  0
  184.2520  174.0140  137.5180 O   0  0  0  0  0  0  0  0  0  0  0  0
  181.2830  179.2390  140.0230 C   0  0  0  0  0  2  0  0  0  0  0  0
  180.8550  179.4310  141.3380 O   0  0  0  0  0  1  0  0  0  0  0  0
  180.4260  175.2560  139.7570 C   0  0  0  0  0  3  0  0  0  0  0  0
  180.9280  176.4380  139.3980 C   0  0  0  0  0  3  0  0  0  0  0  0
  179.0750  174.8320  139.2910 C   0  0  0  0  0  2  0  0  0  0  0  0
  179.2090  174.0910  137.9760 C   0  0  0  0  0  1  0  0  0  0  0  0
  189.1800  179.7060  137.2150 F   0  0  0  0  0  0  0  0  0  0  0  0
  189.2750  178.6320  138.0840 C   0  0  2  0  0  3  0  0  0  0  0  0
  189.8270  177.4940  137.3590 N   0  0  0  0  0  2  0  0  0  0  0  0
  190.8980  176.6920  137.8670 C   0  0  0  0  0  0  0  0  0  0  0  0
  191.5960  177.1060  138.8340 O   0  0  0  0  0  0  0  0  0  0  0  0
  192.4650  174.8290  137.3310 C   0  0  0  0  0  3  0  0  0  0  0  0
  190.1640  174.6680  136.5980 C   0  0  0  0  0  3  0  0  0  0  0  0
  191.7290  172.8960  136.0770 C   0  0  0  0  0  3  0  0  0  0  0  0
  192.7410  173.5930  136.7420 C   0  0  0  0  0  3  0  0  0  0  0  0
  190.4410  173.4330  136.0030 C   0  0  0  0  0  3  0  0  0  0  0  0
  191.1750  175.3750  137.2690 C   0  0  0  0  0  0  0  0  0  0  0  0
  1  2  1  0  0  0  0
  2 12  1  0  0  0  0
  2  9  1  0  0  0  0
  3 15  1  0  0  0  0
  4 10  1  0  0  0  0
  5 34  1  6  0  0  0
  5  6  1  0  0  0  0
  6  8  2  0  0  0  0
  7 24  1  6  0  0  0
  7  3  1  0  0  0  0
  8 23  1  0  0  0  0
 10 13  2  0  0  0  0
 11 27  1  1  0  0  0
 11 21  1  0  0  0  0
 12 14  1  1  0  0  0
 12  7  1  0  0  0  0
 15 30  1  6  0  0  0
 15 11  1  0  0  0  0
 16 13  1  0  0  0  0
 17 16  2  0  0  0  0
 18  9  1  0  0  0  0
 18  5  1  0  0  0  0
 19  8  1  0  0  0  0
 19 20  2  0  0  0  0
 20 17  1  0  0  0  0
 21 20  1  0  0  0  0
 22  2  1  0  0  0  0
 23 17  1  0  0  0  0
 23  4  2  0  0  0  0
 24 26  2  0  0  0  0
 25 24  1  0  0  0  0
 27 28  1  0  0  0  0
 30 29  2  0  0  0  0
 31 29  1  0  0  0  0
 32 31  1  0  0  0  0
 34 33  1  6  0  0  0
 35 36  1  0  0  0  0
 35 34  1  0  0  0  0
 36 37  2  0  0  0  0
 39 43  2  0  0  0  0
 40 41  1  0  0  0  0
 41 38  2  0  0  0  0
 42 40  2  0  0  0  0
 42 39  1  0  0  0  0
 43 38  1  0  0  0  0
 43 36  1  0  0  0  0
M  END
>  <MODEL>
4

>  <REMARK>
 VINA RESULT:      -7.0      2.857      4.790
  Name = 
  7 active torsions:
  status: ('A' for Active; 'I' for Inactive)
    1  A    between atoms: C_5  and  CA_17
    2  A    between atoms: C_6  and  C_37
    3  A    between atoms: C_8  and  C_13
    4  A    between atoms: C_10  and  C_30
    5  A    between atoms: N_16  and  C_37
    6  A    between atoms: C_21  and  C_25
    7  A    between atoms: C_34  and  C_42
                            x       y       z     vdW  Elec       q    Type
                         _______ _______ _______ _____ _____    ______ ____

>  <TORSDO>
F 7

$$$$
=
 OpenBabel11042412543D

 43 46  0  0  1  0  0  0  0  0999 V2000
  181.1550  179.7770  142.1220 F   0  0  0  0  0  0  0  0  0  0  0  0
  181.7420  178.8120  141.3200 C   0  0  0  0  0  0  0  0  0  0  0  0
  182.0710  179.6470  138.1680 C   0  0  0  0  0  2  0  0  0  0  0  0
  188.1350  178.7260  139.0070 N   0  0  0  0  0  0  0  0  0  0  0  0
  184.7950  178.2130  142.0450 C   0  0  2  0  0  3  0  0  0  0  0  0
  185.9080  178.3660  141.1150 N   0  0  0  0  0  0  0  0  0  0  0  0
  180.7740  179.5480  138.9960 C   0  0  1  0  0  3  0  0  0  0  0  0
  185.8080  178.1230  139.8450 C   0  0  0  0  0  0  0  0  0  0  0  0
  182.9980  179.2630  140.8520 O   0  0  0  0  0  0  0  0  0  0  0  0
  188.8890  178.8610  137.8760 C   0  0  0  0  0  3  0  0  0  0  0  0
  182.5300  177.3910  137.0830 C   0  0  2  0  0  3  0  0  0  0  0  0
  180.8110  178.5080  140.1340 C   0  0  1  0  0  3  0  0  0  0  0  0
  188.3550  178.5670  136.6460 N   0  0  0  0  0  0  0  0  0  0  0  0
  181.0430  177.2270  139.6250 O   0  0  0  0  0  1  0  0  0  0  0  0
  182.0470  178.8410  136.8640 C   0  0  1  0  0  3  0  0  0  0  0  0
  187.0670  178.1310  136.5120 C   0  0  0  0  0  3  0  0  0  0  0  0
  186.3220  177.9650  137.6690 C   0  0  0  0  0  0  0  0  0  0  0  0
  183.8540  179.4140  141.9550 C   0  0  0  0  0  2  0  0  0  0  0  0
  184.6030  177.7290  139.1710 N   0  0  0  0  0  0  0  0  0  0  0  0
  184.9160  177.6460  137.9080 C   0  0  0  0  0  0  0  0  0  0  0  0
  183.9720  177.3440  136.8780 N   0  0  0  0  0  2  0  0  0  0  0  0
  181.8800  177.6470  142.0680 F   0  0  0  0  0  0  0  0  0  0  0  0
  186.8730  178.2550  138.8770 C   0  0  0  0  0  0  0  0  0  0  0  0
  180.2970  180.8930  139.4770 C   0  0  0  0  0  0  0  0  0  0  0  0
  179.0100  181.0010  140.2160 C   0  0  0  0  0  1  0  0  0  0  0  0
  180.9610  181.9010  139.2890 O   0  0  0  0  0  0  0  0  0  0  0  0
  181.8650  176.3660  136.1700 C   0  0  0  0  0  2  0  0  0  0  0  0
  181.4820  175.2460  136.9100 O   0  0  0  0  0  1  0  0  0  0  0  0
  180.4070  180.2530  135.6640 C   0  0  0  0  0  3  0  0  0  0  0  0
  180.7710  179.0410  136.0840 C   0  0  0  0  0  3  0  0  0  0  0  0
  179.1440  180.4430  134.8960 C   0  0  0  0  0  2  0  0  0  0  0  0
  178.9590  181.9160  134.5940 C   0  0  0  0  0  1  0  0  0  0  0  0
  184.9740  179.1450  144.2300 F   0  0  0  0  0  0  0  0  0  0  0  0
  185.3130  178.0370  143.4710 C   0  0  2  0  0  3  0  0  0  0  0  0
  186.7660  177.9140  143.4500 N   0  0  0  0  0  2  0  0  0  0  0  0
  187.5360  177.5690  144.6070 C   0  0  0  0  0  0  0  0  0  0  0  0
  187.0160  177.6310  145.7550 O   0  0  0  0  0  0  0  0  0  0  0  0
  189.7980  177.1280  145.5540 C   0  0  0  0  0  3  0  0  0  0  0  0
  189.4210  176.7320  143.1950 C   0  0  0  0  0  3  0  0  0  0  0  0
  191.6100  176.3440  144.1550 C   0  0  0  0  0  3  0  0  0  0  0  0
  191.1310  176.7340  145.4090 C   0  0  0  0  0  3  0  0  0  0  0  0
  190.7570  176.3440  143.0480 C   0  0  0  0  0  3  0  0  0  0  0  0
  188.9320  177.1260  144.4520 C   0  0  0  0  0  0  0  0  0  0  0  0
  2 22  1  0  0  0  0
  2  1  1  0  0  0  0
  3  7  1  0  0  0  0
  5 34  1  1  0  0  0
  6  5  1  0  0  0  0
  7 24  1  1  0  0  0
  7 12  1  0  0  0  0
  8  6  2  0  0  0  0
  9  2  1  0  0  0  0
  9 18  1  0  0  0  0
 10  4  2  0  0  0  0
 11 27  1  6  0  0  0
 12 14  1  6  0  0  0
 12  2  1  0  0  0  0
 13 10  1  0  0  0  0
 15 30  1  1  0  0  0
 15 11  1  0  0  0  0
 15  3  1  0  0  0  0
 16 13  2  0  0  0  0
 16 17  1  0  0  0  0
 17 20  1  0  0  0  0
 17 23  2  0  0  0  0
 18  5  1  0  0  0  0
 19  8  1  0  0  0  0
 20 19  2  0  0  0  0
 21 11  1  0  0  0  0
 21 20  1  0  0  0  0
 23  4  1  0  0  0  0
 23  8  1  0  0  0  0
 24 25  1  0  0  0  0
 26 24  2  0  0  0  0
 27 28  1  0  0  0  0
 29 30  2  0  0  0  0
 31 29  1  0  0  0  0
 32 31  1  0  0  0  0
 34 33  1  1  0  0  0
 35 34  1  0  0  0  0
 35 36  1  0  0  0  0
 36 37  2  0  0  0  0
 39 43  1  0  0  0  0
 40 41  2  0  0  0  0
 41 38  1  0  0  0  0
 42 39  2  0  0  0  0
 42 40  1  0  0  0  0
 43 36  1  0  0  0  0
 43 38  2  0  0  0  0
M  END
>  <MODEL>
5

>  <REMARK>
 VINA RESULT:      -7.0      3.326      5.723
  Name = 
  7 active torsions:
  status: ('A' for Active; 'I' for Inactive)
    1  A    between atoms: C_5  and  CA_17
    2  A    between atoms: C_6  and  C_37
    3  A    between atoms: C_8  and  C_13
    4  A    between atoms: C_10  and  C_30
    5  A    between atoms: N_16  and  C_37
    6  A    between atoms: C_21  and  C_25
    7  A    between atoms: C_34  and  C_42
                            x       y       z     vdW  Elec       q    Type
                         _______ _______ _______ _____ _____    ______ ____

>  <TORSDO>
F 7

$$$$
=
 OpenBabel11042412543D

 43 46  0  0  1  0  0  0  0  0999 V2000
  184.9180  179.8480  141.2390 F   0  0  0  0  0  0  0  0  0  0  0  0
  185.1320  178.5850  140.7110 C   0  0  0  0  0  0  0  0  0  0  0  0
  184.3530  178.2570  137.5450 C   0  0  0  0  0  2  0  0  0  0  0  0
  190.2650  176.6210  136.7090 N   0  0  0  0  0  0  0  0  0  0  0  0
  188.2100  177.7360  140.6050 C   0  0  2  0  0  3  0  0  0  0  0  0
  188.9230  177.3740  139.3850 N   0  0  0  0  0  0  0  0  0  0  0  0
  183.4340  178.6660  138.7140 C   0  0  1  0  0  3  0  0  0  0  0  0
  188.3650  176.7460  138.3980 C   0  0  0  0  0  0  0  0  0  0  0  0
  186.1580  178.6290  139.7400 O   0  0  0  0  0  0  0  0  0  0  0  0
  190.5700  176.2380  135.4330 C   0  0  0  0  0  3  0  0  0  0  0  0
  184.2850  175.7250  137.2920 C   0  0  2  0  0  3  0  0  0  0  0  0
  183.8250  178.0730  140.0820 C   0  0  1  0  0  3  0  0  0  0  0  0
  189.6190  175.6510  134.6370 N   0  0  0  0  0  0  0  0  0  0  0  0
  183.7990  176.6760  140.0410 O   0  0  0  0  0  1  0  0  0  0  0  0
  183.8270  177.0810  136.7140 C   0  0  1  0  0  3  0  0  0  0  0  0
  188.3490  175.4280  135.0880 C   0  0  0  0  0  3  0  0  0  0  0  0
  188.0590  175.7880  136.3950 C   0  0  0  0  0  0  0  0  0  0  0  0
  187.3580  178.9840  140.3770 C   0  0  0  0  0  2  0  0  0  0  0  0
  186.9810  176.3680  138.3360 N   0  0  0  0  0  0  0  0  0  0  0  0
  186.8180  175.8180  137.1650 C   0  0  0  0  0  0  0  0  0  0  0  0
  185.5550  175.3620  136.6760 N   0  0  0  0  0  2  0  0  0  0  0  0
  185.4720  177.7290  141.7540 F   0  0  0  0  0  0  0  0  0  0  0  0
  189.0190  176.3610  137.1680 C   0  0  0  0  0  0  0  0  0  0  0  0
  183.2270  180.1560  138.7850 C   0  0  0  0  0  0  0  0  0  0  0  0
  181.8550  180.7050  138.9660 C   0  0  0  0  0  1  0  0  0  0  0  0
  184.1710  180.9280  138.7150 O   0  0  0  0  0  0  0  0  0  0  0  0
  183.2890  174.5890  137.0850 C   0  0  0  0  0  2  0  0  0  0  0  0
  183.8650  173.5880  136.2990 O   0  0  0  0  0  1  0  0  0  0  0  0
  181.9430  178.2570  135.6210 C   0  0  0  0  0  3  0  0  0  0  0  0
  182.3670  177.2320  136.3610 C   0  0  0  0  0  3  0  0  0  0  0  0
  180.4990  178.3990  135.2780 C   0  0  0  0  0  2  0  0  0  0  0  0
  179.6860  178.4700  136.5550 C   0  0  0  0  0  1  0  0  0  0  0  0
  189.9460  176.8060  141.9450 F   0  0  0  0  0  0  0  0  0  0  0  0
  189.1940  177.9540  141.7530 C   0  0  2  0  0  3  0  0  0  0  0  0
  188.4580  178.2390  142.9790 N   0  0  0  0  0  2  0  0  0  0  0  0
  187.9850  177.2150  143.8590 C   0  0  0  0  0  0  0  0  0  0  0  0
  187.9390  176.0160  143.4680 O   0  0  0  0  0  0  0  0  0  0  0  0
  186.2560  178.0020  145.4730 C   0  0  0  0  0  3  0  0  0  0  0  0
  188.4760  177.4900  146.2940 C   0  0  0  0  0  3  0  0  0  0  0  0
  186.7710  178.2840  147.8200 C   0  0  0  0  0  3  0  0  0  0  0  0
  185.8590  178.3580  146.7640 C   0  0  0  0  0  3  0  0  0  0  0  0
  188.0790  177.8520  147.5850 C   0  0  0  0  0  3  0  0  0  0  0  0
  187.5640  177.5610  145.2270 C   0  0  0  0  0  0  0  0  0  0  0  0
  2  1  1  0  0  0  0
  2 22  1  0  0  0  0
  3  7  1  0  0  0  0
  4 23  1  0  0  0  0
  5 34  1  1  0  0  0
  6  5  1  0  0  0  0
  7 24  1  1  0  0  0
  7 12  1  0  0  0  0
  8  6  2  0  0  0  0
  9 18  1  0  0  0  0
  9  2  1  0  0  0  0
 10  4  2  0  0  0  0
 11 27  1  6  0  0  0
 12 14  1  6  0  0  0
 12  2  1  0  0  0  0
 13 16  2  0  0  0  0
 13 10  1  0  0  0  0
 15 30  1  1  0  0  0
 15 11  1  0  0  0  0
 15  3  1  0  0  0  0
 16 17  1  0  0  0  0
 17 20  1  0  0  0  0
 17 23  2  0  0  0  0
 18  5  1  0  0  0  0
 19  8  1  0  0  0  0
 20 19  2  0  0  0  0
 21 20  1  0  0  0  0
 21 11  1  0  0  0  0
 23  8  1  0  0  0  0
 24 25  1  0  0  0  0
 26 24  2  0  0  0  0
 28 27  1  0  0  0  0
 29 30  2  0  0  0  0
 31 29  1  0  0  0  0
 31 32  1  0  0  0  0
 34 33  1  1  0  0  0
 34 35  1  0  0  0  0
 35 36  1  0  0  0  0
 36 43  1  0  0  0  0
 37 36  2  0  0  0  0
 38 41  1  0  0  0  0
 39 42  2  0  0  0  0
 41 40  2  0  0  0  0
 42 40  1  0  0  0  0
 43 38  2  0  0  0  0
 43 39  1  0  0  0  0
M  END
>  <MODEL>
6

>  <REMARK>
 VINA RESULT:      -6.8      2.819      5.298
  Name = 
  7 active torsions:
  status: ('A' for Active; 'I' for Inactive)
    1  A    between atoms: C_5  and  CA_17
    2  A    between atoms: C_6  and  C_37
    3  A    between atoms: C_8  and  C_13
    4  A    between atoms: C_10  and  C_30
    5  A    between atoms: N_16  and  C_37
    6  A    between atoms: C_21  and  C_25
    7  A    between atoms: C_34  and  C_42
                            x       y       z     vdW  Elec       q    Type
                         _______ _______ _______ _____ _____    ______ ____

>  <TORSDO>
F 7

$$$$
=
 OpenBabel11042412543D

 43 46  0  0  1  0  0  0  0  0999 V2000
  188.9240  178.9640  140.3790 F   0  0  0  0  0  0  0  0  0  0  0  0
  188.6400  178.5290  139.0950 C   0  0  0  0  0  0  0  0  0  0  0  0
  189.7400  175.5260  138.3770 C   0  0  0  0  0  2  0  0  0  0  0  0
  183.8250  174.1080  137.2230 N   0  0  0  0  0  0  0  0  0  0  0  0
  185.5230  178.1150  138.5310 C   0  0  2  0  0  3  0  0  0  0  0  0
  184.9220  176.8530  138.1150 N   0  0  0  0  0  0  0  0  0  0  0  0
  190.5560  176.7590  138.8150 C   0  0  1  0  0  3  0  0  0  0  0  0
  185.5210  176.0030  137.3410 C   0  0  0  0  0  0  0  0  0  0  0  0
  187.7430  177.4360  139.1360 O   0  0  0  0  0  0  0  0  0  0  0  0
  183.6310  172.8440  136.7440 C   0  0  0  0  0  3  0  0  0  0  0  0
  189.5710  175.5100  135.8370 C   0  0  2  0  0  3  0  0  0  0  0  0
  189.9500  178.1150  138.4020 C   0  0  1  0  0  3  0  0  0  0  0  0
  184.6010  172.2280  135.9930 N   0  0  0  0  0  0  0  0  0  0  0  0
  189.8350  178.2030  137.0120 O   0  0  0  0  0  1  0  0  0  0  0  0
  190.2330  174.8750  137.0790 C   0  0  1  0  0  3  0  0  0  0  0  0
  185.7800  172.8520  135.7000 C   0  0  0  0  0  3  0  0  0  0  0  0
  185.9540  174.1480  136.1610 C   0  0  0  0  0  0  0  0  0  0  0  0
  186.5220  177.8850  139.6640 C   0  0  0  0  0  2  0  0  0  0  0  0
  186.8550  176.1480  136.8310 N   0  0  0  0  0  0  0  0  0  0  0  0
  187.0940  175.0610  136.1520 C   0  0  0  0  0  0  0  0  0  0  0  0
  188.3500  174.7750  135.5340 N   0  0  0  0  0  2  0  0  0  0  0  0
  188.0950  179.5930  138.3840 F   0  0  0  0  0  0  0  0  0  0  0  0
  184.9760  174.7410  136.8960 C   0  0  0  0  0  0  0  0  0  0  0  0
  190.9090  176.7220  140.2780 C   0  0  0  0  0  0  0  0  0  0  0  0
  192.0590  177.5200  140.7830 C   0  0  0  0  0  1  0  0  0  0  0  0
  190.2530  176.0600  141.0680 O   0  0  0  0  0  0  0  0  0  0  0  0
  190.4600  175.5310  134.5980 C   0  0  0  0  0  2  0  0  0  0  0  0
  191.2640  176.6710  134.6070 O   0  0  0  0  0  1  0  0  0  0  0  0
  192.2750  173.4780  137.0700 C   0  0  0  0  0  3  0  0  0  0  0  0
  191.7320  174.6950  137.0570 C   0  0  0  0  0  3  0  0  0  0  0  0
  193.7570  173.3080  137.0490 C   0  0  0  0  0  2  0  0  0  0  0  0
  194.3800  174.2300  138.0780 C   0  0  0  0  0  1  0  0  0  0  0  0
  184.6330  180.3120  138.2980 F   0  0  0  0  0  0  0  0  0  0  0  0
  184.4420  179.1070  138.9540 C   0  0  2  0  0  3  0  0  0  0  0  0
  184.5310  179.3410  140.3910 N   0  0  0  0  0  2  0  0  0  0  0  0
  183.6460  178.7300  141.3360 C   0  0  0  0  0  0  0  0  0  0  0  0
  182.5770  178.1860  140.9420 O   0  0  0  0  0  0  0  0  0  0  0  0
  185.2530  178.2740  143.1850 C   0  0  0  0  0  3  0  0  0  0  0  0
  183.0570  179.1340  143.7310 C   0  0  0  0  0  3  0  0  0  0  0  0
  184.6430  178.6500  145.4950 C   0  0  0  0  0  3  0  0  0  0  0  0
  185.5800  178.2400  144.5430 C   0  0  0  0  0  3  0  0  0  0  0  0
  183.3820  179.0960  145.0910 C   0  0  0  0  0  3  0  0  0  0  0  0
  183.9930  178.7240  142.7670 C   0  0  0  0  0  0  0  0  0  0  0  0
  2  9  1  0  0  0  0
  2  1  1  0  0  0  0
  3  7  1  0  0  0  0
  5 34  1  1  0  0  0
  5 18  1  0  0  0  0
  6  5  1  0  0  0  0
  7 24  1  1  0  0  0
  8  6  2  0  0  0  0
  9 18  1  0  0  0  0
 10  4  2  0  0  0  0
 11 27  1  6  0  0  0
 11 15  1  0  0  0  0
 12 14  1  6  0  0  0
 12  7  1  0  0  0  0
 12  2  1  0  0  0  0
 13 10  1  0  0  0  0
 15 30  1  6  0  0  0
 15  3  1  0  0  0  0
 16 13  2  0  0  0  0
 16 17  1  0  0  0  0
 17 23  2  0  0  0  0
 19  8  1  0  0  0  0
 20 17  1  0  0  0  0
 20 19  2  0  0  0  0
 21 11  1  0  0  0  0
 21 20  1  0  0  0  0
 22  2  1  0  0  0  0
 23  4  1  0  0  0  0
 23  8  1  0  0  0  0
 24 25  1  0  0  0  0
 24 26  2  0  0  0  0
 27 28  1  0  0  0  0
 30 29  2  0  0  0  0
 31 29  1  0  0  0  0
 31 32  1  0  0  0  0
 34 33  1  6  0  0  0
 34 35  1  0  0  0  0
 35 36  1  0  0  0  0
 36 43  1  0  0  0  0
 37 36  2  0  0  0  0
 38 41  1  0  0  0  0
 39 42  2  0  0  0  0
 41 40  2  0  0  0  0
 42 40  1  0  0  0  0
 43 38  2  0  0  0  0
 43 39  1  0  0  0  0
M  END
>  <MODEL>
7

>  <REMARK>
 VINA RESULT:      -6.4      3.432      7.579
  Name = 
  7 active torsions:
  status: ('A' for Active; 'I' for Inactive)
    1  A    between atoms: C_5  and  CA_17
    2  A    between atoms: C_6  and  C_37
    3  A    between atoms: C_8  and  C_13
    4  A    between atoms: C_10  and  C_30
    5  A    between atoms: N_16  and  C_37
    6  A    between atoms: C_21  and  C_25
    7  A    between atoms: C_34  and  C_42
                            x       y       z     vdW  Elec       q    Type
                         _______ _______ _______ _____ _____    ______ ____

>  <TORSDO>
F 7

$$$$
=
 OpenBabel11042412543D

 43 46  0  0  1  0  0  0  0  0999 V2000
  183.6290  178.7150  137.6560 F   0  0  0  0  0  0  0  0  0  0  0  0
  184.1680  177.4650  137.9150 C   0  0  0  0  0  0  0  0  0  0  0  0
  184.0690  175.3680  135.3990 C   0  0  0  0  0  2  0  0  0  0  0  0
  190.2320  175.1140  135.9320 N   0  0  0  0  0  0  0  0  0  0  0  0
  187.3140  177.5050  138.4660 C   0  0  2  0  0  3  0  0  0  0  0  0
  188.2970  176.7640  137.6840 N   0  0  0  0  0  0  0  0  0  0  0  0
  182.8880  176.0690  136.1010 C   0  0  1  0  0  3  0  0  0  0  0  0
  188.0590  175.5990  137.1670 C   0  0  0  0  0  0  0  0  0  0  0  0
  185.3320  177.2640  137.1370 O   0  0  0  0  0  0  0  0  0  0  0  0
  190.8360  174.2230  135.0910 C   0  0  0  0  0  3  0  0  0  0  0  0
  184.5190  173.1490  136.5610 C   0  0  2  0  0  3  0  0  0  0  0  0
  183.1190  176.3870  137.5910 C   0  0  1  0  0  3  0  0  0  0  0  0
  190.1750  173.0890  134.6880 N   0  0  0  0  0  0  0  0  0  0  0  0
  183.3590  175.2170  138.3160 O   0  0  0  0  0  1  0  0  0  0  0  0
  183.9340  173.8430  135.3130 C   0  0  1  0  0  3  0  0  0  0  0  0
  188.9070  172.8130  135.1140 C   0  0  0  0  0  3  0  0  0  0  0  0
  188.3150  173.7060  135.9950 C   0  0  0  0  0  0  0  0  0  0  0  0
  186.3050  178.1900  137.5460 C   0  0  0  0  0  2  0  0  0  0  0  0
  186.8060  174.9030  137.2410 N   0  0  0  0  0  0  0  0  0  0  0  0
  186.9690  173.8080  136.5520 C   0  0  0  0  0  0  0  0  0  0  0  0
  185.9260  172.8590  136.3170 N   0  0  0  0  0  2  0  0  0  0  0  0
  184.4590  177.3880  139.2730 F   0  0  0  0  0  0  0  0  0  0  0  0
  188.9920  174.8180  136.3860 C   0  0  0  0  0  0  0  0  0  0  0  0
  182.4000  177.2710  135.3360 C   0  0  0  0  0  0  0  0  0  0  0  0
  180.9940  177.7320  135.5020 C   0  0  0  0  0  1  0  0  0  0  0  0
  183.1450  177.8910  134.5940 O   0  0  0  0  0  0  0  0  0  0  0  0
  183.8060  171.8560  136.9490 C   0  0  0  0  0  2  0  0  0  0  0  0
  184.2530  170.8070  136.1450 O   0  0  0  0  0  1  0  0  0  0  0  0
  181.5170  173.4530  135.6750 C   0  0  0  0  0  3  0  0  0  0  0  0
  182.5630  173.4100  134.8510 C   0  0  0  0  0  3  0  0  0  0  0  0
  180.1670  173.0230  135.2120 C   0  0  0  0  0  2  0  0  0  0  0  0
  179.9390  171.5780  135.6080 C   0  0  0  0  0  1  0  0  0  0  0  0
  189.3820  178.4260  139.2070 F   0  0  0  0  0  0  0  0  0  0  0  0
  188.0090  178.5270  139.3650 C   0  0  2  0  0  3  0  0  0  0  0  0
  187.6800  178.2530  140.7590 N   0  0  0  0  0  2  0  0  0  0  0  0
  188.5270  177.4900  141.6240 C   0  0  0  0  0  0  0  0  0  0  0  0
  189.4560  176.7860  141.1410 O   0  0  0  0  0  0  0  0  0  0  0  0
  189.4210  177.5910  143.9480 C   0  0  0  0  0  3  0  0  0  0  0  0
  187.0240  177.5010  143.6210 C   0  0  0  0  0  3  0  0  0  0  0  0
  187.9410  177.5730  145.8610 C   0  0  0  0  0  3  0  0  0  0  0  0
  189.2340  177.6120  145.3320 C   0  0  0  0  0  3  0  0  0  0  0  0
  186.8370  177.5150  145.0070 C   0  0  0  0  0  3  0  0  0  0  0  0
  188.3200  177.5400  143.0810 C   0  0  0  0  0  0  0  0  0  0  0  0
  1  2  1  0  0  0  0
  2 22  1  0  0  0  0
  3  7  1  0  0  0  0
  4 23  1  0  0  0  0
  5 34  1  6  0  0  0
  6  5  1  0  0  0  0
  7 24  1  6  0  0  0
  7 12  1  0  0  0  0
  8 19  1  0  0  0  0
  8  6  2  0  0  0  0
  9 18  1  0  0  0  0
  9  2  1  0  0  0  0
 10  4  2  0  0  0  0
 11 27  1  6  0  0  0
 12  2  1  0  0  0  0
 12 14  1  1  0  0  0
 13 10  1  0  0  0  0
 13 16  2  0  0  0  0
 15 30  1  1  0  0  0
 15  3  1  0  0  0  0
 15 11  1  0  0  0  0
 16 17  1  0  0  0  0
 17 23  2  0  0  0  0
 17 20  1  0  0  0  0
 18  5  1  0  0  0  0
 20 19  2  0  0  0  0
 21 20  1  0  0  0  0
 21 11  1  0  0  0  0
 23  8  1  0  0  0  0
 24 25  1  0  0  0  0
 26 24  2  0  0  0  0
 28 27  1  0  0  0  0
 30 29  2  0  0  0  0
 31 32  1  0  0  0  0
 31 29  1  0  0  0  0
 34 33  1  1  0  0  0
 34 35  1  0  0  0  0
 35 36  1  0  0  0  0
 36 43  1  0  0  0  0
 37 36  2  0  0  0  0
 38 41  1  0  0  0  0
 39 42  2  0  0  0  0
 41 40  2  0  0  0  0
 42 40  1  0  0  0  0
 43 39  1  0  0  0  0
 43 38  2  0  0  0  0
M  END
>  <MODEL>
8

>  <REMARK>
 VINA RESULT:      -6.2      3.637      6.166
  Name = 
  7 active torsions:
  status: ('A' for Active; 'I' for Inactive)
    1  A    between atoms: C_5  and  CA_17
    2  A    between atoms: C_6  and  C_37
    3  A    between atoms: C_8  and  C_13
    4  A    between atoms: C_10  and  C_30
    5  A    between atoms: N_16  and  C_37
    6  A    between atoms: C_21  and  C_25
    7  A    between atoms: C_34  and  C_42
                            x       y       z     vdW  Elec       q    Type
                         _______ _______ _______ _____ _____    ______ ____

>  <TORSDO>
F 7

$$$$
=
 OpenBabel11042412543D

 43 46  0  0  1  0  0  0  0  0999 V2000
  187.1740  174.7260  135.4780 F   0  0  0  0  0  0  0  0  0  0  0  0
  186.2960  175.7750  135.6920 C   0  0  0  0  0  0  0  0  0  0  0  0
  183.4610  174.9400  137.1090 C   0  0  0  0  0  2  0  0  0  0  0  0
  185.0200  178.9320  141.5770 N   0  0  0  0  0  0  0  0  0  0  0  0
  187.3470  177.9280  137.8050 C   0  0  2  0  0  3  0  0  0  0  0  0
  186.6470  178.2860  139.0340 N   0  0  0  0  0  0  0  0  0  0  0  0
  184.0440  174.4330  135.7750 C   0  0  1  0  0  3  0  0  0  0  0  0
  185.3540  178.3230  139.1280 C   0  0  0  0  0  0  0  0  0  0  0  0
  186.1260  175.9960  137.0780 O   0  0  0  0  0  0  0  0  0  0  0  0
  184.0670  179.1010  142.5420 C   0  0  0  0  0  3  0  0  0  0  0  0
  182.0330  176.9970  136.6550 C   0  0  2  0  0  3  0  0  0  0  0  0
  184.9440  175.4430  135.0360 C   0  0  1  0  0  3  0  0  0  0  0  0
  182.7360  178.9610  142.2360 N   0  0  0  0  0  0  0  0  0  0  0  0
  184.2330  176.6060  134.7290 O   0  0  0  0  0  1  0  0  0  0  0  0
  182.0350  175.4930  137.0020 C   0  0  1  0  0  3  0  0  0  0  0  0
  182.3230  178.6550  140.9710 C   0  0  0  0  0  3  0  0  0  0  0  0
  183.2950  178.5200  139.9910 C   0  0  0  0  0  0  0  0  0  0  0  0
  187.3540  176.4120  137.6160 C   0  0  0  0  0  2  0  0  0  0  0  0
  184.4390  177.9740  138.0790 N   0  0  0  0  0  0  0  0  0  0  0  0
  183.2480  178.0880  138.5970 C   0  0  0  0  0  0  0  0  0  0  0  0
  182.0460  177.7620  137.8950 N   0  0  0  0  0  2  0  0  0  0  0  0
  186.8090  176.9080  135.0690 F   0  0  0  0  0  0  0  0  0  0  0  0
  184.6070  178.6700  140.3160 C   0  0  0  0  0  0  0  0  0  0  0  0
  184.7050  173.0860  135.9130 C   0  0  0  0  0  0  0  0  0  0  0  0
  184.7170  172.4000  137.2340 C   0  0  0  0  0  1  0  0  0  0  0  0
  185.2170  172.5330  134.9520 O   0  0  0  0  0  0  0  0  0  0  0  0
  180.8430  177.4410  135.8100 C   0  0  0  0  0  2  0  0  0  0  0  0
  181.2920  178.0430  134.6330 O   0  0  0  0  0  1  0  0  0  0  0  0
  180.6140  173.4840  136.7440 C   0  0  0  0  0  3  0  0  0  0  0  0
  181.1250  174.5910  136.2050 C   0  0  0  0  0  3  0  0  0  0  0  0
  179.7160  172.5970  135.9500 C   0  0  0  0  0  2  0  0  0  0  0  0
  179.9950  171.1520  136.3090 C   0  0  0  0  0  1  0  0  0  0  0  0
  189.4260  178.1160  136.6580 F   0  0  0  0  0  0  0  0  0  0  0  0
  188.7710  178.4790  137.8240 C   0  0  2  0  0  3  0  0  0  0  0  0
  189.4960  177.9180  138.9580 N   0  0  0  0  0  2  0  0  0  0  0  0
  189.2790  178.3420  140.3080 C   0  0  0  0  0  0  0  0  0  0  0  0
  188.6550  179.4140  140.5420 O   0  0  0  0  0  0  0  0  0  0  0  0
  188.8760  176.7570  142.1880 C   0  0  0  0  0  3  0  0  0  0  0  0
  191.1370  177.5080  141.7560 C   0  0  0  0  0  3  0  0  0  0  0  0
  190.6930  175.9880  143.5890 C   0  0  0  0  0  3  0  0  0  0  0  0
  189.3340  175.9930  143.2640 C   0  0  0  0  0  3  0  0  0  0  0  0
  191.5950  176.7470  142.8370 C   0  0  0  0  0  3  0  0  0  0  0  0
  189.7720  177.5160  141.4230 C   0  0  0  0  0  0  0  0  0  0  0  0
  1  2  1  0  0  0  0
  2  9  1  0  0  0  0
  4 10  1  0  0  0  0
  5 34  1  1  0  0  0
  5  6  1  0  0  0  0
  6  8  2  0  0  0  0
  7 24  1  1  0  0  0
  7  3  1  0  0  0  0
  8 23  1  0  0  0  0
  9 18  1  0  0  0  0
 11 27  1  1  0  0  0
 11 15  1  0  0  0  0
 11 21  1  0  0  0  0
 12 14  1  1  0  0  0
 12  2  1  0  0  0  0
 12  7  1  0  0  0  0
 13 10  2  0  0  0  0
 15 30  1  6  0  0  0
 15  3  1  0  0  0  0
 16 13  1  0  0  0  0
 17 23  1  0  0  0  0
 17 16  2  0  0  0  0
 18  5  1  0  0  0  0
 19 20  2  0  0  0  0
 19  8  1  0  0  0  0
 20 17  1  0  0  0  0
 21 20  1  0  0  0  0
 22  2  1  0  0  0  0
 23  4  2  0  0  0  0
 24 25  1  0  0  0  0
 26 24  2  0  0  0  0
 28 27  1  0  0  0  0
 30 29  2  0  0  0  0
 31 32  1  0  0  0  0
 31 29  1  0  0  0  0
 34 33  1  6  0  0  0
 34 35  1  0  0  0  0
 35 36  1  0  0  0  0
 36 37  2  0  0  0  0
 36 43  1  0  0  0  0
 38 41  1  0  0  0  0
 39 42  2  0  0  0  0
 41 40  2  0  0  0  0
 42 40  1  0  0  0  0
 43 39  1  0  0  0  0
 43 38  2  0  0  0  0
M  END
>  <MODEL>
9

>  <REMARK>
 VINA RESULT:      -6.1      2.631      3.876
  Name = 
  7 active torsions:
  status: ('A' for Active; 'I' for Inactive)
    1  A    between atoms: C_5  and  CA_17
    2  A    between atoms: C_6  and  C_37
    3  A    between atoms: C_8  and  C_13
    4  A    between atoms: C_10  and  C_30
    5  A    between atoms: N_16  and  C_37
    6  A    between atoms: C_21  and  C_25
    7  A    between atoms: C_34  and  C_42
                            x       y       z     vdW  Elec       q    Type
                         _______ _______ _______ _____ _____    ______ ____

>  <TORSDO>
F 7

$$$$
