=
 OpenBabel11042413233D

 50 56  0  0  1  0  0  0  0  0999 V2000
  192.3210  173.7640  135.8800 C   0  0  0  0  0  3  0  0  0  0  0  0
  183.3620  176.9430  137.3100 C   0  0  1  0  0  3  0  0  0  0  0  0
  187.5820  177.4900  137.2000 C   0  0  2  0  0  3  0  0  0  0  0  0
  187.5970  178.3940  135.9800 C   0  0  0  0  0  1  0  0  0  0  0  0
  184.4400  174.7490  136.2180 S   0  0  0  0  0  0  0  0  0  0  0  0
  183.3450  176.1280  136.0360 C   0  0  2  0  0  3  0  0  0  0  0  0
  188.9500  177.0460  137.4850 N   0  0  1  0  0  0  0  0  0  0  0  0
  189.4590  177.6520  138.7110 C   0  0  2  0  0  3  0  0  0  0  0  0
  191.0410  173.3280  135.5450 C   0  0  0  0  0  0  0  0  0  0  0  0
  192.4900  174.7980  136.8000 C   0  0  0  0  0  3  0  0  0  0  0  0
  185.5810  176.1300  136.5440 C   0  0  0  0  0  0  0  0  0  0  0  0
  191.3940  175.4330  137.4090 C   0  0  0  0  0  0  0  0  0  0  0  0
  190.8960  177.4160  138.8770 N   0  0  0  0  0  0  0  0  0  0  0  0
  191.7270  176.5200  138.3960 C   0  0  0  0  0  0  0  0  0  0  0  0
  188.8890  175.5970  137.6790 C   0  0  2  0  0  3  0  0  0  0  0  0
  186.8530  176.2330  136.9120 C   0  0  0  0  0  0  0  0  0  0  0  0
  190.0940  174.9830  137.0650 C   0  0  0  0  0  0  0  0  0  0  0  0
  187.6670  175.1490  137.1230 O   0  0  0  0  0  0  0  0  0  0  0  0
  189.9340  173.9360  136.1430 C   0  0  0  0  0  3  0  0  0  0  0  0
  184.4500  177.1000  136.2700 C   0  0  2  0  0  3  0  0  0  0  0  0
  191.5720  170.9960  134.7070 C   0  0  0  0  0  1  0  0  0  0  0  0
  190.8860  172.2720  134.5940 N   0  0  0  0  0  2  0  0  0  0  0  0
  193.0640  176.5890  138.8080 O   0  0  0  0  0  0  0  0  0  0  0  0
  193.4620  177.2030  140.0250 C   0  0  0  0  0  1  0  0  0  0  0  0
  188.6780  177.2540  139.9760 C   0  0  0  0  0  2  0  0  0  0  0  0
  189.5950  177.6620  142.3040 C   0  0  0  0  0  0  0  0  0  0  0  0
  189.5860  176.9380  141.0690 N   0  0  0  0  0  2  0  0  0  0  0  0
  188.8470  178.7070  142.4580 N   0  0  0  0  0  2  0  0  0  0  0  0
  191.8810  175.8840  144.5860 C   0  0  0  0  0  2  0  0  0  0  0  0
  190.8580  176.8450  146.6440 C   0  0  0  0  0  1  0  0  0  0  0  0
  190.6580  177.9040  144.4670 N   0  0  0  0  0  0  0  0  0  0  0  0
  191.5640  177.1760  145.3440 C   0  0  2  0  0  3  0  0  0  0  0  0
  190.4650  177.2150  143.3980 C   0  0  0  0  0  0  0  0  0  0  0  0
  191.1470  176.0160  143.3830 O   0  0  0  0  0  0  0  0  0  0  0  0
  182.3680  178.0810  137.1860 C   0  0  0  0  0  2  0  0  0  0  0  0
  181.4100  178.0650  138.3660 C   0  0  0  0  0  2  0  0  0  0  0  0
  182.0910  177.5770  139.5540 N   0  0  0  0  0  2  0  0  0  0  0  0
  182.4420  178.7380  140.3610 C   0  0  0  0  0  2  0  0  0  0  0  0
  183.7960  178.5240  141.0170 C   0  0  2  0  0  3  0  0  0  0  0  0
  185.6300  178.5400  147.0400 C   0  0  0  0  0  1  0  0  0  0  0  0
  182.4680  179.0720  143.0600 C   0  0  0  0  0  3  0  0  0  0  0  0
  184.6480  178.5870  144.7270 C   0  0  0  0  0  0  0  0  0  0  0  0
  184.7820  178.4250  143.3390 C   0  0  0  0  0  3  0  0  0  0  0  0
  183.4450  178.9820  145.2380 N   0  0  0  0  0  0  0  0  0  0  0  0
  183.6830  178.6640  142.5020 C   0  0  0  0  0  0  0  0  0  0  0  0
  185.7610  178.3430  145.6060 N   0  0  0  0  0  0  0  0  0  0  0  0
  182.3670  179.2260  144.4430 C   0  0  0  0  0  3  0  0  0  0  0  0
  187.0500  177.8980  145.0950 C   0  0  0  0  0  1  0  0  0  0  0  0
  184.7680  179.4700  140.4900 N   0  0  0  0  0  2  0  0  0  0  0  0
  185.5580  178.7730  139.5680 N   0  0  0  0  0  1  0  0  0  0  0  0
  1 10  1  0  0  0  0
  2 35  1  6  0  0  0
  3  4  1  6  0  0  0
  3  7  1  0  0  0  0
  5 11  1  0  0  0  0
  6  5  1  1  0  0  0
  6 20  1  0  0  0  0
  6  2  1  0  0  0  0
  7 15  1  0  0  0  0
  7  8  1  0  0  0  0
  8 13  1  0  0  0  0
  8 25  1  0  0  0  0
  9  1  2  0  0  0  0
  9 19  1  0  0  0  0
 10 12  2  0  0  0  0
 11 16  2  0  0  0  0
 12 14  1  0  0  0  0
 14 23  1  0  0  0  0
 14 13  2  0  0  0  0
 16 18  1  0  0  0  0
 16  3  1  0  0  0  0
 17 12  1  0  0  0  0
 17 15  1  0  0  0  0
 18 15  1  0  0  0  0
 19 17  2  0  0  0  0
 20 11  1  0  0  0  0
 20  2  1  0  0  0  0
 22 21  1  0  0  0  0
 22  9  1  0  0  0  0
 23 24  1  0  0  0  0
 25 27  1  0  0  0  0
 26 28  2  0  0  0  0
 26 33  1  0  0  0  0
 27 26  1  0  0  0  0
 29 32  1  0  0  0  0
 31 32  1  0  0  0  0
 32 30  1  0  0  0  0
 33 31  2  0  0  0  0
 34 33  1  0  0  0  0
 34 29  1  0  0  0  0
 35 36  1  0  0  0  0
 36 37  1  0  0  0  0
 37 38  1  0  0  0  0
 38 39  1  0  0  0  0
 39 45  1  0  0  0  0
 41 47  1  0  0  0  0
 42 44  1  0  0  0  0
 42 46  1  0  0  0  0
 43 42  2  0  0  0  0
 45 41  2  0  0  0  0
 45 43  1  0  0  0  0
 46 40  1  0  0  0  0
 47 44  2  0  0  0  0
 48 46  1  0  0  0  0
 49 39  1  0  0  0  0
 50 49  1  0  0  0  0
M  END
>  <MODEL>
1

>  <REMARK>
 VINA RESULT:      -8.2      0.000      0.000
  Name = 
  12 active torsions:
  status: ('A' for Active; 'I' for Inactive)
    1  A    between atoms: C_2  and  C_42
    2  A    between atoms: N_6  and  C_16
    3  A    between atoms: C_8  and  C_44
    4  A    between atoms: N_9  and  C_25
    5  A    between atoms: C_10  and  N_19
    6  A    between atoms: C_10  and  C_29
    7  A    between atoms: O_14  and  C_31
    8  A    between atoms: C_15  and  C_25
    9  A    between atoms: N_19  and  C_20
   10  A    between atoms: C_20  and  C_42
   11  A    between atoms: N_23  and  C_29
   12  A    between atoms: C_29  and  C_37
                            x       y       z     vdW  Elec       q    Type
                         _______ _______ _______ _____ _____    ______ ____

>  <TORSDO>
F 12

$$$$
=
 OpenBabel11042413233D

 50 56  0  0  1  0  0  0  0  0999 V2000
  192.3500  173.8700  136.0610 C   0  0  0  0  0  3  0  0  0  0  0  0
  183.2920  176.8030  137.3880 C   0  0  1  0  0  3  0  0  0  0  0  0
  187.4910  177.4830  137.2520 C   0  0  2  0  0  3  0  0  0  0  0  0
  187.4760  178.3420  135.9980 C   0  0  0  0  0  1  0  0  0  0  0  0
  184.4410  174.6060  136.3750 S   0  0  0  0  0  0  0  0  0  0  0  0
  183.3000  175.9410  136.1440 C   0  0  2  0  0  3  0  0  0  0  0  0
  188.8730  177.0950  137.5500 N   0  0  1  0  0  0  0  0  0  0  0  0
  189.3620  177.7630  138.7520 C   0  0  2  0  0  3  0  0  0  0  0  0
  191.0840  173.3790  135.7440 C   0  0  0  0  0  0  0  0  0  0  0  0
  192.4850  174.9420  136.9420 C   0  0  0  0  0  3  0  0  0  0  0  0
  185.5360  176.0360  136.6490 C   0  0  0  0  0  0  0  0  0  0  0  0
  191.3680  175.5620  137.5290 C   0  0  0  0  0  0  0  0  0  0  0  0
  190.8060  177.5800  138.9240 N   0  0  0  0  0  0  0  0  0  0  0  0
  191.6660  176.6950  138.4760 C   0  0  0  0  0  0  0  0  0  0  0  0
  188.8600  175.6530  137.7970 C   0  0  2  0  0  3  0  0  0  0  0  0
  186.8030  176.1940  137.0100 C   0  0  0  0  0  0  0  0  0  0  0  0
  190.0840  175.0570  137.2030 C   0  0  0  0  0  0  0  0  0  0  0  0
  187.6530  175.1450  137.2590 O   0  0  0  0  0  0  0  0  0  0  0  0
  189.9580  173.9720  136.3210 C   0  0  0  0  0  3  0  0  0  0  0  0
  184.3730  176.9570  136.3410 C   0  0  2  0  0  3  0  0  0  0  0  0
  191.9400  171.2110  134.7480 C   0  0  0  0  0  1  0  0  0  0  0  0
  190.9630  172.2850  134.8320 N   0  0  0  0  0  2  0  0  0  0  0  0
  193.0010  176.8230  138.8820 O   0  0  0  0  0  0  0  0  0  0  0  0
  193.3740  177.4210  140.1140 C   0  0  0  0  0  1  0  0  0  0  0  0
  188.5960  177.3860  140.0320 C   0  0  0  0  0  2  0  0  0  0  0  0
  189.2070  177.0560  142.4710 C   0  0  0  0  0  0  0  0  0  0  0  0
  189.3620  177.7350  141.2190 N   0  0  0  0  0  2  0  0  0  0  0  0
  188.2920  176.1530  142.6190 N   0  0  0  0  0  2  0  0  0  0  0  0
  191.8550  178.2930  144.7170 C   0  0  0  0  0  2  0  0  0  0  0  0
  191.7130  176.3380  146.2520 C   0  0  0  0  0  1  0  0  0  0  0  0
  189.8820  176.9940  144.7960 N   0  0  0  0  0  0  0  0  0  0  0  0
  190.9430  177.5000  145.6550 C   0  0  2  0  0  3  0  0  0  0  0  0
  190.0910  177.3950  143.5920 C   0  0  0  0  0  0  0  0  0  0  0  0
  191.2260  178.1670  143.4550 O   0  0  0  0  0  0  0  0  0  0  0  0
  182.2600  177.9020  137.2240 C   0  0  0  0  0  2  0  0  0  0  0  0
  180.9070  177.4240  137.7250 C   0  0  0  0  0  2  0  0  0  0  0  0
  181.0590  176.7500  139.0040 N   0  0  0  0  0  2  0  0  0  0  0  0
  180.1290  177.3720  139.9360 C   0  0  0  0  0  2  0  0  0  0  0  0
  180.6250  178.7580  140.3170 C   0  0  2  0  0  3  0  0  0  0  0  0
  185.2730  178.7750  144.5640 C   0  0  0  0  0  1  0  0  0  0  0  0
  180.4730  178.7100  142.8090 C   0  0  0  0  0  3  0  0  0  0  0  0
  183.2470  178.7380  143.0770 C   0  0  0  0  0  0  0  0  0  0  0  0
  182.6700  178.7460  141.7980 C   0  0  0  0  0  3  0  0  0  0  0  0
  182.4340  178.7170  144.1730 N   0  0  0  0  0  0  0  0  0  0  0  0
  181.2740  178.7270  141.6640 C   0  0  0  0  0  0  0  0  0  0  0  0
  184.6770  178.7530  143.2380 N   0  0  0  0  0  0  0  0  0  0  0  0
  181.0770  178.7040  144.0670 C   0  0  0  0  0  3  0  0  0  0  0  0
  185.5710  178.7510  142.0890 C   0  0  0  0  0  1  0  0  0  0  0  0
  179.5240  179.7090  140.3070 N   0  0  0  0  0  2  0  0  0  0  0  0
  180.0840  180.9800  140.1320 N   0  0  0  0  0  1  0  0  0  0  0  0
  1 10  1  0  0  0  0
  2 35  1  6  0  0  0
  3  4  1  6  0  0  0
  3  7  1  0  0  0  0
  5 11  1  0  0  0  0
  6 20  1  0  0  0  0
  6  5  1  1  0  0  0
  6  2  1  0  0  0  0
  7 15  1  0  0  0  0
  7  8  1  0  0  0  0
  8 13  1  0  0  0  0
  8 25  1  0  0  0  0
  9  1  2  0  0  0  0
  9 19  1  0  0  0  0
 10 12  2  0  0  0  0
 11 16  2  0  0  0  0
 12 14  1  0  0  0  0
 14 23  1  0  0  0  0
 14 13  2  0  0  0  0
 16  3  1  0  0  0  0
 16 18  1  0  0  0  0
 17 12  1  0  0  0  0
 17 15  1  0  0  0  0
 18 15  1  0  0  0  0
 19 17  2  0  0  0  0
 20 11  1  0  0  0  0
 20  2  1  0  0  0  0
 21 22  1  0  0  0  0
 22  9  1  0  0  0  0
 23 24  1  0  0  0  0
 25 27  1  0  0  0  0
 26 28  2  0  0  0  0
 26 33  1  0  0  0  0
 27 26  1  0  0  0  0
 29 32  1  0  0  0  0
 31 32  1  0  0  0  0
 32 30  1  0  0  0  0
 33 31  2  0  0  0  0
 34 33  1  0  0  0  0
 34 29  1  0  0  0  0
 35 36  1  0  0  0  0
 36 37  1  0  0  0  0
 37 38  1  0  0  0  0
 38 39  1  0  0  0  0
 39 45  1  0  0  0  0
 41 47  1  0  0  0  0
 42 46  1  0  0  0  0
 42 44  1  0  0  0  0
 43 42  2  0  0  0  0
 45 43  1  0  0  0  0
 45 41  2  0  0  0  0
 46 40  1  0  0  0  0
 47 44  2  0  0  0  0
 48 46  1  0  0  0  0
 49 39  1  0  0  0  0
 50 49  1  0  0  0  0
M  END
>  <MODEL>
2

>  <REMARK>
 VINA RESULT:      -7.2      1.244      1.782
  Name = 
  12 active torsions:
  status: ('A' for Active; 'I' for Inactive)
    1  A    between atoms: C_2  and  C_42
    2  A    between atoms: N_6  and  C_16
    3  A    between atoms: C_8  and  C_44
    4  A    between atoms: N_9  and  C_25
    5  A    between atoms: C_10  and  N_19
    6  A    between atoms: C_10  and  C_29
    7  A    between atoms: O_14  and  C_31
    8  A    between atoms: C_15  and  C_25
    9  A    between atoms: N_19  and  C_20
   10  A    between atoms: C_20  and  C_42
   11  A    between atoms: N_23  and  C_29
   12  A    between atoms: C_29  and  C_37
                            x       y       z     vdW  Elec       q    Type
                         _______ _______ _______ _____ _____    ______ ____

>  <TORSDO>
F 12

$$$$
=
 OpenBabel11042413233D

 50 56  0  0  1  0  0  0  0  0999 V2000
  193.3120  173.5190  136.3690 C   0  0  0  0  0  3  0  0  0  0  0  0
  184.1210  176.3110  136.7560 C   0  0  1  0  0  3  0  0  0  0  0  0
  188.3010  177.0600  137.0390 C   0  0  2  0  0  3  0  0  0  0  0  0
  188.3990  177.9120  135.7850 C   0  0  0  0  0  1  0  0  0  0  0  0
  185.4010  174.1290  135.8780 S   0  0  0  0  0  0  0  0  0  0  0  0
  184.2690  175.4440  135.5250 C   0  0  2  0  0  3  0  0  0  0  0  0
  189.6530  176.6950  137.4780 N   0  0  1  0  0  0  0  0  0  0  0  0
  190.0070  177.3770  138.7190 C   0  0  2  0  0  3  0  0  0  0  0  0
  192.0920  173.0070  135.9290 C   0  0  0  0  0  0  0  0  0  0  0  0
  193.3400  174.5980  137.2520 C   0  0  0  0  0  3  0  0  0  0  0  0
  186.4400  175.5770  136.2520 C   0  0  0  0  0  0  0  0  0  0  0  0
  192.1610  175.2030  137.7190 C   0  0  0  0  0  0  0  0  0  0  0  0
  191.4290  177.2190  139.0370 N   0  0  0  0  0  0  0  0  0  0  0  0
  192.3440  176.3460  138.6830 C   0  0  0  0  0  0  0  0  0  0  0  0
  189.6370  175.2550  137.7320 C   0  0  2  0  0  3  0  0  0  0  0  0
  187.6620  175.7580  136.7380 C   0  0  0  0  0  0  0  0  0  0  0  0
  190.9240  174.6760  137.2690 C   0  0  0  0  0  0  0  0  0  0  0  0
  188.4990  174.7250  137.0780 O   0  0  0  0  0  0  0  0  0  0  0  0
  190.9050  173.5840  136.3860 C   0  0  0  0  0  3  0  0  0  0  0  0
  185.3000  176.4780  135.8210 C   0  0  2  0  0  3  0  0  0  0  0  0
  192.8490  170.6910  135.2320 C   0  0  0  0  0  1  0  0  0  0  0  0
  192.0810  171.9070  135.0170 N   0  0  0  0  0  2  0  0  0  0  0  0
  193.6280  176.4970  139.2210 O   0  0  0  0  0  0  0  0  0  0  0  0
  193.9530  177.5140  140.1580 C   0  0  0  0  0  1  0  0  0  0  0  0
  189.1210  176.9940  139.9170 C   0  0  0  0  0  2  0  0  0  0  0  0
  189.2780  176.8070  142.4410 C   0  0  0  0  0  0  0  0  0  0  0  0
  189.8590  177.1060  141.1670 N   0  0  0  0  0  2  0  0  0  0  0  0
  188.0210  176.5140  142.5370 N   0  0  0  0  0  2  0  0  0  0  0  0
  191.7860  176.2910  145.0940 C   0  0  0  0  0  2  0  0  0  0  0  0
  190.2370  176.9450  146.9310 C   0  0  0  0  0  1  0  0  0  0  0  0
  189.9020  177.6410  144.6280 N   0  0  0  0  0  0  0  0  0  0  0  0
  190.9080  177.4130  145.6550 C   0  0  2  0  0  3  0  0  0  0  0  0
  190.1170  176.8410  143.6440 C   0  0  0  0  0  0  0  0  0  0  0  0
  191.2050  176.0140  143.8330 O   0  0  0  0  0  0  0  0  0  0  0  0
  183.0940  177.3930  136.4800 C   0  0  0  0  0  2  0  0  0  0  0  0
  181.8420  177.1420  137.3040 C   0  0  0  0  0  2  0  0  0  0  0  0
  182.1940  176.5160  138.5680 N   0  0  0  0  0  2  0  0  0  0  0  0
  181.4630  177.2140  139.6170 C   0  0  0  0  0  2  0  0  0  0  0  0
  181.9300  178.6580  139.7020 C   0  0  2  0  0  3  0  0  0  0  0  0
  185.5070  178.8520  144.8810 C   0  0  0  0  0  1  0  0  0  0  0  0
  184.4150  178.8240  139.8880 C   0  0  0  0  0  3  0  0  0  0  0  0
  184.3070  178.8140  142.6720 C   0  0  0  0  0  0  0  0  0  0  0  0
  183.1190  178.7440  141.9280 C   0  0  0  0  0  3  0  0  0  0  0  0
  185.5010  178.8870  142.0140 N   0  0  0  0  0  0  0  0  0  0  0  0
  183.1740  178.7540  140.5270 C   0  0  0  0  0  0  0  0  0  0  0  0
  184.2740  178.8100  144.1110 N   0  0  0  0  0  0  0  0  0  0  0  0
  185.5780  178.8910  140.6550 C   0  0  0  0  0  3  0  0  0  0  0  0
  183.0150  178.7590  144.8420 C   0  0  0  0  0  1  0  0  0  0  0  0
  180.8820  179.4960  140.2640 N   0  0  0  0  0  2  0  0  0  0  0  0
  180.7930  180.6350  139.4550 N   0  0  0  0  0  1  0  0  0  0  0  0
  1 10  1  0  0  0  0
  2 35  1  6  0  0  0
  3  4  1  6  0  0  0
  3  7  1  0  0  0  0
  5 11  1  0  0  0  0
  6 20  1  0  0  0  0
  6  5  1  1  0  0  0
  6  2  1  0  0  0  0
  7 15  1  0  0  0  0
  7  8  1  0  0  0  0
  8 13  1  0  0  0  0
  8 25  1  0  0  0  0
  9  1  2  0  0  0  0
  9 19  1  0  0  0  0
 10 12  2  0  0  0  0
 11 16  2  0  0  0  0
 12 14  1  0  0  0  0
 14 13  2  0  0  0  0
 14 23  1  0  0  0  0
 16  3  1  0  0  0  0
 16 18  1  0  0  0  0
 17 12  1  0  0  0  0
 17 15  1  0  0  0  0
 18 15  1  0  0  0  0
 19 17  2  0  0  0  0
 20 11  1  0  0  0  0
 20  2  1  0  0  0  0
 22 21  1  0  0  0  0
 22  9  1  0  0  0  0
 23 24  1  0  0  0  0
 25 27  1  0  0  0  0
 26 28  2  0  0  0  0
 26 33  1  0  0  0  0
 27 26  1  0  0  0  0
 29 32  1  0  0  0  0
 31 32  1  0  0  0  0
 32 30  1  0  0  0  0
 33 34  1  0  0  0  0
 33 31  2  0  0  0  0
 34 29  1  0  0  0  0
 35 36  1  0  0  0  0
 36 37  1  0  0  0  0
 37 38  1  0  0  0  0
 38 39  1  0  0  0  0
 39 49  1  0  0  0  0
 39 45  1  0  0  0  0
 41 45  2  0  0  0  0
 41 47  1  0  0  0  0
 42 46  1  0  0  0  0
 43 42  2  0  0  0  0
 44 42  1  0  0  0  0
 45 43  1  0  0  0  0
 46 48  1  0  0  0  0
 46 40  1  0  0  0  0
 47 44  2  0  0  0  0
 50 49  1  0  0  0  0
M  END
>  <MODEL>
3

>  <REMARK>
 VINA RESULT:      -7.2      1.164      1.910
  Name = 
  12 active torsions:
  status: ('A' for Active; 'I' for Inactive)
    1  A    between atoms: C_2  and  C_42
    2  A    between atoms: N_6  and  C_16
    3  A    between atoms: C_8  and  C_44
    4  A    between atoms: N_9  and  C_25
    5  A    between atoms: C_10  and  N_19
    6  A    between atoms: C_10  and  C_29
    7  A    between atoms: O_14  and  C_31
    8  A    between atoms: C_15  and  C_25
    9  A    between atoms: N_19  and  C_20
   10  A    between atoms: C_20  and  C_42
   11  A    between atoms: N_23  and  C_29
   12  A    between atoms: C_29  and  C_37
                            x       y       z     vdW  Elec       q    Type
                         _______ _______ _______ _____ _____    ______ ____

>  <TORSDO>
F 12

$$$$
=
 OpenBabel11042413233D

 50 56  0  0  1  0  0  0  0  0999 V2000
  179.1200  181.1840  137.9300 C   0  0  0  0  0  3  0  0  0  0  0  0
  186.2070  174.7830  136.8280 C   0  0  1  0  0  3  0  0  0  0  0  0
  182.9520  176.4640  138.9940 C   0  0  2  0  0  3  0  0  0  0  0  0
  182.0040  175.2930  138.7970 C   0  0  0  0  0  1  0  0  0  0  0  0
  185.0030  176.5660  135.2340 S   0  0  0  0  0  0  0  0  0  0  0  0
  185.4920  174.8850  135.4980 C   0  0  2  0  0  3  0  0  0  0  0  0
  182.1970  177.6120  139.5070 N   0  0  1  0  0  0  0  0  0  0  0  0
  182.5480  177.8990  140.8940 C   0  0  2  0  0  3  0  0  0  0  0  0
  179.9030  180.7320  136.8690 C   0  0  0  0  0  0  0  0  0  0  0  0
  179.4580  180.8490  139.2410 C   0  0  0  0  0  3  0  0  0  0  0  0
  184.1830  176.2230  136.8240 C   0  0  0  0  0  0  0  0  0  0  0  0
  180.5780  180.0520  139.5360 C   0  0  0  0  0  0  0  0  0  0  0  0
  181.6340  178.8750  141.4940 N   0  0  0  0  0  0  0  0  0  0  0  0
  180.8310  179.7880  140.9970 C   0  0  0  0  0  0  0  0  0  0  0  0
  182.5760  178.7640  138.6890 C   0  0  2  0  0  3  0  0  0  0  0  0
  183.4760  176.9370  137.6910 C   0  0  0  0  0  0  0  0  0  0  0  0
  181.3700  179.5980  138.4520 C   0  0  0  0  0  0  0  0  0  0  0  0
  183.1700  178.2620  137.5060 O   0  0  0  0  0  0  0  0  0  0  0  0
  181.0270  179.9460  137.1350 C   0  0  0  0  0  3  0  0  0  0  0  0
  184.6960  174.7980  136.7550 C   0  0  2  0  0  3  0  0  0  0  0  0
  179.9570  182.3120  134.8870 C   0  0  0  0  0  1  0  0  0  0  0  0
  179.5370  181.0770  135.5310 N   0  0  0  0  0  2  0  0  0  0  0  0
  180.1100  180.5790  141.9000 O   0  0  0  0  0  0  0  0  0  0  0  0
  179.3400  180.0290  142.9570 C   0  0  0  0  0  1  0  0  0  0  0  0
  184.0160  178.3130  141.0940 C   0  0  0  0  0  2  0  0  0  0  0  0
  185.1520  178.9170  143.2790 C   0  0  0  0  0  0  0  0  0  0  0  0
  184.4720  177.9800  142.4360 N   0  0  0  0  0  2  0  0  0  0  0  0
  185.4760  180.0870  142.8320 N   0  0  0  0  0  2  0  0  0  0  0  0
  185.4750  178.5660  146.9350 C   0  0  0  0  0  2  0  0  0  0  0  0
  187.8440  177.8080  146.8310 C   0  0  0  0  0  1  0  0  0  0  0  0
  186.3240  177.6080  144.9470 N   0  0  0  0  0  0  0  0  0  0  0  0
  186.4260  177.4950  146.3950 C   0  0  2  0  0  3  0  0  0  0  0  0
  185.4850  178.5400  144.6580 C   0  0  0  0  0  0  0  0  0  0  0  0
  184.9360  179.1530  145.7650 O   0  0  0  0  0  0  0  0  0  0  0  0
  186.6950  173.3600  137.0210 C   0  0  0  0  0  2  0  0  0  0  0  0
  188.1980  173.2920  136.8080 C   0  0  0  0  0  2  0  0  0  0  0  0
  188.7730  174.6250  136.8870 N   0  0  0  0  0  2  0  0  0  0  0  0
  190.1060  174.5580  136.3040 C   0  0  0  0  0  2  0  0  0  0  0  0
  191.0900  175.3280  137.1700 C   0  0  2  0  0  3  0  0  0  0  0  0
  188.9200  178.4020  142.2180 C   0  0  0  0  0  1  0  0  0  0  0  0
  189.7980  177.4620  137.2710 C   0  0  0  0  0  3  0  0  0  0  0  0
  189.6580  177.3600  140.0520 C   0  0  0  0  0  0  0  0  0  0  0  0
  190.3140  176.3380  139.3500 C   0  0  0  0  0  3  0  0  0  0  0  0
  189.0970  178.3920  139.3570 N   0  0  0  0  0  0  0  0  0  0  0  0
  190.3790  176.3870  137.9500 C   0  0  0  0  0  0  0  0  0  0  0  0
  189.5740  177.3270  141.4890 N   0  0  0  0  0  0  0  0  0  0  0  0
  189.1540  178.4640  137.9990 C   0  0  0  0  0  3  0  0  0  0  0  0
  190.1410  176.2280  142.2590 C   0  0  0  0  0  1  0  0  0  0  0  0
  192.1340  175.9190  136.3450 N   0  0  0  0  0  2  0  0  0  0  0  0
  191.7860  175.6780  135.0110 N   0  0  0  0  0  1  0  0  0  0  0  0
  1 10  1  0  0  0  0
  2 35  1  6  0  0  0
  3  4  1  6  0  0  0
  3  7  1  0  0  0  0
  5 11  1  0  0  0  0
  6  5  1  1  0  0  0
  6 20  1  0  0  0  0
  6  2  1  0  0  0  0
  7  8  1  0  0  0  0
  8 25  1  0  0  0  0
  8 13  1  0  0  0  0
  9 19  1  0  0  0  0
  9  1  2  0  0  0  0
 10 12  2  0  0  0  0
 11 16  2  0  0  0  0
 12 14  1  0  0  0  0
 14 13  2  0  0  0  0
 14 23  1  0  0  0  0
 15  7  1  0  0  0  0
 16  3  1  0  0  0  0
 17 15  1  0  0  0  0
 17 12  1  0  0  0  0
 18 16  1  0  0  0  0
 18 15  1  0  0  0  0
 19 17  2  0  0  0  0
 20 11  1  0  0  0  0
 20  2  1  0  0  0  0
 21 22  1  0  0  0  0
 22  9  1  0  0  0  0
 23 24  1  0  0  0  0
 25 27  1  0  0  0  0
 26 33  1  0  0  0  0
 27 26  1  0  0  0  0
 28 26  2  0  0  0  0
 31 32  1  0  0  0  0
 32 30  1  0  0  0  0
 32 29  1  0  0  0  0
 33 31  2  0  0  0  0
 33 34  1  0  0  0  0
 34 29  1  0  0  0  0
 36 37  1  0  0  0  0
 36 35  1  0  0  0  0
 38 37  1  0  0  0  0
 38 39  1  0  0  0  0
 39 45  1  0  0  0  0
 41 45  2  0  0  0  0
 41 47  1  0  0  0  0
 42 46  1  0  0  0  0
 43 42  2  0  0  0  0
 44 42  1  0  0  0  0
 45 43  1  0  0  0  0
 46 40  1  0  0  0  0
 46 48  1  0  0  0  0
 47 44  2  0  0  0  0
 49 39  1  0  0  0  0
 50 49  1  0  0  0  0
M  END
>  <MODEL>
4

>  <REMARK>
 VINA RESULT:      -7.1      2.956      8.577
  Name = 
  12 active torsions:
  status: ('A' for Active; 'I' for Inactive)
    1  A    between atoms: C_2  and  C_42
    2  A    between atoms: N_6  and  C_16
    3  A    between atoms: C_8  and  C_44
    4  A    between atoms: N_9  and  C_25
    5  A    between atoms: C_10  and  N_19
    6  A    between atoms: C_10  and  C_29
    7  A    between atoms: O_14  and  C_31
    8  A    between atoms: C_15  and  C_25
    9  A    between atoms: N_19  and  C_20
   10  A    between atoms: C_20  and  C_42
   11  A    between atoms: N_23  and  C_29
   12  A    between atoms: C_29  and  C_37
                            x       y       z     vdW  Elec       q    Type
                         _______ _______ _______ _____ _____    ______ ____

>  <TORSDO>
F 12

$$$$
=
 OpenBabel11042413233D

 50 56  0  0  1  0  0  0  0  0999 V2000
  179.0170  181.2900  138.3700 C   0  0  0  0  0  3  0  0  0  0  0  0
  186.2310  175.2000  136.5620 C   0  0  1  0  0  3  0  0  0  0  0  0
  182.9690  176.5820  138.9200 C   0  0  2  0  0  3  0  0  0  0  0  0
  182.0450  175.4140  138.6210 C   0  0  0  0  0  1  0  0  0  0  0  0
  184.9650  177.1010  135.1660 S   0  0  0  0  0  0  0  0  0  0  0  0
  185.4960  175.4140  135.2570 C   0  0  2  0  0  3  0  0  0  0  0  0
  182.1950  177.6560  139.5530 N   0  0  1  0  0  0  0  0  0  0  0  0
  182.5590  177.8140  140.9570 C   0  0  2  0  0  3  0  0  0  0  0  0
  179.7940  180.9630  137.2610 C   0  0  0  0  0  0  0  0  0  0  0  0
  179.3800  180.8370  139.6380 C   0  0  0  0  0  3  0  0  0  0  0  0
  184.1750  176.5840  136.7230 C   0  0  0  0  0  0  0  0  0  0  0  0
  180.5220  180.0420  139.8400 C   0  0  0  0  0  0  0  0  0  0  0  0
  181.6310  178.7040  141.6610 N   0  0  0  0  0  0  0  0  0  0  0  0
  180.8020  179.6420  141.2650 C   0  0  0  0  0  0  0  0  0  0  0  0
  182.5370  178.8910  138.8470 C   0  0  2  0  0  3  0  0  0  0  0  0
  183.4640  177.1930  137.6640 C   0  0  0  0  0  0  0  0  0  0  0  0
  181.3090  179.7150  138.7070 C   0  0  0  0  0  0  0  0  0  0  0  0
  183.1260  178.5220  137.6140 O   0  0  0  0  0  0  0  0  0  0  0  0
  180.9390  180.1820  137.4350 C   0  0  0  0  0  3  0  0  0  0  0  0
  184.7190  175.1860  136.5090 C   0  0  2  0  0  3  0  0  0  0  0  0
  180.2660  182.2340  135.1190 C   0  0  0  0  0  1  0  0  0  0  0  0
  179.4020  181.4290  135.9670 N   0  0  0  0  0  2  0  0  0  0  0  0
  180.0760  180.3240  142.2490 O   0  0  0  0  0  0  0  0  0  0  0  0
  179.6330  179.7010  143.4460 C   0  0  0  0  0  1  0  0  0  0  0  0
  184.0200  178.2410  141.1800 C   0  0  0  0  0  2  0  0  0  0  0  0
  185.7480  178.2170  143.0350 C   0  0  0  0  0  0  0  0  0  0  0  0
  184.3960  178.1000  142.5790 N   0  0  0  0  0  2  0  0  0  0  0  0
  186.7170  178.3600  142.1880 N   0  0  0  0  0  2  0  0  0  0  0  0
  185.9880  178.7520  146.6750 C   0  0  0  0  0  2  0  0  0  0  0  0
  188.3020  177.8470  146.8340 C   0  0  0  0  0  1  0  0  0  0  0  0
  186.8020  177.2870  145.0080 N   0  0  0  0  0  0  0  0  0  0  0  0
  186.8740  177.5250  146.4420 C   0  0  2  0  0  3  0  0  0  0  0  0
  186.0330  178.1690  144.4740 C   0  0  0  0  0  0  0  0  0  0  0  0
  185.5100  179.0670  145.3800 O   0  0  0  0  0  0  0  0  0  0  0  0
  186.7540  173.7770  136.6090 C   0  0  0  0  0  2  0  0  0  0  0  0
  188.1500  173.7550  137.2090 C   0  0  0  0  0  2  0  0  0  0  0  0
  189.0800  174.4450  136.3300 N   0  0  0  0  0  2  0  0  0  0  0  0
  190.4260  174.1550  136.8080 C   0  0  0  0  0  2  0  0  0  0  0  0
  191.0800  175.4280  137.3200 C   0  0  2  0  0  3  0  0  0  0  0  0
  197.0970  173.5880  137.0960 C   0  0  0  0  0  1  0  0  0  0  0  0
  192.9860  176.4470  136.0700 C   0  0  0  0  0  3  0  0  0  0  0  0
  194.7700  174.5370  137.0370 C   0  0  0  0  0  0  0  0  0  0  0  0
  193.4220  174.4930  137.4270 C   0  0  0  0  0  3  0  0  0  0  0  0
  195.1850  175.5200  136.1860 N   0  0  0  0  0  0  0  0  0  0  0  0
  192.5270  175.4580  136.9450 C   0  0  0  0  0  0  0  0  0  0  0  0
  195.7080  173.5600  137.5240 N   0  0  0  0  0  0  0  0  0  0  0  0
  194.3310  176.4630  135.7000 C   0  0  0  0  0  3  0  0  0  0  0  0
  195.3020  172.5130  138.4520 C   0  0  0  0  0  1  0  0  0  0  0  0
  190.9280  175.5290  138.7640 N   0  0  0  0  0  2  0  0  0  0  0  0
  190.6950  176.8780  139.0560 N   0  0  0  0  0  1  0  0  0  0  0  0
  1 10  1  0  0  0  0
  2 35  1  6  0  0  0
  3  4  1  6  0  0  0
  3  7  1  0  0  0  0
  5 11  1  0  0  0  0
  6  5  1  1  0  0  0
  6 20  1  0  0  0  0
  6  2  1  0  0  0  0
  7  8  1  0  0  0  0
  8 25  1  0  0  0  0
  8 13  1  0  0  0  0
  9 19  1  0  0  0  0
  9  1  2  0  0  0  0
 10 12  2  0  0  0  0
 11 16  2  0  0  0  0
 12 14  1  0  0  0  0
 14 13  2  0  0  0  0
 14 23  1  0  0  0  0
 15  7  1  0  0  0  0
 16  3  1  0  0  0  0
 17 15  1  0  0  0  0
 17 12  1  0  0  0  0
 18 16  1  0  0  0  0
 18 15  1  0  0  0  0
 19 17  2  0  0  0  0
 20  2  1  0  0  0  0
 20 11  1  0  0  0  0
 21 22  1  0  0  0  0
 22  9  1  0  0  0  0
 23 24  1  0  0  0  0
 25 27  1  0  0  0  0
 26 33  1  0  0  0  0
 27 26  1  0  0  0  0
 28 26  2  0  0  0  0
 31 32  1  0  0  0  0
 32 29  1  0  0  0  0
 32 30  1  0  0  0  0
 33 31  2  0  0  0  0
 33 34  1  0  0  0  0
 34 29  1  0  0  0  0
 35 36  1  0  0  0  0
 37 38  1  0  0  0  0
 37 36  1  0  0  0  0
 38 39  1  0  0  0  0
 39 49  1  0  0  0  0
 40 46  1  0  0  0  0
 41 45  1  0  0  0  0
 42 43  1  0  0  0  0
 42 46  1  0  0  0  0
 44 42  2  0  0  0  0
 45 39  1  0  0  0  0
 45 43  2  0  0  0  0
 46 48  1  0  0  0  0
 47 41  2  0  0  0  0
 47 44  1  0  0  0  0
 49 50  1  0  0  0  0
M  END
>  <MODEL>
5

>  <REMARK>
 VINA RESULT:      -6.4      3.207      9.720
  Name = 
  12 active torsions:
  status: ('A' for Active; 'I' for Inactive)
    1  A    between atoms: C_2  and  C_42
    2  A    between atoms: N_6  and  C_16
    3  A    between atoms: C_8  and  C_44
    4  A    between atoms: N_9  and  C_25
    5  A    between atoms: C_10  and  N_19
    6  A    between atoms: C_10  and  C_29
    7  A    between atoms: O_14  and  C_31
    8  A    between atoms: C_15  and  C_25
    9  A    between atoms: N_19  and  C_20
   10  A    between atoms: C_20  and  C_42
   11  A    between atoms: N_23  and  C_29
   12  A    between atoms: C_29  and  C_37
                            x       y       z     vdW  Elec       q    Type
                         _______ _______ _______ _____ _____    ______ ____

>  <TORSDO>
F 12

$$$$
=
 OpenBabel11042413233D

 50 56  0  0  1  0  0  0  0  0999 V2000
  189.9200  177.1680  147.0180 C   0  0  0  0  0  3  0  0  0  0  0  0
  188.8630  177.2610  137.4640 C   0  0  1  0  0  3  0  0  0  0  0  0
  187.9810  178.7130  141.3660 C   0  0  2  0  0  3  0  0  0  0  0  0
  188.6700  180.0570  141.1990 C   0  0  0  0  0  1  0  0  0  0  0  0
  190.5850  176.1190  139.1660 S   0  0  0  0  0  0  0  0  0  0  0  0
  190.3460  177.1460  137.7440 C   0  0  2  0  0  3  0  0  0  0  0  0
  187.6800  178.5020  142.7860 N   0  0  1  0  0  0  0  0  0  0  0  0
  186.2430  178.5690  143.0370 C   0  0  2  0  0  3  0  0  0  0  0  0
  190.6290  176.6660  145.9290 C   0  0  0  0  0  0  0  0  0  0  0  0
  188.6300  177.6690  146.8420 C   0  0  0  0  0  3  0  0  0  0  0  0
  189.5000  177.4070  139.8600 C   0  0  0  0  0  0  0  0  0  0  0  0
  188.0110  177.6910  145.5800 C   0  0  0  0  0  0  0  0  0  0  0  0
  185.9450  178.6060  144.4720 N   0  0  0  0  0  0  0  0  0  0  0  0
  186.6100  178.2420  145.5440 C   0  0  0  0  0  0  0  0  0  0  0  0
  188.1420  177.1540  143.1170 C   0  0  2  0  0  3  0  0  0  0  0  0
  188.9070  177.6060  141.0310 C   0  0  0  0  0  0  0  0  0  0  0  0
  188.7390  177.1770  144.4780 C   0  0  0  0  0  0  0  0  0  0  0  0
  189.0440  176.7570  142.1000 O   0  0  0  0  0  0  0  0  0  0  0  0
  190.0340  176.6670  144.6660 C   0  0  0  0  0  3  0  0  0  0  0  0
  189.5250  178.1170  138.5220 C   0  0  2  0  0  3  0  0  0  0  0  0
  192.4160  175.6230  147.3940 C   0  0  0  0  0  1  0  0  0  0  0  0
  191.9540  176.1640  146.1260 N   0  0  0  0  0  2  0  0  0  0  0  0
  185.9800  178.4060  146.7840 O   0  0  0  0  0  0  0  0  0  0  0  0
  184.5780  178.2630  146.9580 C   0  0  0  0  0  1  0  0  0  0  0  0
  185.4330  177.4700  142.3270 C   0  0  0  0  0  2  0  0  0  0  0  0
  183.6990  178.7110  140.9560 C   0  0  0  0  0  0  0  0  0  0  0  0
  184.0670  177.9070  142.0820 N   0  0  0  0  0  2  0  0  0  0  0  0
  184.6050  179.1670  140.1510 N   0  0  0  0  0  2  0  0  0  0  0  0
  180.3930  179.6230  139.6010 C   0  0  0  0  0  2  0  0  0  0  0  0
  179.5980  180.6250  141.7370 C   0  0  0  0  0  1  0  0  0  0  0  0
  181.3950  178.9940  141.6480 N   0  0  0  0  0  0  0  0  0  0  0  0
  180.1040  179.3560  141.0810 C   0  0  2  0  0  3  0  0  0  0  0  0
  182.2840  179.0220  140.7190 C   0  0  0  0  0  0  0  0  0  0  0  0
  181.7830  179.3790  139.4850 O   0  0  0  0  0  0  0  0  0  0  0  0
  188.6590  178.0770  136.2020 C   0  0  0  0  0  2  0  0  0  0  0  0
  187.1740  178.3040  135.9640 C   0  0  0  0  0  2  0  0  0  0  0  0
  186.6450  177.2650  135.0960 N   0  0  0  0  0  2  0  0  0  0  0  0
  185.3030  176.9480  135.5660 C   0  0  0  0  0  2  0  0  0  0  0  0
  185.3760  176.2880  136.9340 C   0  0  2  0  0  3  0  0  0  0  0  0
  187.9760  170.6900  135.6890 C   0  0  0  0  0  1  0  0  0  0  0  0
  184.3750  174.0110  137.1510 C   0  0  0  0  0  3  0  0  0  0  0  0
  186.7070  172.7910  136.2350 C   0  0  0  0  0  0  0  0  0  0  0  0
  186.6460  174.1890  136.3360 C   0  0  0  0  0  3  0  0  0  0  0  0
  185.6180  172.0490  136.5890 N   0  0  0  0  0  0  0  0  0  0  0  0
  185.4700  174.8030  136.7920 C   0  0  0  0  0  0  0  0  0  0  0  0
  187.9020  172.1410  135.7650 N   0  0  0  0  0  0  0  0  0  0  0  0
  184.4690  172.6230  137.0410 C   0  0  0  0  0  3  0  0  0  0  0  0
  189.0730  172.9040  135.3560 C   0  0  0  0  0  1  0  0  0  0  0  0
  184.2140  176.6490  137.7320 N   0  0  0  0  0  2  0  0  0  0  0  0
  183.5810  177.7100  137.0740 N   0  0  0  0  0  1  0  0  0  0  0  0
  2 35  1  6  0  0  0
  2  6  1  0  0  0  0
  2 20  1  0  0  0  0
  3  4  1  1  0  0  0
  3  7  1  0  0  0  0
  5 11  1  0  0  0  0
  6 20  1  0  0  0  0
  6  5  1  1  0  0  0
  7  8  1  0  0  0  0
  7 15  1  0  0  0  0
  8 13  1  0  0  0  0
  9 22  1  0  0  0  0
  9  1  2  0  0  0  0
 10  1  1  0  0  0  0
 11 16  2  0  0  0  0
 12 10  2  0  0  0  0
 13 14  2  0  0  0  0
 14 12  1  0  0  0  0
 14 23  1  0  0  0  0
 15 17  1  0  0  0  0
 16  3  1  0  0  0  0
 16 18  1  0  0  0  0
 17 19  2  0  0  0  0
 17 12  1  0  0  0  0
 18 15  1  0  0  0  0
 19  9  1  0  0  0  0
 20 11  1  0  0  0  0
 22 21  1  0  0  0  0
 23 24  1  0  0  0  0
 25  8  1  0  0  0  0
 26 27  1  0  0  0  0
 27 25  1  0  0  0  0
 28 26  2  0  0  0  0
 29 32  1  0  0  0  0
 32 31  1  0  0  0  0
 32 30  1  0  0  0  0
 33 26  1  0  0  0  0
 33 31  2  0  0  0  0
 34 29  1  0  0  0  0
 34 33  1  0  0  0  0
 36 35  1  0  0  0  0
 37 38  1  0  0  0  0
 37 36  1  0  0  0  0
 38 39  1  0  0  0  0
 39 49  1  0  0  0  0
 40 46  1  0  0  0  0
 42 43  2  0  0  0  0
 42 44  1  0  0  0  0
 43 45  1  0  0  0  0
 44 47  2  0  0  0  0
 45 39  1  0  0  0  0
 45 41  2  0  0  0  0
 46 42  1  0  0  0  0
 47 41  1  0  0  0  0
 48 46  1  0  0  0  0
 50 49  1  0  0  0  0
M  END
>  <MODEL>
6

>  <REMARK>
 VINA RESULT:      -6.3      2.751      8.707
  Name = 
  12 active torsions:
  status: ('A' for Active; 'I' for Inactive)
    1  A    between atoms: C_2  and  C_42
    2  A    between atoms: N_6  and  C_16
    3  A    between atoms: C_8  and  C_44
    4  A    between atoms: N_9  and  C_25
    5  A    between atoms: C_10  and  N_19
    6  A    between atoms: C_10  and  C_29
    7  A    between atoms: O_14  and  C_31
    8  A    between atoms: C_15  and  C_25
    9  A    between atoms: N_19  and  C_20
   10  A    between atoms: C_20  and  C_42
   11  A    between atoms: N_23  and  C_29
   12  A    between atoms: C_29  and  C_37
                            x       y       z     vdW  Elec       q    Type
                         _______ _______ _______ _____ _____    ______ ____

>  <TORSDO>
F 12

$$$$
=
 OpenBabel11042413233D

 50 56  0  0  1  0  0  0  0  0999 V2000
  189.9600  177.2320  147.0940 C   0  0  0  0  0  3  0  0  0  0  0  0
  188.8160  177.2560  137.5490 C   0  0  1  0  0  3  0  0  0  0  0  0
  187.9720  178.7370  141.4490 C   0  0  2  0  0  3  0  0  0  0  0  0
  188.6600  180.0790  141.2660 C   0  0  0  0  0  1  0  0  0  0  0  0
  190.5520  176.1240  139.2440 S   0  0  0  0  0  0  0  0  0  0  0  0
  190.3010  177.1410  137.8170 C   0  0  2  0  0  3  0  0  0  0  0  0
  187.6830  178.5370  142.8730 N   0  0  1  0  0  0  0  0  0  0  0  0
  186.2490  178.6080  143.1360 C   0  0  2  0  0  3  0  0  0  0  0  0
  190.6590  176.7200  146.0020 C   0  0  0  0  0  0  0  0  0  0  0  0
  188.6690  177.7330  146.9260 C   0  0  0  0  0  3  0  0  0  0  0  0
  189.4750  177.4180  139.9390 C   0  0  0  0  0  0  0  0  0  0  0  0
  188.0390  177.7460  145.6700 C   0  0  0  0  0  0  0  0  0  0  0  0
  185.9640  178.6560  144.5730 N   0  0  0  0  0  0  0  0  0  0  0  0
  186.6380  178.2990  145.6420 C   0  0  0  0  0  0  0  0  0  0  0  0
  188.1470  177.1910  143.2100 C   0  0  2  0  0  3  0  0  0  0  0  0
  188.8930  177.6270  141.1130 C   0  0  0  0  0  0  0  0  0  0  0  0
  188.7560  177.2230  144.5640 C   0  0  0  0  0  0  0  0  0  0  0  0
  189.0380  176.7850  142.1880 O   0  0  0  0  0  0  0  0  0  0  0  0
  190.0520  176.7130  144.7440 C   0  0  0  0  0  3  0  0  0  0  0  0
  189.4890  178.1190  138.5950 C   0  0  2  0  0  3  0  0  0  0  0  0
  192.4340  175.6140  147.4340 C   0  0  0  0  0  1  0  0  0  0  0  0
  191.9850  176.2190  146.1900 N   0  0  0  0  0  2  0  0  0  0  0  0
  186.0200  178.4730  146.8870 O   0  0  0  0  0  0  0  0  0  0  0  0
  184.6330  178.2520  147.0930 C   0  0  0  0  0  1  0  0  0  0  0  0
  185.4310  177.5050  142.4420 C   0  0  0  0  0  2  0  0  0  0  0  0
  183.8600  178.6040  140.7830 C   0  0  0  0  0  0  0  0  0  0  0  0
  184.1170  177.9980  142.0540 N   0  0  0  0  0  2  0  0  0  0  0  0
  184.8280  178.8270  139.9540 N   0  0  0  0  0  2  0  0  0  0  0  0
  180.7740  179.9550  139.2850 C   0  0  0  0  0  2  0  0  0  0  0  0
  179.5590  180.0690  141.4560 C   0  0  0  0  0  1  0  0  0  0  0  0
  181.4580  178.5970  141.0960 N   0  0  0  0  0  0  0  0  0  0  0  0
  180.2590  179.1460  140.4780 C   0  0  2  0  0  3  0  0  0  0  0  0
  182.4870  178.9780  140.4250 C   0  0  0  0  0  0  0  0  0  0  0  0
  182.1770  179.7760  139.3430 O   0  0  0  0  0  0  0  0  0  0  0  0
  188.6010  178.0630  136.2830 C   0  0  0  0  0  2  0  0  0  0  0  0
  187.5270  177.4100  135.4270 C   0  0  0  0  0  2  0  0  0  0  0  0
  187.2560  176.0650  135.9080 N   0  0  0  0  0  2  0  0  0  0  0  0
  185.9060  175.7180  135.4860 C   0  0  0  0  0  2  0  0  0  0  0  0
  185.4320  174.4810  136.2320 C   0  0  2  0  0  3  0  0  0  0  0  0
  179.5360  173.3980  138.1600 C   0  0  0  0  0  1  0  0  0  0  0  0
  183.9380  175.9360  137.6070 C   0  0  0  0  0  3  0  0  0  0  0  0
  181.8650  174.0770  137.5000 C   0  0  0  0  0  0  0  0  0  0  0  0
  183.0770  173.8070  136.8470 C   0  0  0  0  0  3  0  0  0  0  0  0
  181.7220  175.2520  138.1800 N   0  0  0  0  0  0  0  0  0  0  0  0
  184.1180  174.7450  136.8970 C   0  0  0  0  0  0  0  0  0  0  0  0
  180.7810  173.1300  137.4580 N   0  0  0  0  0  0  0  0  0  0  0  0
  182.7220  176.1740  138.2470 C   0  0  0  0  0  3  0  0  0  0  0  0
  180.8930  171.8790  136.7210 C   0  0  0  0  0  1  0  0  0  0  0  0
  186.4240  174.0720  137.2150 N   0  0  0  0  0  2  0  0  0  0  0  0
  186.4680  172.6730  137.1910 N   0  0  0  0  0  1  0  0  0  0  0  0
  2 35  1  6  0  0  0
  2  6  1  0  0  0  0
  2 20  1  0  0  0  0
  3  4  1  1  0  0  0
  3  7  1  0  0  0  0
  5 11  1  0  0  0  0
  6 20  1  0  0  0  0
  6  5  1  1  0  0  0
  7  8  1  0  0  0  0
  7 15  1  0  0  0  0
  8 13  1  0  0  0  0
  9 22  1  0  0  0  0
  9  1  2  0  0  0  0
 10  1  1  0  0  0  0
 11 16  2  0  0  0  0
 12 10  2  0  0  0  0
 13 14  2  0  0  0  0
 14 12  1  0  0  0  0
 14 23  1  0  0  0  0
 15 17  1  0  0  0  0
 16  3  1  0  0  0  0
 16 18  1  0  0  0  0
 17 19  2  0  0  0  0
 17 12  1  0  0  0  0
 18 15  1  0  0  0  0
 19  9  1  0  0  0  0
 20 11  1  0  0  0  0
 22 21  1  0  0  0  0
 23 24  1  0  0  0  0
 25  8  1  0  0  0  0
 26 27  1  0  0  0  0
 27 25  1  0  0  0  0
 28 26  2  0  0  0  0
 29 34  1  0  0  0  0
 29 32  1  0  0  0  0
 32 31  1  0  0  0  0
 32 30  1  0  0  0  0
 33 26  1  0  0  0  0
 33 31  2  0  0  0  0
 34 33  1  0  0  0  0
 36 37  1  0  0  0  0
 36 35  1  0  0  0  0
 38 37  1  0  0  0  0
 38 39  1  0  0  0  0
 39 45  1  0  0  0  0
 39 49  1  0  0  0  0
 41 47  1  0  0  0  0
 42 44  1  0  0  0  0
 43 45  1  0  0  0  0
 43 42  2  0  0  0  0
 44 47  2  0  0  0  0
 45 41  2  0  0  0  0
 46 42  1  0  0  0  0
 46 40  1  0  0  0  0
 48 46  1  0  0  0  0
 50 49  1  0  0  0  0
M  END
>  <MODEL>
7

>  <REMARK>
 VINA RESULT:      -6.3      2.871      8.569
  Name = 
  12 active torsions:
  status: ('A' for Active; 'I' for Inactive)
    1  A    between atoms: C_2  and  C_42
    2  A    between atoms: N_6  and  C_16
    3  A    between atoms: C_8  and  C_44
    4  A    between atoms: N_9  and  C_25
    5  A    between atoms: C_10  and  N_19
    6  A    between atoms: C_10  and  C_29
    7  A    between atoms: O_14  and  C_31
    8  A    between atoms: C_15  and  C_25
    9  A    between atoms: N_19  and  C_20
   10  A    between atoms: C_20  and  C_42
   11  A    between atoms: N_23  and  C_29
   12  A    between atoms: C_29  and  C_37
                            x       y       z     vdW  Elec       q    Type
                         _______ _______ _______ _____ _____    ______ ____

>  <TORSDO>
F 12

$$$$
=
 OpenBabel11042413233D

 50 56  0  0  1  0  0  0  0  0999 V2000
  189.7100  177.3220  146.9990 C   0  0  0  0  0  3  0  0  0  0  0  0
  188.7220  177.2350  137.4380 C   0  0  1  0  0  3  0  0  0  0  0  0
  187.7970  178.7460  141.3070 C   0  0  2  0  0  3  0  0  0  0  0  0
  188.4730  180.0940  141.1220 C   0  0  0  0  0  1  0  0  0  0  0  0
  190.4430  176.1410  139.1720 S   0  0  0  0  0  0  0  0  0  0  0  0
  190.2030  177.1400  137.7300 C   0  0  2  0  0  3  0  0  0  0  0  0
  187.4870  178.5570  142.7290 N   0  0  1  0  0  0  0  0  0  0  0  0
  186.0480  178.6130  142.9690 C   0  0  2  0  0  3  0  0  0  0  0  0
  190.4330  176.8070  145.9250 C   0  0  0  0  0  0  0  0  0  0  0  0
  188.4170  177.8060  146.8060 C   0  0  0  0  0  3  0  0  0  0  0  0
  189.3400  177.4290  139.8360 C   0  0  0  0  0  0  0  0  0  0  0  0
  187.8070  177.7990  145.5390 C   0  0  0  0  0  0  0  0  0  0  0  0
  185.7390  178.6730  144.4000 N   0  0  0  0  0  0  0  0  0  0  0  0
  186.4000  178.3350  145.4830 C   0  0  0  0  0  0  0  0  0  0  0  0
  187.9610  177.2200  143.0870 C   0  0  2  0  0  3  0  0  0  0  0  0
  188.7360  177.6430  140.9980 C   0  0  0  0  0  0  0  0  0  0  0  0
  188.5470  177.2730  144.4510 C   0  0  0  0  0  0  0  0  0  0  0  0
  188.8740  176.8140  142.0840 O   0  0  0  0  0  0  0  0  0  0  0  0
  189.8460  176.7800  144.6570 C   0  0  0  0  0  3  0  0  0  0  0  0
  189.3670  178.1160  138.4850 C   0  0  2  0  0  3  0  0  0  0  0  0
  192.1870  175.7020  147.3830 C   0  0  0  0  0  1  0  0  0  0  0  0
  191.7610  176.3240  146.1400 N   0  0  0  0  0  2  0  0  0  0  0  0
  185.7600  178.5140  146.7160 O   0  0  0  0  0  0  0  0  0  0  0  0
  184.5630  177.8350  147.0650 C   0  0  0  0  0  1  0  0  0  0  0  0
  185.2550  177.4940  142.2730 C   0  0  0  0  0  2  0  0  0  0  0  0
  183.4590  178.7720  141.0200 C   0  0  0  0  0  0  0  0  0  0  0  0
  183.8680  177.8880  142.0690 N   0  0  0  0  0  2  0  0  0  0  0  0
  184.3380  179.3390  140.2590 N   0  0  0  0  0  2  0  0  0  0  0  0
  180.0670  179.3970  139.7180 C   0  0  0  0  0  2  0  0  0  0  0  0
  179.4080  180.8500  141.6300 C   0  0  0  0  0  1  0  0  0  0  0  0
  181.2040  179.2210  141.7830 N   0  0  0  0  0  0  0  0  0  0  0  0
  179.8770  179.4630  141.2350 C   0  0  2  0  0  3  0  0  0  0  0  0
  182.0300  179.0370  140.8140 C   0  0  0  0  0  0  0  0  0  0  0  0
  181.4470  179.1200  139.5670 O   0  0  0  0  0  0  0  0  0  0  0  0
  188.5180  178.0260  136.1600 C   0  0  0  0  0  2  0  0  0  0  0  0
  187.2020  177.6320  135.5090 C   0  0  0  0  0  2  0  0  0  0  0  0
  186.7100  176.3930  136.0900 N   0  0  0  0  0  2  0  0  0  0  0  0
  185.2560  176.4770  136.1240 C   0  0  0  0  0  2  0  0  0  0  0  0
  184.7350  175.9140  137.4360 C   0  0  2  0  0  3  0  0  0  0  0  0
  180.5780  171.2910  136.4370 C   0  0  0  0  0  1  0  0  0  0  0  0
  185.1420  173.4610  137.2030 C   0  0  0  0  0  3  0  0  0  0  0  0
  182.4260  172.9420  136.8580 C   0  0  0  0  0  0  0  0  0  0  0  0
  182.8630  174.2600  137.0620 C   0  0  0  0  0  3  0  0  0  0  0  0
  183.3440  171.9330  136.8330 N   0  0  0  0  0  0  0  0  0  0  0  0
  184.2300  174.5200  137.2400 C   0  0  0  0  0  0  0  0  0  0  0  0
  181.0280  172.6530  136.6780 N   0  0  0  0  0  0  0  0  0  0  0  0
  184.6760  172.1620  136.9970 C   0  0  0  0  0  3  0  0  0  0  0  0
  180.0210  173.7040  136.7240 C   0  0  0  0  0  1  0  0  0  0  0  0
  183.6810  176.7650  137.9690 N   0  0  0  0  0  2  0  0  0  0  0  0
  183.5970  177.8830  137.1300 N   0  0  0  0  0  1  0  0  0  0  0  0
  2 35  1  6  0  0  0
  2  6  1  0  0  0  0
  2 20  1  0  0  0  0
  3  4  1  1  0  0  0
  3  7  1  0  0  0  0
  5 11  1  0  0  0  0
  6 20  1  0  0  0  0
  6  5  1  1  0  0  0
  7  8  1  0  0  0  0
  7 15  1  0  0  0  0
  8 13  1  0  0  0  0
  9 22  1  0  0  0  0
  9  1  2  0  0  0  0
 10  1  1  0  0  0  0
 11 16  2  0  0  0  0
 12 10  2  0  0  0  0
 13 14  2  0  0  0  0
 14 12  1  0  0  0  0
 14 23  1  0  0  0  0
 15 17  1  0  0  0  0
 16  3  1  0  0  0  0
 16 18  1  0  0  0  0
 17 19  2  0  0  0  0
 17 12  1  0  0  0  0
 18 15  1  0  0  0  0
 19  9  1  0  0  0  0
 20 11  1  0  0  0  0
 22 21  1  0  0  0  0
 23 24  1  0  0  0  0
 25  8  1  0  0  0  0
 26 27  1  0  0  0  0
 27 25  1  0  0  0  0
 28 26  2  0  0  0  0
 29 32  1  0  0  0  0
 32 30  1  0  0  0  0
 32 31  1  0  0  0  0
 33 26  1  0  0  0  0
 33 31  2  0  0  0  0
 34 29  1  0  0  0  0
 34 33  1  0  0  0  0
 36 37  1  0  0  0  0
 36 35  1  0  0  0  0
 37 38  1  0  0  0  0
 38 39  1  0  0  0  0
 39 49  1  0  0  0  0
 40 46  1  0  0  0  0
 41 45  1  0  0  0  0
 42 43  1  0  0  0  0
 43 45  2  0  0  0  0
 44 42  2  0  0  0  0
 44 47  1  0  0  0  0
 45 39  1  0  0  0  0
 46 48  1  0  0  0  0
 46 42  1  0  0  0  0
 47 41  2  0  0  0  0
 50 49  1  0  0  0  0
M  END
>  <MODEL>
8

>  <REMARK>
 VINA RESULT:      -6.0      3.011      8.721
  Name = 
  12 active torsions:
  status: ('A' for Active; 'I' for Inactive)
    1  A    between atoms: C_2  and  C_42
    2  A    between atoms: N_6  and  C_16
    3  A    between atoms: C_8  and  C_44
    4  A    between atoms: N_9  and  C_25
    5  A    between atoms: C_10  and  N_19
    6  A    between atoms: C_10  and  C_29
    7  A    between atoms: O_14  and  C_31
    8  A    between atoms: C_15  and  C_25
    9  A    between atoms: N_19  and  C_20
   10  A    between atoms: C_20  and  C_42
   11  A    between atoms: N_23  and  C_29
   12  A    between atoms: C_29  and  C_37
                            x       y       z     vdW  Elec       q    Type
                         _______ _______ _______ _____ _____    ______ ____

>  <TORSDO>
F 12

$$$$
=
 OpenBabel11042413233D

 50 56  0  0  1  0  0  0  0  0999 V2000
  191.6980  173.6490  136.1240 C   0  0  0  0  0  3  0  0  0  0  0  0
  182.6570  176.8920  136.4990 C   0  0  1  0  0  3  0  0  0  0  0  0
  186.8720  177.4720  136.5490 C   0  0  2  0  0  3  0  0  0  0  0  0
  186.9570  178.1690  135.2010 C   0  0  0  0  0  1  0  0  0  0  0  0
  183.8070  174.5660  135.8390 S   0  0  0  0  0  0  0  0  0  0  0  0
  182.7180  175.8820  135.3740 C   0  0  2  0  0  3  0  0  0  0  0  0
  188.2240  177.0980  136.9810 N   0  0  1  0  0  0  0  0  0  0  0  0
  188.6560  177.9010  138.1210 C   0  0  2  0  0  3  0  0  0  0  0  0
  190.4420  173.1470  135.7900 C   0  0  0  0  0  0  0  0  0  0  0  0
  191.8080  174.8200  136.8740 C   0  0  0  0  0  3  0  0  0  0  0  0
  184.9210  175.9970  136.0050 C   0  0  0  0  0  0  0  0  0  0  0  0
  190.6740  175.5290  137.3080 C   0  0  0  0  0  0  0  0  0  0  0  0
  190.0810  177.7150  138.4060 N   0  0  0  0  0  0  0  0  0  0  0  0
  190.9430  176.7650  138.1250 C   0  0  0  0  0  0  0  0  0  0  0  0
  188.1570  175.6990  137.4020 C   0  0  2  0  0  3  0  0  0  0  0  0
  186.1680  176.1750  136.4240 C   0  0  0  0  0  0  0  0  0  0  0  0
  189.3990  175.0110  136.9650 C   0  0  0  0  0  0  0  0  0  0  0  0
  186.9730  175.1500  136.8540 O   0  0  0  0  0  0  0  0  0  0  0  0
  189.2990  173.8270  136.2170 C   0  0  0  0  0  3  0  0  0  0  0  0
  183.8040  176.8950  135.5120 C   0  0  2  0  0  3  0  0  0  0  0  0
  189.3750  170.9050  135.2830 C   0  0  0  0  0  1  0  0  0  0  0  0
  190.3490  171.9500  135.0130 N   0  0  0  0  0  2  0  0  0  0  0  0
  192.2530  176.9170  138.5970 O   0  0  0  0  0  0  0  0  0  0  0  0
  192.5500  177.2290  139.9500 C   0  0  0  0  0  1  0  0  0  0  0  0
  187.8030  177.7000  139.3850 C   0  0  0  0  0  2  0  0  0  0  0  0
  188.1820  177.8950  141.8850 C   0  0  0  0  0  0  0  0  0  0  0  0
  188.6440  177.5790  140.5670 N   0  0  0  0  0  2  0  0  0  0  0  0
  187.0040  178.4010  142.0640 N   0  0  0  0  0  2  0  0  0  0  0  0
  190.3380  178.0730  144.8700 C   0  0  0  0  0  2  0  0  0  0  0  0
  191.7220  176.1130  144.2060 C   0  0  0  0  0  1  0  0  0  0  0  0
  189.4740  176.4730  143.3600 N   0  0  0  0  0  0  0  0  0  0  0  0
  190.3190  176.5790  144.5410 C   0  0  2  0  0  3  0  0  0  0  0  0
  189.0560  177.6450  143.0370 C   0  0  0  0  0  0  0  0  0  0  0  0
  189.5130  178.6440  143.8710 O   0  0  0  0  0  0  0  0  0  0  0  0
  181.6660  177.9810  136.1360 C   0  0  0  0  0  2  0  0  0  0  0  0
  182.1040  179.3050  136.7420 C   0  0  0  0  0  2  0  0  0  0  0  0
  181.0330  179.8590  137.5530 N   0  0  0  0  0  2  0  0  0  0  0  0
  181.6060  180.2140  138.8440 C   0  0  0  0  0  2  0  0  0  0  0  0
  182.3200  179.0140  139.4430 C   0  0  2  0  0  3  0  0  0  0  0  0
  178.9340  173.8920  140.8400 C   0  0  0  0  0  1  0  0  0  0  0  0
  180.7570  178.6390  141.3550 C   0  0  0  0  0  3  0  0  0  0  0  0
  180.1610  176.0580  140.4900 C   0  0  0  0  0  0  0  0  0  0  0  0
  181.0570  176.8500  139.7550 C   0  0  0  0  0  3  0  0  0  0  0  0
  179.5940  176.5700  141.6210 N   0  0  0  0  0  0  0  0  0  0  0  0
  181.3520  178.1500  140.1880 C   0  0  0  0  0  0  0  0  0  0  0  0
  179.8390  174.7220  140.0610 N   0  0  0  0  0  0  0  0  0  0  0  0
  179.8710  177.8270  142.0630 C   0  0  0  0  0  3  0  0  0  0  0  0
  180.4080  174.1560  138.8460 C   0  0  0  0  0  1  0  0  0  0  0  0
  183.3920  179.4510  140.3250 N   0  0  0  0  0  2  0  0  0  0  0  0
  184.5890  179.3070  139.6140 N   0  0  0  0  0  1  0  0  0  0  0  0
  1 10  1  0  0  0  0
  2 35  1  6  0  0  0
  3  4  1  6  0  0  0
  3  7  1  0  0  0  0
  5 11  1  0  0  0  0
  6 20  1  0  0  0  0
  6  5  1  1  0  0  0
  6  2  1  0  0  0  0
  7 15  1  0  0  0  0
  7  8  1  0  0  0  0
  8 13  1  0  0  0  0
  8 25  1  0  0  0  0
  9  1  2  0  0  0  0
  9 19  1  0  0  0  0
 10 12  2  0  0  0  0
 11 16  2  0  0  0  0
 12 14  1  0  0  0  0
 14 13  2  0  0  0  0
 14 23  1  0  0  0  0
 16  3  1  0  0  0  0
 16 18  1  0  0  0  0
 17 12  1  0  0  0  0
 17 15  1  0  0  0  0
 18 15  1  0  0  0  0
 19 17  2  0  0  0  0
 20 11  1  0  0  0  0
 20  2  1  0  0  0  0
 22 21  1  0  0  0  0
 22  9  1  0  0  0  0
 23 24  1  0  0  0  0
 25 27  1  0  0  0  0
 26 28  2  0  0  0  0
 26 33  1  0  0  0  0
 27 26  1  0  0  0  0
 30 32  1  0  0  0  0
 31 32  1  0  0  0  0
 32 29  1  0  0  0  0
 33 31  2  0  0  0  0
 33 34  1  0  0  0  0
 34 29  1  0  0  0  0
 35 36  1  0  0  0  0
 36 37  1  0  0  0  0
 37 38  1  0  0  0  0
 38 39  1  0  0  0  0
 39 45  1  0  0  0  0
 39 49  1  0  0  0  0
 41 47  1  0  0  0  0
 42 44  1  0  0  0  0
 43 45  1  0  0  0  0
 43 42  2  0  0  0  0
 44 47  2  0  0  0  0
 45 41  2  0  0  0  0
 46 42  1  0  0  0  0
 46 40  1  0  0  0  0
 48 46  1  0  0  0  0
 50 49  1  0  0  0  0
M  END
>  <MODEL>
9

>  <REMARK>
 VINA RESULT:      -5.9      2.034      3.206
  Name = 
  12 active torsions:
  status: ('A' for Active; 'I' for Inactive)
    1  A    between atoms: C_2  and  C_42
    2  A    between atoms: N_6  and  C_16
    3  A    between atoms: C_8  and  C_44
    4  A    between atoms: N_9  and  C_25
    5  A    between atoms: C_10  and  N_19
    6  A    between atoms: C_10  and  C_29
    7  A    between atoms: O_14  and  C_31
    8  A    between atoms: C_15  and  C_25
    9  A    between atoms: N_19  and  C_20
   10  A    between atoms: C_20  and  C_42
   11  A    between atoms: N_23  and  C_29
   12  A    between atoms: C_29  and  C_37
                            x       y       z     vdW  Elec       q    Type
                         _______ _______ _______ _____ _____    ______ ____

>  <TORSDO>
F 12

$$$$
