=
 OpenBabel11042410113D

 32 33  0  0  1  0  0  0  0  0999 V2000
  187.6290  175.7960  143.3770 O   0  0  0  0  0  1  0  0  0  0  0  0
  187.9890  177.0950  142.9930 C   0  0  1  0  0  3  0  0  0  0  0  0
  187.5110  178.0570  143.9890 N   0  0  0  0  0  2  0  0  0  0  0  0
  186.6630  177.3860  144.9710 C   0  0  0  0  0  2  0  0  0  0  0  0
  185.4250  178.2240  145.2530 C   0  0  1  0  0  3  0  0  0  0  0  0
  186.7360  178.3630  147.3690 C   0  0  0  0  0  1  0  0  0  0  0  0
  185.6090  178.9760  146.5610 C   0  0  0  0  0  2  0  0  0  0  0  0
  185.2000  179.2090  144.1140 C   0  0  0  0  0  2  0  0  0  0  0  0
  183.9380  178.8650  143.3420 C   0  0  0  0  0  2  0  0  0  0  0  0
  184.2950  178.2560  142.0010 C   0  0  0  0  0  2  0  0  0  0  0  0
  185.0830  179.2050  141.2350 N   0  0  0  0  0  2  0  0  0  0  0  0
  183.9690  177.3540  138.4540 C   0  0  0  0  0  2  0  0  0  0  0  0
  185.6690  178.9050  138.9940 O   0  0  0  0  0  0  0  0  0  0  0  0
  184.5970  179.1570  139.8660 C   0  0  1  0  0  3  0  0  0  0  0  0
  185.1220  178.1740  137.9290 C   0  0  1  0  0  3  0  0  0  0  0  0
  183.5850  178.0440  139.7280 C   0  0  0  0  0  2  0  0  0  0  0  0
  186.1770  177.2520  137.3510 C   0  0  0  0  0  1  0  0  0  0  0  0
  189.5100  177.2200  142.7400 C   0  0  2  0  0  3  0  0  0  0  0  0
  189.9310  176.6840  141.3490 C   0  0  2  0  0  3  0  0  0  0  0  0
  191.5850  177.2820  140.8530 S   0  0  0  0  0  0  0  0  0  0  0  0
  192.0640  176.8390  138.1940 C   0  0  0  0  0  1  0  0  0  0  0  0
  188.9680  177.0730  140.2440 C   0  0  0  0  0  2  0  0  0  0  0  0
  191.0690  177.5040  139.1210 C   0  0  1  0  0  3  0  0  0  0  0  0
  189.7040  176.8800  138.9430 C   0  0  0  0  0  2  0  0  0  0  0  0
  190.3050  176.5890  143.9120 C   0  0  2  0  0  3  0  0  0  0  0  0
  190.9660  179.0280  144.0990 C   0  0  0  0  0  1  0  0  0  0  0  0
  191.0950  177.6330  144.7170 C   0  0  1  0  0  3  0  0  0  0  0  0
  191.7630  177.0850  146.8980 N   0  0  0  0  0  1  0  0  0  0  0  0
  189.6520  176.7820  146.2740 O   0  0  0  0  0  1  0  0  0  0  0  0
  190.7110  177.6190  146.1360 N   0  0  0  0  0  0  0  0  0  0  0  0
  191.9750  174.8270  144.3580 C   0  0  0  0  0  2  0  0  0  0  0  0
  191.1650  175.4280  143.4930 C   0  0  0  0  0  3  0  0  0  0  0  0
  2  1  1  1  0  0  0
  2  3  1  0  0  0  0
  3  4  1  0  0  0  0
  4  5  1  0  0  0  0
  5  8  1  6  0  0  0
  5  7  1  0  0  0  0
  7  6  1  0  0  0  0
  9  8  1  0  0  0  0
 10  9  1  0  0  0  0
 11 10  1  0  0  0  0
 12 16  1  0  0  0  0
 13 14  1  0  0  0  0
 14 11  1  1  0  0  0
 15 17  1  1  0  0  0
 15 12  1  0  0  0  0
 15 13  1  0  0  0  0
 16 14  1  0  0  0  0
 18  2  1  1  0  0  0
 18 25  1  0  0  0  0
 19 18  1  1  0  0  0
 20 19  1  0  0  0  0
 22 19  1  0  0  0  0
 23 21  1  6  0  0  0
 23 20  1  0  0  0  0
 24 23  1  0  0  0  0
 24 22  1  0  0  0  0
 25 32  1  6  0  0  0
 25 27  1  0  0  0  0
 27 26  1  6  0  0  0
 27 30  1  0  0  0  0
 30 29  1  0  0  0  0
 30 28  1  0  0  0  0
 32 31  2  0  0  0  0
M  END
>  <MODEL>
1

>  <REMARK>
 VINA RESULT:      -6.4      0.000      0.000
  Name = 
  15 active torsions:
  status: ('A' for Active; 'I' for Inactive)
    1  A    between atoms: C_1  and  C_19
    2  A    between atoms: C_2  and  C_6
    3  A    between atoms: C_2  and  C_7
    4  A    between atoms: C_2  and  C_8
    5  A    between atoms: N_3  and  C_6
    6  A    between atoms: N_3  and  C_31
    7  A    between atoms: C_8  and  C_26
    8  A    between atoms: N_12  and  C_13
    9  A    between atoms: N_12  and  C_16
   10  A    between atoms: C_13  and  C_26
   11  A    between atoms: C_19  and  C_22
   12  A    between atoms: C_19  and  C_31
   13  A    between atoms: N_20  and  C_27
   14  A    between atoms: C_22  and  C_27
   15  A    between atoms: C_22  and  C_30
                            x       y       z     vdW  Elec       q    Type
                         _______ _______ _______ _____ _____    ______ ____

>  <TORSDO>
F 15

$$$$
=
 OpenBabel11042410113D

 32 33  0  0  1  0  0  0  0  0999 V2000
  189.0600  179.4260  138.5610 O   0  0  0  0  0  1  0  0  0  0  0  0
  188.6930  178.4770  139.5250 C   0  0  1  0  0  3  0  0  0  0  0  0
  187.2340  178.4180  139.6330 N   0  0  0  0  0  2  0  0  0  0  0  0
  186.8160  178.7340  140.9960 C   0  0  0  0  0  2  0  0  0  0  0  0
  185.3100  178.9420  141.0470 C   0  0  1  0  0  3  0  0  0  0  0  0
  183.7690  179.6900  139.2360 C   0  0  0  0  0  1  0  0  0  0  0  0
  184.7030  178.5890  139.6990 C   0  0  0  0  0  2  0  0  0  0  0  0
  184.7070  178.0630  142.1350 C   0  0  0  0  0  2  0  0  0  0  0  0
  183.7890  178.8710  143.0360 C   0  0  0  0  0  2  0  0  0  0  0  0
  184.5640  179.4130  144.2200 C   0  0  0  0  0  2  0  0  0  0  0  0
  185.0450  178.3080  145.0300 N   0  0  0  0  0  2  0  0  0  0  0  0
  188.3160  177.2260  145.7560 C   0  0  0  0  0  2  0  0  0  0  0  0
  186.5880  178.4750  146.7750 O   0  0  0  0  0  0  0  0  0  0  0  0
  186.4220  178.6080  145.3870 C   0  0  1  0  0  3  0  0  0  0  0  0
  187.9120  178.0480  146.9540 C   0  0  1  0  0  3  0  0  0  0  0  0
  187.3470  177.6380  144.6900 C   0  0  0  0  0  2  0  0  0  0  0  0
  188.0080  177.2000  148.2070 C   0  0  0  0  0  1  0  0  0  0  0  0
  189.3170  177.0920  139.2370 C   0  0  2  0  0  3  0  0  0  0  0  0
  190.3390  176.6580  140.3160 C   0  0  2  0  0  3  0  0  0  0  0  0
  189.5500  176.3890  141.9430 S   0  0  0  0  0  0  0  0  0  0  0  0
  191.4030  176.2180  143.9500 C   0  0  0  0  0  1  0  0  0  0  0  0
  191.4510  177.6690  140.5240 C   0  0  0  0  0  2  0  0  0  0  0  0
  190.9530  177.1340  142.8330 C   0  0  1  0  0  3  0  0  0  0  0  0
  192.0840  177.3460  141.8530 C   0  0  0  0  0  2  0  0  0  0  0  0
  189.8870  177.0480  137.7950 C   0  0  2  0  0  3  0  0  0  0  0  0
  187.8010  175.6510  137.4460 C   0  0  0  0  0  1  0  0  0  0  0  0
  188.8640  176.5240  136.7740 C   0  0  1  0  0  3  0  0  0  0  0  0
  186.8720  177.6030  136.1620 N   0  0  0  0  0  1  0  0  0  0  0  0
  188.5230  177.4010  134.6880 O   0  0  0  0  0  1  0  0  0  0  0  0
  188.2680  177.6250  136.0020 N   0  0  0  0  0  0  0  0  0  0  0  0
  191.5510  175.6830  136.5860 C   0  0  0  0  0  2  0  0  0  0  0  0
  191.2050  176.3280  137.6950 C   0  0  0  0  0  3  0  0  0  0  0  0
  2  1  1  6  0  0  0
  2  3  1  0  0  0  0
  3  4  1  0  0  0  0
  4  5  1  0  0  0  0
  5  7  1  6  0  0  0
  5  8  1  0  0  0  0
  6  7  1  0  0  0  0
  8  9  1  0  0  0  0
  9 10  1  0  0  0  0
 10 11  1  0  0  0  0
 12 15  1  0  0  0  0
 13 15  1  0  0  0  0
 14 11  1  1  0  0  0
 14 13  1  0  0  0  0
 15 17  1  1  0  0  0
 16 14  1  0  0  0  0
 16 12  1  0  0  0  0
 18 25  1  6  0  0  0
 18  2  1  0  0  0  0
 19 18  1  6  0  0  0
 19 22  1  0  0  0  0
 19 20  1  0  0  0  0
 20 23  1  0  0  0  0
 22 24  1  0  0  0  0
 23 21  1  1  0  0  0
 24 23  1  0  0  0  0
 25 32  1  1  0  0  0
 27 26  1  1  0  0  0
 27 25  1  0  0  0  0
 29 30  1  0  0  0  0
 30 28  1  0  0  0  0
 30 27  1  0  0  0  0
 31 32  2  0  0  0  0
M  END
>  <MODEL>
2

>  <REMARK>
 VINA RESULT:      -6.3      2.496      6.657
  Name = 
  15 active torsions:
  status: ('A' for Active; 'I' for Inactive)
    1  A    between atoms: C_1  and  C_19
    2  A    between atoms: C_2  and  C_6
    3  A    between atoms: C_2  and  C_7
    4  A    between atoms: C_2  and  C_8
    5  A    between atoms: N_3  and  C_6
    6  A    between atoms: N_3  and  C_31
    7  A    between atoms: C_8  and  C_26
    8  A    between atoms: N_12  and  C_13
    9  A    between atoms: N_12  and  C_16
   10  A    between atoms: C_13  and  C_26
   11  A    between atoms: C_19  and  C_22
   12  A    between atoms: C_19  and  C_31
   13  A    between atoms: N_20  and  C_27
   14  A    between atoms: C_22  and  C_27
   15  A    between atoms: C_22  and  C_30
                            x       y       z     vdW  Elec       q    Type
                         _______ _______ _______ _____ _____    ______ ____

>  <TORSDO>
F 15

$$$$
=
 OpenBabel11042410113D

 32 33  0  0  1  0  0  0  0  0999 V2000
  188.0580  179.4150  141.9580 O   0  0  0  0  0  1  0  0  0  0  0  0
  187.5080  178.1350  141.8030 C   0  0  1  0  0  3  0  0  0  0  0  0
  188.3080  177.3640  140.8490 N   0  0  0  0  0  2  0  0  0  0  0  0
  189.0980  178.2620  140.0110 C   0  0  0  0  0  2  0  0  0  0  0  0
  189.6500  177.5090  138.8100 C   0  0  1  0  0  3  0  0  0  0  0  0
  191.7800  177.3740  140.0970 C   0  0  0  0  0  1  0  0  0  0  0  0
  190.7830  176.6000  139.2580 C   0  0  0  0  0  2  0  0  0  0  0  0
  188.5430  176.6820  138.1690 C   0  0  0  0  0  2  0  0  0  0  0  0
  187.9150  177.4290  137.0050 C   0  0  0  0  0  2  0  0  0  0  0  0
  186.4390  177.6540  137.2640 C   0  0  0  0  0  2  0  0  0  0  0  0
  186.2660  178.8560  138.0610 N   0  0  0  0  0  2  0  0  0  0  0  0
  182.7730  178.4470  138.2540 C   0  0  0  0  0  2  0  0  0  0  0  0
  184.4410  179.9170  139.0580 O   0  0  0  0  0  0  0  0  0  0  0  0
  185.0600  178.6740  138.8520 C   0  0  1  0  0  3  0  0  0  0  0  0
  183.0660  179.6440  139.1240 C   0  0  1  0  0  3  0  0  0  0  0  0
  184.1020  177.7690  138.1130 C   0  0  0  0  0  2  0  0  0  0  0  0
  182.2850  180.8410  138.6180 C   0  0  0  0  0  1  0  0  0  0  0  0
  187.3490  177.4090  143.1580 C   0  0  2  0  0  3  0  0  0  0  0  0
  185.9550  177.6270  143.7960 C   0  0  2  0  0  3  0  0  0  0  0  0
  184.7010  178.1150  142.5590 S   0  0  0  0  0  0  0  0  0  0  0  0
  182.4280  179.0720  143.7470 C   0  0  0  0  0  1  0  0  0  0  0  0
  185.9540  178.6950  144.8740 C   0  0  0  0  0  2  0  0  0  0  0  0
  183.9230  179.3000  143.7020 C   0  0  1  0  0  3  0  0  0  0  0  0
  184.5170  179.1000  145.0780 C   0  0  0  0  0  2  0  0  0  0  0  0
  188.5240  177.7700  144.1040 C   0  0  2  0  0  3  0  0  0  0  0  0
  190.9000  178.6020  143.8140 C   0  0  0  0  0  1  0  0  0  0  0  0
  189.8970  177.4990  143.4680 C   0  0  1  0  0  3  0  0  0  0  0  0
  191.7380  176.2620  144.2310 N   0  0  0  0  0  1  0  0  0  0  0  0
  190.3740  175.3940  142.7080 O   0  0  0  0  0  1  0  0  0  0  0  0
  190.3970  176.1630  143.8250 N   0  0  0  0  0  0  0  0  0  0  0  0
  188.9020  177.7560  146.5430 C   0  0  0  0  0  2  0  0  0  0  0  0
  188.4010  177.1520  145.4710 C   0  0  0  0  0  3  0  0  0  0  0  0
  2  1  1  1  0  0  0
  3  2  1  0  0  0  0
  4  3  1  0  0  0  0
  5  8  1  1  0  0  0
  5  7  1  0  0  0  0
  5  4  1  0  0  0  0
  7  6  1  0  0  0  0
  9 10  1  0  0  0  0
  9  8  1  0  0  0  0
 10 11  1  0  0  0  0
 12 15  1  0  0  0  0
 13 15  1  0  0  0  0
 14 11  1  6  0  0  0
 14 13  1  0  0  0  0
 15 17  1  6  0  0  0
 16 12  1  0  0  0  0
 16 14  1  0  0  0  0
 18  2  1  6  0  0  0
 18 25  1  0  0  0  0
 19 18  1  6  0  0  0
 19 22  1  0  0  0  0
 20 23  1  0  0  0  0
 20 19  1  0  0  0  0
 22 24  1  0  0  0  0
 23 21  1  1  0  0  0
 23 24  1  0  0  0  0
 25 32  1  1  0  0  0
 27 26  1  1  0  0  0
 27 30  1  0  0  0  0
 27 25  1  0  0  0  0
 29 30  1  0  0  0  0
 30 28  1  0  0  0  0
 32 31  2  0  0  0  0
M  END
>  <MODEL>
3

>  <REMARK>
 VINA RESULT:      -6.2      2.307      5.429
  Name = 
  15 active torsions:
  status: ('A' for Active; 'I' for Inactive)
    1  A    between atoms: C_1  and  C_19
    2  A    between atoms: C_2  and  C_6
    3  A    between atoms: C_2  and  C_7
    4  A    between atoms: C_2  and  C_8
    5  A    between atoms: N_3  and  C_6
    6  A    between atoms: N_3  and  C_31
    7  A    between atoms: C_8  and  C_26
    8  A    between atoms: N_12  and  C_13
    9  A    between atoms: N_12  and  C_16
   10  A    between atoms: C_13  and  C_26
   11  A    between atoms: C_19  and  C_22
   12  A    between atoms: C_19  and  C_31
   13  A    between atoms: N_20  and  C_27
   14  A    between atoms: C_22  and  C_27
   15  A    between atoms: C_22  and  C_30
                            x       y       z     vdW  Elec       q    Type
                         _______ _______ _______ _____ _____    ______ ____

>  <TORSDO>
F 15

$$$$
=
 OpenBabel11042410113D

 32 33  0  0  1  0  0  0  0  0999 V2000
  184.2050  180.1440  139.1360 O   0  0  0  0  0  1  0  0  0  0  0  0
  184.5950  178.8440  139.4850 C   0  0  1  0  0  3  0  0  0  0  0  0
  184.3330  178.6130  140.9080 N   0  0  0  0  0  2  0  0  0  0  0  0
  185.4900  179.0140  141.7040 C   0  0  0  0  0  2  0  0  0  0  0  0
  185.1060  179.1100  143.1730 C   0  0  1  0  0  3  0  0  0  0  0  0
  183.2220  178.8900  144.7890 C   0  0  0  0  0  1  0  0  0  0  0  0
  183.6140  178.8670  143.3250 C   0  0  0  0  0  2  0  0  0  0  0  0
  185.8860  178.0760  143.9750 C   0  0  0  0  0  2  0  0  0  0  0  0
  187.0560  177.5370  143.1700 C   0  0  0  0  0  2  0  0  0  0  0  0
  188.0080  176.7810  144.0760 C   0  0  0  0  0  2  0  0  0  0  0  0
  189.3620  177.2610  143.8620 N   0  0  0  0  0  2  0  0  0  0  0  0
  190.4150  176.8790  147.2000 C   0  0  0  0  0  2  0  0  0  0  0  0
  188.7200  177.9910  145.9850 O   0  0  0  0  0  0  0  0  0  0  0  0
  189.8120  177.8420  145.1160 C   0  0  1  0  0  3  0  0  0  0  0  0
  189.2430  177.8260  147.2760 C   0  0  1  0  0  3  0  0  0  0  0  0
  190.8280  176.9280  145.7600 C   0  0  0  0  0  2  0  0  0  0  0  0
  188.1800  177.2450  148.1860 C   0  0  0  0  0  1  0  0  0  0  0  0
  183.9240  177.7800  138.5850 C   0  0  2  0  0  3  0  0  0  0  0  0
  184.7720  177.4310  137.3370 C   0  0  2  0  0  3  0  0  0  0  0  0
  184.8580  175.6290  137.0450 S   0  0  0  0  0  0  0  0  0  0  0  0
  186.8110  174.9890  135.2380 C   0  0  0  0  0  1  0  0  0  0  0  0
  186.2000  177.9350  137.4270 C   0  0  0  0  0  2  0  0  0  0  0  0
  186.6080  175.7150  136.5500 C   0  0  1  0  0  3  0  0  0  0  0  0
  186.9930  177.1690  136.4000 C   0  0  0  0  0  2  0  0  0  0  0  0
  182.4700  178.2010  138.2460 C   0  0  2  0  0  3  0  0  0  0  0  0
  182.0880  176.1300  139.6560 C   0  0  0  0  0  1  0  0  0  0  0  0
  181.4240  177.2900  138.9090 C   0  0  1  0  0  3  0  0  0  0  0  0
  181.0040  179.3700  139.9090 N   0  0  0  0  0  1  0  0  0  0  0  0
  180.5400  177.4960  141.0090 O   0  0  0  0  0  1  0  0  0  0  0  0
  180.5180  178.0590  139.7750 N   0  0  0  0  0  0  0  0  0  0  0  0
  181.3560  177.5870  136.1310 C   0  0  0  0  0  2  0  0  0  0  0  0
  182.2250  178.3630  136.7700 C   0  0  0  0  0  3  0  0  0  0  0  0
  2  1  1  6  0  0  0
  2  3  1  0  0  0  0
  3  4  1  0  0  0  0
  5  4  1  6  0  0  0
  5  7  1  0  0  0  0
  5  8  1  0  0  0  0
  7  6  1  0  0  0  0
  9  8  1  0  0  0  0
  9 10  1  0  0  0  0
 11 10  1  0  0  0  0
 12 15  1  0  0  0  0
 13 15  1  0  0  0  0
 14 11  1  6  0  0  0
 14 16  1  0  0  0  0
 14 13  1  0  0  0  0
 15 17  1  1  0  0  0
 16 12  1  0  0  0  0
 18 25  1  6  0  0  0
 18  2  1  0  0  0  0
 19 22  1  0  0  0  0
 19 18  1  1  0  0  0
 20 19  1  0  0  0  0
 23 21  1  6  0  0  0
 23 20  1  0  0  0  0
 24 23  1  0  0  0  0
 24 22  1  0  0  0  0
 25 32  1  6  0  0  0
 25 27  1  0  0  0  0
 27 26  1  1  0  0  0
 27 30  1  0  0  0  0
 30 28  1  0  0  0  0
 30 29  1  0  0  0  0
 31 32  2  0  0  0  0
M  END
>  <MODEL>
4

>  <REMARK>
 VINA RESULT:      -6.2      2.798      8.088
  Name = 
  15 active torsions:
  status: ('A' for Active; 'I' for Inactive)
    1  A    between atoms: C_1  and  C_19
    2  A    between atoms: C_2  and  C_6
    3  A    between atoms: C_2  and  C_7
    4  A    between atoms: C_2  and  C_8
    5  A    between atoms: N_3  and  C_6
    6  A    between atoms: N_3  and  C_31
    7  A    between atoms: C_8  and  C_26
    8  A    between atoms: N_12  and  C_13
    9  A    between atoms: N_12  and  C_16
   10  A    between atoms: C_13  and  C_26
   11  A    between atoms: C_19  and  C_22
   12  A    between atoms: C_19  and  C_31
   13  A    between atoms: N_20  and  C_27
   14  A    between atoms: C_22  and  C_27
   15  A    between atoms: C_22  and  C_30
                            x       y       z     vdW  Elec       q    Type
                         _______ _______ _______ _____ _____    ______ ____

>  <TORSDO>
F 15

$$$$
=
 OpenBabel11042410113D

 32 33  0  0  1  0  0  0  0  0999 V2000
  184.6230  179.6950  140.2940 O   0  0  0  0  0  1  0  0  0  0  0  0
  184.1790  178.4090  140.6310 C   0  0  1  0  0  3  0  0  0  0  0  0
  184.1710  178.2530  142.0870 N   0  0  0  0  0  2  0  0  0  0  0  0
  184.9210  179.3380  142.7140 C   0  0  0  0  0  2  0  0  0  0  0  0
  185.6500  178.8280  143.9470 C   0  0  1  0  0  3  0  0  0  0  0  0
  185.4170  178.6540  146.4230 C   0  0  0  0  0  1  0  0  0  0  0  0
  184.6710  178.7150  145.1050 C   0  0  0  0  0  2  0  0  0  0  0  0
  186.2650  177.4660  143.6530 C   0  0  0  0  0  2  0  0  0  0  0  0
  187.6870  177.6150  143.1370 C   0  0  0  0  0  2  0  0  0  0  0  0
  188.6300  176.7500  143.9490 C   0  0  0  0  0  2  0  0  0  0  0  0
  189.9750  177.2920  143.8660 N   0  0  0  0  0  2  0  0  0  0  0  0
  190.6470  176.6590  147.2640 C   0  0  0  0  0  2  0  0  0  0  0  0
  189.1570  177.9440  145.9530 O   0  0  0  0  0  0  0  0  0  0  0  0
  190.3240  177.7730  145.1920 C   0  0  1  0  0  3  0  0  0  0  0  0
  189.5310  177.6750  147.2780 C   0  0  1  0  0  3  0  0  0  0  0  0
  191.2110  176.7610  145.8790 C   0  0  0  0  0  2  0  0  0  0  0  0
  188.3460  177.1140  148.0380 C   0  0  0  0  0  1  0  0  0  0  0  0
  182.8050  178.0900  139.9990 C   0  0  2  0  0  3  0  0  0  0  0  0
  182.9260  177.3860  138.6250 C   0  0  2  0  0  3  0  0  0  0  0  0
  182.3460  175.6540  138.6840 S   0  0  0  0  0  0  0  0  0  0  0  0
  183.1090  174.2550  136.4580 C   0  0  0  0  0  1  0  0  0  0  0  0
  184.3460  177.3610  138.0910 C   0  0  0  0  0  2  0  0  0  0  0  0
  183.6820  175.0880  137.5840 C   0  0  1  0  0  3  0  0  0  0  0  0
  184.3860  176.3020  137.0200 C   0  0  0  0  0  2  0  0  0  0  0  0
  181.9190  179.3620  139.9650 C   0  0  2  0  0  3  0  0  0  0  0  0
  179.5380  178.5100  139.8000 C   0  0  0  0  0  1  0  0  0  0  0  0
  180.5840  179.1700  140.7020 C   0  0  1  0  0  3  0  0  0  0  0  0
  179.5960  177.7260  142.2660 N   0  0  0  0  0  1  0  0  0  0  0  0
  180.9580  179.3410  142.9530 O   0  0  0  0  0  1  0  0  0  0  0  0
  180.7700  178.4340  141.9620 N   0  0  0  0  0  0  0  0  0  0  0  0
  181.7990  181.2240  138.3490 C   0  0  0  0  0  2  0  0  0  0  0  0
  181.7250  179.9180  138.5800 C   0  0  0  0  0  3  0  0  0  0  0  0
  2  1  1  1  0  0  0
  2  3  1  0  0  0  0
  3  4  1  0  0  0  0
  5  4  1  6  0  0  0
  5  7  1  0  0  0  0
  7  6  1  0  0  0  0
  8  5  1  0  0  0  0
  9  8  1  0  0  0  0
  9 10  1  0  0  0  0
 11 10  1  0  0  0  0
 12 15  1  0  0  0  0
 13 15  1  0  0  0  0
 14 11  1  6  0  0  0
 14 16  1  0  0  0  0
 14 13  1  0  0  0  0
 15 17  1  1  0  0  0
 16 12  1  0  0  0  0
 18 25  1  6  0  0  0
 18  2  1  0  0  0  0
 19 20  1  0  0  0  0
 19 18  1  1  0  0  0
 22 19  1  0  0  0  0
 23 21  1  6  0  0  0
 23 20  1  0  0  0  0
 24 23  1  0  0  0  0
 24 22  1  0  0  0  0
 25 32  1  6  0  0  0
 25 27  1  0  0  0  0
 27 26  1  6  0  0  0
 27 30  1  0  0  0  0
 30 28  1  0  0  0  0
 30 29  1  0  0  0  0
 31 32  2  0  0  0  0
M  END
>  <MODEL>
5

>  <REMARK>
 VINA RESULT:      -6.1      3.110      8.330
  Name = 
  15 active torsions:
  status: ('A' for Active; 'I' for Inactive)
    1  A    between atoms: C_1  and  C_19
    2  A    between atoms: C_2  and  C_6
    3  A    between atoms: C_2  and  C_7
    4  A    between atoms: C_2  and  C_8
    5  A    between atoms: N_3  and  C_6
    6  A    between atoms: N_3  and  C_31
    7  A    between atoms: C_8  and  C_26
    8  A    between atoms: N_12  and  C_13
    9  A    between atoms: N_12  and  C_16
   10  A    between atoms: C_13  and  C_26
   11  A    between atoms: C_19  and  C_22
   12  A    between atoms: C_19  and  C_31
   13  A    between atoms: N_20  and  C_27
   14  A    between atoms: C_22  and  C_27
   15  A    between atoms: C_22  and  C_30
                            x       y       z     vdW  Elec       q    Type
                         _______ _______ _______ _____ _____    ______ ____

>  <TORSDO>
F 15

$$$$
=
 OpenBabel11042410113D

 32 33  0  0  1  0  0  0  0  0999 V2000
  184.6560  180.0340  139.4360 O   0  0  0  0  0  1  0  0  0  0  0  0
  184.6530  178.9030  140.2630 C   0  0  1  0  0  3  0  0  0  0  0  0
  184.9250  179.3000  141.6470 N   0  0  0  0  0  2  0  0  0  0  0  0
  184.8880  178.1320  142.5220 C   0  0  0  0  0  2  0  0  0  0  0  0
  185.8540  178.3170  143.6830 C   0  0  1  0  0  3  0  0  0  0  0  0
  183.7860  179.1980  144.7610 C   0  0  0  0  0  1  0  0  0  0  0  0
  185.0710  178.4250  144.9820 C   0  0  0  0  0  2  0  0  0  0  0  0
  186.8100  177.1330  143.7490 C   0  0  0  0  0  2  0  0  0  0  0  0
  188.0760  177.5020  144.5030 C   0  0  0  0  0  2  0  0  0  0  0  0
  189.2930  176.9840  143.7640 C   0  0  0  0  0  2  0  0  0  0  0  0
  188.9060  176.5670  142.4270 N   0  0  0  0  0  2  0  0  0  0  0  0
  188.9430  178.2350  139.3260 C   0  0  0  0  0  2  0  0  0  0  0  0
  190.2990  176.7440  140.5620 O   0  0  0  0  0  0  0  0  0  0  0  0
  189.5470  177.4780  141.4940 C   0  0  1  0  0  3  0  0  0  0  0  0
  190.2540  177.4900  139.3750 C   0  0  1  0  0  3  0  0  0  0  0  0
  188.4940  178.2700  140.7550 C   0  0  0  0  0  2  0  0  0  0  0  0
  190.3510  176.5570  138.1840 C   0  0  0  0  0  1  0  0  0  0  0  0
  183.3400  178.0960  140.1310 C   0  0  2  0  0  3  0  0  0  0  0  0
  183.2200  177.3660  138.7710 C   0  0  2  0  0  3  0  0  0  0  0  0
  182.6570  175.6380  138.9640 S   0  0  0  0  0  0  0  0  0  0  0  0
  183.0200  174.1940  136.6670 C   0  0  0  0  0  1  0  0  0  0  0  0
  184.5270  177.3230  138.0000 C   0  0  0  0  0  2  0  0  0  0  0  0
  183.7810  175.0450  137.6600 C   0  0  1  0  0  3  0  0  0  0  0  0
  184.3780  176.2440  136.9600 C   0  0  0  0  0  2  0  0  0  0  0  0
  182.1200  178.9950  140.4590 C   0  0  2  0  0  3  0  0  0  0  0  0
  181.0280  179.4080  142.7090 C   0  0  0  0  0  1  0  0  0  0  0  0
  181.2370  178.4050  141.5710 C   0  0  1  0  0  3  0  0  0  0  0  0
  178.9310  178.1880  141.9430 N   0  0  0  0  0  1  0  0  0  0  0  0
  180.0500  176.5550  140.9350 O   0  0  0  0  0  1  0  0  0  0  0  0
  179.9630  177.9050  141.0330 N   0  0  0  0  0  0  0  0  0  0  0  0
  181.3980  180.6040  138.7330 C   0  0  0  0  0  2  0  0  0  0  0  0
  181.3190  179.3810  139.2450 C   0  0  0  0  0  3  0  0  0  0  0  0
  2  1  1  6  0  0  0
  2  3  1  0  0  0  0
  3  4  1  0  0  0  0
  5  4  1  6  0  0  0
  5  8  1  0  0  0  0
  5  7  1  0  0  0  0
  6  7  1  0  0  0  0
  8  9  1  0  0  0  0
 10  9  1  0  0  0  0
 11 10  1  0  0  0  0
 12 15  1  0  0  0  0
 12 16  1  0  0  0  0
 13 14  1  0  0  0  0
 14 11  1  1  0  0  0
 15 17  1  6  0  0  0
 15 13  1  0  0  0  0
 16 14  1  0  0  0  0
 18  2  1  6  0  0  0
 18 25  1  0  0  0  0
 19 20  1  0  0  0  0
 19 18  1  1  0  0  0
 22 19  1  0  0  0  0
 23 21  1  6  0  0  0
 23 20  1  0  0  0  0
 24 23  1  0  0  0  0
 24 22  1  0  0  0  0
 25 32  1  6  0  0  0
 25 27  1  0  0  0  0
 27 26  1  1  0  0  0
 29 30  1  0  0  0  0
 30 27  1  0  0  0  0
 30 28  1  0  0  0  0
 31 32  2  0  0  0  0
M  END
>  <MODEL>
6

>  <REMARK>
 VINA RESULT:      -6.0      3.073      7.488
  Name = 
  15 active torsions:
  status: ('A' for Active; 'I' for Inactive)
    1  A    between atoms: C_1  and  C_19
    2  A    between atoms: C_2  and  C_6
    3  A    between atoms: C_2  and  C_7
    4  A    between atoms: C_2  and  C_8
    5  A    between atoms: N_3  and  C_6
    6  A    between atoms: N_3  and  C_31
    7  A    between atoms: C_8  and  C_26
    8  A    between atoms: N_12  and  C_13
    9  A    between atoms: N_12  and  C_16
   10  A    between atoms: C_13  and  C_26
   11  A    between atoms: C_19  and  C_22
   12  A    between atoms: C_19  and  C_31
   13  A    between atoms: N_20  and  C_27
   14  A    between atoms: C_22  and  C_27
   15  A    between atoms: C_22  and  C_30
                            x       y       z     vdW  Elec       q    Type
                         _______ _______ _______ _____ _____    ______ ____

>  <TORSDO>
F 15

$$$$
=
 OpenBabel11042410113D

 32 33  0  0  1  0  0  0  0  0999 V2000
  191.9730  177.4990  141.2730 O   0  0  0  0  0  1  0  0  0  0  0  0
  190.5750  177.4380  141.1890 C   0  0  1  0  0  3  0  0  0  0  0  0
  190.1810  176.4080  140.2250 N   0  0  0  0  0  2  0  0  0  0  0  0
  191.1660  176.3190  139.1520 C   0  0  0  0  0  2  0  0  0  0  0  0
  190.5590  176.7990  137.8420 C   0  0  1  0  0  3  0  0  0  0  0  0
  192.0540  174.9190  137.1760 C   0  0  0  0  0  1  0  0  0  0  0  0
  191.2450  176.1000  136.6790 C   0  0  0  0  0  2  0  0  0  0  0  0
  189.0670  176.4920  137.8250 C   0  0  0  0  0  2  0  0  0  0  0  0
  188.2670  177.7210  137.4250 C   0  0  0  0  0  2  0  0  0  0  0  0
  186.8150  177.5500  137.8230 C   0  0  0  0  0  2  0  0  0  0  0  0
  186.2080  178.8570  138.0060 N   0  0  0  0  0  2  0  0  0  0  0  0
  182.7150  178.4830  138.2590 C   0  0  0  0  0  2  0  0  0  0  0  0
  184.4170  179.9070  139.0750 O   0  0  0  0  0  0  0  0  0  0  0  0
  185.0160  178.6640  138.8150 C   0  0  1  0  0  3  0  0  0  0  0  0
  183.0410  179.6480  139.1610 C   0  0  1  0  0  3  0  0  0  0  0  0
  184.0320  177.7940  138.0680 C   0  0  0  0  0  2  0  0  0  0  0  0
  182.2650  180.8700  138.7110 C   0  0  0  0  0  1  0  0  0  0  0  0
  189.9240  177.2250  142.5750 C   0  0  2  0  0  3  0  0  0  0  0  0
  188.6500  178.0820  142.7770 C   0  0  2  0  0  3  0  0  0  0  0  0
  187.4810  177.3130  143.9530 S   0  0  0  0  0  0  0  0  0  0  0  0
  185.0160  178.4970  143.8490 C   0  0  0  0  0  1  0  0  0  0  0  0
  187.8860  178.3260  141.4890 C   0  0  0  0  0  2  0  0  0  0  0  0
  186.0370  177.8150  142.9650 C   0  0  1  0  0  3  0  0  0  0  0  0
  186.5010  178.7650  141.8860 C   0  0  0  0  0  2  0  0  0  0  0  0
  190.9770  177.4100  143.6990 C   0  0  2  0  0  3  0  0  0  0  0  0
  191.9980  175.1830  144.3470 C   0  0  0  0  0  1  0  0  0  0  0  0
  190.9660  176.2530  144.7120 C   0  0  1  0  0  3  0  0  0  0  0  0
  192.0520  175.9180  146.7640 N   0  0  0  0  0  1  0  0  0  0  0  0
  189.9480  176.6320  146.7260 O   0  0  0  0  0  1  0  0  0  0  0  0
  191.1390  176.7440  146.0870 N   0  0  0  0  0  0  0  0  0  0  0  0
  191.6960  179.7510  144.0050 C   0  0  0  0  0  2  0  0  0  0  0  0
  190.9000  178.7530  144.3740 C   0  0  0  0  0  3  0  0  0  0  0  0
  2  1  1  1  0  0  0
  3  2  1  0  0  0  0
  4  3  1  0  0  0  0
  5  7  1  6  0  0  0
  5  4  1  0  0  0  0
  7  6  1  0  0  0  0
  8  5  1  0  0  0  0
  9 10  1  0  0  0  0
  9  8  1  0  0  0  0
 10 11  1  0  0  0  0
 12 15  1  0  0  0  0
 13 15  1  0  0  0  0
 14 11  1  6  0  0  0
 14 13  1  0  0  0  0
 15 17  1  6  0  0  0
 16 12  1  0  0  0  0
 16 14  1  0  0  0  0
 18  2  1  6  0  0  0
 18 25  1  0  0  0  0
 19 18  1  6  0  0  0
 19 20  1  0  0  0  0
 22 24  1  0  0  0  0
 22 19  1  0  0  0  0
 23 21  1  1  0  0  0
 23 20  1  0  0  0  0
 24 23  1  0  0  0  0
 25 32  1  1  0  0  0
 25 27  1  0  0  0  0
 27 26  1  6  0  0  0
 27 30  1  0  0  0  0
 30 29  1  0  0  0  0
 30 28  1  0  0  0  0
 31 32  2  0  0  0  0
M  END
>  <MODEL>
7

>  <REMARK>
 VINA RESULT:      -6.0      2.161      5.372
  Name = 
  15 active torsions:
  status: ('A' for Active; 'I' for Inactive)
    1  A    between atoms: C_1  and  C_19
    2  A    between atoms: C_2  and  C_6
    3  A    between atoms: C_2  and  C_7
    4  A    between atoms: C_2  and  C_8
    5  A    between atoms: N_3  and  C_6
    6  A    between atoms: N_3  and  C_31
    7  A    between atoms: C_8  and  C_26
    8  A    between atoms: N_12  and  C_13
    9  A    between atoms: N_12  and  C_16
   10  A    between atoms: C_13  and  C_26
   11  A    between atoms: C_19  and  C_22
   12  A    between atoms: C_19  and  C_31
   13  A    between atoms: N_20  and  C_27
   14  A    between atoms: C_22  and  C_27
   15  A    between atoms: C_22  and  C_30
                            x       y       z     vdW  Elec       q    Type
                         _______ _______ _______ _____ _____    ______ ____

>  <TORSDO>
F 15

$$$$
=
 OpenBabel11042410113D

 32 33  0  0  1  0  0  0  0  0999 V2000
  184.4280  180.1260  139.3540 O   0  0  0  0  0  1  0  0  0  0  0  0
  184.5250  178.7490  139.5950 C   0  0  1  0  0  3  0  0  0  0  0  0
  184.4200  178.4880  141.0330 N   0  0  0  0  0  2  0  0  0  0  0  0
  185.5910  179.0160  141.7270 C   0  0  0  0  0  2  0  0  0  0  0  0
  185.2700  179.2460  143.1960 C   0  0  1  0  0  3  0  0  0  0  0  0
  183.5020  178.7860  144.8910 C   0  0  0  0  0  1  0  0  0  0  0  0
  183.7790  179.0540  143.4260 C   0  0  0  0  0  2  0  0  0  0  0  0
  186.0580  178.2650  144.0540 C   0  0  0  0  0  2  0  0  0  0  0  0
  186.9800  177.4160  143.1960 C   0  0  0  0  0  2  0  0  0  0  0  0
  188.1280  176.8850  144.0310 C   0  0  0  0  0  2  0  0  0  0  0  0
  188.0310  177.4150  145.3790 N   0  0  0  0  0  2  0  0  0  0  0  0
  191.5180  176.9340  145.3030 C   0  0  0  0  0  2  0  0  0  0  0  0
  189.7760  177.0790  146.8940 O   0  0  0  0  0  0  0  0  0  0  0  0
  189.3680  177.8230  145.7750 C   0  0  1  0  0  3  0  0  0  0  0  0
  191.1670  176.9490  146.7700 C   0  0  1  0  0  3  0  0  0  0  0  0
  190.3320  177.5660  144.6400 C   0  0  0  0  0  2  0  0  0  0  0  0
  191.6160  175.6510  147.4120 C   0  0  0  0  0  1  0  0  0  0  0  0
  183.4880  177.9470  138.7760 C   0  0  2  0  0  3  0  0  0  0  0  0
  184.1070  177.2580  137.5350 C   0  0  2  0  0  3  0  0  0  0  0  0
  183.9130  175.4420  137.5850 S   0  0  0  0  0  0  0  0  0  0  0  0
  185.5050  174.2030  135.7360 C   0  0  0  0  0  1  0  0  0  0  0  0
  185.5890  177.5420  137.3740 C   0  0  0  0  0  2  0  0  0  0  0  0
  185.5770  175.1680  136.8990 C   0  0  1  0  0  3  0  0  0  0  0  0
  186.1290  176.4960  136.4330 C   0  0  0  0  0  2  0  0  0  0  0  0
  182.2610  178.8350  138.4410 C   0  0  2  0  0  3  0  0  0  0  0  0
  180.7080  180.2630  139.8450 C   0  0  0  0  0  1  0  0  0  0  0  0
  181.2170  178.8460  139.5700 C   0  0  1  0  0  3  0  0  0  0  0  0
  178.9310  178.4030  139.8540 N   0  0  0  0  0  1  0  0  0  0  0  0
  180.4000  176.7370  139.9160 O   0  0  0  0  0  1  0  0  0  0  0  0
  180.1190  177.9080  139.2920 N   0  0  0  0  0  0  0  0  0  0  0  0
  181.1950  179.4940  136.3150 C   0  0  0  0  0  2  0  0  0  0  0  0
  181.6460  178.5240  137.1040 C   0  0  0  0  0  3  0  0  0  0  0  0
  2  1  1  1  0  0  0
  2  3  1  0  0  0  0
  3  4  1  0  0  0  0
  5  4  1  6  0  0  0
  5  7  1  0  0  0  0
  5  8  1  0  0  0  0
  7  6  1  0  0  0  0
  9 10  1  0  0  0  0
  9  8  1  0  0  0  0
 10 11  1  0  0  0  0
 12 15  1  0  0  0  0
 14 11  1  6  0  0  0
 14 13  1  0  0  0  0
 15 13  1  0  0  0  0
 15 17  1  6  0  0  0
 16 12  1  0  0  0  0
 16 14  1  0  0  0  0
 18 25  1  6  0  0  0
 18  2  1  0  0  0  0
 19 20  1  0  0  0  0
 19 18  1  1  0  0  0
 22 19  1  0  0  0  0
 23 21  1  6  0  0  0
 23 20  1  0  0  0  0
 24 23  1  0  0  0  0
 24 22  1  0  0  0  0
 25 32  1  6  0  0  0
 25 27  1  0  0  0  0
 27 26  1  6  0  0  0
 30 27  1  0  0  0  0
 30 28  1  0  0  0  0
 30 29  1  0  0  0  0
 31 32  2  0  0  0  0
M  END
>  <MODEL>
8

>  <REMARK>
 VINA RESULT:      -5.9      2.980      8.427
  Name = 
  15 active torsions:
  status: ('A' for Active; 'I' for Inactive)
    1  A    between atoms: C_1  and  C_19
    2  A    between atoms: C_2  and  C_6
    3  A    between atoms: C_2  and  C_7
    4  A    between atoms: C_2  and  C_8
    5  A    between atoms: N_3  and  C_6
    6  A    between atoms: N_3  and  C_31
    7  A    between atoms: C_8  and  C_26
    8  A    between atoms: N_12  and  C_13
    9  A    between atoms: N_12  and  C_16
   10  A    between atoms: C_13  and  C_26
   11  A    between atoms: C_19  and  C_22
   12  A    between atoms: C_19  and  C_31
   13  A    between atoms: N_20  and  C_27
   14  A    between atoms: C_22  and  C_27
   15  A    between atoms: C_22  and  C_30
                            x       y       z     vdW  Elec       q    Type
                         _______ _______ _______ _____ _____    ______ ____

>  <TORSDO>
F 15

$$$$
=
 OpenBabel11042410113D

 32 33  0  0  1  0  0  0  0  0999 V2000
  184.4870  180.1280  139.4450 O   0  0  0  0  0  1  0  0  0  0  0  0
  184.8480  178.8020  139.7200 C   0  0  1  0  0  3  0  0  0  0  0  0
  184.5790  178.4960  141.1260 N   0  0  0  0  0  2  0  0  0  0  0  0
  185.4430  179.2960  141.9900 C   0  0  0  0  0  2  0  0  0  0  0  0
  184.9100  179.2900  143.4150 C   0  0  1  0  0  3  0  0  0  0  0  0
  182.6060  179.0030  144.3210 C   0  0  0  0  0  1  0  0  0  0  0  0
  183.7100  178.3620  143.5040 C   0  0  0  0  0  2  0  0  0  0  0  0
  186.0000  178.8230  144.3700 C   0  0  0  0  0  2  0  0  0  0  0  0
  186.4740  177.4260  144.0080 C   0  0  0  0  0  2  0  0  0  0  0  0
  187.9790  177.4140  143.8300 C   0  0  0  0  0  2  0  0  0  0  0  0
  188.3160  176.6920  142.6170 N   0  0  0  0  0  2  0  0  0  0  0  0
  189.3050  178.1180  139.5520 C   0  0  0  0  0  2  0  0  0  0  0  0
  190.2100  176.7480  141.2520 O   0  0  0  0  0  0  0  0  0  0  0  0
  189.2180  177.5380  141.8530 C   0  0  1  0  0  3  0  0  0  0  0  0
  190.5330  177.4000  140.0530 C   0  0  1  0  0  3  0  0  0  0  0  0
  188.4440  178.2550  140.7710 C   0  0  0  0  0  2  0  0  0  0  0  0
  190.9780  176.3810  139.0230 C   0  0  0  0  0  1  0  0  0  0  0  0
  184.1560  177.8060  138.7600 C   0  0  2  0  0  3  0  0  0  0  0  0
  184.9440  177.5970  137.4440 C   0  0  2  0  0  3  0  0  0  0  0  0
  185.1390  175.8270  137.0310 S   0  0  0  0  0  0  0  0  0  0  0  0
  187.0120  175.4450  135.0730 C   0  0  0  0  0  1  0  0  0  0  0  0
  186.3360  178.1990  137.4800 C   0  0  0  0  0  2  0  0  0  0  0  0
  186.8430  176.0730  136.4390 C   0  0  1  0  0  3  0  0  0  0  0  0
  187.1130  177.5580  136.3600 C   0  0  0  0  0  2  0  0  0  0  0  0
  182.6760  178.2140  138.5350 C   0  0  2  0  0  3  0  0  0  0  0  0
  182.2840  175.9370  139.5760 C   0  0  0  0  0  1  0  0  0  0  0  0
  181.6960  177.3270  139.3190 C   0  0  1  0  0  3  0  0  0  0  0  0
  179.9290  177.6190  140.8350 N   0  0  0  0  0  1  0  0  0  0  0  0
  181.2730  179.3220  140.3570 O   0  0  0  0  0  1  0  0  0  0  0  0
  181.2590  177.9810  140.5610 N   0  0  0  0  0  0  0  0  0  0  0  0
  181.2440  179.0310  136.6990 C   0  0  0  0  0  2  0  0  0  0  0  0
  182.3020  178.3250  137.0820 C   0  0  0  0  0  3  0  0  0  0  0  0
  2  1  1  6  0  0  0
  2  3  1  0  0  0  0
  3  4  1  0  0  0  0
  5  4  1  6  0  0  0
  5  7  1  0  0  0  0
  5  8  1  0  0  0  0
  7  6  1  0  0  0  0
  9  8  1  0  0  0  0
 10  9  1  0  0  0  0
 11 10  1  0  0  0  0
 12 15  1  0  0  0  0
 12 16  1  0  0  0  0
 13 14  1  0  0  0  0
 14 11  1  6  0  0  0
 15 17  1  6  0  0  0
 15 13  1  0  0  0  0
 16 14  1  0  0  0  0
 18 25  1  6  0  0  0
 18  2  1  0  0  0  0
 19 22  1  0  0  0  0
 19 18  1  1  0  0  0
 20 19  1  0  0  0  0
 23 21  1  6  0  0  0
 23 20  1  0  0  0  0
 24 23  1  0  0  0  0
 24 22  1  0  0  0  0
 25 32  1  6  0  0  0
 25 27  1  0  0  0  0
 27 26  1  1  0  0  0
 27 30  1  0  0  0  0
 29 30  1  0  0  0  0
 30 28  1  0  0  0  0
 31 32  2  0  0  0  0
M  END
>  <MODEL>
9

>  <REMARK>
 VINA RESULT:      -5.9      2.776      7.167
  Name = 
  15 active torsions:
  status: ('A' for Active; 'I' for Inactive)
    1  A    between atoms: C_1  and  C_19
    2  A    between atoms: C_2  and  C_6
    3  A    between atoms: C_2  and  C_7
    4  A    between atoms: C_2  and  C_8
    5  A    between atoms: N_3  and  C_6
    6  A    between atoms: N_3  and  C_31
    7  A    between atoms: C_8  and  C_26
    8  A    between atoms: N_12  and  C_13
    9  A    between atoms: N_12  and  C_16
   10  A    between atoms: C_13  and  C_26
   11  A    between atoms: C_19  and  C_22
   12  A    between atoms: C_19  and  C_31
   13  A    between atoms: N_20  and  C_27
   14  A    between atoms: C_22  and  C_27
   15  A    between atoms: C_22  and  C_30
                            x       y       z     vdW  Elec       q    Type
                         _______ _______ _______ _____ _____    ______ ____

>  <TORSDO>
F 15

$$$$
