=
 OpenBabel11032419353D

 31 35  0  0  1  0  0  0  0  0999 V2000
  186.2540  178.2690  143.5860 C   0  0  0  0  0  0  0  0  0  0  0  0
  186.6230  178.4080  142.1550 C   0  0  0  0  0  3  0  0  0  0  0  0
  184.4110  178.5440  145.1970 N   0  0  0  0  0  0  0  0  0  0  0  0
  185.7200  178.6990  141.2080 C   0  0  0  0  0  3  0  0  0  0  0  0
  182.7870  179.1780  143.5540 N   0  0  0  0  0  0  0  0  0  0  0  0
  183.0200  178.9610  145.0000 C   0  0  0  0  0  3  0  0  0  0  0  0
  184.2490  178.8540  141.5150 C   0  0  0  0  0  0  0  0  0  0  0  0
  184.9810  178.5570  143.9130 C   0  0  0  0  0  0  0  0  0  0  0  0
  184.0350  178.9500  142.9590 N   0  0  0  0  0  0  0  0  0  0  0  0
  190.8030  176.6530  144.5640 C   0  0  0  0  0  3  0  0  0  0  0  0
  187.2930  177.8580  144.5720 C   0  0  0  0  0  0  0  0  0  0  0  0
  187.0430  177.8550  145.9560 C   0  0  0  0  0  3  0  0  0  0  0  0
  189.5480  177.0550  145.0190 C   0  0  0  0  0  0  0  0  0  0  0  0
  191.4870  176.2760  146.8520 C   0  0  0  0  0  0  0  0  0  0  0  0
  188.5590  177.4500  144.1170 C   0  0  0  0  0  3  0  0  0  0  0  0
  191.7790  176.2610  145.4810 C   0  0  0  0  0  3  0  0  0  0  0  0
  187.7450  177.4720  148.2280 O   0  0  0  0  0  1  0  0  0  0  0  0
  188.0270  177.4610  146.8680 C   0  0  0  0  0  0  0  0  0  0  0  0
  189.2850  177.0600  146.4050 C   0  0  0  0  0  0  0  0  0  0  0  0
  190.2560  176.6720  147.2780 N   0  0  0  0  0  0  0  0  0  0  0  0
  192.9020  176.6860  148.7600 N   0  0  0  0  0  2  0  0  0  0  0  0
  192.4880  175.8710  147.8450 C   0  0  0  0  0  3  0  0  0  0  0  0
  183.4750  177.6570  140.9630 C   0  0  0  0  0  2  0  0  0  0  0  0
  184.3110  177.9140  137.8530 Cl  0  0  0  0  0  0  0  0  0  0  0  0
  182.0820  179.3480  137.8090 N   0  0  0  0  0  0  0  0  0  0  0  0
  179.9130  180.0100  137.1760 N   0  0  0  0  0  1  0  0  0  0  0  0
  181.2820  178.7900  140.4550 C   0  0  0  0  0  2  0  0  0  0  0  0
  180.8360  179.5180  138.1390 C   0  0  0  0  0  0  0  0  0  0  0  0
  183.0970  178.8650  138.7460 C   0  0  1  0  0  3  0  0  0  0  0  0
  180.3830  179.1750  139.4180 O   0  0  0  0  0  0  0  0  0  0  0  0
  182.4690  178.0310  139.8700 C   0  0  1  0  0  3  0  0  0  0  0  0
  1  8  1  0  0  0  0
  1 11  1  0  0  0  0
  2  1  2  0  0  0  0
  4  7  2  0  0  0  0
  4  2  1  0  0  0  0
  5  6  2  0  0  0  0
  6  3  1  0  0  0  0
  7  9  1  0  0  0  0
  8  3  2  0  0  0  0
  9  5  1  0  0  0  0
  9  8  1  0  0  0  0
 10 13  2  0  0  0  0
 10 16  1  0  0  0  0
 11 12  1  0  0  0  0
 12 18  2  0  0  0  0
 13 19  1  0  0  0  0
 14 20  1  0  0  0  0
 14 22  1  0  0  0  0
 15 11  2  0  0  0  0
 15 13  1  0  0  0  0
 16 14  2  0  0  0  0
 18 17  1  0  0  0  0
 19 18  1  0  0  0  0
 19 20  2  0  0  0  0
 22 21  2  0  0  0  0
 23  7  1  0  0  0  0
 25 28  2  0  0  0  0
 25 29  1  0  0  0  0
 26 28  1  0  0  0  0
 28 30  1  0  0  0  0
 29 24  1  6  0  0  0
 29 31  1  0  0  0  0
 30 27  1  0  0  0  0
 31 27  1  0  0  0  0
 31 23  1  1  0  0  0
M  END
>  <MODEL>
1

>  <REMARK>
 VINA RESULT:      -9.6      0.000      0.000
  Name = 
  4 active torsions:
  status: ('A' for Active; 'I' for Inactive)
    1  A    between atoms: C_3  and  C_5
    2  A    between atoms: C_9  and  C_24
    3  A    between atoms: C_16  and  C_23
    4  A    between atoms: C_16  and  C_30
                            x       y       z     vdW  Elec       q    Type
                         _______ _______ _______ _____ _____    ______ ____

>  <TORSDO>
F 4

$$$$
=
 OpenBabel11032419353D

 31 35  0  0  1  0  0  0  0  0999 V2000
  183.8590  178.7220  142.6220 C   0  0  0  0  0  0  0  0  0  0  0  0
  184.3100  178.9320  141.2230 C   0  0  0  0  0  3  0  0  0  0  0  0
  181.8730  178.6300  144.0750 N   0  0  0  0  0  0  0  0  0  0  0  0
  183.4480  179.0400  140.2020 C   0  0  0  0  0  3  0  0  0  0  0  0
  180.2960  178.9330  142.2970 N   0  0  0  0  0  0  0  0  0  0  0  0
  180.4480  178.7650  143.7600 C   0  0  0  0  0  3  0  0  0  0  0  0
  181.9550  178.9030  140.3880 C   0  0  0  0  0  0  0  0  0  0  0  0
  182.5320  178.7540  142.8410 C   0  0  0  0  0  0  0  0  0  0  0  0
  181.6090  178.9550  141.8080 N   0  0  0  0  0  0  0  0  0  0  0  0
  188.2400  177.0080  144.0820 C   0  0  0  0  0  3  0  0  0  0  0  0
  184.8750  178.5230  143.6940 C   0  0  0  0  0  0  0  0  0  0  0  0
  184.6610  178.9690  145.0110 C   0  0  0  0  0  3  0  0  0  0  0  0
  187.0450  177.6610  144.3830 C   0  0  0  0  0  0  0  0  0  0  0  0
  188.9380  177.2770  146.3820 C   0  0  0  0  0  0  0  0  0  0  0  0
  186.0790  177.8650  143.3950 C   0  0  0  0  0  3  0  0  0  0  0  0
  189.1930  176.8130  145.0830 C   0  0  0  0  0  3  0  0  0  0  0  0
  185.3750  179.2260  147.2970 O   0  0  0  0  0  1  0  0  0  0  0  0
  185.6210  178.7700  146.0070 C   0  0  0  0  0  0  0  0  0  0  0  0
  186.8190  178.1150  145.6990 C   0  0  0  0  0  0  0  0  0  0  0  0
  187.7660  177.9110  146.6560 N   0  0  0  0  0  0  0  0  0  0  0  0
  191.1590  176.8350  147.2060 N   0  0  0  0  0  2  0  0  0  0  0  0
  189.9170  177.0900  147.4580 C   0  0  0  0  0  3  0  0  0  0  0  0
  181.4780  177.5770  139.7940 C   0  0  0  0  0  2  0  0  0  0  0  0
  181.5940  178.8500  136.8270 Cl  0  0  0  0  0  0  0  0  0  0  0  0
  182.6150  176.4610  136.3000 N   0  0  0  0  0  0  0  0  0  0  0  0
  184.1720  174.8560  135.5630 N   0  0  0  0  0  1  0  0  0  0  0  0
  182.7660  175.5740  138.9730 C   0  0  0  0  0  2  0  0  0  0  0  0
  183.4170  175.4800  136.5940 C   0  0  0  0  0  0  0  0  0  0  0  0
  181.7890  177.1420  137.2980 C   0  0  1  0  0  3  0  0  0  0  0  0
  183.5820  175.0660  137.9190 O   0  0  0  0  0  0  0  0  0  0  0  0
  182.4000  177.0290  138.7010 C   0  0  1  0  0  3  0  0  0  0  0  0
  1  8  1  0  0  0  0
  1 11  1  0  0  0  0
  2  1  2  0  0  0  0
  4  7  2  0  0  0  0
  4  2  1  0  0  0  0
  5  6  2  0  0  0  0
  6  3  1  0  0  0  0
  7  9  1  0  0  0  0
  8  3  2  0  0  0  0
  9  5  1  0  0  0  0
  9  8  1  0  0  0  0
 10 13  2  0  0  0  0
 10 16  1  0  0  0  0
 11 12  1  0  0  0  0
 12 18  2  0  0  0  0
 13 19  1  0  0  0  0
 14 20  1  0  0  0  0
 14 22  1  0  0  0  0
 15 11  2  0  0  0  0
 15 13  1  0  0  0  0
 16 14  2  0  0  0  0
 18 17  1  0  0  0  0
 19 18  1  0  0  0  0
 19 20  2  0  0  0  0
 21 22  2  0  0  0  0
 23  7  1  0  0  0  0
 25 28  2  0  0  0  0
 25 29  1  0  0  0  0
 26 28  1  0  0  0  0
 28 30  1  0  0  0  0
 29 24  1  6  0  0  0
 29 31  1  0  0  0  0
 30 27  1  0  0  0  0
 31 27  1  0  0  0  0
 31 23  1  1  0  0  0
M  END
>  <MODEL>
2

>  <REMARK>
 VINA RESULT:      -9.4      2.335      3.181
  Name = 
  4 active torsions:
  status: ('A' for Active; 'I' for Inactive)
    1  A    between atoms: C_3  and  C_5
    2  A    between atoms: C_9  and  C_24
    3  A    between atoms: C_16  and  C_23
    4  A    between atoms: C_16  and  C_30
                            x       y       z     vdW  Elec       q    Type
                         _______ _______ _______ _____ _____    ______ ____

>  <TORSDO>
F 4

$$$$
=
 OpenBabel11032419353D

 31 35  0  0  1  0  0  0  0  0999 V2000
  186.3770  178.2160  142.7350 C   0  0  0  0  0  0  0  0  0  0  0  0
  186.4010  178.5020  141.2780 C   0  0  0  0  0  3  0  0  0  0  0  0
  184.9830  178.3460  144.7600 N   0  0  0  0  0  0  0  0  0  0  0  0
  185.3120  178.9050  140.6100 C   0  0  0  0  0  3  0  0  0  0  0  0
  183.0410  179.1760  143.6280 N   0  0  0  0  0  0  0  0  0  0  0  0
  183.6030  178.8020  144.9460 C   0  0  0  0  0  3  0  0  0  0  0  0
  183.9630  179.0490  141.2760 C   0  0  0  0  0  0  0  0  0  0  0  0
  185.2320  178.4870  143.3850 C   0  0  0  0  0  0  0  0  0  0  0  0
  184.1030  178.9940  142.7310 N   0  0  0  0  0  0  0  0  0  0  0  0
  189.0520  177.4830  146.8050 C   0  0  0  0  0  3  0  0  0  0  0  0
  187.6040  177.6870  143.3950 C   0  0  0  0  0  0  0  0  0  0  0  0
  188.6260  177.0550  142.6640 C   0  0  0  0  0  3  0  0  0  0  0  0
  188.9020  177.3440  145.4260 C   0  0  0  0  0  0  0  0  0  0  0  0
  191.1940  176.3690  146.6610 C   0  0  0  0  0  0  0  0  0  0  0  0
  187.7600  177.8260  144.7840 C   0  0  0  0  0  3  0  0  0  0  0  0
  190.2010  176.9950  147.4290 C   0  0  0  0  0  3  0  0  0  0  0  0
  190.7630  175.9490  142.5420 O   0  0  0  0  0  1  0  0  0  0  0  0
  189.7740  176.5690  143.2960 C   0  0  0  0  0  0  0  0  0  0  0  0
  189.9180  176.7100  144.6810 C   0  0  0  0  0  0  0  0  0  0  0  0
  191.0290  176.2430  145.3160 N   0  0  0  0  0  0  0  0  0  0  0  0
  192.7970  176.2330  148.4550 N   0  0  0  0  0  2  0  0  0  0  0  0
  192.4140  175.8440  147.2830 C   0  0  0  0  0  3  0  0  0  0  0  0
  183.0330  177.9290  140.8100 C   0  0  0  0  0  2  0  0  0  0  0  0
  183.2240  177.9570  137.5840 Cl  0  0  0  0  0  0  0  0  0  0  0  0
  181.2650  179.7140  137.9040 N   0  0  0  0  0  0  0  0  0  0  0  0
  179.1300  180.6810  137.6850 N   0  0  0  0  0  1  0  0  0  0  0  0
  180.9680  179.3690  140.6870 C   0  0  0  0  0  2  0  0  0  0  0  0
  180.1540  180.0840  138.4700 C   0  0  0  0  0  0  0  0  0  0  0  0
  182.3740  179.1110  138.6440 C   0  0  1  0  0  3  0  0  0  0  0  0
  179.9360  179.8550  139.8330 O   0  0  0  0  0  0  0  0  0  0  0  0
  181.8840  178.4190  139.9220 C   0  0  1  0  0  3  0  0  0  0  0  0
  1  8  1  0  0  0  0
  1 11  1  0  0  0  0
  2  1  2  0  0  0  0
  3  6  1  0  0  0  0
  4  7  2  0  0  0  0
  4  2  1  0  0  0  0
  5  6  2  0  0  0  0
  7  9  1  0  0  0  0
  8  3  2  0  0  0  0
  9  8  1  0  0  0  0
  9  5  1  0  0  0  0
 10 16  1  0  0  0  0
 11 15  2  0  0  0  0
 12 18  2  0  0  0  0
 12 11  1  0  0  0  0
 13 10  2  0  0  0  0
 14 22  1  0  0  0  0
 14 16  2  0  0  0  0
 15 13  1  0  0  0  0
 17 18  1  0  0  0  0
 18 19  1  0  0  0  0
 19 20  2  0  0  0  0
 19 13  1  0  0  0  0
 20 14  1  0  0  0  0
 22 21  2  0  0  0  0
 23  7  1  0  0  0  0
 25 28  2  0  0  0  0
 25 29  1  0  0  0  0
 26 28  1  0  0  0  0
 28 30  1  0  0  0  0
 29 24  1  6  0  0  0
 29 31  1  0  0  0  0
 30 27  1  0  0  0  0
 31 27  1  0  0  0  0
 31 23  1  1  0  0  0
M  END
>  <MODEL>
3

>  <REMARK>
 VINA RESULT:      -9.2      1.495      1.909
  Name = 
  4 active torsions:
  status: ('A' for Active; 'I' for Inactive)
    1  A    between atoms: C_3  and  C_5
    2  A    between atoms: C_9  and  C_24
    3  A    between atoms: C_16  and  C_23
    4  A    between atoms: C_16  and  C_30
                            x       y       z     vdW  Elec       q    Type
                         _______ _______ _______ _____ _____    ______ ____

>  <TORSDO>
F 4

$$$$
=
 OpenBabel11032419353D

 31 35  0  0  1  0  0  0  0  0999 V2000
  185.1290  178.4670  142.2770 C   0  0  0  0  0  0  0  0  0  0  0  0
  185.2410  178.7020  140.8160 C   0  0  0  0  0  3  0  0  0  0  0  0
  183.5600  178.4860  144.1760 N   0  0  0  0  0  0  0  0  0  0  0  0
  184.1710  178.9370  140.0440 C   0  0  0  0  0  3  0  0  0  0  0  0
  181.6340  179.0150  142.8540 N   0  0  0  0  0  0  0  0  0  0  0  0
  182.1230  178.7650  144.2290 C   0  0  0  0  0  3  0  0  0  0  0  0
  182.7630  178.9260  140.5920 C   0  0  0  0  0  0  0  0  0  0  0  0
  183.9060  178.6090  142.8200 C   0  0  0  0  0  0  0  0  0  0  0  0
  182.7820  178.9420  142.0540 N   0  0  0  0  0  0  0  0  0  0  0  0
  187.3240  177.5900  146.5980 C   0  0  0  0  0  3  0  0  0  0  0  0
  186.3510  178.1260  143.0580 C   0  0  0  0  0  0  0  0  0  0  0  0
  187.5960  177.9190  142.4350 C   0  0  0  0  0  3  0  0  0  0  0  0
  187.4050  177.7010  145.2110 C   0  0  0  0  0  0  0  0  0  0  0  0
  189.6860  177.0760  146.6730 C   0  0  0  0  0  0  0  0  0  0  0  0
  186.2740  178.0140  144.4560 C   0  0  0  0  0  3  0  0  0  0  0  0
  188.4660  177.2760  147.3360 C   0  0  0  0  0  3  0  0  0  0  0  0
  189.9470  177.4070  142.5320 O   0  0  0  0  0  1  0  0  0  0  0  0
  188.7350  177.6050  143.1810 C   0  0  0  0  0  0  0  0  0  0  0  0
  188.6460  177.4940  144.5730 C   0  0  0  0  0  0  0  0  0  0  0  0
  189.7450  177.1890  145.3180 N   0  0  0  0  0  0  0  0  0  0  0  0
  192.0100  176.4550  146.8080 N   0  0  0  0  0  2  0  0  0  0  0  0
  190.9060  176.7450  147.4160 C   0  0  0  0  0  3  0  0  0  0  0  0
  182.0250  177.6800  140.1040 C   0  0  0  0  0  2  0  0  0  0  0  0
  181.5930  179.1460  137.2570 Cl  0  0  0  0  0  0  0  0  0  0  0  0
  182.1440  176.7010  136.3920 N   0  0  0  0  0  0  0  0  0  0  0  0
  183.2620  174.9880  135.2270 N   0  0  0  0  0  1  0  0  0  0  0  0
  182.8130  175.6090  138.9050 C   0  0  0  0  0  2  0  0  0  0  0  0
  182.8600  175.6170  136.4370 C   0  0  0  0  0  0  0  0  0  0  0  0
  181.6740  177.3960  137.5910 C   0  0  1  0  0  3  0  0  0  0  0  0
  183.2820  175.0900  137.6630 O   0  0  0  0  0  0  0  0  0  0  0  0
  182.5820  177.1130  138.7950 C   0  0  1  0  0  3  0  0  0  0  0  0
  1  8  1  0  0  0  0
  1 11  1  0  0  0  0
  2  1  2  0  0  0  0
  3  6  1  0  0  0  0
  4  7  2  0  0  0  0
  4  2  1  0  0  0  0
  5  6  2  0  0  0  0
  7  9  1  0  0  0  0
  8  3  2  0  0  0  0
  9  8  1  0  0  0  0
  9  5  1  0  0  0  0
 10 16  1  0  0  0  0
 11 15  2  0  0  0  0
 12 11  1  0  0  0  0
 12 18  2  0  0  0  0
 13 10  2  0  0  0  0
 14 16  2  0  0  0  0
 14 22  1  0  0  0  0
 15 13  1  0  0  0  0
 17 18  1  0  0  0  0
 18 19  1  0  0  0  0
 19 13  1  0  0  0  0
 19 20  2  0  0  0  0
 20 14  1  0  0  0  0
 21 22  2  0  0  0  0
 23  7  1  0  0  0  0
 25 28  2  0  0  0  0
 25 29  1  0  0  0  0
 26 28  1  0  0  0  0
 28 30  1  0  0  0  0
 29 24  1  6  0  0  0
 29 31  1  0  0  0  0
 30 27  1  0  0  0  0
 31 27  1  0  0  0  0
 31 23  1  1  0  0  0
M  END
>  <MODEL>
4

>  <REMARK>
 VINA RESULT:      -9.0      2.340      3.051
  Name = 
  4 active torsions:
  status: ('A' for Active; 'I' for Inactive)
    1  A    between atoms: C_3  and  C_5
    2  A    between atoms: C_9  and  C_24
    3  A    between atoms: C_16  and  C_23
    4  A    between atoms: C_16  and  C_30
                            x       y       z     vdW  Elec       q    Type
                         _______ _______ _______ _____ _____    ______ ____

>  <TORSDO>
F 4

$$$$
=
 OpenBabel11032419353D

 31 35  0  0  1  0  0  0  0  0999 V2000
  185.5020  177.9650  143.5500 C   0  0  0  0  0  0  0  0  0  0  0  0
  186.5710  177.1280  142.9500 C   0  0  0  0  0  3  0  0  0  0  0  0
  184.7210  178.9810  145.6530 N   0  0  0  0  0  0  0  0  0  0  0  0
  187.6620  176.7610  143.6370 C   0  0  0  0  0  3  0  0  0  0  0  0
  186.5980  178.2520  146.9510 N   0  0  0  0  0  0  0  0  0  0  0  0
  185.3060  178.9750  146.9960 C   0  0  0  0  0  3  0  0  0  0  0  0
  187.9140  177.2150  145.0550 C   0  0  0  0  0  0  0  0  0  0  0  0
  185.6210  178.2530  144.8580 C   0  0  0  0  0  0  0  0  0  0  0  0
  186.7050  177.8080  145.6250 N   0  0  0  0  0  0  0  0  0  0  0  0
  183.7090  179.2620  139.1490 C   0  0  0  0  0  3  0  0  0  0  0  0
  184.3600  178.4090  142.7010 C   0  0  0  0  0  0  0  0  0  0  0  0
  183.0780  178.6280  143.2380 C   0  0  0  0  0  3  0  0  0  0  0  0
  183.5070  179.0470  140.5120 C   0  0  0  0  0  0  0  0  0  0  0  0
  181.3830  179.8860  138.9270 C   0  0  0  0  0  0  0  0  0  0  0  0
  184.5590  178.6270  141.3280 C   0  0  0  0  0  3  0  0  0  0  0  0
  182.6450  179.6830  138.3500 C   0  0  0  0  0  3  0  0  0  0  0  0
  180.7650  179.2540  142.9950 O   0  0  0  0  0  1  0  0  0  0  0  0
  182.0180  179.0490  142.4300 C   0  0  0  0  0  0  0  0  0  0  0  0
  182.2260  179.2610  141.0630 C   0  0  0  0  0  0  0  0  0  0  0  0
  181.2060  179.6720  140.2590 N   0  0  0  0  0  0  0  0  0  0  0  0
  180.2460  181.4690  137.5090 N   0  0  0  0  0  2  0  0  0  0  0  0
  180.2420  180.3280  138.1180 C   0  0  0  0  0  3  0  0  0  0  0  0
  189.0460  178.2420  145.0790 C   0  0  0  0  0  2  0  0  0  0  0  0
  191.6740  177.0590  143.6170 Cl  0  0  0  0  0  0  0  0  0  0  0  0
  192.0550  176.0580  146.0420 N   0  0  0  0  0  0  0  0  0  0  0  0
  193.1270  175.6310  148.0940 N   0  0  0  0  0  1  0  0  0  0  0  0
  189.9130  177.4020  147.2900 C   0  0  0  0  0  2  0  0  0  0  0  0
  192.0630  176.1910  147.3360 C   0  0  0  0  0  0  0  0  0  0  0  0
  190.9880  176.5870  145.1930 C   0  0  1  0  0  3  0  0  0  0  0  0
  191.0620  176.9210  147.9840 O   0  0  0  0  0  0  0  0  0  0  0  0
  190.2800  177.7750  145.8580 C   0  0  1  0  0  3  0  0  0  0  0  0
  1  8  1  0  0  0  0
  2  1  2  0  0  0  0
  2  4  1  0  0  0  0
  3  6  1  0  0  0  0
  4  7  2  0  0  0  0
  5  6  2  0  0  0  0
  7 23  1  0  0  0  0
  7  9  1  0  0  0  0
  8  9  1  0  0  0  0
  8  3  2  0  0  0  0
  9  5  1  0  0  0  0
 10 13  1  0  0  0  0
 11 12  1  0  0  0  0
 11  1  1  0  0  0  0
 13 19  2  0  0  0  0
 13 15  1  0  0  0  0
 14 20  2  0  0  0  0
 15 11  2  0  0  0  0
 16 14  1  0  0  0  0
 16 10  2  0  0  0  0
 18 17  1  0  0  0  0
 18 12  2  0  0  0  0
 19 18  1  0  0  0  0
 20 19  1  0  0  0  0
 21 22  2  0  0  0  0
 22 14  1  0  0  0  0
 25 28  2  0  0  0  0
 27 30  1  0  0  0  0
 28 30  1  0  0  0  0
 28 26  1  0  0  0  0
 29 24  1  6  0  0  0
 29 31  1  0  0  0  0
 29 25  1  0  0  0  0
 31 23  1  6  0  0  0
 31 27  1  0  0  0  0
M  END
>  <MODEL>
5

>  <REMARK>
 VINA RESULT:      -8.9      2.388      9.733
  Name = 
  4 active torsions:
  status: ('A' for Active; 'I' for Inactive)
    1  A    between atoms: C_3  and  C_5
    2  A    between atoms: C_9  and  C_24
    3  A    between atoms: C_16  and  C_23
    4  A    between atoms: C_16  and  C_30
                            x       y       z     vdW  Elec       q    Type
                         _______ _______ _______ _____ _____    ______ ____

>  <TORSDO>
F 4

$$$$
=
 OpenBabel11032419353D

 31 35  0  0  1  0  0  0  0  0999 V2000
  190.7540  177.1630  140.3610 C   0  0  0  0  0  0  0  0  0  0  0  0
  192.2290  177.3240  140.4190 C   0  0  0  0  0  3  0  0  0  0  0  0
  188.8580  176.7750  138.8390 N   0  0  0  0  0  0  0  0  0  0  0  0
  193.0120  177.1280  139.3490 C   0  0  0  0  0  3  0  0  0  0  0  0
  190.2080  176.5280  136.8760 N   0  0  0  0  0  0  0  0  0  0  0  0
  188.8200  176.5510  137.3910 C   0  0  0  0  0  3  0  0  0  0  0  0
  192.4620  176.6760  138.0170 C   0  0  0  0  0  0  0  0  0  0  0  0
  190.2190  176.9170  139.1520 C   0  0  0  0  0  0  0  0  0  0  0  0
  191.0040  176.7960  137.9980 N   0  0  0  0  0  0  0  0  0  0  0  0
  190.4940  177.2060  145.2800 C   0  0  0  0  0  3  0  0  0  0  0  0
  189.9540  177.3110  141.6100 C   0  0  0  0  0  0  0  0  0  0  0  0
  188.5700  177.5570  141.5790 C   0  0  0  0  0  3  0  0  0  0  0  0
  189.8610  177.3230  144.0430 C   0  0  0  0  0  0  0  0  0  0  0  0
  188.3720  177.5860  146.3750 C   0  0  0  0  0  0  0  0  0  0  0  0
  190.5880  177.1940  142.8580 C   0  0  0  0  0  3  0  0  0  0  0  0
  189.7500  177.3380  146.4530 C   0  0  0  0  0  3  0  0  0  0  0  0
  186.4660  177.9320  142.6910 O   0  0  0  0  0  1  0  0  0  0  0  0
  187.8320  177.6880  142.7590 C   0  0  0  0  0  0  0  0  0  0  0  0
  188.4740  177.5720  143.9980 C   0  0  0  0  0  0  0  0  0  0  0  0
  187.7720  177.6960  145.1590 N   0  0  0  0  0  0  0  0  0  0  0  0
  188.0950  177.9900  148.7350 N   0  0  0  0  0  2  0  0  0  0  0  0
  187.5590  177.7300  147.5870 C   0  0  0  0  0  3  0  0  0  0  0  0
  192.8580  175.2230  137.7560 C   0  0  0  0  0  2  0  0  0  0  0  0
  195.1400  173.1130  138.6390 Cl  0  0  0  0  0  0  0  0  0  0  0  0
  196.6290  174.7610  137.1910 N   0  0  0  0  0  0  0  0  0  0  0  0
  198.0880  175.4710  135.4860 N   0  0  0  0  0  1  0  0  0  0  0  0
  194.5090  176.3480  136.2210 C   0  0  0  0  0  2  0  0  0  0  0  0
  196.8160  175.4770  136.1220 C   0  0  0  0  0  0  0  0  0  0  0  0
  195.3580  174.7270  137.9150 C   0  0  1  0  0  3  0  0  0  0  0  0
  195.7660  176.2130  135.5630 O   0  0  0  0  0  0  0  0  0  0  0  0
  194.1800  175.0770  136.9960 C   0  0  1  0  0  3  0  0  0  0  0  0
  1  2  2  0  0  0  0
  1 11  1  0  0  0  0
  3  8  2  0  0  0  0
  4  2  1  0  0  0  0
  5  6  2  0  0  0  0
  5  9  1  0  0  0  0
  6  3  1  0  0  0  0
  7  4  2  0  0  0  0
  8  1  1  0  0  0  0
  9  7  1  0  0  0  0
  9  8  1  0  0  0  0
 10 16  1  0  0  0  0
 11 15  2  0  0  0  0
 12 11  1  0  0  0  0
 12 18  2  0  0  0  0
 13 10  2  0  0  0  0
 14 16  2  0  0  0  0
 14 22  1  0  0  0  0
 15 13  1  0  0  0  0
 17 18  1  0  0  0  0
 18 19  1  0  0  0  0
 19 13  1  0  0  0  0
 19 20  2  0  0  0  0
 20 14  1  0  0  0  0
 22 21  2  0  0  0  0
 23  7  1  0  0  0  0
 25 29  1  0  0  0  0
 26 28  1  0  0  0  0
 27 31  1  0  0  0  0
 28 25  2  0  0  0  0
 29 24  1  6  0  0  0
 30 28  1  0  0  0  0
 30 27  1  0  0  0  0
 31 23  1  1  0  0  0
 31 29  1  0  0  0  0
M  END
>  <MODEL>
6

>  <REMARK>
 VINA RESULT:      -8.7      7.050      9.302
  Name = 
  4 active torsions:
  status: ('A' for Active; 'I' for Inactive)
    1  A    between atoms: C_3  and  C_5
    2  A    between atoms: C_9  and  C_24
    3  A    between atoms: C_16  and  C_23
    4  A    between atoms: C_16  and  C_30
                            x       y       z     vdW  Elec       q    Type
                         _______ _______ _______ _____ _____    ______ ____

>  <TORSDO>
F 4

$$$$
=
 OpenBabel11032419353D

 31 35  0  0  1  0  0  0  0  0999 V2000
  190.9170  177.1400  140.4830 C   0  0  0  0  0  0  0  0  0  0  0  0
  192.3920  177.3100  140.4630 C   0  0  0  0  0  3  0  0  0  0  0  0
  188.9440  176.7510  139.0610 N   0  0  0  0  0  0  0  0  0  0  0  0
  193.1180  177.1270  139.3520 C   0  0  0  0  0  3  0  0  0  0  0  0
  190.1900  176.5280  137.0270 N   0  0  0  0  0  0  0  0  0  0  0  0
  188.8310  176.5390  137.6160 C   0  0  0  0  0  3  0  0  0  0  0  0
  192.5000  176.6830  138.0470 C   0  0  0  0  0  0  0  0  0  0  0  0
  190.3200  176.9000  139.3020 C   0  0  0  0  0  0  0  0  0  0  0  0
  191.0430  176.7930  138.1080 N   0  0  0  0  0  0  0  0  0  0  0  0
  186.7160  177.8780  142.9470 C   0  0  0  0  0  3  0  0  0  0  0  0
  190.1840  177.2720  141.7740 C   0  0  0  0  0  0  0  0  0  0  0  0
  190.8420  177.1760  143.0140 C   0  0  0  0  0  3  0  0  0  0  0  0
  188.0910  177.6430  142.9610 C   0  0  0  0  0  0  0  0  0  0  0  0
  186.7210  177.9040  145.3650 C   0  0  0  0  0  0  0  0  0  0  0  0
  188.7990  177.5100  141.7650 C   0  0  0  0  0  3  0  0  0  0  0  0
  186.0250  178.0100  144.1520 C   0  0  0  0  0  3  0  0  0  0  0  0
  190.8250  177.2070  145.4220 O   0  0  0  0  0  1  0  0  0  0  0  0
  190.1420  177.3090  144.2170 C   0  0  0  0  0  0  0  0  0  0  0  0
  188.7620  177.5430  144.1960 C   0  0  0  0  0  0  0  0  0  0  0  0
  188.0620  177.6750  145.3580 N   0  0  0  0  0  0  0  0  0  0  0  0
  184.8810  178.6270  146.7430 N   0  0  0  0  0  2  0  0  0  0  0  0
  186.0270  178.0360  146.6510 C   0  0  0  0  0  3  0  0  0  0  0  0
  192.8910  175.2340  137.7540 C   0  0  0  0  0  2  0  0  0  0  0  0
  195.2910  173.2980  138.7190 Cl  0  0  0  0  0  0  0  0  0  0  0  0
  196.6680  174.9150  137.1320 N   0  0  0  0  0  0  0  0  0  0  0  0
  198.0550  175.5800  135.3510 N   0  0  0  0  0  1  0  0  0  0  0  0
  194.4540  176.3330  136.1110 C   0  0  0  0  0  2  0  0  0  0  0  0
  196.7980  175.5670  136.0150 C   0  0  0  0  0  0  0  0  0  0  0  0
  195.4150  174.8700  137.8870 C   0  0  1  0  0  3  0  0  0  0  0  0
  195.7030  176.2140  135.4340 O   0  0  0  0  0  0  0  0  0  0  0  0
  194.2030  175.1010  136.9750 C   0  0  1  0  0  3  0  0  0  0  0  0
  1 11  1  0  0  0  0
  2  1  2  0  0  0  0
  3  8  2  0  0  0  0
  4  2  1  0  0  0  0
  5  6  2  0  0  0  0
  5  9  1  0  0  0  0
  6  3  1  0  0  0  0
  7  9  1  0  0  0  0
  7  4  2  0  0  0  0
  8  1  1  0  0  0  0
  9  8  1  0  0  0  0
 10 13  2  0  0  0  0
 10 16  1  0  0  0  0
 11 12  1  0  0  0  0
 12 18  2  0  0  0  0
 13 19  1  0  0  0  0
 14 22  1  0  0  0  0
 15 11  2  0  0  0  0
 15 13  1  0  0  0  0
 16 14  2  0  0  0  0
 18 17  1  0  0  0  0
 19 18  1  0  0  0  0
 19 20  2  0  0  0  0
 20 14  1  0  0  0  0
 22 21  2  0  0  0  0
 23  7  1  0  0  0  0
 25 29  1  0  0  0  0
 26 28  1  0  0  0  0
 27 31  1  0  0  0  0
 28 25  2  0  0  0  0
 29 24  1  6  0  0  0
 30 28  1  0  0  0  0
 30 27  1  0  0  0  0
 31 23  1  1  0  0  0
 31 29  1  0  0  0  0
M  END
>  <MODEL>
7

>  <REMARK>
 VINA RESULT:      -8.6      7.013      9.497
  Name = 
  4 active torsions:
  status: ('A' for Active; 'I' for Inactive)
    1  A    between atoms: C_3  and  C_5
    2  A    between atoms: C_9  and  C_24
    3  A    between atoms: C_16  and  C_23
    4  A    between atoms: C_16  and  C_30
                            x       y       z     vdW  Elec       q    Type
                         _______ _______ _______ _____ _____    ______ ____

>  <TORSDO>
F 4

$$$$
=
 OpenBabel11032419353D

 31 35  0  0  1  0  0  0  0  0999 V2000
  190.9580  177.3240  143.1830 C   0  0  0  0  0  0  0  0  0  0  0  0
  190.4070  178.5330  143.8460 C   0  0  0  0  0  3  0  0  0  0  0  0
  192.0570  175.1600  143.5980 N   0  0  0  0  0  0  0  0  0  0  0  0
  190.2950  178.6300  145.1780 C   0  0  0  0  0  3  0  0  0  0  0  0
  191.9810  175.3380  145.9860 N   0  0  0  0  0  0  0  0  0  0  0  0
  192.4300  174.4990  144.8520 C   0  0  0  0  0  3  0  0  0  0  0  0
  190.6690  177.4980  146.1050 C   0  0  0  0  0  0  0  0  0  0  0  0
  191.4470  176.3630  143.9870 C   0  0  0  0  0  0  0  0  0  0  0  0
  191.4260  176.4750  145.3830 N   0  0  0  0  0  0  0  0  0  0  0  0
  188.5340  177.1050  138.9010 C   0  0  0  0  0  3  0  0  0  0  0  0
  190.9710  177.2500  141.6950 C   0  0  0  0  0  0  0  0  0  0  0  0
  192.1730  177.2040  140.9650 C   0  0  0  0  0  3  0  0  0  0  0  0
  189.7420  177.1390  139.5960 C   0  0  0  0  0  0  0  0  0  0  0  0
  189.7620  176.9880  136.8200 C   0  0  0  0  0  0  0  0  0  0  0  0
  189.7570  177.2140  140.9900 C   0  0  0  0  0  3  0  0  0  0  0  0
  188.5400  177.0290  137.5070 C   0  0  0  0  0  3  0  0  0  0  0  0
  193.3770  177.0860  138.8820 O   0  0  0  0  0  1  0  0  0  0  0  0
  192.1700  177.1280  139.5690 C   0  0  0  0  0  0  0  0  0  0  0  0
  190.9550  177.0960  138.8770 C   0  0  0  0  0  0  0  0  0  0  0  0
  190.9310  177.0220  137.5170 N   0  0  0  0  0  0  0  0  0  0  0  0
  188.8640  177.4060  134.6230 N   0  0  0  0  0  2  0  0  0  0  0  0
  189.8060  176.9090  135.3570 C   0  0  0  0  0  3  0  0  0  0  0  0
  189.4070  176.8750  146.7000 C   0  0  0  0  0  2  0  0  0  0  0  0
  187.9360  178.6310  148.9790 Cl  0  0  0  0  0  0  0  0  0  0  0  0
  185.9170  178.3690  147.2820 N   0  0  0  0  0  0  0  0  0  0  0  0
  184.1870  179.0050  145.8170 N   0  0  0  0  0  1  0  0  0  0  0  0
  187.3830  177.1220  145.2200 C   0  0  0  0  0  2  0  0  0  0  0  0
  185.4430  178.3880  146.0710 C   0  0  0  0  0  0  0  0  0  0  0  0
  187.1900  177.7380  147.6290 C   0  0  1  0  0  3  0  0  0  0  0  0
  186.1780  177.8540  145.0080 O   0  0  0  0  0  0  0  0  0  0  0  0
  188.1360  177.6830  146.4220 C   0  0  1  0  0  3  0  0  0  0  0  0
  1  2  2  0  0  0  0
  1  8  1  0  0  0  0
  2  4  1  0  0  0  0
  3  8  2  0  0  0  0
  3  6  1  0  0  0  0
  4  7  2  0  0  0  0
  6  5  2  0  0  0  0
  7 23  1  0  0  0  0
  8  9  1  0  0  0  0
  9  5  1  0  0  0  0
  9  7  1  0  0  0  0
 10 13  1  0  0  0  0
 11  1  1  0  0  0  0
 12 11  2  0  0  0  0
 13 15  2  0  0  0  0
 14 16  1  0  0  0  0
 14 20  2  0  0  0  0
 15 11  1  0  0  0  0
 16 10  2  0  0  0  0
 17 18  1  0  0  0  0
 18 12  1  0  0  0  0
 19 18  2  0  0  0  0
 19 13  1  0  0  0  0
 20 19  1  0  0  0  0
 21 22  2  0  0  0  0
 22 14  1  0  0  0  0
 25 29  1  0  0  0  0
 26 28  1  0  0  0  0
 27 31  1  0  0  0  0
 28 25  2  0  0  0  0
 29 24  1  1  0  0  0
 30 27  1  0  0  0  0
 30 28  1  0  0  0  0
 31 23  1  1  0  0  0
 31 29  1  0  0  0  0
M  END
>  <MODEL>
8

>  <REMARK>
 VINA RESULT:      -8.5      4.801      8.780
  Name = 
  4 active torsions:
  status: ('A' for Active; 'I' for Inactive)
    1  A    between atoms: C_3  and  C_5
    2  A    between atoms: C_9  and  C_24
    3  A    between atoms: C_16  and  C_23
    4  A    between atoms: C_16  and  C_30
                            x       y       z     vdW  Elec       q    Type
                         _______ _______ _______ _____ _____    ______ ____

>  <TORSDO>
F 4

$$$$
=
 OpenBabel11032419353D

 31 35  0  0  1  0  0  0  0  0999 V2000
  190.2230  177.3180  139.8380 C   0  0  0  0  0  0  0  0  0  0  0  0
  191.6520  177.4430  140.2200 C   0  0  0  0  0  3  0  0  0  0  0  0
  188.7060  176.8550  137.9540 N   0  0  0  0  0  0  0  0  0  0  0  0
  192.6480  177.1380  139.3770 C   0  0  0  0  0  3  0  0  0  0  0  0
  190.4550  176.4090  136.3780 N   0  0  0  0  0  0  0  0  0  0  0  0
  188.9880  176.5120  136.5580 C   0  0  0  0  0  3  0  0  0  0  0  0
  192.3950  176.5920  137.9920 C   0  0  0  0  0  0  0  0  0  0  0  0
  189.9660  176.9860  138.5600 C   0  0  0  0  0  0  0  0  0  0  0  0
  190.9860  176.7480  137.6300 N   0  0  0  0  0  0  0  0  0  0  0  0
  188.5560  176.9520  144.4580 C   0  0  0  0  0  3  0  0  0  0  0  0
  189.1690  177.5910  140.8550 C   0  0  0  0  0  0  0  0  0  0  0  0
  187.9830  178.2730  140.5290 C   0  0  0  0  0  3  0  0  0  0  0  0
  188.3740  177.3890  143.1470 C   0  0  0  0  0  0  0  0  0  0  0  0
  186.4040  177.8850  145.0450 C   0  0  0  0  0  0  0  0  0  0  0  0
  189.3490  177.1510  142.1770 C   0  0  0  0  0  3  0  0  0  0  0  0
  187.5700  177.1980  145.4140 C   0  0  0  0  0  3  0  0  0  0  0  0
  185.8410  179.1940  141.1340 O   0  0  0  0  0  1  0  0  0  0  0  0
  187.0000  178.5160  141.4920 C   0  0  0  0  0  0  0  0  0  0  0  0
  187.1900  178.0760  142.8070 C   0  0  0  0  0  0  0  0  0  0  0  0
  186.2440  178.3030  143.7600 N   0  0  0  0  0  0  0  0  0  0  0  0
  185.5100  179.0300  146.9680 N   0  0  0  0  0  2  0  0  0  0  0  0
  185.3470  178.1620  146.0230 C   0  0  0  0  0  3  0  0  0  0  0  0
  192.7740  175.1120  137.9390 C   0  0  0  0  0  2  0  0  0  0  0  0
  195.0830  172.9900  138.7180 Cl  0  0  0  0  0  0  0  0  0  0  0  0
  196.4010  174.3970  136.8980 N   0  0  0  0  0  0  0  0  0  0  0  0
  197.6170  174.8470  134.9330 N   0  0  0  0  0  1  0  0  0  0  0  0
  194.2210  175.9820  136.0690 C   0  0  0  0  0  2  0  0  0  0  0  0
  196.4550  174.9860  135.7400 C   0  0  0  0  0  0  0  0  0  0  0  0
  195.2510  174.5060  137.7950 C   0  0  1  0  0  3  0  0  0  0  0  0
  195.3610  175.7130  135.2570 O   0  0  0  0  0  0  0  0  0  0  0  0
  193.9630  174.8180  137.0200 C   0  0  1  0  0  3  0  0  0  0  0  0
  1  2  2  0  0  0  0
  1 11  1  0  0  0  0
  3  8  2  0  0  0  0
  4  2  1  0  0  0  0
  5  6  2  0  0  0  0
  5  9  1  0  0  0  0
  6  3  1  0  0  0  0
  7  4  2  0  0  0  0
  8  1  1  0  0  0  0
  9  7  1  0  0  0  0
  9  8  1  0  0  0  0
 10 16  1  0  0  0  0
 11 15  2  0  0  0  0
 12 11  1  0  0  0  0
 12 18  2  0  0  0  0
 13 10  2  0  0  0  0
 14 16  2  0  0  0  0
 14 22  1  0  0  0  0
 15 13  1  0  0  0  0
 17 18  1  0  0  0  0
 18 19  1  0  0  0  0
 19 13  1  0  0  0  0
 19 20  2  0  0  0  0
 20 14  1  0  0  0  0
 22 21  2  0  0  0  0
 23  7  1  0  0  0  0
 25 29  1  0  0  0  0
 26 28  1  0  0  0  0
 27 31  1  0  0  0  0
 28 25  2  0  0  0  0
 29 24  1  6  0  0  0
 30 28  1  0  0  0  0
 30 27  1  0  0  0  0
 31 29  1  0  0  0  0
 31 23  1  1  0  0  0
M  END
>  <MODEL>
9

>  <REMARK>
 VINA RESULT:      -8.5      7.136      9.620
  Name = 
  4 active torsions:
  status: ('A' for Active; 'I' for Inactive)
    1  A    between atoms: C_3  and  C_5
    2  A    between atoms: C_9  and  C_24
    3  A    between atoms: C_16  and  C_23
    4  A    between atoms: C_16  and  C_30
                            x       y       z     vdW  Elec       q    Type
                         _______ _______ _______ _____ _____    ______ ____

>  <TORSDO>
F 4

$$$$
