=
 OpenBabel11042413093D

 32 35  0  0  1  0  0  0  0  0999 V2000
  191.5630  176.7330  138.9750 C   0  0  0  0  0  2  0  0  0  0  0  0
  188.1340  177.6440  138.7770 N   0  0  0  0  0  0  0  0  0  0  0  0
  190.4450  175.3430  137.4320 N   0  0  0  0  0  2  0  0  0  0  0  0
  187.5270  176.0930  137.0740 O   0  0  0  0  0  0  0  0  0  0  0  0
  191.7790  175.6080  137.9840 C   0  0  1  0  0  3  0  0  0  0  0  0
  188.3330  176.4900  137.9560 C   0  0  0  0  0  0  0  0  0  0  0  0
  189.3600  177.9130  139.5540 C   0  0  2  0  0  3  0  0  0  0  0  0
  189.6280  175.9300  138.2310 C   0  0  2  0  0  3  0  0  0  0  0  0
  190.2590  176.7780  139.1610 C   0  0  1  0  0  3  0  0  0  0  0  0
  191.0830  177.4540  145.0720 C   0  0  0  0  0  1  0  0  0  0  0  0
  191.3210  177.7440  141.9850 O   0  0  0  0  0  0  0  0  0  0  0  0
  189.6520  177.5540  144.6610 C   0  0  0  0  0  0  0  0  0  0  0  0
  186.9410  177.7160  143.8330 C   0  0  0  0  0  3  0  0  0  0  0  0
  187.2600  177.5740  145.1950 C   0  0  0  0  0  0  0  0  0  0  0  0
  190.0670  177.7730  142.0990 C   0  0  0  0  0  0  0  0  0  0  0  0
  187.9860  177.7780  142.9150 C   0  0  0  0  0  0  0  0  0  0  0  0
  188.6120  177.4930  145.6130 C   0  0  0  0  0  0  0  0  0  0  0  0
  187.8650  177.8860  141.4960 N   0  0  0  0  0  0  0  0  0  0  0  0
  188.9150  177.3500  146.9640 O   0  0  0  0  0  1  0  0  0  0  0  0
  189.0750  177.8910  141.0240 C   0  0  0  0  0  0  0  0  0  0  0  0
  186.1530  177.5040  146.1890 C   0  0  0  0  0  1  0  0  0  0  0  0
  189.2960  177.7010  143.3200 C   0  0  0  0  0  0  0  0  0  0  0  0
  193.9010  176.6790  137.2360 O   0  0  0  0  0  1  0  0  0  0  0  0
  192.7240  176.0230  136.9030 C   0  0  0  0  0  0  0  0  0  0  0  0
  192.4550  175.7970  135.6930 O   0  0  0  0  0  0  0  0  0  0  0  0
  187.0860  178.6300  138.5460 C   0  0  0  0  0  2  0  0  0  0  0  0
  185.7110  178.0000  138.7160 C   0  0  0  0  0  2  0  0  0  0  0  0
  184.5470  180.0500  139.2140 O   0  0  0  0  0  1  0  0  0  0  0  0
  184.8600  178.7820  139.7090 C   0  0  1  0  0  3  0  0  0  0  0  0
  183.5840  178.0250  140.0720 C   0  0  0  0  0  2  0  0  0  0  0  0
  183.7690  178.6260  142.4890 C   0  0  0  0  0  1  0  0  0  0  0  0
  182.8610  178.6230  141.2750 C   0  0  0  0  0  2  0  0  0  0  0  0
  2  7  1  0  0  0  0
  3  5  1  0  0  0  0
  4  6  2  0  0  0  0
  5 24  1  6  0  0  0
  5  1  1  0  0  0  0
  6  8  1  0  0  0  0
  6  2  1  0  0  0  0
  7 20  1  1  0  0  0
  8  3  1  6  0  0  0
  8  9  1  0  0  0  0
  9  1  1  6  0  0  0
  9  7  1  0  0  0  0
 11 15  2  0  0  0  0
 12 10  1  0  0  0  0
 12 17  1  0  0  0  0
 13 14  1  0  0  0  0
 14 17  2  0  0  0  0
 14 21  1  0  0  0  0
 15 22  1  0  0  0  0
 16 22  1  0  0  0  0
 16 13  2  0  0  0  0
 17 19  1  0  0  0  0
 18 16  1  0  0  0  0
 20 18  2  0  0  0  0
 20 15  1  0  0  0  0
 22 12  2  0  0  0  0
 24 23  1  0  0  0  0
 25 24  2  0  0  0  0
 26 27  1  0  0  0  0
 26  2  1  0  0  0  0
 27 29  1  0  0  0  0
 29 28  1  6  0  0  0
 29 30  1  0  0  0  0
 30 32  1  0  0  0  0
 32 31  1  0  0  0  0
M  END
>  <MODEL>
1

>  <REMARK>
 VINA RESULT:      -8.2      0.000      0.000
  Name = 
  7 active torsions:
  status: ('A' for Active; 'I' for Inactive)
    1  A    between atoms: C_5  and  N_9
    2  A    between atoms: C_5  and  C_25
    3  A    between atoms: C_8  and  C_18
    4  A    between atoms: C_8  and  C_29
    5  A    between atoms: CA_19  and  C_23
    6  A    between atoms: C_22  and  C_30
    7  A    between atoms: C_25  and  C_29
                            x       y       z     vdW  Elec       q    Type
                         _______ _______ _______ _____ _____    ______ ____

>  <TORSDO>
F 7

$$$$
=
 OpenBabel11042413093D

 32 35  0  0  1  0  0  0  0  0999 V2000
  189.1090  177.8630  143.7760 C   0  0  0  0  0  2  0  0  0  0  0  0
  188.8990  177.9940  140.2320 N   0  0  0  0  0  0  0  0  0  0  0  0
  190.3430  176.0910  142.8270 N   0  0  0  0  0  2  0  0  0  0  0  0
  190.3500  176.1560  139.7930 O   0  0  0  0  0  0  0  0  0  0  0  0
  190.0140  176.6980  144.1220 C   0  0  1  0  0  3  0  0  0  0  0  0
  189.6310  176.8190  140.5870 C   0  0  0  0  0  0  0  0  0  0  0  0
  188.3330  178.6090  141.4480 C   0  0  2  0  0  3  0  0  0  0  0  0
  189.4940  176.5840  141.9980 C   0  0  2  0  0  3  0  0  0  0  0  0
  188.7440  177.6520  142.5270 C   0  0  1  0  0  3  0  0  0  0  0  0
  183.0630  178.6530  143.8680 C   0  0  0  0  0  1  0  0  0  0  0  0
  186.1690  178.6870  143.7050 O   0  0  0  0  0  0  0  0  0  0  0  0
  183.2930  178.6870  142.3950 C   0  0  0  0  0  0  0  0  0  0  0  0
  183.7760  178.7200  139.5970 C   0  0  0  0  0  3  0  0  0  0  0  0
  182.4600  178.7000  140.0900 C   0  0  0  0  0  0  0  0  0  0  0  0
  185.8970  178.6980  142.4750 C   0  0  0  0  0  0  0  0  0  0  0  0
  184.8230  178.7280  140.5150 C   0  0  0  0  0  0  0  0  0  0  0  0
  182.2140  178.6840  141.4860 C   0  0  0  0  0  0  0  0  0  0  0  0
  186.2190  178.7130  140.2120 N   0  0  0  0  0  0  0  0  0  0  0  0
  180.9060  178.6610  141.9610 O   0  0  0  0  0  1  0  0  0  0  0  0
  186.8410  178.7040  141.3520 C   0  0  0  0  0  0  0  0  0  0  0  0
  181.3290  178.6900  139.1200 C   0  0  0  0  0  1  0  0  0  0  0  0
  184.5850  178.7130  141.8680 C   0  0  0  0  0  0  0  0  0  0  0  0
  191.8240  176.3860  145.8060 O   0  0  0  0  0  1  0  0  0  0  0  0
  191.2510  177.1700  144.8130 C   0  0  0  0  0  0  0  0  0  0  0  0
  191.7710  178.2780  144.5150 O   0  0  0  0  0  0  0  0  0  0  0  0
  189.0680  178.7000  138.9670 C   0  0  0  0  0  2  0  0  0  0  0  0
  188.7190  177.7930  137.7960 C   0  0  0  0  0  2  0  0  0  0  0  0
  187.6720  179.7430  136.8460 O   0  0  0  0  0  1  0  0  0  0  0  0
  187.5620  178.3570  136.9810 C   0  0  1  0  0  3  0  0  0  0  0  0
  187.4680  177.6960  135.6070 C   0  0  0  0  0  2  0  0  0  0  0  0
  185.2320  177.1030  136.5450 C   0  0  0  0  0  1  0  0  0  0  0  0
  186.0640  177.2000  135.2820 C   0  0  0  0  0  2  0  0  0  0  0  0
  1  5  1  0  0  0  0
  2  6  1  0  0  0  0
  2  7  1  0  0  0  0
  3  5  1  0  0  0  0
  4  6  2  0  0  0  0
  5 24  1  6  0  0  0
  7 20  1  6  0  0  0
  7  9  1  0  0  0  0
  8  6  1  6  0  0  0
  8  9  1  0  0  0  0
  8  3  1  0  0  0  0
  9  1  1  1  0  0  0
 12 10  1  0  0  0  0
 13 14  2  0  0  0  0
 13 16  1  0  0  0  0
 14 17  1  0  0  0  0
 15 11  2  0  0  0  0
 16 22  2  0  0  0  0
 17 19  1  0  0  0  0
 17 12  2  0  0  0  0
 18 16  1  0  0  0  0
 18 20  2  0  0  0  0
 20 15  1  0  0  0  0
 21 14  1  0  0  0  0
 22 12  1  0  0  0  0
 22 15  1  0  0  0  0
 24 23  1  0  0  0  0
 25 24  2  0  0  0  0
 26  2  1  0  0  0  0
 27 26  1  0  0  0  0
 29 28  1  6  0  0  0
 29 27  1  0  0  0  0
 30 29  1  0  0  0  0
 32 30  1  0  0  0  0
 32 31  1  0  0  0  0
M  END
>  <MODEL>
2

>  <REMARK>
 VINA RESULT:      -7.9      2.510      5.806
  Name = 
  7 active torsions:
  status: ('A' for Active; 'I' for Inactive)
    1  A    between atoms: C_5  and  N_9
    2  A    between atoms: C_5  and  C_25
    3  A    between atoms: C_8  and  C_18
    4  A    between atoms: C_8  and  C_29
    5  A    between atoms: CA_19  and  C_23
    6  A    between atoms: C_22  and  C_30
    7  A    between atoms: C_25  and  C_29
                            x       y       z     vdW  Elec       q    Type
                         _______ _______ _______ _____ _____    ______ ____

>  <TORSDO>
F 7

$$$$
=
 OpenBabel11042413093D

 32 35  0  0  1  0  0  0  0  0999 V2000
  185.8530  178.7250  141.9330 C   0  0  0  0  0  2  0  0  0  0  0  0
  189.1150  178.0850  143.1870 N   0  0  0  0  0  0  0  0  0  0  0  0
  185.7190  177.5200  143.9560 N   0  0  0  0  0  2  0  0  0  0  0  0
  188.4390  177.0100  145.2030 O   0  0  0  0  0  0  0  0  0  0  0  0
  184.8730  178.1550  142.9380 C   0  0  1  0  0  3  0  0  0  0  0  0
  188.1760  177.4320  144.0450 C   0  0  0  0  0  0  0  0  0  0  0  0
  188.4140  178.6100  141.9990 C   0  0  2  0  0  3  0  0  0  0  0  0
  186.8830  177.4300  143.4190 C   0  0  2  0  0  3  0  0  0  0  0  0
  187.0040  178.1470  142.2130 C   0  0  1  0  0  3  0  0  0  0  0  0
  188.1630  177.5320  136.3070 C   0  0  0  0  0  1  0  0  0  0  0  0
  187.3800  178.7670  139.0510 O   0  0  0  0  0  0  0  0  0  0  0  0
  189.2400  177.0100  137.1970 C   0  0  0  0  0  0  0  0  0  0  0  0
  191.2540  176.0140  138.9330 C   0  0  0  0  0  3  0  0  0  0  0  0
  191.2590  175.6720  137.5700 C   0  0  0  0  0  0  0  0  0  0  0  0
  188.4080  178.1270  139.3980 C   0  0  0  0  0  0  0  0  0  0  0  0
  190.2440  176.8520  139.3980 C   0  0  0  0  0  0  0  0  0  0  0  0
  190.2560  176.1670  136.7000 C   0  0  0  0  0  0  0  0  0  0  0  0
  190.0510  177.2830  140.7460 N   0  0  0  0  0  0  0  0  0  0  0  0
  190.2700  175.8180  135.3520 O   0  0  0  0  0  1  0  0  0  0  0  0
  188.9880  178.0300  140.7430 C   0  0  0  0  0  0  0  0  0  0  0  0
  192.3330  174.7740  137.0580 C   0  0  0  0  0  1  0  0  0  0  0  0
  189.2720  177.3330  138.5540 C   0  0  0  0  0  0  0  0  0  0  0  0
  182.6660  179.2370  143.3480 O   0  0  0  0  0  0  0  0  0  0  0  0
  184.0410  179.2370  143.5450 C   0  0  0  0  0  0  0  0  0  0  0  0
  184.5750  180.1570  144.2200 O   0  0  0  0  0  1  0  0  0  0  0  0
  190.4280  178.5430  143.6250 C   0  0  0  0  0  2  0  0  0  0  0  0
  191.4780  177.4670  143.3880 C   0  0  0  0  0  2  0  0  0  0  0  0
  192.0430  175.1920  143.9420 O   0  0  0  0  0  1  0  0  0  0  0  0
  191.3160  176.3080  144.3630 C   0  0  1  0  0  3  0  0  0  0  0  0
  191.7260  176.7050  145.7800 C   0  0  0  0  0  2  0  0  0  0  0  0
  192.4990  175.9620  148.0350 C   0  0  0  0  0  1  0  0  0  0  0  0
  192.1610  175.5140  146.6270 C   0  0  0  0  0  2  0  0  0  0  0  0
  1  5  1  0  0  0  0
  2 26  1  0  0  0  0
  2  6  1  0  0  0  0
  5 24  1  1  0  0  0
  5  3  1  0  0  0  0
  6  4  2  0  0  0  0
  7 20  1  6  0  0  0
  7  9  1  0  0  0  0
  7  2  1  0  0  0  0
  8  3  1  1  0  0  0
  8  6  1  0  0  0  0
  9  1  1  1  0  0  0
  9  8  1  0  0  0  0
 10 12  1  0  0  0  0
 11 15  2  0  0  0  0
 12 22  1  0  0  0  0
 13 16  1  0  0  0  0
 14 13  2  0  0  0  0
 15 20  1  0  0  0  0
 16 18  1  0  0  0  0
 17 12  2  0  0  0  0
 17 14  1  0  0  0  0
 19 17  1  0  0  0  0
 20 18  2  0  0  0  0
 21 14  1  0  0  0  0
 22 16  2  0  0  0  0
 22 15  1  0  0  0  0
 23 24  2  0  0  0  0
 24 25  1  0  0  0  0
 27 26  1  0  0  0  0
 27 29  1  0  0  0  0
 29 28  1  6  0  0  0
 29 30  1  0  0  0  0
 30 32  1  0  0  0  0
 32 31  1  0  0  0  0
M  END
>  <MODEL>
3

>  <REMARK>
 VINA RESULT:      -7.8      2.175      8.182
  Name = 
  7 active torsions:
  status: ('A' for Active; 'I' for Inactive)
    1  A    between atoms: C_5  and  N_9
    2  A    between atoms: C_5  and  C_25
    3  A    between atoms: C_8  and  C_18
    4  A    between atoms: C_8  and  C_29
    5  A    between atoms: CA_19  and  C_23
    6  A    between atoms: C_22  and  C_30
    7  A    between atoms: C_25  and  C_29
                            x       y       z     vdW  Elec       q    Type
                         _______ _______ _______ _____ _____    ______ ____

>  <TORSDO>
F 7

$$$$
=
 OpenBabel11042413093D

 32 35  0  0  1  0  0  0  0  0999 V2000
  192.2870  176.4340  138.6450 C   0  0  0  0  0  2  0  0  0  0  0  0
  188.7800  176.8690  138.2740 N   0  0  0  0  0  0  0  0  0  0  0  0
  191.4040  174.7390  137.2630 N   0  0  0  0  0  2  0  0  0  0  0  0
  188.4280  175.0630  136.7610 O   0  0  0  0  0  0  0  0  0  0  0  0
  192.6750  175.2360  137.8030 C   0  0  1  0  0  3  0  0  0  0  0  0
  189.1490  175.6610  137.6040 C   0  0  0  0  0  0  0  0  0  0  0  0
  189.9360  177.3820  139.0350 C   0  0  2  0  0  3  0  0  0  0  0  0
  190.4930  175.3080  137.9680 C   0  0  2  0  0  3  0  0  0  0  0  0
  190.9810  176.3330  138.8000 C   0  0  1  0  0  3  0  0  0  0  0  0
  191.5100  177.6860  144.6080 C   0  0  0  0  0  1  0  0  0  0  0  0
  191.8240  177.6530  141.5140 O   0  0  0  0  0  0  0  0  0  0  0  0
  190.0900  177.6170  144.1550 C   0  0  0  0  0  0  0  0  0  0  0  0
  187.4030  177.4520  143.2520 C   0  0  0  0  0  3  0  0  0  0  0  0
  187.6890  177.4900  144.6280 C   0  0  0  0  0  0  0  0  0  0  0  0
  190.5690  177.5860  141.5950 C   0  0  0  0  0  0  0  0  0  0  0  0
  188.4690  177.5020  142.3570 C   0  0  0  0  0  0  0  0  0  0  0  0
  189.0280  177.5720  145.0830 C   0  0  0  0  0  0  0  0  0  0  0  0
  188.3850  177.4420  140.9330 N   0  0  0  0  0  0  0  0  0  0  0  0
  189.2980  177.6060  146.4490 O   0  0  0  0  0  1  0  0  0  0  0  0
  189.6060  177.4990  140.4910 C   0  0  0  0  0  0  0  0  0  0  0  0
  186.5590  177.4340  145.5980 C   0  0  0  0  0  1  0  0  0  0  0  0
  189.7670  177.5830  142.7980 C   0  0  0  0  0  0  0  0  0  0  0  0
  194.1660  176.9030  136.7050 O   0  0  0  0  0  1  0  0  0  0  0  0
  193.5970  175.6370  136.6980 C   0  0  0  0  0  0  0  0  0  0  0  0
  193.8490  174.8430  135.7520 O   0  0  0  0  0  0  0  0  0  0  0  0
  187.6250  177.6790  137.9050 C   0  0  0  0  0  2  0  0  0  0  0  0
  187.9710  178.6120  136.7540 C   0  0  0  0  0  2  0  0  0  0  0  0
  188.1080  177.5330  134.6050 O   0  0  0  0  0  1  0  0  0  0  0  0
  187.2490  178.2090  135.4740 C   0  0  1  0  0  3  0  0  0  0  0  0
  186.0170  177.3570  135.7710 C   0  0  0  0  0  2  0  0  0  0  0  0
  183.7470  176.6340  135.0210 C   0  0  0  0  0  1  0  0  0  0  0  0
  185.0470  177.2860  134.5950 C   0  0  0  0  0  2  0  0  0  0  0  0
  2  7  1  0  0  0  0
  3  5  1  0  0  0  0
  4  6  2  0  0  0  0
  5 24  1  6  0  0  0
  5  1  1  0  0  0  0
  6  8  1  0  0  0  0
  6  2  1  0  0  0  0
  7 20  1  1  0  0  0
  8  3  1  6  0  0  0
  8  9  1  0  0  0  0
  9  1  1  6  0  0  0
  9  7  1  0  0  0  0
 11 15  2  0  0  0  0
 12 10  1  0  0  0  0
 12 17  1  0  0  0  0
 13 14  1  0  0  0  0
 14 17  2  0  0  0  0
 14 21  1  0  0  0  0
 15 22  1  0  0  0  0
 16 22  1  0  0  0  0
 16 13  2  0  0  0  0
 17 19  1  0  0  0  0
 18 16  1  0  0  0  0
 20 18  2  0  0  0  0
 20 15  1  0  0  0  0
 22 12  2  0  0  0  0
 24 23  1  0  0  0  0
 25 24  2  0  0  0  0
 26  2  1  0  0  0  0
 27 26  1  0  0  0  0
 29 28  1  6  0  0  0
 29 30  1  0  0  0  0
 29 27  1  0  0  0  0
 32 31  1  0  0  0  0
 32 30  1  0  0  0  0
M  END
>  <MODEL>
4

>  <REMARK>
 VINA RESULT:      -7.7      2.103      2.698
  Name = 
  7 active torsions:
  status: ('A' for Active; 'I' for Inactive)
    1  A    between atoms: C_5  and  N_9
    2  A    between atoms: C_5  and  C_25
    3  A    between atoms: C_8  and  C_18
    4  A    between atoms: C_8  and  C_29
    5  A    between atoms: CA_19  and  C_23
    6  A    between atoms: C_22  and  C_30
    7  A    between atoms: C_25  and  C_29
                            x       y       z     vdW  Elec       q    Type
                         _______ _______ _______ _____ _____    ______ ____

>  <TORSDO>
F 7

$$$$
=
 OpenBabel11042413093D

 32 35  0  0  1  0  0  0  0  0999 V2000
  189.1390  177.8860  144.3660 C   0  0  0  0  0  2  0  0  0  0  0  0
  188.8960  177.9150  140.8220 N   0  0  0  0  0  0  0  0  0  0  0  0
  190.3670  176.0890  143.4570 N   0  0  0  0  0  2  0  0  0  0  0  0
  190.3450  176.0660  140.4220 O   0  0  0  0  0  0  0  0  0  0  0  0
  190.0480  176.7320  144.7370 C   0  0  1  0  0  3  0  0  0  0  0  0
  189.6320  176.7510  141.2040 C   0  0  0  0  0  0  0  0  0  0  0  0
  188.3400  178.5640  142.0250 C   0  0  2  0  0  3  0  0  0  0  0  0
  189.5090  176.5560  142.6230 C   0  0  2  0  0  3  0  0  0  0  0  0
  188.7630  177.6390  143.1270 C   0  0  1  0  0  3  0  0  0  0  0  0
  183.0900  178.6300  144.4880 C   0  0  0  0  0  1  0  0  0  0  0  0
  186.1940  178.6690  144.2980 O   0  0  0  0  0  0  0  0  0  0  0  0
  183.3080  178.6440  143.0120 C   0  0  0  0  0  0  0  0  0  0  0  0
  183.7680  178.6400  140.2100 C   0  0  0  0  0  3  0  0  0  0  0  0
  182.4560  178.6240  140.7150 C   0  0  0  0  0  0  0  0  0  0  0  0
  185.9120  178.6620  143.0710 C   0  0  0  0  0  0  0  0  0  0  0  0
  184.8220  178.6630  141.1190 C   0  0  0  0  0  0  0  0  0  0  0  0
  182.2220  178.6260  142.1120 C   0  0  0  0  0  0  0  0  0  0  0  0
  186.2160  178.6470  140.8050 N   0  0  0  0  0  0  0  0  0  0  0  0
  180.9180  178.6080  142.5990 O   0  0  0  0  0  1  0  0  0  0  0  0
  186.8470  178.6550  141.9400 C   0  0  0  0  0  0  0  0  0  0  0  0
  181.3170  178.5980  139.7540 C   0  0  0  0  0  1  0  0  0  0  0  0
  184.5960  178.6650  142.4740 C   0  0  0  0  0  0  0  0  0  0  0  0
  192.0490  178.2170  144.7930 O   0  0  0  0  0  0  0  0  0  0  0  0
  191.2910  177.2260  145.4030 C   0  0  0  0  0  0  0  0  0  0  0  0
  191.6670  176.7400  146.5030 O   0  0  0  0  0  1  0  0  0  0  0  0
  189.0520  178.5840  139.5360 C   0  0  0  0  0  2  0  0  0  0  0  0
  188.3950  177.7750  138.4270 C   0  0  0  0  0  2  0  0  0  0  0  0
  189.0540  179.7530  137.2200 O   0  0  0  0  0  1  0  0  0  0  0  0
  188.5460  178.4600  137.0740 C   0  0  1  0  0  3  0  0  0  0  0  0
  189.4280  177.6470  136.1290 C   0  0  0  0  0  2  0  0  0  0  0  0
  191.3080  176.0030  136.1240 C   0  0  0  0  0  1  0  0  0  0  0  0
  190.0000  176.3930  136.7830 C   0  0  0  0  0  2  0  0  0  0  0  0
  1  5  1  0  0  0  0
  2  6  1  0  0  0  0
  2  7  1  0  0  0  0
  3  5  1  0  0  0  0
  4  6  2  0  0  0  0
  5 24  1  6  0  0  0
  7 20  1  6  0  0  0
  7  9  1  0  0  0  0
  8  6  1  6  0  0  0
  8  9  1  0  0  0  0
  8  3  1  0  0  0  0
  9  1  1  1  0  0  0
 12 10  1  0  0  0  0
 13 14  2  0  0  0  0
 13 16  1  0  0  0  0
 14 17  1  0  0  0  0
 15 11  2  0  0  0  0
 16 22  2  0  0  0  0
 17 19  1  0  0  0  0
 17 12  2  0  0  0  0
 18 16  1  0  0  0  0
 18 20  2  0  0  0  0
 20 15  1  0  0  0  0
 21 14  1  0  0  0  0
 22 12  1  0  0  0  0
 22 15  1  0  0  0  0
 23 24  2  0  0  0  0
 24 25  1  0  0  0  0
 26  2  1  0  0  0  0
 27 26  1  0  0  0  0
 29 28  1  1  0  0  0
 29 27  1  0  0  0  0
 30 32  1  0  0  0  0
 30 29  1  0  0  0  0
 31 32  1  0  0  0  0
M  END
>  <MODEL>
5

>  <REMARK>
 VINA RESULT:      -7.5      2.448      6.205
  Name = 
  7 active torsions:
  status: ('A' for Active; 'I' for Inactive)
    1  A    between atoms: C_5  and  N_9
    2  A    between atoms: C_5  and  C_25
    3  A    between atoms: C_8  and  C_18
    4  A    between atoms: C_8  and  C_29
    5  A    between atoms: CA_19  and  C_23
    6  A    between atoms: C_22  and  C_30
    7  A    between atoms: C_25  and  C_29
                            x       y       z     vdW  Elec       q    Type
                         _______ _______ _______ _____ _____    ______ ____

>  <TORSDO>
F 7

$$$$
=
 OpenBabel11042413093D

 32 35  0  0  1  0  0  0  0  0999 V2000
  186.3270  178.2320  145.6280 C   0  0  0  0  0  2  0  0  0  0  0  0
  187.4370  178.1860  142.2530 N   0  0  0  0  0  0  0  0  0  0  0  0
  188.0710  176.6640  145.3720 N   0  0  0  0  0  2  0  0  0  0  0  0
  189.1990  176.6100  142.5550 O   0  0  0  0  0  0  0  0  0  0  0  0
  187.1970  177.2550  146.3930 C   0  0  1  0  0  3  0  0  0  0  0  0
  188.1470  177.1690  142.9660 C   0  0  0  0  0  0  0  0  0  0  0  0
  186.3750  178.7410  143.1150 C   0  0  2  0  0  3  0  0  0  0  0  0
  187.5290  176.9700  144.2480 C   0  0  2  0  0  3  0  0  0  0  0  0
  186.4900  177.9120  144.3600 C   0  0  1  0  0  3  0  0  0  0  0  0
  180.6100  179.3700  143.1390 C   0  0  0  0  0  1  0  0  0  0  0  0
  183.5590  179.7210  144.0610 O   0  0  0  0  0  0  0  0  0  0  0  0
  181.3550  178.6450  142.0690 C   0  0  0  0  0  0  0  0  0  0  0  0
  182.8110  177.2490  140.0700 C   0  0  0  0  0  3  0  0  0  0  0  0
  181.4080  177.3210  140.0070 C   0  0  0  0  0  0  0  0  0  0  0  0
  183.7490  179.0400  143.0180 C   0  0  0  0  0  0  0  0  0  0  0  0
  183.4550  177.8810  141.1290 C   0  0  0  0  0  0  0  0  0  0  0  0
  180.6780  178.0170  141.0020 C   0  0  0  0  0  0  0  0  0  0  0  0
  184.8610  177.8920  141.3840 N   0  0  0  0  0  0  0  0  0  0  0  0
  179.2890  178.0790  140.9300 O   0  0  0  0  0  1  0  0  0  0  0  0
  185.0300  178.5730  142.4770 C   0  0  0  0  0  0  0  0  0  0  0  0
  180.7030  176.6470  138.8800 C   0  0  0  0  0  1  0  0  0  0  0  0
  182.7480  178.5570  142.0940 C   0  0  0  0  0  0  0  0  0  0  0  0
  189.3090  177.5550  147.6820 O   0  0  0  0  0  0  0  0  0  0  0  0
  188.0040  177.9610  147.4330 C   0  0  0  0  0  0  0  0  0  0  0  0
  187.5080  178.9100  148.0980 O   0  0  0  0  0  1  0  0  0  0  0  0
  187.9600  178.8600  141.0720 C   0  0  0  0  0  2  0  0  0  0  0  0
  187.7300  178.0160  139.8270 C   0  0  0  0  0  2  0  0  0  0  0  0
  189.0520  179.3790  138.3440 O   0  0  0  0  0  1  0  0  0  0  0  0
  188.9170  178.0940  138.8740 C   0  0  1  0  0  3  0  0  0  0  0  0
  190.2140  177.6630  139.5580 C   0  0  0  0  0  2  0  0  0  0  0  0
  191.7120  176.5950  137.8700 C   0  0  0  0  0  1  0  0  0  0  0  0
  190.7580  176.3440  139.0210 C   0  0  0  0  0  2  0  0  0  0  0  0
  1  5  1  0  0  0  0
  2  6  1  0  0  0  0
  2  7  1  0  0  0  0
  3  5  1  0  0  0  0
  4  6  2  0  0  0  0
  5 24  1  1  0  0  0
  7 20  1  6  0  0  0
  7  9  1  0  0  0  0
  8  6  1  6  0  0  0
  8  9  1  0  0  0  0
  8  3  1  0  0  0  0
  9  1  1  1  0  0  0
 12 22  1  0  0  0  0
 12 10  1  0  0  0  0
 13 16  1  0  0  0  0
 14 13  2  0  0  0  0
 14 17  1  0  0  0  0
 15 11  2  0  0  0  0
 16 18  1  0  0  0  0
 16 22  2  0  0  0  0
 17 12  2  0  0  0  0
 18 20  2  0  0  0  0
 19 17  1  0  0  0  0
 20 15  1  0  0  0  0
 21 14  1  0  0  0  0
 22 15  1  0  0  0  0
 24 23  2  0  0  0  0
 24 25  1  0  0  0  0
 26  2  1  0  0  0  0
 27 26  1  0  0  0  0
 29 28  1  1  0  0  0
 29 30  1  0  0  0  0
 29 27  1  0  0  0  0
 31 32  1  0  0  0  0
 32 30  1  0  0  0  0
M  END
>  <MODEL>
6

>  <REMARK>
 VINA RESULT:      -7.5      2.617      7.750
  Name = 
  7 active torsions:
  status: ('A' for Active; 'I' for Inactive)
    1  A    between atoms: C_5  and  N_9
    2  A    between atoms: C_5  and  C_25
    3  A    between atoms: C_8  and  C_18
    4  A    between atoms: C_8  and  C_29
    5  A    between atoms: CA_19  and  C_23
    6  A    between atoms: C_22  and  C_30
    7  A    between atoms: C_25  and  C_29
                            x       y       z     vdW  Elec       q    Type
                         _______ _______ _______ _____ _____    ______ ____

>  <TORSDO>
F 7

$$$$
=
 OpenBabel11042413093D

 32 35  0  0  1  0  0  0  0  0999 V2000
  183.4460  180.5030  138.7200 C   0  0  0  0  0  2  0  0  0  0  0  0
  184.1050  178.3350  141.4570 N   0  0  0  0  0  0  0  0  0  0  0  0
  181.5200  179.2430  139.2350 N   0  0  0  0  0  2  0  0  0  0  0  0
  181.9070  177.4330  141.6400 O   0  0  0  0  0  0  0  0  0  0  0  0
  181.9930  180.3070  138.3410 C   0  0  1  0  0  3  0  0  0  0  0  0
  182.7810  178.0660  140.9890 C   0  0  0  0  0  0  0  0  0  0  0  0
  184.7790  179.2580  140.5230 C   0  0  2  0  0  3  0  0  0  0  0  0
  182.5850  178.7140  139.7220 C   0  0  2  0  0  3  0  0  0  0  0  0
  183.7560  179.4450  139.4430 C   0  0  1  0  0  3  0  0  0  0  0  0
  190.2690  177.4910  141.1300 C   0  0  0  0  0  1  0  0  0  0  0  0
  187.4610  178.5360  141.9620 O   0  0  0  0  0  0  0  0  0  0  0  0
  189.5360  177.4700  139.8310 C   0  0  0  0  0  0  0  0  0  0  0  0
  188.1120  177.4740  137.3740 C   0  0  0  0  0  3  0  0  0  0  0  0
  189.4530  177.0560  137.4170 C   0  0  0  0  0  0  0  0  0  0  0  0
  187.2630  178.3720  140.7290 C   0  0  0  0  0  0  0  0  0  0  0  0
  187.5100  177.8760  138.5630 C   0  0  0  0  0  0  0  0  0  0  0  0
  190.1680  177.0530  138.6400 C   0  0  0  0  0  0  0  0  0  0  0  0
  186.1760  178.3630  138.7180 N   0  0  0  0  0  0  0  0  0  0  0  0
  191.4970  176.6390  138.6690 O   0  0  0  0  0  1  0  0  0  0  0  0
  186.0320  178.6420  139.9790 C   0  0  0  0  0  0  0  0  0  0  0  0
  190.1130  176.6250  136.1520 C   0  0  0  0  0  1  0  0  0  0  0  0
  188.2020  177.8720  139.7500 C   0  0  0  0  0  0  0  0  0  0  0  0
  181.4520  182.6660  137.7490 O   0  0  0  0  0  0  0  0  0  0  0  0
  181.2120  181.5620  138.5550 C   0  0  0  0  0  0  0  0  0  0  0  0
  180.3490  181.6330  139.4710 O   0  0  0  0  0  1  0  0  0  0  0  0
  184.5390  178.1060  142.8300 C   0  0  0  0  0  2  0  0  0  0  0  0
  184.5800  179.4150  143.6040 C   0  0  0  0  0  2  0  0  0  0  0  0
  183.9030  178.9920  145.8770 O   0  0  0  0  0  1  0  0  0  0  0  0
  185.0100  179.1940  145.0490 C   0  0  1  0  0  3  0  0  0  0  0  0
  185.9830  178.0220  145.1710 C   0  0  0  0  0  2  0  0  0  0  0  0
  188.1200  177.5010  146.3530 C   0  0  0  0  0  1  0  0  0  0  0  0
  186.6910  177.9770  146.5210 C   0  0  0  0  0  2  0  0  0  0  0  0
  2 26  1  0  0  0  0
  5 24  1  1  0  0  0
  5  1  1  0  0  0  0
  5  3  1  0  0  0  0
  6  2  1  0  0  0  0
  6  4  2  0  0  0  0
  7 20  1  6  0  0  0
  7  2  1  0  0  0  0
  8  3  1  1  0  0  0
  8  6  1  0  0  0  0
  9  1  1  1  0  0  0
  9  8  1  0  0  0  0
  9  7  1  0  0  0  0
 12 10  1  0  0  0  0
 13 14  2  0  0  0  0
 13 16  1  0  0  0  0
 14 17  1  0  0  0  0
 15 11  2  0  0  0  0
 16 18  1  0  0  0  0
 16 22  2  0  0  0  0
 17 19  1  0  0  0  0
 17 12  2  0  0  0  0
 18 20  2  0  0  0  0
 20 15  1  0  0  0  0
 21 14  1  0  0  0  0
 22 12  1  0  0  0  0
 22 15  1  0  0  0  0
 23 24  2  0  0  0  0
 24 25  1  0  0  0  0
 26 27  1  0  0  0  0
 27 29  1  0  0  0  0
 29 30  1  0  0  0  0
 29 28  1  1  0  0  0
 30 32  1  0  0  0  0
 31 32  1  0  0  0  0
M  END
>  <MODEL>
7

>  <REMARK>
 VINA RESULT:      -7.4      2.767      7.523
  Name = 
  7 active torsions:
  status: ('A' for Active; 'I' for Inactive)
    1  A    between atoms: C_5  and  N_9
    2  A    between atoms: C_5  and  C_25
    3  A    between atoms: C_8  and  C_18
    4  A    between atoms: C_8  and  C_29
    5  A    between atoms: CA_19  and  C_23
    6  A    between atoms: C_22  and  C_30
    7  A    between atoms: C_25  and  C_29
                            x       y       z     vdW  Elec       q    Type
                         _______ _______ _______ _____ _____    ______ ____

>  <TORSDO>
F 7

$$$$
=
 OpenBabel11042413093D

 32 35  0  0  1  0  0  0  0  0999 V2000
  190.8670  177.2280  139.5620 C   0  0  0  0  0  2  0  0  0  0  0  0
  187.6280  177.5790  138.1420 N   0  0  0  0  0  0  0  0  0  0  0  0
  190.4710  175.4950  138.0120 N   0  0  0  0  0  2  0  0  0  0  0  0
  187.7810  175.7440  136.6300 O   0  0  0  0  0  0  0  0  0  0  0  0
  191.5110  176.0270  138.9010 C   0  0  1  0  0  3  0  0  0  0  0  0
  188.2030  176.3710  137.6390 C   0  0  0  0  0  0  0  0  0  0  0  0
  188.4920  178.1290  139.2060 C   0  0  2  0  0  3  0  0  0  0  0  0
  189.3800  176.0530  138.3990 C   0  0  2  0  0  3  0  0  0  0  0  0
  189.5770  177.1010  139.3180 C   0  0  1  0  0  3  0  0  0  0  0  0
  187.9360  177.2090  144.9040 C   0  0  0  0  0  1  0  0  0  0  0  0
  189.3010  177.3000  142.1110 O   0  0  0  0  0  0  0  0  0  0  0  0
  186.8730  177.8310  144.0630 C   0  0  0  0  0  0  0  0  0  0  0  0
  184.8650  178.9840  142.4180 C   0  0  0  0  0  3  0  0  0  0  0  0
  184.6260  178.7710  143.7870 C   0  0  0  0  0  0  0  0  0  0  0  0
  188.1860  177.8040  141.8130 C   0  0  0  0  0  0  0  0  0  0  0  0
  186.1060  178.6200  141.9030 C   0  0  0  0  0  0  0  0  0  0  0  0
  185.6250  178.1960  144.6110 C   0  0  0  0  0  0  0  0  0  0  0  0
  186.5250  178.7260  140.5410 N   0  0  0  0  0  0  0  0  0  0  0  0
  185.3750  177.9870  145.9650 O   0  0  0  0  0  1  0  0  0  0  0  0
  187.7360  178.2580  140.4920 C   0  0  0  0  0  0  0  0  0  0  0  0
  183.3020  179.1530  144.3540 C   0  0  0  0  0  1  0  0  0  0  0  0
  187.0760  178.0640  142.7020 C   0  0  0  0  0  0  0  0  0  0  0  0
  192.6970  176.3410  136.7320 O   0  0  0  0  0  0  0  0  0  0  0  0
  192.7170  176.4330  138.1170 C   0  0  0  0  0  0  0  0  0  0  0  0
  193.7550  176.8420  138.7010 O   0  0  0  0  0  1  0  0  0  0  0  0
  186.6260  178.3580  137.4260 C   0  0  0  0  0  2  0  0  0  0  0  0
  185.4780  177.4660  136.9730 C   0  0  0  0  0  2  0  0  0  0  0  0
  183.4790  178.3490  137.9850 O   0  0  0  0  0  1  0  0  0  0  0  0
  184.4220  177.3220  138.0620 C   0  0  1  0  0  3  0  0  0  0  0  0
  183.7320  175.9610  137.9970 C   0  0  0  0  0  2  0  0  0  0  0  0
  184.3360  173.5570  137.6990 C   0  0  0  0  0  1  0  0  0  0  0  0
  184.4840  174.9550  137.1330 C   0  0  0  0  0  2  0  0  0  0  0  0
  2  7  1  0  0  0  0
  3  8  1  0  0  0  0
  3  5  1  0  0  0  0
  4  6  2  0  0  0  0
  5 24  1  6  0  0  0
  5  1  1  0  0  0  0
  6  2  1  0  0  0  0
  7  9  1  0  0  0  0
  7 20  1  1  0  0  0
  8  6  1  6  0  0  0
  8  9  1  0  0  0  0
  9  1  1  6  0  0  0
 12 17  1  0  0  0  0
 12 10  1  0  0  0  0
 13 14  1  0  0  0  0
 14 21  1  0  0  0  0
 14 17  2  0  0  0  0
 15 11  2  0  0  0  0
 15 22  1  0  0  0  0
 16 13  2  0  0  0  0
 16 22  1  0  0  0  0
 17 19  1  0  0  0  0
 18 16  1  0  0  0  0
 20 18  2  0  0  0  0
 20 15  1  0  0  0  0
 22 12  2  0  0  0  0
 23 24  2  0  0  0  0
 24 25  1  0  0  0  0
 26  2  1  0  0  0  0
 27 26  1  0  0  0  0
 27 29  1  0  0  0  0
 29 28  1  6  0  0  0
 30 29  1  0  0  0  0
 32 31  1  0  0  0  0
 32 30  1  0  0  0  0
M  END
>  <MODEL>
8

>  <REMARK>
 VINA RESULT:      -7.4      1.850      2.658
  Name = 
  7 active torsions:
  status: ('A' for Active; 'I' for Inactive)
    1  A    between atoms: C_5  and  N_9
    2  A    between atoms: C_5  and  C_25
    3  A    between atoms: C_8  and  C_18
    4  A    between atoms: C_8  and  C_29
    5  A    between atoms: CA_19  and  C_23
    6  A    between atoms: C_22  and  C_30
    7  A    between atoms: C_25  and  C_29
                            x       y       z     vdW  Elec       q    Type
                         _______ _______ _______ _____ _____    ______ ____

>  <TORSDO>
F 7

$$$$
=
 OpenBabel11042413093D

 32 35  0  0  1  0  0  0  0  0999 V2000
  189.1180  177.8810  144.3860 C   0  0  0  0  0  2  0  0  0  0  0  0
  188.6750  177.8840  140.8600 N   0  0  0  0  0  0  0  0  0  0  0  0
  190.3810  176.1440  143.4110 N   0  0  0  0  0  2  0  0  0  0  0  0
  190.1900  176.1080  140.3830 O   0  0  0  0  0  0  0  0  0  0  0  0
  190.1030  176.7750  144.7070 C   0  0  1  0  0  3  0  0  0  0  0  0
  189.4890  176.7600  141.2020 C   0  0  0  0  0  0  0  0  0  0  0  0
  188.1560  178.5090  142.0930 C   0  0  2  0  0  3  0  0  0  0  0  0
  189.4550  176.5650  142.6260 C   0  0  2  0  0  3  0  0  0  0  0  0
  188.6860  177.6110  143.1700 C   0  0  1  0  0  3  0  0  0  0  0  0
  183.0710  179.3230  139.4260 C   0  0  0  0  0  1  0  0  0  0  0  0
  186.1480  178.9980  139.7450 O   0  0  0  0  0  0  0  0  0  0  0  0
  183.1990  179.0200  140.8810 C   0  0  0  0  0  0  0  0  0  0  0  0
  183.4900  178.4730  143.6530 C   0  0  0  0  0  3  0  0  0  0  0  0
  182.2150  178.6880  143.1010 C   0  0  0  0  0  0  0  0  0  0  0  0
  185.7940  178.8020  140.9380 C   0  0  0  0  0  0  0  0  0  0  0  0
  184.5930  178.5320  142.8040 C   0  0  0  0  0  0  0  0  0  0  0  0
  182.0650  178.9610  141.7190 C   0  0  0  0  0  0  0  0  0  0  0  0
  185.9620  178.3770  143.1780 N   0  0  0  0  0  0  0  0  0  0  0  0
  180.7970  179.1740  141.1850 O   0  0  0  0  0  1  0  0  0  0  0  0
  186.6580  178.5260  142.0910 C   0  0  0  0  0  0  0  0  0  0  0  0
  181.0260  178.6300  143.9970 C   0  0  0  0  0  1  0  0  0  0  0  0
  184.4480  178.7960  141.4630 C   0  0  0  0  0  0  0  0  0  0  0  0
  191.8280  176.8260  146.5040 O   0  0  0  0  0  1  0  0  0  0  0  0
  191.3550  177.3330  145.3010 C   0  0  0  0  0  0  0  0  0  0  0  0
  191.9770  178.2680  144.7300 O   0  0  0  0  0  0  0  0  0  0  0  0
  188.7260  178.5550  139.5670 C   0  0  0  0  0  2  0  0  0  0  0  0
  188.4270  177.5750  138.4420 C   0  0  0  0  0  2  0  0  0  0  0  0
  188.7260  179.6270  137.2160 O   0  0  0  0  0  1  0  0  0  0  0  0
  188.4420  178.2660  137.0840 C   0  0  1  0  0  3  0  0  0  0  0  0
  189.4370  177.6070  136.1300 C   0  0  0  0  0  2  0  0  0  0  0  0
  191.2390  175.9000  135.8570 C   0  0  0  0  0  1  0  0  0  0  0  0
  190.4680  176.7450  136.8510 C   0  0  0  0  0  2  0  0  0  0  0  0
  1  5  1  0  0  0  0
  2  6  1  0  0  0  0
  2  7  1  0  0  0  0
  3  5  1  0  0  0  0
  4  6  2  0  0  0  0
  5 24  1  6  0  0  0
  7 20  1  6  0  0  0
  7  9  1  0  0  0  0
  8  6  1  6  0  0  0
  8  9  1  0  0  0  0
  8  3  1  0  0  0  0
  9  1  1  1  0  0  0
 10 12  1  0  0  0  0
 11 15  2  0  0  0  0
 12 22  2  0  0  0  0
 12 17  1  0  0  0  0
 14 13  1  0  0  0  0
 14 21  1  0  0  0  0
 15 22  1  0  0  0  0
 15 20  1  0  0  0  0
 16 18  1  0  0  0  0
 16 13  2  0  0  0  0
 17 14  2  0  0  0  0
 19 17  1  0  0  0  0
 20 18  2  0  0  0  0
 22 16  1  0  0  0  0
 24 23  1  0  0  0  0
 25 24  2  0  0  0  0
 26  2  1  0  0  0  0
 27 26  1  0  0  0  0
 29 28  1  1  0  0  0
 29 27  1  0  0  0  0
 30 32  1  0  0  0  0
 30 29  1  0  0  0  0
 31 32  1  0  0  0  0
M  END
>  <MODEL>
9

>  <REMARK>
 VINA RESULT:      -7.2      2.345      6.256
  Name = 
  7 active torsions:
  status: ('A' for Active; 'I' for Inactive)
    1  A    between atoms: C_5  and  N_9
    2  A    between atoms: C_5  and  C_25
    3  A    between atoms: C_8  and  C_18
    4  A    between atoms: C_8  and  C_29
    5  A    between atoms: CA_19  and  C_23
    6  A    between atoms: C_22  and  C_30
    7  A    between atoms: C_25  and  C_29
                            x       y       z     vdW  Elec       q    Type
                         _______ _______ _______ _____ _____    ______ ____

>  <TORSDO>
F 7

$$$$
