=
 OpenBabel11042412483D

 58 62  0  0  1  0  0  0  0  0999 V2000
  186.3230  177.7220  144.2780 C   0  0  2  0  0  3  0  0  0  0  0  0
  190.1490  175.7120  142.4790 C   0  0  0  0  0  1  0  0  0  0  0  0
  188.2070  179.3530  140.5730 O   0  0  0  0  0  1  0  0  0  0  0  0
  188.6890  177.1220  143.9150 C   0  0  2  0  0  3  0  0  0  0  0  0
  186.3050  179.3540  146.0200 O   0  0  0  0  0  0  0  0  0  0  0  0
  189.9130  177.1140  142.9890 C   0  0  2  0  0  3  0  0  0  0  0  0
  186.6950  178.2620  145.6340 C   0  0  0  0  0  0  0  0  0  0  0  0
  187.5220  177.9580  143.3670 C   0  0  1  0  0  3  0  0  0  0  0  0
  188.4830  178.0590  141.0280 C   0  0  1  0  0  0  0  0  0  0  0  0
  187.8770  177.5810  146.2770 C   0  0  1  0  0  3  0  0  0  0  0  0
  189.0730  177.6070  145.3210 C   0  0  0  0  0  2  0  0  0  0  0  0
  189.8160  178.1180  141.8400 C   0  0  0  0  0  2  0  0  0  0  0  0
  187.2960  177.5930  141.9040 C   0  0  0  0  0  2  0  0  0  0  0  0
  187.4370  177.4220  148.7920 C   0  0  0  0  0  1  0  0  0  0  0  0
  188.2670  178.0530  147.6850 C   0  0  1  0  0  3  0  0  0  0  0  0
  189.7440  177.9250  147.9790 C   0  0  0  0  0  2  0  0  0  0  0  0
  190.2290  176.5290  147.6010 C   0  0  0  0  0  2  0  0  0  0  0  0
  192.5650  175.8930  148.2450 C   0  0  0  0  0  1  0  0  0  0  0  0
  191.6920  176.5130  147.1700 C   0  0  0  0  0  3  0  0  0  0  0  0
  191.8900  175.7730  145.8580 C   0  0  0  0  0  1  0  0  0  0  0  0
  188.5810  177.1600  139.9260 O   0  0  0  0  0  0  0  0  0  0  0  0
  189.7380  177.4630  139.1810 C   0  0  0  0  0  2  0  0  0  0  0  0
  188.3100  175.7490  137.4880 S   0  0  0  0  0  1  0  0  0  0  0  0
  189.8720  176.5730  137.9430 C   0  0  2  0  0  3  0  0  0  0  0  0
  190.8810  175.5670  138.2100 N   0  0  0  0  0  2  0  0  0  0  0  0
  191.8640  175.0050  136.0440 C   0  0  0  0  0  2  0  0  0  0  0  0
  193.3230  175.5410  138.0650 C   0  0  0  0  0  2  0  0  0  0  0  0
  194.2250  174.6030  137.2690 C   0  0  0  0  0  2  0  0  0  0  0  0
  192.2470  173.5340  136.2930 C   0  0  0  0  0  2  0  0  0  0  0  0
  193.5230  173.3400  137.0180 N   0  0  1  0  0  0  0  0  0  0  0  0
  192.0120  175.8280  137.3280 C   0  0  2  0  0  3  0  0  0  0  0  0
  194.0310  171.0450  136.4380 C   0  0  0  0  0  2  0  0  0  0  0  0
  195.3030  171.9360  138.3560 F   0  0  0  0  0  0  0  0  0  0  0  0
  194.3750  172.5080  136.1780 C   0  0  2  0  0  3  0  0  0  0  0  0
  195.2970  171.6290  137.0160 C   0  0  2  0  0  0  0  0  0  0  0  0
  196.6030  171.2950  136.3170 C   0  0  0  0  0  2  0  0  0  0  0  0
  197.3720  172.5640  136.0060 C   0  0  0  0  0  2  0  0  0  0  0  0
  198.0680  173.0130  137.2010 N   0  0  0  0  0  2  0  0  0  0  0  0
  197.7040  175.1260  136.0460 C   0  0  0  0  0  1  0  0  0  0  0  0
  198.6530  174.3090  136.8990 C   0  0  0  0  0  2  0  0  0  0  0  0
  184.9570  178.1500  143.7090 C   0  0  0  0  0  2  0  0  0  0  0  0
  183.8560  178.3820  144.7300 C   0  0  0  0  0  2  0  0  0  0  0  0
  182.9270  179.4380  144.1900 C   0  0  0  0  0  2  0  0  0  0  0  0
  181.6810  178.8630  143.5920 C   0  0  0  0  0  0  0  0  0  0  0  0
  180.6890  178.6250  144.3300 O   0  0  0  0  0  0  0  0  0  0  0  0
  181.6000  178.6420  142.1820 N   0  0  0  0  0  2  0  0  0  0  0  0
  180.3870  178.1630  141.5450 C   0  0  0  0  0  2  0  0  0  0  0  0
  180.4620  178.3550  140.0400 C   0  0  0  0  0  2  0  0  0  0  0  0
  182.5750  177.6520  138.7800 N   0  0  0  0  0  0  0  0  0  0  0  0
  184.6220  179.3480  140.4620 C   0  0  0  0  0  1  0  0  0  0  0  0
  182.9460  179.0610  138.6350 C   0  0  0  0  0  2  0  0  0  0  0  0
  185.3340  178.1600  138.3980 C   0  0  1  0  0  3  0  0  0  0  0  0
  180.9850  176.0930  139.5420 O   0  0  0  0  0  0  0  0  0  0  0  0
  184.6060  177.2010  137.4550 C   0  0  0  0  0  2  0  0  0  0  0  0
  186.4210  178.7410  137.7530 O   0  0  0  0  0  1  0  0  0  0  0  0
  183.4040  176.6020  138.1780 C   0  0  0  0  0  2  0  0  0  0  0  0
  184.4240  179.2630  138.9670 C   0  0  2  0  0  3  0  0  0  0  0  0
  181.3310  177.3030  139.4290 C   0  0  0  0  0  0  0  0  0  0  0  0
  1 41  1  6  0  0  0
  1  7  1  0  0  0  0
  4 11  1  1  0  0  0
  6  2  1  6  0  0  0
  6  4  1  0  0  0  0
  7  5  2  0  0  0  0
  7 10  1  0  0  0  0
  8 13  1  6  0  0  0
  8  4  1  0  0  0  0
  8  1  1  0  0  0  0
  9  3  1  6  0  0  0
  9 12  1  0  0  0  0
  9 13  1  0  0  0  0
 10 15  1  1  0  0  0
 11 10  1  0  0  0  0
 12  6  1  0  0  0  0
 15 16  1  0  0  0  0
 15 14  1  1  0  0  0
 17 16  1  0  0  0  0
 19 17  1  0  0  0  0
 19 18  1  0  0  0  0
 20 19  1  0  0  0  0
 21  9  1  0  0  0  0
 22 21  1  0  0  0  0
 24 23  1  1  0  0  0
 24 25  1  0  0  0  0
 24 22  1  0  0  0  0
 26 29  1  0  0  0  0
 26 31  1  0  0  0  0
 28 27  1  0  0  0  0
 30 29  1  6  0  0  0
 30 28  1  0  0  0  0
 31 27  1  0  0  0  0
 31 25  1  1  0  0  0
 32 35  1  0  0  0  0
 34 32  1  1  0  0  0
 34 35  1  0  0  0  0
 34 30  1  0  0  0  0
 35 33  1  1  0  0  0
 36 35  1  0  0  0  0
 37 36  1  0  0  0  0
 37 38  1  0  0  0  0
 39 40  1  0  0  0  0
 40 38  1  0  0  0  0
 41 42  1  0  0  0  0
 43 42  1  0  0  0  0
 44 43  1  0  0  0  0
 44 45  2  0  0  0  0
 46 44  1  0  0  0  0
 47 46  1  0  0  0  0
 48 47  1  0  0  0  0
 49 58  1  0  0  0  0
 51 49  1  0  0  0  0
 51 57  1  0  0  0  0
 52 55  1  6  0  0  0
 52 57  1  0  0  0  0
 54 56  1  0  0  0  0
 54 52  1  0  0  0  0
 56 49  1  0  0  0  0
 57 50  1  1  0  0  0
 58 53  2  0  0  0  0
 58 48  1  0  0  0  0
M  END
>  <MODEL>
1

>  <REMARK>
 VINA RESULT:      -7.9      0.000      0.000
  Name = 
  21 active torsions:
  status: ('A' for Active; 'I' for Inactive)
    1  A    between atoms: C_2  and  C_39
    2  A    between atoms: C_2  and  C_56
    3  A    between atoms: C_3  and  C_23
    4  A    between atoms: C_5  and  C_15
    5  A    between atoms: C_8  and  C_18
    6  A    between atoms: C_15  and  C_45
    7  A    between atoms: C_16  and  C_17
    8  A    between atoms: C_16  and  N_27
    9  A    between atoms: C_17  and  C_51
   10  A    between atoms: C_18  and  C_36
   11  A    between atoms: C_23  and  C_45
   12  A    between atoms: C_24  and  N_32
   13  A    between atoms: O_29  and  C_42
   14  A    between atoms: O_29  and  C_46
   15  A    between atoms: N_32  and  C_39
   16  A    between atoms: C_35  and  N_49
   17  A    between atoms: C_36  and  C_58
   18  A    between atoms: C_44  and  C_58
   19  A    between atoms: C_46  and  C_50
   20  A    between atoms: C_50  and  N_57
   21  A    between atoms: C_54  and  N_57
                            x       y       z     vdW  Elec       q    Type
                         _______ _______ _______ _____ _____    ______ ____

>  <TORSDO>
F 21

$$$$
=
 OpenBabel11042412483D

 58 62  0  0  1  0  0  0  0  0999 V2000
  185.6570  177.7510  145.1410 C   0  0  2  0  0  3  0  0  0  0  0  0
  189.1130  176.5480  142.2220 C   0  0  0  0  0  1  0  0  0  0  0  0
  186.1530  179.8530  141.2320 O   0  0  0  0  0  1  0  0  0  0  0  0
  187.8950  177.6070  144.1130 C   0  0  2  0  0  3  0  0  0  0  0  0
  185.8540  179.2780  146.9650 O   0  0  0  0  0  0  0  0  0  0  0  0
  188.8010  177.8610  142.9000 C   0  0  2  0  0  3  0  0  0  0  0  0
  186.2950  178.2920  146.3940 C   0  0  0  0  0  0  0  0  0  0  0  0
  186.5030  178.2390  143.9710 C   0  0  1  0  0  3  0  0  0  0  0  0
  186.7520  178.6120  141.4800 C   0  0  1  0  0  0  0  0  0  0  0  0
  187.7030  177.8110  146.6370 C   0  0  1  0  0  3  0  0  0  0  0  0
  188.5680  178.0930  145.4050 C   0  0  0  0  0  2  0  0  0  0  0  0
  188.2280  178.8780  141.9130 C   0  0  0  0  0  2  0  0  0  0  0  0
  185.9440  177.9020  142.5920 C   0  0  0  0  0  2  0  0  0  0  0  0
  187.7630  177.7120  149.1930 C   0  0  0  0  0  1  0  0  0  0  0  0
  188.3840  178.2860  147.9280 C   0  0  1  0  0  3  0  0  0  0  0  0
  189.8820  178.0930  147.9290 C   0  0  0  0  0  2  0  0  0  0  0  0
  190.2250  176.6850  147.4530 C   0  0  0  0  0  2  0  0  0  0  0  0
  192.4370  175.5100  147.5250 C   0  0  0  0  0  1  0  0  0  0  0  0
  191.6210  176.5940  146.8460 C   0  0  0  0  0  3  0  0  0  0  0  0
  191.5740  176.3380  145.3490 C   0  0  0  0  0  1  0  0  0  0  0  0
  186.6870  177.7930  140.3150 O   0  0  0  0  0  0  0  0  0  0  0  0
  187.6630  178.2200  139.3920 C   0  0  0  0  0  2  0  0  0  0  0  0
  185.6500  177.7810  137.4950 S   0  0  0  0  0  1  0  0  0  0  0  0
  187.4020  177.6720  137.9870 C   0  0  2  0  0  3  0  0  0  0  0  0
  187.8210  176.2840  137.9530 N   0  0  0  0  0  2  0  0  0  0  0  0
  188.8640  174.5700  136.5570 C   0  0  0  0  0  2  0  0  0  0  0  0
  189.4970  177.0300  136.3350 C   0  0  0  0  0  2  0  0  0  0  0  0
  190.7850  176.3350  135.9010 C   0  0  0  0  0  2  0  0  0  0  0  0
  190.2070  174.4010  137.2910 C   0  0  0  0  0  2  0  0  0  0  0  0
  191.2290  175.4180  136.9560 N   0  0  1  0  0  0  0  0  0  0  0  0
  188.3830  176.0230  136.6330 C   0  0  2  0  0  3  0  0  0  0  0  0
  193.3300  174.4360  137.6520 C   0  0  0  0  0  2  0  0  0  0  0  0
  193.4510  176.8270  137.0500 F   0  0  0  0  0  0  0  0  0  0  0  0
  192.4040  174.7050  136.4700 C   0  0  2  0  0  3  0  0  0  0  0  0
  193.6750  175.5260  136.6660 C   0  0  2  0  0  0  0  0  0  0  0  0
  194.7480  175.2210  135.6350 C   0  0  0  0  0  2  0  0  0  0  0  0
  195.8370  174.3650  136.2490 C   0  0  0  0  0  2  0  0  0  0  0  0
  196.9630  175.2070  136.6190 N   0  0  0  0  0  2  0  0  0  0  0  0
  198.8550  175.0840  135.0900 C   0  0  0  0  0  1  0  0  0  0  0  0
  197.5240  175.7440  135.3900 C   0  0  0  0  0  2  0  0  0  0  0  0
  184.1350  177.9480  144.9940 C   0  0  0  0  0  2  0  0  0  0  0  0
  183.6970  179.1790  144.2200 C   0  0  0  0  0  2  0  0  0  0  0  0
  182.2190  179.0650  143.9500 C   0  0  0  0  0  2  0  0  0  0  0  0
  181.8890  179.1440  142.4920 C   0  0  0  0  0  0  0  0  0  0  0  0
  180.8020  179.6630  142.1270 O   0  0  0  0  0  0  0  0  0  0  0  0
  182.8310  178.6850  141.5190 N   0  0  0  0  0  2  0  0  0  0  0  0
  182.5920  178.8140  140.0940 C   0  0  0  0  0  2  0  0  0  0  0  0
  181.9670  177.5460  139.5390 C   0  0  0  0  0  2  0  0  0  0  0  0
  182.2220  176.3710  137.2800 N   0  0  0  0  0  0  0  0  0  0  0  0
  180.3650  173.9080  137.9010 C   0  0  0  0  0  1  0  0  0  0  0  0
  182.5440  175.1230  137.9750 C   0  0  0  0  0  2  0  0  0  0  0  0
  181.7280  173.9930  135.8240 C   0  0  1  0  0  3  0  0  0  0  0  0
  181.7270  178.6650  137.4590 O   0  0  0  0  0  0  0  0  0  0  0  0
  182.6210  175.0770  135.2180 C   0  0  0  0  0  2  0  0  0  0  0  0
  182.0690  172.7440  135.3170 O   0  0  0  0  0  1  0  0  0  0  0  0
  182.2440  176.4290  135.8140 C   0  0  0  0  0  2  0  0  0  0  0  0
  181.7750  173.9540  137.3620 C   0  0  2  0  0  3  0  0  0  0  0  0
  181.9830  177.5750  138.0440 C   0  0  0  0  0  0  0  0  0  0  0  0
  1 41  1  6  0  0  0
  1  7  1  0  0  0  0
  4 11  1  1  0  0  0
  6  2  1  6  0  0  0
  6  4  1  0  0  0  0
  7 10  1  0  0  0  0
  7  5  2  0  0  0  0
  8 13  1  6  0  0  0
  8  4  1  0  0  0  0
  8  1  1  0  0  0  0
  9  3  1  6  0  0  0
  9 12  1  0  0  0  0
  9 13  1  0  0  0  0
 10 15  1  1  0  0  0
 11 10  1  0  0  0  0
 12  6  1  0  0  0  0
 15 16  1  0  0  0  0
 15 14  1  1  0  0  0
 17 16  1  0  0  0  0
 19 17  1  0  0  0  0
 19 18  1  0  0  0  0
 20 19  1  0  0  0  0
 21  9  1  0  0  0  0
 22 21  1  0  0  0  0
 24 23  1  1  0  0  0
 24 22  1  0  0  0  0
 25 24  1  0  0  0  0
 26 31  1  0  0  0  0
 26 29  1  0  0  0  0
 27 31  1  0  0  0  0
 28 27  1  0  0  0  0
 30 28  1  6  0  0  0
 30 29  1  0  0  0  0
 31 25  1  1  0  0  0
 34 35  1  0  0  0  0
 34 30  1  0  0  0  0
 34 32  1  1  0  0  0
 35 33  1  1  0  0  0
 35 32  1  0  0  0  0
 36 37  1  0  0  0  0
 36 35  1  0  0  0  0
 37 38  1  0  0  0  0
 39 40  1  0  0  0  0
 40 38  1  0  0  0  0
 42 41  1  0  0  0  0
 43 42  1  0  0  0  0
 44 43  1  0  0  0  0
 45 44  2  0  0  0  0
 46 44  1  0  0  0  0
 47 46  1  0  0  0  0
 48 47  1  0  0  0  0
 49 51  1  0  0  0  0
 49 58  1  0  0  0  0
 52 55  1  6  0  0  0
 52 57  1  0  0  0  0
 53 58  2  0  0  0  0
 54 56  1  0  0  0  0
 54 52  1  0  0  0  0
 56 49  1  0  0  0  0
 57 50  1  1  0  0  0
 57 51  1  0  0  0  0
 58 48  1  0  0  0  0
M  END
>  <MODEL>
2

>  <REMARK>
 VINA RESULT:      -7.4      2.073      2.980
  Name = 
  21 active torsions:
  status: ('A' for Active; 'I' for Inactive)
    1  A    between atoms: C_2  and  C_39
    2  A    between atoms: C_2  and  C_56
    3  A    between atoms: C_3  and  C_23
    4  A    between atoms: C_5  and  C_15
    5  A    between atoms: C_8  and  C_18
    6  A    between atoms: C_15  and  C_45
    7  A    between atoms: C_16  and  C_17
    8  A    between atoms: C_16  and  N_27
    9  A    between atoms: C_17  and  C_51
   10  A    between atoms: C_18  and  C_36
   11  A    between atoms: C_23  and  C_45
   12  A    between atoms: C_24  and  N_32
   13  A    between atoms: O_29  and  C_42
   14  A    between atoms: O_29  and  C_46
   15  A    between atoms: N_32  and  C_39
   16  A    between atoms: C_35  and  N_49
   17  A    between atoms: C_36  and  C_58
   18  A    between atoms: C_44  and  C_58
   19  A    between atoms: C_46  and  C_50
   20  A    between atoms: C_50  and  N_57
   21  A    between atoms: C_54  and  N_57
                            x       y       z     vdW  Elec       q    Type
                         _______ _______ _______ _____ _____    ______ ____

>  <TORSDO>
F 21

$$$$
=
 OpenBabel11042412483D

 58 62  0  0  1  0  0  0  0  0999 V2000
  185.6880  177.7810  145.0230 C   0  0  2  0  0  3  0  0  0  0  0  0
  189.1370  176.5130  142.1230 C   0  0  0  0  0  1  0  0  0  0  0  0
  186.2860  179.9160  141.1470 O   0  0  0  0  0  1  0  0  0  0  0  0
  187.9310  177.5830  144.0150 C   0  0  2  0  0  3  0  0  0  0  0  0
  185.9120  179.2780  146.8690 O   0  0  0  0  0  0  0  0  0  0  0  0
  188.8560  177.8250  142.8140 C   0  0  2  0  0  3  0  0  0  0  0  0
  186.3290  178.2870  146.2890 C   0  0  0  0  0  0  0  0  0  0  0  0
  186.5600  178.2590  143.8670 C   0  0  1  0  0  3  0  0  0  0  0  0
  186.8450  178.6550  141.3840 C   0  0  1  0  0  0  0  0  0  0  0  0
  187.7200  177.7610  146.5390 C   0  0  1  0  0  3  0  0  0  0  0  0
  188.6050  178.0330  145.3200 C   0  0  0  0  0  2  0  0  0  0  0  0
  188.3250  178.8720  141.8350 C   0  0  0  0  0  2  0  0  0  0  0  0
  186.0060  177.9560  142.4790 C   0  0  0  0  0  2  0  0  0  0  0  0
  187.7510  177.6260  149.0940 C   0  0  0  0  0  1  0  0  0  0  0  0
  188.4000  178.1990  147.8440 C   0  0  1  0  0  3  0  0  0  0  0  0
  189.8930  177.9640  147.8560 C   0  0  0  0  0  2  0  0  0  0  0  0
  190.2090  176.6020  147.2450 C   0  0  0  0  0  2  0  0  0  0  0  0
  192.5080  175.7340  147.7320 C   0  0  0  0  0  1  0  0  0  0  0  0
  191.6470  176.5020  146.7470 C   0  0  0  0  0  3  0  0  0  0  0  0
  191.7300  175.8500  145.3770 C   0  0  0  0  0  1  0  0  0  0  0  0
  186.7680  177.8540  140.2080 O   0  0  0  0  0  0  0  0  0  0  0  0
  187.6570  178.3620  139.2400 C   0  0  0  0  0  2  0  0  0  0  0  0
  185.7390  177.1010  137.6360 S   0  0  0  0  0  1  0  0  0  0  0  0
  187.4380  177.7210  137.8680 C   0  0  2  0  0  3  0  0  0  0  0  0
  188.3710  176.6210  137.7240 N   0  0  0  0  0  2  0  0  0  0  0  0
  189.7240  176.5430  135.6890 C   0  0  0  0  0  2  0  0  0  0  0  0
  190.7920  176.8630  137.9820 C   0  0  0  0  0  2  0  0  0  0  0  0
  191.9110  176.1720  137.2100 C   0  0  0  0  0  2  0  0  0  0  0  0
  190.2470  175.0970  135.7660 C   0  0  0  0  0  2  0  0  0  0  0  0
  191.4170  174.9080  136.6530 N   0  0  1  0  0  0  0  0  0  0  0  0
  189.5770  177.1420  137.0920 C   0  0  2  0  0  3  0  0  0  0  0  0
  192.4850  172.8140  136.0710 C   0  0  0  0  0  2  0  0  0  0  0  0
  193.4190  173.9370  138.0610 F   0  0  0  0  0  0  0  0  0  0  0  0
  192.4810  174.3230  135.8460 C   0  0  2  0  0  3  0  0  0  0  0  0
  193.5480  173.6690  136.7180 C   0  0  2  0  0  0  0  0  0  0  0  0
  194.9260  173.6730  136.0810 C   0  0  0  0  0  2  0  0  0  0  0  0
  195.9810  174.0160  137.1140 C   0  0  0  0  0  2  0  0  0  0  0  0
  196.5590  175.3120  136.8020 N   0  0  0  0  0  2  0  0  0  0  0  0
  197.1150  176.1780  134.5940 C   0  0  0  0  0  1  0  0  0  0  0  0
  197.4250  175.1330  135.6470 C   0  0  0  0  0  2  0  0  0  0  0  0
  184.1750  178.0250  144.8630 C   0  0  0  0  0  2  0  0  0  0  0  0
  183.7810  179.2600  144.0720 C   0  0  0  0  0  2  0  0  0  0  0  0
  182.2890  179.2330  143.8660 C   0  0  0  0  0  2  0  0  0  0  0  0
  181.9060  179.0130  142.4350 C   0  0  0  0  0  0  0  0  0  0  0  0
  180.7660  179.3670  142.0360 O   0  0  0  0  0  0  0  0  0  0  0  0
  182.8520  178.4610  141.5180 N   0  0  0  0  0  2  0  0  0  0  0  0
  182.5570  178.3040  140.1060 C   0  0  0  0  0  2  0  0  0  0  0  0
  182.5940  179.6480  139.3980 C   0  0  0  0  0  2  0  0  0  0  0  0
  181.0510  180.4930  137.5400 N   0  0  0  0  0  0  0  0  0  0  0  0
  181.9140  183.5160  137.6530 C   0  0  0  0  0  1  0  0  0  0  0  0
  180.5780  181.5560  138.4290 C   0  0  0  0  0  2  0  0  0  0  0  0
  179.9920  182.7830  136.2560 C   0  0  1  0  0  3  0  0  0  0  0  0
  182.4090  178.5880  137.2820 O   0  0  0  0  0  0  0  0  0  0  0  0
  179.4190  181.4030  135.9300 C   0  0  0  0  0  2  0  0  0  0  0  0
  179.0330  183.7680  136.0470 O   0  0  0  0  0  1  0  0  0  0  0  0
  180.4820  180.3430  136.1960 C   0  0  0  0  0  2  0  0  0  0  0  0
  180.5380  182.8930  137.6910 C   0  0  2  0  0  3  0  0  0  0  0  0
  182.0080  179.5250  138.0280 C   0  0  0  0  0  0  0  0  0  0  0  0
  1 41  1  6  0  0  0
  1  7  1  0  0  0  0
  4 11  1  1  0  0  0
  6  2  1  6  0  0  0
  6  4  1  0  0  0  0
  7 10  1  0  0  0  0
  7  5  2  0  0  0  0
  8 13  1  6  0  0  0
  8  4  1  0  0  0  0
  8  1  1  0  0  0  0
  9  3  1  6  0  0  0
  9 12  1  0  0  0  0
  9 13  1  0  0  0  0
 10 15  1  1  0  0  0
 11 10  1  0  0  0  0
 12  6  1  0  0  0  0
 15 16  1  0  0  0  0
 15 14  1  1  0  0  0
 17 16  1  0  0  0  0
 19 17  1  0  0  0  0
 19 18  1  0  0  0  0
 20 19  1  0  0  0  0
 21  9  1  0  0  0  0
 22 21  1  0  0  0  0
 24 23  1  1  0  0  0
 24 22  1  0  0  0  0
 25 24  1  0  0  0  0
 26 29  1  0  0  0  0
 26 31  1  0  0  0  0
 28 27  1  0  0  0  0
 30 29  1  6  0  0  0
 30 28  1  0  0  0  0
 31 25  1  1  0  0  0
 31 27  1  0  0  0  0
 32 35  1  0  0  0  0
 34 32  1  6  0  0  0
 34 30  1  0  0  0  0
 34 35  1  0  0  0  0
 35 33  1  1  0  0  0
 36 35  1  0  0  0  0
 36 37  1  0  0  0  0
 38 37  1  0  0  0  0
 39 40  1  0  0  0  0
 40 38  1  0  0  0  0
 42 41  1  0  0  0  0
 43 42  1  0  0  0  0
 44 43  1  0  0  0  0
 45 44  2  0  0  0  0
 46 44  1  0  0  0  0
 47 46  1  0  0  0  0
 48 47  1  0  0  0  0
 49 58  1  0  0  0  0
 49 51  1  0  0  0  0
 52 55  1  1  0  0  0
 52 57  1  0  0  0  0
 53 58  2  0  0  0  0
 54 56  1  0  0  0  0
 54 52  1  0  0  0  0
 56 49  1  0  0  0  0
 57 50  1  6  0  0  0
 57 51  1  0  0  0  0
 58 48  1  0  0  0  0
M  END
>  <MODEL>
3

>  <REMARK>
 VINA RESULT:      -7.3      2.372      2.934
  Name = 
  21 active torsions:
  status: ('A' for Active; 'I' for Inactive)
    1  A    between atoms: C_2  and  C_39
    2  A    between atoms: C_2  and  C_56
    3  A    between atoms: C_3  and  C_23
    4  A    between atoms: C_5  and  C_15
    5  A    between atoms: C_8  and  C_18
    6  A    between atoms: C_15  and  C_45
    7  A    between atoms: C_16  and  C_17
    8  A    between atoms: C_16  and  N_27
    9  A    between atoms: C_17  and  C_51
   10  A    between atoms: C_18  and  C_36
   11  A    between atoms: C_23  and  C_45
   12  A    between atoms: C_24  and  N_32
   13  A    between atoms: O_29  and  C_42
   14  A    between atoms: O_29  and  C_46
   15  A    between atoms: N_32  and  C_39
   16  A    between atoms: C_35  and  N_49
   17  A    between atoms: C_36  and  C_58
   18  A    between atoms: C_44  and  C_58
   19  A    between atoms: C_46  and  C_50
   20  A    between atoms: C_50  and  N_57
   21  A    between atoms: C_54  and  N_57
                            x       y       z     vdW  Elec       q    Type
                         _______ _______ _______ _____ _____    ______ ____

>  <TORSDO>
F 21

$$$$
=
 OpenBabel11042412483D

 58 62  0  0  1  0  0  0  0  0999 V2000
  187.6540  178.3490  141.3960 C   0  0  2  0  0  3  0  0  0  0  0  0
  184.1410  180.1160  143.9380 C   0  0  0  0  0  1  0  0  0  0  0  0
  183.4260  177.2200  140.5070 O   0  0  0  0  0  1  0  0  0  0  0  0
  186.0390  178.6720  143.2350 C   0  0  2  0  0  3  0  0  0  0  0  0
  188.9500  176.4290  141.9730 O   0  0  0  0  0  0  0  0  0  0  0  0
  184.5810  178.6890  143.7120 C   0  0  2  0  0  3  0  0  0  0  0  0
  188.4980  177.5100  142.3200 C   0  0  0  0  0  0  0  0  0  0  0  0
  186.2020  178.1290  141.8070 C   0  0  1  0  0  3  0  0  0  0  0  0
  183.7390  178.3500  141.2710 C   0  0  1  0  0  0  0  0  0  0  0  0
  188.3910  177.8820  143.7770 C   0  0  1  0  0  3  0  0  0  0  0  0
  186.9210  177.8760  144.2080 C   0  0  0  0  0  2  0  0  0  0  0  0
  183.6240  177.9500  142.7760 C   0  0  0  0  0  2  0  0  0  0  0  0
  185.1730  178.7980  140.9030 C   0  0  0  0  0  2  0  0  0  0  0  0
  190.6830  177.6510  144.8910 C   0  0  0  0  0  1  0  0  0  0  0  0
  189.2720  177.0970  144.7590 C   0  0  1  0  0  3  0  0  0  0  0  0
  188.6400  176.9020  146.1180 C   0  0  0  0  0  2  0  0  0  0  0  0
  189.1370  177.9770  147.0800 C   0  0  0  0  0  2  0  0  0  0  0  0
  186.7250  178.6230  147.2790 C   0  0  0  0  0  1  0  0  0  0  0  0
  188.0430  178.4770  148.0170 C   0  0  0  0  0  3  0  0  0  0  0  0
  187.8600  177.5630  149.2170 C   0  0  0  0  0  1  0  0  0  0  0  0
  182.8580  179.4230  140.9460 O   0  0  0  0  0  0  0  0  0  0  0  0
  181.5300  179.0280  141.2030 C   0  0  0  0  0  2  0  0  0  0  0  0
  179.2200  180.4460  140.4990 S   0  0  0  0  0  1  0  0  0  0  0  0
  180.6000  179.3490  140.0310 C   0  0  2  0  0  3  0  0  0  0  0  0
  180.0650  178.1040  139.5180 N   0  0  0  0  0  2  0  0  0  0  0  0
  180.2430  176.6630  137.5510 C   0  0  0  0  0  2  0  0  0  0  0  0
  181.5400  178.8520  137.7150 C   0  0  0  0  0  2  0  0  0  0  0  0
  182.4440  178.0210  136.8090 C   0  0  0  0  0  2  0  0  0  0  0  0
  181.5870  175.9700  137.8420 C   0  0  0  0  0  2  0  0  0  0  0  0
  182.7840  176.7600  137.4780 N   0  0  1  0  0  0  0  0  0  0  0  0
  180.2520  178.1040  138.0710 C   0  0  2  0  0  3  0  0  0  0  0  0
  184.3450  174.9140  137.3490 C   0  0  0  0  0  2  0  0  0  0  0  0
  185.3840  177.1300  137.6680 F   0  0  0  0  0  0  0  0  0  0  0  0
  183.5670  175.9540  136.5490 C   0  0  2  0  0  3  0  0  0  0  0  0
  185.0640  176.1190  136.7930 C   0  0  2  0  0  0  0  0  0  0  0  0
  185.8990  175.9180  135.5410 C   0  0  0  0  0  2  0  0  0  0  0  0
  185.9600  174.4470  135.1800 C   0  0  0  0  0  2  0  0  0  0  0  0
  187.3430  174.0010  135.1960 N   0  0  0  0  0  2  0  0  0  0  0  0
  187.5900  172.2130  136.8320 C   0  0  0  0  0  1  0  0  0  0  0  0
  187.3310  172.5590  135.3790 C   0  0  0  0  0  2  0  0  0  0  0  0
  187.9470  178.2340  139.8880 C   0  0  0  0  0  2  0  0  0  0  0  0
  189.4120  178.2710  139.4920 C   0  0  0  0  0  2  0  0  0  0  0  0
  189.5050  178.0360  138.0070 C   0  0  0  0  0  2  0  0  0  0  0  0
  190.3400  176.8420  137.6600 C   0  0  0  0  0  0  0  0  0  0  0  0
  191.5960  176.9250  137.7120 O   0  0  0  0  0  0  0  0  0  0  0  0
  189.7120  175.6020  137.3310 N   0  0  0  0  0  2  0  0  0  0  0  0
  190.4770  174.3970  137.0660 C   0  0  0  0  0  2  0  0  0  0  0  0
  190.8750  174.3260  135.6020 C   0  0  0  0  0  2  0  0  0  0  0  0
  193.2800  173.4670  135.4310 N   0  0  0  0  0  0  0  0  0  0  0  0
  194.3920  174.8850  138.0100 C   0  0  0  0  0  1  0  0  0  0  0  0
  193.7710  174.8370  135.5920 C   0  0  0  0  0  2  0  0  0  0  0  0
  195.9160  173.7140  136.4330 C   0  0  1  0  0  3  0  0  0  0  0  0
  191.4160  172.0450  135.2260 O   0  0  0  0  0  0  0  0  0  0  0  0
  195.6600  172.8690  135.1840 C   0  0  0  0  0  2  0  0  0  0  0  0
  197.2160  174.2090  136.4250 O   0  0  0  0  0  1  0  0  0  0  0  0
  194.2210  172.3640  135.2060 C   0  0  0  0  0  2  0  0  0  0  0  0
  194.9230  174.8780  136.5960 C   0  0  2  0  0  3  0  0  0  0  0  0
  191.8560  173.2170  135.3880 C   0  0  0  0  0  0  0  0  0  0  0  0
  1 41  1  6  0  0  0
  1  8  1  0  0  0  0
  1  7  1  0  0  0  0
  4  6  1  0  0  0  0
  4 11  1  1  0  0  0
  5  7  2  0  0  0  0
  6  2  1  6  0  0  0
  7 10  1  0  0  0  0
  8 13  1  6  0  0  0
  8  4  1  0  0  0  0
  9  3  1  6  0  0  0
  9 12  1  0  0  0  0
 10 11  1  0  0  0  0
 10 15  1  1  0  0  0
 12  6  1  0  0  0  0
 13  9  1  0  0  0  0
 15 14  1  1  0  0  0
 15 16  1  0  0  0  0
 16 17  1  0  0  0  0
 17 19  1  0  0  0  0
 18 19  1  0  0  0  0
 19 20  1  0  0  0  0
 21 22  1  0  0  0  0
 21  9  1  0  0  0  0
 24 23  1  1  0  0  0
 24 22  1  0  0  0  0
 25 24  1  0  0  0  0
 26 29  1  0  0  0  0
 26 31  1  0  0  0  0
 27 31  1  0  0  0  0
 28 27  1  0  0  0  0
 30 28  1  6  0  0  0
 30 29  1  0  0  0  0
 31 25  1  1  0  0  0
 34 35  1  0  0  0  0
 34 32  1  1  0  0  0
 34 30  1  0  0  0  0
 35 32  1  0  0  0  0
 35 33  1  1  0  0  0
 36 35  1  0  0  0  0
 37 38  1  0  0  0  0
 37 36  1  0  0  0  0
 38 40  1  0  0  0  0
 40 39  1  0  0  0  0
 42 41  1  0  0  0  0
 43 42  1  0  0  0  0
 44 45  2  0  0  0  0
 44 43  1  0  0  0  0
 46 44  1  0  0  0  0
 47 46  1  0  0  0  0
 48 47  1  0  0  0  0
 49 51  1  0  0  0  0
 51 57  1  0  0  0  0
 52 55  1  6  0  0  0
 52 57  1  0  0  0  0
 53 58  2  0  0  0  0
 54 56  1  0  0  0  0
 54 52  1  0  0  0  0
 56 49  1  0  0  0  0
 57 50  1  1  0  0  0
 58 49  1  0  0  0  0
 58 48  1  0  0  0  0
M  END
>  <MODEL>
4

>  <REMARK>
 VINA RESULT:      -6.7      3.281      9.317
  Name = 
  21 active torsions:
  status: ('A' for Active; 'I' for Inactive)
    1  A    between atoms: C_2  and  C_39
    2  A    between atoms: C_2  and  C_56
    3  A    between atoms: C_3  and  C_23
    4  A    between atoms: C_5  and  C_15
    5  A    between atoms: C_8  and  C_18
    6  A    between atoms: C_15  and  C_45
    7  A    between atoms: C_16  and  C_17
    8  A    between atoms: C_16  and  N_27
    9  A    between atoms: C_17  and  C_51
   10  A    between atoms: C_18  and  C_36
   11  A    between atoms: C_23  and  C_45
   12  A    between atoms: C_24  and  N_32
   13  A    between atoms: O_29  and  C_42
   14  A    between atoms: O_29  and  C_46
   15  A    between atoms: N_32  and  C_39
   16  A    between atoms: C_35  and  N_49
   17  A    between atoms: C_36  and  C_58
   18  A    between atoms: C_44  and  C_58
   19  A    between atoms: C_46  and  C_50
   20  A    between atoms: C_50  and  N_57
   21  A    between atoms: C_54  and  N_57
                            x       y       z     vdW  Elec       q    Type
                         _______ _______ _______ _____ _____    ______ ____

>  <TORSDO>
F 21

$$$$
=
 OpenBabel11042412483D

 58 62  0  0  1  0  0  0  0  0999 V2000
  185.7050  178.9140  140.8900 C   0  0  2  0  0  3  0  0  0  0  0  0
  187.7540  179.1140  136.6860 C   0  0  0  0  0  1  0  0  0  0  0  0
  188.9210  176.0150  139.8010 O   0  0  0  0  0  1  0  0  0  0  0  0
  186.1060  178.6030  138.4750 C   0  0  2  0  0  3  0  0  0  0  0  0
  183.6610  177.7820  141.3820 O   0  0  0  0  0  0  0  0  0  0  0  0
  186.9710  178.0090  137.3550 C   0  0  2  0  0  3  0  0  0  0  0  0
  184.2540  178.5760  140.6670 C   0  0  0  0  0  0  0  0  0  0  0  0
  186.5050  178.1090  139.8740 C   0  0  1  0  0  3  0  0  0  0  0  0
  188.7370  177.2080  139.0920 C   0  0  1  0  0  0  0  0  0  0  0  0
  183.7290  178.9430  139.3010 C   0  0  1  0  0  3  0  0  0  0  0  0
  184.6170  178.3220  138.2200 C   0  0  0  0  0  2  0  0  0  0  0  0
  187.8870  176.8790  137.8250 C   0  0  0  0  0  2  0  0  0  0  0  0
  188.0190  178.2140  140.0220 C   0  0  0  0  0  2  0  0  0  0  0  0
  181.4910  179.8710  138.4760 C   0  0  0  0  0  1  0  0  0  0  0  0
  182.2410  178.6720  139.0370 C   0  0  1  0  0  3  0  0  0  0  0  0
  181.9900  177.4400  138.1980 C   0  0  0  0  0  2  0  0  0  0  0  0
  181.2790  177.8290  136.9050 C   0  0  0  0  0  2  0  0  0  0  0  0
  182.6700  177.7480  134.8230 C   0  0  0  0  0  1  0  0  0  0  0  0
  181.7160  176.9780  135.7170 C   0  0  0  0  0  3  0  0  0  0  0  0
  182.3640  175.6760  136.1570 C   0  0  0  0  0  1  0  0  0  0  0  0
  190.0000  177.7730  138.7440 O   0  0  0  0  0  0  0  0  0  0  0  0
  190.4060  177.2660  137.4940 C   0  0  0  0  0  2  0  0  0  0  0  0
  192.8880  176.5360  138.5650 S   0  0  0  0  0  1  0  0  0  0  0  0
  191.3800  176.0950  137.6390 C   0  0  2  0  0  3  0  0  0  0  0  0
  191.7520  175.6420  136.3130 N   0  0  0  0  0  2  0  0  0  0  0  0
  190.7600  174.0450  134.7510 C   0  0  0  0  0  2  0  0  0  0  0  0
  190.2520  173.9510  137.2480 C   0  0  0  0  0  2  0  0  0  0  0  0
  188.9780  173.3630  136.6480 C   0  0  0  0  0  2  0  0  0  0  0  0
  189.3530  174.6530  134.5970 C   0  0  0  0  0  2  0  0  0  0  0  0
  188.4080  174.3090  135.6830 N   0  0  1  0  0  0  0  0  0  0  0  0
  191.2940  174.2650  136.1700 C   0  0  2  0  0  3  0  0  0  0  0  0
  186.1710  174.7380  134.8590 C   0  0  0  0  0  2  0  0  0  0  0  0
  186.3000  174.1580  137.2550 F   0  0  0  0  0  0  0  0  0  0  0  0
  187.2490  173.6780  135.0620 C   0  0  2  0  0  3  0  0  0  0  0  0
  186.0280  173.7320  135.9750 C   0  0  2  0  0  0  0  0  0  0  0  0
  185.0660  172.5780  135.7570 C   0  0  0  0  0  2  0  0  0  0  0  0
  184.4590  172.1440  137.0760 C   0  0  0  0  0  2  0  0  0  0  0  0
  183.0850  172.6100  137.1530 N   0  0  0  0  0  2  0  0  0  0  0  0
  180.7750  171.8360  137.1570 C   0  0  0  0  0  1  0  0  0  0  0  0
  182.2250  171.4600  136.9240 C   0  0  0  0  0  2  0  0  0  0  0  0
  186.2170  178.8570  142.3420 C   0  0  0  0  0  2  0  0  0  0  0  0
  185.4500  179.6940  143.3500 C   0  0  0  0  0  2  0  0  0  0  0  0
  184.8160  178.7630  144.3510 C   0  0  0  0  0  2  0  0  0  0  0  0
  185.8220  177.9350  145.0890 C   0  0  0  0  0  0  0  0  0  0  0  0
  186.3360  176.9330  144.5270 O   0  0  0  0  0  0  0  0  0  0  0  0
  186.2370  178.3170  146.4020 N   0  0  0  0  0  2  0  0  0  0  0  0
  187.2670  177.5940  147.1260 C   0  0  0  0  0  2  0  0  0  0  0  0
  188.5940  178.3270  147.0440 C   0  0  0  0  0  2  0  0  0  0  0  0
  190.1920  177.1930  145.3980 N   0  0  0  0  0  0  0  0  0  0  0  0
  191.1230  179.7930  143.8920 C   0  0  0  0  0  1  0  0  0  0  0  0
  189.5440  177.9020  144.2940 C   0  0  0  0  0  2  0  0  0  0  0  0
  191.7670  177.5370  143.0710 C   0  0  1  0  0  3  0  0  0  0  0  0
  190.2310  176.7410  147.7080 O   0  0  0  0  0  0  0  0  0  0  0  0
  191.5540  176.1320  143.6370 C   0  0  0  0  0  2  0  0  0  0  0  0
  192.0040  177.4770  141.7020 O   0  0  0  0  0  1  0  0  0  0  0  0
  191.2680  176.2320  145.1320 C   0  0  0  0  0  2  0  0  0  0  0  0
  190.5890  178.4890  143.3470 C   0  0  2  0  0  3  0  0  0  0  0  0
  189.6980  177.3630  146.7470 C   0  0  0  0  0  0  0  0  0  0  0  0
  1 41  1  1  0  0  0
  4 11  1  6  0  0  0
  4  8  1  0  0  0  0
  6  2  1  1  0  0  0
  6 12  1  0  0  0  0
  6  4  1  0  0  0  0
  7  1  1  0  0  0  0
  7  5  2  0  0  0  0
  8 13  1  1  0  0  0
  8  1  1  0  0  0  0
  9  3  1  1  0  0  0
  9 13  1  0  0  0  0
 10 15  1  1  0  0  0
 10  7  1  0  0  0  0
 11 10  1  0  0  0  0
 12  9  1  0  0  0  0
 15 14  1  6  0  0  0
 16 15  1  0  0  0  0
 17 16  1  0  0  0  0
 18 19  1  0  0  0  0
 19 20  1  0  0  0  0
 19 17  1  0  0  0  0
 21  9  1  0  0  0  0
 22 24  1  0  0  0  0
 22 21  1  0  0  0  0
 24 23  1  6  0  0  0
 25 24  1  0  0  0  0
 26 31  1  0  0  0  0
 28 27  1  0  0  0  0
 29 26  1  0  0  0  0
 30 29  1  6  0  0  0
 30 28  1  0  0  0  0
 31 25  1  6  0  0  0
 31 27  1  0  0  0  0
 32 35  1  0  0  0  0
 34 32  1  6  0  0  0
 34 30  1  0  0  0  0
 34 35  1  0  0  0  0
 35 33  1  1  0  0  0
 36 35  1  0  0  0  0
 36 37  1  0  0  0  0
 37 38  1  0  0  0  0
 40 38  1  0  0  0  0
 40 39  1  0  0  0  0
 41 42  1  0  0  0  0
 42 43  1  0  0  0  0
 43 44  1  0  0  0  0
 44 46  1  0  0  0  0
 45 44  2  0  0  0  0
 46 47  1  0  0  0  0
 48 47  1  0  0  0  0
 49 58  1  0  0  0  0
 51 49  1  0  0  0  0
 52 55  1  6  0  0  0
 52 57  1  0  0  0  0
 52 54  1  0  0  0  0
 54 56  1  0  0  0  0
 56 49  1  0  0  0  0
 57 50  1  1  0  0  0
 57 51  1  0  0  0  0
 58 48  1  0  0  0  0
 58 53  2  0  0  0  0
M  END
>  <MODEL>
5

>  <REMARK>
 VINA RESULT:      -6.7      3.315      8.741
  Name = 
  21 active torsions:
  status: ('A' for Active; 'I' for Inactive)
    1  A    between atoms: C_2  and  C_39
    2  A    between atoms: C_2  and  C_56
    3  A    between atoms: C_3  and  C_23
    4  A    between atoms: C_5  and  C_15
    5  A    between atoms: C_8  and  C_18
    6  A    between atoms: C_15  and  C_45
    7  A    between atoms: C_16  and  C_17
    8  A    between atoms: C_16  and  N_27
    9  A    between atoms: C_17  and  C_51
   10  A    between atoms: C_18  and  C_36
   11  A    between atoms: C_23  and  C_45
   12  A    between atoms: C_24  and  N_32
   13  A    between atoms: O_29  and  C_42
   14  A    between atoms: O_29  and  C_46
   15  A    between atoms: N_32  and  C_39
   16  A    between atoms: C_35  and  N_49
   17  A    between atoms: C_36  and  C_58
   18  A    between atoms: C_44  and  C_58
   19  A    between atoms: C_46  and  C_50
   20  A    between atoms: C_50  and  N_57
   21  A    between atoms: C_54  and  N_57
                            x       y       z     vdW  Elec       q    Type
                         _______ _______ _______ _____ _____    ______ ____

>  <TORSDO>
F 21

$$$$
=
 OpenBabel11042412483D

 58 62  0  0  1  0  0  0  0  0999 V2000
  186.5330  177.6200  144.4270 C   0  0  2  0  0  3  0  0  0  0  0  0
  190.3490  175.6830  142.5270 C   0  0  0  0  0  1  0  0  0  0  0  0
  188.2900  179.2880  140.6760 O   0  0  0  0  0  1  0  0  0  0  0  0
  188.9000  177.0640  144.0020 C   0  0  2  0  0  3  0  0  0  0  0  0
  186.5310  179.2500  146.1710 O   0  0  0  0  0  0  0  0  0  0  0  0
  190.0990  177.0800  143.0440 C   0  0  2  0  0  3  0  0  0  0  0  0
  186.9310  178.1660  145.7740 C   0  0  0  0  0  0  0  0  0  0  0  0
  187.7040  177.8780  143.4860 C   0  0  1  0  0  3  0  0  0  0  0  0
  188.6020  177.9990  141.1230 C   0  0  1  0  0  0  0  0  0  0  0  0
  188.1420  177.5060  146.3840 C   0  0  1  0  0  3  0  0  0  0  0  0
  189.3110  177.5550  145.3980 C   0  0  0  0  0  2  0  0  0  0  0  0
  189.9540  178.0830  141.9000 C   0  0  0  0  0  2  0  0  0  0  0  0
  187.4470  177.5110  142.0280 C   0  0  0  0  0  2  0  0  0  0  0  0
  187.5330  177.6800  148.8640 C   0  0  0  0  0  1  0  0  0  0  0  0
  188.5590  177.9850  147.7830 C   0  0  1  0  0  3  0  0  0  0  0  0
  189.9340  177.5150  148.1970 C   0  0  0  0  0  2  0  0  0  0  0  0
  190.1630  176.0870  147.7130 C   0  0  0  0  0  2  0  0  0  0  0  0
  192.1380  175.5940  146.2510 C   0  0  0  0  0  1  0  0  0  0  0  0
  191.6400  175.7080  147.6800 C   0  0  0  0  0  3  0  0  0  0  0  0
  192.4990  176.7020  148.4450 C   0  0  0  0  0  1  0  0  0  0  0  0
  188.6880  177.1030  140.0170 O   0  0  0  0  0  0  0  0  0  0  0  0
  188.4510  177.8130  138.8240 C   0  0  0  0  0  2  0  0  0  0  0  0
  190.8990  176.7970  137.9220 S   0  0  0  0  0  1  0  0  0  0  0  0
  189.1370  177.1600  137.6220 C   0  0  2  0  0  3  0  0  0  0  0  0
  189.0220  178.0560  136.4880 N   0  0  0  0  0  2  0  0  0  0  0  0
  187.4630  177.9770  134.6070 C   0  0  0  0  0  2  0  0  0  0  0  0
  188.2250  175.8510  135.7910 C   0  0  0  0  0  2  0  0  0  0  0  0
  186.8430  175.4480  135.2840 C   0  0  0  0  0  2  0  0  0  0  0  0
  186.1340  177.7930  135.3620 C   0  0  0  0  0  2  0  0  0  0  0  0
  185.8420  176.4020  135.7740 N   0  0  1  0  0  0  0  0  0  0  0  0
  188.6060  177.2630  135.3380 C   0  0  2  0  0  3  0  0  0  0  0  0
  183.4600  176.3700  136.2060 C   0  0  0  0  0  2  0  0  0  0  0  0
  184.6760  174.3530  136.9470 F   0  0  0  0  0  0  0  0  0  0  0  0
  184.5540  176.0420  135.1950 C   0  0  2  0  0  3  0  0  0  0  0  0
  183.8740  174.9340  135.9930 C   0  0  2  0  0  0  0  0  0  0  0  0
  182.9610  174.0620  135.1480 C   0  0  0  0  0  2  0  0  0  0  0  0
  181.5110  174.4300  135.3900 C   0  0  0  0  0  2  0  0  0  0  0  0
  180.6670  173.2800  135.1130 N   0  0  0  0  0  2  0  0  0  0  0  0
  180.8360  170.8780  134.7460 C   0  0  0  0  0  1  0  0  0  0  0  0
  181.4410  172.0900  135.4260 C   0  0  0  0  0  2  0  0  0  0  0  0
  185.1450  178.0230  143.8950 C   0  0  0  0  0  2  0  0  0  0  0  0
  184.1400  178.4790  144.9380 C   0  0  0  0  0  2  0  0  0  0  0  0
  183.2840  179.5570  144.3280 C   0  0  0  0  0  2  0  0  0  0  0  0
  182.1270  179.0080  143.5510 C   0  0  0  0  0  0  0  0  0  0  0  0
  181.1070  178.5960  144.1630 O   0  0  0  0  0  0  0  0  0  0  0  0
  182.1610  179.0070  142.1230 N   0  0  0  0  0  2  0  0  0  0  0  0
  181.0340  178.5610  141.3250 C   0  0  0  0  0  2  0  0  0  0  0  0
  180.6610  179.6090  140.2910 C   0  0  0  0  0  2  0  0  0  0  0  0
  180.7050  179.9020  137.7490 N   0  0  0  0  0  0  0  0  0  0  0  0
  181.3290  182.9850  137.7160 C   0  0  0  0  0  1  0  0  0  0  0  0
  179.7820  181.0320  137.8720 C   0  0  0  0  0  2  0  0  0  0  0  0
  180.7640  181.7700  135.6230 C   0  0  1  0  0  3  0  0  0  0  0  0
  181.8800  178.1780  138.8400 O   0  0  0  0  0  0  0  0  0  0  0  0
  180.5200  180.2900  135.3200 C   0  0  0  0  0  2  0  0  0  0  0  0
  180.1830  182.5670  134.6420 O   0  0  0  0  0  1  0  0  0  0  0  0
  181.1430  179.4440  136.4250 C   0  0  0  0  0  2  0  0  0  0  0  0
  180.2490  182.2020  137.0070 C   0  0  2  0  0  3  0  0  0  0  0  0
  181.1030  179.1700  138.9310 C   0  0  0  0  0  0  0  0  0  0  0  0
  1 41  1  6  0  0  0
  1  7  1  0  0  0  0
  4 11  1  1  0  0  0
  6  2  1  6  0  0  0
  6  4  1  0  0  0  0
  7  5  2  0  0  0  0
  7 10  1  0  0  0  0
  8 13  1  6  0  0  0
  8  4  1  0  0  0  0
  8  1  1  0  0  0  0
  9  3  1  6  0  0  0
  9 12  1  0  0  0  0
  9 13  1  0  0  0  0
 10 15  1  1  0  0  0
 11 10  1  0  0  0  0
 12  6  1  0  0  0  0
 15 16  1  0  0  0  0
 15 14  1  1  0  0  0
 17 16  1  0  0  0  0
 18 19  1  0  0  0  0
 19 17  1  0  0  0  0
 19 20  1  0  0  0  0
 21  9  1  0  0  0  0
 22 21  1  0  0  0  0
 24 23  1  1  0  0  0
 24 22  1  0  0  0  0
 25 24  1  0  0  0  0
 26 31  1  0  0  0  0
 26 29  1  0  0  0  0
 28 27  1  0  0  0  0
 29 30  1  0  0  0  0
 30 28  1  6  0  0  0
 31 27  1  0  0  0  0
 31 25  1  1  0  0  0
 34 30  1  0  0  0  0
 34 35  1  0  0  0  0
 34 32  1  1  0  0  0
 35 32  1  0  0  0  0
 35 33  1  1  0  0  0
 36 37  1  0  0  0  0
 36 35  1  0  0  0  0
 38 37  1  0  0  0  0
 38 40  1  0  0  0  0
 39 40  1  0  0  0  0
 41 42  1  0  0  0  0
 43 42  1  0  0  0  0
 44 45  2  0  0  0  0
 44 43  1  0  0  0  0
 46 44  1  0  0  0  0
 47 46  1  0  0  0  0
 48 47  1  0  0  0  0
 49 51  1  0  0  0  0
 49 58  1  0  0  0  0
 52 55  1  6  0  0  0
 52 57  1  0  0  0  0
 53 58  2  0  0  0  0
 54 52  1  0  0  0  0
 54 56  1  0  0  0  0
 56 49  1  0  0  0  0
 57 50  1  1  0  0  0
 57 51  1  0  0  0  0
 58 48  1  0  0  0  0
M  END
>  <MODEL>
6

>  <REMARK>
 VINA RESULT:      -6.4      4.183      6.475
  Name = 
  21 active torsions:
  status: ('A' for Active; 'I' for Inactive)
    1  A    between atoms: C_2  and  C_39
    2  A    between atoms: C_2  and  C_56
    3  A    between atoms: C_3  and  C_23
    4  A    between atoms: C_5  and  C_15
    5  A    between atoms: C_8  and  C_18
    6  A    between atoms: C_15  and  C_45
    7  A    between atoms: C_16  and  C_17
    8  A    between atoms: C_16  and  N_27
    9  A    between atoms: C_17  and  C_51
   10  A    between atoms: C_18  and  C_36
   11  A    between atoms: C_23  and  C_45
   12  A    between atoms: C_24  and  N_32
   13  A    between atoms: O_29  and  C_42
   14  A    between atoms: O_29  and  C_46
   15  A    between atoms: N_32  and  C_39
   16  A    between atoms: C_35  and  N_49
   17  A    between atoms: C_36  and  C_58
   18  A    between atoms: C_44  and  C_58
   19  A    between atoms: C_46  and  C_50
   20  A    between atoms: C_50  and  N_57
   21  A    between atoms: C_54  and  N_57
                            x       y       z     vdW  Elec       q    Type
                         _______ _______ _______ _____ _____    ______ ____

>  <TORSDO>
F 21

$$$$
=
 OpenBabel11042412483D

 58 62  0  0  1  0  0  0  0  0999 V2000
  186.5350  177.5410  144.4720 C   0  0  2  0  0  3  0  0  0  0  0  0
  190.3570  176.0000  142.2510 C   0  0  0  0  0  1  0  0  0  0  0  0
  187.8650  179.4550  140.6640 O   0  0  0  0  0  1  0  0  0  0  0  0
  188.9040  177.2090  143.8660 C   0  0  2  0  0  3  0  0  0  0  0  0
  186.5170  179.1180  146.2630 O   0  0  0  0  0  0  0  0  0  0  0  0
  190.0250  177.3550  142.8280 C   0  0  2  0  0  3  0  0  0  0  0  0
  186.9790  178.0850  145.8050 C   0  0  0  0  0  0  0  0  0  0  0  0
  187.6080  177.9260  143.4600 C   0  0  1  0  0  3  0  0  0  0  0  0
  188.3190  178.1870  141.0460 C   0  0  1  0  0  0  0  0  0  0  0  0
  188.2840  177.5200  146.3080 C   0  0  1  0  0  3  0  0  0  0  0  0
  189.3710  177.6970  145.2450 C   0  0  0  0  0  2  0  0  0  0  0  0
  189.7120  178.3710  141.7290 C   0  0  0  0  0  2  0  0  0  0  0  0
  187.2790  177.5750  142.0130 C   0  0  0  0  0  2  0  0  0  0  0  0
  187.7520  177.7430  148.8010 C   0  0  0  0  0  1  0  0  0  0  0  0
  188.7570  177.9970  147.6890 C   0  0  1  0  0  3  0  0  0  0  0  0
  190.1250  177.4810  148.0710 C   0  0  0  0  0  2  0  0  0  0  0  0
  190.2390  176.0010  147.7170 C   0  0  0  0  0  2  0  0  0  0  0  0
  192.0300  176.1110  145.9680 C   0  0  0  0  0  1  0  0  0  0  0  0
  191.6620  175.5940  147.3470 C   0  0  0  0  0  3  0  0  0  0  0  0
  192.6770  176.0830  148.3660 C   0  0  0  0  0  1  0  0  0  0  0  0
  188.4030  177.3310  139.9090 O   0  0  0  0  0  0  0  0  0  0  0  0
  187.4460  177.7300  138.9550 C   0  0  0  0  0  2  0  0  0  0  0  0
  186.7830  178.1140  136.2620 S   0  0  0  0  0  1  0  0  0  0  0  0
  188.0410  177.8210  137.5480 C   0  0  2  0  0  3  0  0  0  0  0  0
  188.7340  176.5800  137.2640 N   0  0  0  0  0  2  0  0  0  0  0  0
  190.3500  176.8450  135.4490 C   0  0  0  0  0  2  0  0  0  0  0  0
  191.0550  175.9700  137.7380 C   0  0  0  0  0  2  0  0  0  0  0  0
  192.0770  175.3050  136.8210 C   0  0  0  0  0  2  0  0  0  0  0  0
  190.4670  175.3850  134.9740 C   0  0  0  0  0  2  0  0  0  0  0  0
  191.3800  174.5420  135.7790 N   0  0  1  0  0  0  0  0  0  0  0  0
  190.1230  176.9060  136.9630 C   0  0  2  0  0  3  0  0  0  0  0  0
  192.0450  172.5380  134.5940 C   0  0  0  0  0  2  0  0  0  0  0  0
  192.9620  172.7460  136.8760 F   0  0  0  0  0  0  0  0  0  0  0  0
  192.3820  174.0000  134.8690 C   0  0  2  0  0  3  0  0  0  0  0  0
  193.1830  172.8800  135.5250 C   0  0  2  0  0  0  0  0  0  0  0  0
  194.5940  172.7550  134.9790 C   0  0  0  0  0  2  0  0  0  0  0  0
  195.5720  172.4930  136.1070 C   0  0  0  0  0  2  0  0  0  0  0  0
  195.5590  173.6170  137.0280 N   0  0  0  0  0  2  0  0  0  0  0  0
  196.6620  174.4830  139.0200 C   0  0  0  0  0  1  0  0  0  0  0  0
  196.4170  173.2670  138.1490 C   0  0  0  0  0  2  0  0  0  0  0  0
  185.0820  177.8330  144.0500 C   0  0  0  0  0  2  0  0  0  0  0  0
  184.7740  179.2740  143.6840 C   0  0  0  0  0  2  0  0  0  0  0  0
  183.4120  179.6180  144.2280 C   0  0  0  0  0  2  0  0  0  0  0  0
  182.3000  179.0010  143.4370 C   0  0  0  0  0  0  0  0  0  0  0  0
  181.2830  178.5590  144.0340 O   0  0  0  0  0  0  0  0  0  0  0  0
  182.3700  178.9680  142.0100 N   0  0  0  0  0  2  0  0  0  0  0  0
  181.2830  178.4540  141.1970 C   0  0  0  0  0  2  0  0  0  0  0  0
  181.8240  177.6470  140.0290 C   0  0  0  0  0  2  0  0  0  0  0  0
  181.0020  175.8010  138.4590 N   0  0  0  0  0  0  0  0  0  0  0  0
  183.8210  174.5980  137.7500 C   0  0  0  0  0  1  0  0  0  0  0  0
  181.9670  176.2420  137.4500 C   0  0  0  0  0  2  0  0  0  0  0  0
  181.7720  173.8450  136.5620 C   0  0  1  0  0  3  0  0  0  0  0  0
  180.0530  176.1650  140.5820 O   0  0  0  0  0  0  0  0  0  0  0  0
  180.2890  174.1660  136.7550 C   0  0  0  0  0  2  0  0  0  0  0  0
  182.0020  173.3760  135.2730 O   0  0  0  0  0  1  0  0  0  0  0  0
  180.0720  174.7050  138.1650 C   0  0  0  0  0  2  0  0  0  0  0  0
  182.6960  175.0430  136.8460 C   0  0  2  0  0  3  0  0  0  0  0  0
  180.8960  176.5180  139.7100 C   0  0  0  0  0  0  0  0  0  0  0  0
  1 41  1  6  0  0  0
  1  7  1  0  0  0  0
  4 11  1  1  0  0  0
  6  2  1  6  0  0  0
  6  4  1  0  0  0  0
  7  5  2  0  0  0  0
  7 10  1  0  0  0  0
  8 13  1  6  0  0  0
  8  4  1  0  0  0  0
  8  1  1  0  0  0  0
  9  3  1  6  0  0  0
  9 12  1  0  0  0  0
  9 13  1  0  0  0  0
 10 15  1  1  0  0  0
 11 10  1  0  0  0  0
 12  6  1  0  0  0  0
 15 16  1  0  0  0  0
 15 14  1  1  0  0  0
 17 16  1  0  0  0  0
 18 19  1  0  0  0  0
 19 17  1  0  0  0  0
 19 20  1  0  0  0  0
 21  9  1  0  0  0  0
 22 21  1  0  0  0  0
 24 23  1  6  0  0  0
 24 22  1  0  0  0  0
 25 24  1  0  0  0  0
 26 31  1  0  0  0  0
 28 27  1  0  0  0  0
 29 26  1  0  0  0  0
 30 29  1  6  0  0  0
 30 28  1  0  0  0  0
 31 25  1  6  0  0  0
 31 27  1  0  0  0  0
 32 35  1  0  0  0  0
 34 32  1  6  0  0  0
 34 35  1  0  0  0  0
 34 30  1  0  0  0  0
 35 33  1  1  0  0  0
 36 35  1  0  0  0  0
 36 37  1  0  0  0  0
 37 38  1  0  0  0  0
 38 40  1  0  0  0  0
 40 39  1  0  0  0  0
 42 41  1  0  0  0  0
 42 43  1  0  0  0  0
 44 45  2  0  0  0  0
 44 43  1  0  0  0  0
 46 44  1  0  0  0  0
 47 46  1  0  0  0  0
 48 47  1  0  0  0  0
 49 58  1  0  0  0  0
 51 49  1  0  0  0  0
 52 55  1  6  0  0  0
 52 54  1  0  0  0  0
 52 57  1  0  0  0  0
 54 56  1  0  0  0  0
 56 49  1  0  0  0  0
 57 51  1  0  0  0  0
 57 50  1  1  0  0  0
 58 48  1  0  0  0  0
 58 53  2  0  0  0  0
M  END
>  <MODEL>
7

>  <REMARK>
 VINA RESULT:      -6.3      1.757      2.509
  Name = 
  21 active torsions:
  status: ('A' for Active; 'I' for Inactive)
    1  A    between atoms: C_2  and  C_39
    2  A    between atoms: C_2  and  C_56
    3  A    between atoms: C_3  and  C_23
    4  A    between atoms: C_5  and  C_15
    5  A    between atoms: C_8  and  C_18
    6  A    between atoms: C_15  and  C_45
    7  A    between atoms: C_16  and  C_17
    8  A    between atoms: C_16  and  N_27
    9  A    between atoms: C_17  and  C_51
   10  A    between atoms: C_18  and  C_36
   11  A    between atoms: C_23  and  C_45
   12  A    between atoms: C_24  and  N_32
   13  A    between atoms: O_29  and  C_42
   14  A    between atoms: O_29  and  C_46
   15  A    between atoms: N_32  and  C_39
   16  A    between atoms: C_35  and  N_49
   17  A    between atoms: C_36  and  C_58
   18  A    between atoms: C_44  and  C_58
   19  A    between atoms: C_46  and  C_50
   20  A    between atoms: C_50  and  N_57
   21  A    between atoms: C_54  and  N_57
                            x       y       z     vdW  Elec       q    Type
                         _______ _______ _______ _____ _____    ______ ____

>  <TORSDO>
F 21

$$$$
=
 OpenBabel11042412483D

 58 62  0  0  1  0  0  0  0  0999 V2000
  186.7380  177.3830  144.3470 C   0  0  2  0  0  3  0  0  0  0  0  0
  190.6740  176.1340  142.1420 C   0  0  0  0  0  1  0  0  0  0  0  0
  187.9320  179.3860  140.5390 O   0  0  0  0  0  1  0  0  0  0  0  0
  189.1280  177.2310  143.7490 C   0  0  2  0  0  3  0  0  0  0  0  0
  186.5940  178.9590  146.1350 O   0  0  0  0  0  0  0  0  0  0  0  0
  190.2380  177.4610  142.7150 C   0  0  2  0  0  3  0  0  0  0  0  0
  187.1350  177.9630  145.6800 C   0  0  0  0  0  0  0  0  0  0  0  0
  187.7820  177.8480  143.3380 C   0  0  1  0  0  3  0  0  0  0  0  0
  188.4800  178.1570  140.9260 C   0  0  1  0  0  0  0  0  0  0  0  0
  188.4770  177.5000  146.1890 C   0  0  1  0  0  3  0  0  0  0  0  0
  189.5510  177.7570  145.1290 C   0  0  0  0  0  2  0  0  0  0  0  0
  189.8520  178.4470  141.6130 C   0  0  0  0  0  2  0  0  0  0  0  0
  187.4860  177.4700  141.8910 C   0  0  0  0  0  2  0  0  0  0  0  0
  187.8330  177.8750  148.6370 C   0  0  0  0  0  1  0  0  0  0  0  0
  188.9080  178.0140  147.5700 C   0  0  1  0  0  3  0  0  0  0  0  0
  190.2200  177.4360  148.0490 C   0  0  0  0  0  2  0  0  0  0  0  0
  190.2870  175.9510  147.7090 C   0  0  0  0  0  2  0  0  0  0  0  0
  192.0540  175.9170  145.9330 C   0  0  0  0  0  1  0  0  0  0  0  0
  191.6970  175.4950  147.3460 C   0  0  0  0  0  3  0  0  0  0  0  0
  192.7350  176.0290  148.3190 C   0  0  0  0  0  1  0  0  0  0  0  0
  188.6330  177.3070  139.7910 O   0  0  0  0  0  0  0  0  0  0  0  0
  187.5660  177.5290  138.8980 C   0  0  0  0  0  2  0  0  0  0  0  0
  187.2100  176.8020  136.2170 S   0  0  0  0  0  1  0  0  0  0  0  0
  188.0570  177.8120  137.4760 C   0  0  2  0  0  3  0  0  0  0  0  0
  189.4810  177.5440  137.4230 N   0  0  0  0  0  2  0  0  0  0  0  0
  190.1690  175.2040  137.5860 C   0  0  0  0  0  2  0  0  0  0  0  0
  190.6250  176.5800  135.4880 C   0  0  0  0  0  2  0  0  0  0  0  0
  191.7720  175.5730  135.4570 C   0  0  0  0  0  2  0  0  0  0  0  0
  191.6660  175.3820  137.8980 C   0  0  0  0  0  2  0  0  0  0  0  0
  192.5200  175.6400  136.7170 N   0  0  1  0  0  0  0  0  0  0  0  0
  189.6720  176.3180  136.6580 C   0  0  2  0  0  3  0  0  0  0  0  0
  194.5420  174.8800  137.8100 C   0  0  0  0  0  2  0  0  0  0  0  0
  194.8970  176.5030  135.9850 F   0  0  0  0  0  0  0  0  0  0  0  0
  193.5440  174.6030  136.6900 C   0  0  2  0  0  3  0  0  0  0  0  0
  194.9190  175.1860  136.3810 C   0  0  2  0  0  0  0  0  0  0  0  0
  195.8400  174.2060  135.6760 C   0  0  0  0  0  2  0  0  0  0  0  0
  197.2350  174.7870  135.5580 C   0  0  0  0  0  2  0  0  0  0  0  0
  197.6490  175.3170  136.8460 N   0  0  0  0  0  2  0  0  0  0  0  0
  198.3240  173.0140  137.2640 C   0  0  0  0  0  1  0  0  0  0  0  0
  198.7280  174.4730  137.3340 C   0  0  0  0  0  2  0  0  0  0  0  0
  185.2690  177.5630  143.9200 C   0  0  0  0  0  2  0  0  0  0  0  0
  184.6330  178.8960  144.2730 C   0  0  0  0  0  2  0  0  0  0  0  0
  183.2890  178.6280  144.8980 C   0  0  0  0  0  2  0  0  0  0  0  0
  182.1660  179.2930  144.1640 C   0  0  0  0  0  0  0  0  0  0  0  0
  182.3630  180.4000  143.5970 O   0  0  0  0  0  0  0  0  0  0  0  0
  180.8970  178.6450  144.0590 N   0  0  0  0  0  2  0  0  0  0  0  0
  179.8030  179.2110  143.2910 C   0  0  0  0  0  2  0  0  0  0  0  0
  180.1000  179.1400  141.8030 C   0  0  0  0  0  2  0  0  0  0  0  0
  180.8740  177.2700  140.2370 N   0  0  0  0  0  0  0  0  0  0  0  0
  183.9660  177.8000  140.4840 C   0  0  0  0  0  1  0  0  0  0  0  0
  181.7070  178.2320  139.5140 C   0  0  0  0  0  2  0  0  0  0  0  0
  183.0730  176.1740  138.8300 C   0  0  1  0  0  3  0  0  0  0  0  0
  179.3060  176.9080  141.9540 O   0  0  0  0  0  0  0  0  0  0  0  0
  181.6630  175.6460  138.5570 C   0  0  0  0  0  2  0  0  0  0  0  0
  183.8800  176.0010  137.7100 O   0  0  0  0  0  1  0  0  0  0  0  0
  180.7950  175.8750  139.7890 C   0  0  0  0  0  2  0  0  0  0  0  0
  183.0970  177.6520  139.2570 C   0  0  2  0  0  3  0  0  0  0  0  0
  180.0470  177.7210  141.3340 C   0  0  0  0  0  0  0  0  0  0  0  0
  1 41  1  6  0  0  0
  1  7  1  0  0  0  0
  4 11  1  1  0  0  0
  6  2  1  6  0  0  0
  6  4  1  0  0  0  0
  7  5  2  0  0  0  0
  7 10  1  0  0  0  0
  8 13  1  6  0  0  0
  8  4  1  0  0  0  0
  8  1  1  0  0  0  0
  9  3  1  6  0  0  0
  9 12  1  0  0  0  0
  9 13  1  0  0  0  0
 10 15  1  1  0  0  0
 11 10  1  0  0  0  0
 12  6  1  0  0  0  0
 15 16  1  0  0  0  0
 15 14  1  1  0  0  0
 17 16  1  0  0  0  0
 18 19  1  0  0  0  0
 19 17  1  0  0  0  0
 19 20  1  0  0  0  0
 21  9  1  0  0  0  0
 22 21  1  0  0  0  0
 24 23  1  6  0  0  0
 24 22  1  0  0  0  0
 25 24  1  0  0  0  0
 26 29  1  0  0  0  0
 27 31  1  0  0  0  0
 28 27  1  0  0  0  0
 30 28  1  6  0  0  0
 30 29  1  0  0  0  0
 31 25  1  1  0  0  0
 31 26  1  0  0  0  0
 34 30  1  0  0  0  0
 34 32  1  1  0  0  0
 35 33  1  6  0  0  0
 35 34  1  0  0  0  0
 35 32  1  0  0  0  0
 36 35  1  0  0  0  0
 37 36  1  0  0  0  0
 37 38  1  0  0  0  0
 38 40  1  0  0  0  0
 39 40  1  0  0  0  0
 41 42  1  0  0  0  0
 42 43  1  0  0  0  0
 44 43  1  0  0  0  0
 45 44  2  0  0  0  0
 46 44  1  0  0  0  0
 47 46  1  0  0  0  0
 48 47  1  0  0  0  0
 49 58  1  0  0  0  0
 51 49  1  0  0  0  0
 52 55  1  6  0  0  0
 52 57  1  0  0  0  0
 54 52  1  0  0  0  0
 54 56  1  0  0  0  0
 56 49  1  0  0  0  0
 57 51  1  0  0  0  0
 57 50  1  1  0  0  0
 58 48  1  0  0  0  0
 58 53  2  0  0  0  0
M  END
>  <MODEL>
8

>  <REMARK>
 VINA RESULT:      -6.2      1.692      2.176
  Name = 
  21 active torsions:
  status: ('A' for Active; 'I' for Inactive)
    1  A    between atoms: C_2  and  C_39
    2  A    between atoms: C_2  and  C_56
    3  A    between atoms: C_3  and  C_23
    4  A    between atoms: C_5  and  C_15
    5  A    between atoms: C_8  and  C_18
    6  A    between atoms: C_15  and  C_45
    7  A    between atoms: C_16  and  C_17
    8  A    between atoms: C_16  and  N_27
    9  A    between atoms: C_17  and  C_51
   10  A    between atoms: C_18  and  C_36
   11  A    between atoms: C_23  and  C_45
   12  A    between atoms: C_24  and  N_32
   13  A    between atoms: O_29  and  C_42
   14  A    between atoms: O_29  and  C_46
   15  A    between atoms: N_32  and  C_39
   16  A    between atoms: C_35  and  N_49
   17  A    between atoms: C_36  and  C_58
   18  A    between atoms: C_44  and  C_58
   19  A    between atoms: C_46  and  C_50
   20  A    between atoms: C_50  and  N_57
   21  A    between atoms: C_54  and  N_57
                            x       y       z     vdW  Elec       q    Type
                         _______ _______ _______ _____ _____    ______ ____

>  <TORSDO>
F 21

$$$$
=
 OpenBabel11042412483D

 58 62  0  0  1  0  0  0  0  0999 V2000
  187.0680  177.2080  144.2500 C   0  0  2  0  0  3  0  0  0  0  0  0
  191.3040  175.6260  143.0380 C   0  0  0  0  0  1  0  0  0  0  0  0
  189.0880  178.7380  140.5740 O   0  0  0  0  0  1  0  0  0  0  0  0
  189.5190  176.9340  144.1710 C   0  0  2  0  0  3  0  0  0  0  0  0
  186.6410  178.9790  145.7930 O   0  0  0  0  0  0  0  0  0  0  0  0
  190.8230  177.0190  143.3660 C   0  0  2  0  0  3  0  0  0  0  0  0
  187.2170  177.9250  145.5670 C   0  0  0  0  0  0  0  0  0  0  0  0
  188.3120  177.5310  143.4310 C   0  0  1  0  0  3  0  0  0  0  0  0
  189.4910  177.5490  141.1920 C   0  0  1  0  0  0  0  0  0  0  0  0
  188.4070  177.4920  146.3850 C   0  0  1  0  0  3  0  0  0  0  0  0
  189.6820  177.6030  145.5440 C   0  0  0  0  0  2  0  0  0  0  0  0
  190.7100  177.8830  142.1100 C   0  0  0  0  0  2  0  0  0  0  0  0
  188.2940  176.9980  142.0020 C   0  0  0  0  0  2  0  0  0  0  0  0
  187.6610  177.5750  148.8310 C   0  0  0  0  0  1  0  0  0  0  0  0
  188.5770  178.1500  147.7620 C   0  0  1  0  0  3  0  0  0  0  0  0
  190.0090  178.1850  148.2430 C   0  0  0  0  0  2  0  0  0  0  0  0
  190.5560  176.7650  148.3500 C   0  0  0  0  0  2  0  0  0  0  0  0
  192.9620  176.3790  148.9340 C   0  0  0  0  0  1  0  0  0  0  0  0
  191.9770  176.6410  147.8100 C   0  0  0  0  0  3  0  0  0  0  0  0
  192.0930  175.5470  146.7610 C   0  0  0  0  0  1  0  0  0  0  0  0
  189.8280  176.5730  140.2090 O   0  0  0  0  0  0  0  0  0  0  0  0
  189.2140  176.9120  138.9880 C   0  0  0  0  0  2  0  0  0  0  0  0
  191.5610  176.3470  137.5690 S   0  0  0  0  0  1  0  0  0  0  0  0
  189.7720  176.0970  137.8190 C   0  0  2  0  0  3  0  0  0  0  0  0
  189.0650  176.4830  136.6140 N   0  0  0  0  0  2  0  0  0  0  0  0
  187.7570  175.4970  134.7990 C   0  0  0  0  0  2  0  0  0  0  0  0
  188.6940  174.0660  136.6890 C   0  0  0  0  0  2  0  0  0  0  0  0
  187.4540  173.2740  136.2820 C   0  0  0  0  0  2  0  0  0  0  0  0
  186.3950  175.3410  135.4990 C   0  0  0  0  0  2  0  0  0  0  0  0
  186.2720  174.1390  136.3550 N   0  0  1  0  0  0  0  0  0  0  0  0
  188.9050  175.2890  135.7920 C   0  0  2  0  0  3  0  0  0  0  0  0
  183.8740  173.8890  136.5760 C   0  0  0  0  0  2  0  0  0  0  0  0
  185.2080  172.5400  138.1560 F   0  0  0  0  0  0  0  0  0  0  0  0
  185.1260  173.3800  135.8700 C   0  0  2  0  0  3  0  0  0  0  0  0
  184.4800  172.5700  136.9890 C   0  0  2  0  0  0  0  0  0  0  0  0
  183.8010  171.3040  136.4970 C   0  0  0  0  0  2  0  0  0  0  0  0
  182.6710  171.6500  135.5470 C   0  0  0  0  0  2  0  0  0  0  0  0
  181.8090  170.4920  135.3790 N   0  0  0  0  0  2  0  0  0  0  0  0
  179.4910  169.7570  135.5270 C   0  0  0  0  0  1  0  0  0  0  0  0
  180.4420  170.9350  135.5970 C   0  0  0  0  0  2  0  0  0  0  0  0
  185.7230  177.3720  143.5160 C   0  0  0  0  0  2  0  0  0  0  0  0
  185.6290  178.5470  142.5590 C   0  0  0  0  0  2  0  0  0  0  0  0
  184.7150  178.1600  141.4260 C   0  0  0  0  0  2  0  0  0  0  0  0
  183.3890  178.8530  141.4880 C   0  0  0  0  0  0  0  0  0  0  0  0
  182.9490  179.4470  140.4680 O   0  0  0  0  0  0  0  0  0  0  0  0
  182.6040  178.7890  142.6800 N   0  0  0  0  0  2  0  0  0  0  0  0
  181.2790  179.3750  142.7630 C   0  0  0  0  0  2  0  0  0  0  0  0
  180.4690  179.0470  141.5200 C   0  0  0  0  0  2  0  0  0  0  0  0
  179.7220  176.7770  140.6050 N   0  0  0  0  0  0  0  0  0  0  0  0
  182.4660  175.9510  139.3060 C   0  0  0  0  0  1  0  0  0  0  0  0
  180.2690  177.1350  139.2950 C   0  0  0  0  0  2  0  0  0  0  0  0
  180.4120  174.6020  138.9280 C   0  0  1  0  0  3  0  0  0  0  0  0
  179.2900  177.4470  142.8190 O   0  0  0  0  0  0  0  0  0  0  0  0
  178.9950  174.6970  139.4960 C   0  0  0  0  0  2  0  0  0  0  0  0
  180.4070  173.8970  137.7290 O   0  0  0  0  0  1  0  0  0  0  0  0
  179.0270  175.4980  140.7930 C   0  0  0  0  0  2  0  0  0  0  0  0
  181.0760  175.9750  138.7140 C   0  0  2  0  0  3  0  0  0  0  0  0
  179.7770  177.7310  141.6890 C   0  0  0  0  0  0  0  0  0  0  0  0
  1 41  1  6  0  0  0
  1  7  1  0  0  0  0
  4 11  1  1  0  0  0
  6  2  1  6  0  0  0
  6  4  1  0  0  0  0
  7  5  2  0  0  0  0
  7 10  1  0  0  0  0
  8 13  1  6  0  0  0
  8  4  1  0  0  0  0
  8  1  1  0  0  0  0
  9  3  1  6  0  0  0
  9 13  1  0  0  0  0
  9 12  1  0  0  0  0
 10 15  1  1  0  0  0
 11 10  1  0  0  0  0
 12  6  1  0  0  0  0
 15 16  1  0  0  0  0
 15 14  1  1  0  0  0
 16 17  1  0  0  0  0
 19 17  1  0  0  0  0
 19 18  1  0  0  0  0
 20 19  1  0  0  0  0
 21  9  1  0  0  0  0
 22 21  1  0  0  0  0
 24 23  1  6  0  0  0
 24 22  1  0  0  0  0
 25 24  1  0  0  0  0
 26 29  1  0  0  0  0
 26 31  1  0  0  0  0
 28 30  1  0  0  0  0
 28 27  1  0  0  0  0
 30 29  1  6  0  0  0
 31 25  1  1  0  0  0
 31 27  1  0  0  0  0
 32 35  1  0  0  0  0
 34 30  1  0  0  0  0
 34 32  1  1  0  0  0
 34 35  1  0  0  0  0
 35 33  1  1  0  0  0
 36 35  1  0  0  0  0
 37 36  1  0  0  0  0
 38 37  1  0  0  0  0
 38 40  1  0  0  0  0
 39 40  1  0  0  0  0
 42 41  1  0  0  0  0
 43 44  1  0  0  0  0
 43 42  1  0  0  0  0
 44 46  1  0  0  0  0
 45 44  2  0  0  0  0
 46 47  1  0  0  0  0
 48 58  1  0  0  0  0
 48 47  1  0  0  0  0
 49 56  1  0  0  0  0
 49 58  1  0  0  0  0
 51 49  1  0  0  0  0
 52 55  1  6  0  0  0
 52 54  1  0  0  0  0
 54 56  1  0  0  0  0
 57 52  1  0  0  0  0
 57 51  1  0  0  0  0
 57 50  1  1  0  0  0
 58 53  2  0  0  0  0
M  END
>  <MODEL>
9

>  <REMARK>
 VINA RESULT:      -6.2      3.802      6.325
  Name = 
  21 active torsions:
  status: ('A' for Active; 'I' for Inactive)
    1  A    between atoms: C_2  and  C_39
    2  A    between atoms: C_2  and  C_56
    3  A    between atoms: C_3  and  C_23
    4  A    between atoms: C_5  and  C_15
    5  A    between atoms: C_8  and  C_18
    6  A    between atoms: C_15  and  C_45
    7  A    between atoms: C_16  and  C_17
    8  A    between atoms: C_16  and  N_27
    9  A    between atoms: C_17  and  C_51
   10  A    between atoms: C_18  and  C_36
   11  A    between atoms: C_23  and  C_45
   12  A    between atoms: C_24  and  N_32
   13  A    between atoms: O_29  and  C_42
   14  A    between atoms: O_29  and  C_46
   15  A    between atoms: N_32  and  C_39
   16  A    between atoms: C_35  and  N_49
   17  A    between atoms: C_36  and  C_58
   18  A    between atoms: C_44  and  C_58
   19  A    between atoms: C_46  and  C_50
   20  A    between atoms: C_50  and  N_57
   21  A    between atoms: C_54  and  N_57
                            x       y       z     vdW  Elec       q    Type
                         _______ _______ _______ _____ _____    ______ ____

>  <TORSDO>
F 21

$$$$
