=
 OpenBabel11042413303D

 41 44  0  0  1  0  0  0  0  0999 V2000
  185.1600  178.4470  137.8590 N   0  0  0  0  0  0  0  0  0  0  0  0
  184.5040  179.1860  144.6690 C   0  0  0  0  0  3  0  0  0  0  0  0
  185.0250  178.6190  142.3550 C   0  0  0  0  0  0  0  0  0  0  0  0
  188.0450  178.5220  140.0330 C   0  0  0  0  0  3  0  0  0  0  0  0
  183.6110  178.6020  142.0700 C   0  0  0  0  0  0  0  0  0  0  0  0
  183.9350  178.4200  138.3970 N   0  0  0  0  0  0  0  0  0  0  0  0
  182.6960  178.8060  143.1140 C   0  0  0  0  0  3  0  0  0  0  0  0
  187.3880  178.3950  141.2990 C   0  0  0  0  0  0  0  0  0  0  0  0
  183.1380  178.4510  140.7380 C   0  0  0  0  0  0  0  0  0  0  0  0
  188.1610  178.1450  142.3850 C   0  0  1  0  0  3  0  0  0  0  0  0
  183.1390  179.0860  144.4050 C   0  0  0  0  0  3  0  0  0  0  0  0
  184.1020  178.3600  139.7410 C   0  0  0  0  0  0  0  0  0  0  0  0
  187.3610  178.5360  138.8490 N   0  0  0  0  0  2  0  0  0  0  0  0
  186.0190  178.3990  138.8990 C   0  0  0  0  0  0  0  0  0  0  0  0
  185.3880  178.3370  140.0570 N   0  0  0  0  0  0  0  0  0  0  0  0
  185.9480  178.4090  141.2810 C   0  0  0  0  0  0  0  0  0  0  0  0
  185.4320  178.9680  143.6500 C   0  0  0  0  0  3  0  0  0  0  0  0
  187.5580  176.1410  143.7130 C   0  0  0  0  0  1  0  0  0  0  0  0
  187.6210  177.5480  143.5300 O   0  0  0  0  0  0  0  0  0  0  0  0
  180.9960  177.2570  140.2620 C   0  0  0  0  0  1  0  0  0  0  0  0
  181.7430  178.4980  140.4120 N   0  0  0  0  0  0  0  0  0  0  0  0
  181.0870  179.7960  140.2340 C   0  0  1  0  0  3  0  0  0  0  0  0
  181.2210  180.2500  138.9180 O   0  0  0  0  0  0  0  0  0  0  0  0
  179.9130  180.4500  138.4740 C   0  0  0  0  0  1  0  0  0  0  0  0
  179.6170  179.7600  140.6560 C   0  0  0  0  0  2  0  0  0  0  0  0
  179.4440  179.9530  142.1020 C   0  0  0  0  0  0  0  0  0  0  0  0
  179.3060  180.1100  143.2880 C   0  0  0  0  0  3  0  0  0  0  0  0
  189.6480  178.4040  142.3340 C   0  0  0  0  0  2  0  0  0  0  0  0
  191.1080  176.7890  143.6430 C   0  0  0  0  0  0  0  0  0  0  0  0
  191.3430  176.0940  142.6180 O   0  0  0  0  0  0  0  0  0  0  0  0
  190.2890  177.9590  143.5630 N   0  0  0  0  0  2  0  0  0  0  0  0
  191.6860  176.3810  144.9530 C   0  0  0  0  0  2  0  0  0  0  0  0
  191.5890  177.4770  145.9060 N   0  0  0  0  0  2  0  0  0  0  0  0
  190.9700  176.9570  147.1190 C   0  0  2  0  0  3  0  0  0  0  0  0
  192.7680  176.3770  148.3600 O   0  0  0  0  0  1  0  0  0  0  0  0
  191.7530  175.8440  147.6390 N   0  0  0  0  0  2  0  0  0  0  0  0
  189.5330  176.5230  146.8410 C   0  0  0  0  0  2  0  0  0  0  0  0
  189.1930  178.3390  148.4880 C   0  0  0  0  0  1  0  0  0  0  0  0
  188.5490  177.1370  147.8250 C   0  0  1  0  0  3  0  0  0  0  0  0
  186.7880  178.8890  147.6040 C   0  0  0  0  0  1  0  0  0  0  0  0
  187.2960  177.5600  147.0800 C   0  0  0  0  0  2  0  0  0  0  0  0
  1  6  1  0  0  0  0
  1 14  2  0  0  0  0
  3 17  1  0  0  0  0
  4  8  2  0  0  0  0
  5  3  1  0  0  0  0
  5  7  1  0  0  0  0
  6 12  2  0  0  0  0
  7 11  2  0  0  0  0
  8 10  1  0  0  0  0
  9  5  2  0  0  0  0
 10 28  1  6  0  0  0
 10 19  1  0  0  0  0
 11  2  1  0  0  0  0
 12 15  1  0  0  0  0
 12  9  1  0  0  0  0
 13 14  1  0  0  0  0
 13  4  1  0  0  0  0
 14 15  1  0  0  0  0
 15 16  1  0  0  0  0
 16  8  1  0  0  0  0
 16  3  2  0  0  0  0
 17  2  2  0  0  0  0
 19 18  1  0  0  0  0
 20 21  1  0  0  0  0
 21  9  1  0  0  0  0
 22 21  1  0  0  0  0
 22 25  1  6  0  0  0
 23 22  1  0  0  0  0
 24 23  1  0  0  0  0
 25 26  1  0  0  0  0
 26 27  3  0  0  0  0
 28 31  1  0  0  0  0
 29 32  1  0  0  0  0
 30 29  2  0  0  0  0
 31 29  1  0  0  0  0
 32 33  1  0  0  0  0
 33 34  1  0  0  0  0
 34 37  1  6  0  0  0
 34 36  1  0  0  0  0
 36 35  1  0  0  0  0
 37 39  1  0  0  0  0
 39 38  1  6  0  0  0
 41 40  1  0  0  0  0
 41 39  1  0  0  0  0
M  END
>  <MODEL>
1

>  <REMARK>
 VINA RESULT:      -7.4      0.000      0.000
  Name = 
  15 active torsions:
  status: ('A' for Active; 'I' for Inactive)
    1  A    between atoms: C_6  and  C_11
    2  A    between atoms: C_6  and  C_25
    3  A    between atoms: C_11  and  N_13
    4  A    between atoms: C_11  and  N_31
    5  A    between atoms: C_14  and  N_39
    6  A    between atoms: O_15  and  C_18
    7  A    between atoms: C_16  and  O_24
    8  A    between atoms: C_16  and  C_34
    9  A    between atoms: C_16  and  N_39
   10  A    between atoms: C_17  and  C_40
   11  A    between atoms: C_18  and  C_37
   12  A    between atoms: C_23  and  C_25
   13  A    between atoms: N_31  and  C_40
   14  A    between atoms: C_34  and  C_38
   15  A    between atoms: N_35  and  C_37
                            x       y       z     vdW  Elec       q    Type
                         _______ _______ _______ _____ _____    ______ ____

>  <TORSDO>
F 15

$$$$
=
 OpenBabel11042413303D

 41 44  0  0  1  0  0  0  0  0999 V2000
  183.6470  178.8380  138.2470 N   0  0  0  0  0  0  0  0  0  0  0  0
  184.6310  179.1060  145.0520 C   0  0  0  0  0  3  0  0  0  0  0  0
  184.5620  178.6840  142.6520 C   0  0  0  0  0  0  0  0  0  0  0  0
  186.9520  178.5860  139.6850 C   0  0  0  0  0  3  0  0  0  0  0  0
  183.1230  178.7690  142.7060 C   0  0  0  0  0  0  0  0  0  0  0  0
  182.5800  178.8410  139.0550 N   0  0  0  0  0  0  0  0  0  0  0  0
  182.4900  178.9470  143.9450 C   0  0  0  0  0  3  0  0  0  0  0  0
  186.5970  178.4040  141.0600 C   0  0  0  0  0  0  0  0  0  0  0  0
  182.3470  178.7440  141.5150 C   0  0  0  0  0  0  0  0  0  0  0  0
  187.5780  178.0300  141.9180 C   0  0  1  0  0  3  0  0  0  0  0  0
  183.2380  179.1050  145.1100 C   0  0  0  0  0  3  0  0  0  0  0  0
  183.0460  178.6720  140.3160 C   0  0  0  0  0  0  0  0  0  0  0  0
  186.0170  178.7270  138.6970 N   0  0  0  0  0  2  0  0  0  0  0  0
  184.7160  178.6640  139.0520 C   0  0  0  0  0  0  0  0  0  0  0  0
  184.3650  178.5520  140.3200 N   0  0  0  0  0  0  0  0  0  0  0  0
  185.1960  178.5020  141.3810 C   0  0  0  0  0  0  0  0  0  0  0  0
  185.2800  178.9110  143.8330 C   0  0  0  0  0  3  0  0  0  0  0  0
  187.7600  176.0870  143.4460 C   0  0  0  0  0  1  0  0  0  0  0  0
  187.2740  177.3810  143.1200 O   0  0  0  0  0  0  0  0  0  0  0  0
  180.3300  180.1740  141.1580 C   0  0  0  0  0  1  0  0  0  0  0  0
  180.9220  178.8950  141.5290 N   0  0  0  0  0  0  0  0  0  0  0  0
  180.0790  177.7620  141.9170 C   0  0  1  0  0  3  0  0  0  0  0  0
  179.0830  178.1610  142.8140 O   0  0  0  0  0  0  0  0  0  0  0  0
  179.6420  177.9680  144.0790 C   0  0  0  0  0  1  0  0  0  0  0  0
  179.4730  177.0530  140.7040 C   0  0  0  0  0  2  0  0  0  0  0  0
  180.4290  176.1500  140.0490 C   0  0  0  0  0  0  0  0  0  0  0  0
  181.2150  175.4110  139.5140 C   0  0  0  0  0  3  0  0  0  0  0  0
  189.0290  178.2060  141.5350 C   0  0  0  0  0  2  0  0  0  0  0  0
  190.9890  177.6260  143.0430 C   0  0  0  0  0  0  0  0  0  0  0  0
  191.3600  176.6920  142.2820 O   0  0  0  0  0  0  0  0  0  0  0  0
  189.8490  178.4270  142.7170 N   0  0  0  0  0  2  0  0  0  0  0  0
  191.7420  177.8920  144.2990 C   0  0  0  0  0  2  0  0  0  0  0  0
  191.8030  176.6860  145.1110 N   0  0  0  0  0  2  0  0  0  0  0  0
  191.3020  177.0190  146.4380 C   0  0  2  0  0  3  0  0  0  0  0  0
  192.6720  175.2660  146.8410 O   0  0  0  0  0  1  0  0  0  0  0  0
  192.0760  176.3170  147.4540 N   0  0  0  0  0  2  0  0  0  0  0  0
  189.8190  176.6700  146.5510 C   0  0  0  0  0  2  0  0  0  0  0  0
  187.5130  177.5700  146.5760 C   0  0  0  0  0  1  0  0  0  0  0  0
  188.9670  177.8890  146.8690 C   0  0  1  0  0  3  0  0  0  0  0  0
  187.8570  177.9880  149.1000 C   0  0  0  0  0  1  0  0  0  0  0  0
  189.1390  178.2510  148.3330 C   0  0  0  0  0  2  0  0  0  0  0  0
  1 14  2  0  0  0  0
  1  6  1  0  0  0  0
  2 11  1  0  0  0  0
  3  5  1  0  0  0  0
  3 17  1  0  0  0  0
  4  8  2  0  0  0  0
  5  7  1  0  0  0  0
  6 12  2  0  0  0  0
  7 11  2  0  0  0  0
  8 16  1  0  0  0  0
  8 10  1  0  0  0  0
  9 21  1  0  0  0  0
  9  5  2  0  0  0  0
 10 28  1  6  0  0  0
 10 19  1  0  0  0  0
 12 15  1  0  0  0  0
 12  9  1  0  0  0  0
 13 14  1  0  0  0  0
 13  4  1  0  0  0  0
 14 15  1  0  0  0  0
 15 16  1  0  0  0  0
 16  3  2  0  0  0  0
 17  2  2  0  0  0  0
 19 18  1  0  0  0  0
 20 21  1  0  0  0  0
 21 22  1  0  0  0  0
 22 25  1  6  0  0  0
 22 23  1  0  0  0  0
 23 24  1  0  0  0  0
 26 25  1  0  0  0  0
 27 26  3  0  0  0  0
 28 31  1  0  0  0  0
 29 32  1  0  0  0  0
 30 29  2  0  0  0  0
 31 29  1  0  0  0  0
 32 33  1  0  0  0  0
 33 34  1  0  0  0  0
 34 37  1  6  0  0  0
 34 36  1  0  0  0  0
 35 36  1  0  0  0  0
 37 39  1  0  0  0  0
 39 38  1  1  0  0  0
 39 41  1  0  0  0  0
 41 40  1  0  0  0  0
M  END
>  <MODEL>
2

>  <REMARK>
 VINA RESULT:      -7.4      1.357      2.198
  Name = 
  15 active torsions:
  status: ('A' for Active; 'I' for Inactive)
    1  A    between atoms: C_6  and  C_11
    2  A    between atoms: C_6  and  C_25
    3  A    between atoms: C_11  and  N_13
    4  A    between atoms: C_11  and  N_31
    5  A    between atoms: C_14  and  N_39
    6  A    between atoms: O_15  and  C_18
    7  A    between atoms: C_16  and  O_24
    8  A    between atoms: C_16  and  C_34
    9  A    between atoms: C_16  and  N_39
   10  A    between atoms: C_17  and  C_40
   11  A    between atoms: C_18  and  C_37
   12  A    between atoms: C_23  and  C_25
   13  A    between atoms: N_31  and  C_40
   14  A    between atoms: C_34  and  C_38
   15  A    between atoms: N_35  and  C_37
                            x       y       z     vdW  Elec       q    Type
                         _______ _______ _______ _____ _____    ______ ____

>  <TORSDO>
F 15

$$$$
=
 OpenBabel11042413303D

 41 44  0  0  1  0  0  0  0  0999 V2000
  191.6450  177.1800  139.6190 N   0  0  0  0  0  0  0  0  0  0  0  0
  185.8330  177.8140  143.2470 C   0  0  0  0  0  3  0  0  0  0  0  0
  187.7270  177.9010  141.7150 C   0  0  0  0  0  0  0  0  0  0  0  0
  188.4310  177.4760  137.9930 C   0  0  0  0  0  3  0  0  0  0  0  0
  188.6130  177.8910  142.8530 C   0  0  0  0  0  0  0  0  0  0  0  0
  191.7250  177.3380  140.9450 N   0  0  0  0  0  0  0  0  0  0  0  0
  188.0720  177.9160  144.1470 C   0  0  0  0  0  3  0  0  0  0  0  0
  187.6340  177.8640  139.1180 C   0  0  0  0  0  0  0  0  0  0  0  0
  190.0200  177.7870  142.6800 C   0  0  0  0  0  0  0  0  0  0  0  0
  186.3770  178.3070  138.8740 C   0  0  1  0  0  3  0  0  0  0  0  0
  186.6920  177.8870  144.3420 C   0  0  0  0  0  3  0  0  0  0  0  0
  190.4810  177.6590  141.3750 C   0  0  0  0  0  0  0  0  0  0  0  0
  189.7750  177.2420  138.0910 N   0  0  0  0  0  2  0  0  0  0  0  0
  190.3560  177.4140  139.2980 C   0  0  0  0  0  0  0  0  0  0  0  0
  189.6310  177.7170  140.3600 N   0  0  0  0  0  0  0  0  0  0  0  0
  188.2920  177.8760  140.4000 C   0  0  0  0  0  0  0  0  0  0  0  0
  186.3490  177.8070  141.9510 C   0  0  0  0  0  3  0  0  0  0  0  0
  184.3380  179.4690  139.6730 C   0  0  0  0  0  1  0  0  0  0  0  0
  185.7130  179.1290  139.7900 O   0  0  0  0  0  0  0  0  0  0  0  0
  191.7100  178.8710  144.1660 C   0  0  0  0  0  1  0  0  0  0  0  0
  190.9230  177.7040  143.7900 N   0  0  0  0  0  0  0  0  0  0  0  0
  191.0420  176.4470  144.5320 C   0  0  1  0  0  3  0  0  0  0  0  0
  191.9070  175.5600  143.8820 O   0  0  0  0  0  0  0  0  0  0  0  0
  192.2810  174.6410  144.8640 C   0  0  0  0  0  1  0  0  0  0  0  0
  191.4760  176.6740  145.9820 C   0  0  0  0  0  2  0  0  0  0  0  0
  190.3430  176.9850  146.8630 C   0  0  0  0  0  0  0  0  0  0  0  0
  189.4150  177.2430  147.5870 C   0  0  0  0  0  3  0  0  0  0  0  0
  185.7130  178.0120  137.5490 C   0  0  0  0  0  2  0  0  0  0  0  0
  183.8300  176.4360  136.8970 C   0  0  0  0  0  0  0  0  0  0  0  0
  183.2710  177.3180  136.1920 O   0  0  0  0  0  0  0  0  0  0  0  0
  185.0550  176.7140  137.5820 N   0  0  0  0  0  2  0  0  0  0  0  0
  183.2020  175.0920  137.0250 C   0  0  0  0  0  2  0  0  0  0  0  0
  183.9920  174.2540  137.9140 N   0  0  0  0  0  2  0  0  0  0  0  0
  184.6100  173.2090  137.1050 C   0  0  2  0  0  3  0  0  0  0  0  0
  183.7100  171.5170  135.9060 O   0  0  0  0  0  1  0  0  0  0  0  0
  183.8120  171.9920  137.1710 N   0  0  0  0  0  2  0  0  0  0  0  0
  186.0380  172.9460  137.5750 C   0  0  0  0  0  2  0  0  0  0  0  0
  187.3070  171.6700  135.8740 C   0  0  0  0  0  1  0  0  0  0  0  0
  187.0440  173.0530  136.4390 C   0  0  1  0  0  3  0  0  0  0  0  0
  187.3560  175.1890  135.1900 C   0  0  0  0  0  1  0  0  0  0  0  0
  186.4820  173.9610  135.3600 C   0  0  0  0  0  2  0  0  0  0  0  0
  1  6  1  0  0  0  0
  2 11  1  0  0  0  0
  3 17  1  0  0  0  0
  3  5  1  0  0  0  0
  4 13  1  0  0  0  0
  4  8  2  0  0  0  0
  5  7  1  0  0  0  0
  6 12  2  0  0  0  0
  7 11  2  0  0  0  0
  8 16  1  0  0  0  0
  9  5  2  0  0  0  0
  9 21  1  0  0  0  0
 10 28  1  6  0  0  0
 10  8  1  0  0  0  0
 10 19  1  0  0  0  0
 12  9  1  0  0  0  0
 13 14  1  0  0  0  0
 14  1  2  0  0  0  0
 14 15  1  0  0  0  0
 15 16  1  0  0  0  0
 15 12  1  0  0  0  0
 16  3  2  0  0  0  0
 17  2  2  0  0  0  0
 18 19  1  0  0  0  0
 21 20  1  0  0  0  0
 21 22  1  0  0  0  0
 22 25  1  1  0  0  0
 23 22  1  0  0  0  0
 23 24  1  0  0  0  0
 25 26  1  0  0  0  0
 26 27  3  0  0  0  0
 28 31  1  0  0  0  0
 29 32  1  0  0  0  0
 29 31  1  0  0  0  0
 30 29  2  0  0  0  0
 32 33  1  0  0  0  0
 34 36  1  0  0  0  0
 34 37  1  1  0  0  0
 34 33  1  0  0  0  0
 35 36  1  0  0  0  0
 39 38  1  6  0  0  0
 39 37  1  0  0  0  0
 40 41  1  0  0  0  0
 41 39  1  0  0  0  0
M  END
>  <MODEL>
3

>  <REMARK>
 VINA RESULT:      -6.6      3.590      9.381
  Name = 
  15 active torsions:
  status: ('A' for Active; 'I' for Inactive)
    1  A    between atoms: C_6  and  C_11
    2  A    between atoms: C_6  and  C_25
    3  A    between atoms: C_11  and  N_13
    4  A    between atoms: C_11  and  N_31
    5  A    between atoms: C_14  and  N_39
    6  A    between atoms: O_15  and  C_18
    7  A    between atoms: C_16  and  O_24
    8  A    between atoms: C_16  and  C_34
    9  A    between atoms: C_16  and  N_39
   10  A    between atoms: C_17  and  C_40
   11  A    between atoms: C_18  and  C_37
   12  A    between atoms: C_23  and  C_25
   13  A    between atoms: N_31  and  C_40
   14  A    between atoms: C_34  and  C_38
   15  A    between atoms: N_35  and  C_37
                            x       y       z     vdW  Elec       q    Type
                         _______ _______ _______ _____ _____    ______ ____

>  <TORSDO>
F 15

$$$$
=
 OpenBabel11042413303D

 41 44  0  0  1  0  0  0  0  0999 V2000
  184.1290  179.0310  142.7670 N   0  0  0  0  0  0  0  0  0  0  0  0
  185.0600  177.0150  136.2550 C   0  0  0  0  0  3  0  0  0  0  0  0
  185.0600  177.9960  138.4870 C   0  0  0  0  0  0  0  0  0  0  0  0
  187.4320  178.4070  141.4420 C   0  0  0  0  0  3  0  0  0  0  0  0
  183.6270  178.1310  138.3980 C   0  0  0  0  0  0  0  0  0  0  0  0
  183.0770  179.0080  141.9410 N   0  0  0  0  0  0  0  0  0  0  0  0
  182.9740  177.7690  137.2100 C   0  0  0  0  0  3  0  0  0  0  0  0
  187.1120  178.3140  140.0490 C   0  0  0  0  0  0  0  0  0  0  0  0
  182.8650  178.5600  139.5180 C   0  0  0  0  0  0  0  0  0  0  0  0
  188.1420  178.3140  139.1670 C   0  0  1  0  0  3  0  0  0  0  0  0
  183.6870  177.2240  136.1430 C   0  0  0  0  0  3  0  0  0  0  0  0
  183.5650  178.7990  140.6950 C   0  0  0  0  0  0  0  0  0  0  0  0
  186.4850  178.6530  142.3980 N   0  0  0  0  0  2  0  0  0  0  0  0
  185.2130  178.8380  141.9870 C   0  0  0  0  0  0  0  0  0  0  0  0
  184.8860  178.7020  140.7150 N   0  0  0  0  0  0  0  0  0  0  0  0
  185.7140  178.3680  139.7050 C   0  0  0  0  0  0  0  0  0  0  0  0
  185.7320  177.3850  137.4200 C   0  0  0  0  0  3  0  0  0  0  0  0
  189.0120  179.1140  136.9880 C   0  0  0  0  0  1  0  0  0  0  0  0
  187.9500  178.7010  137.8360 O   0  0  0  0  0  0  0  0  0  0  0  0
  180.6420  177.4310  139.6730 C   0  0  0  0  0  1  0  0  0  0  0  0
  181.4340  178.6380  139.4840 N   0  0  0  0  0  0  0  0  0  0  0  0
  180.7870  179.9330  139.2570 C   0  0  1  0  0  3  0  0  0  0  0  0
  180.3580  180.4980  140.4630 O   0  0  0  0  0  0  0  0  0  0  0  0
  178.9680  180.3660  140.4440 C   0  0  0  0  0  1  0  0  0  0  0  0
  181.6900  180.9000  138.4880 C   0  0  0  0  0  2  0  0  0  0  0  0
  180.9500  182.0480  137.9490 C   0  0  0  0  0  0  0  0  0  0  0  0
  180.3450  182.9910  137.5050 C   0  0  0  0  0  3  0  0  0  0  0  0
  189.5440  178.0040  139.6380 C   0  0  0  0  0  2  0  0  0  0  0  0
  190.5980  176.9230  141.6810 C   0  0  0  0  0  0  0  0  0  0  0  0
  191.6370  177.6280  141.5770 O   0  0  0  0  0  0  0  0  0  0  0  0
  189.5150  177.0760  140.7590 N   0  0  0  0  0  2  0  0  0  0  0  0
  190.5020  175.9150  142.7720 C   0  0  0  0  0  2  0  0  0  0  0  0
  189.6900  176.4330  143.8620 N   0  0  0  0  0  2  0  0  0  0  0  0
  190.5580  177.2240  144.7250 C   0  0  2  0  0  3  0  0  0  0  0  0
  191.9100  176.9680  146.5190 O   0  0  0  0  0  1  0  0  0  0  0  0
  191.5440  176.3620  145.3640 N   0  0  0  0  0  2  0  0  0  0  0  0
  189.7340  177.9710  145.7710 C   0  0  0  0  0  2  0  0  0  0  0  0
  188.5230  177.0130  147.7070 C   0  0  0  0  0  1  0  0  0  0  0  0
  188.5050  177.1830  146.2000 C   0  0  1  0  0  3  0  0  0  0  0  0
  186.4590  178.3720  146.9880 C   0  0  0  0  0  1  0  0  0  0  0  0
  187.2570  177.9350  145.7740 C   0  0  0  0  0  2  0  0  0  0  0  0
  2 17  2  0  0  0  0
  3 16  2  0  0  0  0
  4 13  1  0  0  0  0
  5  3  1  0  0  0  0
  5  9  2  0  0  0  0
  6  1  1  0  0  0  0
  7  5  1  0  0  0  0
  8  4  2  0  0  0  0
  9 12  1  0  0  0  0
 10 28  1  1  0  0  0
 10  8  1  0  0  0  0
 11  2  1  0  0  0  0
 11  7  2  0  0  0  0
 12 15  1  0  0  0  0
 12  6  2  0  0  0  0
 14 13  1  0  0  0  0
 14  1  2  0  0  0  0
 15 14  1  0  0  0  0
 16  8  1  0  0  0  0
 16 15  1  0  0  0  0
 17  3  1  0  0  0  0
 18 19  1  0  0  0  0
 19 10  1  0  0  0  0
 21  9  1  0  0  0  0
 21 20  1  0  0  0  0
 22 25  1  1  0  0  0
 22 21  1  0  0  0  0
 22 23  1  0  0  0  0
 24 23  1  0  0  0  0
 26 25  1  0  0  0  0
 27 26  3  0  0  0  0
 28 31  1  0  0  0  0
 29 32  1  0  0  0  0
 30 29  2  0  0  0  0
 31 29  1  0  0  0  0
 32 33  1  0  0  0  0
 33 34  1  0  0  0  0
 34 36  1  0  0  0  0
 34 37  1  1  0  0  0
 36 35  1  0  0  0  0
 37 39  1  0  0  0  0
 39 38  1  1  0  0  0
 41 39  1  0  0  0  0
 41 40  1  0  0  0  0
M  END
>  <MODEL>
4

>  <REMARK>
 VINA RESULT:      -6.5      2.035      3.769
  Name = 
  15 active torsions:
  status: ('A' for Active; 'I' for Inactive)
    1  A    between atoms: C_6  and  C_11
    2  A    between atoms: C_6  and  C_25
    3  A    between atoms: C_11  and  N_13
    4  A    between atoms: C_11  and  N_31
    5  A    between atoms: C_14  and  N_39
    6  A    between atoms: O_15  and  C_18
    7  A    between atoms: C_16  and  O_24
    8  A    between atoms: C_16  and  C_34
    9  A    between atoms: C_16  and  N_39
   10  A    between atoms: C_17  and  C_40
   11  A    between atoms: C_18  and  C_37
   12  A    between atoms: C_23  and  C_25
   13  A    between atoms: N_31  and  C_40
   14  A    between atoms: C_34  and  C_38
   15  A    between atoms: N_35  and  C_37
                            x       y       z     vdW  Elec       q    Type
                         _______ _______ _______ _____ _____    ______ ____

>  <TORSDO>
F 15

$$$$
=
 OpenBabel11042413303D

 41 44  0  0  1  0  0  0  0  0999 V2000
  191.5950  177.2040  139.7410 N   0  0  0  0  0  0  0  0  0  0  0  0
  185.8770  177.8420  143.5150 C   0  0  0  0  0  3  0  0  0  0  0  0
  187.7370  177.9360  141.9410 C   0  0  0  0  0  0  0  0  0  0  0  0
  188.3500  177.5760  138.1970 C   0  0  0  0  0  3  0  0  0  0  0  0
  188.6480  177.8910  143.0580 C   0  0  0  0  0  0  0  0  0  0  0  0
  191.7080  177.3350  141.0680 N   0  0  0  0  0  0  0  0  0  0  0  0
  188.1370  177.8970  144.3640 C   0  0  0  0  0  3  0  0  0  0  0  0
  187.5840  177.9510  139.3470 C   0  0  0  0  0  0  0  0  0  0  0  0
  190.0490  177.7710  142.8510 C   0  0  0  0  0  0  0  0  0  0  0  0
  186.3270  178.4160  139.1410 C   0  0  1  0  0  3  0  0  0  0  0  0
  186.7620  177.8830  144.5910 C   0  0  0  0  0  3  0  0  0  0  0  0
  190.4780  177.6630  141.5330 C   0  0  0  0  0  0  0  0  0  0  0  0
  189.6920  177.3220  138.2590 N   0  0  0  0  0  2  0  0  0  0  0  0
  190.3020  177.4620  139.4550 C   0  0  0  0  0  0  0  0  0  0  0  0
  189.6060  177.7530  140.5390 N   0  0  0  0  0  0  0  0  0  0  0  0
  188.2710  177.9290  140.6130 C   0  0  0  0  0  0  0  0  0  0  0  0
  186.3630  177.8550  142.2080 C   0  0  0  0  0  3  0  0  0  0  0  0
  184.2890  179.4260  140.1260 C   0  0  0  0  0  1  0  0  0  0  0  0
  185.6960  179.2290  140.0890 O   0  0  0  0  0  0  0  0  0  0  0  0
  191.7950  178.8000  144.3120 C   0  0  0  0  0  1  0  0  0  0  0  0
  190.9760  177.6550  143.9380 N   0  0  0  0  0  0  0  0  0  0  0  0
  191.0870  176.3840  144.6590 C   0  0  1  0  0  3  0  0  0  0  0  0
  191.9320  175.4960  143.9840 O   0  0  0  0  0  0  0  0  0  0  0  0
  192.3120  174.5620  144.9500 C   0  0  0  0  0  1  0  0  0  0  0  0
  191.5420  176.5820  146.1060 C   0  0  0  0  0  2  0  0  0  0  0  0
  190.4290  176.9260  147.0010 C   0  0  0  0  0  0  0  0  0  0  0  0
  189.5170  177.2080  147.7370 C   0  0  0  0  0  3  0  0  0  0  0  0
  185.6290  178.1570  137.8260 C   0  0  0  0  0  2  0  0  0  0  0  0
  183.6430  176.6130  137.4730 C   0  0  0  0  0  0  0  0  0  0  0  0
  182.9040  177.5670  137.1110 O   0  0  0  0  0  0  0  0  0  0  0  0
  185.0110  176.8390  137.8240 N   0  0  0  0  0  2  0  0  0  0  0  0
  183.0810  175.2360  137.5450 C   0  0  0  0  0  2  0  0  0  0  0  0
  183.8450  174.3390  136.6920 N   0  0  0  0  0  2  0  0  0  0  0  0
  184.4430  173.3190  137.5440 C   0  0  2  0  0  3  0  0  0  0  0  0
  186.2250  173.9230  136.2900 O   0  0  0  0  0  1  0  0  0  0  0  0
  185.8960  173.4280  137.5070 N   0  0  0  0  0  2  0  0  0  0  0  0
  183.9950  171.9270  137.1050 C   0  0  0  0  0  2  0  0  0  0  0  0
  184.0690  171.1970  134.7400 C   0  0  0  0  0  1  0  0  0  0  0  0
  183.2590  171.9560  135.7730 C   0  0  1  0  0  3  0  0  0  0  0  0
  181.8190  170.0130  135.1660 C   0  0  0  0  0  1  0  0  0  0  0  0
  181.8940  171.3130  135.9430 C   0  0  0  0  0  2  0  0  0  0  0  0
  1  6  1  0  0  0  0
  2 11  1  0  0  0  0
  3 17  1  0  0  0  0
  3  5  1  0  0  0  0
  4 13  1  0  0  0  0
  4  8  2  0  0  0  0
  5  7  1  0  0  0  0
  6 12  2  0  0  0  0
  7 11  2  0  0  0  0
  8 16  1  0  0  0  0
  9  5  2  0  0  0  0
  9 21  1  0  0  0  0
 10 28  1  6  0  0  0
 10  8  1  0  0  0  0
 10 19  1  0  0  0  0
 12  9  1  0  0  0  0
 13 14  1  0  0  0  0
 14  1  2  0  0  0  0
 14 15  1  0  0  0  0
 15 16  1  0  0  0  0
 15 12  1  0  0  0  0
 16  3  2  0  0  0  0
 17  2  2  0  0  0  0
 19 18  1  0  0  0  0
 21 20  1  0  0  0  0
 21 22  1  0  0  0  0
 22 25  1  1  0  0  0
 23 22  1  0  0  0  0
 23 24  1  0  0  0  0
 25 26  1  0  0  0  0
 26 27  3  0  0  0  0
 29 32  1  0  0  0  0
 29 31  1  0  0  0  0
 30 29  2  0  0  0  0
 31 28  1  0  0  0  0
 33 34  1  0  0  0  0
 33 32  1  0  0  0  0
 34 37  1  6  0  0  0
 35 36  1  0  0  0  0
 36 34  1  0  0  0  0
 39 38  1  6  0  0  0
 39 41  1  0  0  0  0
 39 37  1  0  0  0  0
 40 41  1  0  0  0  0
M  END
>  <MODEL>
5

>  <REMARK>
 VINA RESULT:      -6.4      3.810      9.608
  Name = 
  15 active torsions:
  status: ('A' for Active; 'I' for Inactive)
    1  A    between atoms: C_6  and  C_11
    2  A    between atoms: C_6  and  C_25
    3  A    between atoms: C_11  and  N_13
    4  A    between atoms: C_11  and  N_31
    5  A    between atoms: C_14  and  N_39
    6  A    between atoms: O_15  and  C_18
    7  A    between atoms: C_16  and  O_24
    8  A    between atoms: C_16  and  C_34
    9  A    between atoms: C_16  and  N_39
   10  A    between atoms: C_17  and  C_40
   11  A    between atoms: C_18  and  C_37
   12  A    between atoms: C_23  and  C_25
   13  A    between atoms: N_31  and  C_40
   14  A    between atoms: C_34  and  C_38
   15  A    between atoms: N_35  and  C_37
                            x       y       z     vdW  Elec       q    Type
                         _______ _______ _______ _____ _____    ______ ____

>  <TORSDO>
F 15

$$$$
=
 OpenBabel11042413303D

 41 44  0  0  1  0  0  0  0  0999 V2000
  187.8670  178.3940  139.2370 N   0  0  0  0  0  0  0  0  0  0  0  0
  186.0140  177.5730  145.8130 C   0  0  0  0  0  3  0  0  0  0  0  0
  186.3780  178.1800  143.4800 C   0  0  0  0  0  0  0  0  0  0  0  0
  184.3940  178.4290  140.2360 C   0  0  0  0  0  3  0  0  0  0  0  0
  187.8000  178.1370  143.7190 C   0  0  0  0  0  0  0  0  0  0  0  0
  188.8180  178.3630  140.1770 N   0  0  0  0  0  0  0  0  0  0  0  0
  188.2730  177.8840  145.0150 C   0  0  0  0  0  3  0  0  0  0  0  0
  184.5590  178.5170  141.6550 C   0  0  0  0  0  0  0  0  0  0  0  0
  188.7230  178.2790  142.6480 C   0  0  0  0  0  0  0  0  0  0  0  0
  183.4600  178.7920  142.3990 C   0  0  1  0  0  3  0  0  0  0  0  0
  187.3860  177.6140  146.0560 C   0  0  0  0  0  3  0  0  0  0  0  0
  188.1850  178.4200  141.3740 C   0  0  0  0  0  0  0  0  0  0  0  0
  185.4560  178.3940  139.3740 N   0  0  0  0  0  2  0  0  0  0  0  0
  186.6950  178.4720  139.9020 C   0  0  0  0  0  0  0  0  0  0  0  0
  186.8720  178.4970  141.2110 N   0  0  0  0  0  0  0  0  0  0  0  0
  185.9090  178.4390  142.1520 C   0  0  0  0  0  0  0  0  0  0  0  0
  185.5220  177.8400  144.5360 C   0  0  0  0  0  3  0  0  0  0  0  0
  182.5570  179.2620  144.6600 C   0  0  0  0  0  1  0  0  0  0  0  0
  183.5760  179.3550  143.6750 O   0  0  0  0  0  0  0  0  0  0  0  0
  190.8470  179.2140  143.5720 C   0  0  0  0  0  1  0  0  0  0  0  0
  190.1400  178.1720  142.8410 N   0  0  0  0  0  0  0  0  0  0  0  0
  190.8570  177.0160  142.2980 C   0  0  1  0  0  3  0  0  0  0  0  0
  192.1920  177.3350  142.0260 O   0  0  0  0  0  0  0  0  0  0  0  0
  192.2470  177.4910  140.6400 C   0  0  0  0  0  1  0  0  0  0  0  0
  190.7610  175.7960  143.2170 C   0  0  0  0  0  2  0  0  0  0  0  0
  191.2720  176.0690  144.5660 C   0  0  0  0  0  0  0  0  0  0  0  0
  191.6900  176.2960  145.6730 C   0  0  0  0  0  3  0  0  0  0  0  0
  182.0800  178.5990  141.8140 C   0  0  0  0  0  2  0  0  0  0  0  0
  181.0300  179.2700  139.6000 C   0  0  0  0  0  0  0  0  0  0  0  0
  180.4530  178.1560  139.4820 O   0  0  0  0  0  0  0  0  0  0  0  0
  181.8380  179.5580  140.7450 N   0  0  0  0  0  2  0  0  0  0  0  0
  180.8760  180.2940  138.5300 C   0  0  0  0  0  2  0  0  0  0  0  0
  180.4730  181.5660  139.1100 N   0  0  0  0  0  2  0  0  0  0  0  0
  179.9110  182.3830  138.0420 C   0  0  2  0  0  3  0  0  0  0  0  0
  179.3810  181.8370  135.9130 O   0  0  0  0  0  1  0  0  0  0  0  0
  179.0450  181.5710  137.1970 N   0  0  0  0  0  2  0  0  0  0  0  0
  181.0250  183.0220  137.2160 C   0  0  0  0  0  2  0  0  0  0  0  0
  180.7860  185.0270  135.7840 C   0  0  0  0  0  1  0  0  0  0  0  0
  180.9370  184.5400  137.2130 C   0  0  1  0  0  3  0  0  0  0  0  0
  179.0210  186.1290  137.3740 C   0  0  0  0  0  1  0  0  0  0  0  0
  179.7400  184.9720  138.0410 C   0  0  0  0  0  2  0  0  0  0  0  0
  1 14  2  0  0  0  0
  1  6  1  0  0  0  0
  2 11  1  0  0  0  0
  3  5  1  0  0  0  0
  3 17  1  0  0  0  0
  4  8  2  0  0  0  0
  5  7  1  0  0  0  0
  6 12  2  0  0  0  0
  7 11  2  0  0  0  0
  8 16  1  0  0  0  0
  8 10  1  0  0  0  0
  9 21  1  0  0  0  0
  9  5  2  0  0  0  0
 10 28  1  6  0  0  0
 10 19  1  0  0  0  0
 12  9  1  0  0  0  0
 13 14  1  0  0  0  0
 13  4  1  0  0  0  0
 14 15  1  0  0  0  0
 15 12  1  0  0  0  0
 15 16  1  0  0  0  0
 16  3  2  0  0  0  0
 17  2  2  0  0  0  0
 19 18  1  0  0  0  0
 21 20  1  0  0  0  0
 22 21  1  0  0  0  0
 22 25  1  1  0  0  0
 23 22  1  0  0  0  0
 24 23  1  0  0  0  0
 25 26  1  0  0  0  0
 26 27  3  0  0  0  0
 29 31  1  0  0  0  0
 30 29  2  0  0  0  0
 31 28  1  0  0  0  0
 32 33  1  0  0  0  0
 32 29  1  0  0  0  0
 34 37  1  6  0  0  0
 34 33  1  0  0  0  0
 35 36  1  0  0  0  0
 36 34  1  0  0  0  0
 39 38  1  6  0  0  0
 39 37  1  0  0  0  0
 39 41  1  0  0  0  0
 40 41  1  0  0  0  0
M  END
>  <MODEL>
6

>  <REMARK>
 VINA RESULT:      -6.3      2.475     10.060
  Name = 
  15 active torsions:
  status: ('A' for Active; 'I' for Inactive)
    1  A    between atoms: C_6  and  C_11
    2  A    between atoms: C_6  and  C_25
    3  A    between atoms: C_11  and  N_13
    4  A    between atoms: C_11  and  N_31
    5  A    between atoms: C_14  and  N_39
    6  A    between atoms: O_15  and  C_18
    7  A    between atoms: C_16  and  O_24
    8  A    between atoms: C_16  and  C_34
    9  A    between atoms: C_16  and  N_39
   10  A    between atoms: C_17  and  C_40
   11  A    between atoms: C_18  and  C_37
   12  A    between atoms: C_23  and  C_25
   13  A    between atoms: N_31  and  C_40
   14  A    between atoms: C_34  and  C_38
   15  A    between atoms: N_35  and  C_37
                            x       y       z     vdW  Elec       q    Type
                         _______ _______ _______ _____ _____    ______ ____

>  <TORSDO>
F 15

$$$$
=
 OpenBabel11042413303D

 41 44  0  0  1  0  0  0  0  0999 V2000
  186.4300  178.4680  146.7350 N   0  0  0  0  0  0  0  0  0  0  0  0
  186.6130  178.6330  139.8580 C   0  0  0  0  0  3  0  0  0  0  0  0
  186.2020  178.3240  142.2420 C   0  0  0  0  0  0  0  0  0  0  0  0
  183.4280  178.9470  144.7810 C   0  0  0  0  0  3  0  0  0  0  0  0
  187.6080  178.0590  142.4220 C   0  0  0  0  0  0  0  0  0  0  0  0
  187.5770  178.1760  146.1120 N   0  0  0  0  0  0  0  0  0  0  0  0
  188.4500  178.0200  141.3010 C   0  0  0  0  0  3  0  0  0  0  0  0
  183.9380  178.6180  143.4840 C   0  0  0  0  0  0  0  0  0  0  0  0
  188.1590  177.9060  143.7230 C   0  0  0  0  0  0  0  0  0  0  0  0
  183.0410  178.4500  142.4810 C   0  0  1  0  0  3  0  0  0  0  0  0
  187.9540  178.2950  140.0280 C   0  0  0  0  0  3  0  0  0  0  0  0
  187.2860  178.0630  144.7930 C   0  0  0  0  0  0  0  0  0  0  0  0
  184.2050  178.9080  145.9060 N   0  0  0  0  0  2  0  0  0  0  0  0
  185.4890  178.5170  145.7690 C   0  0  0  0  0  0  0  0  0  0  0  0
  185.9950  178.2630  144.5760 N   0  0  0  0  0  0  0  0  0  0  0  0
  185.3530  178.3610  143.3940 C   0  0  0  0  0  0  0  0  0  0  0  0
  185.7540  178.6600  140.9570 C   0  0  0  0  0  3  0  0  0  0  0  0
  182.3830  177.0310  140.5580 C   0  0  0  0  0  1  0  0  0  0  0  0
  183.3610  177.6890  141.3500 O   0  0  0  0  0  0  0  0  0  0  0  0
  190.4470  178.8660  144.0150 C   0  0  0  0  0  1  0  0  0  0  0  0
  189.5630  177.7110  143.9400 N   0  0  0  0  0  0  0  0  0  0  0  0
  190.0890  176.3510  144.0830 C   0  0  1  0  0  3  0  0  0  0  0  0
  190.0420  175.6640  142.8650 O   0  0  0  0  0  0  0  0  0  0  0  0
  191.0940  176.1920  142.1160 C   0  0  0  0  0  1  0  0  0  0  0  0
  191.5040  176.3400  144.6660 C   0  0  0  0  0  2  0  0  0  0  0  0
  191.5040  176.2730  146.1330 C   0  0  0  0  0  0  0  0  0  0  0  0
  191.5010  176.2170  147.3360 C   0  0  0  0  0  3  0  0  0  0  0  0
  181.6360  178.9870  142.6210 C   0  0  0  0  0  2  0  0  0  0  0  0
  179.9530  180.2830  141.2290 C   0  0  0  0  0  0  0  0  0  0  0  0
  179.0290  180.0670  142.0570 O   0  0  0  0  0  0  0  0  0  0  0  0
  181.2750  179.7890  141.4610 N   0  0  0  0  0  2  0  0  0  0  0  0
  179.6620  181.0560  139.9900 C   0  0  0  0  0  2  0  0  0  0  0  0
  180.4330  180.5240  138.8760 N   0  0  0  0  0  2  0  0  0  0  0  0
  180.0610  181.2720  137.6810 C   0  0  2  0  0  3  0  0  0  0  0  0
  179.4120  179.1770  137.1350 O   0  0  0  0  0  1  0  0  0  0  0  0
  179.7910  180.3540  136.5830 N   0  0  0  0  0  2  0  0  0  0  0  0
  181.1650  182.2580  137.3040 C   0  0  0  0  0  2  0  0  0  0  0  0
  181.9700  184.5820  137.5840 C   0  0  0  0  0  1  0  0  0  0  0  0
  180.7360  183.7030  137.5080 C   0  0  1  0  0  3  0  0  0  0  0  0
  180.7100  184.5450  135.1610 C   0  0  0  0  0  1  0  0  0  0  0  0
  179.8590  184.1320  136.3460 C   0  0  0  0  0  2  0  0  0  0  0  0
  2 11  1  0  0  0  0
  2 17  2  0  0  0  0
  3  5  1  0  0  0  0
  3 16  2  0  0  0  0
  4 13  1  0  0  0  0
  5  9  2  0  0  0  0
  6  1  1  0  0  0  0
  7  5  1  0  0  0  0
  8  4  2  0  0  0  0
  9 21  1  0  0  0  0
  9 12  1  0  0  0  0
 10 28  1  1  0  0  0
 10  8  1  0  0  0  0
 11  7  2  0  0  0  0
 12  6  2  0  0  0  0
 14 13  1  0  0  0  0
 14  1  2  0  0  0  0
 15 12  1  0  0  0  0
 15 14  1  0  0  0  0
 16  8  1  0  0  0  0
 16 15  1  0  0  0  0
 17  3  1  0  0  0  0
 18 19  1  0  0  0  0
 19 10  1  0  0  0  0
 21 20  1  0  0  0  0
 21 22  1  0  0  0  0
 22 25  1  6  0  0  0
 23 22  1  0  0  0  0
 24 23  1  0  0  0  0
 25 26  1  0  0  0  0
 26 27  3  0  0  0  0
 29 31  1  0  0  0  0
 29 30  2  0  0  0  0
 31 28  1  0  0  0  0
 32 29  1  0  0  0  0
 33 32  1  0  0  0  0
 34 37  1  6  0  0  0
 34 33  1  0  0  0  0
 36 35  1  0  0  0  0
 36 34  1  0  0  0  0
 37 39  1  0  0  0  0
 39 38  1  6  0  0  0
 40 41  1  0  0  0  0
 41 39  1  0  0  0  0
M  END
>  <MODEL>
7

>  <REMARK>
 VINA RESULT:      -6.3      2.664     10.401
  Name = 
  15 active torsions:
  status: ('A' for Active; 'I' for Inactive)
    1  A    between atoms: C_6  and  C_11
    2  A    between atoms: C_6  and  C_25
    3  A    between atoms: C_11  and  N_13
    4  A    between atoms: C_11  and  N_31
    5  A    between atoms: C_14  and  N_39
    6  A    between atoms: O_15  and  C_18
    7  A    between atoms: C_16  and  O_24
    8  A    between atoms: C_16  and  C_34
    9  A    between atoms: C_16  and  N_39
   10  A    between atoms: C_17  and  C_40
   11  A    between atoms: C_18  and  C_37
   12  A    between atoms: C_23  and  C_25
   13  A    between atoms: N_31  and  C_40
   14  A    between atoms: C_34  and  C_38
   15  A    between atoms: N_35  and  C_37
                            x       y       z     vdW  Elec       q    Type
                         _______ _______ _______ _____ _____    ______ ____

>  <TORSDO>
F 15

$$$$
=
 OpenBabel11042413303D

 41 44  0  0  1  0  0  0  0  0999 V2000
  183.9500  179.0160  142.5830 N   0  0  0  0  0  0  0  0  0  0  0  0
  185.1040  176.9430  136.1240 C   0  0  0  0  0  3  0  0  0  0  0  0
  185.0300  177.9410  138.3470 C   0  0  0  0  0  0  0  0  0  0  0  0
  187.2950  178.3570  141.3840 C   0  0  0  0  0  3  0  0  0  0  0  0
  183.6020  178.0870  138.2040 C   0  0  0  0  0  0  0  0  0  0  0  0
  182.9290  178.9950  141.7190 N   0  0  0  0  0  0  0  0  0  0  0  0
  182.9910  177.7210  136.9960 C   0  0  0  0  0  3  0  0  0  0  0  0
  187.0260  178.2560  139.9820 C   0  0  0  0  0  0  0  0  0  0  0  0
  182.8030  178.5290  139.2930 C   0  0  0  0  0  0  0  0  0  0  0  0
  188.0870  178.2410  139.1380 C   0  0  1  0  0  3  0  0  0  0  0  0
  183.7380  177.1620  135.9600 C   0  0  0  0  0  3  0  0  0  0  0  0
  183.4610  178.7720  140.4930 C   0  0  0  0  0  0  0  0  0  0  0  0
  186.3160  178.6170  142.3030 N   0  0  0  0  0  2  0  0  0  0  0  0
  185.0610  178.8080  141.8450 C   0  0  0  0  0  0  0  0  0  0  0  0
  184.7800  178.6660  140.5620 N   0  0  0  0  0  0  0  0  0  0  0  0
  185.6420  178.3180  139.5860 C   0  0  0  0  0  0  0  0  0  0  0  0
  185.7360  177.3170  137.3100 C   0  0  0  0  0  3  0  0  0  0  0  0
  189.0310  178.6350  136.8800 C   0  0  0  0  0  1  0  0  0  0  0  0
  187.9470  178.6200  137.7980 O   0  0  0  0  0  0  0  0  0  0  0  0
  180.7510  179.8990  138.9010 C   0  0  0  0  0  1  0  0  0  0  0  0
  181.3750  178.6180  139.2060 N   0  0  0  0  0  0  0  0  0  0  0  0
  180.5610  177.4200  139.4250 C   0  0  1  0  0  3  0  0  0  0  0  0
  181.2980  176.4240  140.0740 O   0  0  0  0  0  0  0  0  0  0  0  0
  181.0280  175.2560  139.3590 C   0  0  0  0  0  1  0  0  0  0  0  0
  179.2700  177.7320  140.1850 C   0  0  0  0  0  2  0  0  0  0  0  0
  179.5030  177.9470  141.6190 C   0  0  0  0  0  0  0  0  0  0  0  0
  179.6930  178.1190  142.7960 C   0  0  0  0  0  3  0  0  0  0  0  0
  189.4680  177.9240  139.6620 C   0  0  0  0  0  2  0  0  0  0  0  0
  190.5190  176.8030  141.6850 C   0  0  0  0  0  0  0  0  0  0  0  0
  191.6610  177.2520  141.4010 O   0  0  0  0  0  0  0  0  0  0  0  0
  189.3850  177.1160  140.8710 N   0  0  0  0  0  2  0  0  0  0  0  0
  190.3500  175.9290  142.8790 C   0  0  0  0  0  2  0  0  0  0  0  0
  191.3160  176.2930  143.9050 N   0  0  0  0  0  2  0  0  0  0  0  0
  190.7020  177.3100  144.7510 C   0  0  2  0  0  3  0  0  0  0  0  0
  190.9930  179.4130  143.9760 O   0  0  0  0  0  1  0  0  0  0  0  0
  191.5490  178.4940  144.8010 N   0  0  0  0  0  2  0  0  0  0  0  0
  190.4590  176.7600  146.1550 C   0  0  0  0  0  2  0  0  0  0  0  0
  189.0640  178.0790  147.7170 C   0  0  0  0  0  1  0  0  0  0  0  0
  189.0390  177.0190  146.6340 C   0  0  1  0  0  3  0  0  0  0  0  0
  186.8130  177.8960  145.9320 C   0  0  0  0  0  1  0  0  0  0  0  0
  188.1950  177.4880  145.4620 C   0  0  0  0  0  2  0  0  0  0  0  0
  2 17  2  0  0  0  0
  3 16  2  0  0  0  0
  4 13  1  0  0  0  0
  5  3  1  0  0  0  0
  5  9  2  0  0  0  0
  6  1  1  0  0  0  0
  7  5  1  0  0  0  0
  8  4  2  0  0  0  0
  9 12  1  0  0  0  0
 10 28  1  1  0  0  0
 10  8  1  0  0  0  0
 11  2  1  0  0  0  0
 11  7  2  0  0  0  0
 12 15  1  0  0  0  0
 12  6  2  0  0  0  0
 14 13  1  0  0  0  0
 14  1  2  0  0  0  0
 15 14  1  0  0  0  0
 16  8  1  0  0  0  0
 16 15  1  0  0  0  0
 17  3  1  0  0  0  0
 18 19  1  0  0  0  0
 19 10  1  0  0  0  0
 20 21  1  0  0  0  0
 21  9  1  0  0  0  0
 21 22  1  0  0  0  0
 22 23  1  0  0  0  0
 22 25  1  1  0  0  0
 24 23  1  0  0  0  0
 25 26  1  0  0  0  0
 26 27  3  0  0  0  0
 28 31  1  0  0  0  0
 29 32  1  0  0  0  0
 30 29  2  0  0  0  0
 31 29  1  0  0  0  0
 32 33  1  0  0  0  0
 33 34  1  0  0  0  0
 34 36  1  0  0  0  0
 34 37  1  1  0  0  0
 35 36  1  0  0  0  0
 37 39  1  0  0  0  0
 39 38  1  1  0  0  0
 41 40  1  0  0  0  0
 41 39  1  0  0  0  0
M  END
>  <MODEL>
8

>  <REMARK>
 VINA RESULT:      -6.2      2.189      3.861
  Name = 
  15 active torsions:
  status: ('A' for Active; 'I' for Inactive)
    1  A    between atoms: C_6  and  C_11
    2  A    between atoms: C_6  and  C_25
    3  A    between atoms: C_11  and  N_13
    4  A    between atoms: C_11  and  N_31
    5  A    between atoms: C_14  and  N_39
    6  A    between atoms: O_15  and  C_18
    7  A    between atoms: C_16  and  O_24
    8  A    between atoms: C_16  and  C_34
    9  A    between atoms: C_16  and  N_39
   10  A    between atoms: C_17  and  C_40
   11  A    between atoms: C_18  and  C_37
   12  A    between atoms: C_23  and  C_25
   13  A    between atoms: N_31  and  C_40
   14  A    between atoms: C_34  and  C_38
   15  A    between atoms: N_35  and  C_37
                            x       y       z     vdW  Elec       q    Type
                         _______ _______ _______ _____ _____    ______ ____

>  <TORSDO>
F 15

$$$$
=
 OpenBabel11042413303D

 41 44  0  0  1  0  0  0  0  0999 V2000
  191.3110  177.1570  139.6700 N   0  0  0  0  0  0  0  0  0  0  0  0
  185.7140  177.8970  143.6040 C   0  0  0  0  0  3  0  0  0  0  0  0
  187.5220  177.9470  141.9690 C   0  0  0  0  0  0  0  0  0  0  0  0
  188.0170  177.4760  138.2200 C   0  0  0  0  0  3  0  0  0  0  0  0
  188.4690  177.9370  143.0570 C   0  0  0  0  0  0  0  0  0  0  0  0
  191.4650  177.3270  140.9880 N   0  0  0  0  0  0  0  0  0  0  0  0
  188.0000  177.9810  144.3780 C   0  0  0  0  0  3  0  0  0  0  0  0
  187.2870  177.8840  139.3820 C   0  0  0  0  0  0  0  0  0  0  0  0
  189.8630  177.8140  142.8090 C   0  0  0  0  0  0  0  0  0  0  0  0
  186.0230  178.3400  139.2020 C   0  0  1  0  0  3  0  0  0  0  0  0
  186.6320  177.9710  144.6490 C   0  0  0  0  0  3  0  0  0  0  0  0
  190.2500  177.6670  141.4820 C   0  0  0  0  0  0  0  0  0  0  0  0
  189.3610  177.2270  138.2470 N   0  0  0  0  0  2  0  0  0  0  0  0
  190.0090  177.4040  139.4180 C   0  0  0  0  0  0  0  0  0  0  0  0
  189.3470  177.7260  140.5140 N   0  0  0  0  0  0  0  0  0  0  0  0
  188.0140  177.9010  140.6250 C   0  0  0  0  0  0  0  0  0  0  0  0
  186.1580  177.8720  142.2820 C   0  0  0  0  0  3  0  0  0  0  0  0
  184.1330  179.7540  139.9610 C   0  0  0  0  0  1  0  0  0  0  0  0
  185.4200  179.1800  140.1450 O   0  0  0  0  0  0  0  0  0  0  0  0
  191.6450  178.8930  144.1880 C   0  0  0  0  0  1  0  0  0  0  0  0
  190.8240  177.7320  143.8690 N   0  0  0  0  0  0  0  0  0  0  0  0
  190.9690  176.4810  144.6170 C   0  0  1  0  0  3  0  0  0  0  0  0
  191.8250  175.5950  143.9540 O   0  0  0  0  0  0  0  0  0  0  0  0
  192.2450  174.6990  144.9390 C   0  0  0  0  0  1  0  0  0  0  0  0
  191.4330  176.7210  146.0550 C   0  0  0  0  0  2  0  0  0  0  0  0
  190.3190  177.0350  146.9580 C   0  0  0  0  0  0  0  0  0  0  0  0
  189.4050  177.2950  147.6990 C   0  0  0  0  0  3  0  0  0  0  0  0
  185.2840  178.0410  137.9190 C   0  0  0  0  0  2  0  0  0  0  0  0
  182.8770  177.2430  137.7600 C   0  0  0  0  0  0  0  0  0  0  0  0
  182.5180  178.2930  137.1620 O   0  0  0  0  0  0  0  0  0  0  0  0
  184.2410  177.0500  138.1460 N   0  0  0  0  0  2  0  0  0  0  0  0
  181.8670  176.1960  138.0750 C   0  0  0  0  0  2  0  0  0  0  0  0
  181.7340  176.0480  139.5170 N   0  0  0  0  0  2  0  0  0  0  0  0
  180.5020  176.7160  139.9200 C   0  0  2  0  0  3  0  0  0  0  0  0
  178.9830  178.0370  138.8900 O   0  0  0  0  0  1  0  0  0  0  0  0
  179.6060  176.8390  138.7770 N   0  0  0  0  0  2  0  0  0  0  0  0
  180.8100  178.0880  140.5150 C   0  0  0  0  0  2  0  0  0  0  0  0
  181.7510  179.0000  142.6160 C   0  0  0  0  0  1  0  0  0  0  0  0
  180.6830  178.0960  142.0310 C   0  0  1  0  0  3  0  0  0  0  0  0
  179.3630  179.3780  143.7140 C   0  0  0  0  0  1  0  0  0  0  0  0
  179.3030  178.6010  142.4130 C   0  0  0  0  0  2  0  0  0  0  0  0
  1  6  1  0  0  0  0
  2 11  1  0  0  0  0
  3 17  1  0  0  0  0
  3  5  1  0  0  0  0
  4 13  1  0  0  0  0
  4  8  2  0  0  0  0
  5  7  1  0  0  0  0
  6 12  2  0  0  0  0
  7 11  2  0  0  0  0
  8 16  1  0  0  0  0
  9  5  2  0  0  0  0
  9 21  1  0  0  0  0
 10 28  1  6  0  0  0
 10  8  1  0  0  0  0
 10 19  1  0  0  0  0
 12  9  1  0  0  0  0
 13 14  1  0  0  0  0
 14  1  2  0  0  0  0
 14 15  1  0  0  0  0
 15 16  1  0  0  0  0
 15 12  1  0  0  0  0
 16  3  2  0  0  0  0
 17  2  2  0  0  0  0
 18 19  1  0  0  0  0
 21 20  1  0  0  0  0
 21 22  1  0  0  0  0
 22 25  1  1  0  0  0
 23 22  1  0  0  0  0
 23 24  1  0  0  0  0
 25 26  1  0  0  0  0
 26 27  3  0  0  0  0
 28 31  1  0  0  0  0
 29 32  1  0  0  0  0
 29 31  1  0  0  0  0
 30 29  2  0  0  0  0
 32 33  1  0  0  0  0
 33 34  1  0  0  0  0
 34 37  1  6  0  0  0
 36 35  1  0  0  0  0
 36 34  1  0  0  0  0
 37 39  1  0  0  0  0
 39 41  1  0  0  0  0
 39 38  1  1  0  0  0
 41 40  1  0  0  0  0
M  END
>  <MODEL>
9

>  <REMARK>
 VINA RESULT:      -6.2      2.042      9.031
  Name = 
  15 active torsions:
  status: ('A' for Active; 'I' for Inactive)
    1  A    between atoms: C_6  and  C_11
    2  A    between atoms: C_6  and  C_25
    3  A    between atoms: C_11  and  N_13
    4  A    between atoms: C_11  and  N_31
    5  A    between atoms: C_14  and  N_39
    6  A    between atoms: O_15  and  C_18
    7  A    between atoms: C_16  and  O_24
    8  A    between atoms: C_16  and  C_34
    9  A    between atoms: C_16  and  N_39
   10  A    between atoms: C_17  and  C_40
   11  A    between atoms: C_18  and  C_37
   12  A    between atoms: C_23  and  C_25
   13  A    between atoms: N_31  and  C_40
   14  A    between atoms: C_34  and  C_38
   15  A    between atoms: N_35  and  C_37
                            x       y       z     vdW  Elec       q    Type
                         _______ _______ _______ _____ _____    ______ ____

>  <TORSDO>
F 15

$$$$
