=
 OpenBabel11042413113D

 32 37  0  0  1  0  0  0  0  0999 V2000
  186.3000  178.2670  142.4360 C   0  0  0  0  0  3  0  0  0  0  0  0
  188.7620  177.1590  146.7440 C   0  0  0  0  0  3  0  0  0  0  0  0
  184.7100  178.6200  145.5750 C   0  0  0  0  0  0  0  0  0  0  0  0
  191.0370  176.4540  145.7580 C   0  0  2  0  0  3  0  0  0  0  0  0
  189.2470  177.1430  144.4100 N   0  0  0  0  0  0  0  0  0  0  0  0
  185.4280  178.5030  143.4930 C   0  0  0  0  0  0  0  0  0  0  0  0
  187.4720  177.6170  146.4580 C   0  0  0  0  0  3  0  0  0  0  0  0
  187.5990  177.8080  142.7180 C   0  0  0  0  0  0  0  0  0  0  0  0
  188.0000  177.5870  144.0700 C   0  0  0  0  0  0  0  0  0  0  0  0
  184.6470  178.5540  146.9960 N   0  0  0  0  0  1  0  0  0  0  0  0
  191.4340  176.3930  144.2690 C   0  0  0  0  0  2  0  0  0  0  0  0
  187.0770  177.8370  145.1270 C   0  0  0  0  0  0  0  0  0  0  0  0
  184.1220  178.9530  143.4380 C   0  0  0  0  0  3  0  0  0  0  0  0
  185.7980  178.2960  144.7960 C   0  0  0  0  0  0  0  0  0  0  0  0
  189.6300  176.9330  145.6780 C   0  0  0  0  0  0  0  0  0  0  0  0
  190.2800  176.8430  143.5650 O   0  0  0  0  0  0  0  0  0  0  0  0
  183.6690  179.0260  144.7550 C   0  0  0  0  0  3  0  0  0  0  0  0
  191.8220  177.4070  146.4090 O   0  0  0  0  0  0  0  0  0  0  0  0
  191.9240  176.9560  147.6810 N   0  0  0  0  0  2  0  0  0  0  0  0
  192.4990  175.6250  147.6070 C   0  0  0  0  0  1  0  0  0  0  0  0
  188.5030  177.5380  141.5610 C   0  0  0  0  0  2  0  0  0  0  0  0
  188.0580  178.3420  140.3530 C   0  0  0  0  0  2  0  0  0  0  0  0
  189.1260  178.3850  139.3710 N   0  0  0  0  0  2  0  0  0  0  0  0
  189.7990  177.0940  139.4130 C   0  0  0  0  0  2  0  0  0  0  0  0
  192.0750  176.5250  138.4830 C   0  0  0  0  0  2  0  0  0  0  0  0
  191.8020  173.3230  136.2000 S   0  0  0  0  0  0  0  0  0  0  0  0
  189.8850  175.5320  137.1030 S   0  0  0  0  0  0  0  0  0  0  0  0
  190.6180  176.8630  138.1480 C   0  0  1  0  0  3  0  0  0  0  0  0
  193.6810  174.6610  137.7260 C   0  0  0  0  0  2  0  0  0  0  0  0
  191.3460  174.5370  137.4470 C   0  0  2  0  0  3  0  0  0  0  0  0
  192.4650  175.4980  137.4590 C   0  0  1  0  0  3  0  0  0  0  0  0
  193.5470  173.4670  136.7750 C   0  0  0  0  0  2  0  0  0  0  0  0
  1  8  1  0  0  0  0
  1  6  2  0  0  0  0
  3 10  1  0  0  0  0
  4 18  1  1  0  0  0
  5 15  1  0  0  0  0
  6 14  1  0  0  0  0
  7  2  1  0  0  0  0
  8  9  2  0  0  0  0
  9  5  1  0  0  0  0
  9 12  1  0  0  0  0
 11  4  1  0  0  0  0
 12  7  2  0  0  0  0
 13  6  1  0  0  0  0
 13 17  2  0  0  0  0
 14 12  1  0  0  0  0
 14  3  2  0  0  0  0
 15  4  1  0  0  0  0
 15  2  2  0  0  0  0
 16 11  1  0  0  0  0
 16  5  1  0  0  0  0
 17  3  1  0  0  0  0
 18 19  1  0  0  0  0
 20 19  1  0  0  0  0
 21  8  1  0  0  0  0
 22 21  1  0  0  0  0
 23 24  1  0  0  0  0
 23 22  1  0  0  0  0
 26 32  1  0  0  0  0
 27 30  1  0  0  0  0
 27 28  1  0  0  0  0
 28 25  1  0  0  0  0
 28 24  1  1  0  0  0
 30 26  1  6  0  0  0
 30 31  1  0  0  0  0
 31 29  1  1  0  0  0
 31 25  1  0  0  0  0
 32 29  1  0  0  0  0
M  END
>  <MODEL>
1

>  <REMARK>
 VINA RESULT:     -10.0      0.000      0.000
  Name = 
  7 active torsions:
  status: ('A' for Active; 'I' for Inactive)
    1  A    between atoms: O_3  and  N_4
    2  A    between atoms: O_3  and  C_12
    3  A    between atoms: C_5  and  C_16
    4  A    between atoms: C_5  and  C_28
    5  A    between atoms: C_8  and  C_25
    6  A    between atoms: N_20  and  C_25
    7  A    between atoms: N_20  and  C_28
                            x       y       z     vdW  Elec       q    Type
                         _______ _______ _______ _____ _____    ______ ____

>  <TORSDO>
F 7

$$$$
=
 OpenBabel11042413113D

 32 37  0  0  1  0  0  0  0  0999 V2000
  186.4390  178.1720  142.3050 C   0  0  0  0  0  3  0  0  0  0  0  0
  188.7420  177.1930  146.7310 C   0  0  0  0  0  3  0  0  0  0  0  0
  184.7520  178.6620  145.3750 C   0  0  0  0  0  0  0  0  0  0  0  0
  191.0370  176.4220  145.8480 C   0  0  2  0  0  3  0  0  0  0  0  0
  189.3030  177.0840  144.4170 N   0  0  0  0  0  0  0  0  0  0  0  0
  185.5360  178.4590  143.3240 C   0  0  0  0  0  0  0  0  0  0  0  0
  187.4690  177.6570  146.3860 C   0  0  0  0  0  3  0  0  0  0  0  0
  187.7210  177.7070  142.6480 C   0  0  0  0  0  0  0  0  0  0  0  0
  188.0740  177.5310  144.0200 C   0  0  0  0  0  0  0  0  0  0  0  0
  184.6410  178.6510  146.7940 N   0  0  0  0  0  1  0  0  0  0  0  0
  191.4820  176.3010  144.3770 C   0  0  0  0  0  2  0  0  0  0  0  0
  187.1210  177.8330  145.0350 C   0  0  0  0  0  0  0  0  0  0  0  0
  184.2390  178.9230  143.2090 C   0  0  0  0  0  3  0  0  0  0  0  0
  185.8600  178.2960  144.6450 C   0  0  0  0  0  0  0  0  0  0  0  0
  189.6410  176.9160  145.7040 C   0  0  0  0  0  0  0  0  0  0  0  0
  190.3590  176.7390  143.6180 O   0  0  0  0  0  0  0  0  0  0  0  0
  183.7450  179.0520  144.5060 C   0  0  0  0  0  3  0  0  0  0  0  0
  191.8140  177.3880  146.4900 O   0  0  0  0  0  0  0  0  0  0  0  0
  191.9190  176.9520  147.7660 N   0  0  0  0  0  2  0  0  0  0  0  0
  192.5150  175.6290  147.7080 C   0  0  0  0  0  1  0  0  0  0  0  0
  188.6590  177.3830  141.5320 C   0  0  0  0  0  2  0  0  0  0  0  0
  188.3290  178.2240  140.3120 C   0  0  0  0  0  2  0  0  0  0  0  0
  189.4650  178.2440  139.4090 N   0  0  0  0  0  2  0  0  0  0  0  0
  189.0210  178.8760  138.1740 C   0  0  0  0  0  2  0  0  0  0  0  0
  190.0760  176.7750  137.2580 C   0  0  0  0  0  2  0  0  0  0  0  0
  187.2710  174.1050  136.5200 S   0  0  0  0  0  0  0  0  0  0  0  0
  187.3870  177.1590  136.7020 S   0  0  0  0  0  0  0  0  0  0  0  0
  189.0520  177.8890  137.0130 C   0  0  1  0  0  3  0  0  0  0  0  0
  189.9710  174.2070  137.1110 C   0  0  0  0  0  2  0  0  0  0  0  0
  188.0520  175.5670  137.2200 C   0  0  2  0  0  3  0  0  0  0  0  0
  189.4300  175.5430  136.6940 C   0  0  1  0  0  3  0  0  0  0  0  0
  188.8650  173.2100  136.7500 C   0  0  0  0  0  2  0  0  0  0  0  0
  1  8  1  0  0  0  0
  1  6  2  0  0  0  0
  3 10  1  0  0  0  0
  4 18  1  1  0  0  0
  5 15  1  0  0  0  0
  6 14  1  0  0  0  0
  7  2  1  0  0  0  0
  8  9  2  0  0  0  0
  9  5  1  0  0  0  0
  9 12  1  0  0  0  0
 11  4  1  0  0  0  0
 12  7  2  0  0  0  0
 13  6  1  0  0  0  0
 13 17  2  0  0  0  0
 14 12  1  0  0  0  0
 14  3  2  0  0  0  0
 15  4  1  0  0  0  0
 15  2  2  0  0  0  0
 16 11  1  0  0  0  0
 16  5  1  0  0  0  0
 17  3  1  0  0  0  0
 18 19  1  0  0  0  0
 20 19  1  0  0  0  0
 21  8  1  0  0  0  0
 22 21  1  0  0  0  0
 23 22  1  0  0  0  0
 24 23  1  0  0  0  0
 26 32  1  0  0  0  0
 27 28  1  0  0  0  0
 27 30  1  0  0  0  0
 28 25  1  0  0  0  0
 28 24  1  1  0  0  0
 30 26  1  6  0  0  0
 31 29  1  1  0  0  0
 31 30  1  0  0  0  0
 31 25  1  0  0  0  0
 32 29  1  0  0  0  0
M  END
>  <MODEL>
2

>  <REMARK>
 VINA RESULT:     -10.0      1.573      1.810
  Name = 
  7 active torsions:
  status: ('A' for Active; 'I' for Inactive)
    1  A    between atoms: O_3  and  N_4
    2  A    between atoms: O_3  and  C_12
    3  A    between atoms: C_5  and  C_16
    4  A    between atoms: C_5  and  C_28
    5  A    between atoms: C_8  and  C_25
    6  A    between atoms: N_20  and  C_25
    7  A    between atoms: N_20  and  C_28
                            x       y       z     vdW  Elec       q    Type
                         _______ _______ _______ _____ _____    ______ ____

>  <TORSDO>
F 7

$$$$
=
 OpenBabel11042413113D

 32 37  0  0  1  0  0  0  0  0999 V2000
  186.2050  178.1350  142.4690 C   0  0  0  0  0  3  0  0  0  0  0  0
  188.7810  177.1540  146.7410 C   0  0  0  0  0  3  0  0  0  0  0  0
  184.7080  178.6060  145.6380 C   0  0  0  0  0  0  0  0  0  0  0  0
  191.0220  176.3980  145.7160 C   0  0  2  0  0  3  0  0  0  0  0  0
  189.1990  177.0550  144.3960 N   0  0  0  0  0  0  0  0  0  0  0  0
  185.3650  178.4130  143.5420 C   0  0  0  0  0  0  0  0  0  0  0  0
  187.4870  177.6120  146.4760 C   0  0  0  0  0  3  0  0  0  0  0  0
  187.5090  177.6750  142.7300 C   0  0  0  0  0  0  0  0  0  0  0  0
  187.9460  177.4970  144.0770 C   0  0  0  0  0  0  0  0  0  0  0  0
  184.6850  178.5890  147.0610 N   0  0  0  0  0  1  0  0  0  0  0  0
  191.3760  176.2840  144.2200 C   0  0  0  0  0  2  0  0  0  0  0  0
  187.0560  177.7900  145.1500 C   0  0  0  0  0  0  0  0  0  0  0  0
  184.0610  178.8710  143.5090 C   0  0  0  0  0  3  0  0  0  0  0  0
  185.7710  178.2480  144.8400 C   0  0  0  0  0  0  0  0  0  0  0  0
  189.6170  176.8850  145.6590 C   0  0  0  0  0  0  0  0  0  0  0  0
  190.2060  176.7190  143.5330 O   0  0  0  0  0  0  0  0  0  0  0  0
  183.6470  178.9930  144.8340 C   0  0  0  0  0  3  0  0  0  0  0  0
  191.8320  177.3660  146.3120 O   0  0  0  0  0  0  0  0  0  0  0  0
  191.9460  176.9720  147.6010 N   0  0  0  0  0  2  0  0  0  0  0  0
  192.5110  175.6350  147.5810 C   0  0  0  0  0  1  0  0  0  0  0  0
  188.3770  177.3590  141.5580 C   0  0  0  0  0  2  0  0  0  0  0  0
  188.7290  178.6330  140.8110 C   0  0  0  0  0  2  0  0  0  0  0  0
  188.2130  178.5650  139.4560 N   0  0  0  0  0  2  0  0  0  0  0  0
  188.6230  177.2810  138.9040 C   0  0  0  0  0  2  0  0  0  0  0  0
  187.6030  175.5920  137.3300 C   0  0  0  0  0  2  0  0  0  0  0  0
  184.0020  176.7910  136.2650 S   0  0  0  0  0  0  0  0  0  0  0  0
  186.5590  178.1600  137.2450 S   0  0  0  0  0  0  0  0  0  0  0  0
  188.0100  177.0580  137.5260 C   0  0  1  0  0  3  0  0  0  0  0  0
  185.4470  174.4470  136.5130 C   0  0  0  0  0  2  0  0  0  0  0  0
  185.5190  176.6900  137.2270 C   0  0  2  0  0  3  0  0  0  0  0  0
  186.3270  175.6620  136.5430 C   0  0  1  0  0  3  0  0  0  0  0  0
  184.0850  174.9640  136.0410 C   0  0  0  0  0  2  0  0  0  0  0  0
  1  8  1  0  0  0  0
  1  6  2  0  0  0  0
  3 10  1  0  0  0  0
  4 18  1  1  0  0  0
  5 15  1  0  0  0  0
  6 14  1  0  0  0  0
  7  2  1  0  0  0  0
  8  9  2  0  0  0  0
  9  5  1  0  0  0  0
  9 12  1  0  0  0  0
 11  4  1  0  0  0  0
 12  7  2  0  0  0  0
 13  6  1  0  0  0  0
 13 17  2  0  0  0  0
 14 12  1  0  0  0  0
 14  3  2  0  0  0  0
 15  4  1  0  0  0  0
 15  2  2  0  0  0  0
 16 11  1  0  0  0  0
 16  5  1  0  0  0  0
 17  3  1  0  0  0  0
 18 19  1  0  0  0  0
 20 19  1  0  0  0  0
 21  8  1  0  0  0  0
 22 21  1  0  0  0  0
 23 22  1  0  0  0  0
 24 23  1  0  0  0  0
 25 28  1  0  0  0  0
 27 28  1  0  0  0  0
 28 24  1  1  0  0  0
 30 26  1  6  0  0  0
 30 27  1  0  0  0  0
 31 29  1  1  0  0  0
 31 30  1  0  0  0  0
 31 25  1  0  0  0  0
 32 26  1  0  0  0  0
 32 29  1  0  0  0  0
M  END
>  <MODEL>
3

>  <REMARK>
 VINA RESULT:      -9.7      2.500      3.366
  Name = 
  7 active torsions:
  status: ('A' for Active; 'I' for Inactive)
    1  A    between atoms: O_3  and  N_4
    2  A    between atoms: O_3  and  C_12
    3  A    between atoms: C_5  and  C_16
    4  A    between atoms: C_5  and  C_28
    5  A    between atoms: C_8  and  C_25
    6  A    between atoms: N_20  and  C_25
    7  A    between atoms: N_20  and  C_28
                            x       y       z     vdW  Elec       q    Type
                         _______ _______ _______ _____ _____    ______ ____

>  <TORSDO>
F 7

$$$$
=
 OpenBabel11042413113D

 32 37  0  0  1  0  0  0  0  0999 V2000
  189.1010  177.0490  144.1710 C   0  0  0  0  0  3  0  0  0  0  0  0
  184.7720  178.9500  146.0410 C   0  0  0  0  0  3  0  0  0  0  0  0
  188.7200  177.6180  147.6410 C   0  0  0  0  0  0  0  0  0  0  0  0
  183.4370  179.1860  143.8490 C   0  0  2  0  0  3  0  0  0  0  0  0
  185.6270  178.3520  143.8970 N   0  0  0  0  0  0  0  0  0  0  0  0
  189.2490  177.1570  145.5500 C   0  0  0  0  0  0  0  0  0  0  0  0
  185.9830  178.5530  146.6180 C   0  0  0  0  0  3  0  0  0  0  0  0
  187.8850  177.4450  143.5860 C   0  0  0  0  0  0  0  0  0  0  0  0
  186.8320  177.9520  144.4040 C   0  0  0  0  0  0  0  0  0  0  0  0
  188.0100  178.0330  148.8020 N   0  0  0  0  0  1  0  0  0  0  0  0
  183.9110  178.8450  142.4220 C   0  0  0  0  0  2  0  0  0  0  0  0
  187.0210  178.0510  145.8140 C   0  0  0  0  0  0  0  0  0  0  0  0
  190.3490  176.8270  146.3190 C   0  0  0  0  0  3  0  0  0  0  0  0
  188.2470  177.6420  146.3480 C   0  0  0  0  0  0  0  0  0  0  0  0
  184.6330  178.8290  144.6600 C   0  0  0  0  0  0  0  0  0  0  0  0
  185.2340  178.3420  142.5870 O   0  0  0  0  0  0  0  0  0  0  0  0
  190.0130  177.1180  147.6410 C   0  0  0  0  0  3  0  0  0  0  0  0
  182.3700  178.3540  144.1950 O   0  0  0  0  0  0  0  0  0  0  0  0
  181.2900  178.9190  143.6070 N   0  0  0  0  0  2  0  0  0  0  0  0
  180.1300  178.1700  144.0550 C   0  0  0  0  0  1  0  0  0  0  0  0
  187.7670  177.3410  142.1020 C   0  0  0  0  0  2  0  0  0  0  0  0
  188.5290  178.4740  141.4380 C   0  0  0  0  0  2  0  0  0  0  0  0
  187.9880  178.7180  140.1120 N   0  0  0  0  0  2  0  0  0  0  0  0
  188.3240  177.5620  139.2930 C   0  0  0  0  0  2  0  0  0  0  0  0
  190.7080  176.7980  138.9760 C   0  0  0  0  0  2  0  0  0  0  0  0
  191.2900  175.8260  135.2010 S   0  0  0  0  0  0  0  0  0  0  0  0
  189.3730  177.6750  136.7100 S   0  0  0  0  0  0  0  0  0  0  0  0
  189.6250  177.7890  138.5330 C   0  0  1  0  0  3  0  0  0  0  0  0
  192.3120  175.2400  137.7020 C   0  0  0  0  0  2  0  0  0  0  0  0
  190.3970  176.1940  136.7190 C   0  0  2  0  0  3  0  0  0  0  0  0
  191.4510  176.4680  137.7140 C   0  0  1  0  0  3  0  0  0  0  0  0
  192.5490  174.9460  136.2180 C   0  0  0  0  0  2  0  0  0  0  0  0
  1  6  2  0  0  0  0
  2  7  1  0  0  0  0
  3 10  1  0  0  0  0
  4 18  1  1  0  0  0
  4 15  1  0  0  0  0
  5  9  1  0  0  0  0
  5 15  1  0  0  0  0
  6 13  1  0  0  0  0
  6 14  1  0  0  0  0
  8  1  1  0  0  0  0
  8  9  2  0  0  0  0
  9 12  1  0  0  0  0
 11 16  1  0  0  0  0
 11  4  1  0  0  0  0
 12 14  1  0  0  0  0
 12  7  2  0  0  0  0
 13 17  2  0  0  0  0
 14  3  2  0  0  0  0
 15  2  2  0  0  0  0
 16  5  1  0  0  0  0
 17  3  1  0  0  0  0
 19 20  1  0  0  0  0
 19 18  1  0  0  0  0
 21  8  1  0  0  0  0
 22 21  1  0  0  0  0
 23 22  1  0  0  0  0
 24 23  1  0  0  0  0
 26 32  1  0  0  0  0
 27 30  1  0  0  0  0
 27 28  1  0  0  0  0
 28 25  1  0  0  0  0
 28 24  1  1  0  0  0
 30 26  1  6  0  0  0
 30 31  1  0  0  0  0
 31 29  1  1  0  0  0
 31 25  1  0  0  0  0
 32 29  1  0  0  0  0
M  END
>  <MODEL>
4

>  <REMARK>
 VINA RESULT:      -9.5      2.457      5.159
  Name = 
  7 active torsions:
  status: ('A' for Active; 'I' for Inactive)
    1  A    between atoms: O_3  and  N_4
    2  A    between atoms: O_3  and  C_12
    3  A    between atoms: C_5  and  C_16
    4  A    between atoms: C_5  and  C_28
    5  A    between atoms: C_8  and  C_25
    6  A    between atoms: N_20  and  C_25
    7  A    between atoms: N_20  and  C_28
                            x       y       z     vdW  Elec       q    Type
                         _______ _______ _______ _____ _____    ______ ____

>  <TORSDO>
F 7

$$$$
=
 OpenBabel11042413113D

 32 37  0  0  1  0  0  0  0  0999 V2000
  189.3520  176.9740  144.2190 C   0  0  0  0  0  3  0  0  0  0  0  0
  184.9550  178.9560  145.8290 C   0  0  0  0  0  3  0  0  0  0  0  0
  188.8040  177.6210  147.6530 C   0  0  0  0  0  0  0  0  0  0  0  0
  183.7330  179.1570  143.5690 C   0  0  2  0  0  3  0  0  0  0  0  0
  185.9090  178.3040  143.7440 N   0  0  0  0  0  0  0  0  0  0  0  0
  189.4310  177.1110  145.6010 C   0  0  0  0  0  0  0  0  0  0  0  0
  186.1310  178.5610  146.4740 C   0  0  0  0  0  3  0  0  0  0  0  0
  188.1700  177.3690  143.5660 C   0  0  0  0  0  0  0  0  0  0  0  0
  187.0830  177.9040  144.3190 C   0  0  0  0  0  0  0  0  0  0  0  0
  188.0410  178.0680  148.7680 N   0  0  0  0  0  1  0  0  0  0  0  0
  184.2740  178.7820  142.1750 C   0  0  0  0  0  2  0  0  0  0  0  0
  187.2020  178.0310  145.7340 C   0  0  0  0  0  0  0  0  0  0  0  0
  190.4880  176.7870  146.4320 C   0  0  0  0  0  3  0  0  0  0  0  0
  188.3960  177.6220  146.3380 C   0  0  0  0  0  0  0  0  0  0  0  0
  184.8840  178.8080  144.4460 C   0  0  0  0  0  0  0  0  0  0  0  0
  185.5820  178.2700  142.4170 O   0  0  0  0  0  0  0  0  0  0  0  0
  190.0890  177.1090  147.7290 C   0  0  0  0  0  3  0  0  0  0  0  0
  182.6420  178.3430  143.8780 O   0  0  0  0  0  0  0  0  0  0  0  0
  181.5620  179.0430  143.4560 N   0  0  0  0  0  2  0  0  0  0  0  0
  180.3940  178.3840  144.0130 C   0  0  0  0  0  1  0  0  0  0  0  0
  188.1250  177.2350  142.0800 C   0  0  0  0  0  2  0  0  0  0  0  0
  189.4250  177.7320  141.4720 C   0  0  0  0  0  2  0  0  0  0  0  0
  189.9760  176.7150  140.5940 N   0  0  0  0  0  2  0  0  0  0  0  0
  190.7990  177.4000  139.6070 C   0  0  0  0  0  2  0  0  0  0  0  0
  189.5730  175.8760  138.0130 C   0  0  0  0  0  2  0  0  0  0  0  0
  186.2620  177.6350  136.7950 S   0  0  0  0  0  0  0  0  0  0  0  0
  188.9730  178.5790  137.8590 S   0  0  0  0  0  0  0  0  0  0  0  0
  190.2100  177.2570  138.2090 C   0  0  1  0  0  3  0  0  0  0  0  0
  187.2890  175.0880  137.1240 C   0  0  0  0  0  2  0  0  0  0  0  0
  187.7050  177.3010  137.8170 C   0  0  2  0  0  3  0  0  0  0  0  0
  188.3560  176.1420  137.1750 C   0  0  1  0  0  3  0  0  0  0  0  0
  186.0500  175.8150  136.5940 C   0  0  0  0  0  2  0  0  0  0  0  0
  1  6  2  0  0  0  0
  2  7  1  0  0  0  0
  3 17  1  0  0  0  0
  3 10  1  0  0  0  0
  4 18  1  1  0  0  0
  4 15  1  0  0  0  0
  5  9  1  0  0  0  0
  5 15  1  0  0  0  0
  6 14  1  0  0  0  0
  6 13  1  0  0  0  0
  8  1  1  0  0  0  0
  8  9  2  0  0  0  0
  9 12  1  0  0  0  0
 11 16  1  0  0  0  0
 11  4  1  0  0  0  0
 12 14  1  0  0  0  0
 12  7  2  0  0  0  0
 13 17  2  0  0  0  0
 14  3  2  0  0  0  0
 15  2  2  0  0  0  0
 16  5  1  0  0  0  0
 19 18  1  0  0  0  0
 19 20  1  0  0  0  0
 21  8  1  0  0  0  0
 22 21  1  0  0  0  0
 23 22  1  0  0  0  0
 24 23  1  0  0  0  0
 25 28  1  0  0  0  0
 27 28  1  0  0  0  0
 28 24  1  1  0  0  0
 30 26  1  6  0  0  0
 30 27  1  0  0  0  0
 31 29  1  1  0  0  0
 31 30  1  0  0  0  0
 31 25  1  0  0  0  0
 32 26  1  0  0  0  0
 32 29  1  0  0  0  0
M  END
>  <MODEL>
5

>  <REMARK>
 VINA RESULT:      -9.4      2.886      5.632
  Name = 
  7 active torsions:
  status: ('A' for Active; 'I' for Inactive)
    1  A    between atoms: O_3  and  N_4
    2  A    between atoms: O_3  and  C_12
    3  A    between atoms: C_5  and  C_16
    4  A    between atoms: C_5  and  C_28
    5  A    between atoms: C_8  and  C_25
    6  A    between atoms: N_20  and  C_25
    7  A    between atoms: N_20  and  C_28
                            x       y       z     vdW  Elec       q    Type
                         _______ _______ _______ _____ _____    ______ ____

>  <TORSDO>
F 7

$$$$
=
 OpenBabel11042413113D

 32 37  0  0  1  0  0  0  0  0999 V2000
  186.9030  177.9140  145.3000 C   0  0  0  0  0  3  0  0  0  0  0  0
  191.3880  176.6980  143.2370 C   0  0  0  0  0  3  0  0  0  0  0  0
  189.7190  177.2600  147.3380 C   0  0  0  0  0  0  0  0  0  0  0  0
  190.7430  176.7960  140.7440 C   0  0  2  0  0  3  0  0  0  0  0  0
  189.2030  177.2390  142.4540 N   0  0  0  0  0  0  0  0  0  0  0  0
  187.8070  177.7190  146.3400 C   0  0  0  0  0  0  0  0  0  0  0  0
  190.9390  176.8550  144.5530 C   0  0  0  0  0  3  0  0  0  0  0  0
  187.3500  177.7600  143.9750 C   0  0  0  0  0  0  0  0  0  0  0  0
  188.7070  177.4030  143.7170 C   0  0  0  0  0  0  0  0  0  0  0  0
  191.0810  176.9200  147.5730 N   0  0  0  0  0  1  0  0  0  0  0  0
  189.3580  177.1150  140.1460 C   0  0  0  0  0  2  0  0  0  0  0  0
  189.6030  177.2090  144.8080 C   0  0  0  0  0  0  0  0  0  0  0  0
  187.5790  177.8200  147.6990 C   0  0  0  0  0  3  0  0  0  0  0  0
  189.1120  177.3770  146.1070 C   0  0  0  0  0  0  0  0  0  0  0  0
  190.4770  176.9040  142.2040 C   0  0  0  0  0  0  0  0  0  0  0  0
  188.5260  177.3760  141.2730 O   0  0  0  0  0  0  0  0  0  0  0  0
  188.7880  177.5310  148.3290 C   0  0  0  0  0  3  0  0  0  0  0  0
  191.6540  177.7810  140.3570 O   0  0  0  0  0  0  0  0  0  0  0  0
  192.7850  177.1030  140.0550 N   0  0  0  0  0  2  0  0  0  0  0  0
  192.6870  176.7290  138.6560 C   0  0  0  0  0  1  0  0  0  0  0  0
  186.3500  177.9500  142.8830 C   0  0  0  0  0  2  0  0  0  0  0  0
  185.0020  178.3290  143.4700 C   0  0  0  0  0  2  0  0  0  0  0  0
  184.0920  178.7050  142.4030 N   0  0  0  0  0  2  0  0  0  0  0  0
  184.9050  179.0460  141.2440 C   0  0  0  0  0  2  0  0  0  0  0  0
  184.8580  178.5980  138.7610 C   0  0  0  0  0  2  0  0  0  0  0  0
  181.9510  176.0680  137.9340 S   0  0  0  0  0  0  0  0  0  0  0  0
  182.5180  178.0920  140.1600 S   0  0  0  0  0  0  0  0  0  0  0  0
  184.0600  179.0860  139.9760 C   0  0  1  0  0  3  0  0  0  0  0  0
  184.3790  176.8900  136.8960 C   0  0  0  0  0  2  0  0  0  0  0  0
  183.1650  176.9650  138.9130 C   0  0  2  0  0  3  0  0  0  0  0  0
  183.8600  177.8320  137.9420 C   0  0  1  0  0  3  0  0  0  0  0  0
  183.1940  175.9730  136.5770 C   0  0  0  0  0  2  0  0  0  0  0  0
  1  6  2  0  0  0  0
  2  7  1  0  0  0  0
  3 10  1  0  0  0  0
  3 17  1  0  0  0  0
  4 18  1  6  0  0  0
  4 15  1  0  0  0  0
  5  9  1  0  0  0  0
  6 13  1  0  0  0  0
  7 12  2  0  0  0  0
  8  1  1  0  0  0  0
  9  8  2  0  0  0  0
  9 12  1  0  0  0  0
 11  4  1  0  0  0  0
 11 16  1  0  0  0  0
 12 14  1  0  0  0  0
 13 17  2  0  0  0  0
 14  6  1  0  0  0  0
 14  3  2  0  0  0  0
 15  5  1  0  0  0  0
 15  2  2  0  0  0  0
 16  5  1  0  0  0  0
 19 18  1  0  0  0  0
 20 19  1  0  0  0  0
 21 22  1  0  0  0  0
 21  8  1  0  0  0  0
 23 22  1  0  0  0  0
 24 23  1  0  0  0  0
 25 28  1  0  0  0  0
 28 27  1  0  0  0  0
 28 24  1  1  0  0  0
 30 26  1  6  0  0  0
 30 27  1  0  0  0  0
 31 29  1  6  0  0  0
 31 25  1  0  0  0  0
 31 30  1  0  0  0  0
 32 29  1  0  0  0  0
 32 26  1  0  0  0  0
M  END
>  <MODEL>
6

>  <REMARK>
 VINA RESULT:      -9.3      3.371      6.162
  Name = 
  7 active torsions:
  status: ('A' for Active; 'I' for Inactive)
    1  A    between atoms: O_3  and  N_4
    2  A    between atoms: O_3  and  C_12
    3  A    between atoms: C_5  and  C_16
    4  A    between atoms: C_5  and  C_28
    5  A    between atoms: C_8  and  C_25
    6  A    between atoms: N_20  and  C_25
    7  A    between atoms: N_20  and  C_28
                            x       y       z     vdW  Elec       q    Type
                         _______ _______ _______ _____ _____    ______ ____

>  <TORSDO>
F 7

$$$$
=
 OpenBabel11042413113D

 32 37  0  0  1  0  0  0  0  0999 V2000
  187.3460  177.7150  145.9720 C   0  0  0  0  0  3  0  0  0  0  0  0
  190.1660  177.2800  141.7640 C   0  0  0  0  0  3  0  0  0  0  0  0
  190.7530  176.7860  146.1610 C   0  0  0  0  0  0  0  0  0  0  0  0
  188.3910  177.9050  140.0030 C   0  0  2  0  0  3  0  0  0  0  0  0
  187.9130  177.8500  142.2970 N   0  0  0  0  0  0  0  0  0  0  0  0
  188.6290  177.3430  146.3600 C   0  0  0  0  0  0  0  0  0  0  0  0
  190.4280  177.1030  143.1260 C   0  0  0  0  0  3  0  0  0  0  0  0
  187.0770  177.8950  144.6030 C   0  0  0  0  0  0  0  0  0  0  0  0
  188.1100  177.6910  143.6400 C   0  0  0  0  0  0  0  0  0  0  0  0
  192.0320  176.4840  145.6140 N   0  0  0  0  0  1  0  0  0  0  0  0
  186.9130  178.2670  140.2510 C   0  0  0  0  0  2  0  0  0  0  0  0
  189.4120  177.3070  144.0760 C   0  0  0  0  0  0  0  0  0  0  0  0
  189.1020  177.1160  147.6390 C   0  0  0  0  0  3  0  0  0  0  0  0
  189.6300  177.1430  145.4480 C   0  0  0  0  0  0  0  0  0  0  0  0
  188.8800  177.6600  141.3870 C   0  0  0  0  0  0  0  0  0  0  0  0
  186.7550  178.2120  141.6660 O   0  0  0  0  0  0  0  0  0  0  0  0
  190.4450  176.7650  147.5120 C   0  0  0  0  0  3  0  0  0  0  0  0
  189.0530  179.0060  139.4580 O   0  0  0  0  0  0  0  0  0  0  0  0
  188.7160  178.9950  138.1470 N   0  0  0  0  0  2  0  0  0  0  0  0
  189.3660  177.8390  137.5580 C   0  0  0  0  0  1  0  0  0  0  0  0
  185.6850  178.2690  144.2160 C   0  0  0  0  0  2  0  0  0  0  0  0
  184.8760  178.6210  145.4520 C   0  0  0  0  0  2  0  0  0  0  0  0
  183.7550  179.4640  145.0810 N   0  0  0  0  0  2  0  0  0  0  0  0
  182.8020  178.6240  144.3680 C   0  0  0  0  0  2  0  0  0  0  0  0
  182.9300  178.6280  141.8480 C   0  0  0  0  0  2  0  0  0  0  0  0
  179.3040  178.2700  140.3450 S   0  0  0  0  0  0  0  0  0  0  0  0
  180.4880  179.3090  142.9700 S   0  0  0  0  0  0  0  0  0  0  0  0
  182.3280  179.3000  143.0870 C   0  0  1  0  0  3  0  0  0  0  0  0
  181.9280  177.7480  139.6460 C   0  0  0  0  0  2  0  0  0  0  0  0
  180.6300  178.1990  141.5580 C   0  0  2  0  0  3  0  0  0  0  0  0
  181.8270  178.6630  140.8310 C   0  0  1  0  0  3  0  0  0  0  0  0
  180.5080  177.6940  139.0750 C   0  0  0  0  0  2  0  0  0  0  0  0
  1  6  2  0  0  0  0
  2  7  1  0  0  0  0
  3 17  1  0  0  0  0
  4 18  1  1  0  0  0
  4 11  1  0  0  0  0
  4 15  1  0  0  0  0
  5  9  1  0  0  0  0
  6 13  1  0  0  0  0
  7 12  2  0  0  0  0
  8  1  1  0  0  0  0
  9 12  1  0  0  0  0
  9  8  2  0  0  0  0
 10  3  1  0  0  0  0
 11 16  1  0  0  0  0
 12 14  1  0  0  0  0
 14  3  2  0  0  0  0
 14  6  1  0  0  0  0
 15  2  2  0  0  0  0
 15  5  1  0  0  0  0
 16  5  1  0  0  0  0
 17 13  2  0  0  0  0
 19 18  1  0  0  0  0
 20 19  1  0  0  0  0
 21  8  1  0  0  0  0
 21 22  1  0  0  0  0
 23 22  1  0  0  0  0
 24 23  1  0  0  0  0
 25 28  1  0  0  0  0
 27 28  1  0  0  0  0
 28 24  1  1  0  0  0
 30 26  1  6  0  0  0
 30 27  1  0  0  0  0
 31 29  1  6  0  0  0
 31 30  1  0  0  0  0
 31 25  1  0  0  0  0
 32 29  1  0  0  0  0
 32 26  1  0  0  0  0
M  END
>  <MODEL>
7

>  <REMARK>
 VINA RESULT:      -9.2      4.125      8.037
  Name = 
  7 active torsions:
  status: ('A' for Active; 'I' for Inactive)
    1  A    between atoms: O_3  and  N_4
    2  A    between atoms: O_3  and  C_12
    3  A    between atoms: C_5  and  C_16
    4  A    between atoms: C_5  and  C_28
    5  A    between atoms: C_8  and  C_25
    6  A    between atoms: N_20  and  C_25
    7  A    between atoms: N_20  and  C_28
                            x       y       z     vdW  Elec       q    Type
                         _______ _______ _______ _____ _____    ______ ____

>  <TORSDO>
F 7

$$$$
=
 OpenBabel11042413113D

 32 37  0  0  1  0  0  0  0  0999 V2000
  186.2580  178.3940  142.2360 C   0  0  0  0  0  3  0  0  0  0  0  0
  188.7750  177.1050  146.4620 C   0  0  0  0  0  3  0  0  0  0  0  0
  184.7090  178.6130  145.4080 C   0  0  0  0  0  0  0  0  0  0  0  0
  191.0370  176.4430  145.4170 C   0  0  2  0  0  3  0  0  0  0  0  0
  189.2300  177.1880  144.1230 N   0  0  0  0  0  0  0  0  0  0  0  0
  185.3990  178.5850  143.3140 C   0  0  0  0  0  0  0  0  0  0  0  0
  187.4820  177.5740  146.2120 C   0  0  0  0  0  3  0  0  0  0  0  0
  187.5610  177.9240  142.4830 C   0  0  0  0  0  0  0  0  0  0  0  0
  187.9790  177.6460  143.8180 C   0  0  0  0  0  0  0  0  0  0  0  0
  184.6640  178.4870  146.8250 N   0  0  0  0  0  1  0  0  0  0  0  0
  191.4150  176.4460  143.9220 C   0  0  0  0  0  2  0  0  0  0  0  0
  187.0700  177.8510  144.8970 C   0  0  0  0  0  0  0  0  0  0  0  0
  184.0930  179.0360  143.2950 C   0  0  0  0  0  3  0  0  0  0  0  0
  185.7860  178.3230  144.6020 C   0  0  0  0  0  0  0  0  0  0  0  0
  189.6290  176.9250  145.3760 C   0  0  0  0  0  0  0  0  0  0  0  0
  190.2520  176.9250  143.2530 O   0  0  0  0  0  0  0  0  0  0  0  0
  183.6580  179.0540  144.6190 C   0  0  0  0  0  3  0  0  0  0  0  0
  191.8310  177.3680  146.0980 O   0  0  0  0  0  0  0  0  0  0  0  0
  191.6190  177.1030  147.4080 N   0  0  0  0  0  2  0  0  0  0  0  0
  192.3680  175.8980  147.7170 C   0  0  0  0  0  1  0  0  0  0  0  0
  188.4490  177.7040  141.3030 C   0  0  0  0  0  2  0  0  0  0  0  0
  187.9490  178.5060  140.1160 C   0  0  0  0  0  2  0  0  0  0  0  0
  187.7880  177.6330  138.9670 N   0  0  0  0  0  2  0  0  0  0  0  0
  186.6930  178.1680  138.1700 C   0  0  0  0  0  2  0  0  0  0  0  0
  184.6590  179.3060  139.1400 C   0  0  0  0  0  2  0  0  0  0  0  0
  181.4120  177.9030  137.4010 S   0  0  0  0  0  0  0  0  0  0  0  0
  184.2440  176.8580  137.9060 S   0  0  0  0  0  0  0  0  0  0  0  0
  185.3560  177.9660  138.8730 C   0  0  1  0  0  3  0  0  0  0  0  0
  182.2790  180.1820  138.7050 C   0  0  0  0  0  2  0  0  0  0  0  0
  183.1550  178.2690  137.6490 C   0  0  2  0  0  3  0  0  0  0  0  0
  183.2020  179.0200  138.9180 C   0  0  1  0  0  3  0  0  0  0  0  0
  181.0200  179.5700  138.0830 C   0  0  0  0  0  2  0  0  0  0  0  0
  1  8  1  0  0  0  0
  1  6  2  0  0  0  0
  3 10  1  0  0  0  0
  4 18  1  1  0  0  0
  5 15  1  0  0  0  0
  6 14  1  0  0  0  0
  7  2  1  0  0  0  0
  8  9  2  0  0  0  0
  9  5  1  0  0  0  0
  9 12  1  0  0  0  0
 11  4  1  0  0  0  0
 12  7  2  0  0  0  0
 13  6  1  0  0  0  0
 13 17  2  0  0  0  0
 14 12  1  0  0  0  0
 14  3  2  0  0  0  0
 15  4  1  0  0  0  0
 15  2  2  0  0  0  0
 16 11  1  0  0  0  0
 16  5  1  0  0  0  0
 17  3  1  0  0  0  0
 18 19  1  0  0  0  0
 19 20  1  0  0  0  0
 21  8  1  0  0  0  0
 22 21  1  0  0  0  0
 23 22  1  0  0  0  0
 24 23  1  0  0  0  0
 26 32  1  0  0  0  0
 27 28  1  0  0  0  0
 28 24  1  6  0  0  0
 28 25  1  0  0  0  0
 30 26  1  1  0  0  0
 30 27  1  0  0  0  0
 30 31  1  0  0  0  0
 31 29  1  6  0  0  0
 31 25  1  0  0  0  0
 32 29  1  0  0  0  0
M  END
>  <MODEL>
8

>  <REMARK>
 VINA RESULT:      -9.2      3.226      5.039
  Name = 
  7 active torsions:
  status: ('A' for Active; 'I' for Inactive)
    1  A    between atoms: O_3  and  N_4
    2  A    between atoms: O_3  and  C_12
    3  A    between atoms: C_5  and  C_16
    4  A    between atoms: C_5  and  C_28
    5  A    between atoms: C_8  and  C_25
    6  A    between atoms: N_20  and  C_25
    7  A    between atoms: N_20  and  C_28
                            x       y       z     vdW  Elec       q    Type
                         _______ _______ _______ _____ _____    ______ ____

>  <TORSDO>
F 7

$$$$
=
 OpenBabel11042413113D

 32 37  0  0  1  0  0  0  0  0999 V2000
  185.1520  178.8250  143.1740 C   0  0  0  0  0  3  0  0  0  0  0  0
  189.7390  176.6730  143.5910 C   0  0  0  0  0  3  0  0  0  0  0  0
  186.4260  177.8710  146.3320 C   0  0  0  0  0  0  0  0  0  0  0  0
  190.4260  176.6650  141.1070 C   0  0  2  0  0  3  0  0  0  0  0  0
  188.3660  177.5160  141.8340 N   0  0  0  0  0  0  0  0  0  0  0  0
  185.3750  178.5670  144.5230 C   0  0  0  0  0  0  0  0  0  0  0  0
  188.7460  177.0190  144.5130 C   0  0  0  0  0  3  0  0  0  0  0  0
  186.1480  178.4810  142.2430 C   0  0  0  0  0  0  0  0  0  0  0  0
  187.3600  177.8730  142.6880 C   0  0  0  0  0  0  0  0  0  0  0  0
  187.4040  177.3200  147.2070 N   0  0  0  0  0  1  0  0  0  0  0  0
  189.6000  177.1670  139.9050 C   0  0  0  0  0  2  0  0  0  0  0  0
  187.5530  177.6210  144.0770 C   0  0  0  0  0  0  0  0  0  0  0  0
  184.5380  178.8240  145.5920 C   0  0  0  0  0  3  0  0  0  0  0  0
  186.5340  177.9840  144.9640 C   0  0  0  0  0  0  0  0  0  0  0  0
  189.5070  176.9440  142.2440 C   0  0  0  0  0  0  0  0  0  0  0  0
  188.3930  177.6660  140.4740 O   0  0  0  0  0  0  0  0  0  0  0  0
  185.2040  178.3840  146.7350 C   0  0  0  0  0  3  0  0  0  0  0  0
  191.5800  177.4390  141.2330 O   0  0  0  0  0  0  0  0  0  0  0  0
  192.0710  177.5310  139.9750 N   0  0  0  0  0  2  0  0  0  0  0  0
  193.4760  177.1700  140.0480 C   0  0  0  0  0  1  0  0  0  0  0  0
  185.8670  178.7470  140.8020 C   0  0  0  0  0  2  0  0  0  0  0  0
  184.3910  179.0380  140.6030 C   0  0  0  0  0  2  0  0  0  0  0  0
  184.2030  179.8170  139.3920 N   0  0  0  0  0  2  0  0  0  0  0  0
  183.1970  179.1330  138.5920 C   0  0  0  0  0  2  0  0  0  0  0  0
  182.0350  181.3730  138.5610 C   0  0  0  0  0  2  0  0  0  0  0  0
  179.3690  181.4340  135.6590 S   0  0  0  0  0  0  0  0  0  0  0  0
  180.6980  179.2620  137.3590 S   0  0  0  0  0  0  0  0  0  0  0  0
  181.8560  179.8540  138.6660 C   0  0  1  0  0  3  0  0  0  0  0  0
  180.9200  183.1930  137.1240 C   0  0  0  0  0  2  0  0  0  0  0  0
  180.7980  180.8980  136.6120 C   0  0  2  0  0  3  0  0  0  0  0  0
  180.8580  181.8320  137.7520 C   0  0  1  0  0  3  0  0  0  0  0  0
  179.8300  183.1750  136.0480 C   0  0  0  0  0  2  0  0  0  0  0  0
  1  6  2  0  0  0  0
  2  7  1  0  0  0  0
  3 17  1  0  0  0  0
  3 10  1  0  0  0  0
  4 18  1  1  0  0  0
  4 15  1  0  0  0  0
  5 15  1  0  0  0  0
  5  9  1  0  0  0  0
  6 14  1  0  0  0  0
  6 13  1  0  0  0  0
  8  9  2  0  0  0  0
  8  1  1  0  0  0  0
  9 12  1  0  0  0  0
 11 16  1  0  0  0  0
 11  4  1  0  0  0  0
 12  7  2  0  0  0  0
 12 14  1  0  0  0  0
 13 17  2  0  0  0  0
 14  3  2  0  0  0  0
 15  2  2  0  0  0  0
 16  5  1  0  0  0  0
 19 20  1  0  0  0  0
 19 18  1  0  0  0  0
 21  8  1  0  0  0  0
 22 21  1  0  0  0  0
 23 22  1  0  0  0  0
 24 23  1  0  0  0  0
 25 28  1  0  0  0  0
 26 32  1  0  0  0  0
 27 28  1  0  0  0  0
 28 24  1  6  0  0  0
 30 26  1  1  0  0  0
 30 27  1  0  0  0  0
 30 31  1  0  0  0  0
 31 29  1  6  0  0  0
 31 25  1  0  0  0  0
 32 29  1  0  0  0  0
M  END
>  <MODEL>
9

>  <REMARK>
 VINA RESULT:      -9.0      4.705      7.396
  Name = 
  7 active torsions:
  status: ('A' for Active; 'I' for Inactive)
    1  A    between atoms: O_3  and  N_4
    2  A    between atoms: O_3  and  C_12
    3  A    between atoms: C_5  and  C_16
    4  A    between atoms: C_5  and  C_28
    5  A    between atoms: C_8  and  C_25
    6  A    between atoms: N_20  and  C_25
    7  A    between atoms: N_20  and  C_28
                            x       y       z     vdW  Elec       q    Type
                         _______ _______ _______ _____ _____    ______ ____

>  <TORSDO>
F 7

$$$$
