=
 OpenBabel11042410233D

 29 31  0  0  1  0  0  0  0  0999 V2000
  184.1650  178.8470  144.7000 C   0  0  0  0  0  0  0  0  0  0  0  0
  184.6800  178.7100  143.3540 C   0  0  0  0  0  0  0  0  0  0  0  0
  186.1900  178.2040  144.8330 C   0  0  0  0  0  0  0  0  0  0  0  0
  183.0130  179.2260  145.0360 O   0  0  0  0  0  0  0  0  0  0  0  0
  185.1910  178.5010  145.6100 N   0  0  0  0  0  0  0  0  0  0  0  0
  185.9110  178.3320  143.4290 N   0  0  0  0  0  0  0  0  0  0  0  0
  187.7010  177.6350  146.7270 C   0  0  0  0  0  3  0  0  0  0  0  0
  190.0130  176.9970  146.3450 C   0  0  0  0  0  0  0  0  0  0  0  0
  187.5040  177.7900  145.3490 C   0  0  0  0  0  0  0  0  0  0  0  0
  188.9470  177.2410  147.2220 C   0  0  0  0  0  3  0  0  0  0  0  0
  189.8160  177.1520  144.9660 C   0  0  0  0  0  3  0  0  0  0  0  0
  188.5700  177.5460  144.4710 C   0  0  0  0  0  3  0  0  0  0  0  0
  192.1120  175.6890  146.1400 O   0  0  0  0  0  0  0  0  0  0  0  0
  191.7520  177.0290  147.9600 O   0  0  0  0  0  1  0  0  0  0  0  0
  191.3270  176.5810  146.8620 C   0  0  0  0  0  0  0  0  0  0  0  0
  183.9980  179.0320  142.0590 C   0  0  1  0  0  3  0  0  0  0  0  0
  184.8910  178.7760  140.8540 C   0  0  0  0  0  1  0  0  0  0  0  0
  180.3220  178.3280  142.5680 C   0  0  0  0  0  2  0  0  0  0  0  0
  180.5280  177.3180  139.2410 C   0  0  0  0  0  2  0  0  0  0  0  0
  181.1040  179.7150  140.8320 N   0  0  0  0  0  0  0  0  0  0  0  0
  182.7150  178.3480  141.9150 N   0  0  0  0  0  2  0  0  0  0  0  0
  181.8220  178.1340  139.1150 C   0  0  0  0  0  2  0  0  0  0  0  0
  180.3790  176.6450  140.6150 C   0  0  1  0  0  3  0  0  0  0  0  0
  181.4440  179.0110  141.8690 C   0  0  0  0  0  0  0  0  0  0  0  0
  181.6310  179.4740  139.5790 O   0  0  0  0  0  0  0  0  0  0  0  0
  179.5090  177.4800  141.5720 C   0  0  0  0  0  2  0  0  0  0  0  0
  180.0520  174.6130  139.4200 O   0  0  0  0  0  0  0  0  0  0  0  0
  178.9360  174.7380  141.4520 N   0  0  0  0  0  1  0  0  0  0  0  0
  179.7910  175.2840  140.4520 C   0  0  0  0  0  0  0  0  0  0  0  0
  1  4  2  0  0  0  0
  1  5  1  0  0  0  0
  2  6  2  0  0  0  0
  2  1  1  0  0  0  0
  3  9  1  0  0  0  0
  3  5  2  0  0  0  0
  6  3  1  0  0  0  0
  7 10  1  0  0  0  0
  8 15  1  0  0  0  0
  8 10  2  0  0  0  0
  9  7  2  0  0  0  0
 11  8  1  0  0  0  0
 12 11  2  0  0  0  0
 12  9  1  0  0  0  0
 13 15  2  0  0  0  0
 15 14  1  0  0  0  0
 16 17  1  6  0  0  0
 16  2  1  0  0  0  0
 19 23  1  0  0  0  0
 20 24  2  0  0  0  0
 21 16  1  0  0  0  0
 22 19  1  0  0  0  0
 22 25  1  0  0  0  0
 23 29  1  6  0  0  0
 23 26  1  0  0  0  0
 24 21  1  0  0  0  0
 24 18  1  0  0  0  0
 25 20  1  0  0  0  0
 26 18  1  0  0  0  0
 27 29  2  0  0  0  0
 29 28  1  0  0  0  0
M  END
>  <MODEL>
1

>  <REMARK>
 VINA RESULT:      -8.6      0.000      0.000
  Name = 
  5 active torsions:
  status: ('A' for Active; 'I' for Inactive)
    1  A    between atoms: C_7  and  C_23
    2  A    between atoms: N_8  and  C_13
    3  A    between atoms: C_12  and  C_13
    4  A    between atoms: C_14  and  C_16
    5  A    between atoms: C_18  and  C_24
                            x       y       z     vdW  Elec       q    Type
                         _______ _______ _______ _____ _____    ______ ____

>  <TORSDO>
F 5

$$$$
=
 OpenBabel11042410233D

 29 31  0  0  1  0  0  0  0  0999 V2000
  186.3140  178.5950  141.5950 C   0  0  0  0  0  0  0  0  0  0  0  0
  185.3460  178.2710  142.6210 C   0  0  0  0  0  0  0  0  0  0  0  0
  187.3770  177.9470  143.3210 C   0  0  0  0  0  0  0  0  0  0  0  0
  186.0750  178.9960  140.4260 O   0  0  0  0  0  0  0  0  0  0  0  0
  187.6100  178.3680  142.1150 N   0  0  0  0  0  0  0  0  0  0  0  0
  185.9830  177.8660  143.6650 N   0  0  0  0  0  0  0  0  0  0  0  0
  189.7140  177.2140  143.7630 C   0  0  0  0  0  3  0  0  0  0  0  0
  190.5090  176.8380  146.0270 C   0  0  0  0  0  0  0  0  0  0  0  0
  188.4500  177.5660  144.2540 C   0  0  0  0  0  0  0  0  0  0  0  0
  190.7370  176.8530  144.6440 C   0  0  0  0  0  3  0  0  0  0  0  0
  189.2440  177.1910  146.5180 C   0  0  0  0  0  3  0  0  0  0  0  0
  188.2210  177.5530  145.6370 C   0  0  0  0  0  3  0  0  0  0  0  0
  192.3690  175.3410  146.7030 O   0  0  0  0  0  0  0  0  0  0  0  0
  191.8030  177.1440  147.9930 O   0  0  0  0  0  1  0  0  0  0  0  0
  191.5840  176.4590  146.9580 C   0  0  0  0  0  0  0  0  0  0  0  0
  183.8500  178.2790  142.5240 C   0  0  1  0  0  3  0  0  0  0  0  0
  183.2000  179.0810  143.6410 C   0  0  0  0  0  1  0  0  0  0  0  0
  183.0990  178.1160  138.8260 C   0  0  0  0  0  2  0  0  0  0  0  0
  180.3220  179.9910  139.7790 C   0  0  0  0  0  2  0  0  0  0  0  0
  181.5480  177.4120  140.4520 N   0  0  0  0  0  0  0  0  0  0  0  0
  183.3740  178.7220  141.2160 N   0  0  0  0  0  2  0  0  0  0  0  0
  180.5320  179.4960  141.2160 C   0  0  0  0  0  2  0  0  0  0  0  0
  181.6440  180.2360  139.0340 C   0  0  1  0  0  3  0  0  0  0  0  0
  182.7470  177.8670  140.2500 C   0  0  0  0  0  0  0  0  0  0  0  0
  180.6410  178.0710  141.2580 O   0  0  0  0  0  0  0  0  0  0  0  0
  182.0470  179.0290  138.1670 C   0  0  0  0  0  2  0  0  0  0  0  0
  182.2430  182.4590  138.4350 O   0  0  0  0  0  0  0  0  0  0  0  0
  180.6170  181.4930  137.0890 N   0  0  0  0  0  1  0  0  0  0  0  0
  181.5290  181.4550  138.1830 C   0  0  0  0  0  0  0  0  0  0  0  0
  1  5  1  0  0  0  0
  1  2  1  0  0  0  0
  2  6  2  0  0  0  0
  3  6  1  0  0  0  0
  3  9  1  0  0  0  0
  4  1  2  0  0  0  0
  5  3  2  0  0  0  0
  7  9  2  0  0  0  0
  7 10  1  0  0  0  0
  8 11  1  0  0  0  0
  8 15  1  0  0  0  0
  9 12  1  0  0  0  0
 10  8  2  0  0  0  0
 12 11  2  0  0  0  0
 13 15  2  0  0  0  0
 15 14  1  0  0  0  0
 16  2  1  0  0  0  0
 16 17  1  1  0  0  0
 18 24  1  0  0  0  0
 19 22  1  0  0  0  0
 20 25  1  0  0  0  0
 21 16  1  0  0  0  0
 22 25  1  0  0  0  0
 23 29  1  6  0  0  0
 23 19  1  0  0  0  0
 24 20  2  0  0  0  0
 24 21  1  0  0  0  0
 26 18  1  0  0  0  0
 26 23  1  0  0  0  0
 28 29  1  0  0  0  0
 29 27  2  0  0  0  0
M  END
>  <MODEL>
2

>  <REMARK>
 VINA RESULT:      -8.2      2.079      3.639
  Name = 
  5 active torsions:
  status: ('A' for Active; 'I' for Inactive)
    1  A    between atoms: C_7  and  C_23
    2  A    between atoms: N_8  and  C_13
    3  A    between atoms: C_12  and  C_13
    4  A    between atoms: C_14  and  C_16
    5  A    between atoms: C_18  and  C_24
                            x       y       z     vdW  Elec       q    Type
                         _______ _______ _______ _____ _____    ______ ____

>  <TORSDO>
F 5

$$$$
=
 OpenBabel11042410233D

 29 31  0  0  1  0  0  0  0  0999 V2000
  191.6560  177.4690  140.7700 C   0  0  0  0  0  0  0  0  0  0  0  0
  190.3840  177.2510  140.1160 C   0  0  0  0  0  0  0  0  0  0  0  0
  190.1360  177.5000  142.2600 C   0  0  0  0  0  0  0  0  0  0  0  0
  192.7920  177.5010  140.2290 O   0  0  0  0  0  0  0  0  0  0  0  0
  191.4250  177.6280  142.1570 N   0  0  0  0  0  0  0  0  0  0  0  0
  189.4600  177.2550  141.0150 N   0  0  0  0  0  0  0  0  0  0  0  0
  188.0360  177.4310  143.5940 C   0  0  0  0  0  3  0  0  0  0  0  0
  188.0650  177.7270  146.0040 C   0  0  0  0  0  0  0  0  0  0  0  0
  189.4280  177.5790  143.5480 C   0  0  0  0  0  0  0  0  0  0  0  0
  187.3590  177.5040  144.8140 C   0  0  0  0  0  3  0  0  0  0  0  0
  189.4580  177.8750  145.9580 C   0  0  0  0  0  3  0  0  0  0  0  0
  190.1350  177.8020  144.7380 C   0  0  0  0  0  3  0  0  0  0  0  0
  187.9730  177.3660  148.4580 O   0  0  0  0  0  1  0  0  0  0  0  0
  186.1860  178.2670  147.3490 O   0  0  0  0  0  0  0  0  0  0  0  0
  187.3560  177.8040  147.2920 C   0  0  0  0  0  0  0  0  0  0  0  0
  190.1190  176.9570  138.6700 C   0  0  1  0  0  3  0  0  0  0  0  0
  190.7770  175.6650  138.2100 C   0  0  0  0  0  1  0  0  0  0  0  0
  186.5770  178.2510  138.4520 C   0  0  0  0  0  2  0  0  0  0  0  0
  186.6150  176.5030  135.4400 C   0  0  0  0  0  2  0  0  0  0  0  0
  188.1560  178.6290  136.7470 N   0  0  0  0  0  0  0  0  0  0  0  0
  188.6930  176.9620  138.3480 N   0  0  0  0  0  2  0  0  0  0  0  0
  188.1480  176.5400  135.4850 C   0  0  0  0  0  2  0  0  0  0  0  0
  185.9830  176.3360  136.8320 C   0  0  1  0  0  3  0  0  0  0  0  0
  187.9620  178.1210  137.9260 C   0  0  0  0  0  0  0  0  0  0  0  0
  188.6240  177.8730  135.6920 O   0  0  0  0  0  0  0  0  0  0  0  0
  185.5640  177.6870  137.4390 C   0  0  0  0  0  2  0  0  0  0  0  0
  184.6850  174.6480  135.7670 O   0  0  0  0  0  0  0  0  0  0  0  0
  183.7990  175.4450  137.7600 N   0  0  0  0  0  1  0  0  0  0  0  0
  184.8000  175.4310  136.7460 C   0  0  0  0  0  0  0  0  0  0  0  0
  1  5  1  0  0  0  0
  2  1  1  0  0  0  0
  2  6  2  0  0  0  0
  3  9  1  0  0  0  0
  4  1  2  0  0  0  0
  5  3  2  0  0  0  0
  6  3  1  0  0  0  0
  7 10  1  0  0  0  0
  8 15  1  0  0  0  0
  9  7  2  0  0  0  0
  9 12  1  0  0  0  0
 10  8  2  0  0  0  0
 11  8  1  0  0  0  0
 12 11  2  0  0  0  0
 15 14  2  0  0  0  0
 15 13  1  0  0  0  0
 16 17  1  1  0  0  0
 16  2  1  0  0  0  0
 19 22  1  0  0  0  0
 19 23  1  0  0  0  0
 20 24  2  0  0  0  0
 21 16  1  0  0  0  0
 22 25  1  0  0  0  0
 23 29  1  6  0  0  0
 23 26  1  0  0  0  0
 24 21  1  0  0  0  0
 24 18  1  0  0  0  0
 25 20  1  0  0  0  0
 26 18  1  0  0  0  0
 27 29  2  0  0  0  0
 29 28  1  0  0  0  0
M  END
>  <MODEL>
3

>  <REMARK>
 VINA RESULT:      -8.1      4.707      6.343
  Name = 
  5 active torsions:
  status: ('A' for Active; 'I' for Inactive)
    1  A    between atoms: C_7  and  C_23
    2  A    between atoms: N_8  and  C_13
    3  A    between atoms: C_12  and  C_13
    4  A    between atoms: C_14  and  C_16
    5  A    between atoms: C_18  and  C_24
                            x       y       z     vdW  Elec       q    Type
                         _______ _______ _______ _____ _____    ______ ____

>  <TORSDO>
F 5

$$$$
=
 OpenBabel11042410233D

 29 31  0  0  1  0  0  0  0  0999 V2000
  186.0780  178.1690  143.8650 C   0  0  0  0  0  0  0  0  0  0  0  0
  187.0030  178.2470  142.7550 C   0  0  0  0  0  0  0  0  0  0  0  0
  188.0230  177.7120  144.5970 C   0  0  0  0  0  0  0  0  0  0  0  0
  184.8390  178.3920  143.8370 O   0  0  0  0  0  0  0  0  0  0  0  0
  186.8020  177.8150  145.0280 N   0  0  0  0  0  0  0  0  0  0  0  0
  188.1860  177.9830  143.1940 N   0  0  0  0  0  0  0  0  0  0  0  0
  189.0150  177.4670  146.8660 C   0  0  0  0  0  3  0  0  0  0  0  0
  191.3010  176.7060  147.1670 C   0  0  0  0  0  0  0  0  0  0  0  0
  189.1520  177.3660  145.4760 C   0  0  0  0  0  0  0  0  0  0  0  0
  190.0820  177.1390  147.7060 C   0  0  0  0  0  3  0  0  0  0  0  0
  191.4380  176.6060  145.7750 C   0  0  0  0  0  3  0  0  0  0  0  0
  190.3710  176.9340  144.9350 C   0  0  0  0  0  3  0  0  0  0  0  0
  193.2220  175.2530  147.7650 O   0  0  0  0  0  0  0  0  0  0  0  0
  192.6850  177.0600  149.0620 O   0  0  0  0  0  1  0  0  0  0  0  0
  192.4280  176.3590  148.0470 C   0  0  0  0  0  0  0  0  0  0  0  0
  186.7270  178.6580  141.3400 C   0  0  1  0  0  3  0  0  0  0  0  0
  187.8370  178.2420  140.3870 C   0  0  0  0  0  1  0  0  0  0  0  0
  182.9790  178.5920  140.8750 C   0  0  0  0  0  2  0  0  0  0  0  0
  183.8560  177.4400  137.7070 C   0  0  0  0  0  2  0  0  0  0  0  0
  184.4030  179.7650  139.4110 N   0  0  0  0  0  0  0  0  0  0  0  0
  185.4260  178.1910  140.8630 N   0  0  0  0  0  2  0  0  0  0  0  0
  185.2580  178.0250  137.9270 C   0  0  0  0  0  2  0  0  0  0  0  0
  183.2480  176.8520  138.9910 C   0  0  1  0  0  3  0  0  0  0  0  0
  184.3410  179.0530  140.4960 C   0  0  0  0  0  0  0  0  0  0  0  0
  185.1850  179.3940  138.3360 O   0  0  0  0  0  0  0  0  0  0  0  0
  182.3160  177.8540  139.6960 C   0  0  0  0  0  2  0  0  0  0  0  0
  183.0550  174.7000  137.9930 O   0  0  0  0  0  0  0  0  0  0  0  0
  181.1610  175.4220  139.1240 N   0  0  0  0  0  1  0  0  0  0  0  0
  182.4990  175.6020  138.6710 C   0  0  0  0  0  0  0  0  0  0  0  0
  1  5  1  0  0  0  0
  2  6  2  0  0  0  0
  2  1  1  0  0  0  0
  3  5  2  0  0  0  0
  3  9  1  0  0  0  0
  4  1  2  0  0  0  0
  6  3  1  0  0  0  0
  7 10  1  0  0  0  0
  8 10  2  0  0  0  0
  8 15  1  0  0  0  0
  9  7  2  0  0  0  0
 11  8  1  0  0  0  0
 12  9  1  0  0  0  0
 12 11  2  0  0  0  0
 13 15  2  0  0  0  0
 15 14  1  0  0  0  0
 16 17  1  6  0  0  0
 16  2  1  0  0  0  0
 19 22  1  0  0  0  0
 19 23  1  0  0  0  0
 20 24  2  0  0  0  0
 21 16  1  0  0  0  0
 22 25  1  0  0  0  0
 23 29  1  6  0  0  0
 23 26  1  0  0  0  0
 24 21  1  0  0  0  0
 24 18  1  0  0  0  0
 25 20  1  0  0  0  0
 26 18  1  0  0  0  0
 27 29  2  0  0  0  0
 29 28  1  0  0  0  0
M  END
>  <MODEL>
4

>  <REMARK>
 VINA RESULT:      -8.1      2.186      2.680
  Name = 
  5 active torsions:
  status: ('A' for Active; 'I' for Inactive)
    1  A    between atoms: C_7  and  C_23
    2  A    between atoms: N_8  and  C_13
    3  A    between atoms: C_12  and  C_13
    4  A    between atoms: C_14  and  C_16
    5  A    between atoms: C_18  and  C_24
                            x       y       z     vdW  Elec       q    Type
                         _______ _______ _______ _____ _____    ______ ____

>  <TORSDO>
F 5

$$$$
=
 OpenBabel11042410233D

 29 31  0  0  1  0  0  0  0  0999 V2000
  182.6310  179.0040  143.2870 C   0  0  0  0  0  0  0  0  0  0  0  0
  183.4740  178.6250  142.1740 C   0  0  0  0  0  0  0  0  0  0  0  0
  184.5430  178.4770  144.0600 C   0  0  0  0  0  0  0  0  0  0  0  0
  181.4370  179.3980  143.2340 O   0  0  0  0  0  0  0  0  0  0  0  0
  183.3820  178.8830  144.4800 N   0  0  0  0  0  0  0  0  0  0  0  0
  184.6380  178.3160  142.6340 N   0  0  0  0  0  0  0  0  0  0  0  0
  186.8430  177.6230  144.4800 C   0  0  0  0  0  3  0  0  0  0  0  0
  187.8420  177.7320  146.6910 C   0  0  0  0  0  0  0  0  0  0  0  0
  185.6740  178.2220  144.9660 C   0  0  0  0  0  0  0  0  0  0  0  0
  187.9200  177.3800  145.3360 C   0  0  0  0  0  3  0  0  0  0  0  0
  186.6720  178.3310  147.1770 C   0  0  0  0  0  3  0  0  0  0  0  0
  185.5950  178.5740  146.3220 C   0  0  0  0  0  3  0  0  0  0  0  0
  189.1190  178.2220  148.7620 O   0  0  0  0  0  1  0  0  0  0  0  0
  189.8210  176.5850  147.3250 O   0  0  0  0  0  0  0  0  0  0  0  0
  188.9740  177.4780  147.5960 C   0  0  0  0  0  0  0  0  0  0  0  0
  183.1550  178.6600  140.7100 C   0  0  1  0  0  3  0  0  0  0  0  0
  184.4010  178.5800  139.8410 C   0  0  0  0  0  1  0  0  0  0  0  0
  179.8750  176.7860  140.6490 C   0  0  0  0  0  2  0  0  0  0  0  0
  180.6940  176.3910  137.2870 C   0  0  0  0  0  2  0  0  0  0  0  0
  180.3170  178.5860  139.1960 N   0  0  0  0  0  0  0  0  0  0  0  0
  182.1810  177.6410  140.3220 N   0  0  0  0  0  2  0  0  0  0  0  0
  181.6590  177.5770  137.4240 C   0  0  0  0  0  2  0  0  0  0  0  0
  180.6500  175.5100  138.5460 C   0  0  1  0  0  3  0  0  0  0  0  0
  180.7730  177.8780  140.1840 C   0  0  0  0  0  0  0  0  0  0  0  0
  181.0040  178.7080  138.0050 O   0  0  0  0  0  0  0  0  0  0  0  0
  179.4740  175.8840  139.4670 C   0  0  0  0  0  2  0  0  0  0  0  0
  179.7020  173.3340  138.7180 O   0  0  0  0  0  0  0  0  0  0  0  0
  181.4100  173.5310  137.1580 N   0  0  0  0  0  1  0  0  0  0  0  0
  180.5510  174.0740  138.1570 C   0  0  0  0  0  0  0  0  0  0  0  0
  1  5  1  0  0  0  0
  2  6  2  0  0  0  0
  2  1  1  0  0  0  0
  3  5  2  0  0  0  0
  3  9  1  0  0  0  0
  4  1  2  0  0  0  0
  6  3  1  0  0  0  0
  7  9  2  0  0  0  0
  7 10  1  0  0  0  0
  8 11  1  0  0  0  0
  8 15  1  0  0  0  0
  9 12  1  0  0  0  0
 10  8  2  0  0  0  0
 12 11  2  0  0  0  0
 14 15  2  0  0  0  0
 15 13  1  0  0  0  0
 16 17  1  6  0  0  0
 16  2  1  0  0  0  0
 19 22  1  0  0  0  0
 19 23  1  0  0  0  0
 20 24  2  0  0  0  0
 21 16  1  0  0  0  0
 22 25  1  0  0  0  0
 23 29  1  6  0  0  0
 23 26  1  0  0  0  0
 24 21  1  0  0  0  0
 24 18  1  0  0  0  0
 25 20  1  0  0  0  0
 26 18  1  0  0  0  0
 28 29  1  0  0  0  0
 29 27  2  0  0  0  0
M  END
>  <MODEL>
5

>  <REMARK>
 VINA RESULT:      -8.0      1.877      2.546
  Name = 
  5 active torsions:
  status: ('A' for Active; 'I' for Inactive)
    1  A    between atoms: C_7  and  C_23
    2  A    between atoms: N_8  and  C_13
    3  A    between atoms: C_12  and  C_13
    4  A    between atoms: C_14  and  C_16
    5  A    between atoms: C_18  and  C_24
                            x       y       z     vdW  Elec       q    Type
                         _______ _______ _______ _____ _____    ______ ____

>  <TORSDO>
F 5

$$$$
=
 OpenBabel11042410233D

 29 31  0  0  1  0  0  0  0  0999 V2000
  184.8760  179.0030  140.9720 C   0  0  0  0  0  0  0  0  0  0  0  0
  183.7000  178.6730  141.7480 C   0  0  0  0  0  0  0  0  0  0  0  0
  185.5140  178.4340  142.9210 C   0  0  0  0  0  0  0  0  0  0  0  0
  184.9130  179.3650  139.7670 O   0  0  0  0  0  0  0  0  0  0  0  0
  186.0170  178.8320  141.7910 N   0  0  0  0  0  0  0  0  0  0  0  0
  184.0810  178.3150  142.9270 N   0  0  0  0  0  0  0  0  0  0  0  0
  185.8780  178.4020  145.3830 C   0  0  0  0  0  3  0  0  0  0  0  0
  187.9200  177.5020  146.3420 C   0  0  0  0  0  0  0  0  0  0  0  0
  186.3430  178.1130  144.0940 C   0  0  0  0  0  0  0  0  0  0  0  0
  186.6610  178.0980  146.5000 C   0  0  0  0  0  3  0  0  0  0  0  0
  188.3850  177.2140  145.0510 C   0  0  0  0  0  3  0  0  0  0  0  0
  187.6030  177.5180  143.9350 C   0  0  0  0  0  3  0  0  0  0  0  0
  188.3080  177.5040  148.7930 O   0  0  0  0  0  1  0  0  0  0  0  0
  189.8610  176.6080  147.3730 O   0  0  0  0  0  0  0  0  0  0  0  0
  188.7480  177.1800  147.5150 C   0  0  0  0  0  0  0  0  0  0  0  0
  182.2710  178.6280  141.2990 C   0  0  1  0  0  3  0  0  0  0  0  0
  181.3010  178.9960  142.4120 C   0  0  0  0  0  1  0  0  0  0  0  0
  181.8100  179.4260  137.6360 C   0  0  0  0  0  2  0  0  0  0  0  0
  179.5270  181.7320  138.9000 C   0  0  0  0  0  2  0  0  0  0  0  0
  180.0030  178.8400  139.0280 N   0  0  0  0  0  0  0  0  0  0  0  0
  182.0310  179.4380  140.1060 N   0  0  0  0  0  2  0  0  0  0  0  0
  179.4860  180.9180  140.2010 C   0  0  0  0  0  2  0  0  0  0  0  0
  180.9250  181.7650  138.2630 C   0  0  1  0  0  3  0  0  0  0  0  0
  181.2910  178.9940  138.9610 C   0  0  0  0  0  0  0  0  0  0  0  0
  179.2290  179.5360  139.9340 O   0  0  0  0  0  0  0  0  0  0  0  0
  181.0810  180.6980  137.1640 C   0  0  0  0  0  2  0  0  0  0  0  0
  182.2860  183.6900  137.9350 O   0  0  0  0  0  0  0  0  0  0  0  0
  180.2180  183.7710  136.8840 N   0  0  0  0  0  1  0  0  0  0  0  0
  181.1910  183.1190  137.6940 C   0  0  0  0  0  0  0  0  0  0  0  0
  1  2  1  0  0  0  0
  1  5  1  0  0  0  0
  2  6  2  0  0  0  0
  3  6  1  0  0  0  0
  3  9  1  0  0  0  0
  4  1  2  0  0  0  0
  5  3  2  0  0  0  0
  7 10  1  0  0  0  0
  8 10  2  0  0  0  0
  8 15  1  0  0  0  0
  9  7  2  0  0  0  0
 11  8  1  0  0  0  0
 12  9  1  0  0  0  0
 12 11  2  0  0  0  0
 14 15  2  0  0  0  0
 15 13  1  0  0  0  0
 16  2  1  0  0  0  0
 16 17  1  1  0  0  0
 18 24  1  0  0  0  0
 19 22  1  0  0  0  0
 20 25  1  0  0  0  0
 21 16  1  0  0  0  0
 23 29  1  6  0  0  0
 23 19  1  0  0  0  0
 24 20  2  0  0  0  0
 24 21  1  0  0  0  0
 25 22  1  0  0  0  0
 26 18  1  0  0  0  0
 26 23  1  0  0  0  0
 28 29  1  0  0  0  0
 29 27  2  0  0  0  0
M  END
>  <MODEL>
6

>  <REMARK>
 VINA RESULT:      -8.0      2.582      4.423
  Name = 
  5 active torsions:
  status: ('A' for Active; 'I' for Inactive)
    1  A    between atoms: C_7  and  C_23
    2  A    between atoms: N_8  and  C_13
    3  A    between atoms: C_12  and  C_13
    4  A    between atoms: C_14  and  C_16
    5  A    between atoms: C_18  and  C_24
                            x       y       z     vdW  Elec       q    Type
                         _______ _______ _______ _____ _____    ______ ____

>  <TORSDO>
F 5

$$$$
=
 OpenBabel11042410233D

 29 31  0  0  1  0  0  0  0  0999 V2000
  184.8900  179.0900  140.5980 C   0  0  0  0  0  0  0  0  0  0  0  0
  183.8150  178.2710  141.1130 C   0  0  0  0  0  0  0  0  0  0  0  0
  185.4800  178.3560  142.5070 C   0  0  0  0  0  0  0  0  0  0  0  0
  184.9270  179.6840  139.4890 O   0  0  0  0  0  0  0  0  0  0  0  0
  185.9370  179.1070  141.5500 N   0  0  0  0  0  0  0  0  0  0  0  0
  184.1710  177.8130  142.2650 N   0  0  0  0  0  0  0  0  0  0  0  0
  187.5460  177.5500  143.6370 C   0  0  0  0  0  3  0  0  0  0  0  0
  187.7240  177.5150  146.0590 C   0  0  0  0  0  0  0  0  0  0  0  0
  186.2470  178.0680  143.7290 C   0  0  0  0  0  0  0  0  0  0  0  0
  188.2800  177.2760  144.7940 C   0  0  0  0  0  3  0  0  0  0  0  0
  186.4240  178.0320  146.1510 C   0  0  0  0  0  3  0  0  0  0  0  0
  185.6900  178.3060  144.9940 C   0  0  0  0  0  3  0  0  0  0  0  0
  189.7490  176.6380  147.1950 O   0  0  0  0  0  0  0  0  0  0  0  0
  188.0220  177.5150  148.4130 O   0  0  0  0  0  1  0  0  0  0  0  0
  188.4930  177.2280  147.2800 C   0  0  0  0  0  0  0  0  0  0  0  0
  182.5300  177.8900  140.4420 C   0  0  1  0  0  3  0  0  0  0  0  0
  181.9270  179.0400  139.6480 C   0  0  0  0  0  1  0  0  0  0  0  0
  181.4960  175.1170  138.0950 C   0  0  0  0  0  2  0  0  0  0  0  0
  184.7360  175.5520  136.8940 C   0  0  0  0  0  2  0  0  0  0  0  0
  182.3290  177.1750  137.3120 N   0  0  0  0  0  0  0  0  0  0  0  0
  182.6630  176.6950  139.6120 N   0  0  0  0  0  2  0  0  0  0  0  0
  184.7480  176.9420  137.5450 C   0  0  0  0  0  2  0  0  0  0  0  0
  183.9750  174.5090  137.7290 C   0  0  1  0  0  3  0  0  0  0  0  0
  181.9860  176.4950  138.3640 C   0  0  0  0  0  0  0  0  0  0  0  0
  183.5970  177.6990  137.1600 O   0  0  0  0  0  0  0  0  0  0  0  0
  182.5220  174.3390  137.2500 C   0  0  0  0  0  2  0  0  0  0  0  0
  185.9030  173.1360  137.9770 O   0  0  0  0  0  0  0  0  0  0  0  0
  183.9950  172.0160  137.2750 N   0  0  0  0  0  1  0  0  0  0  0  0
  184.6840  173.1980  137.6720 C   0  0  0  0  0  0  0  0  0  0  0  0
  1  2  1  0  0  0  0
  1  5  1  0  0  0  0
  2  6  2  0  0  0  0
  3  9  1  0  0  0  0
  4  1  2  0  0  0  0
  5  3  2  0  0  0  0
  6  3  1  0  0  0  0
  7  9  2  0  0  0  0
  7 10  1  0  0  0  0
  8 11  1  0  0  0  0
  8 15  1  0  0  0  0
  9 12  1  0  0  0  0
 10  8  2  0  0  0  0
 12 11  2  0  0  0  0
 13 15  2  0  0  0  0
 15 14  1  0  0  0  0
 16 17  1  6  0  0  0
 16  2  1  0  0  0  0
 18 24  1  0  0  0  0
 19 22  1  0  0  0  0
 19 23  1  0  0  0  0
 20 24  2  0  0  0  0
 21 16  1  0  0  0  0
 23 29  1  6  0  0  0
 24 21  1  0  0  0  0
 25 20  1  0  0  0  0
 25 22  1  0  0  0  0
 26 23  1  0  0  0  0
 26 18  1  0  0  0  0
 28 29  1  0  0  0  0
 29 27  2  0  0  0  0
M  END
>  <MODEL>
7

>  <REMARK>
 VINA RESULT:      -7.9      3.182      4.155
  Name = 
  5 active torsions:
  status: ('A' for Active; 'I' for Inactive)
    1  A    between atoms: C_7  and  C_23
    2  A    between atoms: N_8  and  C_13
    3  A    between atoms: C_12  and  C_13
    4  A    between atoms: C_14  and  C_16
    5  A    between atoms: C_18  and  C_24
                            x       y       z     vdW  Elec       q    Type
                         _______ _______ _______ _____ _____    ______ ____

>  <TORSDO>
F 5

$$$$
=
 OpenBabel11042410233D

 29 31  0  0  1  0  0  0  0  0999 V2000
  187.6510  178.2040  140.1250 C   0  0  0  0  0  0  0  0  0  0  0  0
  188.8080  177.6770  139.4340 C   0  0  0  0  0  0  0  0  0  0  0  0
  189.0590  177.5690  141.5890 C   0  0  0  0  0  0  0  0  0  0  0  0
  186.6140  178.6940  139.6050 O   0  0  0  0  0  0  0  0  0  0  0  0
  187.8750  178.1010  141.5180 N   0  0  0  0  0  0  0  0  0  0  0  0
  189.6700  177.3020  140.3160 N   0  0  0  0  0  0  0  0  0  0  0  0
  189.0860  177.5790  144.0780 C   0  0  0  0  0  3  0  0  0  0  0  0
  190.9940  176.7360  145.3200 C   0  0  0  0  0  0  0  0  0  0  0  0
  189.7270  177.2820  142.8690 C   0  0  0  0  0  0  0  0  0  0  0  0
  189.7140  177.3070  145.2960 C   0  0  0  0  0  3  0  0  0  0  0  0
  191.6360  176.4390  144.1100 C   0  0  0  0  0  3  0  0  0  0  0  0
  191.0070  176.7100  142.8920 C   0  0  0  0  0  3  0  0  0  0  0  0
  192.3830  175.2700  146.7640 O   0  0  0  0  0  0  0  0  0  0  0  0
  191.5840  177.2620  147.5580 O   0  0  0  0  0  1  0  0  0  0  0  0
  191.6610  176.4470  146.6000 C   0  0  0  0  0  0  0  0  0  0  0  0
  189.0740  177.6390  137.9590 C   0  0  1  0  0  3  0  0  0  0  0  0
  189.0100  179.0180  137.3210 C   0  0  0  0  0  1  0  0  0  0  0  0
  191.7390  174.9620  138.0100 C   0  0  0  0  0  2  0  0  0  0  0  0
  192.0980  175.9060  134.6770 C   0  0  0  0  0  2  0  0  0  0  0  0
  189.9720  174.9420  136.4530 N   0  0  0  0  0  0  0  0  0  0  0  0
  190.3320  176.9690  137.6330 N   0  0  0  0  0  2  0  0  0  0  0  0
  190.6960  176.5270  134.7440 C   0  0  0  0  0  2  0  0  0  0  0  0
  192.8870  176.0730  135.9860 C   0  0  1  0  0  3  0  0  0  0  0  0
  190.4800  175.5510  137.4820 C   0  0  0  0  0  0  0  0  0  0  0  0
  189.7440  175.5910  135.2570 O   0  0  0  0  0  0  0  0  0  0  0  0
  192.7810  174.8270  136.8840 C   0  0  0  0  0  2  0  0  0  0  0  0
  195.2200  175.8470  136.3970 O   0  0  0  0  0  0  0  0  0  0  0  0
  194.6770  177.2040  134.5940 N   0  0  0  0  0  1  0  0  0  0  0  0
  194.3190  176.3590  135.6830 C   0  0  0  0  0  0  0  0  0  0  0  0
  1  5  1  0  0  0  0
  2  1  1  0  0  0  0
  2  6  2  0  0  0  0
  3  9  1  0  0  0  0
  4  1  2  0  0  0  0
  5  3  2  0  0  0  0
  6  3  1  0  0  0  0
  7 10  1  0  0  0  0
  8 15  1  0  0  0  0
  9 12  1  0  0  0  0
  9  7  2  0  0  0  0
 10  8  2  0  0  0  0
 11  8  1  0  0  0  0
 12 11  2  0  0  0  0
 15 13  2  0  0  0  0
 15 14  1  0  0  0  0
 16 17  1  1  0  0  0
 16  2  1  0  0  0  0
 19 22  1  0  0  0  0
 19 23  1  0  0  0  0
 20 24  2  0  0  0  0
 21 16  1  0  0  0  0
 22 25  1  0  0  0  0
 23 29  1  6  0  0  0
 23 26  1  0  0  0  0
 24 21  1  0  0  0  0
 24 18  1  0  0  0  0
 25 20  1  0  0  0  0
 26 18  1  0  0  0  0
 28 29  1  0  0  0  0
 29 27  2  0  0  0  0
M  END
>  <MODEL>
8

>  <REMARK>
 VINA RESULT:      -7.9      6.492      8.875
  Name = 
  5 active torsions:
  status: ('A' for Active; 'I' for Inactive)
    1  A    between atoms: C_7  and  C_23
    2  A    between atoms: N_8  and  C_13
    3  A    between atoms: C_12  and  C_13
    4  A    between atoms: C_14  and  C_16
    5  A    between atoms: C_18  and  C_24
                            x       y       z     vdW  Elec       q    Type
                         _______ _______ _______ _____ _____    ______ ____

>  <TORSDO>
F 5

$$$$
=
 OpenBabel11042410233D

 29 31  0  0  1  0  0  0  0  0999 V2000
  187.2300  178.5740  141.4810 C   0  0  0  0  0  0  0  0  0  0  0  0
  188.3630  178.1560  140.6830 C   0  0  0  0  0  0  0  0  0  0  0  0
  188.7450  177.8780  142.8040 C   0  0  0  0  0  0  0  0  0  0  0  0
  186.1470  179.0610  141.0640 O   0  0  0  0  0  0  0  0  0  0  0  0
  187.5410  178.3640  142.8460 N   0  0  0  0  0  0  0  0  0  0  0  0
  189.2890  177.7450  141.4800 N   0  0  0  0  0  0  0  0  0  0  0  0
  188.8540  177.4750  145.2580 C   0  0  0  0  0  3  0  0  0  0  0  0
  190.9280  176.8140  146.3350 C   0  0  0  0  0  0  0  0  0  0  0  0
  189.4990  177.5120  144.0150 C   0  0  0  0  0  0  0  0  0  0  0  0
  189.5640  177.1270  146.4100 C   0  0  0  0  0  3  0  0  0  0  0  0
  191.5730  176.8520  145.0900 C   0  0  0  0  0  3  0  0  0  0  0  0
  190.8630  177.1990  143.9380 C   0  0  0  0  0  3  0  0  0  0  0  0
  192.0510  177.4240  148.4620 O   0  0  0  0  0  1  0  0  0  0  0  0
  191.9930  175.2460  147.7630 O   0  0  0  0  0  0  0  0  0  0  0  0
  191.6800  176.4470  147.5450 C   0  0  0  0  0  0  0  0  0  0  0  0
  188.5420  178.2530  139.1990 C   0  0  1  0  0  3  0  0  0  0  0  0
  189.9480  177.8760  138.7580 C   0  0  0  0  0  1  0  0  0  0  0  0
  185.2710  177.5170  137.4590 C   0  0  0  0  0  2  0  0  0  0  0  0
  187.3350  175.6430  135.3700 C   0  0  0  0  0  2  0  0  0  0  0  0
  187.1250  178.4120  136.3150 N   0  0  0  0  0  0  0  0  0  0  0  0
  187.5400  177.4860  138.4610 N   0  0  0  0  0  2  0  0  0  0  0  0
  188.5280  176.4630  135.8820 C   0  0  0  0  0  2  0  0  0  0  0  0
  186.2900  175.3670  136.4640 C   0  0  1  0  0  3  0  0  0  0  0  0
  186.6630  178.0410  137.4710 C   0  0  0  0  0  0  0  0  0  0  0  0
  188.2710  177.8650  135.7750 O   0  0  0  0  0  0  0  0  0  0  0  0
  185.1350  176.3840  136.4240 C   0  0  0  0  0  2  0  0  0  0  0  0
  185.6030  173.4960  135.1630 O   0  0  0  0  0  0  0  0  0  0  0  0
  185.4060  173.2110  137.4580 N   0  0  0  0  0  1  0  0  0  0  0  0
  185.7530  173.9840  136.3130 C   0  0  0  0  0  0  0  0  0  0  0  0
  1  5  1  0  0  0  0
  2  6  2  0  0  0  0
  2  1  1  0  0  0  0
  3  5  2  0  0  0  0
  3  9  1  0  0  0  0
  4  1  2  0  0  0  0
  6  3  1  0  0  0  0
  7 10  1  0  0  0  0
  8 10  2  0  0  0  0
  8 15  1  0  0  0  0
  9  7  2  0  0  0  0
 11  8  1  0  0  0  0
 12  9  1  0  0  0  0
 12 11  2  0  0  0  0
 15 14  2  0  0  0  0
 15 13  1  0  0  0  0
 16 17  1  1  0  0  0
 16  2  1  0  0  0  0
 18 24  1  0  0  0  0
 19 22  1  0  0  0  0
 19 23  1  0  0  0  0
 20 24  2  0  0  0  0
 21 16  1  0  0  0  0
 23 29  1  6  0  0  0
 24 21  1  0  0  0  0
 25 22  1  0  0  0  0
 25 20  1  0  0  0  0
 26 23  1  0  0  0  0
 26 18  1  0  0  0  0
 27 29  2  0  0  0  0
 29 28  1  0  0  0  0
M  END
>  <MODEL>
9

>  <REMARK>
 VINA RESULT:      -7.8      4.462      5.423
  Name = 
  5 active torsions:
  status: ('A' for Active; 'I' for Inactive)
    1  A    between atoms: C_7  and  C_23
    2  A    between atoms: N_8  and  C_13
    3  A    between atoms: C_12  and  C_13
    4  A    between atoms: C_14  and  C_16
    5  A    between atoms: C_18  and  C_24
                            x       y       z     vdW  Elec       q    Type
                         _______ _______ _______ _____ _____    ______ ____

>  <TORSDO>
F 5

$$$$
