=
 OpenBabel11042412003D

 28 31  0  0  1  0  0  0  0  0999 V2000
  188.3330  177.5420  147.3000 C   0  0  1  0  0  3  0  0  0  0  0  0
  191.2390  176.8070  143.6100 N   0  0  0  0  0  0  0  0  0  0  0  0
  191.7430  176.1700  146.1470 S   0  0  0  0  0  0  0  0  0  0  0  0
  189.6900  177.2390  145.4600 C   0  0  0  0  0  0  0  0  0  0  0  0
  190.8600  176.7970  144.8560 C   0  0  0  0  0  0  0  0  0  0  0  0
  188.5320  177.8400  145.0380 O   0  0  0  0  0  0  0  0  0  0  0  0
  189.6330  177.0410  146.7920 C   0  0  0  0  0  0  0  0  0  0  0  0
  188.5670  178.6630  148.2940 C   0  0  0  0  0  1  0  0  0  0  0  0
  190.6680  176.4630  147.3700 O   0  0  0  0  0  0  0  0  0  0  0  0
  187.6540  178.0800  146.0920 N   0  0  0  0  0  0  0  0  0  0  0  0
  187.9640  178.2550  139.4610 N   0  0  0  0  0  0  0  0  0  0  0  0
  188.8860  178.1190  140.3690 C   0  0  0  0  0  0  0  0  0  0  0  0
  188.6990  178.6600  141.6790 N   0  0  0  0  0  0  0  0  0  0  0  0
  188.9540  176.4400  138.1250 C   0  0  0  0  0  3  0  0  0  0  0  0
  190.5460  177.3070  142.4560 C   0  0  0  0  0  0  0  0  0  0  0  0
  190.7990  176.8570  141.2590 N   0  0  0  0  0  0  0  0  0  0  0  0
  189.9170  176.2880  139.0480 C   0  0  0  0  0  3  0  0  0  0  0  0
  189.4750  178.3040  142.6590 C   0  0  0  0  0  3  0  0  0  0  0  0
  188.1150  177.7010  138.1070 C   0  0  2  0  0  3  0  0  0  0  0  0
  190.1680  177.3850  140.0490 C   0  0  1  0  0  3  0  0  0  0  0  0
  188.9040  179.9040  137.5700 O   0  0  0  0  0  1  0  0  0  0  0  0
  189.0350  178.3610  135.8830 O   0  0  0  0  0  0  0  0  0  0  0  0
  188.7020  178.7230  137.1810 C   0  0  0  0  0  0  0  0  0  0  0  0
  186.4650  177.2650  145.8640 C   0  0  0  0  0  2  0  0  0  0  0  0
  185.2050  178.0720  146.1410 C   0  0  0  0  0  2  0  0  0  0  0  0
  184.9550  179.0670  145.0250 C   0  0  0  0  0  2  0  0  0  0  0  0
  185.3170  179.2780  142.6380 N   0  0  0  0  0  1  0  0  0  0  0  0
  184.9720  178.3440  143.6950 C   0  0  0  0  0  2  0  0  0  0  0  0
  1  8  1  1  0  0  0
  2  5  2  0  0  0  0
  3  9  1  0  0  0  0
  4  7  2  0  0  0  0
  5  4  1  0  0  0  0
  5  3  1  0  0  0  0
  6  4  1  0  0  0  0
  6 10  1  0  0  0  0
  7  1  1  0  0  0  0
  7  9  1  0  0  0  0
 10  1  1  0  0  0  0
 11 12  2  0  0  0  0
 12 13  1  0  0  0  0
 13 18  2  0  0  0  0
 14 17  2  0  0  0  0
 15 18  1  0  0  0  0
 15  2  1  0  0  0  0
 16 15  2  0  0  0  0
 19 23  1  6  0  0  0
 19 14  1  0  0  0  0
 19 11  1  0  0  0  0
 20 17  1  6  0  0  0
 20 12  1  0  0  0  0
 20 16  1  0  0  0  0
 22 23  2  0  0  0  0
 23 21  1  0  0  0  0
 24 10  1  0  0  0  0
 24 25  1  0  0  0  0
 26 25  1  0  0  0  0
 27 28  1  0  0  0  0
 28 26  1  0  0  0  0
M  END
>  <MODEL>
1

>  <REMARK>
 VINA RESULT:      -8.3      0.000      0.000
  Name = 
  6 active torsions:
  status: ('A' for Active; 'I' for Inactive)
    1  A    between atoms: N_3  and  C_13
    2  A    between atoms: C_6  and  C_23
    3  A    between atoms: C_20  and  C_23
    4  A    between atoms: C_20  and  C_26
    5  A    between atoms: C_22  and  CA_27
    6  A    between atoms: N_24  and  C_26
                            x       y       z     vdW  Elec       q    Type
                         _______ _______ _______ _____ _____    ______ ____

>  <TORSDO>
F 6

$$$$
=
 OpenBabel11042412003D

 28 31  0  0  1  0  0  0  0  0999 V2000
  189.2120  177.3590  142.9750 C   0  0  1  0  0  3  0  0  0  0  0  0
  190.0170  176.9700  138.3060 N   0  0  0  0  0  0  0  0  0  0  0  0
  187.9930  178.2800  139.4400 S   0  0  0  0  0  0  0  0  0  0  0  0
  189.6640  177.1060  140.7280 C   0  0  0  0  0  0  0  0  0  0  0  0
  189.3880  177.3360  139.3860 C   0  0  0  0  0  0  0  0  0  0  0  0
  190.6300  176.4360  141.4320 O   0  0  0  0  0  0  0  0  0  0  0  0
  188.7920  177.6690  141.5880 C   0  0  0  0  0  0  0  0  0  0  0  0
  188.1310  176.5550  143.6720 C   0  0  0  0  0  1  0  0  0  0  0  0
  187.7910  178.3630  141.0790 O   0  0  0  0  0  0  0  0  0  0  0  0
  190.4270  176.5190  142.8080 N   0  0  0  0  0  0  0  0  0  0  0  0
  194.7360  174.4320  137.1540 N   0  0  0  0  0  0  0  0  0  0  0  0
  193.6380  174.9130  137.6620 C   0  0  0  0  0  0  0  0  0  0  0  0
  193.6270  176.2080  138.2670 N   0  0  0  0  0  0  0  0  0  0  0  0
  193.4590  172.7730  135.8600 C   0  0  0  0  0  3  0  0  0  0  0  0
  191.2110  176.1830  138.1750 C   0  0  0  0  0  0  0  0  0  0  0  0
  191.1810  174.9700  137.7000 N   0  0  0  0  0  0  0  0  0  0  0  0
  192.3160  173.2520  136.3770 C   0  0  0  0  0  3  0  0  0  0  0  0
  192.5030  176.8070  138.5280 C   0  0  0  0  0  3  0  0  0  0  0  0
  194.7840  173.1100  136.5120 C   0  0  2  0  0  3  0  0  0  0  0  0
  192.3610  174.1080  137.6160 C   0  0  1  0  0  3  0  0  0  0  0  0
  195.6550  172.3730  138.6240 O   0  0  0  0  0  1  0  0  0  0  0  0
  195.0090  170.7160  137.1810 O   0  0  0  0  0  0  0  0  0  0  0  0
  195.1790  172.0570  137.5010 C   0  0  0  0  0  0  0  0  0  0  0  0
  191.5490  177.2630  143.3710 C   0  0  0  0  0  2  0  0  0  0  0  0
  191.3160  177.5420  144.8480 C   0  0  0  0  0  2  0  0  0  0  0  0
  191.7280  176.3470  145.6860 C   0  0  0  0  0  2  0  0  0  0  0  0
  192.4910  176.1260  147.9750 N   0  0  0  0  0  1  0  0  0  0  0  0
  191.4100  176.6190  147.1400 C   0  0  0  0  0  2  0  0  0  0  0  0
  1  8  1  6  0  0  0
  2  5  2  0  0  0  0
  3  9  1  0  0  0  0
  4  6  1  0  0  0  0
  4  7  2  0  0  0  0
  5  3  1  0  0  0  0
  5  4  1  0  0  0  0
  6 10  1  0  0  0  0
  7  1  1  0  0  0  0
  9  7  1  0  0  0  0
 10  1  1  0  0  0  0
 10 24  1  0  0  0  0
 11 12  2  0  0  0  0
 12 13  1  0  0  0  0
 13 18  2  0  0  0  0
 14 17  2  0  0  0  0
 14 19  1  0  0  0  0
 15  2  1  0  0  0  0
 15 18  1  0  0  0  0
 16 15  2  0  0  0  0
 19 11  1  0  0  0  0
 19 23  1  1  0  0  0
 20 17  1  6  0  0  0
 20 12  1  0  0  0  0
 20 16  1  0  0  0  0
 22 23  2  0  0  0  0
 23 21  1  0  0  0  0
 24 25  1  0  0  0  0
 25 26  1  0  0  0  0
 26 28  1  0  0  0  0
 28 27  1  0  0  0  0
M  END
>  <MODEL>
2

>  <REMARK>
 VINA RESULT:      -8.0      4.579      6.638
  Name = 
  6 active torsions:
  status: ('A' for Active; 'I' for Inactive)
    1  A    between atoms: N_3  and  C_13
    2  A    between atoms: C_6  and  C_23
    3  A    between atoms: C_20  and  C_23
    4  A    between atoms: C_20  and  C_26
    5  A    between atoms: C_22  and  CA_27
    6  A    between atoms: N_24  and  C_26
                            x       y       z     vdW  Elec       q    Type
                         _______ _______ _______ _____ _____    ______ ____

>  <TORSDO>
F 6

$$$$
=
 OpenBabel11042412003D

 28 31  0  0  1  0  0  0  0  0999 V2000
  188.6560  177.5310  147.4330 C   0  0  1  0  0  3  0  0  0  0  0  0
  191.7450  176.2130  144.0690 N   0  0  0  0  0  0  0  0  0  0  0  0
  192.0640  175.8970  146.6950 S   0  0  0  0  0  0  0  0  0  0  0  0
  190.1070  176.9400  145.7420 C   0  0  0  0  0  0  0  0  0  0  0  0
  191.2910  176.3800  145.2790 C   0  0  0  0  0  0  0  0  0  0  0  0
  189.0050  177.5220  145.1700 O   0  0  0  0  0  0  0  0  0  0  0  0
  189.9600  176.9210  147.0810 C   0  0  0  0  0  0  0  0  0  0  0  0
  188.8790  178.7640  148.2880 C   0  0  0  0  0  1  0  0  0  0  0  0
  190.9320  176.3870  147.7970 O   0  0  0  0  0  0  0  0  0  0  0  0
  188.0760  177.9310  146.1240 N   0  0  0  0  0  0  0  0  0  0  0  0
  189.6320  178.3910  139.5050 N   0  0  0  0  0  0  0  0  0  0  0  0
  190.1230  177.6460  140.4530 C   0  0  0  0  0  0  0  0  0  0  0  0
  191.5380  177.5420  140.6330 N   0  0  0  0  0  0  0  0  0  0  0  0
  187.4310  178.4110  140.6060 C   0  0  0  0  0  3  0  0  0  0  0  0
  191.1460  176.5820  142.8170 C   0  0  0  0  0  0  0  0  0  0  0  0
  189.8530  176.5840  142.6540 N   0  0  0  0  0  0  0  0  0  0  0  0
  187.9180  177.6390  141.5900 C   0  0  0  0  0  3  0  0  0  0  0  0
  192.0300  177.0330  141.7230 C   0  0  0  0  0  3  0  0  0  0  0  0
  188.1830  178.5330  139.2970 C   0  0  2  0  0  3  0  0  0  0  0  0
  189.2030  176.8830  141.3770 C   0  0  1  0  0  3  0  0  0  0  0  0
  188.4710  176.6600  137.8230 O   0  0  0  0  0  0  0  0  0  0  0  0
  186.3610  177.5460  137.9060 O   0  0  0  0  0  1  0  0  0  0  0  0
  187.6920  177.5270  138.3000 C   0  0  0  0  0  0  0  0  0  0  0  0
  186.8680  177.1370  145.9250 C   0  0  0  0  0  2  0  0  0  0  0  0
  185.9860  177.7670  144.8570 C   0  0  0  0  0  2  0  0  0  0  0  0
  184.9900  178.7230  145.4860 C   0  0  0  0  0  2  0  0  0  0  0  0
  184.2380  178.4470  143.1990 N   0  0  0  0  0  1  0  0  0  0  0  0
  183.9690  179.1370  144.4480 C   0  0  0  0  0  2  0  0  0  0  0  0
  1  8  1  1  0  0  0
  2  5  2  0  0  0  0
  3  9  1  0  0  0  0
  4  7  2  0  0  0  0
  5  4  1  0  0  0  0
  5  3  1  0  0  0  0
  6  4  1  0  0  0  0
  6 10  1  0  0  0  0
  7  1  1  0  0  0  0
  7  9  1  0  0  0  0
 10  1  1  0  0  0  0
 11 12  2  0  0  0  0
 12 13  1  0  0  0  0
 12 20  1  0  0  0  0
 13 18  2  0  0  0  0
 14 17  2  0  0  0  0
 15  2  1  0  0  0  0
 16 15  2  0  0  0  0
 18 15  1  0  0  0  0
 19 23  1  6  0  0  0
 19 11  1  0  0  0  0
 19 14  1  0  0  0  0
 20 17  1  1  0  0  0
 20 16  1  0  0  0  0
 21 23  2  0  0  0  0
 22 23  1  0  0  0  0
 24 10  1  0  0  0  0
 25 26  1  0  0  0  0
 25 24  1  0  0  0  0
 27 28  1  0  0  0  0
 28 26  1  0  0  0  0
M  END
>  <MODEL>
3

>  <REMARK>
 VINA RESULT:      -8.0      1.391      1.839
  Name = 
  6 active torsions:
  status: ('A' for Active; 'I' for Inactive)
    1  A    between atoms: N_3  and  C_13
    2  A    between atoms: C_6  and  C_23
    3  A    between atoms: C_20  and  C_23
    4  A    between atoms: C_20  and  C_26
    5  A    between atoms: C_22  and  CA_27
    6  A    between atoms: N_24  and  C_26
                            x       y       z     vdW  Elec       q    Type
                         _______ _______ _______ _____ _____    ______ ____

>  <TORSDO>
F 6

$$$$
=
 OpenBabel11042412003D

 28 31  0  0  1  0  0  0  0  0999 V2000
  189.1370  177.1500  138.7330 C   0  0  1  0  0  3  0  0  0  0  0  0
  191.9640  177.4130  142.5460 N   0  0  0  0  0  0  0  0  0  0  0  0
  192.7680  177.2690  140.0090 S   0  0  0  0  0  0  0  0  0  0  0  0
  190.4360  177.2610  140.6350 C   0  0  0  0  0  0  0  0  0  0  0  0
  191.6640  177.3180  141.2810 C   0  0  0  0  0  0  0  0  0  0  0  0
  189.1210  177.2640  141.0200 O   0  0  0  0  0  0  0  0  0  0  0  0
  190.5090  177.1890  139.2910 C   0  0  0  0  0  0  0  0  0  0  0  0
  188.9250  175.8500  137.9800 C   0  0  0  0  0  1  0  0  0  0  0  0
  191.7090  177.1810  138.7420 O   0  0  0  0  0  0  0  0  0  0  0  0
  188.2560  177.1800  139.9310 N   0  0  0  0  0  0  0  0  0  0  0  0
  188.5380  176.8360  146.7840 N   0  0  0  0  0  0  0  0  0  0  0  0
  189.4030  177.2090  145.8860 C   0  0  0  0  0  0  0  0  0  0  0  0
  190.7690  176.7990  145.9820 N   0  0  0  0  0  0  0  0  0  0  0  0
  186.6730  177.3850  145.2740 C   0  0  0  0  0  3  0  0  0  0  0  0
  191.0890  177.4730  143.6830 C   0  0  0  0  0  0  0  0  0  0  0  0
  189.8740  177.9340  143.5850 N   0  0  0  0  0  0  0  0  0  0  0  0
  187.5500  177.7780  144.3370 C   0  0  0  0  0  3  0  0  0  0  0  0
  191.5730  176.9310  144.9690 C   0  0  0  0  0  3  0  0  0  0  0  0
  187.1220  177.2270  146.7120 C   0  0  2  0  0  3  0  0  0  0  0  0
  188.9730  178.0800  144.7290 C   0  0  1  0  0  3  0  0  0  0  0  0
  187.6590  178.8250  148.4220 O   0  0  0  0  0  1  0  0  0  0  0  0
  185.7950  179.2900  147.1740 O   0  0  0  0  0  0  0  0  0  0  0  0
  186.8820  178.4850  147.4900 C   0  0  0  0  0  0  0  0  0  0  0  0
  187.4980  178.4250  139.8790 C   0  0  0  0  0  2  0  0  0  0  0  0
  186.9170  178.7530  141.2460 C   0  0  0  0  0  2  0  0  0  0  0  0
  185.4400  179.0780  141.1320 C   0  0  0  0  0  2  0  0  0  0  0  0
  184.3270  179.9870  139.1810 N   0  0  0  0  0  1  0  0  0  0  0  0
  184.9740  178.8030  139.7190 C   0  0  0  0  0  2  0  0  0  0  0  0
  1  8  1  1  0  0  0
  1  7  1  0  0  0  0
  1 10  1  0  0  0  0
  2 15  1  0  0  0  0
  3  5  1  0  0  0  0
  4  6  1  0  0  0  0
  4  5  1  0  0  0  0
  5  2  2  0  0  0  0
  7  4  2  0  0  0  0
  9  7  1  0  0  0  0
  9  3  1  0  0  0  0
 10  6  1  0  0  0  0
 12 13  1  0  0  0  0
 12 11  2  0  0  0  0
 14 19  1  0  0  0  0
 15 18  1  0  0  0  0
 16 15  2  0  0  0  0
 16 20  1  0  0  0  0
 17 14  2  0  0  0  0
 18 13  2  0  0  0  0
 19 11  1  0  0  0  0
 19 23  1  1  0  0  0
 20 17  1  6  0  0  0
 20 12  1  0  0  0  0
 22 23  2  0  0  0  0
 23 21  1  0  0  0  0
 24 10  1  0  0  0  0
 24 25  1  0  0  0  0
 26 25  1  0  0  0  0
 27 28  1  0  0  0  0
 28 26  1  0  0  0  0
M  END
>  <MODEL>
4

>  <REMARK>
 VINA RESULT:      -8.0      2.504      6.717
  Name = 
  6 active torsions:
  status: ('A' for Active; 'I' for Inactive)
    1  A    between atoms: N_3  and  C_13
    2  A    between atoms: C_6  and  C_23
    3  A    between atoms: C_20  and  C_23
    4  A    between atoms: C_20  and  C_26
    5  A    between atoms: C_22  and  CA_27
    6  A    between atoms: N_24  and  C_26
                            x       y       z     vdW  Elec       q    Type
                         _______ _______ _______ _____ _____    ______ ____

>  <TORSDO>
F 6

$$$$
=
 OpenBabel11042412003D

 28 31  0  0  1  0  0  0  0  0999 V2000
  190.2850  177.6310  143.0680 C   0  0  1  0  0  3  0  0  0  0  0  0
  187.1380  178.3600  139.5800 N   0  0  0  0  0  0  0  0  0  0  0  0
  189.7040  177.7150  139.2620 S   0  0  0  0  0  0  0  0  0  0  0  0
  188.7020  178.0190  141.4380 C   0  0  0  0  0  0  0  0  0  0  0  0
  188.2980  178.0940  140.1110 C   0  0  0  0  0  0  0  0  0  0  0  0
  188.1030  178.1920  142.6590 O   0  0  0  0  0  0  0  0  0  0  0  0
  189.9970  177.6900  141.6160 C   0  0  0  0  0  0  0  0  0  0  0  0
  191.3390  178.6610  143.4260 C   0  0  0  0  0  1  0  0  0  0  0  0
  190.7290  177.4790  140.5380 O   0  0  0  0  0  0  0  0  0  0  0  0
  188.9950  177.9950  143.7110 N   0  0  0  0  0  0  0  0  0  0  0  0
  182.5050  178.8690  142.4640 N   0  0  0  0  0  0  0  0  0  0  0  0
  183.5680  179.0040  141.7250 C   0  0  0  0  0  0  0  0  0  0  0  0
  184.8410  179.2530  142.3260 N   0  0  0  0  0  0  0  0  0  0  0  0
  181.3010  177.7950  140.6050 C   0  0  0  0  0  3  0  0  0  0  0  0
  185.8970  178.6770  140.2290 C   0  0  0  0  0  0  0  0  0  0  0  0
  184.7520  178.5230  139.6250 N   0  0  0  0  0  0  0  0  0  0  0  0
  182.3860  177.9310  139.8260 C   0  0  0  0  0  3  0  0  0  0  0  0
  185.9360  179.1210  141.6380 C   0  0  0  0  0  3  0  0  0  0  0  0
  181.1810  178.6000  141.8830 C   0  0  2  0  0  3  0  0  0  0  0  0
  183.4690  178.8990  140.2210 C   0  0  1  0  0  3  0  0  0  0  0  0
  180.1310  180.2370  140.4760 O   0  0  0  0  0  0  0  0  0  0  0  0
  180.0800  180.6760  142.7230 O   0  0  0  0  0  1  0  0  0  0  0  0
  180.4400  179.8790  141.6440 C   0  0  0  0  0  0  0  0  0  0  0  0
  188.5380  176.8270  144.4560 C   0  0  0  0  0  2  0  0  0  0  0  0
  187.8300  177.2540  145.7340 C   0  0  0  0  0  2  0  0  0  0  0  0
  186.3410  177.4080  145.4900 C   0  0  0  0  0  2  0  0  0  0  0  0
  184.6380  178.7660  146.5510 N   0  0  0  0  0  1  0  0  0  0  0  0
  185.9150  178.8120  145.8620 C   0  0  0  0  0  2  0  0  0  0  0  0
  1  8  1  6  0  0  0
  1 10  1  0  0  0  0
  2  5  2  0  0  0  0
  2 15  1  0  0  0  0
  3  5  1  0  0  0  0
  3  9  1  0  0  0  0
  4  7  2  0  0  0  0
  4  6  1  0  0  0  0
  5  4  1  0  0  0  0
  6 10  1  0  0  0  0
  7  1  1  0  0  0  0
  9  7  1  0  0  0  0
 10 24  1  0  0  0  0
 12 13  1  0  0  0  0
 12 11  2  0  0  0  0
 14 19  1  0  0  0  0
 15 18  1  0  0  0  0
 16 20  1  0  0  0  0
 16 15  2  0  0  0  0
 17 14  2  0  0  0  0
 18 13  2  0  0  0  0
 19 23  1  6  0  0  0
 19 11  1  0  0  0  0
 20 17  1  1  0  0  0
 20 12  1  0  0  0  0
 21 23  2  0  0  0  0
 23 22  1  0  0  0  0
 24 25  1  0  0  0  0
 26 25  1  0  0  0  0
 26 28  1  0  0  0  0
 28 27  1  0  0  0  0
M  END
>  <MODEL>
5

>  <REMARK>
 VINA RESULT:      -7.6      3.874      6.080
  Name = 
  6 active torsions:
  status: ('A' for Active; 'I' for Inactive)
    1  A    between atoms: N_3  and  C_13
    2  A    between atoms: C_6  and  C_23
    3  A    between atoms: C_20  and  C_23
    4  A    between atoms: C_20  and  C_26
    5  A    between atoms: C_22  and  CA_27
    6  A    between atoms: N_24  and  C_26
                            x       y       z     vdW  Elec       q    Type
                         _______ _______ _______ _____ _____    ______ ____

>  <TORSDO>
F 6

$$$$
=
 OpenBabel11042412003D

 28 31  0  0  1  0  0  0  0  0999 V2000
  189.2890  177.7270  146.2510 C   0  0  1  0  0  3  0  0  0  0  0  0
  184.8940  178.7610  144.7610 N   0  0  0  0  0  0  0  0  0  0  0  0
  185.6940  178.6270  147.3000 S   0  0  0  0  0  0  0  0  0  0  0  0
  187.1810  178.2020  145.4460 C   0  0  0  0  0  0  0  0  0  0  0  0
  185.8450  178.5360  145.6240 C   0  0  0  0  0  0  0  0  0  0  0  0
  188.0020  177.9710  144.3730 O   0  0  0  0  0  0  0  0  0  0  0  0
  187.8850  178.0660  146.5870 C   0  0  0  0  0  0  0  0  0  0  0  0
  189.6420  176.3690  146.8270 C   0  0  0  0  0  1  0  0  0  0  0  0
  187.2490  178.2600  147.7260 O   0  0  0  0  0  0  0  0  0  0  0  0
  189.3010  177.6570  144.7660 N   0  0  0  0  0  0  0  0  0  0  0  0
  184.7420  179.3380  139.3130 N   0  0  0  0  0  0  0  0  0  0  0  0
  184.9450  179.0020  140.5550 C   0  0  0  0  0  0  0  0  0  0  0  0
  185.9190  179.6930  141.3410 N   0  0  0  0  0  0  0  0  0  0  0  0
  182.5740  178.1730  139.3110 C   0  0  0  0  0  3  0  0  0  0  0  0
  184.9440  178.7170  143.3270 C   0  0  0  0  0  0  0  0  0  0  0  0
  184.0960  178.0090  142.6360 N   0  0  0  0  0  0  0  0  0  0  0  0
  182.7680  177.8130  140.5890 C   0  0  0  0  0  3  0  0  0  0  0  0
  185.9420  179.5570  142.6340 C   0  0  0  0  0  3  0  0  0  0  0  0
  183.7410  178.6600  138.4760 C   0  0  2  0  0  3  0  0  0  0  0  0
  184.1520  177.8780  141.1790 C   0  0  1  0  0  3  0  0  0  0  0  0
  185.5130  177.6520  137.2090 O   0  0  0  0  0  0  0  0  0  0  0  0
  183.6770  176.3330  137.5770 O   0  0  0  0  0  1  0  0  0  0  0  0
  184.3660  177.5300  137.7160 C   0  0  0  0  0  0  0  0  0  0  0  0
  190.1730  178.7250  144.2890 C   0  0  0  0  0  2  0  0  0  0  0  0
  191.5900  178.2070  144.0890 C   0  0  0  0  0  2  0  0  0  0  0  0
  191.5780  176.9260  143.2770 C   0  0  0  0  0  2  0  0  0  0  0  0
  190.1800  176.4980  141.3450 N   0  0  0  0  0  1  0  0  0  0  0  0
  191.3220  177.2570  141.8220 C   0  0  0  0  0  2  0  0  0  0  0  0
  1  7  1  0  0  0  0
  1  8  1  1  0  0  0
  2  5  2  0  0  0  0
  3  9  1  0  0  0  0
  4  5  1  0  0  0  0
  4  7  2  0  0  0  0
  5  3  1  0  0  0  0
  6 10  1  0  0  0  0
  6  4  1  0  0  0  0
  7  9  1  0  0  0  0
 10  1  1  0  0  0  0
 11 12  2  0  0  0  0
 12 20  1  0  0  0  0
 12 13  1  0  0  0  0
 13 18  2  0  0  0  0
 14 17  2  0  0  0  0
 15  2  1  0  0  0  0
 16 15  2  0  0  0  0
 18 15  1  0  0  0  0
 19 23  1  1  0  0  0
 19 14  1  0  0  0  0
 19 11  1  0  0  0  0
 20 17  1  6  0  0  0
 20 16  1  0  0  0  0
 21 23  2  0  0  0  0
 22 23  1  0  0  0  0
 24 10  1  0  0  0  0
 25 24  1  0  0  0  0
 26 25  1  0  0  0  0
 27 28  1  0  0  0  0
 28 26  1  0  0  0  0
M  END
>  <MODEL>
6

>  <REMARK>
 VINA RESULT:      -7.6      2.931      5.065
  Name = 
  6 active torsions:
  status: ('A' for Active; 'I' for Inactive)
    1  A    between atoms: N_3  and  C_13
    2  A    between atoms: C_6  and  C_23
    3  A    between atoms: C_20  and  C_23
    4  A    between atoms: C_20  and  C_26
    5  A    between atoms: C_22  and  CA_27
    6  A    between atoms: N_24  and  C_26
                            x       y       z     vdW  Elec       q    Type
                         _______ _______ _______ _____ _____    ______ ____

>  <TORSDO>
F 6

$$$$
=
 OpenBabel11042412003D

 28 31  0  0  1  0  0  0  0  0999 V2000
  188.9410  176.5220  136.3090 C   0  0  1  0  0  3  0  0  0  0  0  0
  190.8980  176.9460  140.6210 N   0  0  0  0  0  0  0  0  0  0  0  0
  192.2170  176.5840  138.3340 S   0  0  0  0  0  0  0  0  0  0  0  0
  189.8080  176.7180  138.4370 C   0  0  0  0  0  0  0  0  0  0  0  0
  190.8710  176.7710  139.3300 C   0  0  0  0  0  0  0  0  0  0  0  0
  188.4430  176.8040  138.5270 O   0  0  0  0  0  0  0  0  0  0  0  0
  190.1630  176.5450  137.1480 C   0  0  0  0  0  0  0  0  0  0  0  0
  188.8220  175.1810  135.6110 C   0  0  0  0  0  1  0  0  0  0  0  0
  191.4500  176.4470  136.8750 O   0  0  0  0  0  0  0  0  0  0  0  0
  187.8280  176.6770  137.2830 N   0  0  0  0  0  0  0  0  0  0  0  0
  186.3920  176.9820  143.7400 N   0  0  0  0  0  0  0  0  0  0  0  0
  187.5590  177.1340  143.1850 C   0  0  0  0  0  0  0  0  0  0  0  0
  188.5930  176.1700  143.3960 N   0  0  0  0  0  0  0  0  0  0  0  0
  185.3890  178.5880  142.1670 C   0  0  0  0  0  3  0  0  0  0  0  0
  189.8050  177.1250  141.5350 C   0  0  0  0  0  0  0  0  0  0  0  0
  188.9230  178.0700  141.3670 N   0  0  0  0  0  0  0  0  0  0  0  0
  186.5860  178.7630  141.5850 C   0  0  0  0  0  3  0  0  0  0  0  0
  189.6540  176.1630  142.6450 C   0  0  0  0  0  3  0  0  0  0  0  0
  185.2990  177.9450  143.5360 C   0  0  2  0  0  3  0  0  0  0  0  0
  187.8350  178.3340  142.3090 C   0  0  1  0  0  3  0  0  0  0  0  0
  185.8360  178.7480  145.7340 O   0  0  0  0  0  1  0  0  0  0  0  0
  184.7170  180.2200  144.3820 O   0  0  0  0  0  0  0  0  0  0  0  0
  185.3020  178.9820  144.6170 C   0  0  0  0  0  0  0  0  0  0  0  0
  187.1700  177.9450  136.9900 C   0  0  0  0  0  2  0  0  0  0  0  0
  186.2580  178.3500  138.1390 C   0  0  0  0  0  2  0  0  0  0  0  0
  184.8550  177.8200  137.9160 C   0  0  0  0  0  2  0  0  0  0  0  0
  184.4070  179.9300  139.0200 N   0  0  0  0  0  1  0  0  0  0  0  0
  183.8820  178.5980  138.7760 C   0  0  0  0  0  2  0  0  0  0  0  0
  1  8  1  1  0  0  0
  1  7  1  0  0  0  0
  1 10  1  0  0  0  0
  2 15  1  0  0  0  0
  3  5  1  0  0  0  0
  4  6  1  0  0  0  0
  4  5  1  0  0  0  0
  5  2  2  0  0  0  0
  7  4  2  0  0  0  0
  9  7  1  0  0  0  0
  9  3  1  0  0  0  0
 10  6  1  0  0  0  0
 12 13  1  0  0  0  0
 12 11  2  0  0  0  0
 14 19  1  0  0  0  0
 15 18  1  0  0  0  0
 16 15  2  0  0  0  0
 16 20  1  0  0  0  0
 17 14  2  0  0  0  0
 18 13  2  0  0  0  0
 19 11  1  0  0  0  0
 19 23  1  1  0  0  0
 20 17  1  6  0  0  0
 20 12  1  0  0  0  0
 22 23  2  0  0  0  0
 23 21  1  0  0  0  0
 24 10  1  0  0  0  0
 24 25  1  0  0  0  0
 26 25  1  0  0  0  0
 26 28  1  0  0  0  0
 28 27  1  0  0  0  0
M  END
>  <MODEL>
7

>  <REMARK>
 VINA RESULT:      -7.6      2.993      7.092
  Name = 
  6 active torsions:
  status: ('A' for Active; 'I' for Inactive)
    1  A    between atoms: N_3  and  C_13
    2  A    between atoms: C_6  and  C_23
    3  A    between atoms: C_20  and  C_23
    4  A    between atoms: C_20  and  C_26
    5  A    between atoms: C_22  and  CA_27
    6  A    between atoms: N_24  and  C_26
                            x       y       z     vdW  Elec       q    Type
                         _______ _______ _______ _____ _____    ______ ____

>  <TORSDO>
F 6

$$$$
=
 OpenBabel11042412003D

 28 31  0  0  1  0  0  0  0  0999 V2000
  182.5440  178.9300  142.4260 C   0  0  1  0  0  3  0  0  0  0  0  0
  186.1870  178.6360  139.3850 N   0  0  0  0  0  0  0  0  0  0  0  0
  183.6850  179.3150  138.7680 S   0  0  0  0  0  0  0  0  0  0  0  0
  184.3590  178.7450  141.0150 C   0  0  0  0  0  0  0  0  0  0  0  0
  184.9560  178.8340  139.7640 C   0  0  0  0  0  0  0  0  0  0  0  0
  184.7720  178.4230  142.2810 O   0  0  0  0  0  0  0  0  0  0  0  0
  183.0460  179.0500  141.0360 C   0  0  0  0  0  0  0  0  0  0  0  0
  181.4680  177.8630  142.4930 C   0  0  0  0  0  1  0  0  0  0  0  0
  182.4780  179.3920  139.8950 O   0  0  0  0  0  0  0  0  0  0  0  0
  183.7310  178.4890  143.2050 N   0  0  0  0  0  0  0  0  0  0  0  0
  190.2410  176.3650  142.2900 N   0  0  0  0  0  0  0  0  0  0  0  0
  189.4380  177.1150  141.5930 C   0  0  0  0  0  0  0  0  0  0  0  0
  189.4080  177.0170  140.1670 N   0  0  0  0  0  0  0  0  0  0  0  0
  188.9380  176.7950  144.3330 C   0  0  0  0  0  3  0  0  0  0  0  0
  187.3240  178.2410  140.1680 C   0  0  0  0  0  0  0  0  0  0  0  0
  187.3600  178.4220  141.4580 N   0  0  0  0  0  0  0  0  0  0  0  0
  188.1010  177.5770  143.6320 C   0  0  0  0  0  3  0  0  0  0  0  0
  188.4380  177.5510  139.4870 C   0  0  0  0  0  3  0  0  0  0  0  0
  190.2910  176.4280  143.7580 C   0  0  2  0  0  3  0  0  0  0  0  0
  188.5240  178.1000  142.2850 C   0  0  1  0  0  3  0  0  0  0  0  0
  191.8820  178.1880  143.3940 O   0  0  0  0  0  0  0  0  0  0  0  0
  191.7270  177.4160  145.5450 O   0  0  0  0  0  1  0  0  0  0  0  0
  191.3450  177.3930  144.2100 C   0  0  0  0  0  0  0  0  0  0  0  0
  184.0510  179.5560  144.1470 C   0  0  0  0  0  2  0  0  0  0  0  0
  184.0830  179.0180  145.5700 C   0  0  0  0  0  2  0  0  0  0  0  0
  185.3490  178.2180  145.8080 C   0  0  0  0  0  2  0  0  0  0  0  0
  187.1740  177.9220  147.3740 N   0  0  0  0  0  1  0  0  0  0  0  0
  186.1220  178.8310  146.9560 C   0  0  0  0  0  2  0  0  0  0  0  0
  1  8  1  6  0  0  0
  1 10  1  0  0  0  0
  2  5  2  0  0  0  0
  2 15  1  0  0  0  0
  3  5  1  0  0  0  0
  3  9  1  0  0  0  0
  4  7  2  0  0  0  0
  4  6  1  0  0  0  0
  5  4  1  0  0  0  0
  6 10  1  0  0  0  0
  7  1  1  0  0  0  0
  9  7  1  0  0  0  0
 10 24  1  0  0  0  0
 11 19  1  0  0  0  0
 12 20  1  0  0  0  0
 12 11  2  0  0  0  0
 13 12  1  0  0  0  0
 15 16  2  0  0  0  0
 16 20  1  0  0  0  0
 17 14  2  0  0  0  0
 18 13  2  0  0  0  0
 18 15  1  0  0  0  0
 19 23  1  6  0  0  0
 19 14  1  0  0  0  0
 20 17  1  1  0  0  0
 21 23  2  0  0  0  0
 23 22  1  0  0  0  0
 24 25  1  0  0  0  0
 25 26  1  0  0  0  0
 26 28  1  0  0  0  0
 28 27  1  0  0  0  0
M  END
>  <MODEL>
8

>  <REMARK>
 VINA RESULT:      -7.6      3.351      6.368
  Name = 
  6 active torsions:
  status: ('A' for Active; 'I' for Inactive)
    1  A    between atoms: N_3  and  C_13
    2  A    between atoms: C_6  and  C_23
    3  A    between atoms: C_20  and  C_23
    4  A    between atoms: C_20  and  C_26
    5  A    between atoms: C_22  and  CA_27
    6  A    between atoms: N_24  and  C_26
                            x       y       z     vdW  Elec       q    Type
                         _______ _______ _______ _____ _____    ______ ____

>  <TORSDO>
F 6

$$$$
=
 OpenBabel11042412003D

 28 31  0  0  1  0  0  0  0  0999 V2000
  189.7120  176.8630  143.2730 C   0  0  1  0  0  3  0  0  0  0  0  0
  185.8530  178.3120  145.6420 N   0  0  0  0  0  0  0  0  0  0  0  0
  188.1800  177.5990  146.7290 S   0  0  0  0  0  0  0  0  0  0  0  0
  187.7930  177.5570  144.3460 C   0  0  0  0  0  0  0  0  0  0  0  0
  187.0720  177.8770  145.4900 C   0  0  0  0  0  0  0  0  0  0  0  0
  187.5450  177.5500  142.9980 O   0  0  0  0  0  0  0  0  0  0  0  0
  189.0590  177.1550  144.5710 C   0  0  0  0  0  0  0  0  0  0  0  0
  190.1180  175.4030  143.2180 C   0  0  0  0  0  1  0  0  0  0  0  0
  189.4730  177.1070  145.8240 O   0  0  0  0  0  0  0  0  0  0  0  0
  188.6510  177.1230  142.2650 N   0  0  0  0  0  0  0  0  0  0  0  0
  181.7390  178.6280  142.0350 N   0  0  0  0  0  0  0  0  0  0  0  0
  182.7400  178.8120  142.8470 C   0  0  0  0  0  0  0  0  0  0  0  0
  182.5130  179.0160  144.2430 N   0  0  0  0  0  0  0  0  0  0  0  0
  183.2440  177.6890  140.3280 C   0  0  0  0  0  3  0  0  0  0  0  0
  184.8580  178.5860  144.6440 C   0  0  0  0  0  0  0  0  0  0  0  0
  185.1180  178.4770  143.3720 N   0  0  0  0  0  0  0  0  0  0  0  0
  184.2890  177.8760  141.1490 C   0  0  0  0  0  3  0  0  0  0  0  0
  183.4930  178.9300  145.0930 C   0  0  0  0  0  3  0  0  0  0  0  0
  181.9340  178.4020  140.5950 C   0  0  2  0  0  3  0  0  0  0  0  0
  184.1570  178.8130  142.3210 C   0  0  1  0  0  3  0  0  0  0  0  0
  180.8340  180.4180  139.8950 O   0  0  0  0  0  1  0  0  0  0  0  0
  182.9570  180.1130  139.0920 O   0  0  0  0  0  0  0  0  0  0  0  0
  181.8660  179.6970  139.8440 C   0  0  0  0  0  0  0  0  0  0  0  0
  189.0940  178.2480  141.4500 C   0  0  0  0  0  2  0  0  0  0  0  0
  188.0270  178.6220  140.4320 C   0  0  0  0  0  2  0  0  0  0  0  0
  188.1810  177.7940  139.1710 C   0  0  0  0  0  2  0  0  0  0  0  0
  189.0530  179.4130  137.5930 N   0  0  0  0  0  1  0  0  0  0  0  0
  189.4020  178.2630  138.4090 C   0  0  0  0  0  2  0  0  0  0  0  0
  1  8  1  1  0  0  0
  1  7  1  0  0  0  0
  4  7  2  0  0  0  0
  4  5  1  0  0  0  0
  5  2  2  0  0  0  0
  5  3  1  0  0  0  0
  6  4  1  0  0  0  0
  7  9  1  0  0  0  0
  9  3  1  0  0  0  0
 10  6  1  0  0  0  0
 10  1  1  0  0  0  0
 11 12  2  0  0  0  0
 12 13  1  0  0  0  0
 13 18  2  0  0  0  0
 14 19  1  0  0  0  0
 14 17  2  0  0  0  0
 15 18  1  0  0  0  0
 15  2  1  0  0  0  0
 16 15  2  0  0  0  0
 19 23  1  6  0  0  0
 19 11  1  0  0  0  0
 20 17  1  6  0  0  0
 20 12  1  0  0  0  0
 20 16  1  0  0  0  0
 22 23  2  0  0  0  0
 23 21  1  0  0  0  0
 24 10  1  0  0  0  0
 25 24  1  0  0  0  0
 26 25  1  0  0  0  0
 27 28  1  0  0  0  0
 28 26  1  0  0  0  0
M  END
>  <MODEL>
9

>  <REMARK>
 VINA RESULT:      -7.5      3.072      5.850
  Name = 
  6 active torsions:
  status: ('A' for Active; 'I' for Inactive)
    1  A    between atoms: N_3  and  C_13
    2  A    between atoms: C_6  and  C_23
    3  A    between atoms: C_20  and  C_23
    4  A    between atoms: C_20  and  C_26
    5  A    between atoms: C_22  and  CA_27
    6  A    between atoms: N_24  and  C_26
                            x       y       z     vdW  Elec       q    Type
                         _______ _______ _______ _____ _____    ______ ____

>  <TORSDO>
F 6

$$$$
