=
 OpenBabel11042411593D

 28 34  0  0  1  0  0  0  0  0999 V2000
  185.0020  178.1790  142.1160 C   0  0  2  0  0  0  0  0  0  0  0  0
  181.3110  179.0140  142.2450 O   0  0  0  0  0  0  0  0  0  0  0  0
  183.9090  178.6820  144.5550 C   0  0  0  0  0  3  0  0  0  0  0  0
  184.8870  178.3830  143.5880 N   0  0  0  0  0  0  0  0  0  0  0  0
  182.4910  178.8800  142.6640 C   0  0  0  0  0  0  0  0  0  0  0  0
  183.6580  178.8230  141.6520 C   0  0  2  0  0  3  0  0  0  0  0  0
  186.1100  178.6890  142.8280 C   0  0  2  0  0  0  0  0  0  0  0  0
  185.9570  179.0610  141.4500 N   0  0  0  0  0  2  0  0  0  0  0  0
  182.7230  178.8970  144.0900 N   0  0  0  0  0  0  0  0  0  0  0  0
  182.4440  177.1210  137.9340 N   0  0  0  0  0  0  0  0  0  0  0  0
  183.2300  178.2350  140.3380 C   0  0  0  0  0  0  0  0  0  0  0  0
  182.6380  178.4660  138.0110 C   0  0  0  0  0  3  0  0  0  0  0  0
  183.0350  179.0490  139.2150 C   0  0  0  0  0  3  0  0  0  0  0  0
  182.6290  176.3130  139.0130 C   0  0  0  0  0  3  0  0  0  0  0  0
  183.0260  176.8580  140.2360 C   0  0  0  0  0  3  0  0  0  0  0  0
  187.1240  177.5710  142.9790 C   0  0  0  0  0  2  0  0  0  0  0  0
  187.6890  177.0670  145.3870 C   0  0  1  0  0  3  0  0  0  0  0  0
  187.9370  177.5980  147.7970 C   0  0  0  0  0  2  0  0  0  0  0  0
  188.0710  177.8560  144.1420 C   0  0  1  0  0  3  0  0  0  0  0  0
  190.3490  177.0480  145.0720 C   0  0  0  0  0  3  0  0  0  0  0  0
  189.5920  177.5730  143.8420 C   0  0  1  0  0  3  0  0  0  0  0  0
  189.7970  177.1460  146.3040 C   0  0  0  0  0  3  0  0  0  0  0  0
  188.4910  177.8860  146.4190 C   0  0  1  0  0  0  0  0  0  0  0  0
  187.0070  177.6010  146.6030 C   0  0  1  0  0  3  0  0  0  0  0  0
  189.7840  175.4120  142.8220 O   0  0  0  0  0  0  0  0  0  0  0  0
  190.1100  177.2280  141.3950 N   0  0  0  0  0  2  0  0  0  0  0  0
  190.3300  176.4110  140.2790 N   0  0  0  0  0  1  0  0  0  0  0  0
  189.8350  176.6640  142.6760 C   0  0  0  0  0  0  0  0  0  0  0  0
  1  8  1  1  0  0  0
  1  7  1  0  0  0  0
  1  4  1  0  0  0  0
  2  5  2  0  0  0  0
  4  3  1  0  0  0  0
  5  9  1  0  0  0  0
  6 11  1  6  0  0  0
  6  1  1  0  0  0  0
  6  5  1  0  0  0  0
  7 16  1  1  0  0  0
  7  4  1  0  0  0  0
  8  7  1  0  0  0  0
  9  3  2  0  0  0  0
 10 12  2  0  0  0  0
 10 14  1  0  0  0  0
 12 13  1  0  0  0  0
 13 11  2  0  0  0  0
 14 15  2  0  0  0  0
 15 11  1  0  0  0  0
 16 19  1  0  0  0  0
 17 23  1  0  0  0  0
 17 24  1  0  0  0  0
 19 17  1  0  0  0  0
 20 22  2  0  0  0  0
 21 19  1  0  0  0  0
 21 20  1  0  0  0  0
 22 23  1  0  0  0  0
 23 24  1  0  0  0  0
 23 18  1  0  0  0  0
 24 18  1  0  0  0  0
 26 28  1  0  0  0  0
 27 26  1  0  0  0  0
 28 25  2  0  0  0  0
 28 21  1  0  0  0  0
M  END
>  <MODEL>
1

>  <REMARK>
 VINA RESULT:      -9.1      0.000      0.000
  Name = 
  4 active torsions:
  status: ('A' for Active; 'I' for Inactive)
    1  A    between atoms: C_6  and  C_15
    2  A    between atoms: C_12  and  C_27
    3  A    between atoms: C_13  and  C_19
    4  A    between atoms: C_15  and  C_22
                            x       y       z     vdW  Elec       q    Type
                         _______ _______ _______ _____ _____    ______ ____

>  <TORSDO>
F 4

$$$$
=
 OpenBabel11042411593D

 28 34  0  0  1  0  0  0  0  0999 V2000
  187.4880  178.0170  145.2790 C   0  0  2  0  0  0  0  0  0  0  0  0
  190.3110  177.2240  147.6740 O   0  0  0  0  0  0  0  0  0  0  0  0
  187.0250  178.3800  147.9340 C   0  0  0  0  0  3  0  0  0  0  0  0
  186.7770  178.3370  146.5490 N   0  0  0  0  0  0  0  0  0  0  0  0
  189.1420  177.5140  147.3060 C   0  0  0  0  0  0  0  0  0  0  0  0
  188.7110  177.2320  145.8470 C   0  0  2  0  0  3  0  0  0  0  0  0
  186.0940  177.8040  145.3600 C   0  0  2  0  0  0  0  0  0  0  0  0
  186.8590  176.9730  144.4730 N   0  0  0  0  0  2  0  0  0  0  0  0
  188.2060  177.9980  148.2940 N   0  0  0  0  0  0  0  0  0  0  0  0
  191.9980  177.5120  143.1430 N   0  0  0  0  0  0  0  0  0  0  0  0
  189.8690  177.3180  144.8960 C   0  0  0  0  0  0  0  0  0  0  0  0
  191.5510  176.2800  143.5120 C   0  0  0  0  0  3  0  0  0  0  0  0
  190.4770  176.1600  144.3960 C   0  0  0  0  0  3  0  0  0  0  0  0
  191.4200  178.6490  143.6170 C   0  0  0  0  0  3  0  0  0  0  0  0
  190.3430  178.5710  144.5030 C   0  0  0  0  0  3  0  0  0  0  0  0
  185.4050  178.9190  144.5960 C   0  0  0  0  0  2  0  0  0  0  0  0
  183.0720  179.2800  143.7030 C   0  0  1  0  0  3  0  0  0  0  0  0
  180.6530  178.7870  143.4680 C   0  0  0  0  0  2  0  0  0  0  0  0
  184.2860  178.3610  143.7210 C   0  0  1  0  0  3  0  0  0  0  0  0
  183.5480  178.3440  141.2390 C   0  0  0  0  0  3  0  0  0  0  0  0
  184.6940  178.0750  142.2260 C   0  0  1  0  0  3  0  0  0  0  0  0
  182.2810  178.4950  141.6910 C   0  0  0  0  0  3  0  0  0  0  0  0
  182.0400  178.2700  143.1610 C   0  0  1  0  0  0  0  0  0  0  0  0
  181.7860  179.0690  144.4310 C   0  0  1  0  0  3  0  0  0  0  0  0
  185.8790  180.0200  141.4750 O   0  0  0  0  0  0  0  0  0  0  0  0
  187.1620  178.0840  141.6930 N   0  0  0  0  0  2  0  0  0  0  0  0
  188.3390  178.7250  141.2860 N   0  0  0  0  0  1  0  0  0  0  0  0
  185.9280  178.7940  141.7720 C   0  0  0  0  0  0  0  0  0  0  0  0
  1  8  1  1  0  0  0
  1  7  1  0  0  0  0
  1  6  1  0  0  0  0
  1  4  1  0  0  0  0
  3  9  2  0  0  0  0
  4  3  1  0  0  0  0
  5  2  2  0  0  0  0
  5  9  1  0  0  0  0
  6 11  1  6  0  0  0
  6  5  1  0  0  0  0
  7 16  1  6  0  0  0
  7  4  1  0  0  0  0
  8  7  1  0  0  0  0
 10 12  2  0  0  0  0
 10 14  1  0  0  0  0
 12 13  1  0  0  0  0
 13 11  2  0  0  0  0
 14 15  2  0  0  0  0
 15 11  1  0  0  0  0
 17 19  1  0  0  0  0
 17 24  1  0  0  0  0
 18 24  1  0  0  0  0
 19 16  1  0  0  0  0
 20 22  2  0  0  0  0
 20 21  1  0  0  0  0
 21 19  1  0  0  0  0
 22 23  1  0  0  0  0
 23 18  1  0  0  0  0
 23 17  1  0  0  0  0
 23 24  1  0  0  0  0
 25 28  2  0  0  0  0
 26 28  1  0  0  0  0
 27 26  1  0  0  0  0
 28 21  1  0  0  0  0
M  END
>  <MODEL>
2

>  <REMARK>
 VINA RESULT:      -8.9      2.568      7.004
  Name = 
  4 active torsions:
  status: ('A' for Active; 'I' for Inactive)
    1  A    between atoms: C_6  and  C_15
    2  A    between atoms: C_12  and  C_27
    3  A    between atoms: C_13  and  C_19
    4  A    between atoms: C_15  and  C_22
                            x       y       z     vdW  Elec       q    Type
                         _______ _______ _______ _____ _____    ______ ____

>  <TORSDO>
F 4

$$$$
=
 OpenBabel11042411593D

 28 34  0  0  1  0  0  0  0  0999 V2000
  190.5060  177.0600  140.8440 C   0  0  2  0  0  0  0  0  0  0  0  0
  189.4860  177.9140  137.2990 O   0  0  0  0  0  0  0  0  0  0  0  0
  188.2530  178.5460  140.5050 C   0  0  0  0  0  3  0  0  0  0  0  0
  189.2900  177.8600  141.1660 N   0  0  0  0  0  0  0  0  0  0  0  0
  189.4710  177.9540  138.5570 C   0  0  0  0  0  0  0  0  0  0  0  0
  190.7060  177.4660  139.3500 C   0  0  2  0  0  3  0  0  0  0  0  0
  190.4710  177.8080  142.0420 C   0  0  2  0  0  0  0  0  0  0  0  0
  191.7450  177.5730  141.4230 N   0  0  0  0  0  2  0  0  0  0  0  0
  188.3370  178.5610  139.2160 N   0  0  0  0  0  0  0  0  0  0  0  0
  192.8540  174.4280  137.2670 N   0  0  0  0  0  0  0  0  0  0  0  0
  191.4520  176.3900  138.6170 C   0  0  0  0  0  0  0  0  0  0  0  0
  191.5140  174.2800  137.4490 C   0  0  0  0  0  3  0  0  0  0  0  0
  190.7870  175.2590  138.1280 C   0  0  0  0  0  3  0  0  0  0  0  0
  193.5190  175.5200  137.7330 C   0  0  0  0  0  3  0  0  0  0  0  0
  192.8280  176.5220  138.4170 C   0  0  0  0  0  3  0  0  0  0  0  0
  190.2400  176.8430  143.1890 C   0  0  0  0  0  2  0  0  0  0  0  0
  188.1080  176.8480  144.5420 C   0  0  1  0  0  3  0  0  0  0  0  0
  185.9390  177.7670  145.3150 C   0  0  0  0  0  2  0  0  0  0  0  0
  189.4560  177.5180  144.3120 C   0  0  1  0  0  3  0  0  0  0  0  0
  189.2480  177.4420  146.8920 C   0  0  0  0  0  3  0  0  0  0  0  0
  190.2040  177.5800  145.6970 C   0  0  1  0  0  3  0  0  0  0  0  0
  187.9130  177.5780  146.7140 C   0  0  0  0  0  3  0  0  0  0  0  0
  187.4350  177.9810  145.3440 C   0  0  1  0  0  0  0  0  0  0  0  0
  186.7750  177.3670  144.1180 C   0  0  1  0  0  3  0  0  0  0  0  0
  191.8120  176.0320  144.8210 O   0  0  0  0  0  0  0  0  0  0  0  0
  191.8620  176.3290  147.1340 N   0  0  0  0  0  2  0  0  0  0  0  0
  192.9220  175.4300  147.3050 N   0  0  0  0  0  1  0  0  0  0  0  0
  191.3300  176.6010  145.8390 C   0  0  0  0  0  0  0  0  0  0  0  0
  1  4  1  0  0  0  0
  1  8  1  6  0  0  0
  1  7  1  0  0  0  0
  2  5  2  0  0  0  0
  3  4  1  0  0  0  0
  4  7  1  0  0  0  0
  5  9  1  0  0  0  0
  5  6  1  0  0  0  0
  6 11  1  6  0  0  0
  6  1  1  0  0  0  0
  7 16  1  1  0  0  0
  8  7  1  0  0  0  0
  9  3  2  0  0  0  0
 10 12  2  0  0  0  0
 10 14  1  0  0  0  0
 12 13  1  0  0  0  0
 13 11  2  0  0  0  0
 14 15  2  0  0  0  0
 15 11  1  0  0  0  0
 16 19  1  0  0  0  0
 17 23  1  0  0  0  0
 18 23  1  0  0  0  0
 19 17  1  0  0  0  0
 19 21  1  0  0  0  0
 21 28  1  0  0  0  0
 21 20  1  0  0  0  0
 22 20  2  0  0  0  0
 23 22  1  0  0  0  0
 24 17  1  0  0  0  0
 24 18  1  0  0  0  0
 24 23  1  0  0  0  0
 25 28  2  0  0  0  0
 26 27  1  0  0  0  0
 28 26  1  0  0  0  0
M  END
>  <MODEL>
3

>  <REMARK>
 VINA RESULT:      -8.8      4.043      6.445
  Name = 
  4 active torsions:
  status: ('A' for Active; 'I' for Inactive)
    1  A    between atoms: C_6  and  C_15
    2  A    between atoms: C_12  and  C_27
    3  A    between atoms: C_13  and  C_19
    4  A    between atoms: C_15  and  C_22
                            x       y       z     vdW  Elec       q    Type
                         _______ _______ _______ _____ _____    ______ ____

>  <TORSDO>
F 4

$$$$
=
 OpenBabel11042411593D

 28 34  0  0  1  0  0  0  0  0999 V2000
  189.1470  177.2950  142.0410 C   0  0  2  0  0  0  0  0  0  0  0  0
  192.6420  177.5370  140.6020 O   0  0  0  0  0  0  0  0  0  0  0  0
  191.1600  177.9860  143.7340 C   0  0  0  0  0  3  0  0  0  0  0  0
  189.8620  177.6620  143.2960 N   0  0  0  0  0  0  0  0  0  0  0  0
  191.7450  177.5030  141.4860 C   0  0  0  0  0  0  0  0  0  0  0  0
  190.3630  176.8970  141.1460 C   0  0  2  0  0  3  0  0  0  0  0  0
  188.6670  176.8040  143.2740 C   0  0  2  0  0  0  0  0  0  0  0  0
  188.4340  176.0210  142.0930 N   0  0  0  0  0  2  0  0  0  0  0  0
  192.0770  177.9320  142.8250 N   0  0  0  0  0  0  0  0  0  0  0  0
  189.3650  177.4200  137.0330 N   0  0  0  0  0  0  0  0  0  0  0  0
  190.0180  177.0700  139.6960 C   0  0  0  0  0  0  0  0  0  0  0  0
  190.0030  176.2810  137.4160 C   0  0  0  0  0  3  0  0  0  0  0  0
  190.3420  176.0840  138.7560 C   0  0  0  0  0  3  0  0  0  0  0  0
  189.0410  178.3890  137.9310 C   0  0  0  0  0  3  0  0  0  0  0  0
  189.3620  178.2310  139.2810 C   0  0  0  0  0  3  0  0  0  0  0  0
  187.4320  177.6020  143.6470 C   0  0  0  0  0  2  0  0  0  0  0  0
  188.1460  178.2530  145.9800 C   0  0  1  0  0  3  0  0  0  0  0  0
  189.0390  177.8380  148.2550 C   0  0  0  0  0  2  0  0  0  0  0  0
  187.1400  177.4770  145.1400 C   0  0  1  0  0  3  0  0  0  0  0  0
  185.6770  178.5940  146.9620 C   0  0  0  0  0  3  0  0  0  0  0  0
  185.6960  177.9370  145.5730 C   0  0  1  0  0  3  0  0  0  0  0  0
  186.7420  178.4690  147.7880 C   0  0  0  0  0  3  0  0  0  0  0  0
  187.8670  177.5750  147.3370 C   0  0  1  0  0  0  0  0  0  0  0  0
  189.2750  177.6790  146.7690 C   0  0  1  0  0  3  0  0  0  0  0  0
  185.1850  180.0780  144.6230 O   0  0  0  0  0  0  0  0  0  0  0  0
  184.1620  178.2530  143.5930 N   0  0  0  0  0  2  0  0  0  0  0  0
  183.5120  179.0540  142.6450 N   0  0  0  0  0  1  0  0  0  0  0  0
  185.0080  178.8300  144.5860 C   0  0  0  0  0  0  0  0  0  0  0  0
  1  8  1  1  0  0  0
  1  7  1  0  0  0  0
  1  4  1  0  0  0  0
  2  5  2  0  0  0  0
  4  3  1  0  0  0  0
  5  9  1  0  0  0  0
  6 11  1  6  0  0  0
  6  5  1  0  0  0  0
  6  1  1  0  0  0  0
  7  4  1  0  0  0  0
  7 16  1  1  0  0  0
  8  7  1  0  0  0  0
  9  3  2  0  0  0  0
 10 12  2  0  0  0  0
 10 14  1  0  0  0  0
 12 13  1  0  0  0  0
 13 11  2  0  0  0  0
 14 15  2  0  0  0  0
 15 11  1  0  0  0  0
 16 19  1  0  0  0  0
 17 24  1  0  0  0  0
 17 23  1  0  0  0  0
 19 21  1  0  0  0  0
 19 17  1  0  0  0  0
 20 22  2  0  0  0  0
 21 20  1  0  0  0  0
 23 22  1  0  0  0  0
 23 18  1  0  0  0  0
 24 23  1  0  0  0  0
 24 18  1  0  0  0  0
 26 28  1  0  0  0  0
 27 26  1  0  0  0  0
 28 25  2  0  0  0  0
 28 21  1  0  0  0  0
M  END
>  <MODEL>
4

>  <REMARK>
 VINA RESULT:      -8.5      3.251      6.101
  Name = 
  4 active torsions:
  status: ('A' for Active; 'I' for Inactive)
    1  A    between atoms: C_6  and  C_15
    2  A    between atoms: C_12  and  C_27
    3  A    between atoms: C_13  and  C_19
    4  A    between atoms: C_15  and  C_22
                            x       y       z     vdW  Elec       q    Type
                         _______ _______ _______ _____ _____    ______ ____

>  <TORSDO>
F 4

$$$$
=
 OpenBabel11042411593D

 28 34  0  0  1  0  0  0  0  0999 V2000
  188.0690  177.7760  140.0480 C   0  0  2  0  0  0  0  0  0  0  0  0
  185.3590  178.4560  137.4930 O   0  0  0  0  0  0  0  0  0  0  0  0
  185.7400  178.8580  140.9420 C   0  0  0  0  0  3  0  0  0  0  0  0
  187.0550  178.3560  140.9730 N   0  0  0  0  0  0  0  0  0  0  0  0
  185.9440  178.4880  138.6070 C   0  0  0  0  0  0  0  0  0  0  0  0
  187.4650  178.2150  138.6780 C   0  0  2  0  0  3  0  0  0  0  0  0
  188.5050  178.5030  141.1780 C   0  0  2  0  0  0  0  0  0  0  0  0
  189.3430  178.4900  140.0120 N   0  0  0  0  0  2  0  0  0  0  0  0
  185.1910  178.8910  139.7720 N   0  0  0  0  0  0  0  0  0  0  0  0
  188.7350  175.5420  135.6070 N   0  0  0  0  0  0  0  0  0  0  0  0
  187.9160  177.2840  137.5900 C   0  0  0  0  0  0  0  0  0  0  0  0
  189.0360  176.8640  135.4950 C   0  0  0  0  0  3  0  0  0  0  0  0
  188.6320  177.7610  136.4850 C   0  0  0  0  0  3  0  0  0  0  0  0
  188.0420  175.0580  136.6730 C   0  0  0  0  0  3  0  0  0  0  0  0
  187.6190  175.9230  137.6850 C   0  0  0  0  0  3  0  0  0  0  0  0
  188.9990  177.5090  142.2120 C   0  0  0  0  0  2  0  0  0  0  0  0
  187.6080  177.1700  144.2910 C   0  0  1  0  0  3  0  0  0  0  0  0
  185.8810  177.7760  145.9640 C   0  0  0  0  0  2  0  0  0  0  0  0
  188.6930  178.0040  143.6230 C   0  0  1  0  0  3  0  0  0  0  0  0
  189.5600  177.7060  146.0460 C   0  0  0  0  0  3  0  0  0  0  0  0
  189.9340  178.0430  144.5940 C   0  0  1  0  0  3  0  0  0  0  0  0
  188.2620  177.7030  146.4300 C   0  0  0  0  0  3  0  0  0  0  0  0
  187.2400  178.1540  145.4200 C   0  0  1  0  0  0  0  0  0  0  0  0
  186.1840  177.5650  144.4960 C   0  0  1  0  0  3  0  0  0  0  0  0
  192.0200  177.6800  143.4700 O   0  0  0  0  0  0  0  0  0  0  0  0
  191.1280  175.8180  144.5540 N   0  0  0  0  0  2  0  0  0  0  0  0
  192.1950  174.9920  144.1800 N   0  0  0  0  0  1  0  0  0  0  0  0
  191.0870  177.1890  144.1620 C   0  0  0  0  0  0  0  0  0  0  0  0
  1  8  1  6  0  0  0
  1  4  1  0  0  0  0
  1  7  1  0  0  0  0
  2  5  2  0  0  0  0
  3  4  1  0  0  0  0
  4  7  1  0  0  0  0
  5  6  1  0  0  0  0
  5  9  1  0  0  0  0
  6 11  1  6  0  0  0
  6  1  1  0  0  0  0
  7 16  1  1  0  0  0
  8  7  1  0  0  0  0
  9  3  2  0  0  0  0
 10 14  1  0  0  0  0
 11 15  1  0  0  0  0
 12 10  2  0  0  0  0
 12 13  1  0  0  0  0
 13 11  2  0  0  0  0
 14 15  2  0  0  0  0
 16 19  1  0  0  0  0
 17 24  1  0  0  0  0
 17 23  1  0  0  0  0
 19 17  1  0  0  0  0
 19 21  1  0  0  0  0
 20 22  2  0  0  0  0
 21 20  1  0  0  0  0
 23 18  1  0  0  0  0
 23 22  1  0  0  0  0
 24 23  1  0  0  0  0
 24 18  1  0  0  0  0
 25 28  2  0  0  0  0
 27 26  1  0  0  0  0
 28 26  1  0  0  0  0
 28 21  1  0  0  0  0
M  END
>  <MODEL>
5

>  <REMARK>
 VINA RESULT:      -8.0      3.550      4.178
  Name = 
  4 active torsions:
  status: ('A' for Active; 'I' for Inactive)
    1  A    between atoms: C_6  and  C_15
    2  A    between atoms: C_12  and  C_27
    3  A    between atoms: C_13  and  C_19
    4  A    between atoms: C_15  and  C_22
                            x       y       z     vdW  Elec       q    Type
                         _______ _______ _______ _____ _____    ______ ____

>  <TORSDO>
F 4

$$$$
=
 OpenBabel11042411593D

 28 34  0  0  1  0  0  0  0  0999 V2000
  187.3530  178.1260  143.4890 C   0  0  2  0  0  0  0  0  0  0  0  0
  184.6490  178.7210  146.0720 O   0  0  0  0  0  0  0  0  0  0  0  0
  185.0420  179.2850  142.6470 C   0  0  0  0  0  3  0  0  0  0  0  0
  186.3330  178.7280  142.5850 N   0  0  0  0  0  0  0  0  0  0  0  0
  185.1750  178.6520  144.9300 C   0  0  0  0  0  0  0  0  0  0  0  0
  186.4610  177.8160  144.7310 C   0  0  2  0  0  3  0  0  0  0  0  0
  187.2950  177.7070  142.1420 C   0  0  2  0  0  0  0  0  0  0  0  0
  187.7720  176.7750  143.1240 N   0  0  0  0  0  2  0  0  0  0  0  0
  184.4910  179.2680  143.8160 N   0  0  0  0  0  0  0  0  0  0  0  0
  188.8700  177.6920  148.2490 N   0  0  0  0  0  0  0  0  0  0  0  0
  187.3000  177.7780  145.9750 C   0  0  0  0  0  0  0  0  0  0  0  0
  187.5970  178.1650  148.3380 C   0  0  0  0  0  3  0  0  0  0  0  0
  186.7870  178.2170  147.2030 C   0  0  0  0  0  3  0  0  0  0  0  0
  189.3860  177.2600  147.0660 C   0  0  0  0  0  3  0  0  0  0  0  0
  188.6080  177.2950  145.9070 C   0  0  0  0  0  3  0  0  0  0  0  0
  188.4520  178.3510  141.4010 C   0  0  0  0  0  2  0  0  0  0  0  0
  189.1120  178.3870  138.9650 C   0  0  1  0  0  3  0  0  0  0  0  0
  188.8010  177.9460  136.5440 C   0  0  0  0  0  2  0  0  0  0  0  0
  188.8450  177.5160  140.1850 C   0  0  1  0  0  3  0  0  0  0  0  0
  190.9530  176.4470  139.1260 C   0  0  0  0  0  3  0  0  0  0  0  0
  190.1000  176.5880  140.3970 C   0  0  1  0  0  3  0  0  0  0  0  0
  190.4570  176.8360  137.9280 C   0  0  0  0  0  3  0  0  0  0  0  0
  189.0210  177.2870  137.8870 C   0  0  1  0  0  0  0  0  0  0  0  0
  188.2110  178.5720  137.7900 C   0  0  1  0  0  3  0  0  0  0  0  0
  191.8200  177.9090  141.4190 O   0  0  0  0  0  0  0  0  0  0  0  0
  190.8330  176.3060  142.7960 N   0  0  0  0  0  2  0  0  0  0  0  0
  191.6240  176.6550  143.8990 N   0  0  0  0  0  1  0  0  0  0  0  0
  190.9750  176.9810  141.5480 C   0  0  0  0  0  0  0  0  0  0  0  0
  1  8  1  6  0  0  0
  1  6  1  0  0  0  0
  3  9  2  0  0  0  0
  4  3  1  0  0  0  0
  4  1  1  0  0  0  0
  5  2  2  0  0  0  0
  6  5  1  0  0  0  0
  6 11  1  1  0  0  0
  7 16  1  6  0  0  0
  7  4  1  0  0  0  0
  7  8  1  0  0  0  0
  7  1  1  0  0  0  0
  9  5  1  0  0  0  0
 10 12  1  0  0  0  0
 11 13  1  0  0  0  0
 13 12  2  0  0  0  0
 14 10  2  0  0  0  0
 15 11  2  0  0  0  0
 15 14  1  0  0  0  0
 17 19  1  0  0  0  0
 18 24  1  0  0  0  0
 18 23  1  0  0  0  0
 19 21  1  0  0  0  0
 19 16  1  0  0  0  0
 20 21  1  0  0  0  0
 21 28  1  0  0  0  0
 22 20  2  0  0  0  0
 23 22  1  0  0  0  0
 23 17  1  0  0  0  0
 24 23  1  0  0  0  0
 24 17  1  0  0  0  0
 25 28  2  0  0  0  0
 26 27  1  0  0  0  0
 28 26  1  0  0  0  0
M  END
>  <MODEL>
6

>  <REMARK>
 VINA RESULT:      -7.9      3.153      6.469
  Name = 
  4 active torsions:
  status: ('A' for Active; 'I' for Inactive)
    1  A    between atoms: C_6  and  C_15
    2  A    between atoms: C_12  and  C_27
    3  A    between atoms: C_13  and  C_19
    4  A    between atoms: C_15  and  C_22
                            x       y       z     vdW  Elec       q    Type
                         _______ _______ _______ _____ _____    ______ ____

>  <TORSDO>
F 4

$$$$
=
 OpenBabel11042411593D

 28 34  0  0  1  0  0  0  0  0999 V2000
  190.5460  177.1450  140.1450 C   0  0  2  0  0  0  0  0  0  0  0  0
  192.8380  176.4180  137.2190 O   0  0  0  0  0  0  0  0  0  0  0  0
  193.2170  177.4950  140.5210 C   0  0  0  0  0  3  0  0  0  0  0  0
  191.8410  177.4480  140.8170 N   0  0  0  0  0  0  0  0  0  0  0  0
  192.5110  176.6800  138.4070 C   0  0  0  0  0  0  0  0  0  0  0  0
  191.0690  176.3890  138.8830 C   0  0  2  0  0  3  0  0  0  0  0  0
  190.6770  176.8990  141.5290 C   0  0  2  0  0  0  0  0  0  0  0  0
  189.7620  176.0870  140.7770 N   0  0  0  0  0  2  0  0  0  0  0  0
  193.5330  177.1410  139.3180 N   0  0  0  0  0  0  0  0  0  0  0  0
  188.2520  176.6800  135.6940 N   0  0  0  0  0  0  0  0  0  0  0  0
  190.0770  176.5040  137.7630 C   0  0  0  0  0  0  0  0  0  0  0  0
  188.7090  177.8220  136.2760 C   0  0  0  0  0  3  0  0  0  0  0  0
  189.6310  177.7560  137.3220 C   0  0  0  0  0  3  0  0  0  0  0  0
  188.6740  175.4540  136.1070 C   0  0  0  0  0  3  0  0  0  0  0  0
  189.5960  175.3450  137.1500 C   0  0  0  0  0  3  0  0  0  0  0  0
  189.9400  177.9980  142.2720 C   0  0  0  0  0  2  0  0  0  0  0  0
  189.2940  178.1170  144.7090 C   0  0  1  0  0  3  0  0  0  0  0  0
  189.1580  177.2880  147.0420 C   0  0  0  0  0  2  0  0  0  0  0  0
  189.0690  177.4100  143.3790 C   0  0  1  0  0  3  0  0  0  0  0  0
  186.6800  177.6560  144.3460 C   0  0  0  0  0  3  0  0  0  0  0  0
  187.5220  177.4250  143.0820 C   0  0  1  0  0  3  0  0  0  0  0  0
  187.2430  177.5330  145.5710 C   0  0  0  0  0  3  0  0  0  0  0  0
  188.6690  177.0510  145.6310 C   0  0  1  0  0  0  0  0  0  0  0  0
  190.0690  177.5960  145.8730 C   0  0  1  0  0  3  0  0  0  0  0  0
  187.9710  179.0210  141.3510 O   0  0  0  0  0  0  0  0  0  0  0  0
  185.7160  178.5820  141.7500 N   0  0  0  0  0  2  0  0  0  0  0  0
  185.2870  179.4670  140.7530 N   0  0  0  0  0  1  0  0  0  0  0  0
  187.1040  178.3920  142.0160 C   0  0  0  0  0  0  0  0  0  0  0  0
  1  8  1  1  0  0  0
  1  4  1  0  0  0  0
  1  7  1  0  0  0  0
  2  5  2  0  0  0  0
  3  4  1  0  0  0  0
  4  7  1  0  0  0  0
  5  6  1  0  0  0  0
  5  9  1  0  0  0  0
  6 11  1  6  0  0  0
  6  1  1  0  0  0  0
  7 16  1  1  0  0  0
  8  7  1  0  0  0  0
  9  3  2  0  0  0  0
 10 14  2  0  0  0  0
 10 12  1  0  0  0  0
 12 13  2  0  0  0  0
 13 11  1  0  0  0  0
 14 15  1  0  0  0  0
 15 11  2  0  0  0  0
 16 19  1  0  0  0  0
 17 23  1  0  0  0  0
 17 24  1  0  0  0  0
 19 17  1  0  0  0  0
 20 22  2  0  0  0  0
 21 19  1  0  0  0  0
 21 20  1  0  0  0  0
 22 23  1  0  0  0  0
 23 24  1  0  0  0  0
 23 18  1  0  0  0  0
 24 18  1  0  0  0  0
 25 28  2  0  0  0  0
 26 28  1  0  0  0  0
 27 26  1  0  0  0  0
 28 21  1  0  0  0  0
M  END
>  <MODEL>
7

>  <REMARK>
 VINA RESULT:      -7.8      3.551      6.467
  Name = 
  4 active torsions:
  status: ('A' for Active; 'I' for Inactive)
    1  A    between atoms: C_6  and  C_15
    2  A    between atoms: C_12  and  C_27
    3  A    between atoms: C_13  and  C_19
    4  A    between atoms: C_15  and  C_22
                            x       y       z     vdW  Elec       q    Type
                         _______ _______ _______ _____ _____    ______ ____

>  <TORSDO>
F 4

$$$$
=
 OpenBabel11042411593D

 28 34  0  0  1  0  0  0  0  0999 V2000
  187.5000  177.9960  143.9540 C   0  0  2  0  0  0  0  0  0  0  0  0
  187.1340  178.0180  147.7230 O   0  0  0  0  0  0  0  0  0  0  0  0
  185.2200  179.0550  144.9910 C   0  0  0  0  0  3  0  0  0  0  0  0
  186.1490  178.6220  144.0270 N   0  0  0  0  0  0  0  0  0  0  0  0
  186.7900  178.1430  146.5180 C   0  0  0  0  0  0  0  0  0  0  0  0
  187.6220  177.4520  145.4120 C   0  0  2  0  0  3  0  0  0  0  0  0
  186.5720  177.7520  142.9180 C   0  0  2  0  0  0  0  0  0  0  0  0
  187.5540  176.7440  143.2040 N   0  0  0  0  0  2  0  0  0  0  0  0
  185.5600  178.8400  146.2190 N   0  0  0  0  0  0  0  0  0  0  0  0
  191.7370  177.1000  146.4770 N   0  0  0  0  0  0  0  0  0  0  0  0
  189.0670  177.3240  145.7980 C   0  0  0  0  0  0  0  0  0  0  0  0
  190.7910  176.6530  147.3470 C   0  0  0  0  0  3  0  0  0  0  0  0
  189.4370  176.7560  147.0240 C   0  0  0  0  0  3  0  0  0  0  0  0
  191.3980  177.6540  145.2810 C   0  0  0  0  0  3  0  0  0  0  0  0
  190.0540  177.7750  144.9200 C   0  0  0  0  0  3  0  0  0  0  0  0
  186.9840  178.5830  141.7170 C   0  0  0  0  0  2  0  0  0  0  0  0
  185.4150  179.1850  139.8320 C   0  0  1  0  0  3  0  0  0  0  0  0
  183.3040  179.0590  138.5370 C   0  0  0  0  0  2  0  0  0  0  0  0
  186.2760  178.0940  140.4560 C   0  0  1  0  0  3  0  0  0  0  0  0
  186.7230  177.8440  137.9170 C   0  0  0  0  0  3  0  0  0  0  0  0
  187.2320  177.5370  139.3340 C   0  0  1  0  0  3  0  0  0  0  0  0
  185.4480  178.2590  137.7280 C   0  0  0  0  0  3  0  0  0  0  0  0
  184.5430  178.2870  138.9310 C   0  0  1  0  0  0  0  0  0  0  0  0
  183.9280  179.2890  139.8970 C   0  0  1  0  0  3  0  0  0  0  0  0
  189.0290  179.0860  138.9880 O   0  0  0  0  0  0  0  0  0  0  0  0
  189.5920  177.1350  140.1350 N   0  0  0  0  0  2  0  0  0  0  0  0
  190.9310  177.5180  140.2850 N   0  0  0  0  0  1  0  0  0  0  0  0
  188.6590  177.9770  139.4610 C   0  0  0  0  0  0  0  0  0  0  0  0
  1  8  1  1  0  0  0
  1  4  1  0  0  0  0
  1  6  1  0  0  0  0
  3  9  2  0  0  0  0
  4  3  1  0  0  0  0
  5  2  2  0  0  0  0
  6 11  1  1  0  0  0
  6  5  1  0  0  0  0
  7 16  1  6  0  0  0
  7  8  1  0  0  0  0
  7  1  1  0  0  0  0
  7  4  1  0  0  0  0
  9  5  1  0  0  0  0
 10 12  1  0  0  0  0
 11 13  1  0  0  0  0
 13 12  2  0  0  0  0
 14 10  2  0  0  0  0
 15 14  1  0  0  0  0
 15 11  2  0  0  0  0
 17 24  1  0  0  0  0
 17 19  1  0  0  0  0
 18 23  1  0  0  0  0
 18 24  1  0  0  0  0
 19 16  1  0  0  0  0
 20 21  1  0  0  0  0
 21 28  1  0  0  0  0
 21 19  1  0  0  0  0
 22 20  2  0  0  0  0
 22 23  1  0  0  0  0
 23 17  1  0  0  0  0
 23 24  1  0  0  0  0
 25 28  2  0  0  0  0
 26 27  1  0  0  0  0
 28 26  1  0  0  0  0
M  END
>  <MODEL>
8

>  <REMARK>
 VINA RESULT:      -7.4      2.814      7.010
  Name = 
  4 active torsions:
  status: ('A' for Active; 'I' for Inactive)
    1  A    between atoms: C_6  and  C_15
    2  A    between atoms: C_12  and  C_27
    3  A    between atoms: C_13  and  C_19
    4  A    between atoms: C_15  and  C_22
                            x       y       z     vdW  Elec       q    Type
                         _______ _______ _______ _____ _____    ______ ____

>  <TORSDO>
F 4

$$$$
=
 OpenBabel11042411593D

 28 34  0  0  1  0  0  0  0  0999 V2000
  186.8640  178.0350  140.3220 C   0  0  2  0  0  0  0  0  0  0  0  0
  183.8800  179.2520  138.3330 O   0  0  0  0  0  0  0  0  0  0  0  0
  184.7350  179.0020  141.7110 C   0  0  0  0  0  3  0  0  0  0  0  0
  186.0130  178.4650  141.4680 N   0  0  0  0  0  0  0  0  0  0  0  0
  184.6090  179.0620  139.3430 C   0  0  0  0  0  0  0  0  0  0  0  0
  186.1080  178.7360  139.1500 C   0  0  2  0  0  3  0  0  0  0  0  0
  187.4830  178.5290  141.4900 C   0  0  2  0  0  0  0  0  0  0  0  0
  188.1580  178.7060  140.2360 N   0  0  0  0  0  2  0  0  0  0  0  0
  184.0390  179.2660  140.6550 N   0  0  0  0  0  0  0  0  0  0  0  0
  186.8410  176.6940  135.4780 N   0  0  0  0  0  0  0  0  0  0  0  0
  186.3600  178.0080  137.8620 C   0  0  0  0  0  0  0  0  0  0  0  0
  186.0550  176.1000  136.4160 C   0  0  0  0  0  3  0  0  0  0  0  0
  185.7980  176.7460  137.6270 C   0  0  0  0  0  3  0  0  0  0  0  0
  187.3950  177.9190  135.6860 C   0  0  0  0  0  3  0  0  0  0  0  0
  187.1630  178.5990  136.8840 C   0  0  0  0  0  3  0  0  0  0  0  0
  188.0560  177.3480  142.2520 C   0  0  0  0  0  2  0  0  0  0  0  0
  188.7170  176.9240  144.6510 C   0  0  1  0  0  3  0  0  0  0  0  0
  188.8080  177.4200  147.0790 C   0  0  0  0  0  2  0  0  0  0  0  0
  188.8920  177.8250  143.4360 C   0  0  1  0  0  3  0  0  0  0  0  0
  191.2960  177.5910  144.3720 C   0  0  0  0  0  3  0  0  0  0  0  0
  190.4370  177.9480  143.1490 C   0  0  1  0  0  3  0  0  0  0  0  0
  190.7300  177.5050  145.5990 C   0  0  0  0  0  3  0  0  0  0  0  0
  189.2780  177.8850  145.7190 C   0  0  1  0  0  0  0  0  0  0  0  0
  187.9140  177.2260  145.8730 C   0  0  1  0  0  3  0  0  0  0  0  0
  190.5920  175.9570  141.8220 O   0  0  0  0  0  0  0  0  0  0  0  0
  191.7110  177.8180  140.9730 N   0  0  0  0  0  2  0  0  0  0  0  0
  192.1610  177.1280  139.8400 N   0  0  0  0  0  1  0  0  0  0  0  0
  190.9100  177.1700  141.9590 C   0  0  0  0  0  0  0  0  0  0  0  0
  1  8  1  1  0  0  0
  1  4  1  0  0  0  0
  1  7  1  0  0  0  0
  2  5  2  0  0  0  0
  4  7  1  0  0  0  0
  4  3  1  0  0  0  0
  5  9  1  0  0  0  0
  6 11  1  6  0  0  0
  6  5  1  0  0  0  0
  6  1  1  0  0  0  0
  7 16  1  1  0  0  0
  8  7  1  0  0  0  0
  9  3  2  0  0  0  0
 10 14  2  0  0  0  0
 10 12  1  0  0  0  0
 12 13  2  0  0  0  0
 13 11  1  0  0  0  0
 14 15  1  0  0  0  0
 15 11  2  0  0  0  0
 16 19  1  0  0  0  0
 17 23  1  0  0  0  0
 17 24  1  0  0  0  0
 19 17  1  0  0  0  0
 20 22  2  0  0  0  0
 21 19  1  0  0  0  0
 21 20  1  0  0  0  0
 22 23  1  0  0  0  0
 23 24  1  0  0  0  0
 23 18  1  0  0  0  0
 24 18  1  0  0  0  0
 25 28  2  0  0  0  0
 26 28  1  0  0  0  0
 27 26  1  0  0  0  0
 28 21  1  0  0  0  0
M  END
>  <MODEL>
9

>  <REMARK>
 VINA RESULT:      -7.2      2.652      3.066
  Name = 
  4 active torsions:
  status: ('A' for Active; 'I' for Inactive)
    1  A    between atoms: C_6  and  C_15
    2  A    between atoms: C_12  and  C_27
    3  A    between atoms: C_13  and  C_19
    4  A    between atoms: C_15  and  C_22
                            x       y       z     vdW  Elec       q    Type
                         _______ _______ _______ _____ _____    ______ ____

>  <TORSDO>
F 4

$$$$
