=
 OpenBabel11042411583D

 37 39  0  0  1  0  0  0  0  0999 V2000
  184.7240  178.5730  145.0600 N   0  0  0  0  0  0  0  0  0  0  0  0
  185.6730  178.8380  146.1430 C   0  0  0  0  0  0  0  0  0  0  0  0
  185.8090  180.0490  146.5950 O   0  0  0  0  0  0  0  0  0  0  0  0
  187.8870  177.1060  143.4190 C   0  0  0  0  0  3  0  0  0  0  0  0
  187.0860  178.0390  142.7610 C   0  0  0  0  0  0  0  0  0  0  0  0
  186.1010  178.5830  143.3390 C   0  0  0  0  0  2  0  0  0  0  0  0
  189.0990  176.8150  141.4110 C   0  0  0  0  0  0  0  0  0  0  0  0
  190.2210  176.7780  138.1900 N   0  0  0  0  0  0  0  0  0  0  0  0
  188.9470  176.5100  142.7600 C   0  0  0  0  0  3  0  0  0  0  0  0
  189.1750  177.3070  137.1770 C   0  0  1  0  0  3  0  0  0  0  0  0
  190.0490  176.3440  140.6020 N   0  0  0  0  0  2  0  0  0  0  0  0
  188.5080  177.8250  139.3930 C   0  0  2  0  0  3  0  0  0  0  0  0
  188.2360  177.6070  140.7500 C   0  0  0  0  0  0  0  0  0  0  0  0
  187.4260  177.9630  137.9480 S   0  0  0  0  0  0  0  0  0  0  0  0
  189.6260  176.8780  139.3430 C   0  0  0  0  0  0  0  0  0  0  0  0
  187.3030  178.2860  141.4720 N   0  0  0  0  0  0  0  0  0  0  0  0
  184.9440  179.0000  143.7220 C   0  0  0  0  0  2  0  0  0  0  0  0
  189.7110  178.1440  135.8230 C   0  0  0  0  0  2  0  0  0  0  0  0
  189.6870  177.1350  134.6350 C   0  0  0  0  0  2  0  0  0  0  0  0
  188.8020  175.9710  135.0070 C   0  0  0  0  0  1  0  0  0  0  0  0
  183.3750  178.7240  145.3380 C   0  0  0  0  0  2  0  0  0  0  0  0
  182.8250  178.9660  143.9200 C   0  0  0  0  0  3  0  0  0  0  0  0
  181.3420  178.8080  143.7030 C   0  0  0  0  0  3  0  0  0  0  0  0
  180.8440  178.6230  142.2430 C   0  0  2  0  0  3  0  0  0  0  0  0
  182.1610  178.5840  141.3070 C   0  0  0  0  0  1  0  0  0  0  0  0
  179.5430  180.5630  143.2650 O   0  0  0  0  0  1  0  0  0  0  0  0
  179.9970  179.9560  142.2060 C   0  0  0  0  0  0  0  0  0  0  0  0
  179.3330  180.2130  140.9950 O   0  0  0  0  0  0  0  0  0  0  0  0
  186.7770  177.8580  146.5540 C   0  0  0  0  0  2  0  0  0  0  0  0
  187.2230  178.2110  148.0450 C   0  0  0  0  0  2  0  0  0  0  0  0
  191.8390  177.8460  144.0340 C   0  0  0  0  0  1  0  0  0  0  0  0
  189.4140  176.1750  147.4390 O   0  0  0  0  0  0  0  0  0  0  0  0
  188.7000  178.3560  147.9830 N   0  0  0  0  0  2  0  0  0  0  0  0
  191.4610  177.2890  145.4770 C   0  0  0  0  0  0  0  0  0  0  0  0
  190.1760  177.7920  145.9110 N   0  0  0  0  0  2  0  0  0  0  0  0
  189.5070  177.4030  147.1690 C   0  0  0  0  0  0  0  0  0  0  0  0
  192.1410  176.6180  146.3540 O   0  0  0  0  0  0  0  0  0  0  0  0
  1 21  1  0  0  0  0
  1  2  1  0  0  0  0
  2 29  1  0  0  0  0
  2  3  2  0  0  0  0
  5  6  1  0  0  0  0
  5  4  1  0  0  0  0
  6 17  1  0  0  0  0
  7  9  1  0  0  0  0
  8 15  2  0  0  0  0
  9  4  2  0  0  0  0
 10 18  1  1  0  0  0
 10 14  1  0  0  0  0
 10  8  1  0  0  0  0
 11  7  1  0  0  0  0
 12 14  1  6  0  0  0
 12 13  1  0  0  0  0
 13  7  2  0  0  0  0
 13 16  1  0  0  0  0
 15 12  1  0  0  0  0
 15 11  1  0  0  0  0
 16  5  2  0  0  0  0
 17  1  1  0  0  0  0
 19 20  1  0  0  0  0
 19 18  1  0  0  0  0
 22 21  1  0  0  0  0
 23 22  2  0  0  0  0
 24 25  1  6  0  0  0
 24 23  1  0  0  0  0
 27 24  1  0  0  0  0
 27 26  1  0  0  0  0
 28 27  2  0  0  0  0
 29 30  1  0  0  0  0
 31 34  1  0  0  0  0
 33 30  1  0  0  0  0
 34 35  1  0  0  0  0
 34 37  2  0  0  0  0
 35 36  1  0  0  0  0
 36 32  2  0  0  0  0
 36 33  1  0  0  0  0
M  END
>  <MODEL>
1

>  <REMARK>
 VINA RESULT:      -7.7      0.000      0.000
  Name = 
  11 active torsions:
  status: ('A' for Active; 'I' for Inactive)
    1  A    between atoms: C_4  and  N_7
    2  A    between atoms: C_4  and  C_30
    3  A    between atoms: N_7  and  C_37
    4  A    between atoms: C_8  and  C_18
    5  A    between atoms: N_9  and  C_17
    6  A    between atoms: C_11  and  C_16
    7  A    between atoms: C_11  and  C_19
    8  A    between atoms: C_14  and  C_30
    9  A    between atoms: C_14  and  C_32
   10  A    between atoms: C_17  and  C_18
   11  A    between atoms: C_27  and  C_32
                            x       y       z     vdW  Elec       q    Type
                         _______ _______ _______ _____ _____    ______ ____

>  <TORSDO>
F 11

$$$$
=
 OpenBabel11042411583D

 37 39  0  0  1  0  0  0  0  0999 V2000
  181.6050  178.6740  139.4690 N   0  0  0  0  0  0  0  0  0  0  0  0
  180.6310  177.6240  139.7740 C   0  0  0  0  0  0  0  0  0  0  0  0
  180.2950  177.3980  141.0090 O   0  0  0  0  0  0  0  0  0  0  0  0
  182.4340  178.9800  143.2200 C   0  0  0  0  0  3  0  0  0  0  0  0
  183.4350  178.8450  142.2570 C   0  0  0  0  0  0  0  0  0  0  0  0
  183.1600  178.8350  141.0230 C   0  0  0  0  0  2  0  0  0  0  0  0
  184.0860  178.7200  144.8900 C   0  0  0  0  0  0  0  0  0  0  0  0
  186.9150  178.0850  146.6860 N   0  0  0  0  0  0  0  0  0  0  0  0
  182.7570  178.9690  144.5650 C   0  0  0  0  0  3  0  0  0  0  0  0
  188.0170  177.3830  145.8540 C   0  0  1  0  0  3  0  0  0  0  0  0
  184.5950  178.6640  146.1210 N   0  0  0  0  0  2  0  0  0  0  0  0
  186.3170  178.2160  144.4280 C   0  0  2  0  0  3  0  0  0  0  0  0
  185.0180  178.4510  143.9580 C   0  0  0  0  0  0  0  0  0  0  0  0
  187.6010  177.0530  143.9040 S   0  0  0  0  0  0  0  0  0  0  0  0
  185.9370  178.2510  145.8440 C   0  0  0  0  0  0  0  0  0  0  0  0
  184.6860  178.6230  142.6480 N   0  0  0  0  0  0  0  0  0  0  0  0
  182.9870  178.5550  139.7770 C   0  0  0  0  0  2  0  0  0  0  0  0
  189.6270  177.7280  146.1870 C   0  0  0  0  0  2  0  0  0  0  0  0
  190.0940  176.6950  147.2560 C   0  0  0  0  0  2  0  0  0  0  0  0
  191.5510  176.3820  147.0230 C   0  0  0  0  0  1  0  0  0  0  0  0
  181.2280  179.9860  139.7070 C   0  0  0  0  0  2  0  0  0  0  0  0
  181.3050  180.5600  138.2800 C   0  0  0  0  0  2  0  0  0  0  0  0
  181.3450  182.0580  138.1230 C   0  0  0  0  0  2  0  0  0  0  0  0
  180.4220  182.6950  137.0480 C   0  0  2  0  0  3  0  0  0  0  0  0
  180.4790  181.7240  135.7570 C   0  0  0  0  0  1  0  0  0  0  0  0
  181.1310  184.8840  135.9480 O   0  0  0  0  0  0  0  0  0  0  0  0
  181.2310  184.0490  136.9430 C   0  0  0  0  0  0  0  0  0  0  0  0
  182.4120  184.1040  137.7000 O   0  0  0  0  0  1  0  0  0  0  0  0
  180.2340  176.5290  138.7770 C   0  0  0  0  0  2  0  0  0  0  0  0
  181.4130  176.3760  137.7140 C   0  0  0  0  0  2  0  0  0  0  0  0
  187.1800  174.4540  136.9560 C   0  0  0  0  0  1  0  0  0  0  0  0
  182.7330  173.7540  136.8800 O   0  0  0  0  0  0  0  0  0  0  0  0
  182.4400  175.5430  138.3900 N   0  0  0  0  0  2  0  0  0  0  0  0
  185.7500  173.8420  137.2970 C   0  0  0  0  0  0  0  0  0  0  0  0
  184.7420  174.8770  137.3660 N   0  0  0  0  0  2  0  0  0  0  0  0
  183.3030  174.6300  137.5870 C   0  0  0  0  0  0  0  0  0  0  0  0
  185.3770  172.6530  137.6580 O   0  0  0  0  0  0  0  0  0  0  0  0
  1 21  1  0  0  0  0
  1  2  1  0  0  0  0
  1 17  1  0  0  0  0
  2  3  2  0  0  0  0
  4  9  1  0  0  0  0
  5 16  1  0  0  0  0
  5  4  2  0  0  0  0
  6  5  1  0  0  0  0
  7 11  1  0  0  0  0
  9  7  2  0  0  0  0
 10 18  1  6  0  0  0
 10  8  1  0  0  0  0
 12 14  1  6  0  0  0
 12 15  1  0  0  0  0
 13 12  1  0  0  0  0
 13  7  1  0  0  0  0
 14 10  1  0  0  0  0
 15 11  1  0  0  0  0
 15  8  2  0  0  0  0
 16 13  2  0  0  0  0
 17  6  1  0  0  0  0
 18 19  1  0  0  0  0
 20 19  1  0  0  0  0
 22 21  1  0  0  0  0
 23 22  1  0  0  0  0
 24 25  1  6  0  0  0
 24 23  1  0  0  0  0
 26 27  2  0  0  0  0
 27 24  1  0  0  0  0
 27 28  1  0  0  0  0
 29  2  1  0  0  0  0
 30 33  1  0  0  0  0
 30 29  1  0  0  0  0
 31 34  1  0  0  0  0
 32 36  2  0  0  0  0
 34 35  1  0  0  0  0
 34 37  2  0  0  0  0
 35 36  1  0  0  0  0
 36 33  1  0  0  0  0
M  END
>  <MODEL>
2

>  <REMARK>
 VINA RESULT:      -7.6      4.383      8.443
  Name = 
  11 active torsions:
  status: ('A' for Active; 'I' for Inactive)
    1  A    between atoms: C_4  and  N_7
    2  A    between atoms: C_4  and  C_30
    3  A    between atoms: N_7  and  C_37
    4  A    between atoms: C_8  and  C_18
    5  A    between atoms: N_9  and  C_17
    6  A    between atoms: C_11  and  C_16
    7  A    between atoms: C_11  and  C_19
    8  A    between atoms: C_14  and  C_30
    9  A    between atoms: C_14  and  C_32
   10  A    between atoms: C_17  and  C_18
   11  A    between atoms: C_27  and  C_32
                            x       y       z     vdW  Elec       q    Type
                         _______ _______ _______ _____ _____    ______ ____

>  <TORSDO>
F 11

$$$$
=
 OpenBabel11042411583D

 37 39  0  0  1  0  0  0  0  0999 V2000
  189.0660  176.6790  136.8140 N   0  0  0  0  0  0  0  0  0  0  0  0
  189.3760  175.6570  135.8120 C   0  0  0  0  0  0  0  0  0  0  0  0
  188.4090  175.0780  135.1650 O   0  0  0  0  0  0  0  0  0  0  0  0
  191.3390  177.3270  139.8580 C   0  0  0  0  0  3  0  0  0  0  0  0
  190.0710  176.7610  139.9970 C   0  0  0  0  0  0  0  0  0  0  0  0
  189.3680  176.4690  138.9870 C   0  0  0  0  0  2  0  0  0  0  0  0
  191.4640  177.4860  142.2120 C   0  0  0  0  0  0  0  0  0  0  0  0
  190.8550  177.5780  145.5670 N   0  0  0  0  0  0  0  0  0  0  0  0
  192.0810  177.6550  140.9770 C   0  0  0  0  0  3  0  0  0  0  0  0
  189.3460  177.5110  145.9120 C   0  0  1  0  0  3  0  0  0  0  0  0
  192.0050  177.7470  143.4030 N   0  0  0  0  0  2  0  0  0  0  0  0
  189.6940  176.9510  143.6350 C   0  0  2  0  0  3  0  0  0  0  0  0
  190.1890  177.0730  142.3300 C   0  0  0  0  0  0  0  0  0  0  0  0
  188.0740  177.3170  144.3540 S   0  0  0  0  0  0  0  0  0  0  0  0
  190.8870  177.5210  144.2670 C   0  0  0  0  0  0  0  0  0  0  0  0
  189.5540  176.6200  141.2140 N   0  0  0  0  0  0  0  0  0  0  0  0
  188.4710  176.3720  138.0670 C   0  0  0  0  0  2  0  0  0  0  0  0
  188.8710  176.7250  147.3170 C   0  0  0  0  0  2  0  0  0  0  0  0
  188.4720  177.8330  148.3380 C   0  0  0  0  0  2  0  0  0  0  0  0
  187.1380  178.4090  147.9290 C   0  0  0  0  0  1  0  0  0  0  0  0
  188.5220  177.8720  136.3660 C   0  0  0  0  0  2  0  0  0  0  0  0
  187.0200  177.5590  136.4940 C   0  0  0  0  0  2  0  0  0  0  0  0
  186.1820  178.4640  137.3600 C   0  0  0  0  0  2  0  0  0  0  0  0
  185.0540  177.8100  138.2050 C   0  0  2  0  0  3  0  0  0  0  0  0
  183.7530  177.7230  137.2500 C   0  0  0  0  0  1  0  0  0  0  0  0
  184.4090  180.0690  139.1960 O   0  0  0  0  0  0  0  0  0  0  0  0
  185.0330  178.9320  139.3170 C   0  0  0  0  0  0  0  0  0  0  0  0
  186.0920  178.8860  140.2380 O   0  0  0  0  0  1  0  0  0  0  0  0
  190.7380  174.9640  135.7110 C   0  0  0  0  0  2  0  0  0  0  0  0
  191.8060  175.8500  136.4990 C   0  0  0  0  0  2  0  0  0  0  0  0
  196.7770  175.0010  139.9760 C   0  0  0  0  0  1  0  0  0  0  0  0
  194.0820  173.8190  136.5690 O   0  0  0  0  0  0  0  0  0  0  0  0
  192.3010  174.9770  137.5940 N   0  0  0  0  0  2  0  0  0  0  0  0
  195.7870  174.1410  139.0730 C   0  0  0  0  0  0  0  0  0  0  0  0
  194.7390  174.9660  138.5150 N   0  0  0  0  0  2  0  0  0  0  0  0
  193.7080  174.4850  137.5730 C   0  0  0  0  0  0  0  0  0  0  0  0
  195.6740  172.8620  138.8840 O   0  0  0  0  0  0  0  0  0  0  0  0
  1 17  1  0  0  0  0
  2  1  1  0  0  0  0
  3  2  2  0  0  0  0
  4  5  2  0  0  0  0
  4  9  1  0  0  0  0
  5 16  1  0  0  0  0
  6  5  1  0  0  0  0
  7 13  1  0  0  0  0
  7 11  1  0  0  0  0
  8 10  1  0  0  0  0
  9  7  2  0  0  0  0
 10 18  1  1  0  0  0
 11 15  1  0  0  0  0
 12 13  1  6  0  0  0
 12 15  1  0  0  0  0
 12 14  1  0  0  0  0
 14 10  1  0  0  0  0
 15  8  2  0  0  0  0
 16 13  2  0  0  0  0
 17  6  1  0  0  0  0
 18 19  1  0  0  0  0
 20 19  1  0  0  0  0
 21 22  1  0  0  0  0
 21  1  1  0  0  0  0
 22 23  1  0  0  0  0
 23 24  1  0  0  0  0
 24 25  1  6  0  0  0
 24 27  1  0  0  0  0
 26 27  2  0  0  0  0
 27 28  1  0  0  0  0
 29  2  1  0  0  0  0
 29 30  1  0  0  0  0
 30 33  1  0  0  0  0
 32 36  2  0  0  0  0
 34 31  1  0  0  0  0
 35 34  1  0  0  0  0
 36 33  1  0  0  0  0
 36 35  1  0  0  0  0
 37 34  2  0  0  0  0
M  END
>  <MODEL>
3

>  <REMARK>
 VINA RESULT:      -7.6      4.399      8.522
  Name = 
  11 active torsions:
  status: ('A' for Active; 'I' for Inactive)
    1  A    between atoms: C_4  and  N_7
    2  A    between atoms: C_4  and  C_30
    3  A    between atoms: N_7  and  C_37
    4  A    between atoms: C_8  and  C_18
    5  A    between atoms: N_9  and  C_17
    6  A    between atoms: C_11  and  C_16
    7  A    between atoms: C_11  and  C_19
    8  A    between atoms: C_14  and  C_30
    9  A    between atoms: C_14  and  C_32
   10  A    between atoms: C_17  and  C_18
   11  A    between atoms: C_27  and  C_32
                            x       y       z     vdW  Elec       q    Type
                         _______ _______ _______ _____ _____    ______ ____

>  <TORSDO>
F 11

$$$$
=
 OpenBabel11042411583D

 37 39  0  0  1  0  0  0  0  0999 V2000
  189.3570  177.9770  142.3710 N   0  0  0  0  0  0  0  0  0  0  0  0
  187.8940  177.9420  142.3510 C   0  0  0  0  0  0  0  0  0  0  0  0
  187.2580  177.1920  143.2010 O   0  0  0  0  0  0  0  0  0  0  0  0
  189.5670  177.5650  138.5450 C   0  0  0  0  0  3  0  0  0  0  0  0
  190.1720  176.6560  139.4140 C   0  0  0  0  0  0  0  0  0  0  0  0
  190.0230  176.7480  140.6670 C   0  0  0  0  0  2  0  0  0  0  0  0
  190.6480  176.4760  136.7470 C   0  0  0  0  0  0  0  0  0  0  0  0
  192.6460  174.5770  134.7380 N   0  0  0  0  0  0  0  0  0  0  0  0
  189.7600  177.4560  137.1800 C   0  0  0  0  0  3  0  0  0  0  0  0
  193.7940  173.8790  135.5100 C   0  0  1  0  0  3  0  0  0  0  0  0
  190.9720  176.2150  135.4800 N   0  0  0  0  0  2  0  0  0  0  0  0
  192.1970  174.7540  137.0280 C   0  0  2  0  0  3  0  0  0  0  0  0
  191.3340  175.6970  137.6030 C   0  0  0  0  0  0  0  0  0  0  0  0
  193.8390  174.1650  137.5100 S   0  0  0  0  0  0  0  0  0  0  0  0
  191.9990  175.2340  135.6570 C   0  0  0  0  0  0  0  0  0  0  0  0
  190.9980  175.7380  138.9220 N   0  0  0  0  0  0  0  0  0  0  0  0
  190.1590  176.8850  141.9400 C   0  0  0  0  0  2  0  0  0  0  0  0
  194.3090  172.3640  134.9990 C   0  0  0  0  0  2  0  0  0  0  0  0
  193.1190  171.3850  135.2330 C   0  0  0  0  0  2  0  0  0  0  0  0
  193.5810  170.2710  136.1390 C   0  0  0  0  0  1  0  0  0  0  0  0
  189.9700  178.5450  143.4760 C   0  0  0  0  0  2  0  0  0  0  0  0
  190.5290  177.2840  144.1620 C   0  0  0  0  0  2  0  0  0  0  0  0
  191.0730  177.4240  145.5610 C   0  0  0  0  0  2  0  0  0  0  0  0
  190.3450  176.6530  146.6960 C   0  0  2  0  0  3  0  0  0  0  0  0
  189.3670  177.7150  147.4220 C   0  0  0  0  0  1  0  0  0  0  0  0
  192.2520  177.0380  148.3450 O   0  0  0  0  0  1  0  0  0  0  0  0
  191.6620  176.2650  147.4780 C   0  0  0  0  0  0  0  0  0  0  0  0
  192.4530  175.2760  146.8700 O   0  0  0  0  0  0  0  0  0  0  0  0
  187.0550  178.4540  141.1740 C   0  0  0  0  0  2  0  0  0  0  0  0
  185.8230  179.2770  141.7650 C   0  0  0  0  0  2  0  0  0  0  0  0
  184.1340  176.5360  136.5540 C   0  0  0  0  0  1  0  0  0  0  0  0
  184.2850  180.1240  139.2690 O   0  0  0  0  0  0  0  0  0  0  0  0
  184.6210  178.6950  141.1160 N   0  0  0  0  0  2  0  0  0  0  0  0
  183.6560  177.7370  137.4840 C   0  0  0  0  0  0  0  0  0  0  0  0
  184.5040  177.8660  138.6480 N   0  0  0  0  0  2  0  0  0  0  0  0
  184.3740  178.9290  139.6650 C   0  0  0  0  0  0  0  0  0  0  0  0
  182.5970  178.4870  137.4590 O   0  0  0  0  0  0  0  0  0  0  0  0
  1 21  1  0  0  0  0
  2  1  1  0  0  0  0
  2  3  2  0  0  0  0
  4  5  1  0  0  0  0
  5  6  1  0  0  0  0
  6 17  1  0  0  0  0
  7  9  1  0  0  0  0
  7 13  2  0  0  0  0
  8 10  1  0  0  0  0
  8 15  2  0  0  0  0
  9  4  2  0  0  0  0
 10 18  1  1  0  0  0
 10 14  1  0  0  0  0
 11 15  1  0  0  0  0
 11  7  1  0  0  0  0
 12 15  1  6  0  0  0
 12 14  1  0  0  0  0
 12 13  1  0  0  0  0
 13 16  1  0  0  0  0
 16  5  2  0  0  0  0
 17  1  1  0  0  0  0
 18 19  1  0  0  0  0
 19 20  1  0  0  0  0
 21 22  1  0  0  0  0
 22 23  1  0  0  0  0
 23 24  1  0  0  0  0
 24 25  1  1  0  0  0
 24 27  1  0  0  0  0
 27 26  1  0  0  0  0
 28 27  2  0  0  0  0
 29 30  1  0  0  0  0
 29  2  1  0  0  0  0
 31 34  1  0  0  0  0
 32 36  2  0  0  0  0
 33 30  1  0  0  0  0
 34 35  1  0  0  0  0
 35 36  1  0  0  0  0
 36 33  1  0  0  0  0
 37 34  2  0  0  0  0
M  END
>  <MODEL>
4

>  <REMARK>
 VINA RESULT:      -7.5      3.591      8.201
  Name = 
  11 active torsions:
  status: ('A' for Active; 'I' for Inactive)
    1  A    between atoms: C_4  and  N_7
    2  A    between atoms: C_4  and  C_30
    3  A    between atoms: N_7  and  C_37
    4  A    between atoms: C_8  and  C_18
    5  A    between atoms: N_9  and  C_17
    6  A    between atoms: C_11  and  C_16
    7  A    between atoms: C_11  and  C_19
    8  A    between atoms: C_14  and  C_30
    9  A    between atoms: C_14  and  C_32
   10  A    between atoms: C_17  and  C_18
   11  A    between atoms: C_27  and  C_32
                            x       y       z     vdW  Elec       q    Type
                         _______ _______ _______ _____ _____    ______ ____

>  <TORSDO>
F 11

$$$$
=
 OpenBabel11042411583D

 37 39  0  0  1  0  0  0  0  0999 V2000
  186.3100  178.6010  143.4190 N   0  0  0  0  0  0  0  0  0  0  0  0
  185.4550  178.4200  144.5930 C   0  0  0  0  0  0  0  0  0  0  0  0
  184.2820  177.8780  144.4560 O   0  0  0  0  0  0  0  0  0  0  0  0
  183.4380  177.6260  141.0410 C   0  0  0  0  0  3  0  0  0  0  0  0
  184.1820  178.7910  140.8520 C   0  0  0  0  0  0  0  0  0  0  0  0
  185.1790  179.0590  141.5820 C   0  0  0  0  0  2  0  0  0  0  0  0
  181.9740  178.3530  139.3340 C   0  0  0  0  0  0  0  0  0  0  0  0
  180.2300  180.1050  136.9840 N   0  0  0  0  0  0  0  0  0  0  0  0
  182.3400  177.3650  140.2420 C   0  0  0  0  0  3  0  0  0  0  0  0
  180.5450  181.6210  136.9990 C   0  0  1  0  0  3  0  0  0  0  0  0
  180.9490  178.2950  138.4820 N   0  0  0  0  0  2  0  0  0  0  0  0
  182.1360  180.4370  138.2990 C   0  0  2  0  0  3  0  0  0  0  0  0
  182.6140  179.5340  139.2570 C   0  0  0  0  0  0  0  0  0  0  0  0
  181.9410  182.2370  138.3240 S   0  0  0  0  0  0  0  0  0  0  0  0
  180.9840  179.6130  137.9240 C   0  0  0  0  0  0  0  0  0  0  0  0
  183.7750  179.6830  139.9530 N   0  0  0  0  0  0  0  0  0  0  0  0
  186.0340  179.5600  142.4060 C   0  0  0  0  0  2  0  0  0  0  0  0
  180.5220  182.4680  135.5490 C   0  0  0  0  0  2  0  0  0  0  0  0
  179.7800  183.8100  135.8270 C   0  0  0  0  0  2  0  0  0  0  0  0
  180.8050  184.9040  135.9970 C   0  0  0  0  0  1  0  0  0  0  0  0
  186.8020  177.4620  142.8020 C   0  0  0  0  0  2  0  0  0  0  0  0
  188.0510  177.1980  143.6650 C   0  0  0  0  0  2  0  0  0  0  0  0
  189.1930  176.4400  143.0380 C   0  0  0  0  0  2  0  0  0  0  0  0
  190.6090  177.0750  143.1190 C   0  0  2  0  0  3  0  0  0  0  0  0
  190.4290  178.5160  143.8270 C   0  0  0  0  0  1  0  0  0  0  0  0
  190.1710  176.3780  140.7060 O   0  0  0  0  0  0  0  0  0  0  0  0
  190.8550  177.0870  141.5580 C   0  0  0  0  0  0  0  0  0  0  0  0
  192.1330  177.5030  141.1540 O   0  0  0  0  0  1  0  0  0  0  0  0
  185.6920  179.1390  145.9260 C   0  0  0  0  0  2  0  0  0  0  0  0
  186.4480  178.1320  146.9050 C   0  0  0  0  0  2  0  0  0  0  0  0
  192.0220  175.6370  146.4350 C   0  0  0  0  0  1  0  0  0  0  0  0
  188.7590  177.6120  148.8270 O   0  0  0  0  0  0  0  0  0  0  0  0
  187.8770  178.5290  146.8410 N   0  0  0  0  0  2  0  0  0  0  0  0
  191.2590  176.6970  147.3450 C   0  0  0  0  0  0  0  0  0  0  0  0
  189.8940  176.8800  146.9010 N   0  0  0  0  0  2  0  0  0  0  0  0
  188.9010  177.7370  147.5800 C   0  0  0  0  0  0  0  0  0  0  0  0
  191.6730  177.5020  148.2740 O   0  0  0  0  0  0  0  0  0  0  0  0
  1  2  1  0  0  0  0
  2 29  1  0  0  0  0
  3  2  2  0  0  0  0
  5  4  1  0  0  0  0
  5  6  1  0  0  0  0
  6 17  1  0  0  0  0
  7  9  1  0  0  0  0
  8 10  1  0  0  0  0
  8 15  2  0  0  0  0
  9  4  2  0  0  0  0
 10 18  1  6  0  0  0
 10 14  1  0  0  0  0
 11  7  1  0  0  0  0
 12 15  1  1  0  0  0
 12 14  1  0  0  0  0
 12 13  1  0  0  0  0
 13  7  2  0  0  0  0
 13 16  1  0  0  0  0
 15 11  1  0  0  0  0
 16  5  2  0  0  0  0
 17  1  1  0  0  0  0
 18 19  1  0  0  0  0
 19 20  1  0  0  0  0
 21  1  1  0  0  0  0
 21 22  1  0  0  0  0
 23 24  1  0  0  0  0
 23 22  1  0  0  0  0
 24 25  1  6  0  0  0
 26 27  2  0  0  0  0
 27 24  1  0  0  0  0
 28 27  1  0  0  0  0
 29 30  1  0  0  0  0
 31 34  1  0  0  0  0
 33 30  1  0  0  0  0
 33 36  1  0  0  0  0
 34 37  2  0  0  0  0
 35 34  1  0  0  0  0
 35 36  1  0  0  0  0
 36 32  2  0  0  0  0
M  END
>  <MODEL>
5

>  <REMARK>
 VINA RESULT:      -7.4      3.863      7.084
  Name = 
  11 active torsions:
  status: ('A' for Active; 'I' for Inactive)
    1  A    between atoms: C_4  and  N_7
    2  A    between atoms: C_4  and  C_30
    3  A    between atoms: N_7  and  C_37
    4  A    between atoms: C_8  and  C_18
    5  A    between atoms: N_9  and  C_17
    6  A    between atoms: C_11  and  C_16
    7  A    between atoms: C_11  and  C_19
    8  A    between atoms: C_14  and  C_30
    9  A    between atoms: C_14  and  C_32
   10  A    between atoms: C_17  and  C_18
   11  A    between atoms: C_27  and  C_32
                            x       y       z     vdW  Elec       q    Type
                         _______ _______ _______ _____ _____    ______ ____

>  <TORSDO>
F 11

$$$$
=
 OpenBabel11042411583D

 37 39  0  0  1  0  0  0  0  0999 V2000
  184.6300  177.8740  138.6140 N   0  0  0  0  0  0  0  0  0  0  0  0
  184.6550  179.0090  139.5380 C   0  0  0  0  0  0  0  0  0  0  0  0
  184.2770  180.1810  139.1260 O   0  0  0  0  0  0  0  0  0  0  0  0
  188.3190  177.5480  139.6810 C   0  0  0  0  0  3  0  0  0  0  0  0
  187.9470  177.6080  138.3370 C   0  0  0  0  0  0  0  0  0  0  0  0
  186.7450  177.8050  137.9970 C   0  0  0  0  0  2  0  0  0  0  0  0
  190.5220  177.0470  138.9890 C   0  0  0  0  0  0  0  0  0  0  0  0
  193.3480  176.1850  137.2850 N   0  0  0  0  0  0  0  0  0  0  0  0
  189.6360  177.3120  140.0280 C   0  0  0  0  0  3  0  0  0  0  0  0
  193.0600  175.6670  135.8540 C   0  0  1  0  0  3  0  0  0  0  0  0
  191.8250  176.7910  139.1140 N   0  0  0  0  0  2  0  0  0  0  0  0
  191.1230  176.6890  136.7630 C   0  0  2  0  0  3  0  0  0  0  0  0
  190.1250  176.9670  137.7060 C   0  0  0  0  0  0  0  0  0  0  0  0
  191.1250  175.6690  135.2680 S   0  0  0  0  0  0  0  0  0  0  0  0
  192.1720  176.4680  137.7640 C   0  0  0  0  0  0  0  0  0  0  0  0
  188.8560  177.3540  137.4000 N   0  0  0  0  0  0  0  0  0  0  0  0
  185.5440  177.7390  137.5340 C   0  0  0  0  0  2  0  0  0  0  0  0
  194.1690  175.9910  134.6360 C   0  0  0  0  0  2  0  0  0  0  0  0
  195.0780  177.1460  135.1540 C   0  0  0  0  0  2  0  0  0  0  0  0
  196.5190  176.7770  134.9060 C   0  0  0  0  0  1  0  0  0  0  0  0
  183.3910  177.4280  138.1810 C   0  0  0  0  0  2  0  0  0  0  0  0
  182.8780  176.7430  139.4620 C   0  0  0  0  0  2  0  0  0  0  0  0
  181.5240  176.0830  139.4150 C   0  0  0  0  0  2  0  0  0  0  0  0
  180.2890  176.9470  139.7900 C   0  0  2  0  0  3  0  0  0  0  0  0
  180.7860  178.0010  140.9090 C   0  0  0  0  0  1  0  0  0  0  0  0
  179.1010  175.5430  141.5570 O   0  0  0  0  0  1  0  0  0  0  0  0
  179.4150  175.7360  140.3070 C   0  0  0  0  0  0  0  0  0  0  0  0
  179.3860  174.6120  139.4660 O   0  0  0  0  0  0  0  0  0  0  0  0
  185.4260  178.9980  140.8630 C   0  0  0  0  0  2  0  0  0  0  0  0
  184.3680  178.8710  142.0510 C   0  0  0  0  0  2  0  0  0  0  0  0
  187.5240  177.7020  147.1690 C   0  0  0  0  0  1  0  0  0  0  0  0
  183.7180  178.8060  145.0310 O   0  0  0  0  0  0  0  0  0  0  0  0
  184.9880  179.5790  143.2000 N   0  0  0  0  0  2  0  0  0  0  0  0
  186.2420  178.5300  146.7170 C   0  0  0  0  0  0  0  0  0  0  0  0
  186.0240  178.4200  145.2910 N   0  0  0  0  0  2  0  0  0  0  0  0
  184.8760  179.0080  144.5720 C   0  0  0  0  0  0  0  0  0  0  0  0
  185.4830  179.3710  147.3500 O   0  0  0  0  0  0  0  0  0  0  0  0
  1  2  1  0  0  0  0
  2 29  1  0  0  0  0
  3  2  2  0  0  0  0
  4  9  1  0  0  0  0
  5  4  2  0  0  0  0
  6  5  1  0  0  0  0
  7 11  1  0  0  0  0
  7  9  2  0  0  0  0
  8 15  2  0  0  0  0
 10 18  1  6  0  0  0
 10  8  1  0  0  0  0
 12 14  1  1  0  0  0
 12 13  1  0  0  0  0
 12 15  1  0  0  0  0
 13  7  1  0  0  0  0
 14 10  1  0  0  0  0
 15 11  1  0  0  0  0
 16 13  2  0  0  0  0
 16  5  1  0  0  0  0
 17  6  1  0  0  0  0
 17  1  1  0  0  0  0
 18 19  1  0  0  0  0
 20 19  1  0  0  0  0
 21  1  1  0  0  0  0
 21 22  1  0  0  0  0
 23 22  1  0  0  0  0
 23 24  1  0  0  0  0
 24 27  1  0  0  0  0
 24 25  1  1  0  0  0
 27 26  1  0  0  0  0
 28 27  2  0  0  0  0
 29 30  1  0  0  0  0
 30 33  1  0  0  0  0
 33 36  1  0  0  0  0
 34 31  1  0  0  0  0
 34 37  2  0  0  0  0
 35 34  1  0  0  0  0
 36 32  2  0  0  0  0
 36 35  1  0  0  0  0
M  END
>  <MODEL>
6

>  <REMARK>
 VINA RESULT:      -7.4      3.219      5.260
  Name = 
  11 active torsions:
  status: ('A' for Active; 'I' for Inactive)
    1  A    between atoms: C_4  and  N_7
    2  A    between atoms: C_4  and  C_30
    3  A    between atoms: N_7  and  C_37
    4  A    between atoms: C_8  and  C_18
    5  A    between atoms: N_9  and  C_17
    6  A    between atoms: C_11  and  C_16
    7  A    between atoms: C_11  and  C_19
    8  A    between atoms: C_14  and  C_30
    9  A    between atoms: C_14  and  C_32
   10  A    between atoms: C_17  and  C_18
   11  A    between atoms: C_27  and  C_32
                            x       y       z     vdW  Elec       q    Type
                         _______ _______ _______ _____ _____    ______ ____

>  <TORSDO>
F 11

$$$$
=
 OpenBabel11042411583D

 37 39  0  0  1  0  0  0  0  0999 V2000
  181.2110  179.5160  139.7440 N   0  0  0  0  0  0  0  0  0  0  0  0
  180.9540  178.6040  138.6280 C   0  0  0  0  0  0  0  0  0  0  0  0
  179.8370  177.9410  138.5850 O   0  0  0  0  0  0  0  0  0  0  0  0
  184.9300  178.7870  140.4450 C   0  0  0  0  0  3  0  0  0  0  0  0
  183.9420  178.5390  141.3990 C   0  0  0  0  0  0  0  0  0  0  0  0
  182.7160  178.6960  141.1300 C   0  0  0  0  0  2  0  0  0  0  0  0
  186.5580  178.3110  142.0910 C   0  0  0  0  0  0  0  0  0  0  0  0
  188.2860  177.7020  144.9680 N   0  0  0  0  0  0  0  0  0  0  0  0
  186.2650  178.6270  140.7680 C   0  0  0  0  0  3  0  0  0  0  0  0
  187.4380  177.9270  146.2440 C   0  0  1  0  0  3  0  0  0  0  0  0
  187.7750  178.1200  142.6010 N   0  0  0  0  0  2  0  0  0  0  0  0
  186.0440  177.8910  144.3270 C   0  0  2  0  0  3  0  0  0  0  0  0
  185.6050  178.2120  143.0360 C   0  0  0  0  0  0  0  0  0  0  0  0
  185.5080  178.4560  145.9620 S   0  0  0  0  0  0  0  0  0  0  0  0
  187.4680  177.9680  143.9910 C   0  0  0  0  0  0  0  0  0  0  0  0
  184.3020  178.2280  142.6400 N   0  0  0  0  0  0  0  0  0  0  0  0
  181.4820  179.0600  141.0630 C   0  0  0  0  0  2  0  0  0  0  0  0
  187.7180  176.9550  147.5840 C   0  0  0  0  0  2  0  0  0  0  0  0
  188.2840  177.8840  148.7010 C   0  0  0  0  0  2  0  0  0  0  0  0
  189.6670  178.3330  148.3010 C   0  0  0  0  0  1  0  0  0  0  0  0
  180.4220  180.6510  139.8400 C   0  0  0  0  0  2  0  0  0  0  0  0
  181.0150  181.4990  138.6990 C   0  0  0  0  0  2  0  0  0  0  0  0
  180.2420  182.7110  138.2460 C   0  0  0  0  0  2  0  0  0  0  0  0
  180.1120  182.9520  136.7170 C   0  0  2  0  0  3  0  0  0  0  0  0
  180.7310  181.6480  135.9900 C   0  0  0  0  0  1  0  0  0  0  0  0
  182.1860  184.3410  137.2430 O   0  0  0  0  0  1  0  0  0  0  0  0
  181.0060  184.2550  136.6970 C   0  0  0  0  0  0  0  0  0  0  0  0
  180.3090  185.4590  136.5040 O   0  0  0  0  0  0  0  0  0  0  0  0
  182.0490  178.1040  137.6800 C   0  0  0  0  0  2  0  0  0  0  0  0
  182.1300  176.5160  137.8090 C   0  0  0  0  0  2  0  0  0  0  0  0
  187.9090  178.4020  137.0530 C   0  0  0  0  0  1  0  0  0  0  0  0
  184.6000  175.4220  136.3900 O   0  0  0  0  0  0  0  0  0  0  0  0
  183.5000  176.2370  138.3110 N   0  0  0  0  0  2  0  0  0  0  0  0
  187.0890  177.0380  137.0800 C   0  0  0  0  0  0  0  0  0  0  0  0
  185.6880  177.2740  137.3490 N   0  0  0  0  0  2  0  0  0  0  0  0
  184.6500  176.2240  137.3620 C   0  0  0  0  0  0  0  0  0  0  0  0
  187.4680  175.7970  137.0560 O   0  0  0  0  0  0  0  0  0  0  0  0
  1 21  1  0  0  0  0
  1 17  1  0  0  0  0
  2  1  1  0  0  0  0
  3  2  2  0  0  0  0
  4  9  2  0  0  0  0
  4  5  1  0  0  0  0
  5 16  2  0  0  0  0
  6  5  1  0  0  0  0
  7 11  1  0  0  0  0
  7 13  2  0  0  0  0
  8 10  1  0  0  0  0
  9  7  1  0  0  0  0
 10 18  1  6  0  0  0
 11 15  1  0  0  0  0
 12 13  1  6  0  0  0
 12 14  1  0  0  0  0
 14 10  1  0  0  0  0
 15 12  1  0  0  0  0
 15  8  2  0  0  0  0
 16 13  1  0  0  0  0
 17  6  1  0  0  0  0
 18 19  1  0  0  0  0
 20 19  1  0  0  0  0
 22 21  1  0  0  0  0
 23 22  1  0  0  0  0
 24 25  1  6  0  0  0
 24 23  1  0  0  0  0
 27 24  1  0  0  0  0
 27 26  1  0  0  0  0
 28 27  2  0  0  0  0
 29 30  1  0  0  0  0
 29  2  1  0  0  0  0
 30 33  1  0  0  0  0
 31 34  1  0  0  0  0
 32 36  2  0  0  0  0
 34 35  1  0  0  0  0
 35 36  1  0  0  0  0
 36 33  1  0  0  0  0
 37 34  2  0  0  0  0
M  END
>  <MODEL>
7

>  <REMARK>
 VINA RESULT:      -7.3      4.389      8.215
  Name = 
  11 active torsions:
  status: ('A' for Active; 'I' for Inactive)
    1  A    between atoms: C_4  and  N_7
    2  A    between atoms: C_4  and  C_30
    3  A    between atoms: N_7  and  C_37
    4  A    between atoms: C_8  and  C_18
    5  A    between atoms: N_9  and  C_17
    6  A    between atoms: C_11  and  C_16
    7  A    between atoms: C_11  and  C_19
    8  A    between atoms: C_14  and  C_30
    9  A    between atoms: C_14  and  C_32
   10  A    between atoms: C_17  and  C_18
   11  A    between atoms: C_27  and  C_32
                            x       y       z     vdW  Elec       q    Type
                         _______ _______ _______ _____ _____    ______ ____

>  <TORSDO>
F 11

$$$$
=
 OpenBabel11042411583D

 37 39  0  0  1  0  0  0  0  0999 V2000
  181.7320  177.4890  140.0730 N   0  0  0  0  0  0  0  0  0  0  0  0
  181.0630  178.6370  139.4590 C   0  0  0  0  0  0  0  0  0  0  0  0
  181.0710  178.7700  138.1670 O   0  0  0  0  0  0  0  0  0  0  0  0
  183.3380  178.5180  143.4210 C   0  0  0  0  0  3  0  0  0  0  0  0
  184.1110  178.1250  142.3280 C   0  0  0  0  0  0  0  0  0  0  0  0
  183.5820  177.8750  141.2070 C   0  0  0  0  0  2  0  0  0  0  0  0
  185.3010  178.5110  144.7380 C   0  0  0  0  0  0  0  0  0  0  0  0
  188.4350  178.0930  146.0170 N   0  0  0  0  0  0  0  0  0  0  0  0
  183.9370  178.7670  144.6430 C   0  0  0  0  0  3  0  0  0  0  0  0
  189.3260  177.1670  145.1510 C   0  0  1  0  0  3  0  0  0  0  0  0
  186.0580  178.6810  145.8230 N   0  0  0  0  0  2  0  0  0  0  0  0
  187.3760  177.7870  143.9530 C   0  0  2  0  0  3  0  0  0  0  0  0
  186.0110  177.9980  143.7160 C   0  0  0  0  0  0  0  0  0  0  0  0
  188.5020  176.4650  143.4440 S   0  0  0  0  0  0  0  0  0  0  0  0
  187.3040  178.1390  145.3750 C   0  0  0  0  0  0  0  0  0  0  0  0
  185.4130  177.9130  142.4960 N   0  0  0  0  0  0  0  0  0  0  0  0
  183.1460  177.3530  140.1130 C   0  0  0  0  0  2  0  0  0  0  0  0
  190.9740  177.4760  145.0680 C   0  0  0  0  0  2  0  0  0  0  0  0
  191.6790  176.3700  145.9100 C   0  0  0  0  0  2  0  0  0  0  0  0
  191.1240  176.4010  147.3120 C   0  0  0  0  0  1  0  0  0  0  0  0
  181.1900  176.2340  139.8450 C   0  0  0  0  0  2  0  0  0  0  0  0
  182.1900  175.6840  138.8100 C   0  0  0  0  0  2  0  0  0  0  0  0
  181.6340  174.9990  137.5880 C   0  0  0  0  0  2  0  0  0  0  0  0
  182.1710  173.5810  137.2510 C   0  0  2  0  0  3  0  0  0  0  0  0
  182.8550  173.6810  135.7910 C   0  0  0  0  0  1  0  0  0  0  0  0
  179.7970  173.2320  138.1160 O   0  0  0  0  0  1  0  0  0  0  0  0
  180.7610  172.8700  137.3170 C   0  0  0  0  0  0  0  0  0  0  0  0
  180.7320  171.5470  136.8480 O   0  0  0  0  0  0  0  0  0  0  0  0
  180.6490  179.8880  140.2430 C   0  0  0  0  0  2  0  0  0  0  0  0
  179.4130  180.5580  139.4890 C   0  0  0  0  0  2  0  0  0  0  0  0
  180.5100  184.7910  135.1990 C   0  0  0  0  0  1  0  0  0  0  0  0
  181.9060  181.9150  138.3690 O   0  0  0  0  0  0  0  0  0  0  0  0
  179.7690  181.9950  139.3630 N   0  0  0  0  0  2  0  0  0  0  0  0
  181.1830  184.2340  136.5300 C   0  0  0  0  0  0  0  0  0  0  0  0
  180.3720  183.2000  137.1320 N   0  0  0  0  0  2  0  0  0  0  0  0
  180.7540  182.4280  138.3320 C   0  0  0  0  0  0  0  0  0  0  0  0
  182.2080  184.6340  137.2190 O   0  0  0  0  0  0  0  0  0  0  0  0
  1 17  1  0  0  0  0
  2  1  1  0  0  0  0
  2 29  1  0  0  0  0
  3  2  2  0  0  0  0
  4  9  1  0  0  0  0
  5 16  1  0  0  0  0
  5  4  2  0  0  0  0
  6  5  1  0  0  0  0
  7 11  1  0  0  0  0
  9  7  2  0  0  0  0
 10 18  1  6  0  0  0
 10  8  1  0  0  0  0
 12 14  1  1  0  0  0
 12 15  1  0  0  0  0
 13 12  1  0  0  0  0
 13  7  1  0  0  0  0
 14 10  1  0  0  0  0
 15 11  1  0  0  0  0
 15  8  2  0  0  0  0
 16 13  2  0  0  0  0
 17  6  1  0  0  0  0
 18 19  1  0  0  0  0
 19 20  1  0  0  0  0
 21  1  1  0  0  0  0
 22 21  1  0  0  0  0
 23 22  1  0  0  0  0
 24 25  1  6  0  0  0
 24 27  1  0  0  0  0
 24 23  1  0  0  0  0
 27 26  1  0  0  0  0
 28 27  2  0  0  0  0
 30 29  1  0  0  0  0
 31 34  1  0  0  0  0
 33 30  1  0  0  0  0
 34 35  1  0  0  0  0
 34 37  2  0  0  0  0
 35 36  1  0  0  0  0
 36 32  2  0  0  0  0
 36 33  1  0  0  0  0
M  END
>  <MODEL>
8

>  <REMARK>
 VINA RESULT:      -7.2      5.013      9.237
  Name = 
  11 active torsions:
  status: ('A' for Active; 'I' for Inactive)
    1  A    between atoms: C_4  and  N_7
    2  A    between atoms: C_4  and  C_30
    3  A    between atoms: N_7  and  C_37
    4  A    between atoms: C_8  and  C_18
    5  A    between atoms: N_9  and  C_17
    6  A    between atoms: C_11  and  C_16
    7  A    between atoms: C_11  and  C_19
    8  A    between atoms: C_14  and  C_30
    9  A    between atoms: C_14  and  C_32
   10  A    between atoms: C_17  and  C_18
   11  A    between atoms: C_27  and  C_32
                            x       y       z     vdW  Elec       q    Type
                         _______ _______ _______ _____ _____    ______ ____

>  <TORSDO>
F 11

$$$$
=
 OpenBabel11042411583D

 37 39  0  0  1  0  0  0  0  0999 V2000
  189.7890  178.0650  142.1910 N   0  0  0  0  0  0  0  0  0  0  0  0
  188.3820  178.2030  141.8120 C   0  0  0  0  0  0  0  0  0  0  0  0
  187.4870  177.4530  142.3830 O   0  0  0  0  0  0  0  0  0  0  0  0
  189.9420  177.3510  138.4080 C   0  0  0  0  0  3  0  0  0  0  0  0
  190.5500  176.5070  139.3380 C   0  0  0  0  0  0  0  0  0  0  0  0
  190.4190  176.6980  140.5810 C   0  0  0  0  0  2  0  0  0  0  0  0
  190.9870  176.1120  136.6870 C   0  0  0  0  0  0  0  0  0  0  0  0
  192.9390  174.0390  134.8090 N   0  0  0  0  0  0  0  0  0  0  0  0
  190.1150  177.1320  137.0530 C   0  0  0  0  0  3  0  0  0  0  0  0
  194.0900  173.3910  135.6180 C   0  0  1  0  0  3  0  0  0  0  0  0
  191.2910  175.7480  135.4410 N   0  0  0  0  0  2  0  0  0  0  0  0
  192.5230  174.4010  137.0830 C   0  0  2  0  0  3  0  0  0  0  0  0
  191.6780  175.3950  137.5930 C   0  0  0  0  0  0  0  0  0  0  0  0
  194.1660  173.8340  137.5880 S   0  0  0  0  0  0  0  0  0  0  0  0
  192.3100  174.7730  135.6810 C   0  0  0  0  0  0  0  0  0  0  0  0
  191.3610  175.5440  138.9090 N   0  0  0  0  0  0  0  0  0  0  0  0
  190.5750  176.9350  141.8380 C   0  0  0  0  0  2  0  0  0  0  0  0
  194.5830  171.8360  135.2210 C   0  0  0  0  0  2  0  0  0  0  0  0
  193.5660  170.8610  135.8870 C   0  0  0  0  0  2  0  0  0  0  0  0
  192.4920  170.5230  134.8830 C   0  0  0  0  0  1  0  0  0  0  0  0
  190.1480  178.4480  143.4740 C   0  0  0  0  0  2  0  0  0  0  0  0
  190.0470  177.0970  144.2060 C   0  0  0  0  0  2  0  0  0  0  0  0
  189.0840  176.9900  145.3600 C   0  0  0  0  0  2  0  0  0  0  0  0
  189.5300  177.5810  146.7260 C   0  0  2  0  0  3  0  0  0  0  0  0
  190.7070  176.6240  147.2810 C   0  0  0  0  0  1  0  0  0  0  0  0
  186.9820  177.4860  146.7850 O   0  0  0  0  0  0  0  0  0  0  0  0
  188.1180  177.4290  147.4200 C   0  0  0  0  0  0  0  0  0  0  0  0
  188.0900  177.7140  148.7940 O   0  0  0  0  0  1  0  0  0  0  0  0
  187.9190  178.9200  140.5390 C   0  0  0  0  0  2  0  0  0  0  0  0
  186.4630  178.3850  140.1700 C   0  0  0  0  0  2  0  0  0  0  0  0
  183.6480  178.8820  145.5880 C   0  0  0  0  0  1  0  0  0  0  0  0
  183.6270  177.9120  141.1910 O   0  0  0  0  0  0  0  0  0  0  0  0
  185.5250  179.2800  140.8940 N   0  0  0  0  0  2  0  0  0  0  0  0
  183.2820  178.9380  144.0400 C   0  0  0  0  0  0  0  0  0  0  0  0
  184.4590  178.7700  143.2170 N   0  0  0  0  0  2  0  0  0  0  0  0
  184.4470  178.6960  141.7420 C   0  0  0  0  0  0  0  0  0  0  0  0
  182.1860  179.2460  143.4170 O   0  0  0  0  0  0  0  0  0  0  0  0
  1 21  1  0  0  0  0
  2  1  1  0  0  0  0
  2  3  2  0  0  0  0
  4  5  1  0  0  0  0
  5  6  1  0  0  0  0
  6 17  1  0  0  0  0
  7  9  1  0  0  0  0
  7 13  2  0  0  0  0
  8 10  1  0  0  0  0
  8 15  2  0  0  0  0
  9  4  2  0  0  0  0
 10 18  1  1  0  0  0
 10 14  1  0  0  0  0
 11 15  1  0  0  0  0
 11  7  1  0  0  0  0
 12 15  1  6  0  0  0
 12 14  1  0  0  0  0
 12 13  1  0  0  0  0
 13 16  1  0  0  0  0
 16  5  2  0  0  0  0
 17  1  1  0  0  0  0
 18 19  1  0  0  0  0
 20 19  1  0  0  0  0
 21 22  1  0  0  0  0
 22 23  1  0  0  0  0
 23 24  1  0  0  0  0
 24 25  1  1  0  0  0
 24 27  1  0  0  0  0
 26 27  2  0  0  0  0
 27 28  1  0  0  0  0
 29  2  1  0  0  0  0
 30 29  1  0  0  0  0
 30 33  1  0  0  0  0
 32 36  2  0  0  0  0
 33 36  1  0  0  0  0
 34 31  1  0  0  0  0
 35 34  1  0  0  0  0
 36 35  1  0  0  0  0
 37 34  2  0  0  0  0
M  END
>  <MODEL>
9

>  <REMARK>
 VINA RESULT:      -7.1      3.485      7.361
  Name = 
  11 active torsions:
  status: ('A' for Active; 'I' for Inactive)
    1  A    between atoms: C_4  and  N_7
    2  A    between atoms: C_4  and  C_30
    3  A    between atoms: N_7  and  C_37
    4  A    between atoms: C_8  and  C_18
    5  A    between atoms: N_9  and  C_17
    6  A    between atoms: C_11  and  C_16
    7  A    between atoms: C_11  and  C_19
    8  A    between atoms: C_14  and  C_30
    9  A    between atoms: C_14  and  C_32
   10  A    between atoms: C_17  and  C_18
   11  A    between atoms: C_27  and  C_32
                            x       y       z     vdW  Elec       q    Type
                         _______ _______ _______ _____ _____    ______ ____

>  <TORSDO>
F 11

$$$$
