=
 OpenBabel11042412393D

 43 47  0  0  1  0  0  0  0  0999 V2000
  185.0790  179.1060  143.8820 N   0  0  0  0  0  0  0  0  0  0  0  0
  182.9750  178.7260  145.0760 C   0  0  0  0  0  1  0  0  0  0  0  0
  183.6470  179.4490  143.9220 C   0  0  2  0  0  3  0  0  0  0  0  0
  185.3920  178.3730  142.6780 C   0  0  0  0  0  0  0  0  0  0  0  0
  183.8320  177.7350  140.6890 C   0  0  0  0  0  3  0  0  0  0  0  0
  180.5350  179.5010  142.2940 S   0  0  0  0  0  1  0  0  0  0  0  0
  184.2820  178.2530  141.9720 C   0  0  0  0  0  0  0  0  0  0  0  0
  182.5250  178.0610  140.6370 C   0  0  0  0  0  0  0  0  0  0  0  0
  183.2070  178.8600  142.6320 C   0  0  0  0  0  0  0  0  0  0  0  0
  182.1290  178.7890  141.8810 C   0  0  0  0  0  0  0  0  0  0  0  0
  190.4690  176.5010  141.1090 N   0  0  0  0  0  0  0  0  0  0  0  0
  187.3160  178.2760  141.0780 C   0  0  0  0  0  3  0  0  0  0  0  0
  188.7050  176.4940  142.7820 C   0  0  0  0  0  3  0  0  0  0  0  0
  187.4380  176.9840  143.1390 C   0  0  0  0  0  3  0  0  0  0  0  0
  190.7290  177.0700  139.9040 C   0  0  0  0  0  0  0  0  0  0  0  0
  186.7330  177.8730  142.2930 C   0  0  0  0  0  0  0  0  0  0  0  0
  189.4830  178.0850  139.3720 S   0  0  0  0  0  0  0  0  0  0  0  0
  188.5710  177.7780  140.7450 C   0  0  0  0  0  0  0  0  0  0  0  0
  189.2590  176.9040  141.5710 C   0  0  0  0  0  0  0  0  0  0  0  0
  192.0250  175.8870  138.2940 C   0  0  0  0  0  3  0  0  0  0  0  0
  191.9280  176.8410  139.1610 N   0  0  0  0  0  0  0  0  0  0  0  0
  193.8860  174.1650  135.7270 C   0  0  0  0  0  2  0  0  0  0  0  0
  193.2620  176.4460  136.2390 C   0  0  0  0  0  2  0  0  0  0  0  0
  193.2970  175.6740  137.5460 C   0  0  2  0  0  3  0  0  0  0  0  0
  193.3200  175.4260  135.1160 C   0  0  0  0  0  2  0  0  0  0  0  0
  193.4500  174.2060  137.1810 C   0  0  2  0  0  3  0  0  0  0  0  0
  195.4720  174.3980  138.7090 C   0  0  0  0  0  1  0  0  0  0  0  0
  194.4120  173.4740  138.1280 C   0  0  2  0  0  3  0  0  0  0  0  0
  195.0790  172.2980  137.4340 C   0  0  0  0  0  2  0  0  0  0  0  0
  196.5740  172.3080  137.6980 C   0  0  0  0  0  1  0  0  0  0  0  0
  181.6300  177.7440  139.4950 C   0  0  0  0  0  0  0  0  0  0  0  0
  181.9510  179.9050  138.3870 O   0  0  0  0  0  1  0  0  0  0  0  0
  181.0550  176.5890  139.4370 N   0  0  0  0  0  2  0  0  0  0  0  0
  181.3840  178.6760  138.4350 N   0  0  0  0  0  2  0  0  0  0  0  0
  185.9510  179.3750  144.8870 O   0  0  0  0  0  0  0  0  0  0  0  0
  185.9210  178.2460  145.7140 C   0  0  0  0  0  2  0  0  0  0  0  0
  185.9890  178.6680  147.1700 C   0  0  0  0  0  2  0  0  0  0  0  0
  187.3000  178.2210  147.7860 C   0  0  0  0  0  2  0  0  0  0  0  0
  190.0470  177.5960  148.1210 O   0  0  0  0  0  0  0  0  0  0  0  0
  189.5360  177.3820  146.9880 C   0  0  0  0  0  0  0  0  0  0  0  0
  191.7350  176.5240  146.1050 C   0  0  0  0  0  1  0  0  0  0  0  0
  188.1610  177.6780  146.7480 N   0  0  0  0  0  2  0  0  0  0  0  0
  190.3280  176.8400  145.9300 N   0  0  0  0  0  2  0  0  0  0  0  0
  1  3  1  0  0  0  0
  1 35  1  0  0  0  0
  3  2  1  1  0  0  0
  4  1  1  0  0  0  0
  5  7  1  0  0  0  0
  7  9  1  0  0  0  0
  7  4  2  0  0  0  0
  8  5  2  0  0  0  0
  8 10  1  0  0  0  0
  9  3  1  0  0  0  0
 10  6  1  0  0  0  0
 10  9  2  0  0  0  0
 11 19  1  0  0  0  0
 12 16  1  0  0  0  0
 13 14  1  0  0  0  0
 15 11  2  0  0  0  0
 16  4  1  0  0  0  0
 16 14  2  0  0  0  0
 17 15  1  0  0  0  0
 17 18  1  0  0  0  0
 18 12  2  0  0  0  0
 18 19  1  0  0  0  0
 19 13  2  0  0  0  0
 20 21  2  0  0  0  0
 21 15  1  0  0  0  0
 22 26  1  0  0  0  0
 23 24  1  0  0  0  0
 24 20  1  6  0  0  0
 25 22  1  0  0  0  0
 25 23  1  0  0  0  0
 26 24  1  0  0  0  0
 26 28  1  1  0  0  0
 28 27  1  6  0  0  0
 29 30  1  0  0  0  0
 29 28  1  0  0  0  0
 31  8  1  0  0  0  0
 32 34  1  0  0  0  0
 33 31  2  0  0  0  0
 34 31  1  0  0  0  0
 35 36  1  0  0  0  0
 36 37  1  0  0  0  0
 37 38  1  0  0  0  0
 40 39  2  0  0  0  0
 42 40  1  0  0  0  0
 42 38  1  0  0  0  0
 43 41  1  0  0  0  0
 43 40  1  0  0  0  0
M  END
>  <MODEL>
1

>  <REMARK>
 VINA RESULT:      -8.4      0.000      0.000
  Name = 
  11 active torsions:
  status: ('A' for Active; 'I' for Inactive)
    1  A    between atoms: N_3  and  O_19
    2  A    between atoms: C_4  and  C_26
    3  A    between atoms: C_8  and  C_31
    4  A    between atoms: C_11  and  C_27
    5  A    between atoms: O_19  and  C_36
    6  A    between atoms: C_21  and  C_30
    7  A    between atoms: C_23  and  N_43
    8  A    between atoms: N_24  and  C_41
    9  A    between atoms: C_26  and  C_29
   10  A    between atoms: C_33  and  C_36
   11  A    between atoms: C_33  and  C_41
                            x       y       z     vdW  Elec       q    Type
                         _______ _______ _______ _____ _____    ______ ____

>  <TORSDO>
F 11

$$$$
=
 OpenBabel11042412393D

 43 47  0  0  1  0  0  0  0  0999 V2000
  181.6170  178.2570  137.3440 N   0  0  0  0  0  0  0  0  0  0  0  0
  181.4230  178.8310  134.9710 C   0  0  0  0  0  1  0  0  0  0  0  0
  180.7480  178.8790  136.3310 C   0  0  2  0  0  3  0  0  0  0  0  0
  182.0510  179.2370  138.3120 C   0  0  0  0  0  0  0  0  0  0  0  0
  181.4240  181.7620  138.4890 C   0  0  0  0  0  3  0  0  0  0  0  0
  178.9900  181.7130  135.2280 S   0  0  0  0  0  1  0  0  0  0  0  0
  181.5100  180.3980  137.9880 C   0  0  0  0  0  0  0  0  0  0  0  0
  180.5950  182.3830  137.6260 C   0  0  0  0  0  0  0  0  0  0  0  0
  180.7260  180.2760  136.8340 C   0  0  0  0  0  0  0  0  0  0  0  0
  180.1430  181.4260  136.5710 C   0  0  0  0  0  0  0  0  0  0  0  0
  185.4580  178.2030  142.6780 N   0  0  0  0  0  0  0  0  0  0  0  0
  184.3190  178.8850  139.3120 C   0  0  0  0  0  3  0  0  0  0  0  0
  183.1850  178.5430  141.8820 C   0  0  0  0  0  3  0  0  0  0  0  0
  182.3690  178.8040  140.7690 C   0  0  0  0  0  3  0  0  0  0  0  0
  186.7200  178.1760  142.1780 C   0  0  0  0  0  0  0  0  0  0  0  0
  182.9240  178.9730  139.4780 C   0  0  0  0  0  0  0  0  0  0  0  0
  186.7740  178.4630  140.5110 S   0  0  0  0  0  0  0  0  0  0  0  0
  185.1070  178.6250  140.4280 C   0  0  0  0  0  0  0  0  0  0  0  0
  184.5620  178.4540  141.6900 C   0  0  0  0  0  0  0  0  0  0  0  0
  188.9760  178.6020  142.8070 C   0  0  0  0  0  3  0  0  0  0  0  0
  187.8810  177.9350  142.9730 N   0  0  0  0  0  0  0  0  0  0  0  0
  191.0290  176.2470  144.6120 C   0  0  0  0  0  2  0  0  0  0  0  0
  191.3060  177.8030  142.7800 C   0  0  0  0  0  2  0  0  0  0  0  0
  190.1710  178.3140  143.6510 C   0  0  2  0  0  3  0  0  0  0  0  0
  191.6000  176.3800  143.2200 C   0  0  0  0  0  2  0  0  0  0  0  0
  189.8560  177.2100  144.6470 C   0  0  2  0  0  3  0  0  0  0  0  0
  190.2360  176.9570  147.1470 C   0  0  0  0  0  1  0  0  0  0  0  0
  189.5620  177.7650  146.0480 C   0  0  2  0  0  3  0  0  0  0  0  0
  188.0670  177.8390  146.3080 C   0  0  0  0  0  2  0  0  0  0  0  0
  187.7630  177.4770  147.7510 C   0  0  0  0  0  1  0  0  0  0  0  0
  180.1930  183.8080  137.7340 C   0  0  0  0  0  0  0  0  0  0  0  0
  182.4700  184.6750  137.4850 O   0  0  0  0  0  1  0  0  0  0  0  0
  178.9470  184.1100  137.8880 N   0  0  0  0  0  2  0  0  0  0  0  0
  181.1440  184.8780  137.6640 N   0  0  0  0  0  2  0  0  0  0  0  0
  182.0130  176.9600  137.3080 O   0  0  0  0  0  0  0  0  0  0  0  0
  183.2870  176.9790  136.7270 C   0  0  0  0  0  2  0  0  0  0  0  0
  184.0310  175.7010  137.0680 C   0  0  0  0  0  2  0  0  0  0  0  0
  185.4470  175.7570  136.5290 C   0  0  0  0  0  2  0  0  0  0  0  0
  188.0250  176.6300  137.3280 O   0  0  0  0  0  0  0  0  0  0  0  0
  187.2160  177.5060  136.9190 C   0  0  0  0  0  0  0  0  0  0  0  0
  188.9260  179.3210  137.2770 C   0  0  0  0  0  1  0  0  0  0  0  0
  185.9000  177.1370  136.5070 N   0  0  0  0  0  2  0  0  0  0  0  0
  187.6050  178.8790  136.8650 N   0  0  0  0  0  2  0  0  0  0  0  0
  1  4  1  0  0  0  0
  3  2  1  6  0  0  0
  3  9  1  0  0  0  0
  3  1  1  0  0  0  0
  4 16  1  0  0  0  0
  6 10  1  0  0  0  0
  7  4  2  0  0  0  0
  7  5  1  0  0  0  0
  8 31  1  0  0  0  0
  8  5  2  0  0  0  0
  9  7  1  0  0  0  0
 10  9  2  0  0  0  0
 10  8  1  0  0  0  0
 12 16  2  0  0  0  0
 12 18  1  0  0  0  0
 14 13  2  0  0  0  0
 15 11  2  0  0  0  0
 15 21  1  0  0  0  0
 16 14  1  0  0  0  0
 17 15  1  0  0  0  0
 18 17  1  0  0  0  0
 18 19  2  0  0  0  0
 19 13  1  0  0  0  0
 19 11  1  0  0  0  0
 20 21  2  0  0  0  0
 22 26  1  0  0  0  0
 23 25  1  0  0  0  0
 23 24  1  0  0  0  0
 24 20  1  6  0  0  0
 24 26  1  0  0  0  0
 25 22  1  0  0  0  0
 26 28  1  1  0  0  0
 28 29  1  0  0  0  0
 28 27  1  1  0  0  0
 29 30  1  0  0  0  0
 31 33  2  0  0  0  0
 32 34  1  0  0  0  0
 34 31  1  0  0  0  0
 35  1  1  0  0  0  0
 36 37  1  0  0  0  0
 36 35  1  0  0  0  0
 38 37  1  0  0  0  0
 40 39  2  0  0  0  0
 42 38  1  0  0  0  0
 42 40  1  0  0  0  0
 43 40  1  0  0  0  0
 43 41  1  0  0  0  0
M  END
>  <MODEL>
2

>  <REMARK>
 VINA RESULT:      -8.2      4.413      8.047
  Name = 
  11 active torsions:
  status: ('A' for Active; 'I' for Inactive)
    1  A    between atoms: N_3  and  O_19
    2  A    between atoms: C_4  and  C_26
    3  A    between atoms: C_8  and  C_31
    4  A    between atoms: C_11  and  C_27
    5  A    between atoms: O_19  and  C_36
    6  A    between atoms: C_21  and  C_30
    7  A    between atoms: C_23  and  N_43
    8  A    between atoms: N_24  and  C_41
    9  A    between atoms: C_26  and  C_29
   10  A    between atoms: C_33  and  C_36
   11  A    between atoms: C_33  and  C_41
                            x       y       z     vdW  Elec       q    Type
                         _______ _______ _______ _____ _____    ______ ____

>  <TORSDO>
F 11

$$$$
=
 OpenBabel11042412393D

 43 47  0  0  1  0  0  0  0  0999 V2000
  190.3510  176.8770  142.5580 N   0  0  0  0  0  0  0  0  0  0  0  0
  191.3710  175.0520  143.8350 C   0  0  0  0  0  1  0  0  0  0  0  0
  191.1590  176.5540  143.7470 C   0  0  2  0  0  3  0  0  0  0  0  0
  189.0770  177.4320  142.9470 C   0  0  1  0  0  3  0  0  0  0  0  0
  188.1750  177.9690  145.3340 C   0  0  0  0  0  3  0  0  0  0  0  0
  191.5400  176.6960  147.2360 S   0  0  0  0  0  1  0  0  0  0  0  0
  189.0420  177.4930  144.2660 C   0  0  0  0  0  0  0  0  0  0  0  0
  188.8810  177.7460  146.4600 C   0  0  1  0  0  3  0  0  0  0  0  0
  190.2290  176.9960  144.8160 C   0  0  0  0  0  0  0  0  0  0  0  0
  190.2010  177.1300  146.1250 C   0  0  0  0  0  0  0  0  0  0  0  0
  184.9460  179.1020  139.4970 N   0  0  0  0  0  0  0  0  0  0  0  0
  186.6820  177.9930  142.4720 C   0  0  0  0  0  3  0  0  0  0  0  0
  187.3130  178.6210  139.7860 C   0  0  0  0  0  3  0  0  0  0  0  0
  188.3140  178.2020  140.6760 C   0  0  0  0  0  3  0  0  0  0  0  0
  183.8070  179.0940  140.2360 C   0  0  0  0  0  0  0  0  0  0  0  0
  188.0110  177.8820  142.0210 C   0  0  0  0  0  0  0  0  0  0  0  0
  184.0640  178.6160  141.8390 S   0  0  0  0  0  0  0  0  0  0  0  0
  185.7070  178.4080  141.5720 C   0  0  0  0  0  0  0  0  0  0  0  0
  186.0040  178.7160  140.2550 C   0  0  0  0  0  0  0  0  0  0  0  0
  182.3930  180.2520  138.7100 C   0  0  0  0  0  3  0  0  0  0  0  0
  182.5250  179.4530  139.7180 N   0  0  0  0  0  0  0  0  0  0  0  0
  180.2580  181.3740  136.0270 C   0  0  0  0  0  2  0  0  0  0  0  0
  180.4360  179.4320  137.4590 C   0  0  0  0  0  2  0  0  0  0  0  0
  181.0370  180.6110  138.2040 C   0  0  2  0  0  3  0  0  0  0  0  0
  180.2540  179.8630  136.0150 C   0  0  0  0  0  2  0  0  0  0  0  0
  181.1360  181.7530  137.2060 C   0  0  2  0  0  3  0  0  0  0  0  0
  179.2820  183.4210  137.6960 C   0  0  0  0  0  1  0  0  0  0  0  0
  180.7630  183.1030  137.8360 C   0  0  2  0  0  3  0  0  0  0  0  0
  181.5890  184.2330  137.2460 C   0  0  0  0  0  2  0  0  0  0  0  0
  180.8080  184.9460  136.1570 C   0  0  0  0  0  1  0  0  0  0  0  0
  188.4030  178.0830  147.8250 C   0  0  0  0  0  0  0  0  0  0  0  0
  186.0340  178.1140  147.2020 O   0  0  0  0  0  1  0  0  0  0  0  0
  189.2570  178.2210  148.7840 N   0  0  0  0  0  2  0  0  0  0  0  0
  187.0130  178.2550  148.1270 N   0  0  0  0  0  2  0  0  0  0  0  0
  190.7340  176.6030  141.2850 O   0  0  0  0  0  0  0  0  0  0  0  0
  191.7810  177.4930  141.0150 C   0  0  0  0  0  2  0  0  0  0  0  0
  192.2460  177.3240  139.5800 C   0  0  0  0  0  2  0  0  0  0  0  0
  191.3010  176.4100  138.8250 C   0  0  0  0  0  2  0  0  0  0  0  0
  188.6570  176.1530  137.8300 O   0  0  0  0  0  0  0  0  0  0  0  0
  189.4340  176.9370  137.2190 C   0  0  0  0  0  0  0  0  0  0  0  0
  187.6230  177.5240  135.5690 C   0  0  0  0  0  1  0  0  0  0  0  0
  190.7790  177.1100  137.6630 N   0  0  0  0  0  2  0  0  0  0  0  0
  188.9770  177.6610  136.0770 N   0  0  0  0  0  2  0  0  0  0  0  0
  1  4  1  0  0  0  0
  1  3  1  0  0  0  0
  3  2  1  1  0  0  0
  3  9  1  0  0  0  0
  4 16  1  6  0  0  0
  4  7  1  0  0  0  0
  5  8  1  0  0  0  0
  7  9  1  0  0  0  0
  7  5  2  0  0  0  0
  8 31  1  6  0  0  0
  9 10  2  0  0  0  0
 10  8  1  0  0  0  0
 10  6  1  0  0  0  0
 11 15  2  0  0  0  0
 11 19  1  0  0  0  0
 13 19  2  0  0  0  0
 13 14  1  0  0  0  0
 14 16  2  0  0  0  0
 15 17  1  0  0  0  0
 16 12  1  0  0  0  0
 18 17  1  0  0  0  0
 18 12  2  0  0  0  0
 19 18  1  0  0  0  0
 20 21  2  0  0  0  0
 21 15  1  0  0  0  0
 22 26  1  0  0  0  0
 23 24  1  0  0  0  0
 24 20  1  6  0  0  0
 25 22  1  0  0  0  0
 25 23  1  0  0  0  0
 26 28  1  1  0  0  0
 26 24  1  0  0  0  0
 28 27  1  6  0  0  0
 29 28  1  0  0  0  0
 30 29  1  0  0  0  0
 31 34  1  0  0  0  0
 31 33  2  0  0  0  0
 32 34  1  0  0  0  0
 35  1  1  0  0  0  0
 36 35  1  0  0  0  0
 37 36  1  0  0  0  0
 38 37  1  0  0  0  0
 40 42  1  0  0  0  0
 40 39  2  0  0  0  0
 41 43  1  0  0  0  0
 42 38  1  0  0  0  0
 43 40  1  0  0  0  0
M  END
>  <MODEL>
3

>  <REMARK>
 VINA RESULT:      -8.1      3.744     10.447
  Name = 
  11 active torsions:
  status: ('A' for Active; 'I' for Inactive)
    1  A    between atoms: N_3  and  O_19
    2  A    between atoms: C_4  and  C_26
    3  A    between atoms: C_8  and  C_31
    4  A    between atoms: C_11  and  C_27
    5  A    between atoms: O_19  and  C_36
    6  A    between atoms: C_21  and  C_30
    7  A    between atoms: C_23  and  N_43
    8  A    between atoms: N_24  and  C_41
    9  A    between atoms: C_26  and  C_29
   10  A    between atoms: C_33  and  C_36
   11  A    between atoms: C_33  and  C_41
                            x       y       z     vdW  Elec       q    Type
                         _______ _______ _______ _____ _____    ______ ____

>  <TORSDO>
F 11

$$$$
=
 OpenBabel11042412393D

 43 47  0  0  1  0  0  0  0  0999 V2000
  181.4450  178.6840  137.0680 N   0  0  0  0  0  0  0  0  0  0  0  0
  181.6800  179.4170  134.7420 C   0  0  0  0  0  1  0  0  0  0  0  0
  180.7630  179.3630  135.9520 C   0  0  2  0  0  3  0  0  0  0  0  0
  181.6670  179.6010  138.1610 C   0  0  0  0  0  0  0  0  0  0  0  0
  180.9560  182.1000  138.3820 C   0  0  0  0  0  3  0  0  0  0  0  0
  179.1690  182.2440  134.7280 S   0  0  0  0  0  1  0  0  0  0  0  0
  181.1660  180.7740  137.8180 C   0  0  0  0  0  0  0  0  0  0  0  0
  180.2860  182.7680  137.4220 C   0  0  0  0  0  0  0  0  0  0  0  0
  180.6130  180.7220  136.5330 C   0  0  0  0  0  0  0  0  0  0  0  0
  180.0610  181.8790  136.2410 C   0  0  0  0  0  0  0  0  0  0  0  0
  184.2330  178.3190  143.0100 N   0  0  0  0  0  0  0  0  0  0  0  0
  183.7190  179.2760  139.5590 C   0  0  0  0  0  3  0  0  0  0  0  0
  182.1390  178.6100  141.8090 C   0  0  0  0  0  3  0  0  0  0  0  0
  181.5360  178.9370  140.5840 C   0  0  0  0  0  3  0  0  0  0  0  0
  185.5670  178.4150  142.7720 C   0  0  0  0  0  0  0  0  0  0  0  0
  182.3160  179.2690  139.4500 C   0  0  0  0  0  0  0  0  0  0  0  0
  185.9210  178.8740  141.1820 S   0  0  0  0  0  0  0  0  0  0  0  0
  184.2940  178.9490  140.7820 C   0  0  0  0  0  0  0  0  0  0  0  0
  183.5300  178.6190  141.8890 C   0  0  0  0  0  0  0  0  0  0  0  0
  186.5610  177.0850  144.4780 C   0  0  0  0  0  3  0  0  0  0  0  0
  186.5670  178.1590  143.7590 N   0  0  0  0  0  0  0  0  0  0  0  0
  189.1290  178.3850  146.6550 C   0  0  0  0  0  2  0  0  0  0  0  0
  187.0630  177.1470  146.8890 C   0  0  0  0  0  2  0  0  0  0  0  0
  187.6180  176.8590  145.5050 C   0  0  2  0  0  3  0  0  0  0  0  0
  187.8440  178.3240  147.4470 C   0  0  0  0  0  2  0  0  0  0  0  0
  188.7740  177.8240  145.2900 C   0  0  2  0  0  3  0  0  0  0  0  0
  191.1710  177.0020  145.4830 C   0  0  0  0  0  1  0  0  0  0  0  0
  189.9580  177.1550  144.5770 C   0  0  2  0  0  3  0  0  0  0  0  0
  190.3460  177.9170  143.3220 C   0  0  0  0  0  2  0  0  0  0  0  0
  191.2760  179.0660  143.6680 C   0  0  0  0  0  1  0  0  0  0  0  0
  179.8350  184.1770  137.5450 C   0  0  0  0  0  0  0  0  0  0  0  0
  181.2970  185.0090  135.7660 O   0  0  0  0  0  1  0  0  0  0  0  0
  178.9310  184.4840  138.4160 N   0  0  0  0  0  2  0  0  0  0  0  0
  180.3620  185.2240  136.7210 N   0  0  0  0  0  2  0  0  0  0  0  0
  181.8740  177.3970  137.0220 O   0  0  0  0  0  0  0  0  0  0  0  0
  183.1580  177.4550  136.4690 C   0  0  0  0  0  2  0  0  0  0  0  0
  184.1170  176.6210  137.2980 C   0  0  0  0  0  2  0  0  0  0  0  0
  185.3350  176.2470  136.4750 C   0  0  0  0  0  2  0  0  0  0  0  0
  186.7450  178.5430  137.3600 O   0  0  0  0  0  0  0  0  0  0  0  0
  187.1660  177.4180  137.7450 C   0  0  0  0  0  0  0  0  0  0  0  0
  189.0280  178.5070  139.0470 C   0  0  0  0  0  1  0  0  0  0  0  0
  186.5070  176.2210  137.3330 N   0  0  0  0  0  2  0  0  0  0  0  0
  188.3070  177.3290  138.5980 N   0  0  0  0  0  2  0  0  0  0  0  0
  1  4  1  0  0  0  0
  3  2  1  6  0  0  0
  3  9  1  0  0  0  0
  3  1  1  0  0  0  0
  4 16  1  0  0  0  0
  6 10  1  0  0  0  0
  7  4  2  0  0  0  0
  7  5  1  0  0  0  0
  8 31  1  0  0  0  0
  8  5  2  0  0  0  0
  9  7  1  0  0  0  0
 10  9  2  0  0  0  0
 10  8  1  0  0  0  0
 12 18  1  0  0  0  0
 13 19  1  0  0  0  0
 14 13  2  0  0  0  0
 15 11  2  0  0  0  0
 15 21  1  0  0  0  0
 16 12  2  0  0  0  0
 16 14  1  0  0  0  0
 17 15  1  0  0  0  0
 18 17  1  0  0  0  0
 18 19  2  0  0  0  0
 19 11  1  0  0  0  0
 21 20  2  0  0  0  0
 22 25  1  0  0  0  0
 23 25  1  0  0  0  0
 24 20  1  6  0  0  0
 24 23  1  0  0  0  0
 26 28  1  1  0  0  0
 26 24  1  0  0  0  0
 26 22  1  0  0  0  0
 28 27  1  1  0  0  0
 29 30  1  0  0  0  0
 29 28  1  0  0  0  0
 31 33  2  0  0  0  0
 32 34  1  0  0  0  0
 34 31  1  0  0  0  0
 35  1  1  0  0  0  0
 36 35  1  0  0  0  0
 36 37  1  0  0  0  0
 38 37  1  0  0  0  0
 38 42  1  0  0  0  0
 39 40  2  0  0  0  0
 40 43  1  0  0  0  0
 42 40  1  0  0  0  0
 43 41  1  0  0  0  0
M  END
>  <MODEL>
4

>  <REMARK>
 VINA RESULT:      -8.1      4.516      8.414
  Name = 
  11 active torsions:
  status: ('A' for Active; 'I' for Inactive)
    1  A    between atoms: N_3  and  O_19
    2  A    between atoms: C_4  and  C_26
    3  A    between atoms: C_8  and  C_31
    4  A    between atoms: C_11  and  C_27
    5  A    between atoms: O_19  and  C_36
    6  A    between atoms: C_21  and  C_30
    7  A    between atoms: C_23  and  N_43
    8  A    between atoms: N_24  and  C_41
    9  A    between atoms: C_26  and  C_29
   10  A    between atoms: C_33  and  C_36
   11  A    between atoms: C_33  and  C_41
                            x       y       z     vdW  Elec       q    Type
                         _______ _______ _______ _____ _____    ______ ____

>  <TORSDO>
F 11

$$$$
=
 OpenBabel11042412393D

 43 47  0  0  1  0  0  0  0  0999 V2000
  181.0470  178.8670  136.9530 N   0  0  0  0  0  0  0  0  0  0  0  0
  181.2390  179.6090  134.6260 C   0  0  0  0  0  1  0  0  0  0  0  0
  180.3700  179.6040  135.8720 C   0  0  2  0  0  3  0  0  0  0  0  0
  181.3760  179.7540  138.0440 C   0  0  0  0  0  0  0  0  0  0  0  0
  180.8470  182.2930  138.3150 C   0  0  0  0  0  3  0  0  0  0  0  0
  178.9310  182.6010  134.7380 S   0  0  0  0  0  1  0  0  0  0  0  0
  180.9430  180.9630  137.7320 C   0  0  0  0  0  0  0  0  0  0  0  0
  180.1860  183.0160  137.3890 C   0  0  0  0  0  0  0  0  0  0  0  0
  180.3370  180.9630  136.4700 C   0  0  0  0  0  0  0  0  0  0  0  0
  179.8540  182.1590  136.2100 C   0  0  0  0  0  0  0  0  0  0  0  0
  184.0390  178.2460  142.7740 N   0  0  0  0  0  0  0  0  0  0  0  0
  183.4560  179.2950  139.3600 C   0  0  0  0  0  3  0  0  0  0  0  0
  181.9220  178.6710  141.6550 C   0  0  0  0  0  3  0  0  0  0  0  0
  181.2950  179.0520  140.4580 C   0  0  0  0  0  3  0  0  0  0  0  0
  185.3660  178.2760  142.4890 C   0  0  0  0  0  0  0  0  0  0  0  0
  182.0510  179.3640  139.3030 C   0  0  0  0  0  0  0  0  0  0  0  0
  185.6880  178.7460  140.8960 S   0  0  0  0  0  0  0  0  0  0  0  0
  184.0550  178.9150  140.5560 C   0  0  0  0  0  0  0  0  0  0  0  0
  183.3140  178.6050  141.6850 C   0  0  0  0  0  0  0  0  0  0  0  0
  187.2950  177.0650  143.1830 C   0  0  0  0  0  3  0  0  0  0  0  0
  186.3860  177.9490  143.4350 N   0  0  0  0  0  0  0  0  0  0  0  0
  190.1420  178.0690  145.1590 C   0  0  0  0  0  2  0  0  0  0  0  0
  187.9010  177.2510  145.5640 C   0  0  0  0  0  2  0  0  0  0  0  0
  188.3380  176.7440  144.2000 C   0  0  2  0  0  3  0  0  0  0  0  0
  188.9010  178.3120  145.9860 C   0  0  0  0  0  2  0  0  0  0  0  0
  189.6350  177.4620  143.8640 C   0  0  2  0  0  3  0  0  0  0  0  0
  191.6880  175.9930  144.1650 C   0  0  0  0  0  1  0  0  0  0  0  0
  190.6510  176.5290  143.1880 C   0  0  2  0  0  3  0  0  0  0  0  0
  191.3460  177.2200  142.0280 C   0  0  0  0  0  2  0  0  0  0  0  0
  190.4960  177.1300  140.7740 C   0  0  0  0  0  1  0  0  0  0  0  0
  179.8390  184.4510  137.5430 C   0  0  0  0  0  0  0  0  0  0  0  0
  181.4100  185.2210  135.8290 O   0  0  0  0  0  1  0  0  0  0  0  0
  178.9350  184.8010  138.3970 N   0  0  0  0  0  2  0  0  0  0  0  0
  180.4660  185.4780  136.7650 N   0  0  0  0  0  2  0  0  0  0  0  0
  181.3850  177.5550  136.8780 O   0  0  0  0  0  0  0  0  0  0  0  0
  180.1810  176.8550  137.0230 C   0  0  0  0  0  2  0  0  0  0  0  0
  180.1070  176.2320  138.4040 C   0  0  0  0  0  2  0  0  0  0  0  0
  181.2600  175.2700  138.6100 C   0  0  0  0  0  2  0  0  0  0  0  0
  182.7380  174.1240  136.4770 O   0  0  0  0  0  0  0  0  0  0  0  0
  181.7410  173.4800  136.9050 C   0  0  0  0  0  0  0  0  0  0  0  0
  182.1490  171.6410  135.2330 C   0  0  0  0  0  1  0  0  0  0  0  0
  180.9500  174.0020  137.9730 N   0  0  0  0  0  2  0  0  0  0  0  0
  181.3910  172.2230  136.3260 N   0  0  0  0  0  2  0  0  0  0  0  0
  1  4  1  0  0  0  0
  3  2  1  6  0  0  0
  3  9  1  0  0  0  0
  3  1  1  0  0  0  0
  4 16  1  0  0  0  0
  6 10  1  0  0  0  0
  7  4  2  0  0  0  0
  7  5  1  0  0  0  0
  8 31  1  0  0  0  0
  8  5  2  0  0  0  0
  9  7  1  0  0  0  0
 10  9  2  0  0  0  0
 10  8  1  0  0  0  0
 12 18  1  0  0  0  0
 13 19  1  0  0  0  0
 14 13  2  0  0  0  0
 15 11  2  0  0  0  0
 15 21  1  0  0  0  0
 16 12  2  0  0  0  0
 16 14  1  0  0  0  0
 17 15  1  0  0  0  0
 18 17  1  0  0  0  0
 18 19  2  0  0  0  0
 19 11  1  0  0  0  0
 20 21  2  0  0  0  0
 22 25  1  0  0  0  0
 23 25  1  0  0  0  0
 24 20  1  6  0  0  0
 24 23  1  0  0  0  0
 26 28  1  1  0  0  0
 26 24  1  0  0  0  0
 26 22  1  0  0  0  0
 28 27  1  1  0  0  0
 29 28  1  0  0  0  0
 30 29  1  0  0  0  0
 31 33  2  0  0  0  0
 32 34  1  0  0  0  0
 34 31  1  0  0  0  0
 35  1  1  0  0  0  0
 35 36  1  0  0  0  0
 36 37  1  0  0  0  0
 37 38  1  0  0  0  0
 39 40  2  0  0  0  0
 40 42  1  0  0  0  0
 41 43  1  0  0  0  0
 42 38  1  0  0  0  0
 43 40  1  0  0  0  0
M  END
>  <MODEL>
5

>  <REMARK>
 VINA RESULT:      -8.1      4.606      8.806
  Name = 
  11 active torsions:
  status: ('A' for Active; 'I' for Inactive)
    1  A    between atoms: N_3  and  O_19
    2  A    between atoms: C_4  and  C_26
    3  A    between atoms: C_8  and  C_31
    4  A    between atoms: C_11  and  C_27
    5  A    between atoms: O_19  and  C_36
    6  A    between atoms: C_21  and  C_30
    7  A    between atoms: C_23  and  N_43
    8  A    between atoms: N_24  and  C_41
    9  A    between atoms: C_26  and  C_29
   10  A    between atoms: C_33  and  C_36
   11  A    between atoms: C_33  and  C_41
                            x       y       z     vdW  Elec       q    Type
                         _______ _______ _______ _____ _____    ______ ____

>  <TORSDO>
F 11

$$$$
=
 OpenBabel11042412393D

 43 47  0  0  1  0  0  0  0  0999 V2000
  182.0390  177.8330  138.1680 N   0  0  0  0  0  0  0  0  0  0  0  0
  182.4610  178.1600  135.7770 C   0  0  0  0  0  1  0  0  0  0  0  0
  181.4480  178.2960  136.9010 C   0  0  2  0  0  3  0  0  0  0  0  0
  182.1630  178.9280  139.1000 C   0  0  0  0  0  0  0  0  0  0  0  0
  181.4180  181.4120  138.8280 C   0  0  0  0  0  3  0  0  0  0  0  0
  179.9400  180.8880  135.0720 S   0  0  0  0  0  1  0  0  0  0  0  0
  181.6840  180.0140  138.5210 C   0  0  0  0  0  0  0  0  0  0  0  0
  180.8250  181.8910  137.7160 C   0  0  0  0  0  0  0  0  0  0  0  0
  181.2410  179.7300  137.2240 C   0  0  0  0  0  0  0  0  0  0  0  0
  180.7060  180.8080  136.6920 C   0  0  0  0  0  0  0  0  0  0  0  0
  184.3190  178.5280  144.2900 N   0  0  0  0  0  0  0  0  0  0  0  0
  184.0810  178.6170  140.6810 C   0  0  0  0  0  3  0  0  0  0  0  0
  182.3490  178.8680  142.9050 C   0  0  0  0  0  3  0  0  0  0  0  0
  181.8500  178.9630  141.5960 C   0  0  0  0  0  3  0  0  0  0  0  0
  185.6500  178.3140  144.1340 C   0  0  0  0  0  0  0  0  0  0  0  0
  182.7060  178.8360  140.4760 C   0  0  0  0  0  0  0  0  0  0  0  0
  186.1240  178.2650  142.5100 S   0  0  0  0  0  0  0  0  0  0  0  0
  184.5520  178.5260  141.9860 C   0  0  0  0  0  0  0  0  0  0  0  0
  183.7130  178.6450  143.0820 C   0  0  0  0  0  0  0  0  0  0  0  0
  187.0700  177.0020  145.5230 C   0  0  0  0  0  3  0  0  0  0  0  0
  186.5590  178.1510  145.2240 N   0  0  0  0  0  0  0  0  0  0  0  0
  189.4760  178.4730  147.7740 C   0  0  0  0  0  2  0  0  0  0  0  0
  187.3360  177.3580  147.9460 C   0  0  0  0  0  2  0  0  0  0  0  0
  188.0090  176.8700  146.6750 C   0  0  2  0  0  3  0  0  0  0  0  0
  188.1180  178.5660  148.4290 C   0  0  0  0  0  2  0  0  0  0  0  0
  189.2280  177.7530  146.4610 C   0  0  2  0  0  3  0  0  0  0  0  0
  191.4540  176.6870  147.0680 C   0  0  0  0  0  1  0  0  0  0  0  0
  190.4400  176.9510  145.9650 C   0  0  2  0  0  3  0  0  0  0  0  0
  191.1190  177.6460  144.7980 C   0  0  0  0  0  2  0  0  0  0  0  0
  190.8900  176.8700  143.5140 C   0  0  0  0  0  1  0  0  0  0  0  0
  180.3550  183.2900  137.5580 C   0  0  0  0  0  0  0  0  0  0  0  0
  182.6000  184.2640  137.6540 O   0  0  0  0  0  1  0  0  0  0  0  0
  179.0930  183.5280  137.4210 N   0  0  0  0  0  2  0  0  0  0  0  0
  181.2580  184.4020  137.5390 N   0  0  0  0  0  2  0  0  0  0  0  0
  182.4800  176.5670  138.3800 O   0  0  0  0  0  0  0  0  0  0  0  0
  181.3570  175.7500  138.2020 C   0  0  0  0  0  2  0  0  0  0  0  0
  181.7840  174.3850  137.6950 C   0  0  0  0  0  2  0  0  0  0  0  0
  182.6620  174.5310  136.4670 C   0  0  0  0  0  2  0  0  0  0  0  0
  185.1250  175.9370  136.4270 O   0  0  0  0  0  0  0  0  0  0  0  0
  185.1630  174.7060  136.6970 C   0  0  0  0  0  0  0  0  0  0  0  0
  187.6680  174.7900  136.9500 C   0  0  0  0  0  1  0  0  0  0  0  0
  183.9610  173.9370  136.7290 N   0  0  0  0  0  2  0  0  0  0  0  0
  186.4090  174.0660  136.9750 N   0  0  0  0  0  2  0  0  0  0  0  0
  1 35  1  0  0  0  0
  1  4  1  0  0  0  0
  3  2  1  6  0  0  0
  3  9  1  0  0  0  0
  3  1  1  0  0  0  0
  4 16  1  0  0  0  0
  6 10  1  0  0  0  0
  7  5  1  0  0  0  0
  7  4  2  0  0  0  0
  8  5  2  0  0  0  0
  9  7  1  0  0  0  0
 10  9  2  0  0  0  0
 10  8  1  0  0  0  0
 12 18  1  0  0  0  0
 13 19  1  0  0  0  0
 14 13  2  0  0  0  0
 15 11  2  0  0  0  0
 15 21  1  0  0  0  0
 16 12  2  0  0  0  0
 16 14  1  0  0  0  0
 17 15  1  0  0  0  0
 18 17  1  0  0  0  0
 18 19  2  0  0  0  0
 19 11  1  0  0  0  0
 21 20  2  0  0  0  0
 22 25  1  0  0  0  0
 23 25  1  0  0  0  0
 24 20  1  6  0  0  0
 24 23  1  0  0  0  0
 26 28  1  1  0  0  0
 26 24  1  0  0  0  0
 26 22  1  0  0  0  0
 28 27  1  1  0  0  0
 29 28  1  0  0  0  0
 30 29  1  0  0  0  0
 31  8  1  0  0  0  0
 33 31  2  0  0  0  0
 34 31  1  0  0  0  0
 34 32  1  0  0  0  0
 36 35  1  0  0  0  0
 37 36  1  0  0  0  0
 38 42  1  0  0  0  0
 38 37  1  0  0  0  0
 39 40  2  0  0  0  0
 40 42  1  0  0  0  0
 40 43  1  0  0  0  0
 41 43  1  0  0  0  0
M  END
>  <MODEL>
6

>  <REMARK>
 VINA RESULT:      -8.0      4.602      8.647
  Name = 
  11 active torsions:
  status: ('A' for Active; 'I' for Inactive)
    1  A    between atoms: N_3  and  O_19
    2  A    between atoms: C_4  and  C_26
    3  A    between atoms: C_8  and  C_31
    4  A    between atoms: C_11  and  C_27
    5  A    between atoms: O_19  and  C_36
    6  A    between atoms: C_21  and  C_30
    7  A    between atoms: C_23  and  N_43
    8  A    between atoms: N_24  and  C_41
    9  A    between atoms: C_26  and  C_29
   10  A    between atoms: C_33  and  C_36
   11  A    between atoms: C_33  and  C_41
                            x       y       z     vdW  Elec       q    Type
                         _______ _______ _______ _____ _____    ______ ____

>  <TORSDO>
F 11

$$$$
=
 OpenBabel11042412393D

 43 47  0  0  1  0  0  0  0  0999 V2000
  181.9420  178.1250  137.2410 N   0  0  0  0  0  0  0  0  0  0  0  0
  181.6490  178.7470  134.8900 C   0  0  0  0  0  1  0  0  0  0  0  0
  181.0110  178.7230  136.2680 C   0  0  2  0  0  3  0  0  0  0  0  0
  182.3480  179.1030  138.2220 C   0  0  0  0  0  0  0  0  0  0  0  0
  181.5870  181.5830  138.4850 C   0  0  0  0  0  3  0  0  0  0  0  0
  179.0660  181.4800  135.2910 S   0  0  0  0  0  1  0  0  0  0  0  0
  181.7340  180.2390  137.9450 C   0  0  0  0  0  0  0  0  0  0  0  0
  180.7000  182.1780  137.6620 C   0  0  0  0  0  0  0  0  0  0  0  0
  180.9260  180.1020  136.8100 C   0  0  0  0  0  0  0  0  0  0  0  0
  180.2720  181.2230  136.5940 C   0  0  0  0  0  0  0  0  0  0  0  0
  185.9270  178.1390  142.4650 N   0  0  0  0  0  0  0  0  0  0  0  0
  184.6490  178.7110  139.1290 C   0  0  0  0  0  3  0  0  0  0  0  0
  183.6320  178.5280  141.7630 C   0  0  0  0  0  3  0  0  0  0  0  0
  182.7720  178.7690  140.6790 C   0  0  0  0  0  3  0  0  0  0  0  0
  187.1610  178.0430  141.9080 C   0  0  0  0  0  0  0  0  0  0  0  0
  183.2680  178.8590  139.3570 C   0  0  0  0  0  0  0  0  0  0  0  0
  187.1440  178.2520  140.2280 S   0  0  0  0  0  0  0  0  0  0  0  0
  185.4810  178.4730  140.2170 C   0  0  0  0  0  0  0  0  0  0  0  0
  184.9940  178.3790  141.5100 C   0  0  0  0  0  0  0  0  0  0  0  0
  189.0320  178.7500  143.1980 C   0  0  0  0  0  3  0  0  0  0  0  0
  188.3510  177.7940  142.6580 N   0  0  0  0  0  0  0  0  0  0  0  0
  191.2280  176.3620  144.7780 C   0  0  0  0  0  2  0  0  0  0  0  0
  191.3750  178.0120  143.0150 C   0  0  0  0  0  2  0  0  0  0  0  0
  190.2760  178.4510  143.9660 C   0  0  2  0  0  3  0  0  0  0  0  0
  191.7230  176.5770  143.3670 C   0  0  0  0  0  2  0  0  0  0  0  0
  190.0360  177.2920  144.9200 C   0  0  2  0  0  3  0  0  0  0  0  0
  190.5970  176.9650  147.3770 C   0  0  0  0  0  1  0  0  0  0  0  0
  189.8030  177.7710  146.3610 C   0  0  2  0  0  3  0  0  0  0  0  0
  188.3270  177.7380  146.7180 C   0  0  0  0  0  2  0  0  0  0  0  0
  188.1490  177.5170  148.2100 C   0  0  0  0  0  1  0  0  0  0  0  0
  180.2220  183.5740  137.8200 C   0  0  0  0  0  0  0  0  0  0  0  0
  182.4470  184.5720  137.5900 O   0  0  0  0  0  1  0  0  0  0  0  0
  178.9620  183.8020  137.9890 N   0  0  0  0  0  2  0  0  0  0  0  0
  181.1130  184.6960  137.7820 N   0  0  0  0  0  2  0  0  0  0  0  0
  182.4100  176.8540  137.1580 O   0  0  0  0  0  0  0  0  0  0  0  0
  181.4470  176.0640  137.7980 C   0  0  0  0  0  2  0  0  0  0  0  0
  181.2720  174.7540  137.0530 C   0  0  0  0  0  2  0  0  0  0  0  0
  182.3190  174.6260  135.9630 C   0  0  0  0  0  2  0  0  0  0  0  0
  183.5850  172.3560  137.1000 O   0  0  0  0  0  0  0  0  0  0  0  0
  182.9310  172.1840  136.0350 C   0  0  0  0  0  0  0  0  0  0  0  0
  183.4930  169.7280  136.0290 C   0  0  0  0  0  1  0  0  0  0  0  0
  182.2740  173.2840  135.4070 N   0  0  0  0  0  2  0  0  0  0  0  0
  182.8410  170.8870  135.4450 N   0  0  0  0  0  2  0  0  0  0  0  0
  1  4  1  0  0  0  0
  3  2  1  6  0  0  0
  3  9  1  0  0  0  0
  3  1  1  0  0  0  0
  4 16  1  0  0  0  0
  6 10  1  0  0  0  0
  7  4  2  0  0  0  0
  7  5  1  0  0  0  0
  8 31  1  0  0  0  0
  8  5  2  0  0  0  0
  9  7  1  0  0  0  0
 10  9  2  0  0  0  0
 10  8  1  0  0  0  0
 12 16  2  0  0  0  0
 12 18  1  0  0  0  0
 14 13  2  0  0  0  0
 15 11  2  0  0  0  0
 15 21  1  0  0  0  0
 16 14  1  0  0  0  0
 17 15  1  0  0  0  0
 18 17  1  0  0  0  0
 18 19  2  0  0  0  0
 19 13  1  0  0  0  0
 19 11  1  0  0  0  0
 21 20  2  0  0  0  0
 22 26  1  0  0  0  0
 23 25  1  0  0  0  0
 23 24  1  0  0  0  0
 24 20  1  6  0  0  0
 24 26  1  0  0  0  0
 25 22  1  0  0  0  0
 26 28  1  1  0  0  0
 28 29  1  0  0  0  0
 28 27  1  1  0  0  0
 29 30  1  0  0  0  0
 31 33  2  0  0  0  0
 32 34  1  0  0  0  0
 34 31  1  0  0  0  0
 35  1  1  0  0  0  0
 35 36  1  0  0  0  0
 37 36  1  0  0  0  0
 38 37  1  0  0  0  0
 40 39  2  0  0  0  0
 42 38  1  0  0  0  0
 42 40  1  0  0  0  0
 43 41  1  0  0  0  0
 43 40  1  0  0  0  0
M  END
>  <MODEL>
7

>  <REMARK>
 VINA RESULT:      -7.5      4.838      8.723
  Name = 
  11 active torsions:
  status: ('A' for Active; 'I' for Inactive)
    1  A    between atoms: N_3  and  O_19
    2  A    between atoms: C_4  and  C_26
    3  A    between atoms: C_8  and  C_31
    4  A    between atoms: C_11  and  C_27
    5  A    between atoms: O_19  and  C_36
    6  A    between atoms: C_21  and  C_30
    7  A    between atoms: C_23  and  N_43
    8  A    between atoms: N_24  and  C_41
    9  A    between atoms: C_26  and  C_29
   10  A    between atoms: C_33  and  C_36
   11  A    between atoms: C_33  and  C_41
                            x       y       z     vdW  Elec       q    Type
                         _______ _______ _______ _____ _____    ______ ____

>  <TORSDO>
F 11

$$$$
=
 OpenBabel11042412393D

 43 47  0  0  1  0  0  0  0  0999 V2000
  186.1220  177.8640  144.4310 N   0  0  0  0  0  0  0  0  0  0  0  0
  185.6710  179.1310  146.4780 C   0  0  0  0  0  1  0  0  0  0  0  0
  186.1360  177.8040  145.9020 C   0  0  2  0  0  3  0  0  0  0  0  0
  187.4620  177.7560  143.9050 C   0  0  1  0  0  3  0  0  0  0  0  0
  189.7060  177.3970  145.1830 C   0  0  0  0  0  3  0  0  0  0  0  0
  187.9630  177.2950  148.8590 S   0  0  0  0  0  1  0  0  0  0  0  0
  188.2910  177.6190  144.9240 C   0  0  0  0  0  0  0  0  0  0  0  0
  189.7860  177.2830  146.5240 C   0  0  1  0  0  3  0  0  0  0  0  0
  187.5930  177.6350  146.1370 C   0  0  0  0  0  0  0  0  0  0  0  0
  188.4280  177.4290  147.1320 C   0  0  0  0  0  0  0  0  0  0  0  0
  188.9730  177.7630  138.4770 N   0  0  0  0  0  0  0  0  0  0  0  0
  188.9730  177.0720  142.0290 C   0  0  0  0  0  3  0  0  0  0  0  0
  187.3910  178.5030  140.1700 C   0  0  0  0  0  3  0  0  0  0  0  0
  187.0460  178.4760  141.5310 C   0  0  0  0  0  3  0  0  0  0  0  0
  190.1030  177.0150  138.3950 C   0  0  0  0  0  0  0  0  0  0  0  0
  187.8320  177.7670  142.4700 C   0  0  0  0  0  0  0  0  0  0  0  0
  190.5890  176.3900  139.8910 S   0  0  0  0  0  0  0  0  0  0  0  0
  189.2950  177.1130  140.6770 C   0  0  0  0  0  0  0  0  0  0  0  0
  188.5290  177.8120  139.7580 C   0  0  0  0  0  0  0  0  0  0  0  0
  191.7920  175.9410  137.1070 C   0  0  0  0  0  3  0  0  0  0  0  0
  190.8080  176.7760  137.1760 N   0  0  0  0  0  0  0  0  0  0  0  0
  193.7860  173.8390  134.9560 C   0  0  0  0  0  2  0  0  0  0  0  0
  191.6310  174.9340  134.8640 C   0  0  0  0  0  2  0  0  0  0  0  0
  192.5090  175.7260  135.8170 C   0  0  2  0  0  3  0  0  0  0  0  0
  192.3350  173.6160  134.5980 C   0  0  0  0  0  2  0  0  0  0  0  0
  193.7620  174.8940  136.0460 C   0  0  2  0  0  3  0  0  0  0  0  0
  194.8300  177.1130  135.4180 C   0  0  0  0  0  1  0  0  0  0  0  0
  195.0290  175.7610  136.0870 C   0  0  2  0  0  3  0  0  0  0  0  0
  196.2070  175.0420  135.4530 C   0  0  0  0  0  2  0  0  0  0  0  0
  197.3910  175.9830  135.3190 C   0  0  0  0  0  1  0  0  0  0  0  0
  191.0480  177.0360  147.2660 C   0  0  0  0  0  0  0  0  0  0  0  0
  191.9570  175.4870  145.6010 O   0  0  0  0  0  1  0  0  0  0  0  0
  191.2550  177.6380  148.3900 N   0  0  0  0  0  2  0  0  0  0  0  0
  192.0630  176.1520  146.7760 N   0  0  0  0  0  2  0  0  0  0  0  0
  185.0030  178.0780  143.6930 O   0  0  0  0  0  0  0  0  0  0  0  0
  184.8470  179.4680  143.6520 C   0  0  0  0  0  2  0  0  0  0  0  0
  183.4060  179.8370  143.9500 C   0  0  0  0  0  2  0  0  0  0  0  0
  182.5150  178.6170  143.8270 C   0  0  0  0  0  2  0  0  0  0  0  0
  182.7080  178.0740  141.0500 O   0  0  0  0  0  0  0  0  0  0  0  0
  181.6310  178.5770  141.4700 C   0  0  0  0  0  0  0  0  0  0  0  0
  180.6650  178.5720  139.1430 C   0  0  0  0  0  1  0  0  0  0  0  0
  181.4680  178.8800  142.8550 N   0  0  0  0  0  2  0  0  0  0  0  0
  180.5610  178.8500  140.5650 N   0  0  0  0  0  2  0  0  0  0  0  0
  1  3  1  0  0  0  0
  3  9  1  0  0  0  0
  3  2  1  1  0  0  0
  4 16  1  6  0  0  0
  4  1  1  0  0  0  0
  4  7  1  0  0  0  0
  5  8  1  0  0  0  0
  7  5  2  0  0  0  0
  7  9  1  0  0  0  0
  8 10  1  0  0  0  0
  8 31  1  6  0  0  0
  9 10  2  0  0  0  0
 10  6  1  0  0  0  0
 11 19  1  0  0  0  0
 12 16  1  0  0  0  0
 13 14  1  0  0  0  0
 14 16  2  0  0  0  0
 15 11  2  0  0  0  0
 15 17  1  0  0  0  0
 17 18  1  0  0  0  0
 18 12  2  0  0  0  0
 19 13  2  0  0  0  0
 19 18  1  0  0  0  0
 20 21  2  0  0  0  0
 21 15  1  0  0  0  0
 22 26  1  0  0  0  0
 23 24  1  0  0  0  0
 24 26  1  0  0  0  0
 24 20  1  1  0  0  0
 25 23  1  0  0  0  0
 25 22  1  0  0  0  0
 26 28  1  6  0  0  0
 28 27  1  6  0  0  0
 29 28  1  0  0  0  0
 30 29  1  0  0  0  0
 31 33  2  0  0  0  0
 32 34  1  0  0  0  0
 34 31  1  0  0  0  0
 35  1  1  0  0  0  0
 36 35  1  0  0  0  0
 36 37  1  0  0  0  0
 38 37  1  0  0  0  0
 39 40  2  0  0  0  0
 40 42  1  0  0  0  0
 41 43  1  0  0  0  0
 42 38  1  0  0  0  0
 43 40  1  0  0  0  0
M  END
>  <MODEL>
8

>  <REMARK>
 VINA RESULT:      -7.3      2.475      6.586
  Name = 
  11 active torsions:
  status: ('A' for Active; 'I' for Inactive)
    1  A    between atoms: N_3  and  O_19
    2  A    between atoms: C_4  and  C_26
    3  A    between atoms: C_8  and  C_31
    4  A    between atoms: C_11  and  C_27
    5  A    between atoms: O_19  and  C_36
    6  A    between atoms: C_21  and  C_30
    7  A    between atoms: C_23  and  N_43
    8  A    between atoms: N_24  and  C_41
    9  A    between atoms: C_26  and  C_29
   10  A    between atoms: C_33  and  C_36
   11  A    between atoms: C_33  and  C_41
                            x       y       z     vdW  Elec       q    Type
                         _______ _______ _______ _____ _____    ______ ____

>  <TORSDO>
F 11

$$$$
=
 OpenBabel11042412393D

 43 47  0  0  1  0  0  0  0  0999 V2000
  185.6330  178.4660  142.2700 N   0  0  0  0  0  0  0  0  0  0  0  0
  184.6440  180.0070  143.8960 C   0  0  0  0  0  1  0  0  0  0  0  0
  185.0370  178.5680  143.6130 C   0  0  2  0  0  3  0  0  0  0  0  0
  187.0230  178.0850  142.3590 C   0  0  1  0  0  3  0  0  0  0  0  0
  188.4380  177.5100  144.4720 C   0  0  0  0  0  3  0  0  0  0  0  0
  185.3690  178.0980  147.0780 S   0  0  0  0  0  1  0  0  0  0  0  0
  187.3230  177.9280  143.6360 C   0  0  0  0  0  0  0  0  0  0  0  0
  187.9430  177.5330  145.7250 C   0  0  1  0  0  3  0  0  0  0  0  0
  186.2100  178.1920  144.4430 C   0  0  0  0  0  0  0  0  0  0  0  0
  186.5120  177.9640  145.7030 C   0  0  0  0  0  0  0  0  0  0  0  0
  190.5910  177.2950  138.0710 N   0  0  0  0  0  0  0  0  0  0  0  0
  189.2490  177.4120  141.4290 C   0  0  0  0  0  3  0  0  0  0  0  0
  188.3690  177.9630  138.7970 C   0  0  0  0  0  3  0  0  0  0  0  0
  187.5090  178.1470  139.8920 C   0  0  0  0  0  3  0  0  0  0  0  0
  191.7530  176.8540  138.6180 C   0  0  0  0  0  0  0  0  0  0  0  0
  187.9380  177.8770  141.2130 C   0  0  0  0  0  0  0  0  0  0  0  0
  191.6740  176.7100  140.3030 S   0  0  0  0  0  0  0  0  0  0  0  0
  190.0830  177.2390  140.3300 C   0  0  0  0  0  0  0  0  0  0  0  0
  189.6630  177.5080  139.0370 C   0  0  0  0  0  0  0  0  0  0  0  0
  193.0140  175.4530  137.1640 C   0  0  0  0  0  3  0  0  0  0  0  0
  192.9190  176.5410  137.8550 N   0  0  0  0  0  0  0  0  0  0  0  0
  195.4520  173.0820  135.9600 C   0  0  0  0  0  2  0  0  0  0  0  0
  193.8850  174.6560  135.0020 C   0  0  0  0  0  2  0  0  0  0  0  0
  194.2520  175.1570  136.3880 C   0  0  2  0  0  3  0  0  0  0  0  0
  194.3900  173.2290  134.8950 C   0  0  0  0  0  2  0  0  0  0  0  0
  195.0380  174.0420  137.0590 C   0  0  2  0  0  3  0  0  0  0  0  0
  197.5250  173.8700  137.5520 C   0  0  0  0  0  1  0  0  0  0  0  0
  196.2210  174.5830  137.8760 C   0  0  2  0  0  3  0  0  0  0  0  0
  195.9450  174.4970  139.3670 C   0  0  0  0  0  2  0  0  0  0  0  0
  197.1670  174.9290  140.1570 C   0  0  0  0  0  1  0  0  0  0  0  0
  188.7200  177.1680  146.9370 C   0  0  0  0  0  0  0  0  0  0  0  0
  190.8050  176.7590  145.7180 O   0  0  0  0  0  1  0  0  0  0  0  0
  188.1470  177.1910  148.0940 N   0  0  0  0  0  2  0  0  0  0  0  0
  190.1030  176.7960  146.8750 N   0  0  0  0  0  2  0  0  0  0  0  0
  184.9750  178.7760  141.1240 O   0  0  0  0  0  0  0  0  0  0  0  0
  183.6980  178.2220  141.2700 C   0  0  0  0  0  2  0  0  0  0  0  0
  182.9710  178.2390  139.9390 C   0  0  0  0  0  2  0  0  0  0  0  0
  181.5960  178.8590  140.0990 C   0  0  0  0  0  2  0  0  0  0  0  0
  180.3320  180.2300  142.2360 O   0  0  0  0  0  0  0  0  0  0  0  0
  180.2830  178.9700  142.2440 C   0  0  0  0  0  0  0  0  0  0  0  0
  178.9640  178.9870  144.3910 C   0  0  0  0  0  1  0  0  0  0  0  0
  180.9030  178.2170  141.2020 N   0  0  0  0  0  2  0  0  0  0  0  0
  179.6080  178.2810  143.2970 N   0  0  0  0  0  2  0  0  0  0  0  0
  1  4  1  0  0  0  0
  1  3  1  0  0  0  0
  3  2  1  1  0  0  0
  3  9  1  0  0  0  0
  4 16  1  6  0  0  0
  4  7  1  0  0  0  0
  5  8  1  0  0  0  0
  7  9  1  0  0  0  0
  7  5  2  0  0  0  0
  8 31  1  6  0  0  0
  9 10  2  0  0  0  0
 10  8  1  0  0  0  0
 10  6  1  0  0  0  0
 11 15  2  0  0  0  0
 11 19  1  0  0  0  0
 13 19  2  0  0  0  0
 13 14  1  0  0  0  0
 14 16  2  0  0  0  0
 15 17  1  0  0  0  0
 16 12  1  0  0  0  0
 17 18  1  0  0  0  0
 18 12  2  0  0  0  0
 19 18  1  0  0  0  0
 20 21  2  0  0  0  0
 21 15  1  0  0  0  0
 22 26  1  0  0  0  0
 23 24  1  0  0  0  0
 24 26  1  0  0  0  0
 24 20  1  1  0  0  0
 25 23  1  0  0  0  0
 25 22  1  0  0  0  0
 26 28  1  6  0  0  0
 28 27  1  1  0  0  0
 28 29  1  0  0  0  0
 29 30  1  0  0  0  0
 31 33  2  0  0  0  0
 32 34  1  0  0  0  0
 34 31  1  0  0  0  0
 35 36  1  0  0  0  0
 35  1  1  0  0  0  0
 37 38  1  0  0  0  0
 37 36  1  0  0  0  0
 38 42  1  0  0  0  0
 39 40  2  0  0  0  0
 40 43  1  0  0  0  0
 42 40  1  0  0  0  0
 43 41  1  0  0  0  0
M  END
>  <MODEL>
9

>  <REMARK>
 VINA RESULT:      -7.2      2.157      6.257
  Name = 
  11 active torsions:
  status: ('A' for Active; 'I' for Inactive)
    1  A    between atoms: N_3  and  O_19
    2  A    between atoms: C_4  and  C_26
    3  A    between atoms: C_8  and  C_31
    4  A    between atoms: C_11  and  C_27
    5  A    between atoms: O_19  and  C_36
    6  A    between atoms: C_21  and  C_30
    7  A    between atoms: C_23  and  N_43
    8  A    between atoms: N_24  and  C_41
    9  A    between atoms: C_26  and  C_29
   10  A    between atoms: C_33  and  C_36
   11  A    between atoms: C_33  and  C_41
                            x       y       z     vdW  Elec       q    Type
                         _______ _______ _______ _____ _____    ______ ____

>  <TORSDO>
F 11

$$$$
