=
 OpenBabel11042412293D

 27 29  0  0  1  0  0  0  0  0999 V2000
  191.2420  177.0740  145.2930 C   0  0  0  0  0  2  0  0  0  0  0  0
  191.6720  179.3250  144.3070 C   0  0  0  0  0  1  0  0  0  0  0  0
  191.5680  177.8380  144.0200 C   0  0  2  0  0  3  0  0  0  0  0  0
  190.5720  177.5790  142.9820 N   0  0  0  0  0  2  0  0  0  0  0  0
  192.0630  177.4440  141.1950 O   0  0  0  0  0  0  0  0  0  0  0  0
  190.8640  177.4260  141.5860 C   0  0  0  0  0  0  0  0  0  0  0  0
  189.7860  177.2750  140.6410 N   0  0  0  0  0  0  0  0  0  0  0  0
  188.4230  177.4740  141.1220 C   0  0  0  0  0  1  0  0  0  0  0  0
  189.7850  177.4750  136.8970 C   0  0  0  0  0  3  0  0  0  0  0  0
  190.0050  176.9420  139.2510 C   0  0  0  0  0  0  0  0  0  0  0  0
  189.5790  177.8150  138.2350 C   0  0  0  0  0  3  0  0  0  0  0  0
  190.4100  176.2700  136.5760 C   0  0  0  0  0  3  0  0  0  0  0  0
  190.6100  175.7710  138.9010 N   0  0  0  0  0  0  0  0  0  0  0  0
  190.8190  175.4210  137.6040 C   0  0  0  0  0  3  0  0  0  0  0  0
  189.8190  176.7750  145.3350 N   0  0  0  0  0  2  0  0  0  0  0  0
  189.2750  177.4010  146.5310 C   0  0  0  0  0  2  0  0  0  0  0  0
  187.8630  177.8250  146.2980 C   0  0  0  0  0  0  0  0  0  0  0  0
  186.0060  178.1680  144.7840 C   0  0  0  0  0  0  0  0  0  0  0  0
  185.4760  178.1380  143.5350 N   0  0  0  0  0  2  0  0  0  0  0  0
  183.3960  178.9390  144.3830 C   0  0  0  0  0  3  0  0  0  0  0  0
  184.1880  178.5150  143.3130 C   0  0  0  0  0  0  0  0  0  0  0  0
  187.3310  177.7860  145.0040 C   0  0  0  0  0  3  0  0  0  0  0  0
  187.0660  178.2440  147.3720 C   0  0  0  0  0  3  0  0  0  0  0  0
  185.7380  178.6280  147.1570 C   0  0  0  0  0  3  0  0  0  0  0  0
  185.2050  178.5930  145.8660 C   0  0  0  0  0  0  0  0  0  0  0  0
  183.9200  178.9680  145.6360 N   0  0  0  0  0  0  0  0  0  0  0  0
  183.7130  178.4810  142.1490 O   0  0  0  0  0  0  0  0  0  0  0  0
  1 15  1  0  0  0  0
  3  2  1  1  0  0  0
  3  1  1  0  0  0  0
  4  3  1  0  0  0  0
  5  6  2  0  0  0  0
  6  4  1  0  0  0  0
  7  8  1  0  0  0  0
  7  6  1  0  0  0  0
  9 11  1  0  0  0  0
 10  7  1  0  0  0  0
 11 10  2  0  0  0  0
 12  9  2  0  0  0  0
 12 14  1  0  0  0  0
 13 10  1  0  0  0  0
 14 13  2  0  0  0  0
 15 16  1  0  0  0  0
 17 16  1  0  0  0  0
 17 23  1  0  0  0  0
 18 22  1  0  0  0  0
 18 25  2  0  0  0  0
 19 18  1  0  0  0  0
 20 26  2  0  0  0  0
 21 19  1  0  0  0  0
 21 20  1  0  0  0  0
 22 17  2  0  0  0  0
 24 23  2  0  0  0  0
 25 24  1  0  0  0  0
 26 25  1  0  0  0  0
 27 21  2  0  0  0  0
M  END
>  <MODEL>
1

>  <REMARK>
 VINA RESULT:      -8.8      0.000      0.000
  Name = 
  6 active torsions:
  status: ('A' for Active; 'I' for Inactive)
    1  A    between atoms: C_2  and  C_3
    2  A    between atoms: C_3  and  N_25
    3  A    between atoms: N_6  and  C_24
    4  A    between atoms: C_7  and  N_26
    5  A    between atoms: C_15  and  C_24
    6  A    between atoms: C_15  and  N_25
                            x       y       z     vdW  Elec       q    Type
                         _______ _______ _______ _____ _____    ______ ____

>  <TORSDO>
F 6

$$$$
=
 OpenBabel11042412293D

 27 29  0  0  1  0  0  0  0  0999 V2000
  184.8760  179.5460  144.1490 C   0  0  0  0  0  2  0  0  0  0  0  0
  183.7500  178.3110  142.2960 C   0  0  0  0  0  1  0  0  0  0  0  0
  184.8410  179.3060  142.6480 C   0  0  2  0  0  3  0  0  0  0  0  0
  186.1400  178.8440  142.1610 N   0  0  0  0  0  2  0  0  0  0  0  0
  185.6470  178.9840  139.8860 O   0  0  0  0  0  0  0  0  0  0  0  0
  186.4800  178.6660  140.7780 C   0  0  0  0  0  0  0  0  0  0  0  0
  187.7600  178.1080  140.4210 N   0  0  0  0  0  0  0  0  0  0  0  0
  188.5910  177.5660  141.4910 C   0  0  0  0  0  1  0  0  0  0  0  0
  188.7450  176.8140  137.0430 C   0  0  0  0  0  3  0  0  0  0  0  0
  188.2410  178.0610  139.0580 C   0  0  0  0  0  0  0  0  0  0  0  0
  188.2670  176.8460  138.3530 C   0  0  0  0  0  3  0  0  0  0  0  0
  189.1980  177.9870  136.4420 C   0  0  0  0  0  3  0  0  0  0  0  0
  188.6940  179.1890  138.4400 N   0  0  0  0  0  0  0  0  0  0  0  0
  189.1650  179.1790  137.1650 C   0  0  0  0  0  3  0  0  0  0  0  0
  185.2440  178.3170  144.8350 N   0  0  0  0  0  2  0  0  0  0  0  0
  185.6190  178.6710  146.1960 C   0  0  0  0  0  2  0  0  0  0  0  0
  186.9980  178.1860  146.4970 C   0  0  0  0  0  0  0  0  0  0  0  0
  189.1220  177.3160  145.7280 C   0  0  0  0  0  0  0  0  0  0  0  0
  189.9360  176.8950  144.7260 N   0  0  0  0  0  2  0  0  0  0  0  0
  191.6660  176.4410  146.3050 C   0  0  0  0  0  3  0  0  0  0  0  0
  191.1980  176.4580  144.9880 C   0  0  0  0  0  0  0  0  0  0  0  0
  187.8260  177.7570  145.4530 C   0  0  0  0  0  3  0  0  0  0  0  0
  187.4710  178.1760  147.8160 C   0  0  0  0  0  3  0  0  0  0  0  0
  188.7680  177.7340  148.0970 C   0  0  0  0  0  3  0  0  0  0  0  0
  189.5960  177.3030  147.0570 C   0  0  0  0  0  0  0  0  0  0  0  0
  190.8560  176.8650  147.3110 N   0  0  0  0  0  0  0  0  0  0  0  0
  191.9390  176.0720  144.0480 O   0  0  0  0  0  0  0  0  0  0  0  0
  1 15  1  0  0  0  0
  3  2  1  1  0  0  0
  3  1  1  0  0  0  0
  4  3  1  0  0  0  0
  5  6  2  0  0  0  0
  6  4  1  0  0  0  0
  7  6  1  0  0  0  0
  7  8  1  0  0  0  0
  9 11  1  0  0  0  0
 10  7  1  0  0  0  0
 11 10  2  0  0  0  0
 12  9  2  0  0  0  0
 12 14  1  0  0  0  0
 13 10  1  0  0  0  0
 14 13  2  0  0  0  0
 15 16  1  0  0  0  0
 16 17  1  0  0  0  0
 17 23  1  0  0  0  0
 18 25  2  0  0  0  0
 19 21  1  0  0  0  0
 19 18  1  0  0  0  0
 20 26  2  0  0  0  0
 21 20  1  0  0  0  0
 22 18  1  0  0  0  0
 22 17  2  0  0  0  0
 23 24  2  0  0  0  0
 25 26  1  0  0  0  0
 25 24  1  0  0  0  0
 27 21  2  0  0  0  0
M  END
>  <MODEL>
2

>  <REMARK>
 VINA RESULT:      -8.6      1.852      5.015
  Name = 
  6 active torsions:
  status: ('A' for Active; 'I' for Inactive)
    1  A    between atoms: C_2  and  C_3
    2  A    between atoms: C_3  and  N_25
    3  A    between atoms: N_6  and  C_24
    4  A    between atoms: C_7  and  N_26
    5  A    between atoms: C_15  and  C_24
    6  A    between atoms: C_15  and  N_25
                            x       y       z     vdW  Elec       q    Type
                         _______ _______ _______ _____ _____    ______ ____

>  <TORSDO>
F 6

$$$$
=
 OpenBabel11042412293D

 27 29  0  0  1  0  0  0  0  0999 V2000
  187.2770  177.9670  147.0620 C   0  0  0  0  0  2  0  0  0  0  0  0
  189.4470  176.9380  147.7410 C   0  0  0  0  0  1  0  0  0  0  0  0
  188.4710  177.1490  146.5970 C   0  0  2  0  0  3  0  0  0  0  0  0
  189.1340  177.7880  145.4620 N   0  0  0  0  0  2  0  0  0  0  0  0
  188.2820  176.3750  143.8140 O   0  0  0  0  0  0  0  0  0  0  0  0
  189.0380  177.3430  144.1010 C   0  0  0  0  0  0  0  0  0  0  0  0
  189.8190  177.9920  143.0780 N   0  0  0  0  0  0  0  0  0  0  0  0
  190.8270  178.9590  143.5000 C   0  0  0  0  0  1  0  0  0  0  0  0
  190.4070  176.6890  139.6130 C   0  0  0  0  0  3  0  0  0  0  0  0
  189.6460  177.7200  141.6690 C   0  0  0  0  0  0  0  0  0  0  0  0
  190.5810  176.9330  140.9750 C   0  0  0  0  0  3  0  0  0  0  0  0
  189.3090  177.2290  138.9460 C   0  0  0  0  0  3  0  0  0  0  0  0
  188.5840  178.2350  140.9850 N   0  0  0  0  0  0  0  0  0  0  0  0
  188.3970  178.0090  139.6580 C   0  0  0  0  0  3  0  0  0  0  0  0
  186.1350  177.7020  146.1990 N   0  0  0  0  0  2  0  0  0  0  0  0
  185.4030  178.9510  146.0480 C   0  0  0  0  0  2  0  0  0  0  0  0
  184.6250  178.9450  144.7740 C   0  0  0  0  0  0  0  0  0  0  0  0
  184.5740  179.0360  142.3560 C   0  0  0  0  0  0  0  0  0  0  0  0
  185.2110  179.1440  141.1610 N   0  0  0  0  0  2  0  0  0  0  0  0
  183.1210  179.0060  140.0200 C   0  0  0  0  0  3  0  0  0  0  0  0
  184.5120  179.1320  139.9940 C   0  0  0  0  0  0  0  0  0  0  0  0
  185.2970  179.0550  143.5510 C   0  0  0  0  0  3  0  0  0  0  0  0
  183.2300  178.8120  144.7990 C   0  0  0  0  0  3  0  0  0  0  0  0
  182.5030  178.7930  143.6050 C   0  0  0  0  0  3  0  0  0  0  0  0
  183.1690  178.9050  142.3830 C   0  0  0  0  0  0  0  0  0  0  0  0
  182.4790  178.8940  141.2130 N   0  0  0  0  0  0  0  0  0  0  0  0
  185.1180  179.2330  138.8960 O   0  0  0  0  0  0  0  0  0  0  0  0
  3  1  1  0  0  0  0
  3  2  1  1  0  0  0
  4  3  1  0  0  0  0
  5  6  2  0  0  0  0
  6  4  1  0  0  0  0
  7  8  1  0  0  0  0
  7  6  1  0  0  0  0
  9 11  1  0  0  0  0
 10  7  1  0  0  0  0
 11 10  2  0  0  0  0
 12  9  2  0  0  0  0
 12 14  1  0  0  0  0
 13 10  1  0  0  0  0
 14 13  2  0  0  0  0
 15  1  1  0  0  0  0
 16 15  1  0  0  0  0
 17 23  1  0  0  0  0
 17 16  1  0  0  0  0
 18 25  2  0  0  0  0
 18 22  1  0  0  0  0
 19 18  1  0  0  0  0
 20 26  2  0  0  0  0
 21 20  1  0  0  0  0
 21 19  1  0  0  0  0
 22 17  2  0  0  0  0
 24 23  2  0  0  0  0
 25 24  1  0  0  0  0
 26 25  1  0  0  0  0
 27 21  2  0  0  0  0
M  END
>  <MODEL>
3

>  <REMARK>
 VINA RESULT:      -8.6      2.060      3.747
  Name = 
  6 active torsions:
  status: ('A' for Active; 'I' for Inactive)
    1  A    between atoms: C_2  and  C_3
    2  A    between atoms: C_3  and  N_25
    3  A    between atoms: N_6  and  C_24
    4  A    between atoms: C_7  and  N_26
    5  A    between atoms: C_15  and  C_24
    6  A    between atoms: C_15  and  N_25
                            x       y       z     vdW  Elec       q    Type
                         _______ _______ _______ _____ _____    ______ ____

>  <TORSDO>
F 6

$$$$
=
 OpenBabel11042412293D

 27 29  0  0  1  0  0  0  0  0999 V2000
  187.4290  177.9450  147.1810 C   0  0  0  0  0  2  0  0  0  0  0  0
  189.6580  176.9820  147.7570 C   0  0  0  0  0  1  0  0  0  0  0  0
  188.6270  177.1700  146.6580 C   0  0  2  0  0  3  0  0  0  0  0  0
  189.2200  177.8400  145.5010 N   0  0  0  0  0  2  0  0  0  0  0  0
  188.3830  176.3870  143.8820 O   0  0  0  0  0  0  0  0  0  0  0  0
  189.1000  177.3900  144.1440 C   0  0  0  0  0  0  0  0  0  0  0  0
  189.8140  178.0760  143.0960 N   0  0  0  0  0  0  0  0  0  0  0  0
  190.7870  179.0910  143.4850 C   0  0  0  0  0  1  0  0  0  0  0  0
  188.3060  178.0420  139.6640 C   0  0  0  0  0  3  0  0  0  0  0  0
  189.6070  177.7940  141.6930 C   0  0  0  0  0  0  0  0  0  0  0  0
  188.5000  178.3320  141.0150 C   0  0  0  0  0  3  0  0  0  0  0  0
  189.2090  177.2170  138.9960 C   0  0  0  0  0  3  0  0  0  0  0  0
  190.4690  176.9890  141.0100 N   0  0  0  0  0  0  0  0  0  0  0  0
  190.2970  176.6930  139.6940 C   0  0  0  0  0  3  0  0  0  0  0  0
  186.2590  177.6500  146.3670 N   0  0  0  0  0  2  0  0  0  0  0  0
  185.6560  178.9200  145.9910 C   0  0  0  0  0  2  0  0  0  0  0  0
  184.9250  178.7840  144.6970 C   0  0  0  0  0  0  0  0  0  0  0  0
  182.8700  178.9530  143.4300 C   0  0  0  0  0  0  0  0  0  0  0  0
  181.5400  179.2180  143.3610 N   0  0  0  0  0  2  0  0  0  0  0  0
  181.5470  178.7120  141.0300 C   0  0  0  0  0  3  0  0  0  0  0  0
  180.8660  179.1060  142.1850 C   0  0  0  0  0  0  0  0  0  0  0  0
  183.5550  179.0640  144.6410 C   0  0  0  0  0  3  0  0  0  0  0  0
  185.6090  178.3960  143.5370 C   0  0  0  0  0  3  0  0  0  0  0  0
  184.9270  178.2830  142.3210 C   0  0  0  0  0  3  0  0  0  0  0  0
  183.5590  178.5590  142.2630 C   0  0  0  0  0  0  0  0  0  0  0  0
  182.8790  178.4480  141.0930 N   0  0  0  0  0  0  0  0  0  0  0  0
  179.6340  179.3560  142.1380 O   0  0  0  0  0  0  0  0  0  0  0  0
  3  1  1  0  0  0  0
  3  2  1  1  0  0  0
  4  3  1  0  0  0  0
  5  6  2  0  0  0  0
  6  4  1  0  0  0  0
  7  8  1  0  0  0  0
  7  6  1  0  0  0  0
  9 11  1  0  0  0  0
 10  7  1  0  0  0  0
 11 10  2  0  0  0  0
 12  9  2  0  0  0  0
 12 14  1  0  0  0  0
 13 10  1  0  0  0  0
 14 13  2  0  0  0  0
 15  1  1  0  0  0  0
 16 15  1  0  0  0  0
 17 16  1  0  0  0  0
 18 22  2  0  0  0  0
 19 18  1  0  0  0  0
 20 26  2  0  0  0  0
 20 21  1  0  0  0  0
 21 19  1  0  0  0  0
 22 17  1  0  0  0  0
 23 17  2  0  0  0  0
 24 23  1  0  0  0  0
 25 24  2  0  0  0  0
 25 18  1  0  0  0  0
 26 25  1  0  0  0  0
 27 21  2  0  0  0  0
M  END
>  <MODEL>
4

>  <REMARK>
 VINA RESULT:      -8.4      2.103      3.722
  Name = 
  6 active torsions:
  status: ('A' for Active; 'I' for Inactive)
    1  A    between atoms: C_2  and  C_3
    2  A    between atoms: C_3  and  N_25
    3  A    between atoms: N_6  and  C_24
    4  A    between atoms: C_7  and  N_26
    5  A    between atoms: C_15  and  C_24
    6  A    between atoms: C_15  and  N_25
                            x       y       z     vdW  Elec       q    Type
                         _______ _______ _______ _____ _____    ______ ____

>  <TORSDO>
F 6

$$$$
=
 OpenBabel11042412293D

 27 29  0  0  1  0  0  0  0  0999 V2000
  185.5830  178.1680  139.2620 C   0  0  0  0  0  2  0  0  0  0  0  0
  186.8440  178.4760  137.1310 C   0  0  0  0  0  1  0  0  0  0  0  0
  186.8920  178.6260  138.6410 C   0  0  2  0  0  3  0  0  0  0  0  0
  188.0240  177.8880  139.1990 N   0  0  0  0  0  2  0  0  0  0  0  0
  188.0560  178.9560  141.2720 O   0  0  0  0  0  0  0  0  0  0  0  0
  188.5890  178.1140  140.4990 C   0  0  0  0  0  0  0  0  0  0  0  0
  189.7700  177.3940  140.9020 N   0  0  0  0  0  0  0  0  0  0  0  0
  190.4610  176.5960  139.8950 C   0  0  0  0  0  1  0  0  0  0  0  0
  190.4190  176.5220  144.4900 C   0  0  0  0  0  3  0  0  0  0  0  0
  190.2920  177.4370  142.2500 C   0  0  0  0  0  0  0  0  0  0  0  0
  189.9180  176.4610  143.1900 C   0  0  0  0  0  3  0  0  0  0  0  0
  191.2860  177.5530  144.8520 C   0  0  0  0  0  3  0  0  0  0  0  0
  191.1390  178.4330  142.6380 N   0  0  0  0  0  0  0  0  0  0  0  0
  191.6380  178.5100  143.9010 C   0  0  0  0  0  3  0  0  0  0  0  0
  185.1060  179.1720  140.2010 N   0  0  0  0  0  2  0  0  0  0  0  0
  183.9090  178.6420  140.8370 C   0  0  0  0  0  2  0  0  0  0  0  0
  184.0710  178.6320  142.3210 C   0  0  0  0  0  0  0  0  0  0  0  0
  185.4620  178.2750  144.2690 C   0  0  0  0  0  0  0  0  0  0  0  0
  186.6490  177.9260  144.8280 N   0  0  0  0  0  2  0  0  0  0  0  0
  185.7430  178.2790  147.0060 C   0  0  0  0  0  3  0  0  0  0  0  0
  186.8110  177.9210  146.1780 C   0  0  0  0  0  0  0  0  0  0  0  0
  185.3020  178.2720  142.8820 C   0  0  0  0  0  3  0  0  0  0  0  0
  183.0020  178.9980  143.1500 C   0  0  0  0  0  3  0  0  0  0  0  0
  183.1580  179.0020  144.5400 C   0  0  0  0  0  3  0  0  0  0  0  0
  184.3850  178.6410  145.1030 C   0  0  0  0  0  0  0  0  0  0  0  0
  184.5530  178.6330  146.4510 N   0  0  0  0  0  0  0  0  0  0  0  0
  187.9170  177.5960  146.6800 O   0  0  0  0  0  0  0  0  0  0  0  0
  1 15  1  0  0  0  0
  3  2  1  6  0  0  0
  3  4  1  0  0  0  0
  3  1  1  0  0  0  0
  4  6  1  0  0  0  0
  6  7  1  0  0  0  0
  6  5  2  0  0  0  0
  7 10  1  0  0  0  0
  8  7  1  0  0  0  0
  9 12  1  0  0  0  0
 10 13  2  0  0  0  0
 10 11  1  0  0  0  0
 11  9  2  0  0  0  0
 13 14  1  0  0  0  0
 14 12  2  0  0  0  0
 15 16  1  0  0  0  0
 16 17  1  0  0  0  0
 17 22  2  0  0  0  0
 17 23  1  0  0  0  0
 18 19  1  0  0  0  0
 18 25  2  0  0  0  0
 19 21  1  0  0  0  0
 21 27  2  0  0  0  0
 21 20  1  0  0  0  0
 22 18  1  0  0  0  0
 23 24  2  0  0  0  0
 24 25  1  0  0  0  0
 25 26  1  0  0  0  0
 26 20  2  0  0  0  0
M  END
>  <MODEL>
5

>  <REMARK>
 VINA RESULT:      -8.0      2.217      5.322
  Name = 
  6 active torsions:
  status: ('A' for Active; 'I' for Inactive)
    1  A    between atoms: C_2  and  C_3
    2  A    between atoms: C_3  and  N_25
    3  A    between atoms: N_6  and  C_24
    4  A    between atoms: C_7  and  N_26
    5  A    between atoms: C_15  and  C_24
    6  A    between atoms: C_15  and  N_25
                            x       y       z     vdW  Elec       q    Type
                         _______ _______ _______ _____ _____    ______ ____

>  <TORSDO>
F 6

$$$$
=
 OpenBabel11042412293D

 27 29  0  0  1  0  0  0  0  0999 V2000
  184.2390  178.6220  141.4210 C   0  0  0  0  0  2  0  0  0  0  0  0
  184.0350  179.5000  139.0950 C   0  0  0  0  0  1  0  0  0  0  0  0
  184.9780  179.2710  140.2620 C   0  0  2  0  0  3  0  0  0  0  0  0
  186.1240  178.4620  139.8520 N   0  0  0  0  0  2  0  0  0  0  0  0
  187.5070  179.0110  141.6470 O   0  0  0  0  0  0  0  0  0  0  0  0
  187.3730  178.3940  140.5550 C   0  0  0  0  0  0  0  0  0  0  0  0
  188.4690  177.6410  140.0000 N   0  0  0  0  0  0  0  0  0  0  0  0
  188.3250  177.1270  138.6410 C   0  0  0  0  0  1  0  0  0  0  0  0
  190.8350  176.5590  142.6990 C   0  0  0  0  0  3  0  0  0  0  0  0
  189.6910  177.3820  140.7280 C   0  0  0  0  0  0  0  0  0  0  0  0
  189.6480  176.7920  142.0020 C   0  0  0  0  0  3  0  0  0  0  0  0
  192.0560  176.9170  142.1280 C   0  0  0  0  0  3  0  0  0  0  0  0
  190.9020  177.7220  140.2010 N   0  0  0  0  0  0  0  0  0  0  0  0
  192.0690  177.5050  140.8630 C   0  0  0  0  0  3  0  0  0  0  0  0
  184.6760  179.2150  142.6760 N   0  0  0  0  0  2  0  0  0  0  0  0
  184.1390  178.3990  143.7550 C   0  0  0  0  0  2  0  0  0  0  0  0
  185.1230  178.3070  144.8750 C   0  0  0  0  0  0  0  0  0  0  0  0
  187.3460  177.7670  145.6640 C   0  0  0  0  0  0  0  0  0  0  0  0
  188.6060  177.3150  145.4370 N   0  0  0  0  0  2  0  0  0  0  0  0
  189.1470  177.6220  147.7400 C   0  0  0  0  0  3  0  0  0  0  0  0
  189.5120  177.2340  146.4480 C   0  0  0  0  0  0  0  0  0  0  0  0
  186.4190  177.8410  144.6230 C   0  0  0  0  0  3  0  0  0  0  0  0
  184.7590  178.7020  146.1690 C   0  0  0  0  0  3  0  0  0  0  0  0
  185.6840  178.6300  147.2150 C   0  0  0  0  0  3  0  0  0  0  0  0
  186.9770  178.1620  146.9680 C   0  0  0  0  0  0  0  0  0  0  0  0
  187.8880  178.0790  147.9720 N   0  0  0  0  0  0  0  0  0  0  0  0
  190.6760  176.8140  146.2200 O   0  0  0  0  0  0  0  0  0  0  0  0
  1 15  1  0  0  0  0
  3  2  1  6  0  0  0
  3  1  1  0  0  0  0
  4  3  1  0  0  0  0
  4  6  1  0  0  0  0
  6  5  2  0  0  0  0
  7  6  1  0  0  0  0
  7 10  1  0  0  0  0
  8  7  1  0  0  0  0
 10 11  1  0  0  0  0
 11  9  2  0  0  0  0
 12  9  1  0  0  0  0
 13 10  2  0  0  0  0
 13 14  1  0  0  0  0
 14 12  2  0  0  0  0
 15 16  1  0  0  0  0
 16 17  1  0  0  0  0
 17 23  1  0  0  0  0
 18 25  2  0  0  0  0
 19 18  1  0  0  0  0
 19 21  1  0  0  0  0
 20 26  2  0  0  0  0
 21 20  1  0  0  0  0
 22 17  2  0  0  0  0
 22 18  1  0  0  0  0
 23 24  2  0  0  0  0
 25 24  1  0  0  0  0
 25 26  1  0  0  0  0
 27 21  2  0  0  0  0
M  END
>  <MODEL>
6

>  <REMARK>
 VINA RESULT:      -7.9      2.179      5.044
  Name = 
  6 active torsions:
  status: ('A' for Active; 'I' for Inactive)
    1  A    between atoms: C_2  and  C_3
    2  A    between atoms: C_3  and  N_25
    3  A    between atoms: N_6  and  C_24
    4  A    between atoms: C_7  and  N_26
    5  A    between atoms: C_15  and  C_24
    6  A    between atoms: C_15  and  N_25
                            x       y       z     vdW  Elec       q    Type
                         _______ _______ _______ _____ _____    ______ ____

>  <TORSDO>
F 6

$$$$
=
 OpenBabel11042412293D

 27 29  0  0  1  0  0  0  0  0999 V2000
  183.6580  178.5240  144.2630 C   0  0  0  0  0  2  0  0  0  0  0  0
  181.6270  179.4040  143.1110 C   0  0  0  0  0  1  0  0  0  0  0  0
  183.1410  179.3000  143.0620 C   0  0  2  0  0  3  0  0  0  0  0  0
  183.5780  178.6840  141.8110 N   0  0  0  0  0  2  0  0  0  0  0  0
  185.6850  179.6790  141.7330 O   0  0  0  0  0  0  0  0  0  0  0  0
  184.8380  178.9320  141.1720 C   0  0  0  0  0  0  0  0  0  0  0  0
  185.1180  178.3440  139.8860 N   0  0  0  0  0  0  0  0  0  0  0  0
  184.0270  177.6670  139.1930 C   0  0  0  0  0  1  0  0  0  0  0  0
  188.8390  178.3430  139.4270 C   0  0  0  0  0  3  0  0  0  0  0  0
  186.4220  178.4040  139.2640 C   0  0  0  0  0  0  0  0  0  0  0  0
  187.5870  178.2710  140.0390 C   0  0  0  0  0  3  0  0  0  0  0  0
  188.9270  178.5510  138.0510 C   0  0  0  0  0  3  0  0  0  0  0  0
  186.5450  178.6090  137.9210 N   0  0  0  0  0  0  0  0  0  0  0  0
  187.7550  178.6830  137.3070 C   0  0  0  0  0  3  0  0  0  0  0  0
  184.8670  179.1550  144.7720 N   0  0  0  0  0  2  0  0  0  0  0  0
  185.3940  178.3020  145.8260 C   0  0  0  0  0  2  0  0  0  0  0  0
  186.7820  177.8650  145.4950 C   0  0  0  0  0  0  0  0  0  0  0  0
  189.0290  177.3190  146.2120 C   0  0  0  0  0  0  0  0  0  0  0  0
  189.9620  177.1970  147.1900 N   0  0  0  0  0  2  0  0  0  0  0  0
  191.5770  176.4950  145.5800 C   0  0  0  0  0  3  0  0  0  0  0  0
  191.2280  176.7910  146.9010 C   0  0  0  0  0  0  0  0  0  0  0  0
  187.7330  177.7410  146.5150 C   0  0  0  0  0  3  0  0  0  0  0  0
  187.1300  177.5610  144.1720 C   0  0  0  0  0  3  0  0  0  0  0  0
  188.4270  177.1370  143.8630 C   0  0  0  0  0  3  0  0  0  0  0  0
  189.3790  177.0160  144.8790 C   0  0  0  0  0  0  0  0  0  0  0  0
  190.6450  176.6130  144.5970 N   0  0  0  0  0  0  0  0  0  0  0  0
  192.0810  176.6830  147.8190 O   0  0  0  0  0  0  0  0  0  0  0  0
  1 15  1  0  0  0  0
  3  2  1  6  0  0  0
  3  1  1  0  0  0  0
  4  3  1  0  0  0  0
  6  5  2  0  0  0  0
  6  4  1  0  0  0  0
  7  6  1  0  0  0  0
  8  7  1  0  0  0  0
  9 11  1  0  0  0  0
 10  7  1  0  0  0  0
 10 11  2  0  0  0  0
 12  9  2  0  0  0  0
 13 10  1  0  0  0  0
 14 13  2  0  0  0  0
 14 12  1  0  0  0  0
 15 16  1  0  0  0  0
 17 16  1  0  0  0  0
 17 22  1  0  0  0  0
 18 22  2  0  0  0  0
 18 19  1  0  0  0  0
 20 21  1  0  0  0  0
 21 19  1  0  0  0  0
 21 27  2  0  0  0  0
 23 17  2  0  0  0  0
 24 23  1  0  0  0  0
 24 25  2  0  0  0  0
 25 18  1  0  0  0  0
 26 25  1  0  0  0  0
 26 20  2  0  0  0  0
M  END
>  <MODEL>
7

>  <REMARK>
 VINA RESULT:      -7.8      2.479      5.938
  Name = 
  6 active torsions:
  status: ('A' for Active; 'I' for Inactive)
    1  A    between atoms: C_2  and  C_3
    2  A    between atoms: C_3  and  N_25
    3  A    between atoms: N_6  and  C_24
    4  A    between atoms: C_7  and  N_26
    5  A    between atoms: C_15  and  C_24
    6  A    between atoms: C_15  and  N_25
                            x       y       z     vdW  Elec       q    Type
                         _______ _______ _______ _____ _____    ______ ____

>  <TORSDO>
F 6

$$$$
=
 OpenBabel11042412293D

 27 29  0  0  1  0  0  0  0  0999 V2000
  187.7130  177.5470  138.6420 C   0  0  0  0  0  2  0  0  0  0  0  0
  190.1730  177.5060  138.2240 C   0  0  0  0  0  1  0  0  0  0  0  0
  189.0850  177.8500  139.2250 C   0  0  2  0  0  3  0  0  0  0  0  0
  189.2910  177.1310  140.4810 N   0  0  0  0  0  2  0  0  0  0  0  0
  188.2780  178.7070  141.8700 O   0  0  0  0  0  0  0  0  0  0  0  0
  188.9040  177.6160  141.7750 C   0  0  0  0  0  0  0  0  0  0  0  0
  189.2510  176.8650  142.9550 N   0  0  0  0  0  0  0  0  0  0  0  0
  190.1530  175.7280  142.8000 C   0  0  0  0  0  1  0  0  0  0  0  0
  186.8960  177.5000  145.8020 C   0  0  0  0  0  3  0  0  0  0  0  0
  188.7480  177.1950  144.2700 C   0  0  0  0  0  0  0  0  0  0  0  0
  187.3680  177.1670  144.5320 C   0  0  0  0  0  3  0  0  0  0  0  0
  187.7960  177.8620  146.8040 C   0  0  0  0  0  3  0  0  0  0  0  0
  189.6010  177.5560  145.2720 N   0  0  0  0  0  0  0  0  0  0  0  0
  189.1610  177.8840  146.5150 C   0  0  0  0  0  3  0  0  0  0  0  0
  186.7950  178.6300  138.9600 N   0  0  0  0  0  2  0  0  0  0  0  0
  185.4760  178.2380  138.4840 C   0  0  0  0  0  2  0  0  0  0  0  0
  184.4640  178.3980  139.5690 C   0  0  0  0  0  0  0  0  0  0  0  0
  183.9430  178.6780  141.9170 C   0  0  0  0  0  0  0  0  0  0  0  0
  184.3350  178.7890  143.2110 N   0  0  0  0  0  2  0  0  0  0  0  0
  182.0600  178.9900  143.8980 C   0  0  0  0  0  3  0  0  0  0  0  0
  183.4220  178.9440  144.2070 C   0  0  0  0  0  0  0  0  0  0  0  0
  184.8850  178.5140  140.8990 C   0  0  0  0  0  3  0  0  0  0  0  0
  183.0980  178.4520  139.2590 C   0  0  0  0  0  3  0  0  0  0  0  0
  182.1510  178.6160  140.2740 C   0  0  0  0  0  3  0  0  0  0  0  0
  182.5680  178.7290  141.6030 C   0  0  0  0  0  0  0  0  0  0  0  0
  181.6620  178.8820  142.6030 N   0  0  0  0  0  0  0  0  0  0  0  0
  183.8030  179.0460  145.4020 O   0  0  0  0  0  0  0  0  0  0  0  0
  1 15  1  0  0  0  0
  1  3  1  0  0  0  0
  3  2  1  6  0  0  0
  3  4  1  0  0  0  0
  4  6  1  0  0  0  0
  6  5  2  0  0  0  0
  6  7  1  0  0  0  0
  7 10  1  0  0  0  0
  8  7  1  0  0  0  0
  9 12  1  0  0  0  0
 10 11  1  0  0  0  0
 10 13  2  0  0  0  0
 11  9  2  0  0  0  0
 13 14  1  0  0  0  0
 14 12  2  0  0  0  0
 16 15  1  0  0  0  0
 16 17  1  0  0  0  0
 17 22  1  0  0  0  0
 18 19  1  0  0  0  0
 19 21  1  0  0  0  0
 20 21  1  0  0  0  0
 21 27  2  0  0  0  0
 22 18  2  0  0  0  0
 23 17  2  0  0  0  0
 23 24  1  0  0  0  0
 24 25  2  0  0  0  0
 25 18  1  0  0  0  0
 25 26  1  0  0  0  0
 26 20  2  0  0  0  0
M  END
>  <MODEL>
8

>  <REMARK>
 VINA RESULT:      -7.8      2.384      6.092
  Name = 
  6 active torsions:
  status: ('A' for Active; 'I' for Inactive)
    1  A    between atoms: C_2  and  C_3
    2  A    between atoms: C_3  and  N_25
    3  A    between atoms: N_6  and  C_24
    4  A    between atoms: C_7  and  N_26
    5  A    between atoms: C_15  and  C_24
    6  A    between atoms: C_15  and  N_25
                            x       y       z     vdW  Elec       q    Type
                         _______ _______ _______ _____ _____    ______ ____

>  <TORSDO>
F 6

$$$$
=
 OpenBabel11042412293D

 27 29  0  0  1  0  0  0  0  0999 V2000
  184.8100  179.1920  143.2090 C   0  0  0  0  0  2  0  0  0  0  0  0
  183.1550  178.8610  145.0470 C   0  0  0  0  0  1  0  0  0  0  0  0
  184.4700  178.3890  144.4540 C   0  0  2  0  0  3  0  0  0  0  0  0
  185.5440  178.4740  145.4420 N   0  0  0  0  0  2  0  0  0  0  0  0
  187.0860  177.1600  144.2880 O   0  0  0  0  0  0  0  0  0  0  0  0
  186.8140  177.8150  145.3310 C   0  0  0  0  0  0  0  0  0  0  0  0
  187.7580  177.8900  146.4170 N   0  0  0  0  0  0  0  0  0  0  0  0
  187.3080  178.4800  147.6740 C   0  0  0  0  0  1  0  0  0  0  0  0
  191.0550  176.3370  147.2940 C   0  0  0  0  0  3  0  0  0  0  0  0
  189.1160  177.4040  146.3100 C   0  0  0  0  0  0  0  0  0  0  0  0
  189.7410  176.7900  147.4080 C   0  0  0  0  0  3  0  0  0  0  0  0
  191.7430  176.4990  146.0930 C   0  0  0  0  0  3  0  0  0  0  0  0
  189.8180  177.5500  145.1500 N   0  0  0  0  0  0  0  0  0  0  0  0
  191.1000  177.1160  145.0190 C   0  0  0  0  0  3  0  0  0  0  0  0
  184.8890  178.3050  142.0580 N   0  0  0  0  0  2  0  0  0  0  0  0
  185.2870  179.1100  140.9130 C   0  0  0  0  0  2  0  0  0  0  0  0
  186.5680  178.5990  140.3410 C   0  0  0  0  0  0  0  0  0  0  0  0
  188.8760  177.9360  140.6460 C   0  0  0  0  0  0  0  0  0  0  0  0
  189.9640  177.7660  141.4410 N   0  0  0  0  0  2  0  0  0  0  0  0
  191.2210  176.9780  139.5730 C   0  0  0  0  0  3  0  0  0  0  0  0
  191.1330  177.2930  140.9320 C   0  0  0  0  0  0  0  0  0  0  0  0
  187.6800  178.4270  141.1740 C   0  0  0  0  0  3  0  0  0  0  0  0
  186.6550  178.2750  138.9800 C   0  0  0  0  0  3  0  0  0  0  0  0
  187.8500  177.7840  138.4470 C   0  0  0  0  0  3  0  0  0  0  0  0
  188.9630  177.6140  139.2750 C   0  0  0  0  0  0  0  0  0  0  0  0
  190.1340  177.1430  138.7740 N   0  0  0  0  0  0  0  0  0  0  0  0
  192.1310  177.1410  141.6820 O   0  0  0  0  0  0  0  0  0  0  0  0
  1  3  1  0  0  0  0
  3  2  1  1  0  0  0
  3  4  1  0  0  0  0
  5  6  2  0  0  0  0
  6  4  1  0  0  0  0
  6  7  1  0  0  0  0
  7  8  1  0  0  0  0
  9 11  1  0  0  0  0
 10  7  1  0  0  0  0
 10 11  2  0  0  0  0
 12  9  2  0  0  0  0
 13 10  1  0  0  0  0
 14 13  2  0  0  0  0
 14 12  1  0  0  0  0
 15  1  1  0  0  0  0
 16 15  1  0  0  0  0
 17 16  1  0  0  0  0
 17 22  1  0  0  0  0
 18 22  2  0  0  0  0
 18 19  1  0  0  0  0
 20 21  1  0  0  0  0
 21 19  1  0  0  0  0
 21 27  2  0  0  0  0
 23 17  2  0  0  0  0
 24 23  1  0  0  0  0
 24 25  2  0  0  0  0
 25 18  1  0  0  0  0
 26 25  1  0  0  0  0
 26 20  2  0  0  0  0
M  END
>  <MODEL>
9

>  <REMARK>
 VINA RESULT:      -7.7      1.664      7.457
  Name = 
  6 active torsions:
  status: ('A' for Active; 'I' for Inactive)
    1  A    between atoms: C_2  and  C_3
    2  A    between atoms: C_3  and  N_25
    3  A    between atoms: N_6  and  C_24
    4  A    between atoms: C_7  and  N_26
    5  A    between atoms: C_15  and  C_24
    6  A    between atoms: C_15  and  N_25
                            x       y       z     vdW  Elec       q    Type
                         _______ _______ _______ _____ _____    ______ ____

>  <TORSDO>
F 6

$$$$
