=
 OpenBabel11042412013D

 28 29  0  0  1  0  0  0  0  0999 V2000
  185.7010  178.4580  144.6000 C   0  0  2  0  0  3  0  0  0  0  0  0
  184.6050  178.9940  145.5090 C   0  0  0  0  0  1  0  0  0  0  0  0
  185.1980  177.9290  143.3730 O   0  0  0  0  0  0  0  0  0  0  0  0
  185.1000  178.6330  142.1660 C   0  0  0  0  0  0  0  0  0  0  0  0
  185.7330  179.7140  142.0360 O   0  0  0  0  0  0  0  0  0  0  0  0
  184.2740  178.1600  141.1000 N   0  0  0  0  0  2  0  0  0  0  0  0
  182.8420  177.9190  138.0280 N   0  0  0  0  0  2  0  0  0  0  0  0
  182.6460  178.5980  139.3110 C   0  0  1  0  0  3  0  0  0  0  0  0
  184.2320  177.8470  137.7990 C   0  0  0  0  0  0  0  0  0  0  0  0
  184.8650  177.2920  136.6900 C   0  0  0  0  0  3  0  0  0  0  0  0
  186.9780  177.9250  137.7150 C   0  0  0  0  0  3  0  0  0  0  0  0
  186.2680  177.3310  136.6530 C   0  0  0  0  0  3  0  0  0  0  0  0
  186.3060  178.4570  138.7800 N   0  0  0  0  0  0  0  0  0  0  0  0
  184.0530  178.9200  139.8760 C   0  0  2  0  0  3  0  0  0  0  0  0
  181.8730  179.8850  139.0940 C   0  0  0  0  0  1  0  0  0  0  0  0
  184.9500  178.4090  138.8100 C   0  0  0  0  0  0  0  0  0  0  0  0
  186.7150  177.5220  145.2790 C   0  0  1  0  0  3  0  0  0  0  0  0
  187.9070  175.8820  143.2460 O   0  0  0  0  0  0  0  0  0  0  0  0
  189.8840  177.1200  143.1660 N   0  0  0  0  0  2  0  0  0  0  0  0
  188.5860  176.8470  143.6950 C   0  0  0  0  0  0  0  0  0  0  0  0
  188.0660  177.6760  144.7350 N   0  0  0  0  0  2  0  0  0  0  0  0
  190.4460  176.3550  142.0640 C   0  0  0  0  0  2  0  0  0  0  0  0
  191.8260  177.5810  140.3750 O   0  0  0  0  0  1  0  0  0  0  0  0
  189.5390  177.6740  140.3040 O   0  0  0  0  0  0  0  0  0  0  0  0
  190.5710  177.2140  140.8510 C   0  0  0  0  0  0  0  0  0  0  0  0
  186.6830  177.5410  146.6940 O   0  0  0  0  0  0  0  0  0  0  0  0
  188.1420  178.2410  148.4450 C   0  0  0  0  0  1  0  0  0  0  0  0
  187.9850  177.3930  147.1990 C   0  0  0  0  0  2  0  0  0  0  0  0
  1 17  1  0  0  0  0
  1  2  1  1  0  0  0
  3  1  1  0  0  0  0
  4  3  1  0  0  0  0
  5  4  2  0  0  0  0
  6  4  1  0  0  0  0
  7  8  1  0  0  0  0
  8 15  1  6  0  0  0
  8 14  1  0  0  0  0
  9  7  1  0  0  0  0
  9 16  1  0  0  0  0
 10  9  2  0  0  0  0
 11 13  1  0  0  0  0
 12 10  1  0  0  0  0
 12 11  2  0  0  0  0
 13 16  2  0  0  0  0
 14  6  1  1  0  0  0
 16 14  1  0  0  0  0
 17 21  1  1  0  0  0
 17 26  1  0  0  0  0
 18 20  2  0  0  0  0
 19 20  1  0  0  0  0
 20 21  1  0  0  0  0
 22 19  1  0  0  0  0
 23 25  1  0  0  0  0
 24 25  2  0  0  0  0
 25 22  1  0  0  0  0
 26 28  1  0  0  0  0
 28 27  1  0  0  0  0
M  END
>  <MODEL>
1

>  <REMARK>
 VINA RESULT:      -7.0      0.000      0.000
  Name = 
  9 active torsions:
  status: ('A' for Active; 'I' for Inactive)
    1  A    between atoms: C_1  and  O_6
    2  A    between atoms: C_1  and  C_12
    3  A    between atoms: C_2  and  O_6
    4  A    between atoms: N_7  and  C_28
    5  A    between atoms: N_8  and  C_22
    6  A    between atoms: C_12  and  N_19
    7  A    between atoms: C_12  and  O_24
    8  A    between atoms: C_14  and  C_28
    9  A    between atoms: C_23  and  O_24
                            x       y       z     vdW  Elec       q    Type
                         _______ _______ _______ _____ _____    ______ ____

>  <TORSDO>
F 9

$$$$
=
 OpenBabel11042412013D

 28 29  0  0  1  0  0  0  0  0999 V2000
  188.8220  177.5300  140.6500 C   0  0  2  0  0  3  0  0  0  0  0  0
  188.2770  177.9080  139.2790 C   0  0  0  0  0  1  0  0  0  0  0  0
  188.2280  178.2790  141.7110 O   0  0  0  0  0  0  0  0  0  0  0  0
  187.5640  177.7310  142.8160 C   0  0  0  0  0  0  0  0  0  0  0  0
  187.5530  176.4800  142.9640 O   0  0  0  0  0  0  0  0  0  0  0  0
  186.8790  178.5650  143.7530 N   0  0  0  0  0  2  0  0  0  0  0  0
  185.4540  179.4600  146.7050 N   0  0  0  0  0  2  0  0  0  0  0  0
  185.0760  179.1070  145.3340 C   0  0  1  0  0  3  0  0  0  0  0  0
  186.5650  178.6640  147.0520 C   0  0  0  0  0  0  0  0  0  0  0  0
  187.2390  178.6640  148.2710 C   0  0  0  0  0  3  0  0  0  0  0  0
  188.6820  176.9370  147.3480 C   0  0  0  0  0  3  0  0  0  0  0  0
  188.3220  177.7820  148.4160 C   0  0  0  0  0  3  0  0  0  0  0  0
  187.9840  176.9760  146.1740 N   0  0  0  0  0  0  0  0  0  0  0  0
  186.0800  178.0300  144.8480 C   0  0  2  0  0  3  0  0  0  0  0  0
  183.6690  178.5400  145.3220 C   0  0  0  0  0  1  0  0  0  0  0  0
  186.9430  177.8370  146.0400 C   0  0  0  0  0  0  0  0  0  0  0  0
  190.3550  177.4700  140.7510 C   0  0  1  0  0  3  0  0  0  0  0  0
  191.0570  178.6290  143.2810 O   0  0  0  0  0  0  0  0  0  0  0  0
  191.4590  176.5710  144.3060 N   0  0  0  0  0  2  0  0  0  0  0  0
  191.1050  177.3720  143.1780 C   0  0  0  0  0  0  0  0  0  0  0  0
  190.8070  176.7360  141.9350 N   0  0  0  0  0  2  0  0  0  0  0  0
  191.7130  177.1490  145.6160 C   0  0  0  0  0  2  0  0  0  0  0  0
  192.2810  174.7720  146.1520 O   0  0  0  0  0  0  0  0  0  0  0  0
  192.2080  176.3570  147.8040 O   0  0  0  0  0  1  0  0  0  0  0  0
  192.1090  176.0850  146.5820 C   0  0  0  0  0  0  0  0  0  0  0  0
  191.0110  177.0630  139.5640 O   0  0  0  0  0  0  0  0  0  0  0  0
  193.1020  176.6090  138.5120 C   0  0  0  0  0  1  0  0  0  0  0  0
  192.4010  177.1860  139.7250 C   0  0  0  0  0  2  0  0  0  0  0  0
  1  2  1  6  0  0  0
  1 17  1  0  0  0  0
  1  3  1  0  0  0  0
  3  4  1  0  0  0  0
  4  5  2  0  0  0  0
  4  6  1  0  0  0  0
  7  9  1  0  0  0  0
  8 15  1  1  0  0  0
  8  7  1  0  0  0  0
  9 10  1  0  0  0  0
 10 12  2  0  0  0  0
 11 12  1  0  0  0  0
 13 11  2  0  0  0  0
 14  6  1  6  0  0  0
 14  8  1  0  0  0  0
 14 16  1  0  0  0  0
 16 13  1  0  0  0  0
 16  9  2  0  0  0  0
 17 26  1  6  0  0  0
 17 21  1  0  0  0  0
 19 22  1  0  0  0  0
 20 18  2  0  0  0  0
 20 19  1  0  0  0  0
 21 20  1  0  0  0  0
 22 25  1  0  0  0  0
 23 25  2  0  0  0  0
 25 24  1  0  0  0  0
 26 28  1  0  0  0  0
 27 28  1  0  0  0  0
M  END
>  <MODEL>
2

>  <REMARK>
 VINA RESULT:      -7.0      3.303      7.133
  Name = 
  9 active torsions:
  status: ('A' for Active; 'I' for Inactive)
    1  A    between atoms: C_1  and  O_6
    2  A    between atoms: C_1  and  C_12
    3  A    between atoms: C_2  and  O_6
    4  A    between atoms: N_7  and  C_28
    5  A    between atoms: N_8  and  C_22
    6  A    between atoms: C_12  and  N_19
    7  A    between atoms: C_12  and  O_24
    8  A    between atoms: C_14  and  C_28
    9  A    between atoms: C_23  and  O_24
                            x       y       z     vdW  Elec       q    Type
                         _______ _______ _______ _____ _____    ______ ____

>  <TORSDO>
F 9

$$$$
=
 OpenBabel11042412013D

 28 29  0  0  1  0  0  0  0  0999 V2000
  186.6310  178.1970  139.0150 C   0  0  2  0  0  3  0  0  0  0  0  0
  186.1320  178.2160  137.5770 C   0  0  0  0  0  1  0  0  0  0  0  0
  185.8150  178.9660  139.8980 O   0  0  0  0  0  0  0  0  0  0  0  0
  185.0630  178.4510  140.9610 C   0  0  0  0  0  0  0  0  0  0  0  0
  183.9730  177.8700  140.7150 O   0  0  0  0  0  0  0  0  0  0  0  0
  185.4980  178.6020  142.3150 N   0  0  0  0  0  2  0  0  0  0  0  0
  184.0880  179.7930  145.1670 N   0  0  0  0  0  2  0  0  0  0  0  0
  183.7040  179.3190  143.8350 C   0  0  1  0  0  3  0  0  0  0  0  0
  185.1860  179.0160  145.5900 C   0  0  0  0  0  0  0  0  0  0  0  0
  185.8600  179.1200  146.8030 C   0  0  0  0  0  3  0  0  0  0  0  0
  187.2750  177.2910  146.0490 C   0  0  0  0  0  3  0  0  0  0  0  0
  186.9290  178.2380  147.0330 C   0  0  0  0  0  3  0  0  0  0  0  0
  186.5780  177.2310  144.8750 N   0  0  0  0  0  0  0  0  0  0  0  0
  184.6910  178.1850  143.4540 C   0  0  2  0  0  3  0  0  0  0  0  0
  182.2890  178.7760  143.8740 C   0  0  0  0  0  1  0  0  0  0  0  0
  185.5510  178.0920  144.6600 C   0  0  0  0  0  0  0  0  0  0  0  0
  188.1310  178.4850  139.1910 C   0  0  1  0  0  3  0  0  0  0  0  0
  188.7220  178.5670  141.9980 O   0  0  0  0  0  0  0  0  0  0  0  0
  189.6420  176.4220  142.0420 N   0  0  0  0  0  2  0  0  0  0  0  0
  189.0430  177.5260  141.3610 C   0  0  0  0  0  0  0  0  0  0  0  0
  188.8140  177.4380  139.9540 N   0  0  0  0  0  2  0  0  0  0  0  0
  189.8460  176.4200  143.4820 C   0  0  0  0  0  2  0  0  0  0  0  0
  191.8560  176.0290  144.9190 O   0  0  0  0  0  1  0  0  0  0  0  0
  191.9760  177.4090  143.0950 O   0  0  0  0  0  0  0  0  0  0  0  0
  191.2890  176.6270  143.7980 C   0  0  0  0  0  0  0  0  0  0  0  0
  188.8110  178.8310  137.9980 O   0  0  0  0  0  0  0  0  0  0  0  0
  189.4670  177.2420  136.3460 C   0  0  0  0  0  1  0  0  0  0  0  0
  189.7720  177.8510  137.6990 C   0  0  0  0  0  2  0  0  0  0  0  0
  1  2  1  6  0  0  0
  1 17  1  0  0  0  0
  1  3  1  0  0  0  0
  3  4  1  0  0  0  0
  4  6  1  0  0  0  0
  5  4  2  0  0  0  0
  7  9  1  0  0  0  0
  8 15  1  1  0  0  0
  8  7  1  0  0  0  0
  9 10  1  0  0  0  0
 10 12  2  0  0  0  0
 11 12  1  0  0  0  0
 13 11  2  0  0  0  0
 14  6  1  6  0  0  0
 14  8  1  0  0  0  0
 14 16  1  0  0  0  0
 16 13  1  0  0  0  0
 16  9  2  0  0  0  0
 17 26  1  6  0  0  0
 17 21  1  0  0  0  0
 19 22  1  0  0  0  0
 20 18  2  0  0  0  0
 20 19  1  0  0  0  0
 21 20  1  0  0  0  0
 22 25  1  0  0  0  0
 24 25  2  0  0  0  0
 25 23  1  0  0  0  0
 27 28  1  0  0  0  0
 28 26  1  0  0  0  0
M  END
>  <MODEL>
3

>  <REMARK>
 VINA RESULT:      -7.0      2.379      6.315
  Name = 
  9 active torsions:
  status: ('A' for Active; 'I' for Inactive)
    1  A    between atoms: C_1  and  O_6
    2  A    between atoms: C_1  and  C_12
    3  A    between atoms: C_2  and  O_6
    4  A    between atoms: N_7  and  C_28
    5  A    between atoms: N_8  and  C_22
    6  A    between atoms: C_12  and  N_19
    7  A    between atoms: C_12  and  O_24
    8  A    between atoms: C_14  and  C_28
    9  A    between atoms: C_23  and  O_24
                            x       y       z     vdW  Elec       q    Type
                         _______ _______ _______ _____ _____    ______ ____

>  <TORSDO>
F 9

$$$$
=
 OpenBabel11042412013D

 28 29  0  0  1  0  0  0  0  0999 V2000
  188.1710  177.8340  146.9180 C   0  0  2  0  0  3  0  0  0  0  0  0
  188.0980  177.9700  148.4320 C   0  0  0  0  0  1  0  0  0  0  0  0
  186.9070  177.5340  146.3240 O   0  0  0  0  0  0  0  0  0  0  0  0
  186.1070  178.4430  145.6200 C   0  0  0  0  0  0  0  0  0  0  0  0
  185.6900  179.4750  146.2100 O   0  0  0  0  0  0  0  0  0  0  0  0
  185.7360  178.2010  144.2610 N   0  0  0  0  0  2  0  0  0  0  0  0
  182.8220  178.1160  142.5150 N   0  0  0  0  0  2  0  0  0  0  0  0
  183.3550  178.5970  143.7920 C   0  0  1  0  0  3  0  0  0  0  0  0
  183.8330  178.2860  141.5470 C   0  0  0  0  0  0  0  0  0  0  0  0
  183.7490  177.9710  140.1930 C   0  0  0  0  0  3  0  0  0  0  0  0
  186.0280  178.7930  139.9720 C   0  0  0  0  0  3  0  0  0  0  0  0
  184.8740  178.2300  139.3930 C   0  0  0  0  0  3  0  0  0  0  0  0
  186.0560  179.0840  141.3080 N   0  0  0  0  0  0  0  0  0  0  0  0
  184.8120  179.0600  143.5310 C   0  0  2  0  0  3  0  0  0  0  0  0
  182.5240  179.7670  144.2830 C   0  0  0  0  0  1  0  0  0  0  0  0
  184.9650  178.8250  142.0740 C   0  0  0  0  0  0  0  0  0  0  0  0
  189.3010  176.9310  146.3960 C   0  0  1  0  0  3  0  0  0  0  0  0
  188.5230  176.2720  143.7130 O   0  0  0  0  0  0  0  0  0  0  0  0
  190.0510  177.7350  142.7270 N   0  0  0  0  0  2  0  0  0  0  0  0
  189.4510  177.1140  143.8640 C   0  0  0  0  0  0  0  0  0  0  0  0
  189.9120  177.4540  145.1720 N   0  0  0  0  0  2  0  0  0  0  0  0
  189.5870  177.4810  141.3730 C   0  0  0  0  0  2  0  0  0  0  0  0
  192.0200  177.5510  140.7930 O   0  0  0  0  0  1  0  0  0  0  0  0
  190.5280  176.4620  139.4390 O   0  0  0  0  0  0  0  0  0  0  0  0
  190.7350  177.1090  140.4960 C   0  0  0  0  0  0  0  0  0  0  0  0
  190.2550  176.5520  147.3720 O   0  0  0  0  0  0  0  0  0  0  0  0
  192.3870  175.4940  147.2430 C   0  0  0  0  0  1  0  0  0  0  0  0
  191.5500  176.6930  146.8480 C   0  0  0  0  0  2  0  0  0  0  0  0
  1  2  1  1  0  0  0
  3  1  1  0  0  0  0
  4  5  2  0  0  0  0
  4  3  1  0  0  0  0
  6  4  1  0  0  0  0
  7  8  1  0  0  0  0
  8 15  1  6  0  0  0
  9 16  1  0  0  0  0
  9  7  1  0  0  0  0
 10  9  2  0  0  0  0
 11 13  1  0  0  0  0
 12 11  2  0  0  0  0
 12 10  1  0  0  0  0
 13 16  2  0  0  0  0
 14  8  1  0  0  0  0
 14  6  1  1  0  0  0
 16 14  1  0  0  0  0
 17 21  1  6  0  0  0
 17  1  1  0  0  0  0
 17 26  1  0  0  0  0
 18 20  2  0  0  0  0
 19 20  1  0  0  0  0
 20 21  1  0  0  0  0
 22 19  1  0  0  0  0
 24 25  2  0  0  0  0
 25 23  1  0  0  0  0
 25 22  1  0  0  0  0
 28 27  1  0  0  0  0
 28 26  1  0  0  0  0
M  END
>  <MODEL>
4

>  <REMARK>
 VINA RESULT:      -6.8      2.048      3.316
  Name = 
  9 active torsions:
  status: ('A' for Active; 'I' for Inactive)
    1  A    between atoms: C_1  and  O_6
    2  A    between atoms: C_1  and  C_12
    3  A    between atoms: C_2  and  O_6
    4  A    between atoms: N_7  and  C_28
    5  A    between atoms: N_8  and  C_22
    6  A    between atoms: C_12  and  N_19
    7  A    between atoms: C_12  and  O_24
    8  A    between atoms: C_14  and  C_28
    9  A    between atoms: C_23  and  O_24
                            x       y       z     vdW  Elec       q    Type
                         _______ _______ _______ _____ _____    ______ ____

>  <TORSDO>
F 9

$$$$
=
 OpenBabel11042412013D

 28 29  0  0  1  0  0  0  0  0999 V2000
  186.1950  178.2750  144.4210 C   0  0  2  0  0  3  0  0  0  0  0  0
  185.6920  178.1430  145.8520 C   0  0  0  0  0  1  0  0  0  0  0  0
  185.1930  177.9760  143.4480 O   0  0  0  0  0  0  0  0  0  0  0  0
  185.0060  178.6610  142.2410 C   0  0  0  0  0  0  0  0  0  0  0  0
  185.6190  179.7450  142.0510 O   0  0  0  0  0  0  0  0  0  0  0  0
  184.1110  178.1650  141.2420 N   0  0  0  0  0  2  0  0  0  0  0  0
  182.5320  177.8420  138.2510 N   0  0  0  0  0  2  0  0  0  0  0  0
  182.3770  178.5260  139.5370 C   0  0  1  0  0  3  0  0  0  0  0  0
  183.9100  177.8180  137.9510 C   0  0  0  0  0  0  0  0  0  0  0  0
  184.5040  177.2750  136.8150 C   0  0  0  0  0  3  0  0  0  0  0  0
  186.6430  177.9950  137.7230 C   0  0  0  0  0  3  0  0  0  0  0  0
  185.9010  177.3660  136.7040 C   0  0  0  0  0  3  0  0  0  0  0  0
  186.0080  178.5130  138.8170 N   0  0  0  0  0  0  0  0  0  0  0  0
  183.8000  178.9040  140.0260 C   0  0  2  0  0  3  0  0  0  0  0  0
  181.5470  179.7820  139.3510 C   0  0  0  0  0  1  0  0  0  0  0  0
  184.6580  178.4160  138.9180 C   0  0  0  0  0  0  0  0  0  0  0  0
  187.5330  177.5750  144.1300 C   0  0  1  0  0  3  0  0  0  0  0  0
  190.0990  178.1860  145.2620 O   0  0  0  0  0  0  0  0  0  0  0  0
  189.8320  176.7430  147.0780 N   0  0  0  0  0  2  0  0  0  0  0  0
  189.3810  177.3370  145.8590 C   0  0  0  0  0  0  0  0  0  0  0  0
  188.1110  176.9590  145.3260 N   0  0  0  0  0  2  0  0  0  0  0  0
  191.0850  177.1280  147.7080 C   0  0  0  0  0  2  0  0  0  0  0  0
  193.1250  175.8870  148.4530 O   0  0  0  0  0  1  0  0  0  0  0  0
  192.0950  175.3600  146.4770 O   0  0  0  0  0  0  0  0  0  0  0  0
  192.1060  176.0580  147.5210 C   0  0  0  0  0  0  0  0  0  0  0  0
  187.5150  176.7050  143.0130 O   0  0  0  0  0  0  0  0  0  0  0  0
  188.8040  178.3270  141.8350 C   0  0  0  0  0  1  0  0  0  0  0  0
  188.6870  176.8780  142.2580 C   0  0  0  0  0  2  0  0  0  0  0  0
  1  2  1  1  0  0  0
  3  1  1  0  0  0  0
  4  3  1  0  0  0  0
  5  4  2  0  0  0  0
  6  4  1  0  0  0  0
  7  8  1  0  0  0  0
  8 15  1  6  0  0  0
  8 14  1  0  0  0  0
  9  7  1  0  0  0  0
  9 16  1  0  0  0  0
 10  9  2  0  0  0  0
 11 13  1  0  0  0  0
 12 10  1  0  0  0  0
 12 11  2  0  0  0  0
 13 16  2  0  0  0  0
 14  6  1  1  0  0  0
 16 14  1  0  0  0  0
 17 26  1  6  0  0  0
 17  1  1  0  0  0  0
 17 21  1  0  0  0  0
 18 20  2  0  0  0  0
 19 22  1  0  0  0  0
 20 19  1  0  0  0  0
 21 20  1  0  0  0  0
 24 25  2  0  0  0  0
 25 22  1  0  0  0  0
 25 23  1  0  0  0  0
 27 28  1  0  0  0  0
 28 26  1  0  0  0  0
M  END
>  <MODEL>
5

>  <REMARK>
 VINA RESULT:      -6.8      2.284      3.416
  Name = 
  9 active torsions:
  status: ('A' for Active; 'I' for Inactive)
    1  A    between atoms: C_1  and  O_6
    2  A    between atoms: C_1  and  C_12
    3  A    between atoms: C_2  and  O_6
    4  A    between atoms: N_7  and  C_28
    5  A    between atoms: N_8  and  C_22
    6  A    between atoms: C_12  and  N_19
    7  A    between atoms: C_12  and  O_24
    8  A    between atoms: C_14  and  C_28
    9  A    between atoms: C_23  and  O_24
                            x       y       z     vdW  Elec       q    Type
                         _______ _______ _______ _____ _____    ______ ____

>  <TORSDO>
F 9

$$$$
=
 OpenBabel11042412013D

 28 29  0  0  1  0  0  0  0  0999 V2000
  186.2330  178.3670  144.9370 C   0  0  2  0  0  3  0  0  0  0  0  0
  185.3850  178.7240  146.1490 C   0  0  0  0  0  1  0  0  0  0  0  0
  185.4690  177.8130  143.8650 O   0  0  0  0  0  0  0  0  0  0  0  0
  184.9990  178.5250  142.7540 C   0  0  0  0  0  0  0  0  0  0  0  0
  185.3010  179.7420  142.6340 O   0  0  0  0  0  0  0  0  0  0  0  0
  184.1610  177.9000  141.7780 N   0  0  0  0  0  2  0  0  0  0  0  0
  182.1850  177.4640  139.0490 N   0  0  0  0  0  2  0  0  0  0  0  0
  182.1430  178.0650  140.3840 C   0  0  1  0  0  3  0  0  0  0  0  0
  183.4860  177.6600  138.5410 C   0  0  0  0  0  0  0  0  0  0  0  0
  183.9610  177.2580  137.2960 C   0  0  0  0  0  3  0  0  0  0  0  0
  186.0930  178.2540  137.9090 C   0  0  0  0  0  3  0  0  0  0  0  0
  185.2950  177.5610  136.9780 C   0  0  0  0  0  3  0  0  0  0  0  0
  185.5750  178.6260  139.1180 N   0  0  0  0  0  0  0  0  0  0  0  0
  183.5570  178.6330  140.6730 C   0  0  2  0  0  3  0  0  0  0  0  0
  181.1240  179.1890  140.4070 C   0  0  0  0  0  1  0  0  0  0  0  0
  184.2860  178.3230  139.4180 C   0  0  0  0  0  0  0  0  0  0  0  0
  187.5020  177.5530  145.2430 C   0  0  1  0  0  3  0  0  0  0  0  0
  188.2240  176.0100  142.9330 O   0  0  0  0  0  0  0  0  0  0  0  0
  189.9100  177.4790  142.2660 N   0  0  0  0  0  2  0  0  0  0  0  0
  188.8780  177.0640  143.1620 C   0  0  0  0  0  0  0  0  0  0  0  0
  188.5950  177.8560  144.3170 N   0  0  0  0  0  2  0  0  0  0  0  0
  190.2070  176.7550  141.0400 C   0  0  0  0  0  2  0  0  0  0  0  0
  188.8990  178.5740  139.9260 O   0  0  0  0  0  1  0  0  0  0  0  0
  190.4650  177.3770  138.7580 O   0  0  0  0  0  0  0  0  0  0  0  0
  189.8910  177.6000  139.8530 C   0  0  0  0  0  0  0  0  0  0  0  0
  187.9060  177.5740  146.6000 O   0  0  0  0  0  0  0  0  0  0  0  0
  190.0200  176.7060  147.2780 C   0  0  0  0  0  1  0  0  0  0  0  0
  189.2740  177.8820  146.6830 C   0  0  0  0  0  2  0  0  0  0  0  0
  1 17  1  0  0  0  0
  1  2  1  1  0  0  0
  3  1  1  0  0  0  0
  4  3  1  0  0  0  0
  5  4  2  0  0  0  0
  6  4  1  0  0  0  0
  7  8  1  0  0  0  0
  8 15  1  6  0  0  0
  8 14  1  0  0  0  0
  9  7  1  0  0  0  0
  9 16  1  0  0  0  0
 10  9  2  0  0  0  0
 11 13  1  0  0  0  0
 12 10  1  0  0  0  0
 12 11  2  0  0  0  0
 13 16  2  0  0  0  0
 14  6  1  1  0  0  0
 16 14  1  0  0  0  0
 17 21  1  6  0  0  0
 17 26  1  0  0  0  0
 18 20  2  0  0  0  0
 19 20  1  0  0  0  0
 20 21  1  0  0  0  0
 22 19  1  0  0  0  0
 24 25  2  0  0  0  0
 25 23  1  0  0  0  0
 25 22  1  0  0  0  0
 26 28  1  0  0  0  0
 28 27  1  0  0  0  0
M  END
>  <MODEL>
6

>  <REMARK>
 VINA RESULT:      -6.5      1.085      1.279
  Name = 
  9 active torsions:
  status: ('A' for Active; 'I' for Inactive)
    1  A    between atoms: C_1  and  O_6
    2  A    between atoms: C_1  and  C_12
    3  A    between atoms: C_2  and  O_6
    4  A    between atoms: N_7  and  C_28
    5  A    between atoms: N_8  and  C_22
    6  A    between atoms: C_12  and  N_19
    7  A    between atoms: C_12  and  O_24
    8  A    between atoms: C_14  and  C_28
    9  A    between atoms: C_23  and  O_24
                            x       y       z     vdW  Elec       q    Type
                         _______ _______ _______ _____ _____    ______ ____

>  <TORSDO>
F 9

$$$$
=
 OpenBabel11042412013D

 28 29  0  0  1  0  0  0  0  0999 V2000
  184.7070  178.4020  143.6600 C   0  0  2  0  0  3  0  0  0  0  0  0
  184.4610  179.0170  145.0300 C   0  0  0  0  0  1  0  0  0  0  0  0
  186.0350  178.6160  143.1830 O   0  0  0  0  0  0  0  0  0  0  0  0
  187.0960  177.7110  143.3060 C   0  0  0  0  0  0  0  0  0  0  0  0
  187.0570  176.8430  144.2180 O   0  0  0  0  0  0  0  0  0  0  0  0
  188.2290  177.7770  142.4360 N   0  0  0  0  0  2  0  0  0  0  0  0
  191.6080  177.9320  142.7550 N   0  0  0  0  0  2  0  0  0  0  0  0
  190.4150  177.6290  143.5500 C   0  0  1  0  0  3  0  0  0  0  0  0
  191.3780  177.4500  141.4510 C   0  0  0  0  0  0  0  0  0  0  0  0
  192.2570  177.5150  140.3730 C   0  0  0  0  0  3  0  0  0  0  0  0
  190.5620  176.3650  139.0610 C   0  0  0  0  0  3  0  0  0  0  0  0
  191.8340  176.9620  139.1530 C   0  0  0  0  0  3  0  0  0  0  0  0
  189.7390  176.3260  140.1520 N   0  0  0  0  0  0  0  0  0  0  0  0
  189.4030  176.9320  142.6040 C   0  0  2  0  0  3  0  0  0  0  0  0
  190.7830  176.6940  144.6870 C   0  0  0  0  0  1  0  0  0  0  0  0
  190.1540  176.8690  141.3250 C   0  0  0  0  0  0  0  0  0  0  0  0
  183.6370  178.7160  142.6000 C   0  0  1  0  0  3  0  0  0  0  0  0
  184.8200  179.7650  140.2050 O   0  0  0  0  0  0  0  0  0  0  0  0
  184.7290  177.7300  139.0640 N   0  0  0  0  0  2  0  0  0  0  0  0
  184.4830  178.5490  140.2090 C   0  0  0  0  0  0  0  0  0  0  0  0
  183.8530  177.9760  141.3550 N   0  0  0  0  0  2  0  0  0  0  0  0
  185.4220  178.2330  137.8890 C   0  0  0  0  0  2  0  0  0  0  0  0
  187.8450  178.6290  138.3740 O   0  0  0  0  0  1  0  0  0  0  0  0
  187.1520  176.6740  137.4010 O   0  0  0  0  0  0  0  0  0  0  0  0
  186.8450  177.7860  137.8990 C   0  0  0  0  0  0  0  0  0  0  0  0
  182.3020  178.6380  143.0660 O   0  0  0  0  0  0  0  0  0  0  0  0
  180.3380  179.9390  142.7010 C   0  0  0  0  0  1  0  0  0  0  0  0
  181.4250  179.0950  142.0680 C   0  0  0  0  0  2  0  0  0  0  0  0
  1  2  1  1  0  0  0
  3  4  1  0  0  0  0
  3  1  1  0  0  0  0
  4  5  2  0  0  0  0
  6  4  1  0  0  0  0
  7  8  1  0  0  0  0
  8 15  1  1  0  0  0
  9  7  1  0  0  0  0
 10  9  2  0  0  0  0
 11 12  2  0  0  0  0
 11 13  1  0  0  0  0
 12 10  1  0  0  0  0
 13 16  2  0  0  0  0
 14  6  1  6  0  0  0
 14  8  1  0  0  0  0
 16  9  1  0  0  0  0
 16 14  1  0  0  0  0
 17 21  1  6  0  0  0
 17 26  1  0  0  0  0
 17  1  1  0  0  0  0
 18 20  2  0  0  0  0
 19 20  1  0  0  0  0
 20 21  1  0  0  0  0
 22 25  1  0  0  0  0
 22 19  1  0  0  0  0
 24 25  2  0  0  0  0
 25 23  1  0  0  0  0
 28 27  1  0  0  0  0
 28 26  1  0  0  0  0
M  END
>  <MODEL>
7

>  <REMARK>
 VINA RESULT:      -6.5      2.158      6.231
  Name = 
  9 active torsions:
  status: ('A' for Active; 'I' for Inactive)
    1  A    between atoms: C_1  and  O_6
    2  A    between atoms: C_1  and  C_12
    3  A    between atoms: C_2  and  O_6
    4  A    between atoms: N_7  and  C_28
    5  A    between atoms: N_8  and  C_22
    6  A    between atoms: C_12  and  N_19
    7  A    between atoms: C_12  and  O_24
    8  A    between atoms: C_14  and  C_28
    9  A    between atoms: C_23  and  O_24
                            x       y       z     vdW  Elec       q    Type
                         _______ _______ _______ _____ _____    ______ ____

>  <TORSDO>
F 9

$$$$
=
 OpenBabel11042412013D

 28 29  0  0  1  0  0  0  0  0999 V2000
  184.9960  178.0330  143.8250 C   0  0  2  0  0  3  0  0  0  0  0  0
  185.4430  178.7410  145.0960 C   0  0  0  0  0  1  0  0  0  0  0  0
  186.0610  177.3500  143.1630 O   0  0  0  0  0  0  0  0  0  0  0  0
  187.3980  177.7650  143.1390 C   0  0  0  0  0  0  0  0  0  0  0  0
  187.7570  178.6240  142.2920 O   0  0  0  0  0  0  0  0  0  0  0  0
  188.3590  177.2080  144.0390 N   0  0  0  0  0  2  0  0  0  0  0  0
  191.4020  175.7590  143.6030 N   0  0  0  0  0  2  0  0  0  0  0  0
  190.4610  176.6340  142.9000 C   0  0  1  0  0  3  0  0  0  0  0  0
  191.3370  176.0880  144.9730 C   0  0  0  0  0  0  0  0  0  0  0  0
  192.0760  175.5100  146.0020 C   0  0  0  0  0  3  0  0  0  0  0  0
  190.9380  177.0280  147.5240 C   0  0  0  0  0  3  0  0  0  0  0  0
  191.8660  175.9920  147.3050 C   0  0  0  0  0  3  0  0  0  0  0  0
  190.2400  177.5610  146.4760 N   0  0  0  0  0  0  0  0  0  0  0  0
  189.7800  177.5250  143.9710 C   0  0  2  0  0  3  0  0  0  0  0  0
  191.2140  177.5050  141.9120 C   0  0  0  0  0  1  0  0  0  0  0  0
  190.4450  177.0840  145.2220 C   0  0  0  0  0  0  0  0  0  0  0  0
  184.1480  178.8850  142.8650 C   0  0  1  0  0  3  0  0  0  0  0  0
  184.9270  179.7510  140.2420 O   0  0  0  0  0  0  0  0  0  0  0  0
  184.0520  177.8690  139.1740 N   0  0  0  0  0  2  0  0  0  0  0  0
  184.3090  178.6550  140.3380 C   0  0  0  0  0  0  0  0  0  0  0  0
  183.8580  178.1880  141.6100 N   0  0  0  0  0  2  0  0  0  0  0  0
  184.5370  178.2550  137.8580 C   0  0  0  0  0  2  0  0  0  0  0  0
  186.2330  176.4320  137.6130 O   0  0  0  0  0  0  0  0  0  0  0  0
  186.8780  178.6290  137.6460 O   0  0  0  0  0  1  0  0  0  0  0  0
  185.9420  177.7910  137.6700 C   0  0  0  0  0  0  0  0  0  0  0  0
  183.0000  179.4700  143.4510 O   0  0  0  0  0  0  0  0  0  0  0  0
  180.8190  178.6270  143.9180 C   0  0  0  0  0  1  0  0  0  0  0  0
  181.8430  178.9480  142.8490 C   0  0  0  0  0  2  0  0  0  0  0  0
  1  2  1  1  0  0  0
  3  1  1  0  0  0  0
  4  3  1  0  0  0  0
  4  6  1  0  0  0  0
  5  4  2  0  0  0  0
  7  9  1  0  0  0  0
  8 15  1  6  0  0  0
  8  7  1  0  0  0  0
  8 14  1  0  0  0  0
  9 16  2  0  0  0  0
  9 10  1  0  0  0  0
 10 12  2  0  0  0  0
 12 11  1  0  0  0  0
 13 11  2  0  0  0  0
 14  6  1  1  0  0  0
 14 16  1  0  0  0  0
 16 13  1  0  0  0  0
 17 21  1  6  0  0  0
 17 26  1  0  0  0  0
 17  1  1  0  0  0  0
 18 20  2  0  0  0  0
 19 20  1  0  0  0  0
 20 21  1  0  0  0  0
 22 19  1  0  0  0  0
 23 25  2  0  0  0  0
 24 25  1  0  0  0  0
 25 22  1  0  0  0  0
 28 26  1  0  0  0  0
 28 27  1  0  0  0  0
M  END
>  <MODEL>
8

>  <REMARK>
 VINA RESULT:      -6.5      2.453      7.316
  Name = 
  9 active torsions:
  status: ('A' for Active; 'I' for Inactive)
    1  A    between atoms: C_1  and  O_6
    2  A    between atoms: C_1  and  C_12
    3  A    between atoms: C_2  and  O_6
    4  A    between atoms: N_7  and  C_28
    5  A    between atoms: N_8  and  C_22
    6  A    between atoms: C_12  and  N_19
    7  A    between atoms: C_12  and  O_24
    8  A    between atoms: C_14  and  C_28
    9  A    between atoms: C_23  and  O_24
                            x       y       z     vdW  Elec       q    Type
                         _______ _______ _______ _____ _____    ______ ____

>  <TORSDO>
F 9

$$$$
=
 OpenBabel11042412013D

 28 29  0  0  1  0  0  0  0  0999 V2000
  190.6000  176.7680  144.3020 C   0  0  2  0  0  3  0  0  0  0  0  0
  191.6680  177.8140  144.0160 C   0  0  0  0  0  1  0  0  0  0  0  0
  189.9170  176.3320  143.1260 O   0  0  0  0  0  0  0  0  0  0  0  0
  189.8510  177.0380  141.9190 C   0  0  0  0  0  0  0  0  0  0  0  0
  189.1650  178.0930  141.8640 O   0  0  0  0  0  0  0  0  0  0  0  0
  190.5220  176.5650  140.7490 N   0  0  0  0  0  2  0  0  0  0  0  0
  189.3710  175.9990  137.6020 N   0  0  0  0  0  2  0  0  0  0  0  0
  189.0420  176.7800  138.7980 C   0  0  1  0  0  3  0  0  0  0  0  0
  190.7770  175.9630  137.4980 C   0  0  0  0  0  0  0  0  0  0  0  0
  191.5200  175.3380  136.5010 C   0  0  0  0  0  3  0  0  0  0  0  0
  193.5160  176.1420  137.6370 C   0  0  0  0  0  3  0  0  0  0  0  0
  192.9200  175.4300  136.5770 C   0  0  0  0  0  3  0  0  0  0  0  0
  192.7370  176.7390  138.5890 N   0  0  0  0  0  0  0  0  0  0  0  0
  190.3840  177.2050  139.4470 C   0  0  2  0  0  3  0  0  0  0  0  0
  188.2500  178.0110  138.4010 C   0  0  0  0  0  1  0  0  0  0  0  0
  191.3850  176.6390  138.5100 C   0  0  0  0  0  0  0  0  0  0  0  0
  189.6400  177.1110  145.4540 C   0  0  1  0  0  3  0  0  0  0  0  0
  187.4900  178.4900  146.7630 O   0  0  0  0  0  0  0  0  0  0  0  0
  185.8970  177.8720  145.1730 N   0  0  0  0  0  2  0  0  0  0  0  0
  187.2220  177.8560  145.7050 C   0  0  0  0  0  0  0  0  0  0  0  0
  188.2380  177.1160  145.0280 N   0  0  0  0  0  2  0  0  0  0  0  0
  184.8300  178.6550  145.7770 C   0  0  0  0  0  2  0  0  0  0  0  0
  182.6770  178.6510  144.5030 O   0  0  0  0  0  1  0  0  0  0  0  0
  184.3470  180.1240  143.9690 O   0  0  0  0  0  0  0  0  0  0  0  0
  183.9340  179.2070  144.7210 C   0  0  0  0  0  0  0  0  0  0  0  0
  189.8530  176.3720  146.6420 O   0  0  0  0  0  0  0  0  0  0  0  0
  192.0370  175.8670  147.4550 C   0  0  0  0  0  1  0  0  0  0  0  0
  190.9440  176.9100  147.3450 C   0  0  0  0  0  2  0  0  0  0  0  0
  1  2  1  6  0  0  0
  1 17  1  0  0  0  0
  3  1  1  0  0  0  0
  4  3  1  0  0  0  0
  5  4  2  0  0  0  0
  6  4  1  0  0  0  0
  7  8  1  0  0  0  0
  8 15  1  6  0  0  0
  8 14  1  0  0  0  0
  9  7  1  0  0  0  0
  9 16  1  0  0  0  0
 10 12  1  0  0  0  0
 10  9  2  0  0  0  0
 11 13  1  0  0  0  0
 12 11  2  0  0  0  0
 14  6  1  1  0  0  0
 16 13  2  0  0  0  0
 16 14  1  0  0  0  0
 17 21  1  6  0  0  0
 17 26  1  0  0  0  0
 19 20  1  0  0  0  0
 19 22  1  0  0  0  0
 20 18  2  0  0  0  0
 21 20  1  0  0  0  0
 23 25  1  0  0  0  0
 24 25  2  0  0  0  0
 25 22  1  0  0  0  0
 26 28  1  0  0  0  0
 28 27  1  0  0  0  0
M  END
>  <MODEL>
9

>  <REMARK>
 VINA RESULT:      -6.5      3.213      5.985
  Name = 
  9 active torsions:
  status: ('A' for Active; 'I' for Inactive)
    1  A    between atoms: C_1  and  O_6
    2  A    between atoms: C_1  and  C_12
    3  A    between atoms: C_2  and  O_6
    4  A    between atoms: N_7  and  C_28
    5  A    between atoms: N_8  and  C_22
    6  A    between atoms: C_12  and  N_19
    7  A    between atoms: C_12  and  O_24
    8  A    between atoms: C_14  and  C_28
    9  A    between atoms: C_23  and  O_24
                            x       y       z     vdW  Elec       q    Type
                         _______ _______ _______ _____ _____    ______ ____

>  <TORSDO>
F 9

$$$$
