=
 OpenBabel11032419503D

 27 28  0  0  1  0  0  0  0  0999 V2000
  191.7570  176.4390  146.2100 O   0  0  0  0  0  0  0  0  0  0  0  0
  190.5100  178.4750  142.5640 C   0  0  2  0  0  3  0  0  0  0  0  0
  191.4600  177.4120  142.0820 C   0  0  0  0  0  0  0  0  0  0  0  0
  192.0820  176.8030  138.5090 O   0  0  0  0  0  1  0  0  0  0  0  0
  191.2370  178.3840  144.9930 C   0  0  0  0  0  3  0  0  0  0  0  0
  192.0870  177.5960  140.7400 C   0  0  0  0  0  2  0  0  0  0  0  0
  191.3380  176.9180  145.1240 C   0  0  0  0  0  0  0  0  0  0  0  0
  190.8910  179.0630  143.8940 C   0  0  0  0  0  3  0  0  0  0  0  0
  189.1960  177.9910  142.5770 O   0  0  0  0  0  0  0  0  0  0  0  0
  188.6460  178.3780  141.3460 C   0  0  1  0  0  3  0  0  0  0  0  0
  191.6470  176.2660  142.7510 C   0  0  0  0  0  3  0  0  0  0  0  0
  189.9730  177.6640  139.3380 C   0  0  1  0  0  3  0  0  0  0  0  0
  188.8570  177.2790  140.3120 C   0  0  0  0  0  2  0  0  0  0  0  0
  191.2770  176.8990  139.6470 C   0  0  1  0  0  3  0  0  0  0  0  0
  190.9370  175.9710  144.0370 C   0  0  0  0  0  2  0  0  0  0  0  0
  189.5060  177.4760  137.8860 C   0  0  1  0  0  3  0  0  0  0  0  0
  188.6340  176.3900  137.7800 O   0  0  0  0  0  1  0  0  0  0  0  0
  188.8400  178.7310  137.3370 C   0  0  0  0  0  2  0  0  0  0  0  0
  186.5370  178.8530  137.9660 O   0  0  0  0  0  1  0  0  0  0  0  0
  187.3970  178.4570  136.9400 C   0  0  0  0  0  2  0  0  0  0  0  0
  187.1550  178.6290  141.5010 C   0  0  0  0  0  2  0  0  0  0  0  0
  186.6260  177.9890  142.7740 C   0  0  0  0  0  2  0  0  0  0  0  0
  185.5150  178.6950  143.2380 O   0  0  0  0  0  0  0  0  0  0  0  0
  185.3870  178.3120  144.5720 C   0  0  0  0  0  2  0  0  0  0  0  0
  186.6860  177.6970  145.0460 C   0  0  0  0  0  2  0  0  0  0  0  0
  186.8400  177.9180  146.5360 C   0  0  0  0  0  2  0  0  0  0  0  0
  188.2030  177.4270  146.9770 C   0  0  0  0  0  1  0  0  0  0  0  0
  2  9  1  0  0  0  0
  2  8  1  1  0  0  0
  3  2  1  0  0  0  0
  3 11  2  0  0  0  0
  5  7  1  0  0  0  0
  6  3  1  0  0  0  0
  7  1  2  0  0  0  0
  8  5  2  0  0  0  0
 10 21  1  1  0  0  0
 10  9  1  0  0  0  0
 11 15  1  0  0  0  0
 12 16  1  6  0  0  0
 12 14  1  0  0  0  0
 12 13  1  0  0  0  0
 13 10  1  0  0  0  0
 14  4  1  6  0  0  0
 14  6  1  0  0  0  0
 15  7  1  0  0  0  0
 16 17  1  1  0  0  0
 18 16  1  0  0  0  0
 20 18  1  0  0  0  0
 20 19  1  0  0  0  0
 21 22  1  0  0  0  0
 22 23  1  0  0  0  0
 23 24  1  0  0  0  0
 24 25  1  0  0  0  0
 25 26  1  0  0  0  0
 26 27  1  0  0  0  0
M  END
>  <MODEL>
1

>  <REMARK>
 VINA RESULT:      -7.0      0.000      0.000
  Name = 
  9 active torsions:
  status: ('A' for Active; 'I' for Inactive)
    1  A    between atoms: C_3  and  C_27
    2  A    between atoms: O_4  and  C_7
    3  A    between atoms: O_4  and  C_21
    4  A    between atoms: C_7  and  C_27
    5  A    between atoms: C_15  and  C_22
    6  A    between atoms: C_15  and  C_24
    7  A    between atoms: C_16  and  C_17
    8  A    between atoms: C_16  and  C_21
    9  A    between atoms: C_20  and  C_24
                            x       y       z     vdW  Elec       q    Type
                         _______ _______ _______ _____ _____    ______ ____

>  <TORSDO>
F 9

$$$$
=
 OpenBabel11032419503D

 27 28  0  0  1  0  0  0  0  0999 V2000
  192.0710  177.1320  145.7930 O   0  0  0  0  0  0  0  0  0  0  0  0
  188.8820  176.6610  142.8600 C   0  0  2  0  0  3  0  0  0  0  0  0
  188.1830  177.2140  144.0730 C   0  0  0  0  0  0  0  0  0  0  0  0
  184.6180  178.1160  144.0500 O   0  0  0  0  0  1  0  0  0  0  0  0
  190.9830  175.9370  144.0840 C   0  0  0  0  0  3  0  0  0  0  0  0
  186.7080  177.0120  144.1790 C   0  0  0  0  0  2  0  0  0  0  0  0
  191.1400  177.1240  144.9450 C   0  0  0  0  0  0  0  0  0  0  0  0
  190.0090  175.7240  143.1920 C   0  0  0  0  0  3  0  0  0  0  0  0
  189.3090  177.6990  142.0230 O   0  0  0  0  0  0  0  0  0  0  0  0
  188.2830  177.8600  141.0790 C   0  0  1  0  0  3  0  0  0  0  0  0
  188.8140  177.9850  144.9700 C   0  0  0  0  0  3  0  0  0  0  0  0
  186.0020  178.2210  142.0630 C   0  0  1  0  0  3  0  0  0  0  0  0
  187.2820  178.8990  141.5670 C   0  0  0  0  0  2  0  0  0  0  0  0
  185.9400  178.2010  143.6050 C   0  0  1  0  0  3  0  0  0  0  0  0
  190.2650  178.3330  144.8380 C   0  0  0  0  0  2  0  0  0  0  0  0
  184.7670  178.8780  141.4290 C   0  0  1  0  0  3  0  0  0  0  0  0
  185.1310  179.6830  140.3460 O   0  0  0  0  0  1  0  0  0  0  0  0
  183.7410  177.8440  140.9830 C   0  0  0  0  0  2  0  0  0  0  0  0
  182.0000  178.9050  142.2320 O   0  0  0  0  0  1  0  0  0  0  0  0
  182.3390  178.4360  140.9620 C   0  0  0  0  0  2  0  0  0  0  0  0
  188.8670  178.3230  139.7540 C   0  0  0  0  0  2  0  0  0  0  0  0
  188.0190  177.8420  138.5880 C   0  0  0  0  0  2  0  0  0  0  0  0
  187.7420  178.9040  137.7270 O   0  0  0  0  0  0  0  0  0  0  0  0
  186.8210  178.3890  136.8170 C   0  0  0  0  0  2  0  0  0  0  0  0
  186.0640  177.2470  137.4590 C   0  0  0  0  0  2  0  0  0  0  0  0
  184.5820  177.5530  137.4550 C   0  0  0  0  0  2  0  0  0  0  0  0
  183.8020  176.2580  137.5540 C   0  0  0  0  0  1  0  0  0  0  0  0
  2  8  1  1  0  0  0
  2  3  1  0  0  0  0
  3  6  1  0  0  0  0
  3 11  2  0  0  0  0
  5  7  1  0  0  0  0
  7  1  2  0  0  0  0
  8  5  2  0  0  0  0
  9  2  1  0  0  0  0
 10 21  1  6  0  0  0
 10 13  1  0  0  0  0
 10  9  1  0  0  0  0
 12 16  1  6  0  0  0
 12 14  1  0  0  0  0
 13 12  1  0  0  0  0
 14  4  1  6  0  0  0
 14  6  1  0  0  0  0
 15  7  1  0  0  0  0
 15 11  1  0  0  0  0
 16 17  1  6  0  0  0
 18 16  1  0  0  0  0
 20 18  1  0  0  0  0
 20 19  1  0  0  0  0
 22 21  1  0  0  0  0
 23 22  1  0  0  0  0
 24 25  1  0  0  0  0
 24 23  1  0  0  0  0
 26 25  1  0  0  0  0
 26 27  1  0  0  0  0
M  END
>  <MODEL>
2

>  <REMARK>
 VINA RESULT:      -6.8      2.114      5.563
  Name = 
  9 active torsions:
  status: ('A' for Active; 'I' for Inactive)
    1  A    between atoms: C_3  and  C_27
    2  A    between atoms: O_4  and  C_7
    3  A    between atoms: O_4  and  C_21
    4  A    between atoms: C_7  and  C_27
    5  A    between atoms: C_15  and  C_22
    6  A    between atoms: C_15  and  C_24
    7  A    between atoms: C_16  and  C_17
    8  A    between atoms: C_16  and  C_21
    9  A    between atoms: C_20  and  C_24
                            x       y       z     vdW  Elec       q    Type
                         _______ _______ _______ _____ _____    ______ ____

>  <TORSDO>
F 9

$$$$
=
 OpenBabel11032419503D

 27 28  0  0  1  0  0  0  0  0999 V2000
  191.8750  177.1910  144.2290 O   0  0  0  0  0  0  0  0  0  0  0  0
  187.5840  176.9240  143.5170 C   0  0  2  0  0  3  0  0  0  0  0  0
  187.6890  177.4190  144.9350 C   0  0  0  0  0  0  0  0  0  0  0  0
  184.7360  178.3700  146.9100 O   0  0  0  0  0  1  0  0  0  0  0  0
  189.9800  176.1050  143.3560 C   0  0  0  0  0  3  0  0  0  0  0  0
  186.5070  177.2320  145.8260 C   0  0  0  0  0  2  0  0  0  0  0  0
  190.6330  177.2420  144.0330 C   0  0  0  0  0  0  0  0  0  0  0  0
  188.6690  175.9550  143.1390 C   0  0  0  0  0  3  0  0  0  0  0  0
  187.5240  177.9990  142.6230 O   0  0  0  0  0  0  0  0  0  0  0  0
  186.1560  178.2250  142.4050 C   0  0  1  0  0  3  0  0  0  0  0  0
  188.7390  178.1320  145.3650 C   0  0  0  0  0  3  0  0  0  0  0  0
  184.8060  178.5630  144.4950 C   0  0  1  0  0  3  0  0  0  0  0  0
  185.6310  179.2490  143.4030 C   0  0  0  0  0  2  0  0  0  0  0  0
  185.5990  178.4610  145.8150 C   0  0  1  0  0  3  0  0  0  0  0  0
  189.8930  178.4670  144.4700 C   0  0  0  0  0  2  0  0  0  0  0  0
  183.4540  179.2710  144.6690 C   0  0  1  0  0  3  0  0  0  0  0  0
  183.4710  180.5340  144.0720 O   0  0  0  0  0  1  0  0  0  0  0  0
  182.3050  178.4460  144.1020 C   0  0  0  0  0  2  0  0  0  0  0  0
  182.4280  178.6010  141.7200 O   0  0  0  0  0  1  0  0  0  0  0  0
  181.7450  179.0810  142.8390 C   0  0  0  0  0  2  0  0  0  0  0  0
  185.9370  178.7510  140.9960 C   0  0  0  0  0  2  0  0  0  0  0  0
  187.0870  178.3570  140.0840 C   0  0  0  0  0  2  0  0  0  0  0  0
  186.8060  178.7350  138.7700 O   0  0  0  0  0  0  0  0  0  0  0  0
  187.4680  177.7930  137.9840 C   0  0  0  0  0  2  0  0  0  0  0  0
  188.6150  178.4600  137.2580 C   0  0  0  0  0  2  0  0  0  0  0  0
  189.7700  177.4900  137.1320 C   0  0  0  0  0  2  0  0  0  0  0  0
  189.8700  176.6620  138.3970 C   0  0  0  0  0  1  0  0  0  0  0  0
  2  8  1  6  0  0  0
  2  3  1  0  0  0  0
  3 11  2  0  0  0  0
  3  6  1  0  0  0  0
  5  7  1  0  0  0  0
  7  1  2  0  0  0  0
  7 15  1  0  0  0  0
  8  5  2  0  0  0  0
  9  2  1  0  0  0  0
 10 21  1  6  0  0  0
 10  9  1  0  0  0  0
 10 13  1  0  0  0  0
 12 16  1  1  0  0  0
 12 14  1  0  0  0  0
 13 12  1  0  0  0  0
 14  6  1  0  0  0  0
 14  4  1  1  0  0  0
 15 11  1  0  0  0  0
 16 17  1  6  0  0  0
 18 16  1  0  0  0  0
 19 20  1  0  0  0  0
 20 18  1  0  0  0  0
 22 21  1  0  0  0  0
 23 22  1  0  0  0  0
 24 23  1  0  0  0  0
 25 24  1  0  0  0  0
 26 25  1  0  0  0  0
 26 27  1  0  0  0  0
M  END
>  <MODEL>
3

>  <REMARK>
 VINA RESULT:      -6.8      2.001      6.413
  Name = 
  9 active torsions:
  status: ('A' for Active; 'I' for Inactive)
    1  A    between atoms: C_3  and  C_27
    2  A    between atoms: O_4  and  C_7
    3  A    between atoms: O_4  and  C_21
    4  A    between atoms: C_7  and  C_27
    5  A    between atoms: C_15  and  C_22
    6  A    between atoms: C_15  and  C_24
    7  A    between atoms: C_16  and  C_17
    8  A    between atoms: C_16  and  C_21
    9  A    between atoms: C_20  and  C_24
                            x       y       z     vdW  Elec       q    Type
                         _______ _______ _______ _____ _____    ______ ____

>  <TORSDO>
F 9

$$$$
=
 OpenBabel11032419503D

 27 28  0  0  1  0  0  0  0  0999 V2000
  192.0330  177.2070  145.6470 O   0  0  0  0  0  0  0  0  0  0  0  0
  188.8270  176.7290  142.7330 C   0  0  2  0  0  3  0  0  0  0  0  0
  188.1300  177.2520  143.9610 C   0  0  0  0  0  0  0  0  0  0  0  0
  184.5510  178.0950  143.9810 O   0  0  0  0  0  1  0  0  0  0  0  0
  190.9500  176.0200  143.9300 C   0  0  0  0  0  3  0  0  0  0  0  0
  186.6600  177.0230  144.0750 C   0  0  0  0  0  2  0  0  0  0  0  0
  191.0960  177.1970  144.8070 C   0  0  0  0  0  0  0  0  0  0  0  0
  189.9730  175.8050  143.0420 C   0  0  0  0  0  3  0  0  0  0  0  0
  189.2300  177.7860  141.9090 O   0  0  0  0  0  0  0  0  0  0  0  0
  188.1950  177.9440  140.9750 C   0  0  1  0  0  3  0  0  0  0  0  0
  188.7560  178.0190  144.8640 C   0  0  0  0  0  3  0  0  0  0  0  0
  185.9170  178.2530  141.9840 C   0  0  1  0  0  3  0  0  0  0  0  0
  187.1810  178.9590  141.4880 C   0  0  0  0  0  2  0  0  0  0  0  0
  185.8670  178.2090  143.5260 C   0  0  1  0  0  3  0  0  0  0  0  0
  190.2000  178.3930  144.7250 C   0  0  0  0  0  2  0  0  0  0  0  0
  184.6650  178.8990  141.3700 C   0  0  1  0  0  3  0  0  0  0  0  0
  185.0050  179.7140  140.2870 O   0  0  0  0  0  1  0  0  0  0  0  0
  183.6450  177.8560  140.9310 C   0  0  0  0  0  2  0  0  0  0  0  0
  181.8450  178.8070  142.1840 O   0  0  0  0  0  1  0  0  0  0  0  0
  182.2420  178.4410  140.8960 C   0  0  0  0  0  2  0  0  0  0  0  0
  188.7600  178.4360  139.6530 C   0  0  0  0  0  2  0  0  0  0  0  0
  189.0780  177.2710  138.7300 C   0  0  0  0  0  2  0  0  0  0  0  0
  189.8020  177.7190  137.6250 O   0  0  0  0  0  0  0  0  0  0  0  0
  190.7730  176.7410  137.4200 C   0  0  0  0  0  2  0  0  0  0  0  0
  191.6490  176.6360  138.6500 C   0  0  0  0  0  2  0  0  0  0  0  0
  193.0860  176.4120  138.2330 C   0  0  0  0  0  2  0  0  0  0  0  0
  193.1380  176.1300  136.7450 C   0  0  0  0  0  1  0  0  0  0  0  0
  2  8  1  1  0  0  0
  2  3  1  0  0  0  0
  3  6  1  0  0  0  0
  3 11  2  0  0  0  0
  5  7  1  0  0  0  0
  7  1  2  0  0  0  0
  8  5  2  0  0  0  0
  9  2  1  0  0  0  0
 10 21  1  6  0  0  0
 10 13  1  0  0  0  0
 10  9  1  0  0  0  0
 12 16  1  1  0  0  0
 12 14  1  0  0  0  0
 13 12  1  0  0  0  0
 14  4  1  6  0  0  0
 14  6  1  0  0  0  0
 15  7  1  0  0  0  0
 15 11  1  0  0  0  0
 16 17  1  6  0  0  0
 18 16  1  0  0  0  0
 20 18  1  0  0  0  0
 20 19  1  0  0  0  0
 22 21  1  0  0  0  0
 23 22  1  0  0  0  0
 24 23  1  0  0  0  0
 24 25  1  0  0  0  0
 26 25  1  0  0  0  0
 27 26  1  0  0  0  0
M  END
>  <MODEL>
4

>  <REMARK>
 VINA RESULT:      -6.7      2.070      5.873
  Name = 
  9 active torsions:
  status: ('A' for Active; 'I' for Inactive)
    1  A    between atoms: C_3  and  C_27
    2  A    between atoms: O_4  and  C_7
    3  A    between atoms: O_4  and  C_21
    4  A    between atoms: C_7  and  C_27
    5  A    between atoms: C_15  and  C_22
    6  A    between atoms: C_15  and  C_24
    7  A    between atoms: C_16  and  C_17
    8  A    between atoms: C_16  and  C_21
    9  A    between atoms: C_20  and  C_24
                            x       y       z     vdW  Elec       q    Type
                         _______ _______ _______ _____ _____    ______ ____

>  <TORSDO>
F 9

$$$$
=
 OpenBabel11032419503D

 27 28  0  0  1  0  0  0  0  0999 V2000
  191.9750  176.2380  146.2830 O   0  0  0  0  0  0  0  0  0  0  0  0
  190.5330  178.3680  142.7660 C   0  0  2  0  0  3  0  0  0  0  0  0
  191.4580  177.3210  142.2050 C   0  0  0  0  0  0  0  0  0  0  0  0
  191.8890  176.8110  138.5880 O   0  0  0  0  0  1  0  0  0  0  0  0
  191.3890  178.2130  145.1490 C   0  0  0  0  0  3  0  0  0  0  0  0
  192.0110  177.5430  140.8360 C   0  0  0  0  0  2  0  0  0  0  0  0
  191.4990  176.7440  145.2350 C   0  0  0  0  0  0  0  0  0  0  0  0
  190.9840  178.9210  144.0890 C   0  0  0  0  0  3  0  0  0  0  0  0
  189.2230  177.8810  142.8350 O   0  0  0  0  0  0  0  0  0  0  0  0
  188.6070  178.2990  141.6460 C   0  0  1  0  0  3  0  0  0  0  0  0
  191.6820  176.1580  142.8310 C   0  0  0  0  0  3  0  0  0  0  0  0
  189.8260  177.6440  139.5510 C   0  0  1  0  0  3  0  0  0  0  0  0
  188.7640  177.2300  140.5730 C   0  0  0  0  0  2  0  0  0  0  0  0
  191.1450  176.8740  139.7700 C   0  0  1  0  0  3  0  0  0  0  0  0
  191.0420  175.8260  144.1450 C   0  0  0  0  0  2  0  0  0  0  0  0
  189.2820  177.4940  138.1220 C   0  0  1  0  0  3  0  0  0  0  0  0
  188.1390  176.6910  138.1050 O   0  0  0  0  0  1  0  0  0  0  0  0
  188.9760  178.8450  137.4870 C   0  0  0  0  0  2  0  0  0  0  0  0
  187.1770  180.0830  136.5150 O   0  0  0  0  0  1  0  0  0  0  0  0
  187.6840  178.7940  136.6860 C   0  0  0  0  0  2  0  0  0  0  0  0
  187.1260  178.5420  141.8870 C   0  0  0  0  0  2  0  0  0  0  0  0
  186.3800  178.6990  140.5730 C   0  0  0  0  0  2  0  0  0  0  0  0
  185.0320  178.9640  140.8160 O   0  0  0  0  0  0  0  0  0  0  0  0
  184.7030  178.1490  141.8980 C   0  0  0  0  0  2  0  0  0  0  0  0
  183.6270  178.8200  142.7240 C   0  0  0  0  0  2  0  0  0  0  0  0
  184.2520  179.4760  143.9370 C   0  0  0  0  0  2  0  0  0  0  0  0
  183.5830  178.9520  145.1910 C   0  0  0  0  0  1  0  0  0  0  0  0
  2  9  1  0  0  0  0
  2  8  1  1  0  0  0
  3  2  1  0  0  0  0
  3 11  2  0  0  0  0
  5  7  1  0  0  0  0
  6  3  1  0  0  0  0
  7  1  2  0  0  0  0
  8  5  2  0  0  0  0
 10 21  1  1  0  0  0
 10  9  1  0  0  0  0
 11 15  1  0  0  0  0
 12 16  1  6  0  0  0
 12 14  1  0  0  0  0
 12 13  1  0  0  0  0
 13 10  1  0  0  0  0
 14  4  1  6  0  0  0
 14  6  1  0  0  0  0
 15  7  1  0  0  0  0
 16 17  1  1  0  0  0
 18 16  1  0  0  0  0
 19 20  1  0  0  0  0
 20 18  1  0  0  0  0
 22 23  1  0  0  0  0
 22 21  1  0  0  0  0
 23 24  1  0  0  0  0
 24 25  1  0  0  0  0
 25 26  1  0  0  0  0
 26 27  1  0  0  0  0
M  END
>  <MODEL>
5

>  <REMARK>
 VINA RESULT:      -6.2      1.419      1.763
  Name = 
  9 active torsions:
  status: ('A' for Active; 'I' for Inactive)
    1  A    between atoms: C_3  and  C_27
    2  A    between atoms: O_4  and  C_7
    3  A    between atoms: O_4  and  C_21
    4  A    between atoms: C_7  and  C_27
    5  A    between atoms: C_15  and  C_22
    6  A    between atoms: C_15  and  C_24
    7  A    between atoms: C_16  and  C_17
    8  A    between atoms: C_16  and  C_21
    9  A    between atoms: C_20  and  C_24
                            x       y       z     vdW  Elec       q    Type
                         _______ _______ _______ _____ _____    ______ ____

>  <TORSDO>
F 9

$$$$
=
 OpenBabel11032419503D

 27 28  0  0  1  0  0  0  0  0999 V2000
  182.7010  178.5210  140.2050 O   0  0  0  0  0  0  0  0  0  0  0  0
  186.2450  178.8500  142.7190 C   0  0  2  0  0  3  0  0  0  0  0  0
  185.1040  179.1320  143.6590 C   0  0  0  0  0  0  0  0  0  0  0  0
  185.6040  179.6350  147.2670 O   0  0  0  0  0  1  0  0  0  0  0  0
  184.9160  179.2120  140.5880 C   0  0  0  0  0  3  0  0  0  0  0  0
  185.4070  179.8710  144.9200 C   0  0  0  0  0  2  0  0  0  0  0  0
  183.6820  178.5120  140.9930 C   0  0  0  0  0  0  0  0  0  0  0  0
  186.0200  179.3710  141.3280 C   0  0  0  0  0  3  0  0  0  0  0  0
  186.5490  177.4830  142.7110 O   0  0  0  0  0  0  0  0  0  0  0  0
  187.5800  177.3260  143.6490 C   0  0  1  0  0  3  0  0  0  0  0  0
  183.8770  178.6280  143.4630 C   0  0  0  0  0  3  0  0  0  0  0  0
  187.0670  178.2390  145.9300 C   0  0  1  0  0  3  0  0  0  0  0  0
  186.9960  177.0110  145.0190 C   0  0  0  0  0  2  0  0  0  0  0  0
  185.6850  178.9100  146.0750 C   0  0  1  0  0  3  0  0  0  0  0  0
  183.5520  177.7640  142.2820 C   0  0  0  0  0  2  0  0  0  0  0  0
  187.6900  177.8670  147.2840 C   0  0  1  0  0  3  0  0  0  0  0  0
  187.4100  176.5380  147.6140 O   0  0  0  0  0  1  0  0  0  0  0  0
  189.1960  178.0970  147.2980 C   0  0  0  0  0  2  0  0  0  0  0  0
  191.1790  176.9350  146.6400 O   0  0  0  0  0  1  0  0  0  0  0  0
  189.9520  176.7770  147.2870 C   0  0  0  0  0  2  0  0  0  0  0  0
  188.4930  176.1860  143.2280 C   0  0  0  0  0  2  0  0  0  0  0  0
  189.9150  176.6790  143.0140 C   0  0  0  0  0  2  0  0  0  0  0  0
  189.9620  177.5470  141.9220 O   0  0  0  0  0  0  0  0  0  0  0  0
  190.8890  176.9720  141.0540 C   0  0  0  0  0  2  0  0  0  0  0  0
  190.2460  176.7560  139.7020 C   0  0  0  0  0  2  0  0  0  0  0  0
  188.9320  177.5050  139.6380 C   0  0  0  0  0  2  0  0  0  0  0  0
  189.0460  178.6320  138.6320 C   0  0  0  0  0  1  0  0  0  0  0  0
  1  7  2  0  0  0  0
  2  8  1  6  0  0  0
  2  3  1  0  0  0  0
  3  6  1  0  0  0  0
  5  7  1  0  0  0  0
  5  8  2  0  0  0  0
  6 14  1  0  0  0  0
  7 15  1  0  0  0  0
  9  2  1  0  0  0  0
  9 10  1  0  0  0  0
 10 21  1  6  0  0  0
 10 13  1  0  0  0  0
 11  3  2  0  0  0  0
 12 14  1  0  0  0  0
 12 16  1  1  0  0  0
 13 12  1  0  0  0  0
 14  4  1  1  0  0  0
 15 11  1  0  0  0  0
 16 18  1  0  0  0  0
 16 17  1  6  0  0  0
 19 20  1  0  0  0  0
 20 18  1  0  0  0  0
 22 21  1  0  0  0  0
 23 22  1  0  0  0  0
 24 23  1  0  0  0  0
 25 24  1  0  0  0  0
 26 25  1  0  0  0  0
 27 26  1  0  0  0  0
M  END
>  <MODEL>
6

>  <REMARK>
 VINA RESULT:      -6.1      2.136      7.720
  Name = 
  9 active torsions:
  status: ('A' for Active; 'I' for Inactive)
    1  A    between atoms: C_3  and  C_27
    2  A    between atoms: O_4  and  C_7
    3  A    between atoms: O_4  and  C_21
    4  A    between atoms: C_7  and  C_27
    5  A    between atoms: C_15  and  C_22
    6  A    between atoms: C_15  and  C_24
    7  A    between atoms: C_16  and  C_17
    8  A    between atoms: C_16  and  C_21
    9  A    between atoms: C_20  and  C_24
                            x       y       z     vdW  Elec       q    Type
                         _______ _______ _______ _____ _____    ______ ____

>  <TORSDO>
F 9

$$$$
=
 OpenBabel11032419503D

 27 28  0  0  1  0  0  0  0  0999 V2000
  185.8210  179.3380  147.7040 O   0  0  0  0  0  0  0  0  0  0  0  0
  186.0020  177.6850  143.6760 C   0  0  2  0  0  3  0  0  0  0  0  0
  184.6490  178.3410  143.7410 C   0  0  0  0  0  0  0  0  0  0  0  0
  182.4190  178.5450  140.8240 O   0  0  0  0  0  1  0  0  0  0  0  0
  186.3800  177.6320  146.1850 C   0  0  0  0  0  3  0  0  0  0  0  0
  183.6130  177.8970  142.7630 C   0  0  0  0  0  2  0  0  0  0  0  0
  185.8740  178.9810  146.4990 C   0  0  0  0  0  0  0  0  0  0  0  0
  186.4300  177.0620  144.9760 C   0  0  0  0  0  3  0  0  0  0  0  0
  186.9630  178.5850  143.1990 O   0  0  0  0  0  0  0  0  0  0  0  0
  187.0350  178.3530  141.8180 C   0  0  1  0  0  3  0  0  0  0  0  0
  184.4000  179.3850  144.5440 C   0  0  0  0  0  3  0  0  0  0  0  0
  184.8340  178.4850  140.6180 C   0  0  1  0  0  3  0  0  0  0  0  0
  186.0640  179.2680  141.0830 C   0  0  0  0  0  2  0  0  0  0  0  0
  183.6120  178.7770  141.5140 C   0  0  1  0  0  3  0  0  0  0  0  0
  185.4480  179.9590  145.4490 C   0  0  0  0  0  2  0  0  0  0  0  0
  184.5560  178.7560  139.1310 C   0  0  1  0  0  3  0  0  0  0  0  0
  184.5550  180.1280  138.8660 O   0  0  0  0  0  1  0  0  0  0  0  0
  185.5650  178.0560  138.2300 C   0  0  0  0  0  2  0  0  0  0  0  0
  183.5010  177.2510  137.3320 O   0  0  0  0  0  1  0  0  0  0  0  0
  184.8710  177.3440  137.0790 C   0  0  0  0  0  2  0  0  0  0  0  0
  188.4450  178.6280  141.3200 C   0  0  0  0  0  2  0  0  0  0  0  0
  189.3710  177.4660  141.6420 C   0  0  0  0  0  2  0  0  0  0  0  0
  190.3380  177.8670  142.5650 O   0  0  0  0  0  0  0  0  0  0  0  0
  190.1010  177.0780  143.6890 C   0  0  0  0  0  2  0  0  0  0  0  0
  190.0090  177.9610  144.9140 C   0  0  0  0  0  2  0  0  0  0  0  0
  190.2260  177.1280  146.1590 C   0  0  0  0  0  2  0  0  0  0  0  0
  191.6540  176.6210  146.1800 C   0  0  0  0  0  1  0  0  0  0  0  0
  2  3  1  0  0  0  0
  2  8  1  1  0  0  0
  3 11  2  0  0  0  0
  5  7  1  0  0  0  0
  6  3  1  0  0  0  0
  7  1  2  0  0  0  0
  8  5  2  0  0  0  0
  9  2  1  0  0  0  0
 10 21  1  6  0  0  0
 10  9  1  0  0  0  0
 11 15  1  0  0  0  0
 12 16  1  6  0  0  0
 12 13  1  0  0  0  0
 12 14  1  0  0  0  0
 13 10  1  0  0  0  0
 14  4  1  6  0  0  0
 14  6  1  0  0  0  0
 15  7  1  0  0  0  0
 16 17  1  1  0  0  0
 18 16  1  0  0  0  0
 20 19  1  0  0  0  0
 20 18  1  0  0  0  0
 21 22  1  0  0  0  0
 22 23  1  0  0  0  0
 23 24  1  0  0  0  0
 24 25  1  0  0  0  0
 25 26  1  0  0  0  0
 26 27  1  0  0  0  0
M  END
>  <MODEL>
7

>  <REMARK>
 VINA RESULT:      -6.0      2.416      5.440
  Name = 
  9 active torsions:
  status: ('A' for Active; 'I' for Inactive)
    1  A    between atoms: C_3  and  C_27
    2  A    between atoms: O_4  and  C_7
    3  A    between atoms: O_4  and  C_21
    4  A    between atoms: C_7  and  C_27
    5  A    between atoms: C_15  and  C_22
    6  A    between atoms: C_15  and  C_24
    7  A    between atoms: C_16  and  C_17
    8  A    between atoms: C_16  and  C_21
    9  A    between atoms: C_20  and  C_24
                            x       y       z     vdW  Elec       q    Type
                         _______ _______ _______ _____ _____    ______ ____

>  <TORSDO>
F 9

$$$$
=
 OpenBabel11032419503D

 27 28  0  0  1  0  0  0  0  0999 V2000
  192.2810  175.3430  148.2060 O   0  0  0  0  0  0  0  0  0  0  0  0
  190.1920  177.5780  145.1030 C   0  0  2  0  0  3  0  0  0  0  0  0
  191.4880  177.1750  144.4520 C   0  0  0  0  0  0  0  0  0  0  0  0
  192.2090  177.8580  140.9120 O   0  0  0  0  0  1  0  0  0  0  0  0
  190.9570  177.1480  147.4830 C   0  0  0  0  0  3  0  0  0  0  0  0
  191.9410  177.9530  143.2620 C   0  0  0  0  0  2  0  0  0  0  0  0
  191.6700  175.8780  147.2450 C   0  0  0  0  0  0  0  0  0  0  0  0
  190.3270  177.8910  146.5670 C   0  0  0  0  0  3  0  0  0  0  0  0
  189.2060  176.6110  144.8750 O   0  0  0  0  0  0  0  0  0  0  0  0
  188.5100  177.0510  143.7390 C   0  0  1  0  0  3  0  0  0  0  0  0
  192.1590  176.0740  144.8210 C   0  0  0  0  0  3  0  0  0  0  0  0
  189.9580  177.5160  141.7410 C   0  0  1  0  0  3  0  0  0  0  0  0
  189.1350  176.4580  142.4830 C   0  0  0  0  0  2  0  0  0  0  0  0
  191.4700  177.3050  141.9600 C   0  0  1  0  0  3  0  0  0  0  0  0
  191.6760  175.1800  145.9220 C   0  0  0  0  0  2  0  0  0  0  0  0
  189.5740  177.5480  140.2540 C   0  0  1  0  0  3  0  0  0  0  0  0
  189.8040  176.3080  139.6520 O   0  0  0  0  0  1  0  0  0  0  0  0
  188.1200  177.9580  140.0520 C   0  0  0  0  0  2  0  0  0  0  0  0
  188.7640  179.0110  138.0050 O   0  0  0  0  0  1  0  0  0  0  0  0
  187.8090  178.1700  138.5790 C   0  0  0  0  0  2  0  0  0  0  0  0
  187.0570  176.6120  143.8200 C   0  0  0  0  0  2  0  0  0  0  0  0
  186.1370  177.8100  143.9950 C   0  0  0  0  0  2  0  0  0  0  0  0
  186.3060  178.3620  145.2650 O   0  0  0  0  0  0  0  0  0  0  0  0
  185.0860  178.9750  145.5470 C   0  0  0  0  0  2  0  0  0  0  0  0
  184.2400  179.0140  144.2930 C   0  0  0  0  0  2  0  0  0  0  0  0
  182.7780  178.8890  144.6620 C   0  0  0  0  0  2  0  0  0  0  0  0
  181.9310  179.0470  143.4160 C   0  0  0  0  0  1  0  0  0  0  0  0
  2  8  1  1  0  0  0
  3 11  2  0  0  0  0
  3  2  1  0  0  0  0
  6  3  1  0  0  0  0
  7  5  1  0  0  0  0
  7  1  2  0  0  0  0
  8  5  2  0  0  0  0
  9  2  1  0  0  0  0
 10 21  1  1  0  0  0
 10  9  1  0  0  0  0
 11 15  1  0  0  0  0
 12 16  1  6  0  0  0
 12 14  1  0  0  0  0
 12 13  1  0  0  0  0
 13 10  1  0  0  0  0
 14  4  1  6  0  0  0
 14  6  1  0  0  0  0
 15  7  1  0  0  0  0
 16 17  1  1  0  0  0
 18 16  1  0  0  0  0
 19 20  1  0  0  0  0
 20 18  1  0  0  0  0
 21 22  1  0  0  0  0
 22 23  1  0  0  0  0
 23 24  1  0  0  0  0
 25 26  1  0  0  0  0
 25 24  1  0  0  0  0
 27 26  1  0  0  0  0
M  END
>  <MODEL>
8

>  <REMARK>
 VINA RESULT:      -5.9      1.964      2.876
  Name = 
  9 active torsions:
  status: ('A' for Active; 'I' for Inactive)
    1  A    between atoms: C_3  and  C_27
    2  A    between atoms: O_4  and  C_7
    3  A    between atoms: O_4  and  C_21
    4  A    between atoms: C_7  and  C_27
    5  A    between atoms: C_15  and  C_22
    6  A    between atoms: C_15  and  C_24
    7  A    between atoms: C_16  and  C_17
    8  A    between atoms: C_16  and  C_21
    9  A    between atoms: C_20  and  C_24
                            x       y       z     vdW  Elec       q    Type
                         _______ _______ _______ _____ _____    ______ ____

>  <TORSDO>
F 9

$$$$
=
 OpenBabel11032419503D

 27 28  0  0  1  0  0  0  0  0999 V2000
  191.9000  177.7030  145.7130 O   0  0  0  0  0  0  0  0  0  0  0  0
  189.9820  176.4480  142.0070 C   0  0  2  0  0  3  0  0  0  0  0  0
  189.1360  177.5970  142.4850 C   0  0  0  0  0  0  0  0  0  0  0  0
  186.3380  178.9350  140.5080 O   0  0  0  0  0  1  0  0  0  0  0  0
  191.1410  176.0450  144.2280 C   0  0  0  0  0  3  0  0  0  0  0  0
  187.7420  177.7000  141.9600 C   0  0  0  0  0  2  0  0  0  0  0  0
  191.3820  177.4540  144.5940 C   0  0  0  0  0  0  0  0  0  0  0  0
  190.5320  175.6030  143.1220 C   0  0  0  0  0  3  0  0  0  0  0  0
  191.0000  176.9050  141.1620 O   0  0  0  0  0  0  0  0  0  0  0  0
  190.4900  176.7730  139.8620 C   0  0  1  0  0  3  0  0  0  0  0  0
  189.6350  178.5840  143.2430 C   0  0  0  0  0  3  0  0  0  0  0  0
  188.2770  177.8990  139.4880 C   0  0  1  0  0  3  0  0  0  0  0  0
  189.7990  178.0630  139.4400 C   0  0  0  0  0  2  0  0  0  0  0  0
  187.6770  178.5980  140.7250 C   0  0  1  0  0  3  0  0  0  0  0  0
  191.0660  178.6000  143.6850 C   0  0  0  0  0  2  0  0  0  0  0  0
  187.6440  178.3770  138.1720 C   0  0  1  0  0  3  0  0  0  0  0  0
  188.5110  179.2290  137.4820 O   0  0  0  0  0  1  0  0  0  0  0  0
  187.2460  177.2100  137.2780 C   0  0  0  0  0  2  0  0  0  0  0  0
  184.9810  177.8740  137.6520 O   0  0  0  0  0  1  0  0  0  0  0  0
  185.8680  177.4280  136.6710 C   0  0  0  0  0  2  0  0  0  0  0  0
  191.6210  176.4790  138.8890 C   0  0  0  0  0  2  0  0  0  0  0  0
  191.0970  175.7920  137.6390 C   0  0  0  0  0  2  0  0  0  0  0  0
  191.9600  176.0250  136.5670 O   0  0  0  0  0  0  0  0  0  0  0  0
  193.1830  176.3340  137.1610 C   0  0  0  0  0  2  0  0  0  0  0  0
  194.3020  175.6850  136.3760 C   0  0  0  0  0  2  0  0  0  0  0  0
  194.5260  174.2760  136.8800 C   0  0  0  0  0  2  0  0  0  0  0  0
  194.9760  174.3270  138.3260 C   0  0  0  0  0  1  0  0  0  0  0  0
  2  3  1  0  0  0  0
  2  8  1  1  0  0  0
  3 11  2  0  0  0  0
  5  7  1  0  0  0  0
  6  3  1  0  0  0  0
  7  1  2  0  0  0  0
  8  5  2  0  0  0  0
  9  2  1  0  0  0  0
 10 21  1  6  0  0  0
 10  9  1  0  0  0  0
 11 15  1  0  0  0  0
 12 16  1  6  0  0  0
 12 14  1  0  0  0  0
 13 12  1  0  0  0  0
 13 10  1  0  0  0  0
 14  4  1  6  0  0  0
 14  6  1  0  0  0  0
 15  7  1  0  0  0  0
 16 17  1  6  0  0  0
 18 16  1  0  0  0  0
 20 18  1  0  0  0  0
 20 19  1  0  0  0  0
 22 21  1  0  0  0  0
 23 24  1  0  0  0  0
 23 22  1  0  0  0  0
 25 26  1  0  0  0  0
 25 24  1  0  0  0  0
 26 27  1  0  0  0  0
M  END
>  <MODEL>
9

>  <REMARK>
 VINA RESULT:      -5.9      2.208      5.773
  Name = 
  9 active torsions:
  status: ('A' for Active; 'I' for Inactive)
    1  A    between atoms: C_3  and  C_27
    2  A    between atoms: O_4  and  C_7
    3  A    between atoms: O_4  and  C_21
    4  A    between atoms: C_7  and  C_27
    5  A    between atoms: C_15  and  C_22
    6  A    between atoms: C_15  and  C_24
    7  A    between atoms: C_16  and  C_17
    8  A    between atoms: C_16  and  C_21
    9  A    between atoms: C_20  and  C_24
                            x       y       z     vdW  Elec       q    Type
                         _______ _______ _______ _____ _____    ______ ____

>  <TORSDO>
F 9

$$$$
