=
 OpenBabel11042410313D

 35 36  0  0  1  0  0  0  0  0999 V2000
  188.7140  177.2710  140.0960 C   0  0  1  0  0  3  0  0  0  0  0  0
  188.6570  179.2110  141.4900 O   0  0  0  0  0  0  0  0  0  0  0  0
  188.1880  178.0600  141.2650 C   0  0  0  0  0  0  0  0  0  0  0  0
  187.2340  177.5120  142.1260 O   0  0  0  0  0  0  0  0  0  0  0  0
  187.6210  176.7650  143.2690 C   0  0  0  0  0  2  0  0  0  0  0  0
  188.3000  177.6340  148.5680 C   0  0  0  0  0  3  0  0  0  0  0  0
  190.0020  178.1830  144.5970 N   0  0  0  0  0  1  0  0  0  0  0  0
  186.9330  178.4010  146.6870 C   0  0  0  0  0  0  0  0  0  0  0  0
  187.0320  177.3560  144.5110 C   0  0  0  0  0  3  0  0  0  0  0  0
  189.1880  177.6720  145.6530 C   0  0  0  0  0  0  0  0  0  0  0  0
  187.4190  178.4310  148.0420 N   0  0  0  0  0  0  0  0  0  0  0  0
  189.7630  177.0590  146.6960 C   0  0  0  0  0  0  0  0  0  0  0  0
  188.9340  176.5160  147.8120 C   0  0  0  0  0  2  0  0  0  0  0  0
  185.8040  178.9030  146.4470 O   0  0  0  0  0  0  0  0  0  0  0  0
  187.7140  177.8220  145.5620 C   0  0  0  0  0  0  0  0  0  0  0  0
  191.2470  176.9430  146.8100 C   0  0  0  0  0  1  0  0  0  0  0  0
  189.1540  178.7230  138.0920 C   0  0  0  0  0  1  0  0  0  0  0  0
  188.1530  177.7960  138.7630 C   0  0  2  0  0  3  0  0  0  0  0  0
  186.9260  178.5420  138.9870 N   0  0  0  0  0  2  0  0  0  0  0  0
  185.7230  177.5360  137.2540 O   0  0  0  0  0  0  0  0  0  0  0  0
  185.7160  178.2810  138.2700 C   0  0  0  0  0  0  0  0  0  0  0  0
  184.4420  178.8910  138.7430 C   0  0  0  0  0  2  0  0  0  0  0  0
  183.6050  177.8440  139.4560 C   0  0  0  0  0  2  0  0  0  0  0  0
  182.3770  178.4780  140.0910 C   0  0  0  0  0  2  0  0  0  0  0  0
  184.0520  178.4700  143.4830 C   0  0  0  0  0  3  0  0  0  0  0  0
  183.0150  178.8960  144.3170 C   0  0  0  0  0  3  0  0  0  0  0  0
  181.5150  179.0130  142.4130 C   0  0  0  0  0  0  0  0  0  0  0  0
  182.5650  178.5970  141.5680 C   0  0  0  0  0  0  0  0  0  0  0  0
  183.8260  178.3260  142.1140 C   0  0  0  0  0  3  0  0  0  0  0  0
  181.7500  179.1680  143.7840 C   0  0  0  0  0  3  0  0  0  0  0  0
  180.1570  179.3350  141.8810 C   0  0  0  0  0  2  0  0  0  0  0  0
  179.7840  180.6860  142.2690 N   0  0  0  0  0  1  0  0  0  0  0  0
  190.2390  177.2760  140.1040 C   0  0  0  0  0  2  0  0  0  0  0  0
  191.8460  177.4170  141.6060 C   0  0  0  0  0  1  0  0  0  0  0  0
  190.7020  176.6860  141.2810 O   0  0  0  0  0  0  0  0  0  0  0  0
  1 33  1  6  0  0  0
  1  3  1  0  0  0  0
  3  2  2  0  0  0  0
  3  4  1  0  0  0  0
  4  5  1  0  0  0  0
  5  9  1  0  0  0  0
  7 10  1  0  0  0  0
  8 11  1  0  0  0  0
  9 15  2  0  0  0  0
 10 12  2  0  0  0  0
 11  6  2  0  0  0  0
 12 16  1  0  0  0  0
 12 13  1  0  0  0  0
 13  6  1  0  0  0  0
 14  8  2  0  0  0  0
 15 10  1  0  0  0  0
 15  8  1  0  0  0  0
 18 17  1  1  0  0  0
 18 19  1  0  0  0  0
 18  1  1  0  0  0  0
 20 21  2  0  0  0  0
 21 22  1  0  0  0  0
 21 19  1  0  0  0  0
 22 23  1  0  0  0  0
 23 24  1  0  0  0  0
 24 28  1  0  0  0  0
 25 26  1  0  0  0  0
 27 30  1  0  0  0  0
 28 29  1  0  0  0  0
 28 27  2  0  0  0  0
 29 25  2  0  0  0  0
 30 26  2  0  0  0  0
 31 32  1  0  0  0  0
 31 27  1  0  0  0  0
 33 35  1  0  0  0  0
 35 34  1  0  0  0  0
M  END
>  <MODEL>
1

>  <REMARK>
 VINA RESULT:      -8.2      0.000      0.000
  Name = 
  13 active torsions:
  status: ('A' for Active; 'I' for Inactive)
    1  A    between atoms: O_4  and  C_8
    2  A    between atoms: O_4  and  C_24
    3  A    between atoms: C_5  and  C_11
    4  A    between atoms: N_7  and  C_34
    5  A    between atoms: C_8  and  C_30
    6  A    between atoms: C_14  and  C_24
    7  A    between atoms: C_16  and  C_22
    8  A    between atoms: C_17  and  C_18
    9  A    between atoms: C_17  and  C_19
   10  A    between atoms: C_18  and  C_22
   11  A    between atoms: O_28  and  C_35
   12  A    between atoms: C_30  and  C_34
   13  A    between atoms: C_30  and  C_35
                            x       y       z     vdW  Elec       q    Type
                         _______ _______ _______ _____ _____    ______ ____

>  <TORSDO>
F 13

$$$$
=
 OpenBabel11042410313D

 35 36  0  0  1  0  0  0  0  0999 V2000
  189.3980  177.7940  144.5820 C   0  0  1  0  0  3  0  0  0  0  0  0
  188.3160  176.0290  143.3880 O   0  0  0  0  0  0  0  0  0  0  0  0
  188.5000  177.2750  143.4910 C   0  0  0  0  0  0  0  0  0  0  0  0
  187.9170  178.1470  142.5680 O   0  0  0  0  0  0  0  0  0  0  0  0
  188.1680  178.0170  141.1770 C   0  0  0  0  0  2  0  0  0  0  0  0
  191.6900  175.8840  137.6640 C   0  0  0  0  0  3  0  0  0  0  0  0
  188.6900  178.9750  138.3040 N   0  0  0  0  0  1  0  0  0  0  0  0
  191.6410  177.2100  139.7200 C   0  0  0  0  0  0  0  0  0  0  0  0
  189.5950  177.6370  140.9320 C   0  0  0  0  0  3  0  0  0  0  0  0
  189.4450  177.7760  138.4790 C   0  0  0  0  0  0  0  0  0  0  0  0
  192.2730  176.5910  138.5850 N   0  0  0  0  0  0  0  0  0  0  0  0
  189.4490  176.8480  137.5140 C   0  0  0  0  0  0  0  0  0  0  0  0
  190.2290  175.5860  137.6750 C   0  0  0  0  0  2  0  0  0  0  0  0
  192.3480  177.4620  140.7320 O   0  0  0  0  0  0  0  0  0  0  0  0
  190.2020  177.5810  139.7420 C   0  0  0  0  0  0  0  0  0  0  0  0
  188.7220  177.0590  136.2280 C   0  0  0  0  0  1  0  0  0  0  0  0
  189.1200  176.8230  146.8840 C   0  0  0  0  0  1  0  0  0  0  0  0
  188.6510  177.9040  145.9220 C   0  0  2  0  0  3  0  0  0  0  0  0
  187.2210  177.7410  145.7230 N   0  0  0  0  0  2  0  0  0  0  0  0
  186.5800  179.0530  147.5470 O   0  0  0  0  0  0  0  0  0  0  0  0
  186.2430  178.4340  146.5020 C   0  0  0  0  0  0  0  0  0  0  0  0
  184.8210  178.4280  146.0620 C   0  0  0  0  0  2  0  0  0  0  0  0
  184.6620  179.2930  144.8240 C   0  0  0  0  0  2  0  0  0  0  0  0
  184.5670  178.4320  143.5740 C   0  0  0  0  0  2  0  0  0  0  0  0
  180.8940  179.1980  143.0830 C   0  0  0  0  0  3  0  0  0  0  0  0
  180.7780  179.1680  141.6910 C   0  0  0  0  0  3  0  0  0  0  0  0
  183.1300  178.6050  141.4940 C   0  0  0  0  0  0  0  0  0  0  0  0
  183.2520  178.6490  142.8980 C   0  0  0  0  0  0  0  0  0  0  0  0
  182.1290  178.9430  143.6810 C   0  0  0  0  0  3  0  0  0  0  0  0
  181.8920  178.8730  140.8980 C   0  0  0  0  0  3  0  0  0  0  0  0
  184.3000  178.3170  140.6110 C   0  0  0  0  0  2  0  0  0  0  0  0
  184.8980  179.5650  140.1630 N   0  0  0  0  0  1  0  0  0  0  0  0
  190.6390  176.9170  144.7010 C   0  0  0  0  0  2  0  0  0  0  0  0
  191.6850  178.7500  144.0660 C   0  0  0  0  0  1  0  0  0  0  0  0
  191.6220  177.3770  143.8250 O   0  0  0  0  0  0  0  0  0  0  0  0
  1 33  1  1  0  0  0
  1 18  1  0  0  0  0
  2  3  2  0  0  0  0
  3  1  1  0  0  0  0
  4  3  1  0  0  0  0
  5  4  1  0  0  0  0
  6 13  1  0  0  0  0
  6 11  2  0  0  0  0
  7 10  1  0  0  0  0
  8 15  1  0  0  0  0
  8 14  2  0  0  0  0
  9  5  1  0  0  0  0
 10 15  1  0  0  0  0
 11  8  1  0  0  0  0
 12 13  1  0  0  0  0
 12 10  2  0  0  0  0
 15  9  2  0  0  0  0
 16 12  1  0  0  0  0
 18 17  1  1  0  0  0
 19 18  1  0  0  0  0
 19 21  1  0  0  0  0
 21 20  2  0  0  0  0
 22 21  1  0  0  0  0
 23 22  1  0  0  0  0
 24 23  1  0  0  0  0
 25 29  1  0  0  0  0
 26 25  2  0  0  0  0
 27 28  1  0  0  0  0
 28 24  1  0  0  0  0
 28 29  2  0  0  0  0
 30 27  2  0  0  0  0
 30 26  1  0  0  0  0
 31 27  1  0  0  0  0
 32 31  1  0  0  0  0
 35 34  1  0  0  0  0
 35 33  1  0  0  0  0
M  END
>  <MODEL>
2

>  <REMARK>
 VINA RESULT:      -8.1      1.978      6.543
  Name = 
  13 active torsions:
  status: ('A' for Active; 'I' for Inactive)
    1  A    between atoms: O_4  and  C_8
    2  A    between atoms: O_4  and  C_24
    3  A    between atoms: C_5  and  C_11
    4  A    between atoms: N_7  and  C_34
    5  A    between atoms: C_8  and  C_30
    6  A    between atoms: C_14  and  C_24
    7  A    between atoms: C_16  and  C_22
    8  A    between atoms: C_17  and  C_18
    9  A    between atoms: C_17  and  C_19
   10  A    between atoms: C_18  and  C_22
   11  A    between atoms: O_28  and  C_35
   12  A    between atoms: C_30  and  C_34
   13  A    between atoms: C_30  and  C_35
                            x       y       z     vdW  Elec       q    Type
                         _______ _______ _______ _____ _____    ______ ____

>  <TORSDO>
F 13

$$$$
=
 OpenBabel11042410313D

 35 36  0  0  1  0  0  0  0  0999 V2000
  184.6940  178.0330  142.3960 C   0  0  1  0  0  3  0  0  0  0  0  0
  185.8270  180.0970  141.9890 O   0  0  0  0  0  0  0  0  0  0  0  0
  185.9170  178.8380  142.0450 C   0  0  0  0  0  0  0  0  0  0  0  0
  187.1230  178.2080  141.7300 O   0  0  0  0  0  0  0  0  0  0  0  0
  187.7010  178.3340  140.4400 C   0  0  0  0  0  2  0  0  0  0  0  0
  191.6020  176.0230  137.4850 C   0  0  0  0  0  3  0  0  0  0  0  0
  188.8670  179.3970  137.8020 N   0  0  0  0  0  1  0  0  0  0  0  0
  191.2900  177.2200  139.5970 C   0  0  0  0  0  0  0  0  0  0  0  0
  189.1020  177.8070  140.4350 C   0  0  0  0  0  3  0  0  0  0  0  0
  189.4470  178.1100  138.0170 C   0  0  0  0  0  0  0  0  0  0  0  0
  192.0640  176.6010  138.5530 N   0  0  0  0  0  0  0  0  0  0  0  0
  189.5430  177.2470  136.9980 C   0  0  0  0  0  0  0  0  0  0  0  0
  190.1450  175.8960  137.1980 C   0  0  0  0  0  2  0  0  0  0  0  0
  191.8090  177.3270  140.7390 O   0  0  0  0  0  0  0  0  0  0  0  0
  189.9200  177.7530  139.3790 C   0  0  0  0  0  0  0  0  0  0  0  0
  189.1060  177.6180  135.6200 C   0  0  0  0  0  1  0  0  0  0  0  0
  183.2130  179.4300  143.8710 C   0  0  0  0  0  1  0  0  0  0  0  0
  184.2360  178.3050  143.8400 C   0  0  2  0  0  3  0  0  0  0  0  0
  185.3650  178.6980  144.6660 N   0  0  0  0  0  2  0  0  0  0  0  0
  184.2420  178.4950  146.7060 O   0  0  0  0  0  0  0  0  0  0  0  0
  185.3320  178.6610  146.0950 C   0  0  0  0  0  0  0  0  0  0  0  0
  186.6020  178.8120  146.8590 C   0  0  0  0  0  2  0  0  0  0  0  0
  187.3180  177.4750  146.9340 C   0  0  0  0  0  2  0  0  0  0  0  0
  188.8000  177.6740  147.2090 C   0  0  0  0  0  2  0  0  0  0  0  0
  189.7680  176.7020  143.6830 C   0  0  0  0  0  3  0  0  0  0  0  0
  191.1010  176.3170  143.8460 C   0  0  0  0  0  3  0  0  0  0  0  0
  190.9510  176.7630  146.2260 C   0  0  0  0  0  0  0  0  0  0  0  0
  189.6100  177.1650  146.0610 C   0  0  0  0  0  0  0  0  0  0  0  0
  189.0290  177.1280  144.7870 C   0  0  0  0  0  3  0  0  0  0  0  0
  191.6920  176.3470  145.1140 C   0  0  0  0  0  3  0  0  0  0  0  0
  191.6260  176.8020  147.5580 C   0  0  0  0  0  2  0  0  0  0  0  0
  192.1580  175.4870  147.8800 N   0  0  0  0  0  1  0  0  0  0  0  0
  183.5800  178.3060  141.3920 C   0  0  0  0  0  2  0  0  0  0  0  0
  182.6190  177.0930  139.8230 C   0  0  0  0  0  1  0  0  0  0  0  0
  183.8500  177.6330  140.2010 O   0  0  0  0  0  0  0  0  0  0  0  0
  1 33  1  6  0  0  0
  1 18  1  0  0  0  0
  2  3  2  0  0  0  0
  3  1  1  0  0  0  0
  4  3  1  0  0  0  0
  5  4  1  0  0  0  0
  6 11  2  0  0  0  0
  7 10  1  0  0  0  0
  8 14  2  0  0  0  0
  9  5  1  0  0  0  0
 10 15  1  0  0  0  0
 11  8  1  0  0  0  0
 12 13  1  0  0  0  0
 12 10  2  0  0  0  0
 13  6  1  0  0  0  0
 15  8  1  0  0  0  0
 15  9  2  0  0  0  0
 16 12  1  0  0  0  0
 18 17  1  6  0  0  0
 18 19  1  0  0  0  0
 19 21  1  0  0  0  0
 21 20  2  0  0  0  0
 21 22  1  0  0  0  0
 22 23  1  0  0  0  0
 23 24  1  0  0  0  0
 25 26  2  0  0  0  0
 25 29  1  0  0  0  0
 26 30  1  0  0  0  0
 27 31  1  0  0  0  0
 28 27  1  0  0  0  0
 28 24  1  0  0  0  0
 29 28  2  0  0  0  0
 30 27  2  0  0  0  0
 31 32  1  0  0  0  0
 34 35  1  0  0  0  0
 35 33  1  0  0  0  0
M  END
>  <MODEL>
3

>  <REMARK>
 VINA RESULT:      -8.1      2.229      8.424
  Name = 
  13 active torsions:
  status: ('A' for Active; 'I' for Inactive)
    1  A    between atoms: O_4  and  C_8
    2  A    between atoms: O_4  and  C_24
    3  A    between atoms: C_5  and  C_11
    4  A    between atoms: N_7  and  C_34
    5  A    between atoms: C_8  and  C_30
    6  A    between atoms: C_14  and  C_24
    7  A    between atoms: C_16  and  C_22
    8  A    between atoms: C_17  and  C_18
    9  A    between atoms: C_17  and  C_19
   10  A    between atoms: C_18  and  C_22
   11  A    between atoms: O_28  and  C_35
   12  A    between atoms: C_30  and  C_34
   13  A    between atoms: C_30  and  C_35
                            x       y       z     vdW  Elec       q    Type
                         _______ _______ _______ _____ _____    ______ ____

>  <TORSDO>
F 13

$$$$
=
 OpenBabel11042410313D

 35 36  0  0  1  0  0  0  0  0999 V2000
  183.9560  177.8110  140.3230 C   0  0  1  0  0  3  0  0  0  0  0  0
  184.4710  179.9580  139.4070 O   0  0  0  0  0  0  0  0  0  0  0  0
  184.9190  178.9040  139.9420 C   0  0  0  0  0  0  0  0  0  0  0  0
  186.2940  178.7410  140.1230 O   0  0  0  0  0  0  0  0  0  0  0  0
  187.1180  178.2500  139.0760 C   0  0  0  0  0  2  0  0  0  0  0  0
  191.7580  175.6880  137.9820 C   0  0  0  0  0  3  0  0  0  0  0  0
  189.0640  178.8940  136.7860 N   0  0  0  0  0  1  0  0  0  0  0  0
  190.7890  177.2210  139.6260 C   0  0  0  0  0  0  0  0  0  0  0  0
  188.4470  177.8160  139.6100 C   0  0  0  0  0  3  0  0  0  0  0  0
  189.5460  177.7030  137.4100 C   0  0  0  0  0  0  0  0  0  0  0  0
  191.8550  176.4730  139.0130 N   0  0  0  0  0  0  0  0  0  0  0  0
  189.9620  176.6800  136.6540 C   0  0  0  0  0  0  0  0  0  0  0  0
  190.4680  175.4240  137.2830 C   0  0  0  0  0  2  0  0  0  0  0  0
  190.9150  177.5610  140.8320 O   0  0  0  0  0  0  0  0  0  0  0  0
  189.5590  177.6240  138.8930 C   0  0  0  0  0  0  0  0  0  0  0  0
  189.9870  176.7730  135.1640 C   0  0  0  0  0  1  0  0  0  0  0  0
  181.8770  178.9790  141.1200 C   0  0  0  0  0  1  0  0  0  0  0  0
  183.1140  178.2050  141.5490 C   0  0  2  0  0  3  0  0  0  0  0  0
  183.8850  179.0490  142.4470 N   0  0  0  0  0  2  0  0  0  0  0  0
  182.6820  178.4990  144.3740 O   0  0  0  0  0  0  0  0  0  0  0  0
  183.6880  179.0610  143.8630 C   0  0  0  0  0  0  0  0  0  0  0  0
  184.6910  179.7360  144.7330 C   0  0  0  0  0  2  0  0  0  0  0  0
  185.2880  178.7320  145.7030 C   0  0  0  0  0  2  0  0  0  0  0  0
  186.2350  177.7850  144.9810 C   0  0  0  0  0  2  0  0  0  0  0  0
  188.5680  177.4090  147.9360 C   0  0  0  0  0  3  0  0  0  0  0  0
  189.7980  177.2040  147.3070 C   0  0  0  0  0  3  0  0  0  0  0  0
  188.7390  177.4230  145.1350 C   0  0  0  0  0  0  0  0  0  0  0  0
  187.4930  177.6160  145.7690 C   0  0  0  0  0  0  0  0  0  0  0  0
  187.4210  177.6100  147.1670 C   0  0  0  0  0  3  0  0  0  0  0  0
  189.8840  177.2100  145.9110 C   0  0  0  0  0  3  0  0  0  0  0  0
  188.8700  177.4000  143.6480 C   0  0  0  0  0  2  0  0  0  0  0  0
  188.8220  176.0270  143.1700 N   0  0  0  0  0  1  0  0  0  0  0  0
  183.0770  177.4470  139.1320 C   0  0  0  0  0  2  0  0  0  0  0  0
  182.6360  175.6640  137.9140 C   0  0  0  0  0  1  0  0  0  0  0  0
  182.6790  176.1150  139.2350 O   0  0  0  0  0  0  0  0  0  0  0  0
  1 33  1  6  0  0  0
  1 18  1  0  0  0  0
  2  3  2  0  0  0  0
  3  4  1  0  0  0  0
  3  1  1  0  0  0  0
  5  9  1  0  0  0  0
  5  4  1  0  0  0  0
  6 11  2  0  0  0  0
  7 10  1  0  0  0  0
  8 14  2  0  0  0  0
 10 15  1  0  0  0  0
 11  8  1  0  0  0  0
 12 13  1  0  0  0  0
 12 10  2  0  0  0  0
 13  6  1  0  0  0  0
 15  9  2  0  0  0  0
 15  8  1  0  0  0  0
 16 12  1  0  0  0  0
 18 17  1  6  0  0  0
 18 19  1  0  0  0  0
 19 21  1  0  0  0  0
 21 20  2  0  0  0  0
 21 22  1  0  0  0  0
 22 23  1  0  0  0  0
 24 23  1  0  0  0  0
 24 28  1  0  0  0  0
 26 25  1  0  0  0  0
 27 28  2  0  0  0  0
 27 30  1  0  0  0  0
 28 29  1  0  0  0  0
 29 25  2  0  0  0  0
 30 26  2  0  0  0  0
 31 27  1  0  0  0  0
 32 31  1  0  0  0  0
 33 35  1  0  0  0  0
 34 35  1  0  0  0  0
M  END
>  <MODEL>
4

>  <REMARK>
 VINA RESULT:      -7.7      2.320      7.673
  Name = 
  13 active torsions:
  status: ('A' for Active; 'I' for Inactive)
    1  A    between atoms: O_4  and  C_8
    2  A    between atoms: O_4  and  C_24
    3  A    between atoms: C_5  and  C_11
    4  A    between atoms: N_7  and  C_34
    5  A    between atoms: C_8  and  C_30
    6  A    between atoms: C_14  and  C_24
    7  A    between atoms: C_16  and  C_22
    8  A    between atoms: C_17  and  C_18
    9  A    between atoms: C_17  and  C_19
   10  A    between atoms: C_18  and  C_22
   11  A    between atoms: O_28  and  C_35
   12  A    between atoms: C_30  and  C_34
   13  A    between atoms: C_30  and  C_35
                            x       y       z     vdW  Elec       q    Type
                         _______ _______ _______ _____ _____    ______ ____

>  <TORSDO>
F 13

$$$$
=
 OpenBabel11042410313D

 35 36  0  0  1  0  0  0  0  0999 V2000
  188.0070  176.9840  137.7680 C   0  0  1  0  0  3  0  0  0  0  0  0
  189.2720  179.0110  137.8060 O   0  0  0  0  0  0  0  0  0  0  0  0
  188.3880  178.3090  138.3730 C   0  0  0  0  0  0  0  0  0  0  0  0
  187.8170  178.7380  139.5740 O   0  0  0  0  0  0  0  0  0  0  0  0
  187.9610  177.9810  140.7660 C   0  0  0  0  0  2  0  0  0  0  0  0
  191.5160  177.8630  144.8450 C   0  0  0  0  0  3  0  0  0  0  0  0
  187.9270  176.0590  143.1640 N   0  0  0  0  0  1  0  0  0  0  0  0
  191.3550  177.3210  142.4630 C   0  0  0  0  0  0  0  0  0  0  0  0
  189.4040  177.8650  141.1460 C   0  0  0  0  0  3  0  0  0  0  0  0
  188.9700  177.0030  143.4100 C   0  0  0  0  0  0  0  0  0  0  0  0
  191.9980  177.3560  143.7500 N   0  0  0  0  0  0  0  0  0  0  0  0
  189.1030  177.5410  144.6290 C   0  0  0  0  0  0  0  0  0  0  0  0
  190.1840  178.5310  144.9100 C   0  0  0  0  0  2  0  0  0  0  0  0
  192.0780  177.2220  141.4380 O   0  0  0  0  0  0  0  0  0  0  0  0
  189.8780  177.3770  142.2970 C   0  0  0  0  0  0  0  0  0  0  0  0
  188.2160  177.1370  145.7600 C   0  0  0  0  0  1  0  0  0  0  0  0
  187.2680  177.5100  135.4240 C   0  0  0  0  0  1  0  0  0  0  0  0
  186.8040  177.1230  136.8200 C   0  0  2  0  0  3  0  0  0  0  0  0
  185.8970  178.1550  137.2960 N   0  0  0  0  0  2  0  0  0  0  0  0
  184.2750  176.6820  138.1080 O   0  0  0  0  0  0  0  0  0  0  0  0
  184.7060  177.8630  138.0310 C   0  0  0  0  0  0  0  0  0  0  0  0
  183.9830  178.9700  138.7160 C   0  0  0  0  0  2  0  0  0  0  0  0
  184.4190  179.0480  140.1680 C   0  0  0  0  0  2  0  0  0  0  0  0
  183.5020  178.2150  141.0510 C   0  0  0  0  0  2  0  0  0  0  0  0
  185.4660  178.6650  144.2530 C   0  0  0  0  0  3  0  0  0  0  0  0
  184.4630  179.0210  145.1580 C   0  0  0  0  0  3  0  0  0  0  0  0
  182.7940  178.8110  143.4100 C   0  0  0  0  0  0  0  0  0  0  0  0
  183.8070  178.4660  142.4910 C   0  0  0  0  0  0  0  0  0  0  0  0
  185.1370  178.3930  142.9240 C   0  0  0  0  0  3  0  0  0  0  0  0
  183.1310  179.0940  144.7380 C   0  0  0  0  0  3  0  0  0  0  0  0
  181.3620  178.9230  142.9970 C   0  0  0  0  0  2  0  0  0  0  0  0
  180.4990  178.5490  144.1060 N   0  0  0  0  0  1  0  0  0  0  0  0
  189.2080  176.3640  137.0640 C   0  0  0  0  0  2  0  0  0  0  0  0
  190.2150  174.4090  136.9160 C   0  0  0  0  0  1  0  0  0  0  0  0
  189.7240  175.3290  137.8440 O   0  0  0  0  0  0  0  0  0  0  0  0
  1 33  1  6  0  0  0
  1  3  1  0  0  0  0
  2  3  2  0  0  0  0
  3  4  1  0  0  0  0
  4  5  1  0  0  0  0
  5  9  1  0  0  0  0
  6 13  1  0  0  0  0
  7 10  1  0  0  0  0
  8 11  1  0  0  0  0
  9 15  2  0  0  0  0
 10 12  2  0  0  0  0
 11  6  2  0  0  0  0
 12 13  1  0  0  0  0
 12 16  1  0  0  0  0
 14  8  2  0  0  0  0
 15  8  1  0  0  0  0
 15 10  1  0  0  0  0
 18 17  1  6  0  0  0
 18 19  1  0  0  0  0
 18  1  1  0  0  0  0
 19 21  1  0  0  0  0
 21 20  2  0  0  0  0
 21 22  1  0  0  0  0
 22 23  1  0  0  0  0
 23 24  1  0  0  0  0
 24 28  1  0  0  0  0
 25 26  1  0  0  0  0
 27 30  1  0  0  0  0
 28 29  1  0  0  0  0
 28 27  2  0  0  0  0
 29 25  2  0  0  0  0
 30 26  2  0  0  0  0
 31 27  1  0  0  0  0
 31 32  1  0  0  0  0
 33 35  1  0  0  0  0
 34 35  1  0  0  0  0
M  END
>  <MODEL>
5

>  <REMARK>
 VINA RESULT:      -7.7      2.194      3.433
  Name = 
  13 active torsions:
  status: ('A' for Active; 'I' for Inactive)
    1  A    between atoms: O_4  and  C_8
    2  A    between atoms: O_4  and  C_24
    3  A    between atoms: C_5  and  C_11
    4  A    between atoms: N_7  and  C_34
    5  A    between atoms: C_8  and  C_30
    6  A    between atoms: C_14  and  C_24
    7  A    between atoms: C_16  and  C_22
    8  A    between atoms: C_17  and  C_18
    9  A    between atoms: C_17  and  C_19
   10  A    between atoms: C_18  and  C_22
   11  A    between atoms: O_28  and  C_35
   12  A    between atoms: C_30  and  C_34
   13  A    between atoms: C_30  and  C_35
                            x       y       z     vdW  Elec       q    Type
                         _______ _______ _______ _____ _____    ______ ____

>  <TORSDO>
F 13

$$$$
=
 OpenBabel11042410313D

 35 36  0  0  1  0  0  0  0  0999 V2000
  188.6340  177.5770  139.4440 C   0  0  1  0  0  3  0  0  0  0  0  0
  188.9240  179.2780  137.7900 O   0  0  0  0  0  0  0  0  0  0  0  0
  188.4300  178.1490  138.0660 C   0  0  0  0  0  0  0  0  0  0  0  0
  187.6600  177.4710  137.1170 O   0  0  0  0  0  0  0  0  0  0  0  0
  186.3420  177.0390  137.4170 C   0  0  0  0  0  2  0  0  0  0  0  0
  181.4250  179.2980  137.5490 C   0  0  0  0  0  3  0  0  0  0  0  0
  183.7370  175.6930  138.3370 N   0  0  0  0  0  1  0  0  0  0  0  0
  183.5780  179.3900  138.7100 C   0  0  0  0  0  0  0  0  0  0  0  0
  185.5170  178.1790  137.9290 C   0  0  0  0  0  3  0  0  0  0  0  0
  183.3750  176.9720  137.8170 C   0  0  0  0  0  0  0  0  0  0  0  0
  182.1900  179.7150  138.5130 N   0  0  0  0  0  0  0  0  0  0  0  0
  182.3090  177.0840  137.0130 C   0  0  0  0  0  0  0  0  0  0  0  0
  181.9120  178.4100  136.4550 C   0  0  0  0  0  2  0  0  0  0  0  0
  184.2870  180.1840  139.3830 O   0  0  0  0  0  0  0  0  0  0  0  0
  184.2020  178.1530  138.1710 C   0  0  0  0  0  0  0  0  0  0  0  0
  181.4530  175.9060  136.6870 C   0  0  0  0  0  1  0  0  0  0  0  0
  190.4420  176.0920  138.5240 C   0  0  0  0  0  1  0  0  0  0  0  0
  190.0720  177.0650  139.6330 C   0  0  2  0  0  3  0  0  0  0  0  0
  190.2020  176.3700  140.9040 N   0  0  0  0  0  2  0  0  0  0  0  0
  191.9210  177.7190  141.7320 O   0  0  0  0  0  0  0  0  0  0  0  0
  191.0660  176.8200  141.9510 C   0  0  0  0  0  0  0  0  0  0  0  0
  190.9380  176.2220  143.3090 C   0  0  0  0  0  2  0  0  0  0  0  0
  190.3620  177.2470  144.2690 C   0  0  0  0  0  2  0  0  0  0  0  0
  188.8940  176.9600  144.5460 C   0  0  0  0  0  2  0  0  0  0  0  0
  189.2400  177.8320  148.2110 C   0  0  0  0  0  3  0  0  0  0  0  0
  187.9590  178.2960  148.5180 C   0  0  0  0  0  3  0  0  0  0  0  0
  187.2390  177.8520  146.2440 C   0  0  0  0  0  0  0  0  0  0  0  0
  188.5360  177.3960  145.9290 C   0  0  0  0  0  0  0  0  0  0  0  0
  189.5260  177.3880  146.9190 C   0  0  0  0  0  3  0  0  0  0  0  0
  186.9610  178.3070  147.5380 C   0  0  0  0  0  3  0  0  0  0  0  0
  186.1510  177.9010  145.2220 C   0  0  0  0  0  2  0  0  0  0  0  0
  185.2690  179.0250  145.4940 N   0  0  0  0  0  1  0  0  0  0  0  0
  188.2630  178.6120  140.5000 C   0  0  0  0  0  2  0  0  0  0  0  0
  186.3730  178.7710  141.6240 C   0  0  0  0  0  1  0  0  0  0  0  0
  187.5310  177.9980  141.5170 O   0  0  0  0  0  0  0  0  0  0  0  0
  1 18  1  0  0  0  0
  1 33  1  1  0  0  0
  2  3  2  0  0  0  0
  3  1  1  0  0  0  0
  4  5  1  0  0  0  0
  4  3  1  0  0  0  0
  5  9  1  0  0  0  0
  6 11  2  0  0  0  0
  8 14  2  0  0  0  0
  9 15  2  0  0  0  0
 10 15  1  0  0  0  0
 10  7  1  0  0  0  0
 11  8  1  0  0  0  0
 12 10  2  0  0  0  0
 13 12  1  0  0  0  0
 13  6  1  0  0  0  0
 15  8  1  0  0  0  0
 16 12  1  0  0  0  0
 18 17  1  6  0  0  0
 18 19  1  0  0  0  0
 19 21  1  0  0  0  0
 20 21  2  0  0  0  0
 21 22  1  0  0  0  0
 22 23  1  0  0  0  0
 23 24  1  0  0  0  0
 24 28  1  0  0  0  0
 25 26  1  0  0  0  0
 27 30  1  0  0  0  0
 28 27  2  0  0  0  0
 28 29  1  0  0  0  0
 29 25  2  0  0  0  0
 30 26  2  0  0  0  0
 31 32  1  0  0  0  0
 31 27  1  0  0  0  0
 33 35  1  0  0  0  0
 35 34  1  0  0  0  0
M  END
>  <MODEL>
6

>  <REMARK>
 VINA RESULT:      -7.7      2.553      7.761
  Name = 
  13 active torsions:
  status: ('A' for Active; 'I' for Inactive)
    1  A    between atoms: O_4  and  C_8
    2  A    between atoms: O_4  and  C_24
    3  A    between atoms: C_5  and  C_11
    4  A    between atoms: N_7  and  C_34
    5  A    between atoms: C_8  and  C_30
    6  A    between atoms: C_14  and  C_24
    7  A    between atoms: C_16  and  C_22
    8  A    between atoms: C_17  and  C_18
    9  A    between atoms: C_17  and  C_19
   10  A    between atoms: C_18  and  C_22
   11  A    between atoms: O_28  and  C_35
   12  A    between atoms: C_30  and  C_34
   13  A    between atoms: C_30  and  C_35
                            x       y       z     vdW  Elec       q    Type
                         _______ _______ _______ _____ _____    ______ ____

>  <TORSDO>
F 13

$$$$
=
 OpenBabel11042410313D

 35 36  0  0  1  0  0  0  0  0999 V2000
  189.4220  177.4610  137.1760 C   0  0  1  0  0  3  0  0  0  0  0  0
  189.0120  179.7930  137.5000 O   0  0  0  0  0  0  0  0  0  0  0  0
  188.5070  178.6460  137.3360 C   0  0  0  0  0  0  0  0  0  0  0  0
  187.1200  178.4820  137.3570 O   0  0  0  0  0  0  0  0  0  0  0  0
  186.4390  178.1630  138.5610 C   0  0  0  0  0  2  0  0  0  0  0  0
  181.7890  178.6970  141.2790 C   0  0  0  0  0  3  0  0  0  0  0  0
  186.0400  179.6390  141.2270 N   0  0  0  0  0  1  0  0  0  0  0  0
  182.8940  179.5030  139.2480 C   0  0  0  0  0  0  0  0  0  0  0  0
  185.0160  178.6240  138.5000 C   0  0  0  0  0  3  0  0  0  0  0  0
  184.8000  179.0020  140.9220 C   0  0  0  0  0  0  0  0  0  0  0  0
  181.8460  179.4690  140.2350 N   0  0  0  0  0  0  0  0  0  0  0  0
  184.1310  178.3560  141.8870 C   0  0  0  0  0  0  0  0  0  0  0  0
  182.8330  177.6810  141.5920 C   0  0  0  0  0  2  0  0  0  0  0  0
  182.6190  179.9440  138.1020 O   0  0  0  0  0  0  0  0  0  0  0  0
  184.2840  179.0590  139.5310 C   0  0  0  0  0  0  0  0  0  0  0  0
  184.6270  178.3310  143.2950 C   0  0  0  0  0  1  0  0  0  0  0  0
  190.9970  175.8800  138.3340 C   0  0  0  0  0  1  0  0  0  0  0  0
  190.1820  177.1560  138.4790 C   0  0  2  0  0  3  0  0  0  0  0  0
  189.2520  176.9750  139.5810 N   0  0  0  0  0  2  0  0  0  0  0  0
  190.7860  177.4870  141.2670 O   0  0  0  0  0  0  0  0  0  0  0  0
  189.5900  177.2670  140.9390 C   0  0  0  0  0  0  0  0  0  0  0  0
  188.5110  177.3190  141.9640 C   0  0  0  0  0  2  0  0  0  0  0  0
  189.0720  177.8410  143.2750 C   0  0  0  0  0  2  0  0  0  0  0  0
  189.0930  176.7410  144.3250 C   0  0  0  0  0  2  0  0  0  0  0  0
  186.9470  178.0840  147.1370 C   0  0  0  0  0  3  0  0  0  0  0  0
  187.8820  178.2400  148.1630 C   0  0  0  0  0  3  0  0  0  0  0  0
  189.6470  177.4650  146.6900 C   0  0  0  0  0  0  0  0  0  0  0  0
  188.7020  177.2940  145.6570 C   0  0  0  0  0  0  0  0  0  0  0  0
  187.3580  177.6090  145.8900 C   0  0  0  0  0  3  0  0  0  0  0  0
  189.2280  177.9310  147.9410 C   0  0  0  0  0  3  0  0  0  0  0  0
  191.0890  177.1260  146.5020 C   0  0  0  0  0  2  0  0  0  0  0  0
  191.4350  175.9720  147.3180 N   0  0  0  0  0  1  0  0  0  0  0  0
  188.6310  176.2510  136.6910 C   0  0  0  0  0  2  0  0  0  0  0  0
  189.8170  176.1770  134.8350 C   0  0  0  0  0  1  0  0  0  0  0  0
  188.5070  176.3000  135.3030 O   0  0  0  0  0  0  0  0  0  0  0  0
  1 33  1  1  0  0  0
  1  3  1  0  0  0  0
  1 18  1  0  0  0  0
  3  4  1  0  0  0  0
  3  2  2  0  0  0  0
  4  5  1  0  0  0  0
  6 13  1  0  0  0  0
  8 15  1  0  0  0  0
  8 11  1  0  0  0  0
  9  5  1  0  0  0  0
  9 15  2  0  0  0  0
 10  7  1  0  0  0  0
 10 12  2  0  0  0  0
 11  6  2  0  0  0  0
 12 16  1  0  0  0  0
 13 12  1  0  0  0  0
 14  8  2  0  0  0  0
 15 10  1  0  0  0  0
 18 17  1  6  0  0  0
 18 19  1  0  0  0  0
 19 21  1  0  0  0  0
 21 20  2  0  0  0  0
 21 22  1  0  0  0  0
 22 23  1  0  0  0  0
 23 24  1  0  0  0  0
 24 28  1  0  0  0  0
 25 26  1  0  0  0  0
 27 30  1  0  0  0  0
 28 29  1  0  0  0  0
 28 27  2  0  0  0  0
 29 25  2  0  0  0  0
 30 26  2  0  0  0  0
 31 27  1  0  0  0  0
 31 32  1  0  0  0  0
 34 35  1  0  0  0  0
 35 33  1  0  0  0  0
M  END
>  <MODEL>
7

>  <REMARK>
 VINA RESULT:      -7.6      2.240      7.094
  Name = 
  13 active torsions:
  status: ('A' for Active; 'I' for Inactive)
    1  A    between atoms: O_4  and  C_8
    2  A    between atoms: O_4  and  C_24
    3  A    between atoms: C_5  and  C_11
    4  A    between atoms: N_7  and  C_34
    5  A    between atoms: C_8  and  C_30
    6  A    between atoms: C_14  and  C_24
    7  A    between atoms: C_16  and  C_22
    8  A    between atoms: C_17  and  C_18
    9  A    between atoms: C_17  and  C_19
   10  A    between atoms: C_18  and  C_22
   11  A    between atoms: O_28  and  C_35
   12  A    between atoms: C_30  and  C_34
   13  A    between atoms: C_30  and  C_35
                            x       y       z     vdW  Elec       q    Type
                         _______ _______ _______ _____ _____    ______ ____

>  <TORSDO>
F 13

$$$$
=
 OpenBabel11042410313D

 35 36  0  0  1  0  0  0  0  0999 V2000
  187.4130  177.5360  137.2840 C   0  0  1  0  0  3  0  0  0  0  0  0
  185.0830  177.2440  136.8380 O   0  0  0  0  0  0  0  0  0  0  0  0
  185.9610  177.8740  137.4930 C   0  0  0  0  0  0  0  0  0  0  0  0
  185.5840  178.9060  138.3560 O   0  0  0  0  0  0  0  0  0  0  0  0
  184.3180  178.8980  138.9980 C   0  0  0  0  0  2  0  0  0  0  0  0
  181.7760  178.9920  143.7750 C   0  0  0  0  0  3  0  0  0  0  0  0
  182.3460  176.7930  140.0600 N   0  0  0  0  0  1  0  0  0  0  0  0
  184.0060  178.6410  142.8280 C   0  0  0  0  0  0  0  0  0  0  0  0
  184.4790  178.9810  140.4840 C   0  0  0  0  0  3  0  0  0  0  0  0
  182.3480  177.8650  141.0020 C   0  0  0  0  0  0  0  0  0  0  0  0
  183.0290  178.6650  143.8850 N   0  0  0  0  0  0  0  0  0  0  0  0
  181.1880  178.3090  141.5030 C   0  0  0  0  0  0  0  0  0  0  0  0
  181.1630  179.4300  142.4890 C   0  0  0  0  0  2  0  0  0  0  0  0
  185.2220  178.7490  143.1380 O   0  0  0  0  0  0  0  0  0  0  0  0
  183.6430  178.4750  141.3960 C   0  0  0  0  0  0  0  0  0  0  0  0
  179.8880  177.6720  141.1400 C   0  0  0  0  0  1  0  0  0  0  0  0
  189.4370  179.0270  137.3170 C   0  0  0  0  0  1  0  0  0  0  0  0
  188.3280  178.4120  138.1570 C   0  0  2  0  0  3  0  0  0  0  0  0
  188.9440  177.6160  139.2060 N   0  0  0  0  0  2  0  0  0  0  0  0
  188.0510  178.8430  140.9830 O   0  0  0  0  0  0  0  0  0  0  0  0
  188.6720  177.8170  140.5950 C   0  0  0  0  0  0  0  0  0  0  0  0
  189.1210  176.7960  141.5820 C   0  0  0  0  0  2  0  0  0  0  0  0
  188.4800  177.0690  142.9310 C   0  0  0  0  0  2  0  0  0  0  0  0
  189.4660  177.7560  143.8640 C   0  0  0  0  0  2  0  0  0  0  0  0
  187.2070  177.7740  146.9000 C   0  0  0  0  0  3  0  0  0  0  0  0
  188.0640  177.3030  147.8980 C   0  0  0  0  0  3  0  0  0  0  0  0
  189.8780  177.1630  146.2940 C   0  0  0  0  0  0  0  0  0  0  0  0
  189.0110  177.6240  145.2810 C   0  0  0  0  0  0  0  0  0  0  0  0
  187.6810  177.9290  145.5960 C   0  0  0  0  0  3  0  0  0  0  0  0
  189.3950  176.9980  147.5970 C   0  0  0  0  0  3  0  0  0  0  0  0
  191.3000  176.8040  146.0090 C   0  0  0  0  0  2  0  0  0  0  0  0
  192.0510  176.7400  147.2530 N   0  0  0  0  0  1  0  0  0  0  0  0
  187.6470  176.0510  137.5390 C   0  0  0  0  0  2  0  0  0  0  0  0
  188.2270  175.6950  135.4420 C   0  0  0  0  0  1  0  0  0  0  0  0
  188.7060  175.6020  136.7500 O   0  0  0  0  0  0  0  0  0  0  0  0
  1  3  1  0  0  0  0
  1 33  1  1  0  0  0
  1 18  1  0  0  0  0
  2  3  2  0  0  0  0
  3  4  1  0  0  0  0
  4  5  1  0  0  0  0
  5  9  1  0  0  0  0
  6 11  2  0  0  0  0
  7 10  1  0  0  0  0
  8 14  2  0  0  0  0
  8 11  1  0  0  0  0
  9 15  2  0  0  0  0
 10 15  1  0  0  0  0
 10 12  2  0  0  0  0
 12 13  1  0  0  0  0
 13  6  1  0  0  0  0
 15  8  1  0  0  0  0
 16 12  1  0  0  0  0
 18 17  1  6  0  0  0
 18 19  1  0  0  0  0
 19 21  1  0  0  0  0
 21 20  2  0  0  0  0
 21 22  1  0  0  0  0
 22 23  1  0  0  0  0
 23 24  1  0  0  0  0
 24 28  1  0  0  0  0
 25 26  1  0  0  0  0
 27 30  1  0  0  0  0
 28 29  1  0  0  0  0
 28 27  2  0  0  0  0
 29 25  2  0  0  0  0
 30 26  2  0  0  0  0
 31 27  1  0  0  0  0
 31 32  1  0  0  0  0
 34 35  1  0  0  0  0
 35 33  1  0  0  0  0
M  END
>  <MODEL>
8

>  <REMARK>
 VINA RESULT:      -7.5      1.930      7.075
  Name = 
  13 active torsions:
  status: ('A' for Active; 'I' for Inactive)
    1  A    between atoms: O_4  and  C_8
    2  A    between atoms: O_4  and  C_24
    3  A    between atoms: C_5  and  C_11
    4  A    between atoms: N_7  and  C_34
    5  A    between atoms: C_8  and  C_30
    6  A    between atoms: C_14  and  C_24
    7  A    between atoms: C_16  and  C_22
    8  A    between atoms: C_17  and  C_18
    9  A    between atoms: C_17  and  C_19
   10  A    between atoms: C_18  and  C_22
   11  A    between atoms: O_28  and  C_35
   12  A    between atoms: C_30  and  C_34
   13  A    between atoms: C_30  and  C_35
                            x       y       z     vdW  Elec       q    Type
                         _______ _______ _______ _____ _____    ______ ____

>  <TORSDO>
F 13

$$$$
=
 OpenBabel11042410313D

 35 36  0  0  1  0  0  0  0  0999 V2000
  190.1480  177.1650  137.6800 C   0  0  1  0  0  3  0  0  0  0  0  0
  189.0660  179.0700  138.6360 O   0  0  0  0  0  0  0  0  0  0  0  0
  188.9250  177.9730  138.0250 C   0  0  0  0  0  0  0  0  0  0  0  0
  187.6460  177.4980  137.7240 O   0  0  0  0  0  0  0  0  0  0  0  0
  186.4870  178.1650  138.2010 C   0  0  0  0  0  2  0  0  0  0  0  0
  181.3450  176.5730  138.7600 C   0  0  0  0  0  3  0  0  0  0  0  0
  184.2040  179.7770  139.4800 N   0  0  0  0  0  1  0  0  0  0  0  0
  182.9240  177.2870  137.0320 C   0  0  0  0  0  0  0  0  0  0  0  0
  185.2640  177.6630  137.4990 C   0  0  0  0  0  3  0  0  0  0  0  0
  183.6810  178.4790  139.1970 C   0  0  0  0  0  0  0  0  0  0  0  0
  181.6300  176.9120  137.5390 N   0  0  0  0  0  0  0  0  0  0  0  0
  182.9270  177.8550  140.1120 C   0  0  0  0  0  0  0  0  0  0  0  0
  182.3690  176.4970  139.8400 C   0  0  0  0  0  2  0  0  0  0  0  0
  183.1430  177.1510  135.7990 O   0  0  0  0  0  0  0  0  0  0  0  0
  184.0000  177.8430  137.8940 C   0  0  0  0  0  0  0  0  0  0  0  0
  182.5720  178.5090  141.4050 C   0  0  0  0  0  1  0  0  0  0  0  0
  192.3840  176.3310  138.4720 C   0  0  0  0  0  1  0  0  0  0  0  0
  191.1220  177.0830  138.8680 C   0  0  2  0  0  3  0  0  0  0  0  0
  190.5090  176.3790  139.9820 N   0  0  0  0  0  2  0  0  0  0  0  0
  191.5590  177.6290  141.6540 O   0  0  0  0  0  0  0  0  0  0  0  0
  190.6830  176.7770  141.3440 C   0  0  0  0  0  0  0  0  0  0  0  0
  189.8110  176.1830  142.3950 C   0  0  0  0  0  2  0  0  0  0  0  0
  189.0170  177.2790  143.0830 C   0  0  0  0  0  2  0  0  0  0  0  0
  188.7290  176.9070  144.5290 C   0  0  0  0  0  2  0  0  0  0  0  0
  185.2450  178.3760  144.4000 C   0  0  0  0  0  3  0  0  0  0  0  0
  184.9790  178.6050  145.7520 C   0  0  0  0  0  3  0  0  0  0  0  0
  187.1810  177.7750  146.3390 C   0  0  0  0  0  0  0  0  0  0  0  0
  187.4460  177.5290  144.9760 C   0  0  0  0  0  0  0  0  0  0  0  0
  186.4740  177.8370  144.0160 C   0  0  0  0  0  3  0  0  0  0  0  0
  185.9430  178.3050  146.7200 C   0  0  0  0  0  3  0  0  0  0  0  0
  188.1750  177.4470  147.4050 C   0  0  0  0  0  2  0  0  0  0  0  0
  187.9290  178.2710  148.5780 N   0  0  0  0  0  1  0  0  0  0  0  0
  189.7410  175.7800  137.1910 C   0  0  0  0  0  2  0  0  0  0  0  0
  190.8310  176.0070  135.2900 C   0  0  0  0  0  1  0  0  0  0  0  0
  189.5510  175.8090  135.8100 O   0  0  0  0  0  0  0  0  0  0  0  0
  1 33  1  1  0  0  0
  1  3  1  0  0  0  0
  1 18  1  0  0  0  0
  3  2  2  0  0  0  0
  4  3  1  0  0  0  0
  4  5  1  0  0  0  0
  6 13  1  0  0  0  0
  8 11  1  0  0  0  0
  8 15  1  0  0  0  0
  9 15  2  0  0  0  0
  9  5  1  0  0  0  0
 10  7  1  0  0  0  0
 10 12  2  0  0  0  0
 11  6  2  0  0  0  0
 12 16  1  0  0  0  0
 13 12  1  0  0  0  0
 14  8  2  0  0  0  0
 15 10  1  0  0  0  0
 18 17  1  6  0  0  0
 18 19  1  0  0  0  0
 19 21  1  0  0  0  0
 21 20  2  0  0  0  0
 21 22  1  0  0  0  0
 22 23  1  0  0  0  0
 23 24  1  0  0  0  0
 24 28  1  0  0  0  0
 25 26  1  0  0  0  0
 26 30  2  0  0  0  0
 27 30  1  0  0  0  0
 27 31  1  0  0  0  0
 28 27  2  0  0  0  0
 29 25  2  0  0  0  0
 29 28  1  0  0  0  0
 31 32  1  0  0  0  0
 34 35  1  0  0  0  0
 35 33  1  0  0  0  0
M  END
>  <MODEL>
9

>  <REMARK>
 VINA RESULT:      -7.5      2.468      7.334
  Name = 
  13 active torsions:
  status: ('A' for Active; 'I' for Inactive)
    1  A    between atoms: O_4  and  C_8
    2  A    between atoms: O_4  and  C_24
    3  A    between atoms: C_5  and  C_11
    4  A    between atoms: N_7  and  C_34
    5  A    between atoms: C_8  and  C_30
    6  A    between atoms: C_14  and  C_24
    7  A    between atoms: C_16  and  C_22
    8  A    between atoms: C_17  and  C_18
    9  A    between atoms: C_17  and  C_19
   10  A    between atoms: C_18  and  C_22
   11  A    between atoms: O_28  and  C_35
   12  A    between atoms: C_30  and  C_34
   13  A    between atoms: C_30  and  C_35
                            x       y       z     vdW  Elec       q    Type
                         _______ _______ _______ _____ _____    ______ ____

>  <TORSDO>
F 13

$$$$
