=
 OpenBabel11042412403D

 43 47  0  0  1  0  0  0  0  0999 V2000
  190.1530  175.7180  138.3850 C   0  0  0  0  0  2  0  0  0  0  0  0
  191.1900  174.7600  134.7310 C   0  0  0  0  0  0  0  0  0  0  0  0
  189.8980  175.2540  134.9350 C   0  0  0  0  0  3  0  0  0  0  0  0
  190.3130  172.5030  134.6630 C   0  0  0  0  0  3  0  0  0  0  0  0
  187.4400  177.0230  136.5840 C   0  0  1  0  0  3  0  0  0  0  0  0
  187.3470  178.5690  140.2160 C   0  0  2  0  0  3  0  0  0  0  0  0
  186.5410  174.0830  135.6470 O   0  0  0  0  0  0  0  0  0  0  0  0
  186.4320  178.2260  143.6830 C   0  0  0  0  0  2  0  0  0  0  0  0
  185.9140  177.4050  138.5290 C   0  0  0  0  0  2  0  0  0  0  0  0
  192.3210  176.2130  137.2340 C   0  0  1  0  0  3  0  0  0  0  0  0
  183.8400  178.9200  140.0680 O   0  0  0  0  0  0  0  0  0  0  0  0
  189.0230  172.9980  134.8820 C   0  0  0  0  0  3  0  0  0  0  0  0
  193.1500  176.6930  138.2360 F   0  0  0  0  0  0  0  0  0  0  0  0
  185.6150  179.0410  141.6170 N   0  0  0  0  0  0  0  0  0  0  0  0
  185.0430  176.9910  136.2370 C   0  0  0  0  0  2  0  0  0  0  0  0
  188.4850  178.1070  136.4040 C   0  0  0  0  0  1  0  0  0  0  0  0
  193.1290  175.6360  136.0610 C   0  0  1  0  0  3  0  0  0  0  0  0
  185.6950  176.6400  134.9170 C   0  0  0  0  0  2  0  0  0  0  0  0
  191.4330  175.1290  137.8220 C   0  0  0  0  0  2  0  0  0  0  0  0
  192.3480  175.7000  134.7430 C   0  0  0  0  0  2  0  0  0  0  0  0
  186.1520  178.6970  139.2970 C   0  0  1  0  0  3  0  0  0  0  0  0
  188.8050  174.3770  135.0210 C   0  0  0  0  0  0  0  0  0  0  0  0
  187.4490  174.8880  135.3000 C   0  0  0  0  0  0  0  0  0  0  0  0
  186.1360  177.6500  137.0480 C   0  0  2  0  0  3  0  0  0  0  0  0
  190.3840  176.2900  139.7700 C   0  0  0  0  0  2  0  0  0  0  0  0
  191.3970  173.3840  134.5960 C   0  0  0  0  0  3  0  0  0  0  0  0
  188.7160  178.1490  139.7790 C   0  0  0  0  0  2  0  0  0  0  0  0
  186.9790  178.8060  141.4750 C   0  0  1  0  0  3  0  0  0  0  0  0
  185.0740  178.8880  140.3170 C   0  0  0  0  0  0  0  0  0  0  0  0
  189.0690  176.7810  140.3460 C   0  0  0  0  0  2  0  0  0  0  0  0
  187.1570  176.3660  135.2390 C   0  0  2  0  0  3  0  0  0  0  0  0
  187.6320  178.3840  142.7300 C   0  0  0  0  0  2  0  0  0  0  0  0
  185.1460  178.4940  142.8690 C   0  0  0  0  0  2  0  0  0  0  0  0
  194.4470  176.3230  135.8850 C   0  0  0  0  0  0  0  0  0  0  0  0
  195.5670  175.5610  135.4220 N   0  0  0  0  0  2  0  0  0  0  0  0
  194.5500  177.5640  136.0920 O   0  0  0  0  0  0  0  0  0  0  0  0
  196.9350  175.9920  135.4420 C   0  0  0  0  0  0  0  0  0  0  0  0
  197.2890  176.9590  134.6070 C   0  0  0  0  0  2  0  0  0  0  0  0
  197.9680  175.2780  136.2360 C   0  0  0  0  0  0  0  0  0  0  0  0
  199.1600  175.2630  135.8340 O   0  0  0  0  0  0  0  0  0  0  0  0
  197.6560  174.6040  137.5400 C   0  0  0  0  0  3  0  0  0  0  0  0
  198.0750  175.3970  138.6100 O   0  0  0  0  0  1  0  0  0  0  0  0
  198.2740  173.3530  137.6060 O   0  0  0  0  0  1  0  0  0  0  0  0
  1 25  1  0  0  0  0
  2 20  1  0  0  0  0
  2  3  1  0  0  0  0
  3 22  2  0  0  0  0
  4 12  2  0  0  0  0
  5 16  1  6  0  0  0
  5 24  1  0  0  0  0
  6 27  1  1  0  0  0
  6 28  1  0  0  0  0
 10 19  1  0  0  0  0
 10 13  1  1  0  0  0
 11 29  2  0  0  0  0
 12 22  1  0  0  0  0
 14 33  1  0  0  0  0
 17 34  1  6  0  0  0
 17 10  1  0  0  0  0
 18 15  1  0  0  0  0
 19  1  1  0  0  0  0
 20 17  1  0  0  0  0
 21  9  1  1  0  0  0
 21  6  1  0  0  0  0
 21 29  1  0  0  0  0
 22 23  1  0  0  0  0
 23  7  2  0  0  0  0
 24 15  1  6  0  0  0
 24  9  1  0  0  0  0
 25 30  1  0  0  0  0
 26  4  1  0  0  0  0
 26  2  2  0  0  0  0
 27 30  1  0  0  0  0
 28 14  1  0  0  0  0
 28 32  1  1  0  0  0
 29 14  1  0  0  0  0
 31 18  1  1  0  0  0
 31 23  1  0  0  0  0
 31  5  1  0  0  0  0
 32  8  1  0  0  0  0
 33  8  1  0  0  0  0
 34 36  2  0  0  0  0
 35 37  1  0  0  0  0
 35 34  1  0  0  0  0
 37 39  1  0  0  0  0
 38 37  2  0  0  0  0
 39 41  1  0  0  0  0
 40 39  2  0  0  0  0
 41 43  1  0  0  0  0
 41 42  1  0  0  0  0
M  END
>  <MODEL>
1

>  <REMARK>
 VINA RESULT:      -7.1      0.000      0.000
  Name = 
  4 active torsions:
  status: ('A' for Active; 'I' for Inactive)
    1  A    between atoms: C_5  and  C_20
    2  A    between atoms: C_6  and  C_24
    3  A    between atoms: N_13  and  C_37
    4  A    between atoms: C_24  and  C_37
                            x       y       z     vdW  Elec       q    Type
                         _______ _______ _______ _____ _____    ______ ____

>  <TORSDO>
F 4

$$$$
=
 OpenBabel11042412403D

 43 47  0  0  1  0  0  0  0  0999 V2000
  184.4180  176.0260  138.0860 C   0  0  0  0  0  2  0  0  0  0  0  0
  183.7850  179.4080  139.9590 C   0  0  0  0  0  0  0  0  0  0  0  0
  185.1050  179.0740  139.6410 C   0  0  0  0  0  3  0  0  0  0  0  0
  184.1480  178.6600  142.2340 C   0  0  0  0  0  3  0  0  0  0  0  0
  187.5990  177.4880  137.8640 C   0  0  1  0  0  3  0  0  0  0  0  0
  187.4540  174.4930  135.2960 C   0  0  2  0  0  3  0  0  0  0  0  0
  187.9700  177.3600  141.0550 O   0  0  0  0  0  0  0  0  0  0  0  0
  187.7140  170.9530  134.6790 C   0  0  0  0  0  2  0  0  0  0  0  0
  188.8460  175.4420  137.1440 C   0  0  0  0  0  2  0  0  0  0  0  0
  182.6190  177.7090  137.6330 C   0  0  1  0  0  3  0  0  0  0  0  0
  190.9310  173.9710  135.5780 O   0  0  0  0  0  0  0  0  0  0  0  0
  185.4640  178.3130  141.9100 C   0  0  0  0  0  3  0  0  0  0  0  0
  181.7680  177.0810  136.7370 F   0  0  0  0  0  0  0  0  0  0  0  0
  189.0040  172.9370  134.6940 N   0  0  0  0  0  0  0  0  0  0  0  0
  189.9550  177.2860  138.3880 C   0  0  0  0  0  2  0  0  0  0  0  0
  186.8570  178.1820  136.7380 C   0  0  0  0  0  1  0  0  0  0  0  0
  181.9000  178.8220  138.4100 C   0  0  1  0  0  3  0  0  0  0  0  0
  189.4580  178.5670  139.0250 C   0  0  0  0  0  2  0  0  0  0  0  0
  183.1450  176.6670  138.6070 C   0  0  0  0  0  2  0  0  0  0  0  0
  182.8730  179.9060  138.8890 C   0  0  0  0  0  2  0  0  0  0  0  0
  188.7780  175.1320  135.6560 C   0  0  1  0  0  3  0  0  0  0  0  0
  185.9530  178.5160  140.6110 C   0  0  0  0  0  0  0  0  0  0  0  0
  187.3260  178.1030  140.2640 C   0  0  0  0  0  0  0  0  0  0  0  0
  188.9190  176.9450  137.3420 C   0  0  2  0  0  3  0  0  0  0  0  0
  184.1020  174.9370  137.0800 C   0  0  0  0  0  2  0  0  0  0  0  0
  183.3070  179.1990  141.2560 C   0  0  0  0  0  3  0  0  0  0  0  0
  186.1120  175.0810  135.6050 C   0  0  0  0  0  2  0  0  0  0  0  0
  187.6610  173.3000  134.7390 C   0  0  1  0  0  3  0  0  0  0  0  0
  189.6970  173.9960  135.3310 C   0  0  0  0  0  0  0  0  0  0  0  0
  185.3840  174.2490  136.6520 C   0  0  0  0  0  2  0  0  0  0  0  0
  187.9400  178.5050  138.9460 C   0  0  2  0  0  3  0  0  0  0  0  0
  186.7420  172.1490  134.6370 C   0  0  0  0  0  2  0  0  0  0  0  0
  189.1390  171.5120  134.8900 C   0  0  0  0  0  2  0  0  0  0  0  0
  180.8080  179.4610  137.6110 C   0  0  0  0  0  0  0  0  0  0  0  0
  181.1600  180.3790  136.5700 N   0  0  0  0  0  2  0  0  0  0  0  0
  179.6030  179.1510  137.8190 O   0  0  0  0  0  0  0  0  0  0  0  0
  180.2530  181.2580  135.8900 C   0  0  0  0  0  0  0  0  0  0  0  0
  179.6320  180.7930  134.8160 C   0  0  0  0  0  2  0  0  0  0  0  0
  180.1300  182.6920  136.2590 C   0  0  0  0  0  0  0  0  0  0  0  0
  179.4710  183.0180  137.2800 O   0  0  0  0  0  0  0  0  0  0  0  0
  180.8070  183.7830  135.4820 C   0  0  0  0  0  3  0  0  0  0  0  0
  181.5630  184.5910  136.3340 O   0  0  0  0  0  1  0  0  0  0  0  0
  179.8650  184.5600  134.8040 O   0  0  0  0  0  1  0  0  0  0  0  0
  1 19  1  0  0  0  0
  2 26  1  0  0  0  0
  3  2  2  0  0  0  0
  3 22  1  0  0  0  0
  5 16  1  6  0  0  0
  5 31  1  0  0  0  0
  6 27  1  1  0  0  0
  6 21  1  0  0  0  0
  8 33  1  0  0  0  0
 10 13  1  6  0  0  0
 10 17  1  0  0  0  0
 10 19  1  0  0  0  0
 12  4  1  0  0  0  0
 14 28  1  0  0  0  0
 14 33  1  0  0  0  0
 14 29  1  0  0  0  0
 15 18  1  0  0  0  0
 17 34  1  6  0  0  0
 17 20  1  0  0  0  0
 20  2  1  0  0  0  0
 21  9  1  1  0  0  0
 22 12  2  0  0  0  0
 23 22  1  0  0  0  0
 23  7  2  0  0  0  0
 24  9  1  1  0  0  0
 24  5  1  0  0  0  0
 24 15  1  0  0  0  0
 25  1  1  0  0  0  0
 26  4  2  0  0  0  0
 27 30  1  0  0  0  0
 28 32  1  1  0  0  0
 28  6  1  0  0  0  0
 29 11  2  0  0  0  0
 29 21  1  0  0  0  0
 30 25  1  0  0  0  0
 31 18  1  1  0  0  0
 31 23  1  0  0  0  0
 32  8  1  0  0  0  0
 34 36  2  0  0  0  0
 35 34  1  0  0  0  0
 37 39  1  0  0  0  0
 37 35  1  0  0  0  0
 38 37  2  0  0  0  0
 39 40  2  0  0  0  0
 41 39  1  0  0  0  0
 41 42  1  0  0  0  0
 43 41  1  0  0  0  0
M  END
>  <MODEL>
2

>  <REMARK>
 VINA RESULT:      -6.8      4.509     11.405
  Name = 
  4 active torsions:
  status: ('A' for Active; 'I' for Inactive)
    1  A    between atoms: C_5  and  C_20
    2  A    between atoms: C_6  and  C_24
    3  A    between atoms: N_13  and  C_37
    4  A    between atoms: C_24  and  C_37
                            x       y       z     vdW  Elec       q    Type
                         _______ _______ _______ _____ _____    ______ ____

>  <TORSDO>
F 4

$$$$
=
 OpenBabel11042412403D

 43 47  0  0  1  0  0  0  0  0999 V2000
  184.4960  176.8020  136.5340 C   0  0  0  0  0  2  0  0  0  0  0  0
  180.8370  176.0180  137.6920 C   0  0  0  0  0  0  0  0  0  0  0  0
  181.6720  174.9380  137.3880 C   0  0  0  0  0  3  0  0  0  0  0  0
  179.7850  175.8080  135.5200 C   0  0  0  0  0  3  0  0  0  0  0  0
  184.6930  173.3280  136.9770 C   0  0  1  0  0  3  0  0  0  0  0  0
  188.3750  174.7370  136.7410 C   0  0  2  0  0  3  0  0  0  0  0  0
  182.5970  172.8220  134.5940 O   0  0  0  0  0  0  0  0  0  0  0  0
  191.1200  175.8420  134.6860 C   0  0  0  0  0  2  0  0  0  0  0  0
  186.8720  172.9750  135.7980 C   0  0  0  0  0  2  0  0  0  0  0  0
  183.2220  177.8780  138.4020 C   0  0  1  0  0  3  0  0  0  0  0  0
  189.5460  171.6870  135.4100 O   0  0  0  0  0  0  0  0  0  0  0  0
  180.6310  174.7380  135.2130 C   0  0  0  0  0  3  0  0  0  0  0  0
  184.0030  178.9580  138.7850 F   0  0  0  0  0  0  0  0  0  0  0  0
  190.2500  173.9130  135.7470 N   0  0  0  0  0  0  0  0  0  0  0  0
  185.1530  171.1840  135.9490 C   0  0  0  0  0  2  0  0  0  0  0  0
  184.8430  173.8330  138.4000 C   0  0  0  0  0  1  0  0  0  0  0  0
  181.7480  178.0830  138.7860 C   0  0  1  0  0  3  0  0  0  0  0  0
  183.7420  171.1300  136.4950 C   0  0  0  0  0  2  0  0  0  0  0  0
  183.3360  177.7110  136.8960 C   0  0  0  0  0  2  0  0  0  0  0  0
  181.0170  176.7490  138.9790 C   0  0  0  0  0  2  0  0  0  0  0  0
  188.1130  173.2500  136.6330 C   0  0  1  0  0  3  0  0  0  0  0  0
  181.5820  174.2950  136.1440 C   0  0  0  0  0  0  0  0  0  0  0  0
  182.5040  173.1970  135.7950 C   0  0  0  0  0  0  0  0  0  0  0  0
  185.8070  172.3390  136.6720 C   0  0  2  0  0  3  0  0  0  0  0  0
  185.8070  177.5640  136.5570 C   0  0  0  0  0  2  0  0  0  0  0  0
  179.8930  176.4530  136.7560 C   0  0  0  0  0  3  0  0  0  0  0  0
  187.3790  175.7430  137.2290 C   0  0  0  0  0  2  0  0  0  0  0  0
  189.5860  175.0210  136.2640 C   0  0  1  0  0  3  0  0  0  0  0  0
  189.3360  172.8380  135.8740 C   0  0  0  0  0  0  0  0  0  0  0  0
  186.9320  176.6560  136.0960 C   0  0  0  0  0  2  0  0  0  0  0  0
  183.3810  172.5660  136.8470 C   0  0  2  0  0  3  0  0  0  0  0  0
  190.1060  176.3050  135.7520 C   0  0  0  0  0  2  0  0  0  0  0  0
  191.0460  174.3010  134.6050 C   0  0  0  0  0  2  0  0  0  0  0  0
  181.5920  178.9120  140.0230 C   0  0  0  0  0  0  0  0  0  0  0  0
  182.2180  178.4720  141.2330 N   0  0  0  0  0  2  0  0  0  0  0  0
  180.9640  180.0060  139.9800 O   0  0  0  0  0  0  0  0  0  0  0  0
  181.9640  178.9990  142.5430 C   0  0  0  0  0  0  0  0  0  0  0  0
  182.9370  178.9210  143.4390 C   0  0  0  0  0  2  0  0  0  0  0  0
  180.6120  179.4610  142.9500 C   0  0  0  0  0  0  0  0  0  0  0  0
  180.3830  180.6930  143.0630 O   0  0  0  0  0  0  0  0  0  0  0  0
  179.4760  178.5110  143.1920 C   0  0  0  0  0  3  0  0  0  0  0  0
  179.6720  177.8110  144.3840 O   0  0  0  0  0  1  0  0  0  0  0  0
  179.3530  177.6120  142.1290 O   0  0  0  0  0  1  0  0  0  0  0  0
  1 25  1  0  0  0  0
  1 19  1  0  0  0  0
  2 20  1  0  0  0  0
  3  2  1  0  0  0  0
  4 26  1  0  0  0  0
  5 16  1  1  0  0  0
  6 27  1  6  0  0  0
  7 23  2  0  0  0  0
  8 32  1  0  0  0  0
 10 13  1  6  0  0  0
 10 17  1  0  0  0  0
 11 29  2  0  0  0  0
 12  4  2  0  0  0  0
 12 22  1  0  0  0  0
 14 29  1  0  0  0  0
 14 28  1  0  0  0  0
 15 18  1  0  0  0  0
 15 24  1  0  0  0  0
 17 20  1  0  0  0  0
 17 34  1  1  0  0  0
 19 10  1  0  0  0  0
 21  9  1  6  0  0  0
 21  6  1  0  0  0  0
 22  3  2  0  0  0  0
 23 22  1  0  0  0  0
 23 31  1  0  0  0  0
 24  9  1  6  0  0  0
 24  5  1  0  0  0  0
 26  2  2  0  0  0  0
 28 32  1  6  0  0  0
 28  6  1  0  0  0  0
 29 21  1  0  0  0  0
 30 25  1  0  0  0  0
 30 27  1  0  0  0  0
 31 18  1  6  0  0  0
 31  5  1  0  0  0  0
 33  8  1  0  0  0  0
 33 14  1  0  0  0  0
 34 35  1  0  0  0  0
 35 37  1  0  0  0  0
 36 34  2  0  0  0  0
 37 39  1  0  0  0  0
 37 38  2  0  0  0  0
 39 40  2  0  0  0  0
 39 41  1  0  0  0  0
 41 42  1  0  0  0  0
 43 41  1  0  0  0  0
M  END
>  <MODEL>
3

>  <REMARK>
 VINA RESULT:      -6.1      4.523     11.101
  Name = 
  4 active torsions:
  status: ('A' for Active; 'I' for Inactive)
    1  A    between atoms: C_5  and  C_20
    2  A    between atoms: C_6  and  C_24
    3  A    between atoms: N_13  and  C_37
    4  A    between atoms: C_24  and  C_37
                            x       y       z     vdW  Elec       q    Type
                         _______ _______ _______ _____ _____    ______ ____

>  <TORSDO>
F 4

$$$$
=
 OpenBabel11042412403D

 43 47  0  0  1  0  0  0  0  0999 V2000
  183.2320  176.5850  137.4160 C   0  0  0  0  0  2  0  0  0  0  0  0
  179.7610  178.0400  138.5010 C   0  0  0  0  0  0  0  0  0  0  0  0
  179.7800  176.7830  137.8880 C   0  0  0  0  0  3  0  0  0  0  0  0
  179.0950  179.0490  136.4020 C   0  0  0  0  0  3  0  0  0  0  0  0
  181.1800  173.7810  136.9290 C   0  0  1  0  0  3  0  0  0  0  0  0
  184.9370  172.5630  136.8930 C   0  0  2  0  0  3  0  0  0  0  0  0
  179.5500  175.2770  134.5980 O   0  0  0  0  0  0  0  0  0  0  0  0
  188.0130  172.1300  135.0700 C   0  0  0  0  0  2  0  0  0  0  0  0
  182.8030  172.4210  135.5960 C   0  0  0  0  0  2  0  0  0  0  0  0
  182.6690  177.7540  139.5570 C   0  0  1  0  0  3  0  0  0  0  0  0
  184.1310  169.8710  134.7610 O   0  0  0  0  0  0  0  0  0  0  0  0
  179.1290  177.7930  135.7870 C   0  0  0  0  0  3  0  0  0  0  0  0
  183.8930  177.9750  140.1700 F   0  0  0  0  0  0  0  0  0  0  0  0
  186.0100  171.0020  135.6310 N   0  0  0  0  0  0  0  0  0  0  0  0
  180.3440  172.1390  135.3570 C   0  0  0  0  0  2  0  0  0  0  0  0
  181.4260  173.7340  138.4250 C   0  0  0  0  0  1  0  0  0  0  0  0
  181.6030  178.7450  140.0510 C   0  0  1  0  0  3  0  0  0  0  0  0
  179.1470  172.8620  135.9370 C   0  0  0  0  0  2  0  0  0  0  0  0
  182.8480  177.9060  138.0560 C   0  0  0  0  0  2  0  0  0  0  0  0
  180.1870  178.1710  139.9240 C   0  0  0  0  0  2  0  0  0  0  0  0
  183.8290  171.6500  136.4140 C   0  0  1  0  0  3  0  0  0  0  0  0
  179.4730  176.6510  136.5250 C   0  0  0  0  0  0  0  0  0  0  0  0
  179.5540  175.3360  135.8580 C   0  0  0  0  0  0  0  0  0  0  0  0
  181.4720  172.4180  136.3250 C   0  0  2  0  0  3  0  0  0  0  0  0
  184.7170  176.3190  137.5730 C   0  0  0  0  0  2  0  0  0  0  0  0
  179.4190  179.1730  137.7560 C   0  0  0  0  0  3  0  0  0  0  0  0
  184.7240  173.8230  137.6730 C   0  0  0  0  0  2  0  0  0  0  0  0
  186.1130  172.1210  136.4500 C   0  0  1  0  0  3  0  0  0  0  0  0
  184.6200  170.7500  135.5180 C   0  0  0  0  0  0  0  0  0  0  0  0
  185.0880  175.0440  136.8400 C   0  0  0  0  0  2  0  0  0  0  0  0
  179.7090  174.0730  136.6670 C   0  0  2  0  0  3  0  0  0  0  0  0
  187.3760  172.8640  136.2660 C   0  0  0  0  0  2  0  0  0  0  0  0
  187.0140  171.0520  134.5940 C   0  0  0  0  0  2  0  0  0  0  0  0
  181.8350  179.1720  141.4660 C   0  0  0  0  0  0  0  0  0  0  0  0
  182.9550  178.6320  142.1770 N   0  0  0  0  0  2  0  0  0  0  0  0
  181.0850  180.0350  142.0010 O   0  0  0  0  0  0  0  0  0  0  0  0
  183.1740  178.7340  143.5910 C   0  0  0  0  0  0  0  0  0  0  0  0
  182.1150  178.6610  144.3850 C   0  0  0  0  0  2  0  0  0  0  0  0
  184.5040  179.0800  144.1530 C   0  0  0  0  0  0  0  0  0  0  0  0
  185.1170  180.0920  143.7230 O   0  0  0  0  0  0  0  0  0  0  0  0
  185.1400  178.2920  145.2610 C   0  0  0  0  0  3  0  0  0  0  0  0
  185.6720  179.1500  146.2260 O   0  0  0  0  0  1  0  0  0  0  0  0
  186.1440  177.4610  144.7590 O   0  0  0  0  0  1  0  0  0  0  0  0
  1 25  1  0  0  0  0
  1 19  1  0  0  0  0
  2 20  1  0  0  0  0
  3  2  1  0  0  0  0
  4 26  1  0  0  0  0
  5 16  1  1  0  0  0
  6 27  1  6  0  0  0
  7 23  2  0  0  0  0
  8 32  1  0  0  0  0
  9 24  1  0  0  0  0
 10 17  1  0  0  0  0
 10 13  1  1  0  0  0
 11 29  2  0  0  0  0
 12  4  2  0  0  0  0
 12 22  1  0  0  0  0
 14 28  1  0  0  0  0
 15 18  1  0  0  0  0
 17 34  1  1  0  0  0
 19 10  1  0  0  0  0
 20 17  1  0  0  0  0
 21  9  1  6  0  0  0
 21  6  1  0  0  0  0
 22  3  2  0  0  0  0
 23 22  1  0  0  0  0
 23 31  1  0  0  0  0
 24 15  1  6  0  0  0
 24  5  1  0  0  0  0
 26  2  2  0  0  0  0
 28 32  1  6  0  0  0
 28  6  1  0  0  0  0
 29 14  1  0  0  0  0
 29 21  1  0  0  0  0
 30 25  1  0  0  0  0
 30 27  1  0  0  0  0
 31 18  1  6  0  0  0
 31  5  1  0  0  0  0
 33  8  1  0  0  0  0
 33 14  1  0  0  0  0
 34 36  2  0  0  0  0
 34 35  1  0  0  0  0
 35 37  1  0  0  0  0
 37 39  1  0  0  0  0
 37 38  2  0  0  0  0
 39 41  1  0  0  0  0
 40 39  2  0  0  0  0
 41 42  1  0  0  0  0
 43 41  1  0  0  0  0
M  END
>  <MODEL>
4

>  <REMARK>
 VINA RESULT:      -4.8      6.729     11.155
  Name = 
  4 active torsions:
  status: ('A' for Active; 'I' for Inactive)
    1  A    between atoms: C_5  and  C_20
    2  A    between atoms: C_6  and  C_24
    3  A    between atoms: N_13  and  C_37
    4  A    between atoms: C_24  and  C_37
                            x       y       z     vdW  Elec       q    Type
                         _______ _______ _______ _____ _____    ______ ____

>  <TORSDO>
F 4

$$$$
=
 OpenBabel11042412403D

 43 47  0  0  1  0  0  0  0  0999 V2000
  185.1190  177.1200  137.5130 C   0  0  0  0  0  2  0  0  0  0  0  0
  181.3990  176.5000  138.5700 C   0  0  0  0  0  0  0  0  0  0  0  0
  182.0780  175.4590  137.9290 C   0  0  0  0  0  3  0  0  0  0  0  0
  180.3080  177.0670  136.4830 C   0  0  0  0  0  3  0  0  0  0  0  0
  184.8520  173.6710  136.9270 C   0  0  1  0  0  3  0  0  0  0  0  0
  188.6870  174.6130  136.9300 C   0  0  2  0  0  3  0  0  0  0  0  0
  182.6850  174.1510  134.6030 O   0  0  0  0  0  0  0  0  0  0  0  0
  191.5370  175.9140  135.1520 C   0  0  0  0  0  2  0  0  0  0  0  0
  186.9520  173.4060  135.5930 C   0  0  0  0  0  2  0  0  0  0  0  0
  184.0190  177.7570  139.6700 C   0  0  1  0  0  3  0  0  0  0  0  0
  189.4260  171.9610  134.7240 O   0  0  0  0  0  0  0  0  0  0  0  0
  181.0000  176.0350  135.8400 C   0  0  0  0  0  3  0  0  0  0  0  0
  184.9420  178.5710  140.3090 F   0  0  0  0  0  0  0  0  0  0  0  0
  190.4250  173.8850  135.6520 N   0  0  0  0  0  0  0  0  0  0  0  0
  185.0100  171.8800  135.3050 C   0  0  0  0  0  2  0  0  0  0  0  0
  185.0810  173.7170  138.4260 C   0  0  0  0  0  1  0  0  0  0  0  0
  182.5900  178.0240  140.1670 C   0  0  1  0  0  3  0  0  0  0  0  0
  183.6090  171.8480  135.8800 C   0  0  0  0  0  2  0  0  0  0  0  0
  184.0960  178.0230  138.1760 C   0  0  0  0  0  2  0  0  0  0  0  0
  181.6880  176.7960  140.0030 C   0  0  0  0  0  2  0  0  0  0  0  0
  188.2270  173.2670  136.4120 C   0  0  1  0  0  3  0  0  0  0  0  0
  181.8910  175.2230  136.5580 C   0  0  0  0  0  0  0  0  0  0  0  0
  182.6540  174.1670  135.8640 C   0  0  0  0  0  0  0  0  0  0  0  0
  185.8190  172.6820  136.2980 C   0  0  2  0  0  3  0  0  0  0  0  0
  186.5210  177.6700  137.6900 C   0  0  0  0  0  2  0  0  0  0  0  0
  180.5140  177.3040  137.8450 C   0  0  0  0  0  3  0  0  0  0  0  0
  187.8400  175.5500  137.7340 C   0  0  0  0  0  2  0  0  0  0  0  0
  189.9210  174.8680  136.4980 C   0  0  1  0  0  3  0  0  0  0  0  0
  189.3760  172.9440  135.5090 C   0  0  0  0  0  0  0  0  0  0  0  0
  187.5100  176.8020  136.9350 C   0  0  0  0  0  2  0  0  0  0  0  0
  183.4480  173.1520  136.6470 C   0  0  2  0  0  3  0  0  0  0  0  0
  190.6050  176.1690  136.3520 C   0  0  0  0  0  2  0  0  0  0  0  0
  191.2550  174.4860  134.6340 C   0  0  0  0  0  2  0  0  0  0  0  0
  182.5580  178.4690  141.5960 C   0  0  0  0  0  0  0  0  0  0  0  0
  183.7920  178.7860  142.2490 N   0  0  0  0  0  2  0  0  0  0  0  0
  181.4550  178.6130  142.1930 O   0  0  0  0  0  0  0  0  0  0  0  0
  183.9640  178.9780  143.6600 C   0  0  0  0  0  0  0  0  0  0  0  0
  183.0660  179.7150  144.2960 C   0  0  0  0  0  2  0  0  0  0  0  0
  185.1880  178.5200  144.3670 C   0  0  0  0  0  0  0  0  0  0  0  0
  185.9570  177.6950  143.8100 O   0  0  0  0  0  0  0  0  0  0  0  0
  185.5780  179.0420  145.7190 C   0  0  0  0  0  3  0  0  0  0  0  0
  186.6870  178.3480  146.2080 O   0  0  0  0  0  1  0  0  0  0  0  0
  184.5130  178.9270  146.6170 O   0  0  0  0  0  1  0  0  0  0  0  0
  1 25  1  0  0  0  0
  1 19  1  0  0  0  0
  2 20  1  0  0  0  0
  3  2  1  0  0  0  0
  4 26  1  0  0  0  0
  5 16  1  1  0  0  0
  6 27  1  6  0  0  0
  7 23  2  0  0  0  0
  8 32  1  0  0  0  0
  9 24  1  0  0  0  0
 10 17  1  0  0  0  0
 10 13  1  1  0  0  0
 11 29  2  0  0  0  0
 12  4  2  0  0  0  0
 12 22  1  0  0  0  0
 14 28  1  0  0  0  0
 15 18  1  0  0  0  0
 17 34  1  1  0  0  0
 19 10  1  0  0  0  0
 20 17  1  0  0  0  0
 21  9  1  6  0  0  0
 21  6  1  0  0  0  0
 22  3  2  0  0  0  0
 23 22  1  0  0  0  0
 23 31  1  0  0  0  0
 24 15  1  6  0  0  0
 24  5  1  0  0  0  0
 26  2  2  0  0  0  0
 28 32  1  6  0  0  0
 28  6  1  0  0  0  0
 29 14  1  0  0  0  0
 29 21  1  0  0  0  0
 30 25  1  0  0  0  0
 30 27  1  0  0  0  0
 31 18  1  6  0  0  0
 31  5  1  0  0  0  0
 33  8  1  0  0  0  0
 33 14  1  0  0  0  0
 34 36  2  0  0  0  0
 34 35  1  0  0  0  0
 35 37  1  0  0  0  0
 37 38  2  0  0  0  0
 37 39  1  0  0  0  0
 39 41  1  0  0  0  0
 40 39  2  0  0  0  0
 41 42  1  0  0  0  0
 41 43  1  0  0  0  0
M  END
>  <MODEL>
5

>  <REMARK>
 VINA RESULT:      -4.8      4.214     10.098
  Name = 
  4 active torsions:
  status: ('A' for Active; 'I' for Inactive)
    1  A    between atoms: C_5  and  C_20
    2  A    between atoms: C_6  and  C_24
    3  A    between atoms: N_13  and  C_37
    4  A    between atoms: C_24  and  C_37
                            x       y       z     vdW  Elec       q    Type
                         _______ _______ _______ _____ _____    ______ ____

>  <TORSDO>
F 4

$$$$
=
 OpenBabel11042412403D

 43 47  0  0  1  0  0  0  0  0999 V2000
  187.1860  177.7330  137.6700 C   0  0  0  0  0  2  0  0  0  0  0  0
  183.4150  177.4320  138.6860 C   0  0  0  0  0  0  0  0  0  0  0  0
  183.9910  176.3660  137.9890 C   0  0  0  0  0  3  0  0  0  0  0  0
  182.4010  178.2230  136.6330 C   0  0  0  0  0  3  0  0  0  0  0  0
  186.5770  174.3660  136.8910 C   0  0  1  0  0  3  0  0  0  0  0  0
  190.4870  174.9150  136.9510 C   0  0  2  0  0  3  0  0  0  0  0  0
  184.4850  175.1920  134.5940 O   0  0  0  0  0  0  0  0  0  0  0  0
  193.4650  176.0190  135.2510 C   0  0  0  0  0  2  0  0  0  0  0  0
  188.6480  173.9660  135.5460 C   0  0  0  0  0  2  0  0  0  0  0  0
  186.1410  178.3550  139.8580 C   0  0  1  0  0  3  0  0  0  0  0  0
  190.9700  172.3290  134.5990 O   0  0  0  0  0  0  0  0  0  0  0  0
  182.9900  177.1630  135.9350 C   0  0  0  0  0  3  0  0  0  0  0  0
  187.1370  179.0350  140.5430 F   0  0  0  0  0  0  0  0  0  0  0  0
  192.1520  174.0880  135.6360 N   0  0  0  0  0  0  0  0  0  0  0  0
  186.5640  172.6620  135.1700 C   0  0  0  0  0  2  0  0  0  0  0  0
  186.7990  174.3050  138.3900 C   0  0  0  0  0  1  0  0  0  0  0  0
  184.7430  178.7370  140.3680 C   0  0  1  0  0  3  0  0  0  0  0  0
  185.1640  172.7390  135.7410 C   0  0  0  0  0  2  0  0  0  0  0  0
  186.2540  178.6960  138.3820 C   0  0  0  0  0  2  0  0  0  0  0  0
  183.7230  177.6170  140.1340 C   0  0  0  0  0  2  0  0  0  0  0  0
  189.8980  173.6540  136.3570 C   0  0  1  0  0  3  0  0  0  0  0  0
  183.7900  176.2280  136.6060 C   0  0  0  0  0  0  0  0  0  0  0  0
  184.4470  175.1410  135.8550 C   0  0  0  0  0  0  0  0  0  0  0  0
  187.4440  173.3220  136.2080 C   0  0  2  0  0  3  0  0  0  0  0  0
  188.6350  178.1280  137.8800 C   0  0  0  0  0  2  0  0  0  0  0  0
  182.6210  178.3610  138.0070 C   0  0  0  0  0  3  0  0  0  0  0  0
  189.7340  175.8860  137.8060 C   0  0  0  0  0  2  0  0  0  0  0  0
  191.7440  175.0680  136.5350 C   0  0  1  0  0  3  0  0  0  0  0  0
  191.0150  173.2670  135.4390 C   0  0  0  0  0  0  0  0  0  0  0  0
  189.5370  177.2080  137.0770 C   0  0  0  0  0  2  0  0  0  0  0  0
  185.1300  174.0080  136.5800 C   0  0  2  0  0  3  0  0  0  0  0  0
  192.5550  176.3000  136.4640 C   0  0  0  0  0  2  0  0  0  0  0  0
  193.0450  174.6580  134.6530 C   0  0  0  0  0  2  0  0  0  0  0  0
  184.7460  179.1030  141.8190 C   0  0  0  0  0  0  0  0  0  0  0  0
  184.4590  178.0890  142.7890 N   0  0  0  0  0  2  0  0  0  0  0  0
  185.0510  180.2740  142.1800 O   0  0  0  0  0  0  0  0  0  0  0  0
  184.1740  178.3170  144.1760 C   0  0  0  0  0  0  0  0  0  0  0  0
  182.9220  178.5970  144.5100 C   0  0  0  0  0  2  0  0  0  0  0  0
  185.2550  178.4110  145.1910 C   0  0  0  0  0  0  0  0  0  0  0  0
  185.1670  179.2600  146.1160 O   0  0  0  0  0  0  0  0  0  0  0  0
  186.4420  177.4940  145.1890 C   0  0  0  0  0  3  0  0  0  0  0  0
  187.0880  177.5300  146.4260 O   0  0  0  0  0  1  0  0  0  0  0  0
  187.3370  177.8510  144.1760 O   0  0  0  0  0  1  0  0  0  0  0  0
  1 25  1  0  0  0  0
  1 19  1  0  0  0  0
  2 20  1  0  0  0  0
  3  2  2  0  0  0  0
  4 26  2  0  0  0  0
  5 16  1  1  0  0  0
  6 27  1  6  0  0  0
  7 23  2  0  0  0  0
  8 32  1  0  0  0  0
  9 24  1  0  0  0  0
 10 17  1  0  0  0  0
 10 13  1  1  0  0  0
 11 29  2  0  0  0  0
 12 22  2  0  0  0  0
 12  4  1  0  0  0  0
 14 28  1  0  0  0  0
 15 18  1  0  0  0  0
 17 34  1  1  0  0  0
 19 10  1  0  0  0  0
 20 17  1  0  0  0  0
 21  9  1  6  0  0  0
 21  6  1  0  0  0  0
 22  3  1  0  0  0  0
 23 31  1  0  0  0  0
 23 22  1  0  0  0  0
 24 15  1  6  0  0  0
 24  5  1  0  0  0  0
 26  2  1  0  0  0  0
 28 32  1  6  0  0  0
 28  6  1  0  0  0  0
 29 14  1  0  0  0  0
 29 21  1  0  0  0  0
 30 27  1  0  0  0  0
 30 25  1  0  0  0  0
 31 18  1  6  0  0  0
 31  5  1  0  0  0  0
 33  8  1  0  0  0  0
 33 14  1  0  0  0  0
 34 36  2  0  0  0  0
 34 35  1  0  0  0  0
 35 37  1  0  0  0  0
 37 38  2  0  0  0  0
 37 39  1  0  0  0  0
 39 40  2  0  0  0  0
 41 39  1  0  0  0  0
 41 42  1  0  0  0  0
 43 41  1  0  0  0  0
M  END
>  <MODEL>
6

>  <REMARK>
 VINA RESULT:      -4.2      3.369      9.518
  Name = 
  4 active torsions:
  status: ('A' for Active; 'I' for Inactive)
    1  A    between atoms: C_5  and  C_20
    2  A    between atoms: C_6  and  C_24
    3  A    between atoms: N_13  and  C_37
    4  A    between atoms: C_24  and  C_37
                            x       y       z     vdW  Elec       q    Type
                         _______ _______ _______ _____ _____    ______ ____

>  <TORSDO>
F 4

$$$$
