=
 OpenBabel11032420163D

 28 31  0  0  1  0  0  0  0  0999 V2000
  186.9360  178.5510  142.4810 C   0  0  0  0  0  3  0  0  0  0  0  0
  190.9660  177.3870  141.8070 O   0  0  0  0  0  0  0  0  0  0  0  0
  190.6040  176.2250  143.9050 C   0  0  0  0  0  2  0  0  0  0  0  0
  187.7590  177.7550  143.1670 C   0  0  0  0  0  0  0  0  0  0  0  0
  187.8230  178.3760  140.1180 C   0  0  0  0  0  0  0  0  0  0  0  0
  189.2780  175.7100  143.3610 C   0  0  0  0  0  2  0  0  0  0  0  0
  186.8450  178.6170  141.0100 C   0  0  0  0  0  3  0  0  0  0  0  0
  191.5380  176.4620  142.7300 C   0  0  0  0  0  2  0  0  0  0  0  0
  189.1850  178.1250  140.5110 N   0  0  0  0  0  0  0  0  0  0  0  0
  189.5930  177.4390  141.5370 C   0  0  0  0  0  0  0  0  0  0  0  0
  188.6110  176.7450  142.4440 C   0  0  2  0  0  3  0  0  0  0  0  0
  188.9670  177.7320  145.3560 C   0  0  0  0  0  3  0  0  0  0  0  0
  185.2810  178.3090  145.0230 C   0  0  0  0  0  0  0  0  0  0  0  0
  186.6090  178.2340  146.7300 C   0  0  0  0  0  0  0  0  0  0  0  0
  184.5550  178.5300  146.1430 N   0  0  0  0  0  0  0  0  0  0  0  0
  187.7850  178.1070  147.4660 C   0  0  0  0  0  0  0  0  0  0  0  0
  188.9770  177.8520  146.7640 C   0  0  0  0  0  3  0  0  0  0  0  0
  185.3710  178.4840  147.1930 N   0  0  0  0  0  2  0  0  0  0  0  0
  187.7880  178.2280  148.8490 O   0  0  0  0  0  1  0  0  0  0  0  0
  187.7640  177.8640  144.6350 C   0  0  0  0  0  0  0  0  0  0  0  0
  186.5990  178.1150  145.3680 C   0  0  0  0  0  0  0  0  0  0  0  0
  184.7520  178.2810  143.6900 N   0  0  0  0  0  2  0  0  0  0  0  0
  183.0410  178.6770  142.0200 C   0  0  0  0  0  2  0  0  0  0  0  0
  183.4390  178.6890  143.2850 C   0  0  0  0  0  3  0  0  0  0  0  0
  187.5680  178.5390  138.7140 N   0  0  0  0  0  2  0  0  0  0  0  0
  187.2440  177.8830  136.3030 C   0  0  0  0  0  1  0  0  0  0  0  0
  187.5980  177.5240  137.7010 C   0  0  0  0  0  0  0  0  0  0  0  0
  187.9310  176.3400  137.9690 O   0  0  0  0  0  0  0  0  0  0  0  0
  1  4  2  0  0  0  0
  2  8  1  0  0  0  0
  4 20  1  0  0  0  0
  5  9  1  0  0  0  0
  5  7  2  0  0  0  0
  6  3  1  0  0  0  0
  7  1  1  0  0  0  0
  8  3  1  0  0  0  0
  9 10  2  0  0  0  0
 10  2  1  0  0  0  0
 10 11  1  0  0  0  0
 11  4  1  0  0  0  0
 11  6  1  1  0  0  0
 12 17  1  0  0  0  0
 13 21  1  0  0  0  0
 13 15  2  0  0  0  0
 14 18  1  0  0  0  0
 14 16  1  0  0  0  0
 15 18  1  0  0  0  0
 16 19  1  0  0  0  0
 17 16  2  0  0  0  0
 20 12  2  0  0  0  0
 20 21  1  0  0  0  0
 21 14  2  0  0  0  0
 22 13  1  0  0  0  0
 23 24  2  0  0  0  0
 24 22  1  0  0  0  0
 25  5  1  0  0  0  0
 26 27  1  0  0  0  0
 27 28  2  0  0  0  0
 27 25  1  0  0  0  0
M  END
>  <MODEL>
1

>  <REMARK>
 VINA RESULT:      -9.4      0.000      0.000
  Name = 
  4 active torsions:
  status: ('A' for Active; 'I' for Inactive)
    1  A    between atoms: N_3  and  C_15
    2  A    between atoms: C_5  and  N_19
    3  A    between atoms: C_9  and  C_22
    4  A    between atoms: C_14  and  N_19
                            x       y       z     vdW  Elec       q    Type
                         _______ _______ _______ _____ _____    ______ ____

>  <TORSDO>
F 4

$$$$
=
 OpenBabel11032420163D

 28 31  0  0  1  0  0  0  0  0999 V2000
  187.0970  178.6870  143.8140 C   0  0  0  0  0  3  0  0  0  0  0  0
  189.6210  177.7320  140.5320 O   0  0  0  0  0  0  0  0  0  0  0  0
  190.5470  176.1880  142.1570 C   0  0  0  0  0  2  0  0  0  0  0  0
  188.0740  177.7880  143.6740 C   0  0  0  0  0  0  0  0  0  0  0  0
  186.2550  178.9760  141.4450 C   0  0  0  0  0  0  0  0  0  0  0  0
  189.1320  175.7660  142.5240 C   0  0  0  0  0  2  0  0  0  0  0  0
  186.1010  179.0280  142.7810 C   0  0  0  0  0  3  0  0  0  0  0  0
  190.5420  176.6580  140.7120 C   0  0  0  0  0  2  0  0  0  0  0  0
  187.5190  178.6760  140.8240 N   0  0  0  0  0  0  0  0  0  0  0  0
  188.4060  177.8140  141.2230 C   0  0  0  0  0  0  0  0  0  0  0  0
  188.1540  176.9450  142.4280 C   0  0  2  0  0  3  0  0  0  0  0  0
  190.4080  177.5730  144.5430 C   0  0  0  0  0  3  0  0  0  0  0  0
  187.3650  177.5160  146.7260 C   0  0  0  0  0  0  0  0  0  0  0  0
  189.4820  177.3650  147.1500 C   0  0  0  0  0  0  0  0  0  0  0  0
  187.5280  177.3850  148.0630 N   0  0  0  0  0  0  0  0  0  0  0  0
  190.8580  177.3200  146.9350 C   0  0  0  0  0  0  0  0  0  0  0  0
  191.3210  177.4250  145.6120 C   0  0  0  0  0  3  0  0  0  0  0  0
  188.8290  177.2920  148.3250 N   0  0  0  0  0  2  0  0  0  0  0  0
  191.7480  177.1760  147.9910 O   0  0  0  0  0  1  0  0  0  0  0  0
  189.0210  177.6160  144.7870 C   0  0  0  0  0  0  0  0  0  0  0  0
  188.5980  177.5060  146.1160 C   0  0  0  0  0  0  0  0  0  0  0  0
  186.1020  177.6440  146.0580 N   0  0  0  0  0  2  0  0  0  0  0  0
  183.9870  178.7800  145.7260 C   0  0  0  0  0  2  0  0  0  0  0  0
  184.9580  178.3670  146.5300 C   0  0  0  0  0  3  0  0  0  0  0  0
  185.1870  179.3980  140.5840 N   0  0  0  0  0  2  0  0  0  0  0  0
  182.9300  179.3590  139.4640 C   0  0  0  0  0  1  0  0  0  0  0  0
  183.9400  178.7290  140.3540 C   0  0  0  0  0  0  0  0  0  0  0  0
  183.6870  177.6120  140.8780 O   0  0  0  0  0  0  0  0  0  0  0  0
  2  8  1  0  0  0  0
  2 10  1  0  0  0  0
  3  6  1  0  0  0  0
  4  1  2  0  0  0  0
  4 20  1  0  0  0  0
  5  7  2  0  0  0  0
  7  1  1  0  0  0  0
  8  3  1  0  0  0  0
  9 10  2  0  0  0  0
  9  5  1  0  0  0  0
 10 11  1  0  0  0  0
 11  6  1  1  0  0  0
 11  4  1  0  0  0  0
 12 20  2  0  0  0  0
 12 17  1  0  0  0  0
 13 15  2  0  0  0  0
 14 18  1  0  0  0  0
 15 18  1  0  0  0  0
 16 14  1  0  0  0  0
 16 19  1  0  0  0  0
 17 16  2  0  0  0  0
 20 21  1  0  0  0  0
 21 13  1  0  0  0  0
 21 14  2  0  0  0  0
 22 24  1  0  0  0  0
 22 13  1  0  0  0  0
 23 24  2  0  0  0  0
 25  5  1  0  0  0  0
 26 27  1  0  0  0  0
 27 25  1  0  0  0  0
 27 28  2  0  0  0  0
M  END
>  <MODEL>
2

>  <REMARK>
 VINA RESULT:      -9.2      2.114      2.952
  Name = 
  4 active torsions:
  status: ('A' for Active; 'I' for Inactive)
    1  A    between atoms: N_3  and  C_15
    2  A    between atoms: C_5  and  N_19
    3  A    between atoms: C_9  and  C_22
    4  A    between atoms: C_14  and  N_19
                            x       y       z     vdW  Elec       q    Type
                         _______ _______ _______ _____ _____    ______ ____

>  <TORSDO>
F 4

$$$$
=
 OpenBabel11032420163D

 28 31  0  0  1  0  0  0  0  0999 V2000
  184.0240  179.1980  139.9980 C   0  0  0  0  0  3  0  0  0  0  0  0
  180.9270  179.3250  142.9030 O   0  0  0  0  0  0  0  0  0  0  0  0
  179.5520  179.0330  140.9260 C   0  0  0  0  0  2  0  0  0  0  0  0
  182.6990  179.0710  139.8930 C   0  0  0  0  0  0  0  0  0  0  0  0
  184.4770  178.4260  142.3650 C   0  0  0  0  0  0  0  0  0  0  0  0
  180.4900  177.9250  140.4700 C   0  0  0  0  0  2  0  0  0  0  0  0
  184.8480  178.6450  141.0900 C   0  0  0  0  0  3  0  0  0  0  0  0
  179.5960  179.0950  142.4440 C   0  0  0  0  0  2  0  0  0  0  0  0
  183.1970  178.8350  142.8800 N   0  0  0  0  0  0  0  0  0  0  0  0
  182.0520  178.7920  142.2640 C   0  0  0  0  0  0  0  0  0  0  0  0
  181.9410  178.2180  140.8760 C   0  0  2  0  0  3  0  0  0  0  0  0
  181.6060  181.0810  138.8840 C   0  0  0  0  0  3  0  0  0  0  0  0
  182.0640  177.8340  137.0720 C   0  0  0  0  0  0  0  0  0  0  0  0
  181.1840  179.7280  136.4990 C   0  0  0  0  0  0  0  0  0  0  0  0
  181.6280  177.7380  135.7950 N   0  0  0  0  0  0  0  0  0  0  0  0
  180.7590  181.0510  136.5890 C   0  0  0  0  0  0  0  0  0  0  0  0
  180.9750  181.7320  137.8010 C   0  0  0  0  0  3  0  0  0  0  0  0
  181.0870  178.9010  135.4420 N   0  0  0  0  0  2  0  0  0  0  0  0
  180.1410  181.6850  135.5190 O   0  0  0  0  0  1  0  0  0  0  0  0
  182.0270  179.7410  138.7690 C   0  0  0  0  0  0  0  0  0  0  0  0
  181.7930  179.0970  137.5490 C   0  0  0  0  0  0  0  0  0  0  0  0
  182.7050  176.7830  137.8060 N   0  0  0  0  0  2  0  0  0  0  0  0
  185.0370  177.0420  137.1960 C   0  0  0  0  0  2  0  0  0  0  0  0
  184.0280  176.2760  137.5880 C   0  0  0  0  0  3  0  0  0  0  0  0
  185.4330  177.9260  143.3120 N   0  0  0  0  0  2  0  0  0  0  0  0
  186.6840  177.7230  145.4900 C   0  0  0  0  0  1  0  0  0  0  0  0
  185.6860  178.4180  144.6350 C   0  0  0  0  0  0  0  0  0  0  0  0
  185.0910  179.4330  145.0830 O   0  0  0  0  0  0  0  0  0  0  0  0
  1  7  1  0  0  0  0
  3  8  1  0  0  0  0
  4  1  2  0  0  0  0
  4 11  1  0  0  0  0
  5  9  1  0  0  0  0
  5 25  1  0  0  0  0
  6  3  1  0  0  0  0
  7  5  2  0  0  0  0
  8  2  1  0  0  0  0
 10  9  2  0  0  0  0
 10  2  1  0  0  0  0
 11  6  1  6  0  0  0
 11 10  1  0  0  0  0
 13 21  1  0  0  0  0
 13 22  1  0  0  0  0
 14 16  2  0  0  0  0
 14 21  1  0  0  0  0
 15 13  2  0  0  0  0
 16 17  1  0  0  0  0
 17 12  2  0  0  0  0
 18 15  1  0  0  0  0
 18 14  1  0  0  0  0
 19 16  1  0  0  0  0
 20 12  1  0  0  0  0
 20  4  1  0  0  0  0
 21 20  2  0  0  0  0
 23 24  2  0  0  0  0
 24 22  1  0  0  0  0
 25 27  1  0  0  0  0
 27 28  2  0  0  0  0
 27 26  1  0  0  0  0
M  END
>  <MODEL>
3

>  <REMARK>
 VINA RESULT:      -8.7      4.593      9.219
  Name = 
  4 active torsions:
  status: ('A' for Active; 'I' for Inactive)
    1  A    between atoms: N_3  and  C_15
    2  A    between atoms: C_5  and  N_19
    3  A    between atoms: C_9  and  C_22
    4  A    between atoms: C_14  and  N_19
                            x       y       z     vdW  Elec       q    Type
                         _______ _______ _______ _____ _____    ______ ____

>  <TORSDO>
F 4

$$$$
=
 OpenBabel11032420163D

 28 31  0  0  1  0  0  0  0  0999 V2000
  187.5660  178.5220  141.4880 C   0  0  0  0  0  3  0  0  0  0  0  0
  191.5180  177.0750  142.0640 O   0  0  0  0  0  0  0  0  0  0  0  0
  190.4720  176.0390  143.9920 C   0  0  0  0  0  2  0  0  0  0  0  0
  188.0900  177.7090  142.4070 C   0  0  0  0  0  0  0  0  0  0  0  0
  189.0900  178.1790  139.4970 C   0  0  0  0  0  0  0  0  0  0  0  0
  189.3300  175.5840  143.0960 C   0  0  0  0  0  2  0  0  0  0  0  0
  187.9140  178.5230  140.0540 C   0  0  0  0  0  3  0  0  0  0  0  0
  191.7240  176.1600  143.1400 C   0  0  0  0  0  2  0  0  0  0  0  0
  190.2540  177.8620  140.2820 N   0  0  0  0  0  0  0  0  0  0  0  0
  190.2920  177.2010  141.4000 C   0  0  0  0  0  0  0  0  0  0  0  0
  189.0390  176.6140  141.9950 C   0  0  2  0  0  3  0  0  0  0  0  0
  188.6270  177.8640  144.8440 C   0  0  0  0  0  3  0  0  0  0  0  0
  185.1650  178.1950  143.4540 C   0  0  0  0  0  0  0  0  0  0  0  0
  185.9560  178.2830  145.4670 C   0  0  0  0  0  0  0  0  0  0  0  0
  184.1420  178.4240  144.3090 N   0  0  0  0  0  0  0  0  0  0  0  0
  186.8800  178.2640  146.5100 C   0  0  0  0  0  0  0  0  0  0  0  0
  188.2320  178.0510  146.1880 C   0  0  0  0  0  3  0  0  0  0  0  0
  184.6270  178.4780  145.5470 N   0  0  0  0  0  2  0  0  0  0  0  0
  186.4840  178.4500  147.8270 O   0  0  0  0  0  1  0  0  0  0  0  0
  187.6740  177.8870  143.8070 C   0  0  0  0  0  0  0  0  0  0  0  0
  186.3380  178.1000  144.1660 C   0  0  0  0  0  0  0  0  0  0  0  0
  185.0380  178.0720  142.0310 N   0  0  0  0  0  2  0  0  0  0  0  0
  184.0730  179.0550  140.0370 C   0  0  0  0  0  2  0  0  0  0  0  0
  183.9280  178.5030  141.2340 C   0  0  0  0  0  3  0  0  0  0  0  0
  189.2690  178.2910  138.0770 N   0  0  0  0  0  2  0  0  0  0  0  0
  189.1040  177.6670  135.6410 C   0  0  0  0  0  1  0  0  0  0  0  0
  188.8840  177.3410  137.0740 C   0  0  0  0  0  0  0  0  0  0  0  0
  188.3760  176.2300  137.3830 O   0  0  0  0  0  0  0  0  0  0  0  0
  1  4  2  0  0  0  0
  2  8  1  0  0  0  0
  4 20  1  0  0  0  0
  5  7  2  0  0  0  0
  5  9  1  0  0  0  0
  6  3  1  0  0  0  0
  7  1  1  0  0  0  0
  8  3  1  0  0  0  0
  9 10  2  0  0  0  0
 10 11  1  0  0  0  0
 10  2  1  0  0  0  0
 11  4  1  0  0  0  0
 11  6  1  1  0  0  0
 12 17  1  0  0  0  0
 13 21  1  0  0  0  0
 13 15  2  0  0  0  0
 14 18  1  0  0  0  0
 14 16  1  0  0  0  0
 15 18  1  0  0  0  0
 16 19  1  0  0  0  0
 17 16  2  0  0  0  0
 20 21  1  0  0  0  0
 20 12  2  0  0  0  0
 21 14  2  0  0  0  0
 22 13  1  0  0  0  0
 23 24  2  0  0  0  0
 24 22  1  0  0  0  0
 25  5  1  0  0  0  0
 26 27  1  0  0  0  0
 27 28  2  0  0  0  0
 27 25  1  0  0  0  0
M  END
>  <MODEL>
4

>  <REMARK>
 VINA RESULT:      -8.5      1.139      1.352
  Name = 
  4 active torsions:
  status: ('A' for Active; 'I' for Inactive)
    1  A    between atoms: N_3  and  C_15
    2  A    between atoms: C_5  and  N_19
    3  A    between atoms: C_9  and  C_22
    4  A    between atoms: C_14  and  N_19
                            x       y       z     vdW  Elec       q    Type
                         _______ _______ _______ _____ _____    ______ ____

>  <TORSDO>
F 4

$$$$
=
 OpenBabel11032420163D

 28 31  0  0  1  0  0  0  0  0999 V2000
  182.4290  176.3930  139.6250 C   0  0  0  0  0  3  0  0  0  0  0  0
  181.2680  179.3120  136.7650 O   0  0  0  0  0  0  0  0  0  0  0  0
  181.3510  180.7420  138.7230 C   0  0  0  0  0  2  0  0  0  0  0  0
  182.2160  177.7060  139.7310 C   0  0  0  0  0  0  0  0  0  0  0  0
  183.1000  176.1240  137.2000 C   0  0  0  0  0  0  0  0  0  0  0  0
  182.6980  180.1300  139.0800 C   0  0  0  0  0  2  0  0  0  0  0  0
  183.0880  175.7260  138.4860 C   0  0  0  0  0  3  0  0  0  0  0  0
  181.1800  180.6630  137.2150 C   0  0  0  0  0  2  0  0  0  0  0  0
  182.3320  177.2470  136.7310 N   0  0  0  0  0  0  0  0  0  0  0  0
  182.1250  178.3710  137.3500 C   0  0  0  0  0  0  0  0  0  0  0  0
  182.7600  178.6470  138.6870 C   0  0  2  0  0  3  0  0  0  0  0  0
  180.0810  178.2970  140.8910 C   0  0  0  0  0  3  0  0  0  0  0  0
  183.4610  178.5890  142.4800 C   0  0  0  0  0  0  0  0  0  0  0  0
  181.4590  179.0020  143.1930 C   0  0  0  0  0  0  0  0  0  0  0  0
  183.5410  179.0260  143.7580 N   0  0  0  0  0  0  0  0  0  0  0  0
  180.0700  179.1100  143.1990 C   0  0  0  0  0  0  0  0  0  0  0  0
  179.3780  178.7520  142.0290 C   0  0  0  0  0  3  0  0  0  0  0  0
  182.3110  179.2800  144.1980 N   0  0  0  0  0  2  0  0  0  0  0  0
  179.3860  179.5560  144.3220 O   0  0  0  0  0  1  0  0  0  0  0  0
  181.4870  178.1970  140.9110 C   0  0  0  0  0  0  0  0  0  0  0  0
  182.1410  178.5640  142.0920 C   0  0  0  0  0  0  0  0  0  0  0  0
  184.5800  178.2140  141.6660 N   0  0  0  0  0  2  0  0  0  0  0  0
  186.9630  178.6280  141.5140 C   0  0  0  0  0  2  0  0  0  0  0  0
  185.7110  179.0320  141.3430 C   0  0  0  0  0  3  0  0  0  0  0  0
  183.7530  175.3180  136.2080 N   0  0  0  0  0  2  0  0  0  0  0  0
  185.6470  174.3310  134.8710 C   0  0  0  0  0  1  0  0  0  0  0  0
  185.1530  175.2820  135.9000 C   0  0  0  0  0  0  0  0  0  0  0  0
  185.9710  176.0490  136.4730 O   0  0  0  0  0  0  0  0  0  0  0  0
  1  4  2  0  0  0  0
  2  8  1  0  0  0  0
  2 10  1  0  0  0  0
  3  6  1  0  0  0  0
  4 20  1  0  0  0  0
  5  7  2  0  0  0  0
  7  1  1  0  0  0  0
  8  3  1  0  0  0  0
  9  5  1  0  0  0  0
  9 10  2  0  0  0  0
 10 11  1  0  0  0  0
 11  6  1  1  0  0  0
 11  4  1  0  0  0  0
 12 20  2  0  0  0  0
 12 17  1  0  0  0  0
 13 15  2  0  0  0  0
 14 16  1  0  0  0  0
 14 18  1  0  0  0  0
 15 18  1  0  0  0  0
 16 19  1  0  0  0  0
 17 16  2  0  0  0  0
 20 21  1  0  0  0  0
 21 13  1  0  0  0  0
 21 14  2  0  0  0  0
 22 13  1  0  0  0  0
 24 23  2  0  0  0  0
 24 22  1  0  0  0  0
 25  5  1  0  0  0  0
 26 27  1  0  0  0  0
 27 25  1  0  0  0  0
 27 28  2  0  0  0  0
M  END
>  <MODEL>
5

>  <REMARK>
 VINA RESULT:      -8.2      4.183      7.232
  Name = 
  4 active torsions:
  status: ('A' for Active; 'I' for Inactive)
    1  A    between atoms: N_3  and  C_15
    2  A    between atoms: C_5  and  N_19
    3  A    between atoms: C_9  and  C_22
    4  A    between atoms: C_14  and  N_19
                            x       y       z     vdW  Elec       q    Type
                         _______ _______ _______ _____ _____    ______ ____

>  <TORSDO>
F 4

$$$$
=
 OpenBabel11032420163D

 28 31  0  0  1  0  0  0  0  0999 V2000
  188.8350  177.4290  136.0670 C   0  0  0  0  0  3  0  0  0  0  0  0
  187.9490  173.5180  134.6630 O   0  0  0  0  0  0  0  0  0  0  0  0
  189.9670  173.0040  135.9060 C   0  0  0  0  0  2  0  0  0  0  0  0
  189.4350  176.2540  136.2690 C   0  0  0  0  0  0  0  0  0  0  0  0
  186.4380  176.7660  135.6000 C   0  0  0  0  0  0  0  0  0  0  0  0
  189.4300  173.8270  137.0680 C   0  0  0  0  0  2  0  0  0  0  0  0
  187.3760  177.6410  136.0060 C   0  0  0  0  0  3  0  0  0  0  0  0
  188.7840  172.4580  135.1250 C   0  0  0  0  0  2  0  0  0  0  0  0
  186.7690  175.4840  135.0350 N   0  0  0  0  0  0  0  0  0  0  0  0
  187.7280  174.6870  135.4010 C   0  0  0  0  0  0  0  0  0  0  0  0
  188.6130  175.0280  136.5720 C   0  0  2  0  0  3  0  0  0  0  0  0
  191.5880  175.9960  135.0250 C   0  0  0  0  0  3  0  0  0  0  0  0
  191.3810  176.6390  138.7100 C   0  0  0  0  0  0  0  0  0  0  0  0
  193.0470  176.3780  137.3540 C   0  0  0  0  0  0  0  0  0  0  0  0
  192.5300  176.7530  139.4140 N   0  0  0  0  0  0  0  0  0  0  0  0
  193.7460  176.1660  136.1670 C   0  0  0  0  0  0  0  0  0  0  0  0
  193.0000  175.9720  134.9900 C   0  0  0  0  0  3  0  0  0  0  0  0
  193.5560  176.5930  138.5820 N   0  0  0  0  0  2  0  0  0  0  0  0
  195.1340  176.1460  136.1400 O   0  0  0  0  0  1  0  0  0  0  0  0
  190.9050  176.2120  136.2390 C   0  0  0  0  0  0  0  0  0  0  0  0
  191.6810  176.3990  137.3880 C   0  0  0  0  0  0  0  0  0  0  0  0
  190.0620  176.7530  139.2610 N   0  0  0  0  0  2  0  0  0  0  0  0
  188.1610  178.1990  139.6740 C   0  0  0  0  0  2  0  0  0  0  0  0
  189.4570  177.9410  139.7870 C   0  0  0  0  0  3  0  0  0  0  0  0
  185.0590  177.1630  135.5580 N   0  0  0  0  0  2  0  0  0  0  0  0
  182.6890  177.4790  136.3520 C   0  0  0  0  0  1  0  0  0  0  0  0
  184.0560  176.9340  136.5570 C   0  0  0  0  0  0  0  0  0  0  0  0
  184.3060  176.2690  137.5960 O   0  0  0  0  0  0  0  0  0  0  0  0
  1  4  2  0  0  0  0
  2  8  1  0  0  0  0
  2 10  1  0  0  0  0
  3  6  1  0  0  0  0
  4 11  1  0  0  0  0
  5  7  2  0  0  0  0
  7  1  1  0  0  0  0
  8  3  1  0  0  0  0
  9 10  2  0  0  0  0
  9  5  1  0  0  0  0
 10 11  1  0  0  0  0
 11  6  1  6  0  0  0
 12 20  1  0  0  0  0
 13 22  1  0  0  0  0
 13 15  2  0  0  0  0
 14 21  1  0  0  0  0
 14 18  1  0  0  0  0
 16 14  2  0  0  0  0
 17 12  2  0  0  0  0
 17 16  1  0  0  0  0
 18 15  1  0  0  0  0
 19 16  1  0  0  0  0
 20  4  1  0  0  0  0
 20 21  2  0  0  0  0
 21 13  1  0  0  0  0
 22 24  1  0  0  0  0
 23 24  2  0  0  0  0
 25  5  1  0  0  0  0
 25 27  1  0  0  0  0
 26 27  1  0  0  0  0
 27 28  2  0  0  0  0
M  END
>  <MODEL>
6

>  <REMARK>
 VINA RESULT:      -8.2      5.648      8.572
  Name = 
  4 active torsions:
  status: ('A' for Active; 'I' for Inactive)
    1  A    between atoms: N_3  and  C_15
    2  A    between atoms: C_5  and  N_19
    3  A    between atoms: C_9  and  C_22
    4  A    between atoms: C_14  and  N_19
                            x       y       z     vdW  Elec       q    Type
                         _______ _______ _______ _____ _____    ______ ____

>  <TORSDO>
F 4

$$$$
=
 OpenBabel11032420163D

 28 31  0  0  1  0  0  0  0  0999 V2000
  187.5080  177.3030  144.4820 C   0  0  0  0  0  3  0  0  0  0  0  0
  189.5140  176.7310  140.7810 O   0  0  0  0  0  0  0  0  0  0  0  0
  187.8860  178.3770  140.0560 C   0  0  0  0  0  2  0  0  0  0  0  0
  187.3470  177.8720  143.2860 C   0  0  0  0  0  0  0  0  0  0  0  0
  189.9430  176.6150  144.4570 C   0  0  0  0  0  0  0  0  0  0  0  0
  188.2160  179.2080  141.2880 C   0  0  0  0  0  2  0  0  0  0  0  0
  188.8050  176.9520  145.0920 C   0  0  0  0  0  3  0  0  0  0  0  0
  189.1160  177.5620  139.6920 C   0  0  0  0  0  2  0  0  0  0  0  0
  190.0070  176.4300  143.0310 N   0  0  0  0  0  0  0  0  0  0  0  0
  189.3970  177.1270  142.1190 C   0  0  0  0  0  0  0  0  0  0  0  0
  188.5480  178.3150  142.4920 C   0  0  2  0  0  3  0  0  0  0  0  0
  185.6290  177.7980  141.4710 C   0  0  0  0  0  3  0  0  0  0  0  0
  184.9210  178.9730  144.9570 C   0  0  0  0  0  0  0  0  0  0  0  0
  183.6850  178.7810  143.1900 C   0  0  0  0  0  0  0  0  0  0  0  0
  183.6650  179.3700  145.2640 N   0  0  0  0  0  0  0  0  0  0  0  0
  183.3180  178.4940  141.8770 C   0  0  0  0  0  0  0  0  0  0  0  0
  184.3080  177.9960  141.0110 C   0  0  0  0  0  3  0  0  0  0  0  0
  182.9040  179.2520  144.1790 N   0  0  0  0  0  2  0  0  0  0  0  0
  182.0170  178.6890  141.4320 O   0  0  0  0  0  1  0  0  0  0  0  0
  185.9750  178.0960  142.8040 C   0  0  0  0  0  0  0  0  0  0  0  0
  184.9640  178.5910  143.6360 C   0  0  0  0  0  0  0  0  0  0  0  0
  186.0270  178.9570  145.8690 N   0  0  0  0  0  0  0  0  0  0  0  0
  187.0640  178.4400  147.9980 C   0  0  0  0  0  1  0  0  0  0  0  0
  185.9760  178.6360  147.2650 C   0  0  0  0  0  3  0  0  0  0  0  0
  191.1050  176.2520  145.2170 N   0  0  0  0  0  2  0  0  0  0  0  0
  192.5250  175.7980  147.2480 C   0  0  0  0  0  1  0  0  0  0  0  0
  191.2520  176.2700  146.6430 C   0  0  0  0  0  0  0  0  0  0  0  0
  190.3320  176.6890  147.3930 O   0  0  0  0  0  0  0  0  0  0  0  0
  1  7  1  0  0  0  0
  2 10  1  0  0  0  0
  3  6  1  0  0  0  0
  4  1  2  0  0  0  0
  5  7  2  0  0  0  0
  5 25  1  0  0  0  0
  8  3  1  0  0  0  0
  8  2  1  0  0  0  0
  9  5  1  0  0  0  0
 10 11  1  0  0  0  0
 10  9  2  0  0  0  0
 11  6  1  6  0  0  0
 11  4  1  0  0  0  0
 12 20  1  0  0  0  0
 13 15  2  0  0  0  0
 13 22  1  0  0  0  0
 14 21  1  0  0  0  0
 14 18  1  0  0  0  0
 16 14  2  0  0  0  0
 17 12  2  0  0  0  0
 17 16  1  0  0  0  0
 18 15  1  0  0  0  0
 19 16  1  0  0  0  0
 20  4  1  0  0  0  0
 20 21  2  0  0  0  0
 21 13  1  0  0  0  0
 22 24  2  0  0  0  0
 24 23  1  0  0  0  0
 25 27  1  0  0  0  0
 27 26  1  0  0  0  0
 27 28  2  0  0  0  0
M  END
>  <MODEL>
7

>  <REMARK>
 VINA RESULT:      -8.1      2.379      5.635
  Name = 
  4 active torsions:
  status: ('A' for Active; 'I' for Inactive)
    1  A    between atoms: N_3  and  C_15
    2  A    between atoms: C_5  and  N_19
    3  A    between atoms: C_9  and  C_22
    4  A    between atoms: C_14  and  N_19
                            x       y       z     vdW  Elec       q    Type
                         _______ _______ _______ _____ _____    ______ ____

>  <TORSDO>
F 4

$$$$
=
 OpenBabel11032420163D

 28 31  0  0  1  0  0  0  0  0999 V2000
  191.4650  176.2650  135.5830 C   0  0  0  0  0  3  0  0  0  0  0  0
  193.2980  177.4640  139.2240 O   0  0  0  0  0  0  0  0  0  0  0  0
  191.0390  177.1440  140.0480 C   0  0  0  0  0  2  0  0  0  0  0  0
  190.9850  176.3900  136.8220 C   0  0  0  0  0  0  0  0  0  0  0  0
  193.9220  175.8020  135.9750 C   0  0  0  0  0  0  0  0  0  0  0  0
  190.9870  175.8130  139.3110 C   0  0  0  0  0  2  0  0  0  0  0  0
  192.7990  175.7390  135.2360 C   0  0  0  0  0  3  0  0  0  0  0  0
  192.4890  177.4340  140.3980 C   0  0  0  0  0  2  0  0  0  0  0  0
  193.9930  176.5340  137.2120 N   0  0  0  0  0  0  0  0  0  0  0  0
  193.0740  176.6240  138.1270 C   0  0  0  0  0  0  0  0  0  0  0  0
  191.7750  175.8720  137.9950 C   0  0  2  0  0  3  0  0  0  0  0  0
  189.5140  178.3920  137.1050 C   0  0  0  0  0  3  0  0  0  0  0  0
  188.2300  174.8770  136.9400 C   0  0  0  0  0  0  0  0  0  0  0  0
  187.2480  176.7930  137.1680 C   0  0  0  0  0  0  0  0  0  0  0  0
  186.8960  174.6700  137.0250 N   0  0  0  0  0  0  0  0  0  0  0  0
  187.0840  178.1710  137.2830 C   0  0  0  0  0  0  0  0  0  0  0  0
  188.2360  178.9770  137.2510 C   0  0  0  0  0  3  0  0  0  0  0  0
  186.2910  175.8460  137.1650 N   0  0  0  0  0  2  0  0  0  0  0  0
  185.8240  178.7380  137.4240 O   0  0  0  0  0  1  0  0  0  0  0  0
  189.6540  176.9950  136.9910 C   0  0  0  0  0  0  0  0  0  0  0  0
  188.4850  176.2260  137.0290 C   0  0  0  0  0  0  0  0  0  0  0  0
  189.2160  173.8480  136.7830 N   0  0  0  0  0  2  0  0  0  0  0  0
  190.7100  172.6330  135.3100 C   0  0  0  0  0  2  0  0  0  0  0  0
  189.5080  173.1230  135.5810 C   0  0  0  0  0  3  0  0  0  0  0  0
  195.1520  175.2770  135.4530 N   0  0  0  0  0  2  0  0  0  0  0  0
  197.5600  175.2570  134.7110 C   0  0  0  0  0  1  0  0  0  0  0  0
  196.3670  175.9960  135.2020 C   0  0  0  0  0  0  0  0  0  0  0  0
  196.4410  177.2410  135.3740 O   0  0  0  0  0  0  0  0  0  0  0  0
  1  4  2  0  0  0  0
  2  8  1  0  0  0  0
  3  8  1  0  0  0  0
  4 20  1  0  0  0  0
  4 11  1  0  0  0  0
  5  9  1  0  0  0  0
  6  3  1  0  0  0  0
  7  1  1  0  0  0  0
  7  5  2  0  0  0  0
  9 10  2  0  0  0  0
 10  2  1  0  0  0  0
 11 10  1  0  0  0  0
 11  6  1  1  0  0  0
 12 17  1  0  0  0  0
 13 15  2  0  0  0  0
 13 21  1  0  0  0  0
 14 16  1  0  0  0  0
 15 18  1  0  0  0  0
 16 19  1  0  0  0  0
 17 16  2  0  0  0  0
 18 14  1  0  0  0  0
 20 21  1  0  0  0  0
 20 12  2  0  0  0  0
 21 14  2  0  0  0  0
 22 13  1  0  0  0  0
 23 24  2  0  0  0  0
 24 22  1  0  0  0  0
 25  5  1  0  0  0  0
 26 27  1  0  0  0  0
 27 28  2  0  0  0  0
 27 25  1  0  0  0  0
M  END
>  <MODEL>
8

>  <REMARK>
 VINA RESULT:      -8.0      5.982      8.569
  Name = 
  4 active torsions:
  status: ('A' for Active; 'I' for Inactive)
    1  A    between atoms: N_3  and  C_15
    2  A    between atoms: C_5  and  N_19
    3  A    between atoms: C_9  and  C_22
    4  A    between atoms: C_14  and  N_19
                            x       y       z     vdW  Elec       q    Type
                         _______ _______ _______ _____ _____    ______ ____

>  <TORSDO>
F 4

$$$$
=
 OpenBabel11032420163D

 28 31  0  0  1  0  0  0  0  0999 V2000
  184.0000  180.2960  138.7380 C   0  0  0  0  0  3  0  0  0  0  0  0
  181.4970  177.1260  137.4210 O   0  0  0  0  0  0  0  0  0  0  0  0
  183.2630  175.7960  138.4190 C   0  0  0  0  0  2  0  0  0  0  0  0
  184.1020  178.9700  138.8620 C   0  0  0  0  0  0  0  0  0  0  0  0
  181.5020  180.6520  138.5480 C   0  0  0  0  0  0  0  0  0  0  0  0
  183.2190  176.7020  139.6410 C   0  0  0  0  0  2  0  0  0  0  0  0
  182.7470  181.0670  138.8480 C   0  0  0  0  0  3  0  0  0  0  0  0
  181.8860  175.8000  137.7760 C   0  0  0  0  0  2  0  0  0  0  0  0
  181.2370  179.3750  137.9400 N   0  0  0  0  0  0  0  0  0  0  0  0
  181.8350  178.2470  138.1880 C   0  0  0  0  0  0  0  0  0  0  0  0
  182.8980  178.1520  139.2500 C   0  0  2  0  0  3  0  0  0  0  0  0
  185.7650  177.7860  137.4190 C   0  0  0  0  0  3  0  0  0  0  0  0
  186.4290  178.7780  140.9700 C   0  0  0  0  0  0  0  0  0  0  0  0
  187.6270  177.7700  139.4750 C   0  0  0  0  0  0  0  0  0  0  0  0
  187.6380  178.4950  141.5060 N   0  0  0  0  0  0  0  0  0  0  0  0
  187.9880  177.2000  138.2560 C   0  0  0  0  0  0  0  0  0  0  0  0
  187.0390  177.2100  137.2180 C   0  0  0  0  0  3  0  0  0  0  0  0
  188.3760  177.8760  140.5890 N   0  0  0  0  0  2  0  0  0  0  0  0
  189.2440  176.6380  138.0660 O   0  0  0  0  0  1  0  0  0  0  0  0
  185.4240  178.3560  138.6620 C   0  0  0  0  0  0  0  0  0  0  0  0
  186.3930  178.3250  139.6710 C   0  0  0  0  0  0  0  0  0  0  0  0
  185.3590  179.4440  141.6530 N   0  0  0  0  0  2  0  0  0  0  0  0
  183.3450  178.8100  142.8430 C   0  0  0  0  0  2  0  0  0  0  0  0
  184.6610  178.9700  142.8110 C   0  0  0  0  0  3  0  0  0  0  0  0
  180.3970  181.5610  138.6680 N   0  0  0  0  0  2  0  0  0  0  0  0
  178.9570  183.5710  138.1830 C   0  0  0  0  0  1  0  0  0  0  0  0
  180.2050  182.7940  137.9620 C   0  0  0  0  0  0  0  0  0  0  0  0
  181.0760  183.2390  137.1690 O   0  0  0  0  0  0  0  0  0  0  0  0
  1  7  1  0  0  0  0
  1  4  2  0  0  0  0
  2  8  1  0  0  0  0
  2 10  1  0  0  0  0
  3  6  1  0  0  0  0
  4 11  1  0  0  0  0
  5 25  1  0  0  0  0
  5  7  2  0  0  0  0
  8  3  1  0  0  0  0
  9 10  2  0  0  0  0
  9  5  1  0  0  0  0
 10 11  1  0  0  0  0
 11  6  1  6  0  0  0
 12 20  1  0  0  0  0
 13 15  2  0  0  0  0
 13 22  1  0  0  0  0
 14 21  1  0  0  0  0
 14 18  1  0  0  0  0
 16 14  2  0  0  0  0
 17 12  2  0  0  0  0
 17 16  1  0  0  0  0
 18 15  1  0  0  0  0
 19 16  1  0  0  0  0
 20  4  1  0  0  0  0
 20 21  2  0  0  0  0
 21 13  1  0  0  0  0
 22 24  1  0  0  0  0
 24 23  2  0  0  0  0
 27 26  1  0  0  0  0
 27 25  1  0  0  0  0
 28 27  2  0  0  0  0
M  END
>  <MODEL>
9

>  <REMARK>
 VINA RESULT:      -7.9      4.231      7.657
  Name = 
  4 active torsions:
  status: ('A' for Active; 'I' for Inactive)
    1  A    between atoms: N_3  and  C_15
    2  A    between atoms: C_5  and  N_19
    3  A    between atoms: C_9  and  C_22
    4  A    between atoms: C_14  and  N_19
                            x       y       z     vdW  Elec       q    Type
                         _______ _______ _______ _____ _____    ______ ____

>  <TORSDO>
F 4

$$$$
