=
 OpenBabel11042411093D

 68 78  0  0  1  0  0  0  0  0999 V2000
  185.5430  176.0960  135.4950 C   0  0  0  0  0  0  0  0  0  0  0  0
  189.5140  173.7380  137.6590 F   0  0  0  0  0  0  0  0  0  0  0  0
  182.1650  175.6380  139.2280 O   0  0  0  0  0  0  0  0  0  0  0  0
  186.5880  175.4730  134.7400 N   0  0  0  0  0  2  0  0  0  0  0  0
  181.3250  176.7690  139.2500 C   0  0  2  0  0  0  0  0  0  0  0  0
  184.6660  176.8870  137.6510 C   0  0  2  0  0  3  0  0  0  0  0  0
  183.6540  177.6660  136.9320 N   0  0  0  0  0  0  0  0  0  0  0  0
  187.2480  178.6060  139.7100 C   0  0  0  0  0  3  0  0  0  0  0  0
  182.8410  178.3170  134.8190 O   0  0  0  0  0  0  0  0  0  0  0  0
  182.2080  179.5020  137.0250 F   0  0  0  0  0  0  0  0  0  0  0  0
  184.2630  176.4210  134.8030 C   0  0  0  0  0  2  0  0  0  0  0  0
  182.6030  178.3660  137.7100 C   0  0  2  0  0  0  0  0  0  0  0  0
  180.7950  175.3960  139.4420 C   0  0  0  0  0  2  0  0  0  0  0  0
  182.0520  178.9530  140.0440 O   0  0  0  0  0  0  0  0  0  0  0  0
  183.1120  178.8740  139.1040 C   0  0  1  0  0  3  0  0  0  0  0  0
  185.0780  179.2430  140.5760 N   0  0  0  0  0  0  0  0  0  0  0  0
  183.5610  177.5370  135.4970 C   0  0  0  0  0  0  0  0  0  0  0  0
  188.7170  174.4120  134.5940 N   0  0  0  0  0  0  0  0  0  0  0  0
  189.7840  174.1870  135.4280 O   0  0  0  0  0  0  0  0  0  0  0  0
  185.2710  177.7300  138.6740 N   0  0  0  0  0  0  0  0  0  0  0  0
  181.3420  177.4770  137.8910 C   0  0  1  0  0  3  0  0  0  0  0  0
  186.4280  178.8010  140.9360 C   0  0  0  0  0  2  0  0  0  0  0  0
  184.3880  178.2440  139.7270 C   0  0  2  0  0  3  0  0  0  0  0  0
  185.6930  176.3250  136.7640 N   0  0  0  0  0  0  0  0  0  0  0  0
  181.6780  177.6490  140.4550 C   0  0  1  0  0  3  0  0  0  0  0  0
  187.8500  175.0690  135.2790 C   0  0  0  0  0  0  0  0  0  0  0  0
  189.5580  174.7480  136.7160 C   0  0  1  0  0  3  0  0  0  0  0  0
  188.2700  175.3240  136.5750 O   0  0  0  0  0  0  0  0  0  0  0  0
  186.6720  178.0550  138.6490 C   0  0  0  0  0  3  0  0  0  0  0  0
  181.8330  178.3400  143.2200 O   0  0  0  0  0  0  0  0  0  0  0  0
  180.5460  177.7480  141.3630 N   0  0  0  0  0  2  0  0  0  0  0  0
  179.5500  178.1480  143.5800 N   0  0  0  0  0  1  0  0  0  0  0  0
  180.6960  178.0870  142.7410 C   0  0  0  0  0  0  0  0  0  0  0  0
  180.9250  176.6480  136.6670 C   0  0  0  0  0  2  0  0  0  0  0  0
  180.1170  175.4110  137.0460 C   0  0  0  0  0  2  0  0  0  0  0  0
  180.7410  174.7490  134.6670 C   0  0  0  0  0  1  0  0  0  0  0  0
  179.7870  174.5350  135.8370 C   0  0  1  0  0  3  0  0  0  0  0  0
  179.6170  173.1740  136.1820 O   0  0  0  0  0  0  0  0  0  0  0  0
  180.3280  172.8900  137.3690 C   0  0  1  0  0  3  0  0  0  0  0  0
  180.2080  171.5210  137.6800 O   0  0  0  0  0  0  0  0  0  0  0  0
  181.4520  171.9240  137.1550 C   0  0  1  0  0  3  0  0  0  0  0  0
  182.8680  170.8520  135.5740 C   0  0  0  0  0  0  0  0  0  0  0  0
  181.6290  171.4520  135.7020 C   0  0  1  0  0  3  0  0  0  0  0  0
  184.1930  170.8910  135.4930 C   0  0  0  0  0  3  0  0  0  0  0  0
  181.5810  170.0850  135.5970 O   0  0  0  0  0  0  0  0  0  0  0  0
  184.9400  172.1860  135.5400 C   0  0  1  0  0  3  0  0  0  0  0  0
  185.4620  172.4840  136.9430 C   0  0  0  0  0  2  0  0  0  0  0  0
  184.5370  173.2430  137.6660 O   0  0  0  0  0  1  0  0  0  0  0  0
  186.9610  171.3230  135.2390 C   0  0  0  0  0  1  0  0  0  0  0  0
  186.0050  172.1460  134.6370 O   0  0  0  0  0  0  0  0  0  0  0  0
  184.3260  179.5070  141.8110 C   0  0  0  0  0  2  0  0  0  0  0  0
  185.1860  179.4870  143.0820 C   0  0  0  0  0  2  0  0  0  0  0  0
  185.1830  178.1080  143.7380 C   0  0  0  0  0  2  0  0  0  0  0  0
  191.8910  176.5790  147.6630 C   0  0  0  0  0  2  0  0  0  0  0  0
  190.3520  178.1720  146.7550 O   0  0  0  0  0  0  0  0  0  0  0  0
  191.5400  176.1960  145.2390 C   0  0  0  0  0  2  0  0  0  0  0  0
  185.9660  178.6240  146.3720 O   0  0  0  0  0  0  0  0  0  0  0  0
  186.7750  177.9680  145.6630 C   0  0  0  0  0  0  0  0  0  0  0  0
  190.8880  178.8180  144.0300 C   0  0  0  0  0  1  0  0  0  0  0  0
  186.4900  177.7190  144.2810 N   0  0  0  0  0  0  0  0  0  0  0  0
  191.0840  175.8070  146.6410 C   0  0  2  0  0  3  0  0  0  0  0  0
  189.2790  178.1720  145.8190 C   0  0  1  0  0  3  0  0  0  0  0  0
  190.3460  176.4060  144.3110 C   0  0  0  0  0  2  0  0  0  0  0  0
  190.4360  176.9400  147.4470 C   0  0  1  0  0  3  0  0  0  0  0  0
  189.7840  177.8330  144.3910 C   0  0  2  0  0  0  0  0  0  0  0  0
  188.7120  178.0270  143.3110 C   0  0  0  0  0  2  0  0  0  0  0  0
  188.0120  177.4250  146.2920 C   0  0  0  0  0  2  0  0  0  0  0  0
  187.5120  177.0980  143.4400 C   0  0  0  0  0  2  0  0  0  0  0  0
  1 24  2  0  0  0  0
  3  5  1  0  0  0  0
  3 13  1  0  0  0  0
  4 26  1  0  0  0  0
  4  1  1  0  0  0  0
  5 13  1  1  0  0  0
  5 25  1  0  0  0  0
  6 24  1  6  0  0  0
  6 20  1  0  0  0  0
  7  6  1  0  0  0  0
  7 12  1  0  0  0  0
  8 22  1  0  0  0  0
  9 17  2  0  0  0  0
 11  1  1  0  0  0  0
 11 17  1  0  0  0  0
 12 10  1  6  0  0  0
 12 21  1  0  0  0  0
 12 15  1  0  0  0  0
 14 25  1  0  0  0  0
 15 23  1  0  0  0  0
 15 14  1  1  0  0  0
 16 22  1  0  0  0  0
 16 51  1  0  0  0  0
 17  7  1  0  0  0  0
 18 26  2  0  0  0  0
 18 19  1  0  0  0  0
 19 27  1  0  0  0  0
 21 34  1  6  0  0  0
 21  5  1  0  0  0  0
 23 20  1  6  0  0  0
 23 16  1  0  0  0  0
 25 31  1  1  0  0  0
 26 28  1  0  0  0  0
 27  2  1  1  0  0  0
 28 27  1  0  0  0  0
 29 20  1  0  0  0  0
 29  8  2  0  0  0  0
 31 33  1  0  0  0  0
 33 30  2  0  0  0  0
 33 32  1  0  0  0  0
 34 35  1  0  0  0  0
 37 36  1  6  0  0  0
 37 38  1  0  0  0  0
 37 35  1  0  0  0  0
 39 38  1  6  0  0  0
 39 40  1  0  0  0  0
 41 39  1  0  0  0  0
 41 40  1  1  0  0  0
 42 45  1  0  0  0  0
 43 42  1  1  0  0  0
 43 41  1  0  0  0  0
 44 42  2  0  0  0  0
 45 43  1  0  0  0  0
 46 44  1  1  0  0  0
 46 47  1  0  0  0  0
 47 48  1  0  0  0  0
 50 49  1  0  0  0  0
 50 46  1  0  0  0  0
 51 52  1  0  0  0  0
 52 53  1  0  0  0  0
 53 60  1  0  0  0  0
 55 64  1  0  0  0  0
 58 67  1  0  0  0  0
 58 57  2  0  0  0  0
 60 58  1  0  0  0  0
 61 56  1  6  0  0  0
 61 64  1  0  0  0  0
 61 54  1  0  0  0  0
 62 67  1  1  0  0  0
 62 55  1  0  0  0  0
 63 65  1  0  0  0  0
 63 56  1  0  0  0  0
 64 54  1  1  0  0  0
 65 59  1  6  0  0  0
 65 62  1  0  0  0  0
 66 68  1  0  0  0  0
 66 65  1  0  0  0  0
 68 60  1  0  0  0  0
M  END
>  <MODEL>
1

>  <REMARK>
 VINA RESULT:      -7.5      0.000      0.000
  Name = 
  14 active torsions:
  status: ('A' for Active; 'I' for Inactive)
    1  A    between atoms: C_3  and  C_31
    2  A    between atoms: C_4  and  O_64
    3  A    between atoms: C_14  and  C_58
    4  A    between atoms: C_18  and  C_31
    5  A    between atoms: C_21  and  C_48
    6  A    between atoms: C_21  and  O_64
    7  A    between atoms: N_26  and  C_47
    8  A    between atoms: O_30  and  C_31
    9  A    between atoms: N_39  and  C_50
   10  A    between atoms: C_43  and  C_48
   11  A    between atoms: C_43  and  C_51
   12  A    between atoms: N_45  and  C_62
   13  A    between atoms: C_47  and  C_49
   14  A    between atoms: C_49  and  C_50
                            x       y       z     vdW  Elec       q    Type
                         _______ _______ _______ _____ _____    ______ ____

>  <TORSDO>
F 14

$$$$
=
 OpenBabel11042411093D

 68 78  0  0  1  0  0  0  0  0999 V2000
  190.6250  177.1000  141.8270 C   0  0  0  0  0  0  0  0  0  0  0  0
  187.9150  176.2420  146.0610 F   0  0  0  0  0  0  0  0  0  0  0  0
  187.6230  174.8440  138.4420 O   0  0  0  0  0  0  0  0  0  0  0  0
  191.2110  177.0490  143.1320 N   0  0  0  0  0  2  0  0  0  0  0  0
  187.6850  175.5360  137.2160 C   0  0  2  0  0  0  0  0  0  0  0  0
  188.6230  177.1820  140.4010 C   0  0  2  0  0  3  0  0  0  0  0  0
  189.4670  177.5850  139.2720 N   0  0  0  0  0  0  0  0  0  0  0  0
  186.0160  179.4900  141.7160 C   0  0  0  0  0  3  0  0  0  0  0  0
  191.6490  178.1370  138.5760 O   0  0  0  0  0  0  0  0  0  0  0  0
  189.5280  178.6670  137.2000 F   0  0  0  0  0  0  0  0  0  0  0  0
  191.5210  176.9800  140.6400 C   0  0  0  0  0  2  0  0  0  0  0  0
  188.8550  177.6990  137.9260 C   0  0  2  0  0  0  0  0  0  0  0  0
  187.6820  174.0530  137.2800 C   0  0  0  0  0  2  0  0  0  0  0  0
  186.6320  177.7020  136.8530 O   0  0  0  0  0  0  0  0  0  0  0  0
  187.3610  178.1750  137.9730 C   0  0  1  0  0  3  0  0  0  0  0  0
  185.5300  179.0920  139.3770 N   0  0  0  0  0  0  0  0  0  0  0  0
  190.9000  177.6230  139.4480 C   0  0  0  0  0  0  0  0  0  0  0  0
  191.0260  176.9490  145.5060 N   0  0  0  0  0  0  0  0  0  0  0  0
  190.0240  177.0550  146.4390 O   0  0  0  0  0  0  0  0  0  0  0  0
  187.4550  178.0500  140.4500 N   0  0  0  0  0  0  0  0  0  0  0  0
  188.9690  176.3680  137.1340 C   0  0  1  0  0  3  0  0  0  0  0  0
  184.9530  179.1780  140.7220 C   0  0  0  0  0  2  0  0  0  0  0  0
  186.5540  178.0250  139.2920 C   0  0  2  0  0  3  0  0  0  0  0  0
  189.3390  177.1970  141.6850 N   0  0  0  0  0  0  0  0  0  0  0  0
  186.3820  176.3130  136.9970 C   0  0  1  0  0  3  0  0  0  0  0  0
  190.4730  177.1100  144.3560 C   0  0  0  0  0  0  0  0  0  0  0  0
  188.7670  177.3030  145.8190 C   0  0  1  0  0  3  0  0  0  0  0  0
  189.1080  177.3350  144.4420 O   0  0  0  0  0  0  0  0  0  0  0  0
  187.1980  178.9040  141.5780 C   0  0  0  0  0  3  0  0  0  0  0  0
  184.7810  173.9540  136.8520 O   0  0  0  0  0  0  0  0  0  0  0  0
  185.6960  175.8330  135.8080 N   0  0  0  0  0  2  0  0  0  0  0  0
  184.2880  174.2110  134.6000 N   0  0  0  0  0  1  0  0  0  0  0  0
  184.9190  174.6350  135.8020 C   0  0  0  0  0  0  0  0  0  0  0  0
  190.2990  175.6140  137.2780 C   0  0  0  0  0  2  0  0  0  0  0  0
  190.6830  174.8570  136.0110 C   0  0  0  0  0  2  0  0  0  0  0  0
  192.9410  175.2490  134.8990 C   0  0  0  0  0  1  0  0  0  0  0  0
  192.1680  174.4930  135.9740 C   0  0  1  0  0  3  0  0  0  0  0  0
  192.7750  174.5540  137.2510 O   0  0  0  0  0  0  0  0  0  0  0  0
  193.9220  175.3770  137.1950 C   0  0  1  0  0  3  0  0  0  0  0  0
  194.5060  175.4660  138.4740 O   0  0  0  0  0  0  0  0  0  0  0  0
  195.1790  174.6440  137.5480 C   0  0  1  0  0  3  0  0  0  0  0  0
  196.2270  172.5470  137.9440 C   0  0  0  0  0  0  0  0  0  0  0  0
  194.9870  173.1530  137.8740 C   0  0  1  0  0  3  0  0  0  0  0  0
  197.3330  172.0600  137.3920 C   0  0  0  0  0  3  0  0  0  0  0  0
  195.3930  172.8520  139.1500 O   0  0  0  0  0  0  0  0  0  0  0  0
  197.5390  172.0760  135.9110 C   0  0  1  0  0  3  0  0  0  0  0  0
  197.2470  170.7140  135.2870 C   0  0  0  0  0  2  0  0  0  0  0  0
  195.8800  170.5690  135.0290 O   0  0  0  0  0  1  0  0  0  0  0  0
  197.5880  174.0550  134.9100 C   0  0  0  0  0  1  0  0  0  0  0  0
  196.7170  173.0470  135.3330 O   0  0  0  0  0  0  0  0  0  0  0  0
  184.4420  178.8690  138.4150 C   0  0  0  0  0  2  0  0  0  0  0  0
  183.1770  179.6910  138.6980 C   0  0  0  0  0  2  0  0  0  0  0  0
  182.1650  178.8950  139.5190 C   0  0  0  0  0  2  0  0  0  0  0  0
  179.6340  172.2560  136.0190 C   0  0  0  0  0  2  0  0  0  0  0  0
  181.3900  173.8320  136.4220 O   0  0  0  0  0  0  0  0  0  0  0  0
  178.9310  174.5510  135.3980 C   0  0  0  0  0  2  0  0  0  0  0  0
  182.9170  176.2190  139.8230 O   0  0  0  0  0  0  0  0  0  0  0  0
  181.9540  176.4480  139.0440 C   0  0  0  0  0  0  0  0  0  0  0  0
  181.3720  176.0210  134.5950 C   0  0  0  0  0  1  0  0  0  0  0  0
  181.5460  177.7950  138.7710 N   0  0  0  0  0  0  0  0  0  0  0  0
  178.9350  173.5070  136.5080 C   0  0  2  0  0  3  0  0  0  0  0  0
  181.5080  175.1580  136.9280 C   0  0  1  0  0  3  0  0  0  0  0  0
  179.2820  175.9330  135.9420 C   0  0  0  0  0  2  0  0  0  0  0  0
  180.3250  173.1340  137.0400 C   0  0  1  0  0  3  0  0  0  0  0  0
  180.7970  176.1760  135.9980 C   0  0  2  0  0  0  0  0  0  0  0  0
  181.0720  177.6360  136.3790 C   0  0  0  0  0  2  0  0  0  0  0  0
  181.2230  175.2970  138.4400 C   0  0  0  0  0  2  0  0  0  0  0  0
  180.5350  178.0430  137.7450 C   0  0  0  0  0  2  0  0  0  0  0  0
  1  4  1  0  0  0  0
  4 26  1  0  0  0  0
  5 13  1  6  0  0  0
  5  3  1  0  0  0  0
  6 20  1  0  0  0  0
  6 24  1  1  0  0  0
  7 17  1  0  0  0  0
  7  6  1  0  0  0  0
  9 17  2  0  0  0  0
 11  1  1  0  0  0  0
 12 10  1  6  0  0  0
 12 15  1  0  0  0  0
 12  7  1  0  0  0  0
 13  3  1  0  0  0  0
 14 25  1  0  0  0  0
 15 14  1  6  0  0  0
 15 23  1  0  0  0  0
 16 22  1  0  0  0  0
 17 11  1  0  0  0  0
 18 19  1  0  0  0  0
 20 29  1  0  0  0  0
 21  5  1  0  0  0  0
 21 34  1  1  0  0  0
 21 12  1  0  0  0  0
 22  8  1  0  0  0  0
 23 16  1  1  0  0  0
 23 20  1  0  0  0  0
 24  1  2  0  0  0  0
 25 31  1  6  0  0  0
 25  5  1  0  0  0  0
 26 28  1  0  0  0  0
 26 18  2  0  0  0  0
 27  2  1  6  0  0  0
 27 19  1  0  0  0  0
 28 27  1  0  0  0  0
 29  8  2  0  0  0  0
 32 33  1  0  0  0  0
 33 31  1  0  0  0  0
 33 30  2  0  0  0  0
 35 34  1  0  0  0  0
 37 36  1  6  0  0  0
 37 35  1  0  0  0  0
 37 38  1  0  0  0  0
 39 38  1  1  0  0  0
 39 41  1  0  0  0  0
 39 40  1  0  0  0  0
 41 43  1  0  0  0  0
 41 40  1  1  0  0  0
 42 45  1  0  0  0  0
 43 42  1  6  0  0  0
 43 45  1  0  0  0  0
 44 42  2  0  0  0  0
 46 47  1  6  0  0  0
 46 44  1  0  0  0  0
 48 47  1  0  0  0  0
 49 50  1  0  0  0  0
 50 46  1  0  0  0  0
 51 52  1  0  0  0  0
 51 16  1  0  0  0  0
 52 53  1  0  0  0  0
 54 61  1  0  0  0  0
 55 62  1  0  0  0  0
 55 64  1  0  0  0  0
 56 63  1  0  0  0  0
 58 57  2  0  0  0  0
 60 58  1  0  0  0  0
 60 53  1  0  0  0  0
 61 56  1  6  0  0  0
 61 64  1  0  0  0  0
 62 67  1  1  0  0  0
 63 65  1  0  0  0  0
 64 54  1  6  0  0  0
 65 59  1  6  0  0  0
 65 66  1  0  0  0  0
 65 62  1  0  0  0  0
 66 68  1  0  0  0  0
 67 58  1  0  0  0  0
 68 60  1  0  0  0  0
M  END
>  <MODEL>
2

>  <REMARK>
 VINA RESULT:      -5.6      3.815     10.178
  Name = 
  14 active torsions:
  status: ('A' for Active; 'I' for Inactive)
    1  A    between atoms: C_3  and  C_31
    2  A    between atoms: C_4  and  O_64
    3  A    between atoms: C_14  and  C_58
    4  A    between atoms: C_18  and  C_31
    5  A    between atoms: C_21  and  C_48
    6  A    between atoms: C_21  and  O_64
    7  A    between atoms: N_26  and  C_47
    8  A    between atoms: O_30  and  C_31
    9  A    between atoms: N_39  and  C_50
   10  A    between atoms: C_43  and  C_48
   11  A    between atoms: C_43  and  C_51
   12  A    between atoms: N_45  and  C_62
   13  A    between atoms: C_47  and  C_49
   14  A    between atoms: C_49  and  C_50
                            x       y       z     vdW  Elec       q    Type
                         _______ _______ _______ _____ _____    ______ ____

>  <TORSDO>
F 14

$$$$
=
 OpenBabel11042411093D

 68 78  0  0  1  0  0  0  0  0999 V2000
  181.5530  174.1470  135.5940 C   0  0  0  0  0  0  0  0  0  0  0  0
  183.8750  169.6560  136.2600 F   0  0  0  0  0  0  0  0  0  0  0  0
  183.4910  176.6800  139.5150 O   0  0  0  0  0  0  0  0  0  0  0  0
  181.0150  172.9100  135.1120 N   0  0  0  0  0  2  0  0  0  0  0  0
  183.6510  178.0380  139.1720 C   0  0  2  0  0  0  0  0  0  0  0  0
  183.4230  175.4110  136.5680 C   0  0  2  0  0  3  0  0  0  0  0  0
  182.7520  176.6580  136.1900 N   0  0  0  0  0  0  0  0  0  0  0  0
  186.7060  174.5120  135.0600 C   0  0  0  0  0  3  0  0  0  0  0  0
  180.8910  177.6140  135.1060 O   0  0  0  0  0  0  0  0  0  0  0  0
  183.0330  178.9290  135.7040 F   0  0  0  0  0  0  0  0  0  0  0  0
  180.6470  175.3290  135.6850 C   0  0  0  0  0  2  0  0  0  0  0  0
  183.3360  177.9480  136.6330 C   0  0  2  0  0  0  0  0  0  0  0  0
  183.1310  177.6210  140.4980 C   0  0  0  0  0  2  0  0  0  0  0  0
  185.3930  178.8360  137.6690 O   0  0  0  0  0  0  0  0  0  0  0  0
  184.9020  177.9150  136.7090 C   0  0  1  0  0  3  0  0  0  0  0  0
  186.9700  176.6500  136.1680 N   0  0  0  0  0  0  0  0  0  0  0  0
  181.4300  176.5940  135.6150 C   0  0  0  0  0  0  0  0  0  0  0  0
  181.2040  170.5750  134.6780 N   0  0  0  0  0  0  0  0  0  0  0  0
  182.1990  169.6290  134.6990 O   0  0  0  0  0  0  0  0  0  0  0  0
  184.8240  175.4920  136.1760 N   0  0  0  0  0  0  0  0  0  0  0  0
  182.7420  178.4040  137.9940 C   0  0  1  0  0  3  0  0  0  0  0  0
  187.5680  175.3270  135.9580 C   0  0  0  0  0  2  0  0  0  0  0  0
  185.6330  176.5460  136.7990 C   0  0  2  0  0  3  0  0  0  0  0  0
  182.7870  174.2200  135.9870 N   0  0  0  0  0  0  0  0  0  0  0  0
  185.1390  178.3480  138.9760 C   0  0  1  0  0  3  0  0  0  0  0  0
  181.7530  171.6890  135.0090 C   0  0  0  0  0  0  0  0  0  0  0  0
  183.4480  170.2030  135.0650 C   0  0  1  0  0  3  0  0  0  0  0  0
  183.1110  171.5670  135.2590 O   0  0  0  0  0  0  0  0  0  0  0  0
  185.3900  174.5860  135.2140 C   0  0  0  0  0  3  0  0  0  0  0  0
  185.6630  177.8420  141.7360 O   0  0  0  0  0  0  0  0  0  0  0  0
  185.5860  179.3370  139.9440 N   0  0  0  0  0  2  0  0  0  0  0  0
  186.2360  180.0380  142.2140 N   0  0  0  0  0  1  0  0  0  0  0  0
  185.8180  179.0180  141.3160 C   0  0  0  0  0  0  0  0  0  0  0  0
  181.2350  178.1750  138.1780 C   0  0  0  0  0  2  0  0  0  0  0  0
  180.5970  179.1990  139.1100 C   0  0  0  0  0  2  0  0  0  0  0  0
  178.9310  177.2800  139.2900 C   0  0  0  0  0  1  0  0  0  0  0  0
  179.3140  178.6790  139.7600 C   0  0  1  0  0  3  0  0  0  0  0  0
  179.3250  178.8140  141.1690 O   0  0  0  0  0  0  0  0  0  0  0  0
  179.9270  180.0410  141.5260 C   0  0  1  0  0  3  0  0  0  0  0  0
  179.5190  180.4120  142.8230 O   0  0  0  0  0  0  0  0  0  0  0  0
  180.8350  179.9190  142.7100 C   0  0  1  0  0  3  0  0  0  0  0  0
  181.6570  178.5550  144.4760 C   0  0  0  0  0  0  0  0  0  0  0  0
  180.9550  178.4980  143.2860 C   0  0  1  0  0  3  0  0  0  0  0  0
  182.7750  178.6990  145.1780 C   0  0  0  0  0  3  0  0  0  0  0  0
  180.1770  178.3310  144.4050 O   0  0  0  0  0  0  0  0  0  0  0  0
  184.0930  178.9240  144.5090 C   0  0  1  0  0  3  0  0  0  0  0  0
  184.6470  180.3150  144.8070 C   0  0  0  0  0  2  0  0  0  0  0  0
  185.4670  180.2910  145.9390 O   0  0  0  0  0  1  0  0  0  0  0  0
  184.8590  177.8940  146.3180 C   0  0  0  0  0  1  0  0  0  0  0  0
  185.0040  177.9520  144.9290 O   0  0  0  0  0  0  0  0  0  0  0  0
  187.8880  177.4540  136.9870 C   0  0  0  0  0  2  0  0  0  0  0  0
  189.0770  176.6640  137.5510 C   0  0  0  0  0  2  0  0  0  0  0  0
  190.1720  177.5960  138.0670 C   0  0  0  0  0  2  0  0  0  0  0  0
  191.5380  177.2600  145.8620 C   0  0  0  0  0  2  0  0  0  0  0  0
  191.0970  176.1320  143.7970 O   0  0  0  0  0  0  0  0  0  0  0  0
  189.4540  178.1010  144.8160 C   0  0  0  0  0  2  0  0  0  0  0  0
  192.2830  176.5150  139.5500 O   0  0  0  0  0  0  0  0  0  0  0  0
  191.3970  177.1320  140.1990 C   0  0  0  0  0  0  0  0  0  0  0  0
  188.3140  175.8720  143.2360 C   0  0  0  0  0  1  0  0  0  0  0  0
  190.2410  177.6560  139.5320 N   0  0  0  0  0  0  0  0  0  0  0  0
  190.9560  178.3210  144.9520 C   0  0  2  0  0  3  0  0  0  0  0  0
  190.6170  176.4760  142.5010 C   0  0  1  0  0  3  0  0  0  0  0  0
  189.0040  178.2590  143.3660 C   0  0  0  0  0  2  0  0  0  0  0  0
  191.8280  177.1970  144.3770 C   0  0  1  0  0  3  0  0  0  0  0  0
  189.1430  176.9590  142.5620 C   0  0  2  0  0  0  0  0  0  0  0  0
  188.5090  177.1370  141.1760 C   0  0  0  0  0  2  0  0  0  0  0  0
  191.5860  177.3390  141.6630 C   0  0  0  0  0  2  0  0  0  0  0  0
  189.1530  178.2240  140.3250 C   0  0  0  0  0  2  0  0  0  0  0  0
  1 11  1  0  0  0  0
  1 24  2  0  0  0  0
  3 13  1  0  0  0  0
  4  1  1  0  0  0  0
  5  3  1  0  0  0  0
  5 13  1  1  0  0  0
  6 24  1  6  0  0  0
  7  6  1  0  0  0  0
  7 12  1  0  0  0  0
  8 29  2  0  0  0  0
  8 22  1  0  0  0  0
  9 17  2  0  0  0  0
 12 10  1  6  0  0  0
 12 15  1  0  0  0  0
 12 21  1  0  0  0  0
 14 25  1  0  0  0  0
 15 23  1  0  0  0  0
 15 14  1  1  0  0  0
 16 51  1  0  0  0  0
 17 11  1  0  0  0  0
 17  7  1  0  0  0  0
 18 19  1  0  0  0  0
 18 26  2  0  0  0  0
 19 27  1  0  0  0  0
 20  6  1  0  0  0  0
 20 23  1  0  0  0  0
 21 34  1  1  0  0  0
 21  5  1  0  0  0  0
 22 16  1  0  0  0  0
 23 16  1  6  0  0  0
 25  5  1  0  0  0  0
 25 31  1  1  0  0  0
 26  4  1  0  0  0  0
 26 28  1  0  0  0  0
 27 28  1  0  0  0  0
 27  2  1  1  0  0  0
 29 20  1  0  0  0  0
 31 33  1  0  0  0  0
 33 30  2  0  0  0  0
 33 32  1  0  0  0  0
 34 35  1  0  0  0  0
 35 37  1  0  0  0  0
 37 36  1  1  0  0  0
 37 38  1  0  0  0  0
 39 38  1  1  0  0  0
 39 41  1  0  0  0  0
 39 40  1  0  0  0  0
 41 40  1  1  0  0  0
 41 43  1  0  0  0  0
 42 44  2  0  0  0  0
 43 45  1  1  0  0  0
 43 42  1  0  0  0  0
 45 42  1  0  0  0  0
 46 47  1  1  0  0  0
 46 50  1  0  0  0  0
 46 44  1  0  0  0  0
 47 48  1  0  0  0  0
 50 49  1  0  0  0  0
 51 52  1  0  0  0  0
 52 53  1  0  0  0  0
 53 60  1  0  0  0  0
 55 64  1  0  0  0  0
 57 58  2  0  0  0  0
 58 67  1  0  0  0  0
 60 58  1  0  0  0  0
 60 68  1  0  0  0  0
 61 56  1  6  0  0  0
 61 54  1  0  0  0  0
 62 67  1  1  0  0  0
 62 65  1  0  0  0  0
 62 55  1  0  0  0  0
 63 56  1  0  0  0  0
 64 61  1  0  0  0  0
 64 54  1  1  0  0  0
 65 59  1  1  0  0  0
 65 63  1  0  0  0  0
 66 65  1  0  0  0  0
 68 66  1  0  0  0  0
M  END
>  <MODEL>
3

>  <REMARK>
 VINA RESULT:      -5.4      2.569      6.561
  Name = 
  14 active torsions:
  status: ('A' for Active; 'I' for Inactive)
    1  A    between atoms: C_3  and  C_31
    2  A    between atoms: C_4  and  O_64
    3  A    between atoms: C_14  and  C_58
    4  A    between atoms: C_18  and  C_31
    5  A    between atoms: C_21  and  C_48
    6  A    between atoms: C_21  and  O_64
    7  A    between atoms: N_26  and  C_47
    8  A    between atoms: O_30  and  C_31
    9  A    between atoms: N_39  and  C_50
   10  A    between atoms: C_43  and  C_48
   11  A    between atoms: C_43  and  C_51
   12  A    between atoms: N_45  and  C_62
   13  A    between atoms: C_47  and  C_49
   14  A    between atoms: C_49  and  C_50
                            x       y       z     vdW  Elec       q    Type
                         _______ _______ _______ _____ _____    ______ ____

>  <TORSDO>
F 14

$$$$
