=
 OpenBabel11032421033D

 46 50  0  0  1  0  0  0  0  0999 V2000
  185.9970  178.1720  139.7470 C   0  0  2  0  0  3  0  0  0  0  0  0
  187.6070  178.3870  136.4460 C   0  0  0  0  0  3  0  0  0  0  0  0
  185.1690  179.2210  140.4630 C   0  0  0  0  0  1  0  0  0  0  0  0
  187.4710  178.3360  140.0960 C   0  0  2  0  0  3  0  0  0  0  0  0
  185.8890  178.3590  138.2380 C   0  0  1  0  0  3  0  0  0  0  0  0
  188.2770  178.0070  138.8330 C   0  0  1  0  0  3  0  0  0  0  0  0
  188.7560  176.5580  138.7920 C   0  0  0  0  0  1  0  0  0  0  0  0
  187.2880  178.2250  137.7380 C   0  0  0  0  0  0  0  0  0  0  0  0
  182.7560  176.6650  136.8230 C   0  0  0  0  0  0  0  0  0  0  0  0
  183.6010  177.6330  137.4320 C   0  0  0  0  0  0  0  0  0  0  0  0
  181.3580  181.4120  138.5120 C   0  0  0  0  0  1  0  0  0  0  0  0
  182.4670  174.4740  135.8330 O   0  0  0  0  0  1  0  0  0  0  0  0
  183.2850  175.4310  136.4230 C   0  0  0  0  0  0  0  0  0  0  0  0
  185.4720  176.0970  137.2070 C   0  0  0  0  0  3  0  0  0  0  0  0
  184.6370  175.1510  136.6150 C   0  0  0  0  0  3  0  0  0  0  0  0
  184.9660  177.3380  137.6220 C   0  0  0  0  0  0  0  0  0  0  0  0
  180.8270  178.0600  136.9710 C   0  0  0  0  0  0  0  0  0  0  0  0
  181.3590  176.9350  136.6120 N   0  0  0  0  0  0  0  0  0  0  0  0
  181.5880  179.1120  137.6000 C   0  0  0  0  0  0  0  0  0  0  0  0
  179.4600  178.3680  136.7790 N   0  0  0  0  0  2  0  0  0  0  0  0
  179.1070  179.9940  137.3910 S   0  0  0  0  0  0  0  0  0  0  0  0
  180.8360  180.1700  137.8720 C   0  0  0  0  0  0  0  0  0  0  0  0
  183.0570  178.9810  137.8610 C   0  0  0  0  0  2  0  0  0  0  0  0
  189.0130  178.2990  135.9470 C   0  0  0  0  0  2  0  0  0  0  0  0
  189.8570  176.0220  135.6500 C   0  0  1  0  0  3  0  0  0  0  0  0
  189.1440  177.1340  134.9860 C   0  0  1  0  0  3  0  0  0  0  0  0
  188.4570  176.0210  135.5060 O   0  0  0  0  0  0  0  0  0  0  0  0
  190.4690  175.1110  134.6020 C   0  0  0  0  0  2  0  0  0  0  0  0
  191.8470  174.6520  135.0420 C   0  0  0  0  0  2  0  0  0  0  0  0
  192.1980  175.2690  136.2440 O   0  0  0  0  0  0  0  0  0  0  0  0
  193.2880  176.0760  135.9170 C   0  0  0  0  0  2  0  0  0  0  0  0
  193.9940  176.4540  137.1290 N   0  0  0  0  0  1  0  0  0  0  0  0
  187.8300  177.5060  141.2370 N   0  0  0  0  0  2  0  0  0  0  0  0
  190.1760  176.0940  141.7670 O   0  0  0  0  0  0  0  0  0  0  0  0
  188.9640  178.0860  141.8190 N   0  0  0  0  0  2  0  0  0  0  0  0
  190.1360  177.3140  142.0760 C   0  0  0  0  0  0  0  0  0  0  0  0
  191.3020  177.9470  142.7510 C   0  0  0  0  0  2  0  0  0  0  0  0
  190.9310  178.3710  144.1300 C   0  0  0  0  0  0  0  0  0  0  0  0
  191.1020  179.5680  144.4800 O   0  0  0  0  0  0  0  0  0  0  0  0
  190.4170  177.4070  145.0530 N   0  0  0  0  0  2  0  0  0  0  0  0
  190.0700  177.7450  146.4250 C   0  0  1  0  0  3  0  0  0  0  0  0
  187.7750  177.2340  145.2680 O   0  0  0  0  0  0  0  0  0  0  0  0
  188.2790  177.6610  146.6390 S   0  0  0  0  0  3  0  0  0  0  0  0
  190.7520  176.7660  147.3630 C   0  0  0  0  0  2  0  0  0  0  0  0
  192.0560  176.5190  146.9330 O   0  0  0  0  0  0  0  0  0  0  0  0
  192.5910  175.6790  147.9080 C   0  0  0  0  0  1  0  0  0  0  0  0
  1  4  1  0  0  0  0
  1  3  1  1  0  0  0
  2  8  2  0  0  0  0
  4 33  1  1  0  0  0
  5 16  1  6  0  0  0
  5  1  1  0  0  0  0
  6  7  1  1  0  0  0
  6  4  1  0  0  0  0
  8  5  1  0  0  0  0
  8  6  1  0  0  0  0
  9 10  1  0  0  0  0
 10 16  2  0  0  0  0
 10 23  1  0  0  0  0
 12 13  1  0  0  0  0
 13 15  1  0  0  0  0
 13  9  2  0  0  0  0
 14 16  1  0  0  0  0
 15 14  2  0  0  0  0
 17 19  1  0  0  0  0
 18  9  1  0  0  0  0
 18 17  2  0  0  0  0
 19 23  1  0  0  0  0
 19 22  2  0  0  0  0
 20 17  1  0  0  0  0
 20 21  1  0  0  0  0
 21 22  1  0  0  0  0
 22 11  1  0  0  0  0
 24  2  1  0  0  0  0
 25 28  1  6  0  0  0
 26 27  1  0  0  0  0
 26 25  1  0  0  0  0
 26 24  1  1  0  0  0
 27 25  1  0  0  0  0
 28 29  1  0  0  0  0
 29 30  1  0  0  0  0
 31 30  1  0  0  0  0
 31 32  1  0  0  0  0
 33 35  1  0  0  0  0
 34 36  2  0  0  0  0
 35 36  1  0  0  0  0
 36 37  1  0  0  0  0
 37 38  1  0  0  0  0
 38 39  2  0  0  0  0
 38 40  1  0  0  0  0
 40 41  1  0  0  0  0
 41 43  1  0  0  0  0
 41 44  1  1  0  0  0
 42 43  2  0  0  0  0
 45 44  1  0  0  0  0
 45 46  1  0  0  0  0
M  END
>  <MODEL>
1

>  <REMARK>
 VINA RESULT:      -5.9      0.000      0.000
  Name = 
  15 active torsions:
  status: ('A' for Active; 'I' for Inactive)
    1  A    between atoms: C_1  and  C_10
    2  A    between atoms: C_1  and  N_34
    3  A    between atoms: C_1  and  S_36
    4  A    between atoms: C_2  and  O_37
    5  A    between atoms: O_3  and  C_10
    6  A    between atoms: C_8  and  C_16
    7  A    between atoms: C_8  and  C_19
    8  A    between atoms: C_9  and  C_11
    9  A    between atoms: C_11  and  C_21
   10  A    between atoms: C_13  and  C_15
   11  A    between atoms: C_13  and  C_45
   12  A    between atoms: C_21  and  O_37
   13  A    between atoms: N_24  and  N_25
   14  A    between atoms: N_25  and  C_35
   15  A    between atoms: C_26  and  C_38
                            x       y       z     vdW  Elec       q    Type
                         _______ _______ _______ _____ _____    ______ ____

>  <TORSDO>
F 15

$$$$
=
 OpenBabel11032421033D

 46 50  0  0  1  0  0  0  0  0999 V2000
  189.3930  176.3870  135.6260 C   0  0  2  0  0  3  0  0  0  0  0  0
  186.7890  174.3260  137.2090 C   0  0  0  0  0  3  0  0  0  0  0  0
  189.2290  177.4850  134.5940 C   0  0  0  0  0  1  0  0  0  0  0  0
  189.5590  175.0380  134.9360 C   0  0  2  0  0  3  0  0  0  0  0  0
  188.1370  176.2800  136.4820 C   0  0  1  0  0  3  0  0  0  0  0  0
  188.8370  173.9950  135.7980 C   0  0  1  0  0  3  0  0  0  0  0  0
  189.7680  173.2760  136.7710 C   0  0  0  0  0  1  0  0  0  0  0  0
  187.8620  174.8160  136.5730 C   0  0  0  0  0  0  0  0  0  0  0  0
  187.4820  178.0910  139.7950 C   0  0  0  0  0  0  0  0  0  0  0  0
  187.2710  177.5340  138.5040 C   0  0  0  0  0  0  0  0  0  0  0  0
  183.0070  178.0810  137.0900 C   0  0  0  0  0  1  0  0  0  0  0  0
  188.9670  178.5600  141.6490 O   0  0  0  0  0  1  0  0  0  0  0  0
  188.7480  178.0140  140.3900 C   0  0  0  0  0  0  0  0  0  0  0  0
  189.5980  176.8340  138.4600 C   0  0  0  0  0  3  0  0  0  0  0  0
  189.7990  177.3870  139.7230 C   0  0  0  0  0  3  0  0  0  0  0  0
  188.3420  176.9040  137.8390 C   0  0  0  0  0  0  0  0  0  0  0  0
  185.2250  178.8380  139.9880 C   0  0  0  0  0  0  0  0  0  0  0  0
  186.4090  178.7390  140.5020 N   0  0  0  0  0  0  0  0  0  0  0  0
  184.8980  178.3120  138.6850 C   0  0  0  0  0  0  0  0  0  0  0  0
  184.1410  179.4630  140.6490 N   0  0  0  0  0  2  0  0  0  0  0  0
  182.6870  179.4000  139.6380 S   0  0  0  0  0  0  0  0  0  0  0  0
  183.6270  178.5260  138.3710 C   0  0  0  0  0  0  0  0  0  0  0  0
  185.9080  177.5930  137.8440 C   0  0  0  0  0  2  0  0  0  0  0  0
  186.4860  172.8630  137.2640 C   0  0  0  0  0  2  0  0  0  0  0  0
  184.2320  172.0130  136.8370 C   0  0  1  0  0  3  0  0  0  0  0  0
  185.4690  172.5090  136.1980 C   0  0  1  0  0  3  0  0  0  0  0  0
  184.3340  173.3290  136.3460 O   0  0  0  0  0  0  0  0  0  0  0  0
  183.4510  171.1680  135.8490 C   0  0  0  0  0  2  0  0  0  0  0  0
  181.9590  171.3400  136.0720 C   0  0  0  0  0  2  0  0  0  0  0  0
  181.7180  171.8220  137.3600 O   0  0  0  0  0  0  0  0  0  0  0  0
  180.3890  172.2430  137.3330 C   0  0  0  0  0  2  0  0  0  0  0  0
  179.5390  171.1430  136.9130 N   0  0  0  0  0  1  0  0  0  0  0  0
  190.9670  174.7310  134.7270 N   0  0  0  0  0  2  0  0  0  0  0  0
  193.5010  173.9240  135.5670 O   0  0  0  0  0  0  0  0  0  0  0  0
  191.6770  175.3660  135.7540 N   0  0  0  0  0  2  0  0  0  0  0  0
  192.9680  174.9060  136.1490 C   0  0  0  0  0  0  0  0  0  0  0  0
  193.6700  175.5660  137.2850 C   0  0  0  0  0  2  0  0  0  0  0  0
  195.1450  175.4690  137.1040 C   0  0  0  0  0  0  0  0  0  0  0  0
  195.6910  176.0470  136.1280 O   0  0  0  0  0  0  0  0  0  0  0  0
  195.9220  174.6920  138.0180 N   0  0  0  0  0  2  0  0  0  0  0  0
  197.3600  174.5240  137.8780 C   0  0  1  0  0  3  0  0  0  0  0  0
  197.0370  175.4400  140.3120 O   0  0  0  0  0  0  0  0  0  0  0  0
  198.1870  175.0710  139.3870 S   0  0  0  0  0  3  0  0  0  0  0  0
  197.6650  173.0590  137.6200 C   0  0  0  0  0  2  0  0  0  0  0  0
  196.5000  172.3010  137.7310 O   0  0  0  0  0  0  0  0  0  0  0  0
  196.8650  171.0330  137.2820 C   0  0  0  0  0  1  0  0  0  0  0  0
  1  3  1  6  0  0  0
  1  5  1  0  0  0  0
  2 24  1  0  0  0  0
  4 33  1  1  0  0  0
  4  1  1  0  0  0  0
  4  6  1  0  0  0  0
  5  8  1  0  0  0  0
  5 16  1  1  0  0  0
  6  8  1  0  0  0  0
  6  7  1  1  0  0  0
  8  2  2  0  0  0  0
  9 13  1  0  0  0  0
  9 18  1  0  0  0  0
 10  9  2  0  0  0  0
 11 22  1  0  0  0  0
 13 12  1  0  0  0  0
 14 15  1  0  0  0  0
 15 13  2  0  0  0  0
 16 14  2  0  0  0  0
 16 10  1  0  0  0  0
 17 18  2  0  0  0  0
 17 20  1  0  0  0  0
 19 17  1  0  0  0  0
 21 20  1  0  0  0  0
 22 19  2  0  0  0  0
 22 21  1  0  0  0  0
 23 10  1  0  0  0  0
 23 19  1  0  0  0  0
 25 28  1  6  0  0  0
 26 27  1  0  0  0  0
 26 25  1  0  0  0  0
 26 24  1  1  0  0  0
 27 25  1  0  0  0  0
 28 29  1  0  0  0  0
 29 30  1  0  0  0  0
 31 30  1  0  0  0  0
 32 31  1  0  0  0  0
 33 35  1  0  0  0  0
 34 36  2  0  0  0  0
 35 36  1  0  0  0  0
 36 37  1  0  0  0  0
 38 37  1  0  0  0  0
 38 40  1  0  0  0  0
 39 38  2  0  0  0  0
 41 44  1  1  0  0  0
 41 40  1  0  0  0  0
 41 43  1  0  0  0  0
 43 42  2  0  0  0  0
 44 45  1  0  0  0  0
 46 45  1  0  0  0  0
M  END
>  <MODEL>
2

>  <REMARK>
 VINA RESULT:      -5.7      3.664      7.918
  Name = 
  15 active torsions:
  status: ('A' for Active; 'I' for Inactive)
    1  A    between atoms: C_1  and  C_10
    2  A    between atoms: C_1  and  N_34
    3  A    between atoms: C_1  and  S_36
    4  A    between atoms: C_2  and  O_37
    5  A    between atoms: O_3  and  C_10
    6  A    between atoms: C_8  and  C_16
    7  A    between atoms: C_8  and  C_19
    8  A    between atoms: C_9  and  C_11
    9  A    between atoms: C_11  and  C_21
   10  A    between atoms: C_13  and  C_15
   11  A    between atoms: C_13  and  C_45
   12  A    between atoms: C_21  and  O_37
   13  A    between atoms: N_24  and  N_25
   14  A    between atoms: N_25  and  C_35
   15  A    between atoms: C_26  and  C_38
                            x       y       z     vdW  Elec       q    Type
                         _______ _______ _______ _____ _____    ______ ____

>  <TORSDO>
F 15

$$$$
=
 OpenBabel11032421033D

 46 50  0  0  1  0  0  0  0  0999 V2000
  187.5650  178.0120  136.9580 C   0  0  2  0  0  3  0  0  0  0  0  0
  184.5560  175.9000  137.0750 C   0  0  0  0  0  3  0  0  0  0  0  0
  187.8090  179.2620  136.1360 C   0  0  0  0  0  1  0  0  0  0  0  0
  187.9850  176.7760  136.1730 C   0  0  2  0  0  3  0  0  0  0  0  0
  186.0770  177.8540  137.2440 C   0  0  1  0  0  3  0  0  0  0  0  0
  186.9890  175.6610  136.5130 C   0  0  1  0  0  3  0  0  0  0  0  0
  187.4760  174.7470  137.6340 C   0  0  0  0  0  1  0  0  0  0  0  0
  185.7900  176.4140  136.9830 C   0  0  0  0  0  0  0  0  0  0  0  0
  184.1240  178.9120  140.3680 C   0  0  0  0  0  0  0  0  0  0  0  0
  184.4180  178.5670  139.0200 C   0  0  0  0  0  0  0  0  0  0  0  0
  180.7300  178.6470  136.3990 C   0  0  0  0  0  1  0  0  0  0  0  0
  184.8760  179.2820  142.6400 O   0  0  0  0  0  1  0  0  0  0  0  0
  185.1510  178.9400  141.3210 C   0  0  0  0  0  0  0  0  0  0  0  0
  186.7530  178.2800  139.6350 C   0  0  0  0  0  3  0  0  0  0  0  0
  186.4570  178.6240  140.9530 C   0  0  0  0  0  3  0  0  0  0  0  0
  185.7430  178.2520  138.6600 C   0  0  0  0  0  0  0  0  0  0  0  0
  181.8030  179.2300  139.9200 C   0  0  0  0  0  0  0  0  0  0  0  0
  182.7810  179.2380  140.7690 N   0  0  0  0  0  0  0  0  0  0  0  0
  181.9850  178.8990  138.5280 C   0  0  0  0  0  0  0  0  0  0  0  0
  180.4680  179.5400  140.2720 N   0  0  0  0  0  2  0  0  0  0  0  0
  179.4160  179.4190  138.8510 S   0  0  0  0  0  0  0  0  0  0  0  0
  180.8450  178.9520  137.8540 C   0  0  0  0  0  0  0  0  0  0  0  0
  183.3240  178.5180  137.9730 C   0  0  0  0  0  2  0  0  0  0  0  0
  184.2560  174.4670  136.7710 C   0  0  0  0  0  2  0  0  0  0  0  0
  181.9100  173.8980  137.1670 C   0  0  1  0  0  3  0  0  0  0  0  0
  182.8790  174.3520  136.1470 C   0  0  1  0  0  3  0  0  0  0  0  0
  182.0020  175.2500  136.7850 O   0  0  0  0  0  0  0  0  0  0  0  0
  180.7110  173.2660  136.4850 C   0  0  0  0  0  2  0  0  0  0  0  0
  179.5330  173.2060  137.4390 C   0  0  0  0  0  2  0  0  0  0  0  0
  179.9770  173.3060  138.7590 O   0  0  0  0  0  0  0  0  0  0  0  0
  178.9350  173.9420  139.4320 C   0  0  0  0  0  2  0  0  0  0  0  0
  179.2310  173.9910  140.8530 N   0  0  0  0  0  1  0  0  0  0  0  0
  189.3660  176.4180  136.4660 N   0  0  0  0  0  2  0  0  0  0  0  0
  190.9320  175.4710  138.5690 O   0  0  0  0  0  0  0  0  0  0  0  0
  189.7700  177.2140  137.5450 N   0  0  0  0  0  2  0  0  0  0  0  0
  190.5650  176.6750  138.5990 C   0  0  0  0  0  0  0  0  0  0  0  0
  190.9270  177.5330  139.7620 C   0  0  0  0  0  2  0  0  0  0  0  0
  190.2730  177.0230  141.0000 C   0  0  0  0  0  0  0  0  0  0  0  0
  189.1540  176.4530  140.9220 O   0  0  0  0  0  0  0  0  0  0  0  0
  190.9060  177.2170  142.2670 N   0  0  0  0  0  2  0  0  0  0  0  0
  190.3060  176.7790  143.5170 C   0  0  1  0  0  3  0  0  0  0  0  0
  191.7650  177.4420  145.5900 O   0  0  0  0  0  0  0  0  0  0  0  0
  191.5980  176.2480  144.6610 S   0  0  0  0  0  3  0  0  0  0  0  0
  189.5200  177.9290  144.1190 C   0  0  0  0  0  2  0  0  0  0  0  0
  188.5070  177.4380  144.9430 O   0  0  0  0  0  0  0  0  0  0  0  0
  187.5610  176.9200  144.0610 C   0  0  0  0  0  1  0  0  0  0  0  0
  1  3  1  6  0  0  0
  1  5  1  0  0  0  0
  4 33  1  1  0  0  0
  4  6  1  0  0  0  0
  4  1  1  0  0  0  0
  5 16  1  1  0  0  0
  6  8  1  0  0  0  0
  6  7  1  1  0  0  0
  8  2  2  0  0  0  0
  8  5  1  0  0  0  0
  9 18  1  0  0  0  0
  9 13  1  0  0  0  0
 10  9  2  0  0  0  0
 11 22  1  0  0  0  0
 13 12  1  0  0  0  0
 14 15  1  0  0  0  0
 15 13  2  0  0  0  0
 16 10  1  0  0  0  0
 16 14  2  0  0  0  0
 17 20  1  0  0  0  0
 17 18  2  0  0  0  0
 19 17  1  0  0  0  0
 21 20  1  0  0  0  0
 22 19  2  0  0  0  0
 22 21  1  0  0  0  0
 23 19  1  0  0  0  0
 23 10  1  0  0  0  0
 24  2  1  0  0  0  0
 25 28  1  6  0  0  0
 26 24  1  1  0  0  0
 26 27  1  0  0  0  0
 26 25  1  0  0  0  0
 27 25  1  0  0  0  0
 28 29  1  0  0  0  0
 29 30  1  0  0  0  0
 30 31  1  0  0  0  0
 31 32  1  0  0  0  0
 33 35  1  0  0  0  0
 34 36  2  0  0  0  0
 35 36  1  0  0  0  0
 36 37  1  0  0  0  0
 37 38  1  0  0  0  0
 38 40  1  0  0  0  0
 39 38  2  0  0  0  0
 40 41  1  0  0  0  0
 41 44  1  1  0  0  0
 41 43  1  0  0  0  0
 43 42  2  0  0  0  0
 44 45  1  0  0  0  0
 46 45  1  0  0  0  0
M  END
>  <MODEL>
3

>  <REMARK>
 VINA RESULT:      -5.6      2.577      6.033
  Name = 
  15 active torsions:
  status: ('A' for Active; 'I' for Inactive)
    1  A    between atoms: C_1  and  C_10
    2  A    between atoms: C_1  and  N_34
    3  A    between atoms: C_1  and  S_36
    4  A    between atoms: C_2  and  O_37
    5  A    between atoms: O_3  and  C_10
    6  A    between atoms: C_8  and  C_16
    7  A    between atoms: C_8  and  C_19
    8  A    between atoms: C_9  and  C_11
    9  A    between atoms: C_11  and  C_21
   10  A    between atoms: C_13  and  C_15
   11  A    between atoms: C_13  and  C_45
   12  A    between atoms: C_21  and  O_37
   13  A    between atoms: N_24  and  N_25
   14  A    between atoms: N_25  and  C_35
   15  A    between atoms: C_26  and  C_38
                            x       y       z     vdW  Elec       q    Type
                         _______ _______ _______ _____ _____    ______ ____

>  <TORSDO>
F 15

$$$$
=
 OpenBabel11032421033D

 46 50  0  0  1  0  0  0  0  0999 V2000
  183.8550  175.9970  135.8980 C   0  0  2  0  0  3  0  0  0  0  0  0
  184.3630  178.1850  138.8110 C   0  0  0  0  0  3  0  0  0  0  0  0
  183.1380  174.6630  135.8340 C   0  0  0  0  0  1  0  0  0  0  0  0
  185.3270  175.7860  136.2300 C   0  0  2  0  0  3  0  0  0  0  0  0
  183.2790  176.8490  137.0220 C   0  0  1  0  0  3  0  0  0  0  0  0
  185.7600  176.9470  137.1340 C   0  0  1  0  0  3  0  0  0  0  0  0
  186.4060  178.0960  136.3640 C   0  0  0  0  0  1  0  0  0  0  0  0
  184.4700  177.4160  137.7180 C   0  0  0  0  0  0  0  0  0  0  0  0
  180.7590  179.7310  136.8340 C   0  0  0  0  0  0  0  0  0  0  0  0
  181.5880  178.7040  137.3620 C   0  0  0  0  0  0  0  0  0  0  0  0
  181.3010  178.4340  141.8700 C   0  0  0  0  0  1  0  0  0  0  0  0
  179.9110  180.9540  134.9240 O   0  0  0  0  0  1  0  0  0  0  0  0
  180.7230  179.9570  135.4520 C   0  0  0  0  0  0  0  0  0  0  0  0
  182.3190  178.1750  135.1050 C   0  0  0  0  0  3  0  0  0  0  0  0
  181.5010  179.1810  134.5940 C   0  0  0  0  0  3  0  0  0  0  0  0
  182.3690  177.9250  136.4850 C   0  0  0  0  0  0  0  0  0  0  0  0
  179.9510  180.3680  138.9860 C   0  0  0  0  0  0  0  0  0  0  0  0
  179.9520  180.5460  137.7030 N   0  0  0  0  0  0  0  0  0  0  0  0
  180.7490  179.3550  139.6300 C   0  0  0  0  0  0  0  0  0  0  0  0
  179.1750  181.1480  139.8760 N   0  0  0  0  0  2  0  0  0  0  0  0
  179.4400  180.6160  141.5460 S   0  0  0  0  0  0  0  0  0  0  0  0
  180.5910  179.3640  140.9460 C   0  0  0  0  0  0  0  0  0  0  0  0
  181.6560  178.4480  138.8550 C   0  0  0  0  0  2  0  0  0  0  0  0
  185.5550  178.7190  139.5390 C   0  0  0  0  0  2  0  0  0  0  0  0
  186.6250  178.5290  141.7300 C   0  0  1  0  0  3  0  0  0  0  0  0
  185.3250  178.6310  141.0340 C   0  0  1  0  0  3  0  0  0  0  0  0
  185.9160  179.7430  141.6630 O   0  0  0  0  0  0  0  0  0  0  0  0
  186.4230  177.9060  143.0990 C   0  0  0  0  0  2  0  0  0  0  0  0
  187.7460  177.4120  143.6540 C   0  0  0  0  0  2  0  0  0  0  0  0
  188.6170  177.0940  142.6100 O   0  0  0  0  0  0  0  0  0  0  0  0
  189.2960  175.9600  143.0550 C   0  0  0  0  0  2  0  0  0  0  0  0
  190.6740  176.3060  143.3580 N   0  0  0  0  0  1  0  0  0  0  0  0
  186.1240  175.6800  135.0160 N   0  0  0  0  0  2  0  0  0  0  0  0
  188.8360  176.1710  134.5940 O   0  0  0  0  0  0  0  0  0  0  0  0
  187.1270  174.7360  135.2710 N   0  0  0  0  0  2  0  0  0  0  0  0
  188.5000  175.0380  135.0290 C   0  0  0  0  0  0  0  0  0  0  0  0
  189.5360  173.9920  135.2540 C   0  0  0  0  0  2  0  0  0  0  0  0
  190.1560  174.1640  136.5970 C   0  0  0  0  0  0  0  0  0  0  0  0
  189.6990  173.5220  137.5790 O   0  0  0  0  0  0  0  0  0  0  0  0
  191.2400  175.0800  136.7650 N   0  0  0  0  0  2  0  0  0  0  0  0
  191.8660  175.3230  138.0560 C   0  0  1  0  0  3  0  0  0  0  0  0
  193.8330  176.5600  136.8440 O   0  0  0  0  0  0  0  0  0  0  0  0
  193.6570  175.4350  137.8530 S   0  0  0  0  0  3  0  0  0  0  0  0
  191.3270  176.6200  138.6320 C   0  0  0  0  0  2  0  0  0  0  0  0
  190.3540  176.3490  139.5930 O   0  0  0  0  0  0  0  0  0  0  0  0
  189.2390  177.0720  139.1740 C   0  0  0  0  0  1  0  0  0  0  0  0
  1  3  1  1  0  0  0
  1  4  1  0  0  0  0
  1  5  1  0  0  0  0
  2 24  1  0  0  0  0
  4 33  1  6  0  0  0
  4  6  1  0  0  0  0
  5 16  1  6  0  0  0
  5  8  1  0  0  0  0
  6  7  1  6  0  0  0
  6  8  1  0  0  0  0
  8  2  2  0  0  0  0
  9 10  1  0  0  0  0
  9 18  1  0  0  0  0
 10 23  1  0  0  0  0
 12 13  1  0  0  0  0
 13  9  2  0  0  0  0
 14 16  1  0  0  0  0
 15 14  2  0  0  0  0
 15 13  1  0  0  0  0
 16 10  2  0  0  0  0
 17 19  1  0  0  0  0
 17 20  1  0  0  0  0
 18 17  2  0  0  0  0
 19 22  2  0  0  0  0
 20 21  1  0  0  0  0
 22 21  1  0  0  0  0
 22 11  1  0  0  0  0
 23 19  1  0  0  0  0
 25 28  1  1  0  0  0
 26 24  1  6  0  0  0
 26 27  1  0  0  0  0
 26 25  1  0  0  0  0
 27 25  1  0  0  0  0
 28 29  1  0  0  0  0
 30 31  1  0  0  0  0
 30 29  1  0  0  0  0
 31 32  1  0  0  0  0
 33 35  1  0  0  0  0
 34 36  2  0  0  0  0
 36 37  1  0  0  0  0
 36 35  1  0  0  0  0
 37 38  1  0  0  0  0
 38 40  1  0  0  0  0
 38 39  2  0  0  0  0
 40 41  1  0  0  0  0
 41 44  1  6  0  0  0
 42 43  2  0  0  0  0
 43 41  1  0  0  0  0
 44 45  1  0  0  0  0
 46 45  1  0  0  0  0
M  END
>  <MODEL>
4

>  <REMARK>
 VINA RESULT:      -5.6      3.119      6.615
  Name = 
  15 active torsions:
  status: ('A' for Active; 'I' for Inactive)
    1  A    between atoms: C_1  and  C_10
    2  A    between atoms: C_1  and  N_34
    3  A    between atoms: C_1  and  S_36
    4  A    between atoms: C_2  and  O_37
    5  A    between atoms: O_3  and  C_10
    6  A    between atoms: C_8  and  C_16
    7  A    between atoms: C_8  and  C_19
    8  A    between atoms: C_9  and  C_11
    9  A    between atoms: C_11  and  C_21
   10  A    between atoms: C_13  and  C_15
   11  A    between atoms: C_13  and  C_45
   12  A    between atoms: C_21  and  O_37
   13  A    between atoms: N_24  and  N_25
   14  A    between atoms: N_25  and  C_35
   15  A    between atoms: C_26  and  C_38
                            x       y       z     vdW  Elec       q    Type
                         _______ _______ _______ _____ _____    ______ ____

>  <TORSDO>
F 15

$$$$
=
 OpenBabel11032421033D

 46 50  0  0  1  0  0  0  0  0999 V2000
  189.3440  176.4900  138.5450 C   0  0  2  0  0  3  0  0  0  0  0  0
  191.2300  176.0180  135.4220 C   0  0  0  0  0  3  0  0  0  0  0  0
  188.2770  177.5210  138.8560 C   0  0  0  0  0  1  0  0  0  0  0  0
  190.7220  177.0380  138.8930 C   0  0  2  0  0  3  0  0  0  0  0  0
  189.3650  176.1910  137.0500 C   0  0  1  0  0  3  0  0  0  0  0  0
  191.7010  176.5100  137.8360 C   0  0  1  0  0  3  0  0  0  0  0  0
  192.4250  175.2400  138.2740 C   0  0  0  0  0  1  0  0  0  0  0  0
  190.8100  176.1920  136.6830 C   0  0  0  0  0  0  0  0  0  0  0  0
  186.6940  173.5210  136.3960 C   0  0  0  0  0  0  0  0  0  0  0  0
  187.2960  174.7690  136.7150 C   0  0  0  0  0  0  0  0  0  0  0  0
  184.2190  177.9880  137.5200 C   0  0  0  0  0  1  0  0  0  0  0  0
  186.9220  171.1830  135.8110 O   0  0  0  0  0  1  0  0  0  0  0  0
  187.4990  172.4090  136.1180 C   0  0  0  0  0  0  0  0  0  0  0  0
  189.4860  173.7450  136.4550 C   0  0  0  0  0  3  0  0  0  0  0  0
  188.8880  172.5240  136.1470 C   0  0  0  0  0  3  0  0  0  0  0  0
  188.7010  174.8720  136.7440 C   0  0  0  0  0  0  0  0  0  0  0  0
  184.4810  174.3830  136.6120 C   0  0  0  0  0  0  0  0  0  0  0  0
  185.2630  173.3830  136.3570 N   0  0  0  0  0  0  0  0  0  0  0  0
  184.9810  175.6930  136.9500 C   0  0  0  0  0  0  0  0  0  0  0  0
  183.0690  174.2910  136.5810 N   0  0  0  0  0  2  0  0  0  0  0  0
  182.3450  175.8600  136.9790 S   0  0  0  0  0  0  0  0  0  0  0  0
  183.9980  176.5570  137.1640 C   0  0  0  0  0  0  0  0  0  0  0  0
  186.4480  175.9910  137.0070 C   0  0  0  0  0  2  0  0  0  0  0  0
  192.6750  176.0630  135.0410 C   0  0  0  0  0  2  0  0  0  0  0  0
  194.3660  174.3240  135.3570 C   0  0  1  0  0  3  0  0  0  0  0  0
  193.1370  174.6830  134.6190 C   0  0  1  0  0  3  0  0  0  0  0  0
  193.1050  173.8200  135.7300 O   0  0  0  0  0  0  0  0  0  0  0  0
  195.1260  173.2560  134.5940 C   0  0  0  0  0  2  0  0  0  0  0  0
  196.4180  172.9130  135.3130 C   0  0  0  0  0  2  0  0  0  0  0  0
  196.2630  173.0860  136.6900 O   0  0  0  0  0  0  0  0  0  0  0  0
  197.5650  173.1810  137.1800 C   0  0  0  0  0  2  0  0  0  0  0  0
  197.7450  174.4630  137.8370 N   0  0  0  0  0  1  0  0  0  0  0  0
  191.0980  176.6750  140.2520 N   0  0  0  0  0  2  0  0  0  0  0  0
  190.3570  175.4860  142.6630 O   0  0  0  0  0  0  0  0  0  0  0  0
  190.1110  177.1980  141.0980 N   0  0  0  0  0  2  0  0  0  0  0  0
  189.7660  176.5430  142.3170 C   0  0  0  0  0  0  0  0  0  0  0  0
  188.6710  177.0920  143.1640 C   0  0  0  0  0  2  0  0  0  0  0  0
  189.2280  177.6470  144.4280 C   0  0  0  0  0  0  0  0  0  0  0  0
  190.1480  178.5050  144.3780 O   0  0  0  0  0  0  0  0  0  0  0  0
  188.7380  177.1770  145.6860 N   0  0  0  0  0  2  0  0  0  0  0  0
  189.2640  177.6480  146.9570 C   0  0  1  0  0  3  0  0  0  0  0  0
  186.7540  178.3520  147.2190 O   0  0  0  0  0  0  0  0  0  0  0  0
  187.9060  177.9220  148.1150 S   0  0  0  0  0  3  0  0  0  0  0  0
  190.2200  176.6090  147.5150 C   0  0  0  0  0  2  0  0  0  0  0  0
  191.5390  176.9890  147.2640 O   0  0  0  0  0  0  0  0  0  0  0  0
  192.2870  175.8440  147.5300 C   0  0  0  0  0  1  0  0  0  0  0  0
  1  3  1  6  0  0  0
  1  4  1  0  0  0  0
  2  8  2  0  0  0  0
  4 33  1  1  0  0  0
  5 16  1  1  0  0  0
  5  1  1  0  0  0  0
  6  7  1  1  0  0  0
  6  4  1  0  0  0  0
  8  5  1  0  0  0  0
  8  6  1  0  0  0  0
  9 10  1  0  0  0  0
 10 16  2  0  0  0  0
 10 23  1  0  0  0  0
 12 13  1  0  0  0  0
 13 15  1  0  0  0  0
 13  9  2  0  0  0  0
 14 16  1  0  0  0  0
 15 14  2  0  0  0  0
 17 19  1  0  0  0  0
 18  9  1  0  0  0  0
 18 17  2  0  0  0  0
 19 23  1  0  0  0  0
 19 22  2  0  0  0  0
 20 17  1  0  0  0  0
 20 21  1  0  0  0  0
 21 22  1  0  0  0  0
 22 11  1  0  0  0  0
 24  2  1  0  0  0  0
 25 28  1  6  0  0  0
 25 27  1  0  0  0  0
 26 24  1  1  0  0  0
 26 25  1  0  0  0  0
 26 27  1  0  0  0  0
 28 29  1  0  0  0  0
 29 30  1  0  0  0  0
 30 31  1  0  0  0  0
 31 32  1  0  0  0  0
 33 35  1  0  0  0  0
 35 36  1  0  0  0  0
 36 34  2  0  0  0  0
 36 37  1  0  0  0  0
 37 38  1  0  0  0  0
 38 40  1  0  0  0  0
 39 38  2  0  0  0  0
 40 41  1  0  0  0  0
 41 44  1  1  0  0  0
 41 43  1  0  0  0  0
 42 43  2  0  0  0  0
 45 44  1  0  0  0  0
 45 46  1  0  0  0  0
M  END
>  <MODEL>
5

>  <REMARK>
 VINA RESULT:      -5.6      2.629      4.061
  Name = 
  15 active torsions:
  status: ('A' for Active; 'I' for Inactive)
    1  A    between atoms: C_1  and  C_10
    2  A    between atoms: C_1  and  N_34
    3  A    between atoms: C_1  and  S_36
    4  A    between atoms: C_2  and  O_37
    5  A    between atoms: O_3  and  C_10
    6  A    between atoms: C_8  and  C_16
    7  A    between atoms: C_8  and  C_19
    8  A    between atoms: C_9  and  C_11
    9  A    between atoms: C_11  and  C_21
   10  A    between atoms: C_13  and  C_15
   11  A    between atoms: C_13  and  C_45
   12  A    between atoms: C_21  and  O_37
   13  A    between atoms: N_24  and  N_25
   14  A    between atoms: N_25  and  C_35
   15  A    between atoms: C_26  and  C_38
                            x       y       z     vdW  Elec       q    Type
                         _______ _______ _______ _____ _____    ______ ____

>  <TORSDO>
F 15

$$$$
=
 OpenBabel11032421033D

 46 50  0  0  1  0  0  0  0  0999 V2000
  184.7190  178.8400  143.0060 C   0  0  2  0  0  3  0  0  0  0  0  0
  187.6880  178.2650  140.9110 C   0  0  0  0  0  3  0  0  0  0  0  0
  183.9900  180.1420  143.2710 C   0  0  0  0  0  1  0  0  0  0  0  0
  185.8280  178.6390  144.0320 C   0  0  2  0  0  3  0  0  0  0  0  0
  185.3990  178.8880  141.6430 C   0  0  1  0  0  3  0  0  0  0  0  0
  187.0040  177.9740  143.3070 C   0  0  1  0  0  3  0  0  0  0  0  0
  187.0090  176.4540  143.4460 C   0  0  0  0  0  1  0  0  0  0  0  0
  186.7630  178.3320  141.8790 C   0  0  0  0  0  0  0  0  0  0  0  0
  184.4220  177.1330  138.3790 C   0  0  0  0  0  0  0  0  0  0  0  0
  185.1510  177.9110  139.3200 C   0  0  0  0  0  0  0  0  0  0  0  0
  189.0150  179.5020  137.5840 C   0  0  0  0  0  1  0  0  0  0  0  0
  182.4730  175.8040  137.8330 O   0  0  0  0  0  1  0  0  0  0  0  0
  183.1970  176.5610  138.7460 C   0  0  0  0  0  0  0  0  0  0  0  0
  183.4060  177.5030  140.9620 C   0  0  0  0  0  3  0  0  0  0  0  0
  182.6950  176.7460  140.0330 C   0  0  0  0  0  3  0  0  0  0  0  0
  184.6320  178.0920  140.6170 C   0  0  0  0  0  0  0  0  0  0  0  0
  186.0500  177.4410  136.6630 C   0  0  0  0  0  0  0  0  0  0  0  0
  184.9250  176.9260  137.0470 N   0  0  0  0  0  0  0  0  0  0  0  0
  186.8710  178.2490  137.5310 C   0  0  0  0  0  0  0  0  0  0  0  0
  186.5830  177.2600  135.3640 N   0  0  0  0  0  2  0  0  0  0  0  0
  188.1330  178.1080  135.2150 S   0  0  0  0  0  0  0  0  0  0  0  0
  187.9750  178.6610  136.9250 C   0  0  0  0  0  0  0  0  0  0  0  0
  186.4840  178.5300  138.9520 C   0  0  0  0  0  2  0  0  0  0  0  0
  189.0710  177.7500  141.1530 C   0  0  0  0  0  2  0  0  0  0  0  0
  190.9500  177.1470  139.7080 C   0  0  1  0  0  3  0  0  0  0  0  0
  189.5170  176.9050  139.9770 C   0  0  1  0  0  3  0  0  0  0  0  0
  190.5100  176.0030  140.4020 O   0  0  0  0  0  0  0  0  0  0  0  0
  191.2700  176.7700  138.2740 C   0  0  0  0  0  2  0  0  0  0  0  0
  192.5960  176.0350  138.2050 C   0  0  0  0  0  2  0  0  0  0  0  0
  193.5550  176.8310  137.5770 O   0  0  0  0  0  0  0  0  0  0  0  0
  193.9080  176.1150  136.4320 C   0  0  0  0  0  2  0  0  0  0  0  0
  195.1030  176.6950  135.8450 N   0  0  0  0  0  1  0  0  0  0  0  0
  185.3480  177.8680  145.1710 N   0  0  0  0  0  2  0  0  0  0  0  0
  185.7110  179.4860  147.4140 O   0  0  0  0  0  0  0  0  0  0  0  0
  186.4290  177.7330  146.0520 N   0  0  0  0  0  2  0  0  0  0  0  0
  186.5700  178.5950  147.1800 C   0  0  0  0  0  0  0  0  0  0  0  0
  187.7620  178.4630  148.0630 C   0  0  0  0  0  2  0  0  0  0  0  0
  188.6770  177.4120  147.5380 C   0  0  0  0  0  0  0  0  0  0  0  0
  188.6760  176.2680  148.0630 O   0  0  0  0  0  0  0  0  0  0  0  0
  189.5710  177.7210  146.4660 N   0  0  0  0  0  2  0  0  0  0  0  0
  190.5160  176.7530  145.9310 C   0  0  1  0  0  3  0  0  0  0  0  0
  191.3050  175.7950  143.6240 O   0  0  0  0  0  0  0  0  0  0  0  0
  190.8630  177.1320  144.2000 S   0  0  0  0  0  3  0  0  0  0  0  0
  191.7980  176.8110  146.7420 C   0  0  0  0  0  2  0  0  0  0  0  0
  192.2370  175.5210  147.0370 O   0  0  0  0  0  0  0  0  0  0  0  0
  192.8050  175.6280  148.3050 C   0  0  0  0  0  1  0  0  0  0  0  0
  1  3  1  1  0  0  0
  1  4  1  0  0  0  0
  2 24  1  0  0  0  0
  2  8  2  0  0  0  0
  4 33  1  1  0  0  0
  5 16  1  6  0  0  0
  5  8  1  0  0  0  0
  5  1  1  0  0  0  0
  6  7  1  6  0  0  0
  6  4  1  0  0  0  0
  8  6  1  0  0  0  0
  9 13  2  0  0  0  0
  9 10  1  0  0  0  0
 10 16  2  0  0  0  0
 12 13  1  0  0  0  0
 13 15  1  0  0  0  0
 15 14  2  0  0  0  0
 16 14  1  0  0  0  0
 17 18  2  0  0  0  0
 17 19  1  0  0  0  0
 18  9  1  0  0  0  0
 19 23  1  0  0  0  0
 20 17  1  0  0  0  0
 21 20  1  0  0  0  0
 21 22  1  0  0  0  0
 22 19  2  0  0  0  0
 22 11  1  0  0  0  0
 23 10  1  0  0  0  0
 25 28  1  6  0  0  0
 25 26  1  0  0  0  0
 25 27  1  0  0  0  0
 26 27  1  0  0  0  0
 26 24  1  1  0  0  0
 29 28  1  0  0  0  0
 30 29  1  0  0  0  0
 31 30  1  0  0  0  0
 32 31  1  0  0  0  0
 33 35  1  0  0  0  0
 35 36  1  0  0  0  0
 36 34  2  0  0  0  0
 36 37  1  0  0  0  0
 38 39  2  0  0  0  0
 38 37  1  0  0  0  0
 40 38  1  0  0  0  0
 41 40  1  0  0  0  0
 41 44  1  1  0  0  0
 42 43  2  0  0  0  0
 43 41  1  0  0  0  0
 44 45  1  0  0  0  0
 45 46  1  0  0  0  0
M  END
>  <MODEL>
6

>  <REMARK>
 VINA RESULT:      -5.5      3.068      4.583
  Name = 
  15 active torsions:
  status: ('A' for Active; 'I' for Inactive)
    1  A    between atoms: C_1  and  C_10
    2  A    between atoms: C_1  and  N_34
    3  A    between atoms: C_1  and  S_36
    4  A    between atoms: C_2  and  O_37
    5  A    between atoms: O_3  and  C_10
    6  A    between atoms: C_8  and  C_16
    7  A    between atoms: C_8  and  C_19
    8  A    between atoms: C_9  and  C_11
    9  A    between atoms: C_11  and  C_21
   10  A    between atoms: C_13  and  C_15
   11  A    between atoms: C_13  and  C_45
   12  A    between atoms: C_21  and  O_37
   13  A    between atoms: N_24  and  N_25
   14  A    between atoms: N_25  and  C_35
   15  A    between atoms: C_26  and  C_38
                            x       y       z     vdW  Elec       q    Type
                         _______ _______ _______ _____ _____    ______ ____

>  <TORSDO>
F 15

$$$$
=
 OpenBabel11032421033D

 46 50  0  0  1  0  0  0  0  0999 V2000
  182.3760  178.7700  142.1990 C   0  0  2  0  0  3  0  0  0  0  0  0
  184.9280  179.0160  139.5620 C   0  0  0  0  0  3  0  0  0  0  0  0
  181.2530  179.7370  142.5190 C   0  0  0  0  0  1  0  0  0  0  0  0
  183.6320  179.1470  142.9740 C   0  0  2  0  0  3  0  0  0  0  0  0
  182.7400  178.8580  140.7220 C   0  0  1  0  0  3  0  0  0  0  0  0
  184.8320  178.8590  142.0640 C   0  0  1  0  0  3  0  0  0  0  0  0
  185.4540  177.4870  142.3100 C   0  0  0  0  0  1  0  0  0  0  0  0
  184.2310  178.8850  140.6990 C   0  0  0  0  0  0  0  0  0  0  0  0
  181.0390  176.7800  137.9870 C   0  0  0  0  0  0  0  0  0  0  0  0
  181.5330  177.8990  138.7130 C   0  0  0  0  0  0  0  0  0  0  0  0
  180.7480  181.8030  136.5640 C   0  0  0  0  0  1  0  0  0  0  0  0
  180.7100  174.3880  137.8090 O   0  0  0  0  0  1  0  0  0  0  0  0
  181.1950  175.4880  138.5060 C   0  0  0  0  0  0  0  0  0  0  0  0
  182.3290  176.3870  140.4420 C   0  0  0  0  0  3  0  0  0  0  0  0
  181.8380  175.2960  139.7270 C   0  0  0  0  0  3  0  0  0  0  0  0
  182.1800  177.6920  139.9470 C   0  0  0  0  0  0  0  0  0  0  0  0
  180.2050  178.1330  136.2090 C   0  0  0  0  0  0  0  0  0  0  0  0
  180.3750  176.9570  136.7230 N   0  0  0  0  0  0  0  0  0  0  0  0
  180.6620  179.3380  136.8580 C   0  0  0  0  0  0  0  0  0  0  0  0
  179.5620  178.3520  134.9680 N   0  0  0  0  0  2  0  0  0  0  0  0
  179.5220  180.0850  134.5960 S   0  0  0  0  0  0  0  0  0  0  0  0
  180.3830  180.4200  136.1450 C   0  0  0  0  0  0  0  0  0  0  0  0
  181.3890  179.3050  138.1680 C   0  0  0  0  0  2  0  0  0  0  0  0
  186.4210  179.0890  139.5370 C   0  0  0  0  0  2  0  0  0  0  0  0
  188.3390  178.0950  138.3880 C   0  0  1  0  0  3  0  0  0  0  0  0
  186.9400  178.5430  138.2220 C   0  0  1  0  0  3  0  0  0  0  0  0
  187.2670  177.1820  138.3780 O   0  0  0  0  0  0  0  0  0  0  0  0
  189.0300  178.0700  137.0380 C   0  0  0  0  0  2  0  0  0  0  0  0
  190.2310  177.1420  137.0780 C   0  0  0  0  0  2  0  0  0  0  0  0
  189.8970  175.9020  136.5300 O   0  0  0  0  0  0  0  0  0  0  0  0
  190.0420  175.0030  137.5870 C   0  0  0  0  0  2  0  0  0  0  0  0
  191.3170  175.2280  138.2460 N   0  0  0  0  0  1  0  0  0  0  0  0
  183.6940  178.4360  144.2430 N   0  0  0  0  0  2  0  0  0  0  0  0
  184.2210  178.2470  146.9750 O   0  0  0  0  0  0  0  0  0  0  0  0
  184.9420  178.7240  144.8090 N   0  0  0  0  0  2  0  0  0  0  0  0
  185.1540  178.6190  146.2160 C   0  0  0  0  0  0  0  0  0  0  0  0
  186.4760  178.9900  146.7920 C   0  0  0  0  0  2  0  0  0  0  0  0
  187.4820  177.9320  146.4940 C   0  0  0  0  0  0  0  0  0  0  0  0
  187.7720  177.0840  147.3780 O   0  0  0  0  0  0  0  0  0  0  0  0
  188.1330  177.9110  145.2210 N   0  0  0  0  0  2  0  0  0  0  0  0
  189.1500  176.9290  144.8790 C   0  0  1  0  0  3  0  0  0  0  0  0
  190.2190  175.7230  142.8130 O   0  0  0  0  0  0  0  0  0  0  0  0
  188.8770  176.3290  143.1980 S   0  0  0  0  0  3  0  0  0  0  0  0
  190.5190  177.5780  144.9830 C   0  0  0  0  0  2  0  0  0  0  0  0
  191.4490  176.6590  145.4700 O   0  0  0  0  0  0  0  0  0  0  0  0
  191.2990  176.7120  146.8540 C   0  0  0  0  0  1  0  0  0  0  0  0
  1  3  1  6  0  0  0
  1  4  1  0  0  0  0
  2  8  2  0  0  0  0
  4 33  1  1  0  0  0
  5 16  1  6  0  0  0
  5  1  1  0  0  0  0
  6  7  1  1  0  0  0
  6  4  1  0  0  0  0
  8  5  1  0  0  0  0
  8  6  1  0  0  0  0
  9 13  2  0  0  0  0
  9 10  1  0  0  0  0
 10 16  2  0  0  0  0
 12 13  1  0  0  0  0
 13 15  1  0  0  0  0
 15 14  2  0  0  0  0
 16 14  1  0  0  0  0
 17 18  2  0  0  0  0
 17 19  1  0  0  0  0
 18  9  1  0  0  0  0
 19 23  1  0  0  0  0
 20 17  1  0  0  0  0
 21 20  1  0  0  0  0
 21 22  1  0  0  0  0
 22 11  1  0  0  0  0
 22 19  2  0  0  0  0
 23 10  1  0  0  0  0
 24  2  1  0  0  0  0
 25 28  1  6  0  0  0
 26 27  1  0  0  0  0
 26 25  1  0  0  0  0
 26 24  1  1  0  0  0
 27 25  1  0  0  0  0
 28 29  1  0  0  0  0
 30 29  1  0  0  0  0
 30 31  1  0  0  0  0
 31 32  1  0  0  0  0
 33 35  1  0  0  0  0
 35 36  1  0  0  0  0
 36 37  1  0  0  0  0
 36 34  2  0  0  0  0
 38 37  1  0  0  0  0
 38 39  2  0  0  0  0
 40 38  1  0  0  0  0
 41 44  1  6  0  0  0
 41 40  1  0  0  0  0
 42 43  2  0  0  0  0
 43 41  1  0  0  0  0
 44 45  1  0  0  0  0
 45 46  1  0  0  0  0
M  END
>  <MODEL>
7

>  <REMARK>
 VINA RESULT:      -5.5      2.593      3.860
  Name = 
  15 active torsions:
  status: ('A' for Active; 'I' for Inactive)
    1  A    between atoms: C_1  and  C_10
    2  A    between atoms: C_1  and  N_34
    3  A    between atoms: C_1  and  S_36
    4  A    between atoms: C_2  and  O_37
    5  A    between atoms: O_3  and  C_10
    6  A    between atoms: C_8  and  C_16
    7  A    between atoms: C_8  and  C_19
    8  A    between atoms: C_9  and  C_11
    9  A    between atoms: C_11  and  C_21
   10  A    between atoms: C_13  and  C_15
   11  A    between atoms: C_13  and  C_45
   12  A    between atoms: C_21  and  O_37
   13  A    between atoms: N_24  and  N_25
   14  A    between atoms: N_25  and  C_35
   15  A    between atoms: C_26  and  C_38
                            x       y       z     vdW  Elec       q    Type
                         _______ _______ _______ _____ _____    ______ ____

>  <TORSDO>
F 15

$$$$
=
 OpenBabel11032421033D

 46 50  0  0  1  0  0  0  0  0999 V2000
  189.3240  177.3000  136.0050 C   0  0  2  0  0  3  0  0  0  0  0  0
  191.4360  177.2740  139.0170 C   0  0  0  0  0  3  0  0  0  0  0  0
  189.5300  178.0690  134.7150 C   0  0  0  0  0  1  0  0  0  0  0  0
  188.5200  178.1370  136.9930 C   0  0  2  0  0  3  0  0  0  0  0  0
  190.6660  177.0220  136.6710 C   0  0  1  0  0  3  0  0  0  0  0  0
  189.0740  177.8450  138.3930 C   0  0  1  0  0  3  0  0  0  0  0  0
  188.2900  176.7630  139.1310 C   0  0  0  0  0  1  0  0  0  0  0  0
  190.4500  177.3440  138.1110 C   0  0  0  0  0  0  0  0  0  0  0  0
  192.7970  173.9310  135.8970 C   0  0  0  0  0  0  0  0  0  0  0  0
  192.4080  175.2900  136.0560 C   0  0  0  0  0  0  0  0  0  0  0  0
  195.7890  178.1480  135.1170 C   0  0  0  0  0  1  0  0  0  0  0  0
  192.2390  171.5770  135.9880 O   0  0  0  0  0  1  0  0  0  0  0  0
  191.8730  172.9080  136.1460 C   0  0  0  0  0  0  0  0  0  0  0  0
  190.1900  174.5470  136.7150 C   0  0  0  0  0  3  0  0  0  0  0  0
  190.5760  173.2180  136.5530 C   0  0  0  0  0  3  0  0  0  0  0  0
  191.0940  175.5900  136.4660 C   0  0  0  0  0  0  0  0  0  0  0  0
  195.0160  174.5040  135.2360 C   0  0  0  0  0  0  0  0  0  0  0  0
  194.1310  173.5910  135.4810 N   0  0  0  0  0  0  0  0  0  0  0  0
  194.7320  175.9130  135.3600 C   0  0  0  0  0  0  0  0  0  0  0  0
  196.3390  174.2130  134.8280 N   0  0  0  0  0  2  0  0  0  0  0  0
  197.2520  175.7150  134.5940 S   0  0  0  0  0  0  0  0  0  0  0  0
  195.7880  176.6580  135.0640 C   0  0  0  0  0  0  0  0  0  0  0  0
  193.3920  176.4150  135.8060 C   0  0  0  0  0  2  0  0  0  0  0  0
  191.2360  177.6390  140.4530 C   0  0  0  0  0  2  0  0  0  0  0  0
  191.0850  176.7540  142.7290 C   0  0  1  0  0  3  0  0  0  0  0  0
  191.3310  176.3960  141.3160 C   0  0  1  0  0  3  0  0  0  0  0  0
  190.0870  176.1610  141.9320 O   0  0  0  0  0  0  0  0  0  0  0  0
  191.6940  175.7010  143.6350 C   0  0  0  0  0  2  0  0  0  0  0  0
  191.2190  175.8960  145.0630 C   0  0  0  0  0  2  0  0  0  0  0  0
  191.6200  177.1460  145.5380 O   0  0  0  0  0  0  0  0  0  0  0  0
  191.3250  177.1140  146.9010 C   0  0  0  0  0  2  0  0  0  0  0  0
  189.8980  176.9160  147.0840 N   0  0  0  0  0  1  0  0  0  0  0  0
  187.0960  177.8590  136.8720 N   0  0  0  0  0  2  0  0  0  0  0  0
  184.5150  177.3060  137.7700 O   0  0  0  0  0  0  0  0  0  0  0  0
  186.4520  178.6010  137.8700 N   0  0  0  0  0  2  0  0  0  0  0  0
  185.1260  178.2790  138.2860 C   0  0  0  0  0  0  0  0  0  0  0  0
  184.4480  179.1250  139.3070 C   0  0  0  0  0  2  0  0  0  0  0  0
  184.5140  178.4690  140.6430 C   0  0  0  0  0  0  0  0  0  0  0  0
  183.5940  177.6850  140.9960 O   0  0  0  0  0  0  0  0  0  0  0  0
  185.6010  178.7620  141.5240 N   0  0  0  0  0  2  0  0  0  0  0  0
  185.7060  178.1860  142.8560 C   0  0  1  0  0  3  0  0  0  0  0  0
  187.3690  176.6790  144.2090 O   0  0  0  0  0  0  0  0  0  0  0  0
  187.4380  177.8510  143.2400 S   0  0  0  0  0  3  0  0  0  0  0  0
  185.1300  179.1630  143.8650 C   0  0  0  0  0  2  0  0  0  0  0  0
  183.7940  179.4290  143.5650 O   0  0  0  0  0  0  0  0  0  0  0  0
  183.0930  179.0070  144.6920 C   0  0  0  0  0  1  0  0  0  0  0  0
  1  3  1  6  0  0  0
  1  5  1  0  0  0  0
  1  4  1  0  0  0  0
  2 24  1  0  0  0  0
  4 33  1  1  0  0  0
  4  6  1  0  0  0  0
  5 16  1  1  0  0  0
  5  8  1  0  0  0  0
  6  7  1  6  0  0  0
  8  6  1  0  0  0  0
  8  2  2  0  0  0  0
  9 10  2  0  0  0  0
  9 13  1  0  0  0  0
 10 16  1  0  0  0  0
 12 13  1  0  0  0  0
 13 15  2  0  0  0  0
 15 14  1  0  0  0  0
 16 14  2  0  0  0  0
 17 19  1  0  0  0  0
 17 18  2  0  0  0  0
 18  9  1  0  0  0  0
 19 23  1  0  0  0  0
 20 17  1  0  0  0  0
 21 20  1  0  0  0  0
 21 22  1  0  0  0  0
 22 11  1  0  0  0  0
 22 19  2  0  0  0  0
 23 10  1  0  0  0  0
 25 28  1  1  0  0  0
 26 24  1  6  0  0  0
 26 27  1  0  0  0  0
 26 25  1  0  0  0  0
 27 25  1  0  0  0  0
 28 29  1  0  0  0  0
 29 30  1  0  0  0  0
 30 31  1  0  0  0  0
 31 32  1  0  0  0  0
 33 35  1  0  0  0  0
 34 36  2  0  0  0  0
 35 36  1  0  0  0  0
 36 37  1  0  0  0  0
 37 38  1  0  0  0  0
 38 39  2  0  0  0  0
 38 40  1  0  0  0  0
 40 41  1  0  0  0  0
 41 43  1  0  0  0  0
 41 44  1  1  0  0  0
 43 42  2  0  0  0  0
 45 44  1  0  0  0  0
 45 46  1  0  0  0  0
M  END
>  <MODEL>
8

>  <REMARK>
 VINA RESULT:      -5.4      3.421      9.094
  Name = 
  15 active torsions:
  status: ('A' for Active; 'I' for Inactive)
    1  A    between atoms: C_1  and  C_10
    2  A    between atoms: C_1  and  N_34
    3  A    between atoms: C_1  and  S_36
    4  A    between atoms: C_2  and  O_37
    5  A    between atoms: O_3  and  C_10
    6  A    between atoms: C_8  and  C_16
    7  A    between atoms: C_8  and  C_19
    8  A    between atoms: C_9  and  C_11
    9  A    between atoms: C_11  and  C_21
   10  A    between atoms: C_13  and  C_15
   11  A    between atoms: C_13  and  C_45
   12  A    between atoms: C_21  and  O_37
   13  A    between atoms: N_24  and  N_25
   14  A    between atoms: N_25  and  C_35
   15  A    between atoms: C_26  and  C_38
                            x       y       z     vdW  Elec       q    Type
                         _______ _______ _______ _____ _____    ______ ____

>  <TORSDO>
F 15

$$$$
=
 OpenBabel11032421033D

 46 50  0  0  1  0  0  0  0  0999 V2000
  192.0180  176.3960  137.9870 C   0  0  2  0  0  3  0  0  0  0  0  0
  191.7140  173.5890  135.6290 C   0  0  0  0  0  3  0  0  0  0  0  0
  192.2580  176.3500  139.4830 C   0  0  0  0  0  1  0  0  0  0  0  0
  190.5240  176.3580  137.6930 C   0  0  2  0  0  3  0  0  0  0  0  0
  192.6190  175.1640  137.3210 C   0  0  1  0  0  3  0  0  0  0  0  0
  190.3320  175.5290  136.4160 C   0  0  1  0  0  3  0  0  0  0  0  0
  190.2550  176.3850  135.1550 C   0  0  0  0  0  1  0  0  0  0  0  0
  191.5700  174.6980  136.3680 C   0  0  0  0  0  0  0  0  0  0  0  0
  196.1560  174.8680  135.8760 C   0  0  0  0  0  0  0  0  0  0  0  0
  194.9550  174.5440  136.5640 C   0  0  0  0  0  0  0  0  0  0  0  0
  195.0670  170.3750  138.3190 C   0  0  0  0  0  1  0  0  0  0  0  0
  197.4690  176.4520  134.6000 O   0  0  0  0  0  1  0  0  0  0  0  0
  196.2970  176.1220  135.2690 C   0  0  0  0  0  0  0  0  0  0  0  0
  194.0780  176.7410  136.0010 C   0  0  0  0  0  3  0  0  0  0  0  0
  195.2600  177.0520  135.3330 C   0  0  0  0  0  3  0  0  0  0  0  0
  193.9140  175.4930  136.6230 C   0  0  0  0  0  0  0  0  0  0  0  0
  197.1510  172.7510  136.3460 C   0  0  0  0  0  0  0  0  0  0  0  0
  197.2360  173.9200  135.7950 N   0  0  0  0  0  0  0  0  0  0  0  0
  195.9820  172.3180  137.0710 C   0  0  0  0  0  0  0  0  0  0  0  0
  198.1880  171.7890  136.2880 N   0  0  0  0  0  2  0  0  0  0  0  0
  197.7050  170.3170  137.1490 S   0  0  0  0  0  0  0  0  0  0  0  0
  196.1210  171.0860  137.5400 C   0  0  0  0  0  0  0  0  0  0  0  0
  194.7720  173.1890  137.2170 C   0  0  0  0  0  2  0  0  0  0  0  0
  190.6470  173.0930  134.7060 C   0  0  0  0  0  2  0  0  0  0  0  0
  188.2660  172.5470  134.8160 C   0  0  1  0  0  3  0  0  0  0  0  0
  189.5650  172.3920  135.5020 C   0  0  1  0  0  3  0  0  0  0  0  0
  189.0120  171.3560  134.7260 O   0  0  0  0  0  0  0  0  0  0  0  0
  187.1370  172.3560  135.8110 C   0  0  0  0  0  2  0  0  0  0  0  0
  186.0480  173.3880  135.5770 C   0  0  0  0  0  2  0  0  0  0  0  0
  186.5860  174.5260  134.9740 O   0  0  0  0  0  0  0  0  0  0  0  0
  185.5240  175.4290  134.9210 C   0  0  0  0  0  2  0  0  0  0  0  0
  184.6790  175.2540  136.0880 N   0  0  0  0  0  1  0  0  0  0  0  0
  189.9800  177.7050  137.5870 N   0  0  0  0  0  2  0  0  0  0  0  0
  187.4210  177.6640  138.6950 O   0  0  0  0  0  0  0  0  0  0  0  0
  189.6980  178.1310  138.8910 N   0  0  0  0  0  2  0  0  0  0  0  0
  188.3680  178.0970  139.4040 C   0  0  0  0  0  0  0  0  0  0  0  0
  188.0920  178.6140  140.7740 C   0  0  0  0  0  2  0  0  0  0  0  0
  188.7340  177.7370  141.7930 C   0  0  0  0  0  0  0  0  0  0  0  0
  189.2780  176.6600  141.4320 O   0  0  0  0  0  0  0  0  0  0  0  0
  188.6970  178.1090  143.1720 N   0  0  0  0  0  2  0  0  0  0  0  0
  189.2700  177.2810  144.2220 C   0  0  1  0  0  3  0  0  0  0  0  0
  191.7330  176.3890  144.1830 O   0  0  0  0  0  0  0  0  0  0  0  0
  191.0120  177.7020  144.4480 S   0  0  0  0  0  3  0  0  0  0  0  0
  188.5070  177.5190  145.5130 C   0  0  0  0  0  2  0  0  0  0  0  0
  187.1560  177.2230  145.3320 O   0  0  0  0  0  0  0  0  0  0  0  0
  186.4840  178.1990  146.0660 C   0  0  0  0  0  1  0  0  0  0  0  0
  1  3  1  1  0  0  0
  2  8  2  0  0  0  0
  4 33  1  6  0  0  0
  4  1  1  0  0  0  0
  5 16  1  6  0  0  0
  5  1  1  0  0  0  0
  6  7  1  6  0  0  0
  6  4  1  0  0  0  0
  8  6  1  0  0  0  0
  8  5  1  0  0  0  0
  9 10  1  0  0  0  0
 10 16  2  0  0  0  0
 10 23  1  0  0  0  0
 12 13  1  0  0  0  0
 13 15  1  0  0  0  0
 13  9  2  0  0  0  0
 14 16  1  0  0  0  0
 15 14  2  0  0  0  0
 17 19  1  0  0  0  0
 18  9  1  0  0  0  0
 18 17  2  0  0  0  0
 19 23  1  0  0  0  0
 19 22  2  0  0  0  0
 20 17  1  0  0  0  0
 20 21  1  0  0  0  0
 21 22  1  0  0  0  0
 22 11  1  0  0  0  0
 24  2  1  0  0  0  0
 25 26  1  0  0  0  0
 25 28  1  1  0  0  0
 26 24  1  6  0  0  0
 27 25  1  0  0  0  0
 27 26  1  0  0  0  0
 29 28  1  0  0  0  0
 30 29  1  0  0  0  0
 31 30  1  0  0  0  0
 31 32  1  0  0  0  0
 33 35  1  0  0  0  0
 34 36  2  0  0  0  0
 35 36  1  0  0  0  0
 36 37  1  0  0  0  0
 37 38  1  0  0  0  0
 38 40  1  0  0  0  0
 39 38  2  0  0  0  0
 40 41  1  0  0  0  0
 41 43  1  0  0  0  0
 41 44  1  1  0  0  0
 42 43  2  0  0  0  0
 45 44  1  0  0  0  0
 45 46  1  0  0  0  0
M  END
>  <MODEL>
9

>  <REMARK>
 VINA RESULT:      -5.3      3.986      9.656
  Name = 
  15 active torsions:
  status: ('A' for Active; 'I' for Inactive)
    1  A    between atoms: C_1  and  C_10
    2  A    between atoms: C_1  and  N_34
    3  A    between atoms: C_1  and  S_36
    4  A    between atoms: C_2  and  O_37
    5  A    between atoms: O_3  and  C_10
    6  A    between atoms: C_8  and  C_16
    7  A    between atoms: C_8  and  C_19
    8  A    between atoms: C_9  and  C_11
    9  A    between atoms: C_11  and  C_21
   10  A    between atoms: C_13  and  C_15
   11  A    between atoms: C_13  and  C_45
   12  A    between atoms: C_21  and  O_37
   13  A    between atoms: N_24  and  N_25
   14  A    between atoms: N_25  and  C_35
   15  A    between atoms: C_26  and  C_38
                            x       y       z     vdW  Elec       q    Type
                         _______ _______ _______ _____ _____    ______ ____

>  <TORSDO>
F 15

$$$$
