=
 OpenBabel11032419203D

 25 28  0  0  1  0  0  0  0  0999 V2000
  189.5790  177.1460  145.9040 C   0  0  0  0  0  3  0  0  0  0  0  0
  186.8560  178.2420  147.0010 C   0  0  0  0  0  0  0  0  0  0  0  0
  189.8440  177.2940  147.2740 C   0  0  0  0  0  0  0  0  0  0  0  0
  185.5390  178.6800  147.0120 C   0  0  0  0  0  3  0  0  0  0  0  0
  184.5900  178.3200  142.9870 C   0  0  0  0  0  0  0  0  0  0  0  0
  187.6330  178.1780  148.1410 C   0  0  0  0  0  3  0  0  0  0  0  0
  185.1000  178.6050  145.7050 C   0  0  0  0  0  0  0  0  0  0  0  0
  188.9520  177.7560  148.2430 C   0  0  0  0  0  3  0  0  0  0  0  0
  188.4320  177.4030  145.1680 C   0  0  0  0  0  3  0  0  0  0  0  0
  185.8630  177.9790  143.4880 C   0  0  0  0  0  0  0  0  0  0  0  0
  183.5870  178.7960  143.8530 C   0  0  0  0  0  3  0  0  0  0  0  0
  187.2230  177.8900  145.6340 C   0  0  0  0  0  0  0  0  0  0  0  0
  186.0940  178.1350  144.8680 C   0  0  0  0  0  0  0  0  0  0  0  0
  183.8370  178.9420  145.2250 C   0  0  0  0  0  3  0  0  0  0  0  0
  184.3070  178.1920  141.6310 O   0  0  0  0  0  1  0  0  0  0  0  0
  191.9830  176.0430  147.0860 C   0  0  0  0  0  1  0  0  0  0  0  0
  191.1150  176.9520  147.7510 O   0  0  0  0  0  0  0  0  0  0  0  0
  186.9320  177.4980  142.5570 C   0  0  0  0  0  2  0  0  0  0  0  0
  187.3050  178.6070  141.5690 C   0  0  0  0  0  2  0  0  0  0  0  0
  188.8550  177.7390  139.9500 C   0  0  2  0  0  3  0  0  0  0  0  0
  190.0490  176.8380  140.1570 C   0  0  0  0  0  2  0  0  0  0  0  0
  190.1580  176.7050  141.6510 C   0  0  0  0  0  2  0  0  0  0  0  0
  189.0780  178.6170  138.7350 C   0  0  0  0  0  1  0  0  0  0  0  0
  188.7110  178.5660  141.1460 N   0  0  0  0  0  0  0  0  0  0  0  0
  189.5300  177.9680  142.1990 C   0  0  0  0  0  2  0  0  0  0  0  0
  1  3  1  0  0  0  0
  2  4  1  0  0  0  0
  2  6  2  0  0  0  0
  3 17  1  0  0  0  0
  3  8  2  0  0  0  0
  5 10  2  0  0  0  0
  5 11  1  0  0  0  0
  6  8  1  0  0  0  0
  7  4  2  0  0  0  0
  9 12  1  0  0  0  0
  9  1  2  0  0  0  0
 10 13  1  0  0  0  0
 11 14  2  0  0  0  0
 12  2  1  0  0  0  0
 13 12  2  0  0  0  0
 13  7  1  0  0  0  0
 14  7  1  0  0  0  0
 15  5  1  0  0  0  0
 16 17  1  0  0  0  0
 18 10  1  0  0  0  0
 19 18  1  0  0  0  0
 20 23  1  6  0  0  0
 20 21  1  0  0  0  0
 20 24  1  0  0  0  0
 21 22  1  0  0  0  0
 22 25  1  0  0  0  0
 24 19  1  0  0  0  0
 24 25  1  0  0  0  0
M  END
>  <MODEL>
1

>  <REMARK>
 VINA RESULT:     -10.9      0.000      0.000
  Name = 
  4 active torsions:
  status: ('A' for Active; 'I' for Inactive)
    1  A    between atoms: C_6  and  C_16
    2  A    between atoms: C_6  and  C_25
    3  A    between atoms: C_7  and  O_15
    4  A    between atoms: N_22  and  C_25
                            x       y       z     vdW  Elec       q    Type
                         _______ _______ _______ _____ _____    ______ ____

>  <TORSDO>
F 4

$$$$
=
 OpenBabel11032419203D

 25 28  0  0  1  0  0  0  0  0999 V2000
  185.0840  178.2970  142.6390 C   0  0  0  0  0  3  0  0  0  0  0  0
  185.0390  178.5410  145.7630 C   0  0  0  0  0  0  0  0  0  0  0  0
  183.7650  178.7010  142.8890 C   0  0  0  0  0  0  0  0  0  0  0  0
  185.4840  178.5110  147.0770 C   0  0  0  0  0  3  0  0  0  0  0  0
  189.4170  177.3050  146.5160 C   0  0  0  0  0  0  0  0  0  0  0  0
  183.7490  178.8940  145.4170 C   0  0  0  0  0  3  0  0  0  0  0  0
  186.8060  178.1180  147.0240 C   0  0  0  0  0  0  0  0  0  0  0  0
  183.2030  178.9590  144.1410 C   0  0  0  0  0  3  0  0  0  0  0  0
  186.1400  178.0520  143.5050 C   0  0  0  0  0  3  0  0  0  0  0  0
  188.5290  177.4880  145.4350 C   0  0  0  0  0  0  0  0  0  0  0  0
  188.9870  177.5350  147.8360 C   0  0  0  0  0  3  0  0  0  0  0  0
  186.1370  178.1510  144.8860 C   0  0  0  0  0  0  0  0  0  0  0  0
  187.2130  177.8970  145.7220 C   0  0  0  0  0  0  0  0  0  0  0  0
  187.6720  177.9460  148.1010 C   0  0  0  0  0  3  0  0  0  0  0  0
  190.7270  176.8970  146.2930 O   0  0  0  0  0  1  0  0  0  0  0  0
  181.4820  178.8660  141.9210 C   0  0  0  0  0  1  0  0  0  0  0  0
  182.8990  178.8730  141.8030 O   0  0  0  0  0  0  0  0  0  0  0  0
  188.9850  177.2170  144.0360 C   0  0  0  0  0  2  0  0  0  0  0  0
  189.9540  178.3110  143.5780 C   0  0  0  0  0  2  0  0  0  0  0  0
  189.0890  177.6390  141.4380 C   0  0  2  0  0  3  0  0  0  0  0  0
  189.7000  176.7240  140.4050 C   0  0  0  0  0  2  0  0  0  0  0  0
  191.0720  176.4210  140.9440 C   0  0  0  0  0  2  0  0  0  0  0  0
  188.1880  178.6510  140.7600 C   0  0  0  0  0  1  0  0  0  0  0  0
  190.1810  178.3240  142.1280 N   0  0  0  0  0  0  0  0  0  0  0  0
  191.4180  177.6110  141.8120 C   0  0  0  0  0  2  0  0  0  0  0  0
  1  3  2  0  0  0  0
  1  9  1  0  0  0  0
  2  4  2  0  0  0  0
  3  8  1  0  0  0  0
  5 11  1  0  0  0  0
  6  2  1  0  0  0  0
  7  4  1  0  0  0  0
  7 14  1  0  0  0  0
  8  6  2  0  0  0  0
  9 12  2  0  0  0  0
 10 13  1  0  0  0  0
 10  5  2  0  0  0  0
 11 14  2  0  0  0  0
 12 13  1  0  0  0  0
 12  2  1  0  0  0  0
 13  7  2  0  0  0  0
 15  5  1  0  0  0  0
 17 16  1  0  0  0  0
 17  3  1  0  0  0  0
 18 10  1  0  0  0  0
 19 18  1  0  0  0  0
 20 23  1  6  0  0  0
 20 24  1  0  0  0  0
 21 22  1  0  0  0  0
 21 20  1  0  0  0  0
 22 25  1  0  0  0  0
 24 19  1  0  0  0  0
 25 24  1  0  0  0  0
M  END
>  <MODEL>
2

>  <REMARK>
 VINA RESULT:     -10.1      1.121      5.118
  Name = 
  4 active torsions:
  status: ('A' for Active; 'I' for Inactive)
    1  A    between atoms: C_6  and  C_16
    2  A    between atoms: C_6  and  C_25
    3  A    between atoms: C_7  and  O_15
    4  A    between atoms: N_22  and  C_25
                            x       y       z     vdW  Elec       q    Type
                         _______ _______ _______ _____ _____    ______ ____

>  <TORSDO>
F 4

$$$$
=
 OpenBabel11032419203D

 25 28  0  0  1  0  0  0  0  0999 V2000
  184.8920  178.5110  142.3550 C   0  0  0  0  0  3  0  0  0  0  0  0
  184.6420  178.5440  145.4790 C   0  0  0  0  0  0  0  0  0  0  0  0
  183.5240  178.7560  142.5450 C   0  0  0  0  0  0  0  0  0  0  0  0
  185.0120  178.4750  146.8150 C   0  0  0  0  0  3  0  0  0  0  0  0
  189.0780  177.7300  146.4360 C   0  0  0  0  0  0  0  0  0  0  0  0
  183.3430  178.7800  145.0730 C   0  0  0  0  0  3  0  0  0  0  0  0
  186.3700  178.2270  146.8230 C   0  0  0  0  0  0  0  0  0  0  0  0
  182.8670  178.8710  143.7710 C   0  0  0  0  0  3  0  0  0  0  0  0
  185.9170  178.3220  143.2710 C   0  0  0  0  0  3  0  0  0  0  0  0
  188.2390  177.8890  145.3120 C   0  0  0  0  0  0  0  0  0  0  0  0
  188.5520  177.8260  147.7370 C   0  0  0  0  0  3  0  0  0  0  0  0
  185.8240  178.3300  144.6520 C   0  0  0  0  0  0  0  0  0  0  0  0
  186.8720  178.1370  145.5390 C   0  0  0  0  0  0  0  0  0  0  0  0
  187.1870  178.0780  147.9410 C   0  0  0  0  0  3  0  0  0  0  0  0
  190.4360  177.4770  146.2720 O   0  0  0  0  0  1  0  0  0  0  0  0
  183.2000  178.8760  140.0840 C   0  0  0  0  0  1  0  0  0  0  0  0
  182.7080  178.9070  141.4170 O   0  0  0  0  0  0  0  0  0  0  0  0
  188.8010  177.7590  143.9320 C   0  0  0  0  0  2  0  0  0  0  0  0
  188.7810  176.2930  143.4920 C   0  0  0  0  0  2  0  0  0  0  0  0
  191.1730  176.4510  143.3130 C   0  0  2  0  0  3  0  0  0  0  0  0
  192.0120  177.0350  142.2010 C   0  0  0  0  0  2  0  0  0  0  0  0
  191.0160  177.3800  141.1280 C   0  0  0  0  0  2  0  0  0  0  0  0
  191.9470  175.3580  144.0210 C   0  0  0  0  0  1  0  0  0  0  0  0
  189.9610  175.8980  142.7120 N   0  0  0  0  0  0  0  0  0  0  0  0
  189.8600  176.4300  141.3540 C   0  0  0  0  0  2  0  0  0  0  0  0
  1  3  2  0  0  0  0
  1  9  1  0  0  0  0
  2  4  2  0  0  0  0
  3  8  1  0  0  0  0
  4  7  1  0  0  0  0
  5 11  1  0  0  0  0
  6  2  1  0  0  0  0
  7 14  1  0  0  0  0
  8  6  2  0  0  0  0
  9 12  2  0  0  0  0
 10 13  1  0  0  0  0
 10  5  2  0  0  0  0
 11 14  2  0  0  0  0
 12  2  1  0  0  0  0
 12 13  1  0  0  0  0
 13  7  2  0  0  0  0
 15  5  1  0  0  0  0
 16 17  1  0  0  0  0
 17  3  1  0  0  0  0
 18 10  1  0  0  0  0
 19 18  1  0  0  0  0
 20 23  1  6  0  0  0
 21 20  1  0  0  0  0
 22 25  1  0  0  0  0
 22 21  1  0  0  0  0
 24 20  1  0  0  0  0
 24 19  1  0  0  0  0
 25 24  1  0  0  0  0
M  END
>  <MODEL>
3

>  <REMARK>
 VINA RESULT:     -10.1      1.562      5.398
  Name = 
  4 active torsions:
  status: ('A' for Active; 'I' for Inactive)
    1  A    between atoms: C_6  and  C_16
    2  A    between atoms: C_6  and  C_25
    3  A    between atoms: C_7  and  O_15
    4  A    between atoms: N_22  and  C_25
                            x       y       z     vdW  Elec       q    Type
                         _______ _______ _______ _____ _____    ______ ____

>  <TORSDO>
F 4

$$$$
=
 OpenBabel11032419203D

 25 28  0  0  1  0  0  0  0  0999 V2000
  185.3660  178.1770  143.1100 C   0  0  0  0  0  3  0  0  0  0  0  0
  186.1640  178.1870  146.1400 C   0  0  0  0  0  0  0  0  0  0  0  0
  184.1800  178.5950  143.7310 C   0  0  0  0  0  0  0  0  0  0  0  0
  186.9400  178.0470  147.2820 C   0  0  0  0  0  3  0  0  0  0  0  0
  190.5240  176.7830  145.6090 C   0  0  0  0  0  0  0  0  0  0  0  0
  184.8460  178.5990  146.1770 C   0  0  0  0  0  3  0  0  0  0  0  0
  188.1820  177.6240  146.8510 C   0  0  0  0  0  0  0  0  0  0  0  0
  183.9840  178.7740  145.1020 C   0  0  0  0  0  3  0  0  0  0  0  0
  186.6020  177.8390  143.6430 C   0  0  0  0  0  3  0  0  0  0  0  0
  189.3900  177.0700  144.8200 C   0  0  0  0  0  0  0  0  0  0  0  0
  190.4720  176.9250  147.0080 C   0  0  0  0  0  3  0  0  0  0  0  0
  186.9710  177.8350  144.9770 C   0  0  0  0  0  0  0  0  0  0  0  0
  188.2170  177.4910  145.4760 C   0  0  0  0  0  0  0  0  0  0  0  0
  189.2950  177.3490  147.6420 C   0  0  0  0  0  3  0  0  0  0  0  0
  191.7070  176.3580  145.0160 O   0  0  0  0  0  1  0  0  0  0  0  0
  183.0260  178.6250  141.5310 C   0  0  0  0  0  1  0  0  0  0  0  0
  183.0660  178.8710  142.9300 O   0  0  0  0  0  0  0  0  0  0  0  0
  189.4450  176.8920  143.3350 C   0  0  0  0  0  2  0  0  0  0  0  0
  190.3600  177.9510  142.7130 C   0  0  0  0  0  2  0  0  0  0  0  0
  188.9510  177.4450  140.8330 C   0  0  2  0  0  3  0  0  0  0  0  0
  189.2620  176.6410  139.5940 C   0  0  0  0  0  2  0  0  0  0  0  0
  190.7290  176.3290  139.7130 C   0  0  0  0  0  2  0  0  0  0  0  0
  187.8970  178.4870  140.5170 C   0  0  0  0  0  1  0  0  0  0  0  0
  190.1870  178.0960  141.2620 N   0  0  0  0  0  0  0  0  0  0  0  0
  191.2940  177.4480  140.5620 C   0  0  0  0  0  2  0  0  0  0  0  0
  1  9  2  0  0  0  0
  1  3  1  0  0  0  0
  2  6  2  0  0  0  0
  2  4  1  0  0  0  0
  3  8  2  0  0  0  0
  5 11  1  0  0  0  0
  7  4  2  0  0  0  0
  7 14  1  0  0  0  0
  8  6  1  0  0  0  0
  9 12  1  0  0  0  0
 10 13  1  0  0  0  0
 10  5  2  0  0  0  0
 11 14  2  0  0  0  0
 12 13  2  0  0  0  0
 12  2  1  0  0  0  0
 13  7  1  0  0  0  0
 15  5  1  0  0  0  0
 16 17  1  0  0  0  0
 17  3  1  0  0  0  0
 18 10  1  0  0  0  0
 19 18  1  0  0  0  0
 20 23  1  6  0  0  0
 20 24  1  0  0  0  0
 21 22  1  0  0  0  0
 21 20  1  0  0  0  0
 22 25  1  0  0  0  0
 24 19  1  0  0  0  0
 25 24  1  0  0  0  0
M  END
>  <MODEL>
4

>  <REMARK>
 VINA RESULT:      -9.9      1.238      4.990
  Name = 
  4 active torsions:
  status: ('A' for Active; 'I' for Inactive)
    1  A    between atoms: C_6  and  C_16
    2  A    between atoms: C_6  and  C_25
    3  A    between atoms: C_7  and  O_15
    4  A    between atoms: N_22  and  C_25
                            x       y       z     vdW  Elec       q    Type
                         _______ _______ _______ _____ _____    ______ ____

>  <TORSDO>
F 4

$$$$
=
 OpenBabel11032419203D

 25 28  0  0  1  0  0  0  0  0999 V2000
  188.8630  176.9400  142.0400 C   0  0  0  0  0  3  0  0  0  0  0  0
  190.3100  177.1220  144.8140 C   0  0  0  0  0  0  0  0  0  0  0  0
  190.1930  176.6480  141.7050 C   0  0  0  0  0  0  0  0  0  0  0  0
  190.4920  177.3040  146.1780 C   0  0  0  0  0  3  0  0  0  0  0  0
  186.6100  178.2020  147.3430 C   0  0  0  0  0  0  0  0  0  0  0  0
  191.3450  176.7980  143.9580 C   0  0  0  0  0  3  0  0  0  0  0  0
  189.2480  177.6120  146.6910 C   0  0  0  0  0  0  0  0  0  0  0  0
  191.2740  176.5920  142.5860 C   0  0  0  0  0  3  0  0  0  0  0  0
  188.2780  177.2410  143.2630 C   0  0  0  0  0  3  0  0  0  0  0  0
  186.9420  177.9250  146.0000 C   0  0  0  0  0  0  0  0  0  0  0  0
  187.6000  178.1760  148.3420 C   0  0  0  0  0  3  0  0  0  0  0  0
  188.9020  177.3290  144.4950 C   0  0  0  0  0  0  0  0  0  0  0  0
  188.2860  177.6320  145.6990 C   0  0  0  0  0  0  0  0  0  0  0  0
  188.9330  177.8790  148.0210 C   0  0  0  0  0  3  0  0  0  0  0  0
  185.2990  178.5040  147.6980 O   0  0  0  0  0  1  0  0  0  0  0  0
  190.1810  177.2580  139.2960 C   0  0  0  0  0  1  0  0  0  0  0  0
  190.5030  176.3790  140.3660 O   0  0  0  0  0  0  0  0  0  0  0  0
  185.8880  177.9800  144.9400 C   0  0  0  0  0  2  0  0  0  0  0  0
  185.3080  179.3940  144.8490 C   0  0  0  0  0  2  0  0  0  0  0  0
  183.6760  178.5650  143.2900 C   0  0  2  0  0  3  0  0  0  0  0  0
  183.8410  178.2120  141.8320 C   0  0  0  0  0  2  0  0  0  0  0  0
  185.2480  178.6320  141.5050 C   0  0  0  0  0  2  0  0  0  0  0  0
  182.2500  179.0040  143.5540 C   0  0  0  0  0  1  0  0  0  0  0  0
  184.6000  179.6580  143.5890 N   0  0  0  0  0  0  0  0  0  0  0  0
  185.5580  179.7400  142.4880 C   0  0  0  0  0  2  0  0  0  0  0  0
  1  9  1  0  0  0  0
  2  4  2  0  0  0  0
  3  1  2  0  0  0  0
  3  8  1  0  0  0  0
  4  7  1  0  0  0  0
  5 15  1  0  0  0  0
  5 11  1  0  0  0  0
  6  2  1  0  0  0  0
  7 14  1  0  0  0  0
  8  6  2  0  0  0  0
  9 12  2  0  0  0  0
 10  5  2  0  0  0  0
 12  2  1  0  0  0  0
 12 13  1  0  0  0  0
 13 10  1  0  0  0  0
 13  7  2  0  0  0  0
 14 11  2  0  0  0  0
 16 17  1  0  0  0  0
 17  3  1  0  0  0  0
 18 10  1  0  0  0  0
 19 18  1  0  0  0  0
 20 23  1  6  0  0  0
 20 24  1  0  0  0  0
 21 20  1  0  0  0  0
 22 21  1  0  0  0  0
 22 25  1  0  0  0  0
 24 19  1  0  0  0  0
 25 24  1  0  0  0  0
M  END
>  <MODEL>
5

>  <REMARK>
 VINA RESULT:      -9.8      2.314      5.302
  Name = 
  4 active torsions:
  status: ('A' for Active; 'I' for Inactive)
    1  A    between atoms: C_6  and  C_16
    2  A    between atoms: C_6  and  C_25
    3  A    between atoms: C_7  and  O_15
    4  A    between atoms: N_22  and  C_25
                            x       y       z     vdW  Elec       q    Type
                         _______ _______ _______ _____ _____    ______ ____

>  <TORSDO>
F 4

$$$$
=
 OpenBabel11032419203D

 25 28  0  0  1  0  0  0  0  0999 V2000
  184.1220  178.6020  142.5470 C   0  0  0  0  0  3  0  0  0  0  0  0
  185.7330  178.2820  145.2160 C   0  0  0  0  0  0  0  0  0  0  0  0
  183.1670  178.9410  143.5170 C   0  0  0  0  0  0  0  0  0  0  0  0
  186.7920  178.0220  146.0740 C   0  0  0  0  0  3  0  0  0  0  0  0
  189.7360  176.9740  143.3400 C   0  0  0  0  0  0  0  0  0  0  0  0
  184.4870  178.6780  145.6640 C   0  0  0  0  0  3  0  0  0  0  0  0
  187.8540  177.6570  145.2700 C   0  0  0  0  0  0  0  0  0  0  0  0
  183.3650  178.9660  144.8980 C   0  0  0  0  0  3  0  0  0  0  0  0
  185.4490  178.2150  142.6740 C   0  0  0  0  0  3  0  0  0  0  0  0
  188.4350  177.3390  142.9350 C   0  0  0  0  0  0  0  0  0  0  0  0
  190.0790  176.9600  144.7040 C   0  0  0  0  0  3  0  0  0  0  0  0
  186.1740  178.0660  143.8430 C   0  0  0  0  0  0  0  0  0  0  0  0
  187.5020  177.6770  143.9340 C   0  0  0  0  0  0  0  0  0  0  0  0
  189.1360  177.3040  145.6840 C   0  0  0  0  0  3  0  0  0  0  0  0
  190.6970  176.6250  142.3970 O   0  0  0  0  0  1  0  0  0  0  0  0
  181.3440  178.9340  141.8280 C   0  0  0  0  0  1  0  0  0  0  0  0
  181.8810  179.2970  143.0940 O   0  0  0  0  0  0  0  0  0  0  0  0
  188.0700  177.3270  141.4840 C   0  0  0  0  0  2  0  0  0  0  0  0
  188.4930  178.6430  140.8250 C   0  0  0  0  0  2  0  0  0  0  0  0
  187.4240  177.6210  138.9300 C   0  0  2  0  0  3  0  0  0  0  0  0
  188.0370  176.8430  137.7910 C   0  0  0  0  0  2  0  0  0  0  0  0
  189.5200  176.9630  138.0170 C   0  0  0  0  0  2  0  0  0  0  0  0
  186.1530  178.3010  138.4620 C   0  0  0  0  0  1  0  0  0  0  0  0
  188.3980  178.6220  139.3600 N   0  0  0  0  0  0  0  0  0  0  0  0
  189.6910  178.2560  138.7830 C   0  0  0  0  0  2  0  0  0  0  0  0
  1  9  2  0  0  0  0
  1  3  1  0  0  0  0
  2  6  2  0  0  0  0
  2  4  1  0  0  0  0
  3  8  2  0  0  0  0
  5 11  1  0  0  0  0
  7 14  1  0  0  0  0
  7  4  2  0  0  0  0
  8  6  1  0  0  0  0
  9 12  1  0  0  0  0
 10  5  2  0  0  0  0
 10 13  1  0  0  0  0
 11 14  2  0  0  0  0
 12 13  2  0  0  0  0
 12  2  1  0  0  0  0
 13  7  1  0  0  0  0
 15  5  1  0  0  0  0
 16 17  1  0  0  0  0
 17  3  1  0  0  0  0
 18 10  1  0  0  0  0
 19 18  1  0  0  0  0
 20 23  1  6  0  0  0
 20 24  1  0  0  0  0
 21 22  1  0  0  0  0
 21 20  1  0  0  0  0
 22 25  1  0  0  0  0
 24 19  1  0  0  0  0
 25 24  1  0  0  0  0
M  END
>  <MODEL>
6

>  <REMARK>
 VINA RESULT:      -9.6      1.887      5.204
  Name = 
  4 active torsions:
  status: ('A' for Active; 'I' for Inactive)
    1  A    between atoms: C_6  and  C_16
    2  A    between atoms: C_6  and  C_25
    3  A    between atoms: C_7  and  O_15
    4  A    between atoms: N_22  and  C_25
                            x       y       z     vdW  Elec       q    Type
                         _______ _______ _______ _____ _____    ______ ____

>  <TORSDO>
F 4

$$$$
=
 OpenBabel11032419203D

 25 28  0  0  1  0  0  0  0  0999 V2000
  185.4740  177.8770  143.2190 C   0  0  0  0  0  3  0  0  0  0  0  0
  186.9250  178.2530  145.9710 C   0  0  0  0  0  0  0  0  0  0  0  0
  184.4960  178.5240  143.9880 C   0  0  0  0  0  0  0  0  0  0  0  0
  187.9210  178.1970  146.9350 C   0  0  0  0  0  3  0  0  0  0  0  0
  190.9240  176.2760  144.8070 C   0  0  0  0  0  0  0  0  0  0  0  0
  185.6870  178.8190  146.2060 C   0  0  0  0  0  3  0  0  0  0  0  0
  188.9960  177.5680  146.3380 C   0  0  0  0  0  0  0  0  0  0  0  0
  184.6250  178.9300  145.3170 C   0  0  0  0  0  3  0  0  0  0  0  0
  186.7660  177.4800  143.5370 C   0  0  0  0  0  3  0  0  0  0  0  0
  189.6710  176.5730  144.2300 C   0  0  0  0  0  0  0  0  0  0  0  0
  191.1970  176.6340  146.1400 C   0  0  0  0  0  3  0  0  0  0  0  0
  187.4200  177.6350  144.7460 C   0  0  0  0  0  0  0  0  0  0  0  0
  188.7140  177.2250  145.0300 C   0  0  0  0  0  0  0  0  0  0  0  0
  190.2300  177.2870  146.9190 C   0  0  0  0  0  3  0  0  0  0  0  0
  191.9070  175.6280  144.0660 O   0  0  0  0  0  1  0  0  0  0  0  0
  182.0300  178.8050  144.1150 C   0  0  0  0  0  1  0  0  0  0  0  0
  183.2580  178.8050  143.3980 O   0  0  0  0  0  0  0  0  0  0  0  0
  189.3790  176.1660  142.8200 C   0  0  0  0  0  2  0  0  0  0  0  0
  189.8580  177.2510  141.8510 C   0  0  0  0  0  2  0  0  0  0  0  0
  190.5270  177.5070  139.5570 C   0  0  2  0  0  3  0  0  0  0  0  0
  189.8340  178.2440  138.4360 C   0  0  0  0  0  2  0  0  0  0  0  0
  188.5250  178.6810  139.0330 C   0  0  0  0  0  2  0  0  0  0  0  0
  191.3450  176.3630  138.9910 C   0  0  0  0  0  1  0  0  0  0  0  0
  189.4950  176.9900  140.4530 N   0  0  0  0  0  0  0  0  0  0  0  0
  188.2440  177.6740  140.1280 C   0  0  0  0  0  2  0  0  0  0  0  0
  1  9  2  0  0  0  0
  1  3  1  0  0  0  0
  2  6  2  0  0  0  0
  2  4  1  0  0  0  0
  3  8  2  0  0  0  0
  5 11  1  0  0  0  0
  7 14  1  0  0  0  0
  7  4  2  0  0  0  0
  8  6  1  0  0  0  0
  9 12  1  0  0  0  0
 10  5  2  0  0  0  0
 10 13  1  0  0  0  0
 11 14  2  0  0  0  0
 12 13  2  0  0  0  0
 12  2  1  0  0  0  0
 13  7  1  0  0  0  0
 15  5  1  0  0  0  0
 17  3  1  0  0  0  0
 17 16  1  0  0  0  0
 18 10  1  0  0  0  0
 19 18  1  0  0  0  0
 20 23  1  6  0  0  0
 20 24  1  0  0  0  0
 21 22  1  0  0  0  0
 21 20  1  0  0  0  0
 22 25  1  0  0  0  0
 24 19  1  0  0  0  0
 25 24  1  0  0  0  0
M  END
>  <MODEL>
7

>  <REMARK>
 VINA RESULT:      -9.6      1.424      5.084
  Name = 
  4 active torsions:
  status: ('A' for Active; 'I' for Inactive)
    1  A    between atoms: C_6  and  C_16
    2  A    between atoms: C_6  and  C_25
    3  A    between atoms: C_7  and  O_15
    4  A    between atoms: N_22  and  C_25
                            x       y       z     vdW  Elec       q    Type
                         _______ _______ _______ _____ _____    ______ ____

>  <TORSDO>
F 4

$$$$
=
 OpenBabel11032419203D

 25 28  0  0  1  0  0  0  0  0999 V2000
  187.9400  177.8650  140.7510 C   0  0  0  0  0  3  0  0  0  0  0  0
  185.3190  178.7520  142.2220 C   0  0  0  0  0  0  0  0  0  0  0  0
  187.1320  178.2960  139.6890 C   0  0  0  0  0  0  0  0  0  0  0  0
  184.4270  179.0010  143.2550 C   0  0  0  0  0  3  0  0  0  0  0  0
  186.6800  177.7520  146.5120 C   0  0  0  0  0  0  0  0  0  0  0  0
  185.0200  179.0100  140.8980 C   0  0  0  0  0  3  0  0  0  0  0  0
  185.0720  178.6210  144.4160 C   0  0  0  0  0  0  0  0  0  0  0  0
  185.8340  178.8020  139.7910 C   0  0  0  0  0  3  0  0  0  0  0  0
  187.6990  177.8170  142.1170 C   0  0  0  0  0  3  0  0  0  0  0  0
  187.1770  177.6950  145.1930 C   0  0  0  0  0  0  0  0  0  0  0  0
  185.3870  178.2460  146.7650 C   0  0  0  0  0  3  0  0  0  0  0  0
  186.5480  178.2010  142.7820 C   0  0  0  0  0  0  0  0  0  0  0  0
  186.3400  178.1400  144.1510 C   0  0  0  0  0  0  0  0  0  0  0  0
  184.5700  178.6860  145.7130 C   0  0  0  0  0  3  0  0  0  0  0  0
  187.4600  177.3210  147.5790 O   0  0  0  0  0  1  0  0  0  0  0  0
  188.9560  178.6470  138.0390 C   0  0  0  0  0  1  0  0  0  0  0  0
  187.6420  178.2290  138.3880 O   0  0  0  0  0  0  0  0  0  0  0  0
  188.5430  177.1450  144.9290 C   0  0  0  0  0  2  0  0  0  0  0  0
  189.5970  178.2380  145.1270 C   0  0  0  0  0  2  0  0  0  0  0  0
  190.9500  176.8740  143.6820 C   0  0  2  0  0  3  0  0  0  0  0  0
  191.8470  175.7110  144.0290 C   0  0  0  0  0  2  0  0  0  0  0  0
  191.8310  175.6670  145.5330 C   0  0  0  0  0  2  0  0  0  0  0  0
  191.4680  177.5680  142.4380 C   0  0  0  0  0  1  0  0  0  0  0  0
  190.9630  177.7990  144.8140 N   0  0  0  0  0  0  0  0  0  0  0  0
  191.5320  177.0890  145.9580 C   0  0  0  0  0  2  0  0  0  0  0  0
  1  9  1  0  0  0  0
  2 12  1  0  0  0  0
  2  4  2  0  0  0  0
  3  8  1  0  0  0  0
  3  1  2  0  0  0  0
  4  7  1  0  0  0  0
  5 11  1  0  0  0  0
  5 15  1  0  0  0  0
  6  2  1  0  0  0  0
  7 14  1  0  0  0  0
  8  6  2  0  0  0  0
  9 12  2  0  0  0  0
 10  5  2  0  0  0  0
 12 13  1  0  0  0  0
 13  7  2  0  0  0  0
 13 10  1  0  0  0  0
 14 11  2  0  0  0  0
 16 17  1  0  0  0  0
 17  3  1  0  0  0  0
 18 19  1  0  0  0  0
 18 10  1  0  0  0  0
 20 23  1  6  0  0  0
 20 21  1  0  0  0  0
 20 24  1  0  0  0  0
 21 22  1  0  0  0  0
 22 25  1  0  0  0  0
 24 19  1  0  0  0  0
 24 25  1  0  0  0  0
M  END
>  <MODEL>
8

>  <REMARK>
 VINA RESULT:      -9.5      2.012      5.374
  Name = 
  4 active torsions:
  status: ('A' for Active; 'I' for Inactive)
    1  A    between atoms: C_6  and  C_16
    2  A    between atoms: C_6  and  C_25
    3  A    between atoms: C_7  and  O_15
    4  A    between atoms: N_22  and  C_25
                            x       y       z     vdW  Elec       q    Type
                         _______ _______ _______ _____ _____    ______ ____

>  <TORSDO>
F 4

$$$$
=
 OpenBabel11032419203D

 25 28  0  0  1  0  0  0  0  0999 V2000
  184.2670  178.1270  142.2120 C   0  0  0  0  0  3  0  0  0  0  0  0
  185.2090  178.6580  145.1530 C   0  0  0  0  0  0  0  0  0  0  0  0
  183.1390  178.7330  142.7840 C   0  0  0  0  0  0  0  0  0  0  0  0
  186.0290  178.6860  146.2720 C   0  0  0  0  0  3  0  0  0  0  0  0
  189.4500  176.8970  144.7450 C   0  0  0  0  0  0  0  0  0  0  0  0
  183.9190  179.1550  145.1580 C   0  0  0  0  0  3  0  0  0  0  0  0
  187.2220  178.1090  145.8860 C   0  0  0  0  0  0  0  0  0  0  0  0
  183.0190  179.1790  144.1010 C   0  0  0  0  0  3  0  0  0  0  0  0
  185.5060  177.8160  142.7550 C   0  0  0  0  0  3  0  0  0  0  0  0
  188.2980  177.1030  143.9570 C   0  0  0  0  0  0  0  0  0  0  0  0
  189.4730  177.3040  146.0920 C   0  0  0  0  0  3  0  0  0  0  0  0
  185.9370  178.0400  144.0510 C   0  0  0  0  0  0  0  0  0  0  0  0
  187.1840  177.7160  144.5620 C   0  0  0  0  0  0  0  0  0  0  0  0
  188.3540  177.9160  146.6740 C   0  0  0  0  0  3  0  0  0  0  0  0
  190.5770  176.2910  144.2020 O   0  0  0  0  0  1  0  0  0  0  0  0
  181.8730  178.3970  140.6710 C   0  0  0  0  0  1  0  0  0  0  0  0
  182.0050  178.9240  141.9850 O   0  0  0  0  0  0  0  0  0  0  0  0
  188.2720  176.6440  142.5330 C   0  0  0  0  0  2  0  0  0  0  0  0
  188.9950  177.6570  141.6410 C   0  0  0  0  0  2  0  0  0  0  0  0
  190.2690  177.6290  139.6030 C   0  0  2  0  0  3  0  0  0  0  0  0
  189.9860  178.3160  138.2890 C   0  0  0  0  0  2  0  0  0  0  0  0
  188.6240  178.9280  138.4770 C   0  0  0  0  0  2  0  0  0  0  0  0
  191.0690  176.3650  139.3590 C   0  0  0  0  0  1  0  0  0  0  0  0
  188.9850  177.2980  140.2180 N   0  0  0  0  0  0  0  0  0  0  0  0
  187.9520  178.0610  139.5200 C   0  0  0  0  0  2  0  0  0  0  0  0
  1  9  2  0  0  0  0
  1  3  1  0  0  0  0
  2  6  2  0  0  0  0
  2  4  1  0  0  0  0
  3  8  2  0  0  0  0
  5 11  1  0  0  0  0
  7  4  2  0  0  0  0
  7 14  1  0  0  0  0
  8  6  1  0  0  0  0
  9 12  1  0  0  0  0
 10 13  1  0  0  0  0
 10  5  2  0  0  0  0
 11 14  2  0  0  0  0
 12 13  2  0  0  0  0
 12  2  1  0  0  0  0
 13  7  1  0  0  0  0
 15  5  1  0  0  0  0
 16 17  1  0  0  0  0
 17  3  1  0  0  0  0
 18 10  1  0  0  0  0
 19 18  1  0  0  0  0
 20 23  1  6  0  0  0
 20 24  1  0  0  0  0
 21 22  1  0  0  0  0
 21 20  1  0  0  0  0
 22 25  1  0  0  0  0
 24 19  1  0  0  0  0
 25 24  1  0  0  0  0
M  END
>  <MODEL>
9

>  <REMARK>
 VINA RESULT:      -9.3      1.493      5.265
  Name = 
  4 active torsions:
  status: ('A' for Active; 'I' for Inactive)
    1  A    between atoms: C_6  and  C_16
    2  A    between atoms: C_6  and  C_25
    3  A    between atoms: C_7  and  O_15
    4  A    between atoms: N_22  and  C_25
                            x       y       z     vdW  Elec       q    Type
                         _______ _______ _______ _____ _____    ______ ____

>  <TORSDO>
F 4

$$$$
