=
 OpenBabel11032421293D

 34 38  0  0  1  0  0  0  0  0999 V2000
  183.4320  175.0060  136.4460 C   0  0  0  0  0  2  0  0  0  0  0  0
  185.0490  179.0300  143.2990 C   0  0  1  0  0  3  0  0  0  0  0  0
  186.9160  177.5020  143.7350 C   0  0  0  0  0  0  0  0  0  0  0  0
  187.6160  177.7910  136.3810 C   0  0  0  0  0  2  0  0  0  0  0  0
  184.3900  179.2170  139.5060 C   0  0  0  0  0  2  0  0  0  0  0  0
  185.0710  175.6330  134.6360 C   0  0  0  0  0  2  0  0  0  0  0  0
  188.1610  177.3530  143.3590 C   0  0  0  0  0  3  0  0  0  0  0  0
  188.8480  177.8380  137.2530 C   0  0  0  0  0  2  0  0  0  0  0  0
  182.7350  178.6120  143.9220 O   0  0  0  0  0  0  0  0  0  0  0  0
  187.3590  176.1810  138.2120 C   0  0  0  0  0  2  0  0  0  0  0  0
  189.6250  176.5000  139.2040 C   0  0  0  0  0  2  0  0  0  0  0  0
  189.9980  177.3120  141.6050 C   0  0  1  0  0  3  0  0  0  0  0  0
  185.5040  179.3080  141.8810 C   0  0  0  0  0  0  0  0  0  0  0  0
  184.8090  177.9620  137.4120 C   0  0  0  0  0  2  0  0  0  0  0  0
  190.3600  177.4830  140.1140 C   0  0  1  0  0  3  0  0  0  0  0  0
  188.0050  178.8480  141.3320 C   0  0  0  0  0  3  0  0  0  0  0  0
  184.8910  177.9060  138.9310 C   0  0  0  0  0  2  0  0  0  0  0  0
  184.6080  175.4550  137.3070 C   0  0  0  0  0  2  0  0  0  0  0  0
  188.5000  177.5280  141.8900 C   0  0  2  0  0  3  0  0  0  0  0  0
  183.8920  174.7340  135.0150 C   0  0  0  0  0  2  0  0  0  0  0  0
  183.5980  178.8170  143.0280 C   0  0  0  0  0  0  0  0  0  0  0  0
  186.7490  179.1590  141.5070 C   0  0  0  0  0  0  0  0  0  0  0  0
  183.2670  178.8730  141.6440 N   0  0  0  0  0  0  0  0  0  0  0  0
  184.9860  176.8670  135.3160 O   0  0  0  0  0  0  0  0  0  0  0  0
  188.4370  177.1860  138.5570 C   0  0  1  0  0  3  0  0  0  0  0  0
  186.8560  176.5480  136.8200 C   0  0  1  0  0  3  0  0  0  0  0  0
  185.6470  177.7740  143.9080 C   0  0  0  0  0  3  0  0  0  0  0  0
  184.3510  179.1430  140.9970 C   0  0  0  0  0  0  0  0  0  0  0  0
  185.3150  176.6960  136.6920 C   0  0  1  0  0  0  0  0  0  0  0  0
  190.5560  176.0170  142.2240 C   0  0  0  0  0  2  0  0  0  0  0  0
  191.4960  176.2730  143.3930 C   0  0  0  0  0  1  0  0  0  0  0  0
  191.8650  177.4130  139.8930 C   0  0  0  0  0  2  0  0  0  0  0  0
  193.1950  176.7510  138.1010 C   0  0  0  0  0  1  0  0  0  0  0  0
  192.1920  176.2840  139.0400 N   0  0  0  0  0  2  0  0  0  0  0  0
  1 18  1  0  0  0  0
  2 27  1  6  0  0  0
  3 27  2  0  0  0  0
  4  8  1  0  0  0  0
  5 28  1  0  0  0  0
  6 20  1  0  0  0  0
  6 24  1  0  0  0  0
  7  3  2  0  0  0  0
 10 25  1  0  0  0  0
 11 15  1  0  0  0  0
 12 19  1  0  0  0  0
 12 30  1  6  0  0  0
 13  2  1  0  0  0  0
 14 17  1  0  0  0  0
 15 32  1  1  0  0  0
 15 12  1  0  0  0  0
 16 22  2  0  0  0  0
 17  5  1  0  0  0  0
 19 16  1  1  0  0  0
 19  7  1  0  0  0  0
 20  1  1  0  0  0  0
 21  2  1  0  0  0  0
 21  9  2  0  0  0  0
 22 13  2  0  0  0  0
 23 21  1  0  0  0  0
 24 29  1  0  0  0  0
 25  8  1  6  0  0  0
 25 11  1  0  0  0  0
 26  4  1  1  0  0  0
 26 10  1  0  0  0  0
 28 23  2  0  0  0  0
 28 13  1  0  0  0  0
 29 26  1  0  0  0  0
 29 18  1  1  0  0  0
 29 14  1  0  0  0  0
 30 31  1  0  0  0  0
 33 34  1  0  0  0  0
 34 32  1  0  0  0  0
M  END
>  <MODEL>
1

>  <REMARK>
 VINA RESULT:      -7.5      0.000      0.000
  Name = 
  3 active torsions:
  status: ('A' for Active; 'I' for Inactive)
    1  A    between atoms: C_6  and  C_13
    2  A    between atoms: C_17  and  C_33
    3  A    between atoms: N_26  and  C_33
                            x       y       z     vdW  Elec       q    Type
                         _______ _______ _______ _____ _____    ______ ____

>  <TORSDO>
F 3

$$$$
=
 OpenBabel11032421293D

 34 38  0  0  1  0  0  0  0  0999 V2000
  183.4370  171.6930  137.1790 C   0  0  0  0  0  2  0  0  0  0  0  0
  184.9220  179.1610  139.9700 C   0  0  1  0  0  3  0  0  0  0  0  0
  187.0580  178.3760  140.8840 C   0  0  0  0  0  0  0  0  0  0  0  0
  187.0520  174.2210  134.7690 C   0  0  0  0  0  2  0  0  0  0  0  0
  183.9120  176.9600  136.9710 C   0  0  0  0  0  2  0  0  0  0  0  0
  184.7780  171.2370  135.0930 C   0  0  0  0  0  2  0  0  0  0  0  0
  188.2720  178.1380  140.4570 C   0  0  0  0  0  3  0  0  0  0  0  0
  188.3290  174.8920  135.2180 C   0  0  0  0  0  2  0  0  0  0  0  0
  182.7800  179.0070  141.1110 O   0  0  0  0  0  0  0  0  0  0  0  0
  187.2390  174.0300  137.2060 C   0  0  0  0  0  2  0  0  0  0  0  0
  189.4940  175.0780  137.4110 C   0  0  0  0  0  2  0  0  0  0  0  0
  189.9270  177.2040  138.7720 C   0  0  1  0  0  3  0  0  0  0  0  0
  185.1970  178.5640  138.6040 C   0  0  0  0  0  0  0  0  0  0  0  0
  184.3590  174.7370  135.9740 C   0  0  0  0  0  2  0  0  0  0  0  0
  190.1230  176.4700  137.4280 C   0  0  1  0  0  3  0  0  0  0  0  0
  187.6820  178.0840  138.0030 C   0  0  0  0  0  3  0  0  0  0  0  0
  184.5820  175.6180  137.1950 C   0  0  0  0  0  2  0  0  0  0  0  0
  184.5880  172.6710  137.3920 C   0  0  0  0  0  2  0  0  0  0  0  0
  188.4460  177.4180  139.1320 C   0  0  2  0  0  3  0  0  0  0  0  0
  183.8100  170.6520  136.1250 C   0  0  0  0  0  2  0  0  0  0  0  0
  183.5120  178.7040  140.1320 C   0  0  0  0  0  0  0  0  0  0  0  0
  186.4110  178.3280  138.1790 C   0  0  0  0  0  0  0  0  0  0  0  0
  183.0580  177.8830  139.0610 N   0  0  0  0  0  0  0  0  0  0  0  0
  184.5400  172.6180  134.9240 O   0  0  0  0  0  0  0  0  0  0  0  0
  188.1520  175.1280  136.7030 C   0  0  1  0  0  3  0  0  0  0  0  0
  186.5600  173.4360  135.9770 C   0  0  1  0  0  3  0  0  0  0  0  0
  185.7810  178.5870  141.0830 C   0  0  0  0  0  3  0  0  0  0  0  0
  184.0170  177.7990  138.2010 C   0  0  0  0  0  0  0  0  0  0  0  0
  185.0120  173.3430  136.0570 C   0  0  1  0  0  0  0  0  0  0  0  0
  190.7540  176.6010  139.9220 C   0  0  0  0  0  2  0  0  0  0  0  0
  191.8940  177.5030  140.3740 C   0  0  0  0  0  1  0  0  0  0  0  0
  191.5930  176.4110  137.0320 C   0  0  0  0  0  2  0  0  0  0  0  0
  193.2700  174.8980  137.5930 C   0  0  0  0  0  1  0  0  0  0  0  0
  192.0130  175.0290  136.8810 N   0  0  0  0  0  2  0  0  0  0  0  0
  1 18  1  0  0  0  0
  2 21  1  0  0  0  0
  2 27  1  1  0  0  0
  3 27  2  0  0  0  0
  4  8  1  0  0  0  0
  5 17  1  0  0  0  0
  5 28  1  0  0  0  0
  6 20  1  0  0  0  0
  7  3  2  0  0  0  0
 11 15  1  0  0  0  0
 12 19  1  0  0  0  0
 12 30  1  1  0  0  0
 13  2  1  0  0  0  0
 14 17  1  0  0  0  0
 15 32  1  1  0  0  0
 15 12  1  0  0  0  0
 16 22  2  0  0  0  0
 19 16  1  6  0  0  0
 19  7  1  0  0  0  0
 20  1  1  0  0  0  0
 21  9  2  0  0  0  0
 22 13  2  0  0  0  0
 23 21  1  0  0  0  0
 24  6  1  0  0  0  0
 24 29  1  0  0  0  0
 25  8  1  6  0  0  0
 25 10  1  0  0  0  0
 25 11  1  0  0  0  0
 26  4  1  6  0  0  0
 26 29  1  0  0  0  0
 26 10  1  0  0  0  0
 28 13  1  0  0  0  0
 28 23  2  0  0  0  0
 29 14  1  6  0  0  0
 29 18  1  0  0  0  0
 30 31  1  0  0  0  0
 34 32  1  0  0  0  0
 34 33  1  0  0  0  0
M  END
>  <MODEL>
2

>  <REMARK>
 VINA RESULT:      -7.0      2.172      3.180
  Name = 
  3 active torsions:
  status: ('A' for Active; 'I' for Inactive)
    1  A    between atoms: C_6  and  C_13
    2  A    between atoms: C_17  and  C_33
    3  A    between atoms: N_26  and  C_33
                            x       y       z     vdW  Elec       q    Type
                         _______ _______ _______ _____ _____    ______ ____

>  <TORSDO>
F 3

$$$$
=
 OpenBabel11032421293D

 34 38  0  0  1  0  0  0  0  0999 V2000
  187.8430  173.8930  135.7500 C   0  0  0  0  0  2  0  0  0  0  0  0
  183.5880  178.9150  140.4880 C   0  0  1  0  0  3  0  0  0  0  0  0
  184.5560  177.8390  142.4680 C   0  0  0  0  0  0  0  0  0  0  0  0
  190.5290  177.4110  138.1330 C   0  0  0  0  0  2  0  0  0  0  0  0
  185.9960  178.5330  137.5030 C   0  0  0  0  0  2  0  0  0  0  0  0
  190.2570  174.6140  135.6270 C   0  0  0  0  0  2  0  0  0  0  0  0
  185.6640  177.8920  143.1620 C   0  0  0  0  0  3  0  0  0  0  0  0
  190.6830  177.7960  139.5860 C   0  0  0  0  0  2  0  0  0  0  0  0
  181.6140  178.1300  139.3040 O   0  0  0  0  0  0  0  0  0  0  0  0
  189.0530  176.0030  139.4930 C   0  0  0  0  0  2  0  0  0  0  0  0
  189.7860  176.8680  141.7150 C   0  0  0  0  0  2  0  0  0  0  0  0
  188.1940  178.0070  143.3660 C   0  0  1  0  0  3  0  0  0  0  0  0
  184.9420  179.1120  139.8360 C   0  0  0  0  0  0  0  0  0  0  0  0
  187.8990  177.1520  136.7240 C   0  0  0  0  0  2  0  0  0  0  0  0
  189.5450  178.0730  142.6220 C   0  0  1  0  0  3  0  0  0  0  0  0
  187.0210  179.0860  141.4000 C   0  0  0  0  0  3  0  0  0  0  0  0
  186.8140  177.2880  137.7840 C   0  0  0  0  0  2  0  0  0  0  0  0
  187.9520  174.6590  137.0650 C   0  0  0  0  0  2  0  0  0  0  0  0
  186.9840  177.9600  142.4150 C   0  0  2  0  0  3  0  0  0  0  0  0
  189.2330  173.5530  135.2150 C   0  0  0  0  0  2  0  0  0  0  0  0
  182.8450  178.3950  139.3040 C   0  0  0  0  0  0  0  0  0  0  0  0
  186.0490  179.1650  140.5310 C   0  0  0  0  0  0  0  0  0  0  0  0
  183.6650  178.2260  138.1530 N   0  0  0  0  0  0  0  0  0  0  0  0
  189.6370  175.8780  135.7340 O   0  0  0  0  0  0  0  0  0  0  0  0
  189.4610  177.2320  140.2780 C   0  0  1  0  0  3  0  0  0  0  0  0
  189.7520  176.1030  138.1410 C   0  0  1  0  0  3  0  0  0  0  0  0
  183.5780  177.8780  141.5970 C   0  0  0  0  0  3  0  0  0  0  0  0
  184.8540  178.6260  138.4590 C   0  0  0  0  0  0  0  0  0  0  0  0
  188.8270  175.9340  136.9050 C   0  0  1  0  0  0  0  0  0  0  0  0
  188.1510  176.9250  144.4610 C   0  0  0  0  0  2  0  0  0  0  0  0
  188.0450  177.5030  145.8650 C   0  0  0  0  0  1  0  0  0  0  0  0
  190.7050  178.2710  143.5890 C   0  0  0  0  0  2  0  0  0  0  0  0
  191.6810  176.6360  144.9290 C   0  0  0  0  0  1  0  0  0  0  0  0
  191.5800  177.1120  143.5620 N   0  0  0  0  0  2  0  0  0  0  0  0
  1 18  1  0  0  0  0
  2 27  1  1  0  0  0
  3  7  2  0  0  0  0
  4  8  1  0  0  0  0
  5 17  1  0  0  0  0
  5 28  1  0  0  0  0
  6 24  1  0  0  0  0
  8 25  1  0  0  0  0
  9 21  2  0  0  0  0
 11 15  1  0  0  0  0
 12 30  1  6  0  0  0
 13  2  1  0  0  0  0
 13 22  2  0  0  0  0
 14 17  1  0  0  0  0
 15 12  1  0  0  0  0
 15 32  1  1  0  0  0
 19 16  1  1  0  0  0
 19  7  1  0  0  0  0
 19 12  1  0  0  0  0
 20  6  1  0  0  0  0
 20  1  1  0  0  0  0
 21  2  1  0  0  0  0
 22 16  2  0  0  0  0
 23 28  2  0  0  0  0
 23 21  1  0  0  0  0
 24 29  1  0  0  0  0
 25 10  1  6  0  0  0
 25 11  1  0  0  0  0
 26  4  1  6  0  0  0
 26 10  1  0  0  0  0
 27  3  2  0  0  0  0
 28 13  1  0  0  0  0
 29 14  1  6  0  0  0
 29 18  1  0  0  0  0
 29 26  1  0  0  0  0
 30 31  1  0  0  0  0
 34 32  1  0  0  0  0
 34 33  1  0  0  0  0
M  END
>  <MODEL>
3

>  <REMARK>
 VINA RESULT:      -6.6      2.286      3.550
  Name = 
  3 active torsions:
  status: ('A' for Active; 'I' for Inactive)
    1  A    between atoms: C_6  and  C_13
    2  A    between atoms: C_17  and  C_33
    3  A    between atoms: N_26  and  C_33
                            x       y       z     vdW  Elec       q    Type
                         _______ _______ _______ _____ _____    ______ ____

>  <TORSDO>
F 3

$$$$
=
 OpenBabel11032421293D

 34 38  0  0  1  0  0  0  0  0999 V2000
  179.6700  174.7560  140.5520 C   0  0  0  0  0  2  0  0  0  0  0  0
  185.3050  179.0510  144.4970 C   0  0  1  0  0  3  0  0  0  0  0  0
  187.0540  177.8780  143.2400 C   0  0  0  0  0  0  0  0  0  0  0  0
  182.0490  178.2330  137.8100 C   0  0  0  0  0  2  0  0  0  0  0  0
  182.0440  179.0910  142.4440 C   0  0  0  0  0  2  0  0  0  0  0  0
  179.3410  175.6480  138.2160 C   0  0  0  0  0  2  0  0  0  0  0  0
  187.6190  177.9480  142.0620 C   0  0  0  0  0  3  0  0  0  0  0  0
  183.5040  178.5020  137.5070 C   0  0  0  0  0  2  0  0  0  0  0  0
  184.2850  178.2370  146.5490 O   0  0  0  0  0  0  0  0  0  0  0  0
  183.4300  176.6160  139.0300 C   0  0  0  0  0  2  0  0  0  0  0  0
  185.6260  177.3360  138.0890 C   0  0  0  0  0  2  0  0  0  0  0  0
  187.5450  178.2180  139.5370 C   0  0  1  0  0  3  0  0  0  0  0  0
  184.5250  179.3950  143.2450 C   0  0  0  0  0  0  0  0  0  0  0  0
  180.9290  177.9150  140.5700 C   0  0  0  0  0  2  0  0  0  0  0  0
  186.6630  178.4390  138.2900 C   0  0  1  0  0  3  0  0  0  0  0  0
  185.8330  179.3780  140.9960 C   0  0  0  0  0  3  0  0  0  0  0  0
  182.1130  177.8860  141.5270 C   0  0  0  0  0  2  0  0  0  0  0  0
  181.0290  175.4120  140.3320 C   0  0  0  0  0  2  0  0  0  0  0  0
  186.7370  178.1690  140.8460 C   0  0  2  0  0  3  0  0  0  0  0  0
  178.9510  174.5590  139.2180 C   0  0  0  0  0  2  0  0  0  0  0  0
  184.1700  178.5850  145.3440 C   0  0  0  0  0  0  0  0  0  0  0  0
  185.0920  179.4650  142.0680 C   0  0  0  0  0  0  0  0  0  0  0  0
  182.9220  178.5710  144.6590 N   0  0  0  0  0  0  0  0  0  0  0  0
  179.6340  176.8530  138.8910 O   0  0  0  0  0  0  0  0  0  0  0  0
  184.2760  177.7980  138.6030 C   0  0  1  0  0  3  0  0  0  0  0  0
  182.0240  176.8780  138.5040 C   0  0  1  0  0  3  0  0  0  0  0  0
  186.3070  177.9250  144.3150 C   0  0  0  0  0  3  0  0  0  0  0  0
  183.1280  179.0230  143.4670 C   0  0  0  0  0  0  0  0  0  0  0  0
  180.8900  176.7520  139.5580 C   0  0  1  0  0  0  0  0  0  0  0  0
  188.5330  177.0460  139.3850 C   0  0  0  0  0  2  0  0  0  0  0  0
  189.9890  177.4880  139.4030 C   0  0  0  0  0  1  0  0  0  0  0  0
  187.5060  178.6330  137.0360 C   0  0  0  0  0  2  0  0  0  0  0  0
  188.3660  177.1630  135.4490 C   0  0  0  0  0  1  0  0  0  0  0  0
  187.1310  177.6580  136.0280 N   0  0  0  0  0  2  0  0  0  0  0  0
  2 27  1  6  0  0  0
  2 21  1  0  0  0  0
  3 27  2  0  0  0  0
  5 28  1  0  0  0  0
  6 24  1  0  0  0  0
  6 20  1  0  0  0  0
  7  3  2  0  0  0  0
  8  4  1  0  0  0  0
 11 15  1  0  0  0  0
 11 25  1  0  0  0  0
 12 30  1  6  0  0  0
 12 19  1  0  0  0  0
 13 28  1  0  0  0  0
 13  2  1  0  0  0  0
 14 17  1  0  0  0  0
 15 32  1  6  0  0  0
 15 12  1  0  0  0  0
 16 22  2  0  0  0  0
 17  5  1  0  0  0  0
 18  1  1  0  0  0  0
 19 16  1  1  0  0  0
 19  7  1  0  0  0  0
 20  1  1  0  0  0  0
 21  9  2  0  0  0  0
 22 13  2  0  0  0  0
 23 21  1  0  0  0  0
 24 29  1  0  0  0  0
 25  8  1  6  0  0  0
 25 10  1  0  0  0  0
 26  4  1  1  0  0  0
 26 10  1  0  0  0  0
 26 29  1  0  0  0  0
 28 23  2  0  0  0  0
 29 18  1  1  0  0  0
 29 14  1  0  0  0  0
 30 31  1  0  0  0  0
 33 34  1  0  0  0  0
 34 32  1  0  0  0  0
M  END
>  <MODEL>
4

>  <REMARK>
 VINA RESULT:      -6.5      2.874      4.251
  Name = 
  3 active torsions:
  status: ('A' for Active; 'I' for Inactive)
    1  A    between atoms: C_6  and  C_13
    2  A    between atoms: C_17  and  C_33
    3  A    between atoms: N_26  and  C_33
                            x       y       z     vdW  Elec       q    Type
                         _______ _______ _______ _____ _____    ______ ____

>  <TORSDO>
F 3

$$$$
=
 OpenBabel11032421293D

 34 38  0  0  1  0  0  0  0  0999 V2000
  183.4120  178.8080  142.9670 C   0  0  0  0  0  2  0  0  0  0  0  0
  187.8740  176.5240  136.5930 C   0  0  1  0  0  3  0  0  0  0  0  0
  187.0370  174.2330  136.8490 C   0  0  0  0  0  0  0  0  0  0  0  0
  180.8260  177.7440  138.7900 C   0  0  0  0  0  2  0  0  0  0  0  0
  185.3010  179.0090  138.0280 C   0  0  0  0  0  2  0  0  0  0  0  0
  180.9860  179.0480  142.3190 C   0  0  0  0  0  2  0  0  0  0  0  0
  185.9700  173.5450  136.5320 C   0  0  0  0  0  3  0  0  0  0  0  0
  180.7530  176.5310  137.8930 C   0  0  0  0  0  2  0  0  0  0  0  0
  189.7850  177.4470  137.7810 O   0  0  0  0  0  0  0  0  0  0  0  0
  182.3960  176.0490  139.6100 C   0  0  0  0  0  2  0  0  0  0  0  0
  181.7830  174.2660  137.9760 C   0  0  0  0  0  2  0  0  0  0  0  0
  183.4550  173.2500  136.3230 C   0  0  1  0  0  3  0  0  0  0  0  0
  186.4830  177.1220  136.6370 C   0  0  0  0  0  0  0  0  0  0  0  0
  183.3730  179.1080  139.5800 C   0  0  0  0  0  2  0  0  0  0  0  0
  182.0620  173.8850  136.5230 C   0  0  1  0  0  3  0  0  0  0  0  0
  184.4980  175.5410  136.0610 C   0  0  0  0  0  3  0  0  0  0  0  0
  184.5160  178.2400  139.0720 C   0  0  0  0  0  2  0  0  0  0  0  0
  183.3700  177.8660  141.7690 C   0  0  0  0  0  2  0  0  0  0  0  0
  184.6080  174.1850  136.7320 C   0  0  2  0  0  3  0  0  0  0  0  0
  181.9970  179.0970  143.4670 C   0  0  0  0  0  2  0  0  0  0  0  0
  188.5530  177.4730  137.5220 C   0  0  0  0  0  0  0  0  0  0  0  0
  185.4170  176.4320  136.3190 C   0  0  0  0  0  0  0  0  0  0  0  0
  187.6700  178.4300  138.0970 N   0  0  0  0  0  0  0  0  0  0  0  0
  181.5960  179.4530  141.1110 O   0  0  0  0  0  0  0  0  0  0  0  0
  182.0200  175.7510  138.1730 C   0  0  1  0  0  3  0  0  0  0  0  0
  181.6190  177.2980  140.0100 C   0  0  1  0  0  3  0  0  0  0  0  0
  187.9610  175.1120  137.1450 C   0  0  0  0  0  3  0  0  0  0  0  0
  186.4960  178.2240  137.6000 C   0  0  0  0  0  0  0  0  0  0  0  0
  182.4720  178.4350  140.6340 C   0  0  1  0  0  0  0  0  0  0  0  0
  183.5740  171.8370  136.9230 C   0  0  0  0  0  2  0  0  0  0  0  0
  183.7590  170.7560  135.8680 C   0  0  0  0  0  1  0  0  0  0  0  0
  180.9580  172.9940  135.9690 C   0  0  0  0  0  2  0  0  0  0  0  0
  179.6730  171.2790  136.8790 C   0  0  0  0  0  1  0  0  0  0  0  0
  179.9950  172.6880  137.0120 N   0  0  0  0  0  2  0  0  0  0  0  0
  1 20  1  0  0  0  0
  2 13  1  0  0  0  0
  2 27  1  1  0  0  0
  2 21  1  0  0  0  0
  3 27  2  0  0  0  0
  5 17  1  0  0  0  0
  6 20  1  0  0  0  0
  7 19  1  0  0  0  0
  7  3  2  0  0  0  0
  8  4  1  0  0  0  0
 10 26  1  0  0  0  0
 11 25  1  0  0  0  0
 12 15  1  0  0  0  0
 12 19  1  0  0  0  0
 12 30  1  1  0  0  0
 13 28  1  0  0  0  0
 15 32  1  1  0  0  0
 15 11  1  0  0  0  0
 16 22  2  0  0  0  0
 17 14  1  0  0  0  0
 18  1  1  0  0  0  0
 19 16  1  6  0  0  0
 21  9  2  0  0  0  0
 21 23  1  0  0  0  0
 22 13  2  0  0  0  0
 24  6  1  0  0  0  0
 25  8  1  1  0  0  0
 25 10  1  0  0  0  0
 26  4  1  6  0  0  0
 26 29  1  0  0  0  0
 28  5  1  0  0  0  0
 28 23  2  0  0  0  0
 29 14  1  6  0  0  0
 29 24  1  0  0  0  0
 29 18  1  0  0  0  0
 31 30  1  0  0  0  0
 32 34  1  0  0  0  0
 33 34  1  0  0  0  0
M  END
>  <MODEL>
5

>  <REMARK>
 VINA RESULT:      -6.2      3.279      8.076
  Name = 
  3 active torsions:
  status: ('A' for Active; 'I' for Inactive)
    1  A    between atoms: C_6  and  C_13
    2  A    between atoms: C_17  and  C_33
    3  A    between atoms: N_26  and  C_33
                            x       y       z     vdW  Elec       q    Type
                         _______ _______ _______ _____ _____    ______ ____

>  <TORSDO>
F 3

$$$$
=
 OpenBabel11032421293D

 34 38  0  0  1  0  0  0  0  0999 V2000
  181.0150  175.6260  139.9380 C   0  0  0  0  0  2  0  0  0  0  0  0
  187.6470  177.8560  144.0390 C   0  0  1  0  0  3  0  0  0  0  0  0
  189.0250  176.5550  142.4830 C   0  0  0  0  0  0  0  0  0  0  0  0
  184.0120  178.9050  137.5840 C   0  0  0  0  0  2  0  0  0  0  0  0
  184.3990  178.9550  142.2800 C   0  0  0  0  0  2  0  0  0  0  0  0
  180.8030  176.9470  137.8000 C   0  0  0  0  0  2  0  0  0  0  0  0
  189.5420  176.6950  141.2890 C   0  0  0  0  0  3  0  0  0  0  0  0
  185.4760  178.8940  137.2120 C   0  0  0  0  0  2  0  0  0  0  0  0
  186.5540  176.9550  146.0160 O   0  0  0  0  0  0  0  0  0  0  0  0
  185.0350  176.8420  138.4280 C   0  0  0  0  0  2  0  0  0  0  0  0
  187.2960  177.2090  137.4380 C   0  0  0  0  0  2  0  0  0  0  0  0
  189.4260  177.3940  138.8490 C   0  0  1  0  0  3  0  0  0  0  0  0
  186.9150  178.5680  142.9200 C   0  0  0  0  0  0  0  0  0  0  0  0
  182.9660  178.3830  140.3410 C   0  0  0  0  0  2  0  0  0  0  0  0
  188.5660  178.0090  137.7250 C   0  0  1  0  0  3  0  0  0  0  0  0
  188.0890  178.6400  140.5990 C   0  0  0  0  0  3  0  0  0  0  0  0
  184.1510  177.9350  141.1860 C   0  0  0  0  0  2  0  0  0  0  0  0
  182.4790  175.9950  139.7150 C   0  0  0  0  0  2  0  0  0  0  0  0
  188.6840  177.3050  140.1960 C   0  0  2  0  0  3  0  0  0  0  0  0
  180.2150  175.8180  138.6500 C   0  0  0  0  0  2  0  0  0  0  0  0
  186.4720  177.5160  144.8920 C   0  0  0  0  0  0  0  0  0  0  0  0
  187.4330  178.7070  141.7270 C   0  0  0  0  0  0  0  0  0  0  0  0
  185.2260  177.8910  144.3130 N   0  0  0  0  0  0  0  0  0  0  0  0
  181.3930  177.9280  138.6270 O   0  0  0  0  0  0  0  0  0  0  0  0
  186.1110  177.8640  138.1230 C   0  0  1  0  0  3  0  0  0  0  0  0
  183.7060  177.4920  138.0610 C   0  0  1  0  0  3  0  0  0  0  0  0
  188.3550  176.5840  143.6080 C   0  0  0  0  0  3  0  0  0  0  0  0
  185.4800  178.4800  143.1920 C   0  0  0  0  0  0  0  0  0  0  0  0
  182.6190  177.4440  139.1690 C   0  0  1  0  0  0  0  0  0  0  0  0
  190.1100  176.0750  138.4420 C   0  0  0  0  0  2  0  0  0  0  0  0
  191.6220  176.2030  138.3190 C   0  0  0  0  0  1  0  0  0  0  0  0
  189.3780  178.2200  136.4530 C   0  0  0  0  0  2  0  0  0  0  0  0
  189.8420  176.7440  134.7140 C   0  0  0  0  0  1  0  0  0  0  0  0
  188.7740  177.4930  135.3500 N   0  0  0  0  0  2  0  0  0  0  0  0
  2 27  1  6  0  0  0
  2 21  1  0  0  0  0
  3 27  2  0  0  0  0
  5 28  1  0  0  0  0
  6 24  1  0  0  0  0
  6 20  1  0  0  0  0
  7  3  2  0  0  0  0
  8  4  1  0  0  0  0
 11 15  1  0  0  0  0
 11 25  1  0  0  0  0
 12 30  1  6  0  0  0
 12 19  1  0  0  0  0
 13 28  1  0  0  0  0
 13  2  1  0  0  0  0
 14 17  1  0  0  0  0
 15 32  1  6  0  0  0
 15 12  1  0  0  0  0
 16 22  2  0  0  0  0
 17  5  1  0  0  0  0
 18  1  1  0  0  0  0
 19 16  1  1  0  0  0
 19  7  1  0  0  0  0
 20  1  1  0  0  0  0
 21  9  2  0  0  0  0
 22 13  2  0  0  0  0
 23 21  1  0  0  0  0
 24 29  1  0  0  0  0
 25  8  1  6  0  0  0
 25 10  1  0  0  0  0
 26  4  1  1  0  0  0
 26 10  1  0  0  0  0
 26 29  1  0  0  0  0
 28 23  2  0  0  0  0
 29 18  1  1  0  0  0
 29 14  1  0  0  0  0
 31 30  1  0  0  0  0
 33 34  1  0  0  0  0
 34 32  1  0  0  0  0
M  END
>  <MODEL>
6

>  <REMARK>
 VINA RESULT:      -6.0      2.356      3.560
  Name = 
  3 active torsions:
  status: ('A' for Active; 'I' for Inactive)
    1  A    between atoms: C_6  and  C_13
    2  A    between atoms: C_17  and  C_33
    3  A    between atoms: N_26  and  C_33
                            x       y       z     vdW  Elec       q    Type
                         _______ _______ _______ _____ _____    ______ ____

>  <TORSDO>
F 3

$$$$
=
 OpenBabel11032421293D

 34 38  0  0  1  0  0  0  0  0999 V2000
  189.8930  176.0940  143.6830 C   0  0  0  0  0  2  0  0  0  0  0  0
  186.6200  176.9960  136.3180 C   0  0  1  0  0  3  0  0  0  0  0  0
  184.5290  176.0190  137.1470 C   0  0  0  0  0  0  0  0  0  0  0  0
  186.3830  179.6720  143.3020 C   0  0  0  0  0  2  0  0  0  0  0  0
  188.5320  178.6270  139.2400 C   0  0  0  0  0  2  0  0  0  0  0  0
  189.0550  177.8780  145.2570 C   0  0  0  0  0  2  0  0  0  0  0  0
  183.4750  176.4030  137.8200 C   0  0  0  0  0  3  0  0  0  0  0  0
  184.9470  179.6750  142.8320 C   0  0  0  0  0  2  0  0  0  0  0  0
  188.5130  175.7200  135.4780 O   0  0  0  0  0  0  0  0  0  0  0  0
  185.7940  177.4230  142.5210 C   0  0  0  0  0  2  0  0  0  0  0  0
  183.3900  177.8950  142.0510 C   0  0  0  0  0  2  0  0  0  0  0  0
  182.3450  177.6460  139.7260 C   0  0  1  0  0  3  0  0  0  0  0  0
  186.7080  177.9800  137.4670 C   0  0  0  0  0  0  0  0  0  0  0  0
  188.6770  178.5850  141.7130 C   0  0  0  0  0  2  0  0  0  0  0  0
  182.5300  178.5440  140.9680 C   0  0  1  0  0  3  0  0  0  0  0  0
  184.4990  178.5230  138.7290 C   0  0  0  0  0  3  0  0  0  0  0  0
  188.0830  177.8980  140.4920 C   0  0  0  0  0  2  0  0  0  0  0  0
  188.5670  176.4310  143.0100 C   0  0  0  0  0  2  0  0  0  0  0  0
  183.6750  177.2890  139.0370 C   0  0  2  0  0  3  0  0  0  0  0  0
  189.9080  176.6150  145.1200 C   0  0  0  0  0  2  0  0  0  0  0  0
  188.0360  176.5270  136.3190 C   0  0  0  0  0  0  0  0  0  0  0  0
  185.6530  178.3630  138.1390 C   0  0  0  0  0  0  0  0  0  0  0  0
  188.8160  177.0870  137.3710 N   0  0  0  0  0  0  0  0  0  0  0  0
  189.0700  178.6130  144.0510 O   0  0  0  0  0  0  0  0  0  0  0  0
  184.8060  178.4340  141.9760 C   0  0  1  0  0  3  0  0  0  0  0  0
  186.7790  178.2050  143.3840 C   0  0  1  0  0  3  0  0  0  0  0  0
  185.6910  175.8230  136.5760 C   0  0  0  0  0  3  0  0  0  0  0  0
  188.0590  177.9030  138.0240 C   0  0  0  0  0  0  0  0  0  0  0  0
  188.2790  177.9580  143.0630 C   0  0  1  0  0  0  0  0  0  0  0  0
  181.4450  176.4240  139.9860 C   0  0  0  0  0  2  0  0  0  0  0  0
  180.1430  176.4660  139.1980 C   0  0  0  0  0  1  0  0  0  0  0  0
  181.1910  179.0000  141.5320 C   0  0  0  0  0  2  0  0  0  0  0  0
  180.0530  178.6260  143.5280 C   0  0  0  0  0  1  0  0  0  0  0  0
  181.2840  179.1560  142.9730 N   0  0  0  0  0  2  0  0  0  0  0  0
  1 20  1  0  0  0  0
  2 21  1  0  0  0  0
  2 27  1  1  0  0  0
  2 13  1  0  0  0  0
  3  7  2  0  0  0  0
  4 26  1  0  0  0  0
  5 17  1  0  0  0  0
  8  4  1  0  0  0  0
  9 21  2  0  0  0  0
 12 30  1  1  0  0  0
 12 15  1  0  0  0  0
 13 28  1  0  0  0  0
 13 22  2  0  0  0  0
 15 32  1  1  0  0  0
 15 11  1  0  0  0  0
 16 19  1  0  0  0  0
 17 14  1  0  0  0  0
 18 29  1  0  0  0  0
 18  1  1  0  0  0  0
 19  7  1  6  0  0  0
 19 12  1  0  0  0  0
 20  6  1  0  0  0  0
 21 23  1  0  0  0  0
 22 16  2  0  0  0  0
 23 28  2  0  0  0  0
 24  6  1  0  0  0  0
 25 11  1  1  0  0  0
 25 10  1  0  0  0  0
 25  8  1  0  0  0  0
 26 10  1  6  0  0  0
 27  3  2  0  0  0  0
 28  5  1  0  0  0  0
 29 14  1  6  0  0  0
 29 26  1  0  0  0  0
 29 24  1  0  0  0  0
 31 30  1  0  0  0  0
 32 34  1  0  0  0  0
 34 33  1  0  0  0  0
M  END
>  <MODEL>
7

>  <REMARK>
 VINA RESULT:      -5.9      2.315      8.169
  Name = 
  3 active torsions:
  status: ('A' for Active; 'I' for Inactive)
    1  A    between atoms: C_6  and  C_13
    2  A    between atoms: C_17  and  C_33
    3  A    between atoms: N_26  and  C_33
                            x       y       z     vdW  Elec       q    Type
                         _______ _______ _______ _____ _____    ______ ____

>  <TORSDO>
F 3

$$$$
=
 OpenBabel11032421293D

 34 38  0  0  1  0  0  0  0  0999 V2000
  186.0790  177.8780  144.4820 C   0  0  0  0  0  2  0  0  0  0  0  0
  188.7590  175.7770  137.1210 C   0  0  1  0  0  3  0  0  0  0  0  0
  186.8530  174.2520  136.8820 C   0  0  0  0  0  0  0  0  0  0  0  0
  183.3480  179.5810  140.6200 C   0  0  0  0  0  2  0  0  0  0  0  0
  187.8370  178.6280  139.5460 C   0  0  0  0  0  2  0  0  0  0  0  0
  184.1340  179.4740  144.3010 C   0  0  0  0  0  2  0  0  0  0  0  0
  185.5870  174.3190  136.5600 C   0  0  0  0  0  3  0  0  0  0  0  0
  182.6630  178.9090  139.4540 C   0  0  0  0  0  2  0  0  0  0  0  0
  190.8630  175.2150  138.2050 O   0  0  0  0  0  0  0  0  0  0  0  0
  183.8060  177.1740  140.7060 C   0  0  0  0  0  2  0  0  0  0  0  0
  182.3690  176.5330  138.7690 C   0  0  0  0  0  2  0  0  0  0  0  0
  183.2850  175.3890  136.6680 C   0  0  1  0  0  3  0  0  0  0  0  0
  187.8790  176.9380  137.5370 C   0  0  0  0  0  0  0  0  0  0  0  0
  186.2270  179.1850  141.3450 C   0  0  0  0  0  2  0  0  0  0  0  0
  182.4220  176.5330  137.2430 C   0  0  1  0  0  3  0  0  0  0  0  0
  185.3670  176.8140  136.8720 C   0  0  0  0  0  3  0  0  0  0  0  0
  186.7580  178.0700  140.4550 C   0  0  0  0  0  2  0  0  0  0  0  0
  185.5640  177.5030  143.0960 C   0  0  0  0  0  2  0  0  0  0  0  0
  184.7530  175.4520  137.1300 C   0  0  2  0  0  3  0  0  0  0  0  0
  185.0150  178.6590  145.2520 C   0  0  0  0  0  2  0  0  0  0  0  0
  189.8240  175.9250  138.1550 C   0  0  0  0  0  0  0  0  0  0  0  0
  186.6130  177.0040  137.2140 C   0  0  0  0  0  0  0  0  0  0  0  0
  189.5610  176.9630  139.0930 N   0  0  0  0  0  0  0  0  0  0  0  0
  184.8750  179.8730  143.1670 O   0  0  0  0  0  0  0  0  0  0  0  0
  183.3400  177.5620  139.3180 C   0  0  1  0  0  3  0  0  0  0  0  0
  183.7850  178.4500  141.5400 C   0  0  1  0  0  3  0  0  0  0  0  0
  188.0970  174.4170  137.2570 C   0  0  0  0  0  3  0  0  0  0  0  0
  188.4540  177.5300  138.7450 C   0  0  0  0  0  0  0  0  0  0  0  0
  185.1000  178.7590  142.3070 C   0  0  1  0  0  0  0  0  0  0  0  0
  182.6500  173.9980  136.8440 C   0  0  0  0  0  2  0  0  0  0  0  0
  182.2900  173.3370  135.5200 C   0  0  0  0  0  1  0  0  0  0  0  0
  181.0200  176.5270  136.6470 C   0  0  0  0  0  2  0  0  0  0  0  0
  181.2500  178.7210  135.9040 C   0  0  0  0  0  1  0  0  0  0  0  0
  180.4360  177.8530  136.7340 N   0  0  0  0  0  2  0  0  0  0  0  0
  1 20  1  0  0  0  0
  2 27  1  1  0  0  0
  2 13  1  0  0  0  0
  2 21  1  0  0  0  0
  3 27  2  0  0  0  0
  5 17  1  0  0  0  0
  6 20  1  0  0  0  0
  7  3  2  0  0  0  0
  8  4  1  0  0  0  0
 10 26  1  0  0  0  0
 12 30  1  1  0  0  0
 12 19  1  0  0  0  0
 12 15  1  0  0  0  0
 13 28  1  0  0  0  0
 15 32  1  6  0  0  0
 15 11  1  0  0  0  0
 16 19  1  0  0  0  0
 16 22  2  0  0  0  0
 17 14  1  0  0  0  0
 18  1  1  0  0  0  0
 19  7  1  6  0  0  0
 21  9  2  0  0  0  0
 21 23  1  0  0  0  0
 22 13  2  0  0  0  0
 24  6  1  0  0  0  0
 25 11  1  1  0  0  0
 25  8  1  0  0  0  0
 25 10  1  0  0  0  0
 26  4  1  6  0  0  0
 26 29  1  0  0  0  0
 28 23  2  0  0  0  0
 28  5  1  0  0  0  0
 29 14  1  6  0  0  0
 29 18  1  0  0  0  0
 29 24  1  0  0  0  0
 31 30  1  0  0  0  0
 32 34  1  0  0  0  0
 33 34  1  0  0  0  0
M  END
>  <MODEL>
8

>  <REMARK>
 VINA RESULT:      -5.5      2.563      7.966
  Name = 
  3 active torsions:
  status: ('A' for Active; 'I' for Inactive)
    1  A    between atoms: C_6  and  C_13
    2  A    between atoms: C_17  and  C_33
    3  A    between atoms: N_26  and  C_33
                            x       y       z     vdW  Elec       q    Type
                         _______ _______ _______ _____ _____    ______ ____

>  <TORSDO>
F 3

$$$$
=
 OpenBabel11032421293D

 34 38  0  0  1  0  0  0  0  0999 V2000
  190.9170  176.2180  143.7940 C   0  0  0  0  0  2  0  0  0  0  0  0
  194.0990  174.4210  136.5540 C   0  0  1  0  0  3  0  0  0  0  0  0
  191.9990  173.3220  135.9240 C   0  0  0  0  0  0  0  0  0  0  0  0
  189.0480  178.8040  139.9090 C   0  0  0  0  0  2  0  0  0  0  0  0
  193.3950  177.1280  139.2060 C   0  0  0  0  0  2  0  0  0  0  0  0
  189.3260  178.1660  143.6100 C   0  0  0  0  0  2  0  0  0  0  0  0
  190.8160  173.6630  135.4800 C   0  0  0  0  0  3  0  0  0  0  0  0
  188.4080  178.4000  138.6020 C   0  0  0  0  0  2  0  0  0  0  0  0
  195.9130  173.3570  137.7750 O   0  0  0  0  0  0  0  0  0  0  0  0
  189.0560  176.3580  139.7400 C   0  0  0  0  0  2  0  0  0  0  0  0
  187.7870  176.2080  137.5960 C   0  0  0  0  0  2  0  0  0  0  0  0
  188.7470  175.1360  135.4770 C   0  0  1  0  0  3  0  0  0  0  0  0
  193.3930  175.6790  137.0170 C   0  0  0  0  0  0  0  0  0  0  0  0
  191.6940  177.7920  140.8800 C   0  0  0  0  0  2  0  0  0  0  0  0
  188.0340  176.3570  136.0960 C   0  0  1  0  0  3  0  0  0  0  0  0
  191.0050  176.1070  136.0780 C   0  0  0  0  0  3  0  0  0  0  0  0
  192.1280  176.6950  139.9180 C   0  0  0  0  0  2  0  0  0  0  0  0
  190.5250  176.0950  142.3250 C   0  0  0  0  0  2  0  0  0  0  0  0
  190.1310  174.8680  136.0960 C   0  0  2  0  0  3  0  0  0  0  0  0
  189.9190  177.1040  144.5380 C   0  0  0  0  0  2  0  0  0  0  0  0
  195.0330  174.2540  137.7040 C   0  0  0  0  0  0  0  0  0  0  0  0
  192.2110  176.0190  136.5710 C   0  0  0  0  0  0  0  0  0  0  0  0
  194.8400  175.2200  138.7330 N   0  0  0  0  0  0  0  0  0  0  0  0
  190.2640  178.5320  142.6200 O   0  0  0  0  0  0  0  0  0  0  0  0
  188.8480  176.9700  138.3700 C   0  0  1  0  0  3  0  0  0  0  0  0
  189.1560  177.5210  140.7200 C   0  0  1  0  0  3  0  0  0  0  0  0
  193.1950  173.2060  136.4460 C   0  0  0  0  0  3  0  0  0  0  0  0
  193.9050  176.0210  138.3440 C   0  0  0  0  0  0  0  0  0  0  0  0
  190.3960  177.4920  141.6550 C   0  0  1  0  0  0  0  0  0  0  0  0
  187.8570  173.8800  135.4070 C   0  0  0  0  0  2  0  0  0  0  0  0
  187.7950  173.1210  136.7250 C   0  0  0  0  0  1  0  0  0  0  0  0
  186.7400  176.6810  135.3590 C   0  0  0  0  0  2  0  0  0  0  0  0
  184.4700  176.7530  135.8660 C   0  0  0  0  0  1  0  0  0  0  0  0
  185.7700  177.2450  136.2800 N   0  0  0  0  0  2  0  0  0  0  0  0
  1 20  1  0  0  0  0
  2 27  1  1  0  0  0
  2 13  1  0  0  0  0
  2 21  1  0  0  0  0
  3 27  2  0  0  0  0
  4 26  1  0  0  0  0
  5 17  1  0  0  0  0
  6 20  1  0  0  0  0
  7  3  2  0  0  0  0
  8  4  1  0  0  0  0
 12 30  1  1  0  0  0
 12 19  1  0  0  0  0
 12 15  1  0  0  0  0
 13 28  1  0  0  0  0
 15 32  1  6  0  0  0
 15 11  1  0  0  0  0
 16 19  1  0  0  0  0
 16 22  2  0  0  0  0
 17 14  1  0  0  0  0
 18  1  1  0  0  0  0
 19  7  1  6  0  0  0
 21  9  2  0  0  0  0
 21 23  1  0  0  0  0
 22 13  2  0  0  0  0
 24  6  1  0  0  0  0
 25 11  1  1  0  0  0
 25  8  1  0  0  0  0
 25 10  1  0  0  0  0
 26 10  1  6  0  0  0
 26 29  1  0  0  0  0
 28 23  2  0  0  0  0
 28  5  1  0  0  0  0
 29 14  1  6  0  0  0
 29 18  1  0  0  0  0
 29 24  1  0  0  0  0
 30 31  1  0  0  0  0
 32 34  1  0  0  0  0
 33 34  1  0  0  0  0
M  END
>  <MODEL>
9

>  <REMARK>
 VINA RESULT:      -5.5      3.416      8.693
  Name = 
  3 active torsions:
  status: ('A' for Active; 'I' for Inactive)
    1  A    between atoms: C_6  and  C_13
    2  A    between atoms: C_17  and  C_33
    3  A    between atoms: N_26  and  C_33
                            x       y       z     vdW  Elec       q    Type
                         _______ _______ _______ _____ _____    ______ ____

>  <TORSDO>
F 3

$$$$
