=
 OpenBabel11032421273D

 34 38  0  0  1  0  0  0  0  0999 V2000
  190.6010  177.9910  148.2130 N   0  0  0  0  0  0  0  0  0  0  0  0
  191.7580  176.8030  146.5300 N   0  0  0  0  0  2  0  0  0  0  0  0
  188.0600  177.2410  148.0450 S   0  0  0  0  0  0  0  0  0  0  0  0
  190.8670  177.2100  142.0180 C   0  0  0  0  0  0  0  0  0  0  0  0
  190.5610  177.2190  147.1840 C   0  0  0  0  0  0  0  0  0  0  0  0
  189.3140  178.3410  148.7800 C   0  0  0  0  0  2  0  0  0  0  0  0
  191.0250  176.5480  144.2310 C   0  0  0  0  0  0  0  0  0  0  0  0
  189.7700  177.1800  144.2590 C   0  0  0  0  0  0  0  0  0  0  0  0
  191.6950  175.8930  145.3970 C   0  0  0  0  0  2  0  0  0  0  0  0
  189.2260  176.7690  146.7140 C   0  0  2  0  0  3  0  0  0  0  0  0
  189.4430  177.7730  142.7120 S   0  0  0  0  0  0  0  0  0  0  0  0
  191.6370  176.5610  142.9690 C   0  0  0  0  0  3  0  0  0  0  0  0
  188.9080  177.3730  145.4060 N   0  0  0  0  0  0  0  0  0  0  0  0
  191.2570  177.3890  140.6560 N   0  0  0  0  0  2  0  0  0  0  0  0
  190.6370  176.6400  139.5780 C   0  0  0  0  0  2  0  0  0  0  0  0
  188.4050  177.0340  138.0470 C   0  0  1  0  0  3  0  0  0  0  0  0
  190.6090  177.4990  138.3070 C   0  0  2  0  0  3  0  0  0  0  0  0
  188.1320  175.8770  135.8900 C   0  0  0  0  0  1  0  0  0  0  0  0
  188.8110  175.9310  137.1830 N   0  0  0  0  0  0  0  0  0  0  0  0
  189.6110  177.1890  137.1740 C   0  0  1  0  0  0  0  0  0  0  0  0
  190.9330  176.6640  137.2750 O   0  0  0  0  0  0  0  0  0  0  0  0
  185.9250  177.3190  137.5920 N   0  0  0  0  0  1  0  0  0  0  0  0
  187.4150  179.0490  137.1740 O   0  0  0  0  0  0  0  0  0  0  0  0
  187.2420  177.8620  137.5570 C   0  0  0  0  0  0  0  0  0  0  0  0
  187.6940  178.1700  145.2330 C   0  0  0  0  0  2  0  0  0  0  0  0
  186.5120  177.2640  144.9290 C   0  0  0  0  0  2  0  0  0  0  0  0
  186.0980  177.4140  143.4730 C   0  0  0  0  0  2  0  0  0  0  0  0
  184.8680  178.3030  143.3440 C   0  0  0  0  0  2  0  0  0  0  0  0
  184.8460  179.0020  142.0280 C   0  0  0  0  0  0  0  0  0  0  0  0
  182.4820  178.9750  138.9650 C   0  0  0  0  0  1  0  0  0  0  0  0
  185.7550  179.8260  141.7400 O   0  0  0  0  0  0  0  0  0  0  0  0
  183.7840  178.7270  141.1080 N   0  0  0  0  0  2  0  0  0  0  0  0
  183.6910  179.2560  139.7810 C   0  0  0  0  0  0  0  0  0  0  0  0
  184.6240  179.9440  139.2880 O   0  0  0  0  0  0  0  0  0  0  0  0
  1  6  1  0  0  0  0
  2  5  1  0  0  0  0
  3  6  1  0  0  0  0
  4 11  1  0  0  0  0
  4 12  2  0  0  0  0
  5  1  2  0  0  0  0
  7  8  2  0  0  0  0
  7  9  1  0  0  0  0
  8 13  1  0  0  0  0
  9  2  1  0  0  0  0
 10  5  1  1  0  0  0
 10  3  1  0  0  0  0
 11  8  1  0  0  0  0
 12  7  1  0  0  0  0
 13 10  1  0  0  0  0
 14  4  1  0  0  0  0
 15 14  1  0  0  0  0
 16 24  1  6  0  0  0
 17 15  1  1  0  0  0
 18 19  1  0  0  0  0
 19 16  1  0  0  0  0
 20 19  1  0  0  0  0
 20 21  1  6  0  0  0
 20 16  1  0  0  0  0
 20 17  1  0  0  0  0
 21 17  1  0  0  0  0
 23 24  2  0  0  0  0
 24 22  1  0  0  0  0
 25 13  1  0  0  0  0
 26 25  1  0  0  0  0
 27 26  1  0  0  0  0
 28 27  1  0  0  0  0
 29 28  1  0  0  0  0
 30 33  1  0  0  0  0
 31 29  2  0  0  0  0
 32 29  1  0  0  0  0
 33 32  1  0  0  0  0
 34 33  2  0  0  0  0
M  END
>  <MODEL>
1

>  <REMARK>
 VINA RESULT:      -7.8      0.000      0.000
  Name = 
  9 active torsions:
  status: ('A' for Active; 'I' for Inactive)
    1  A    between atoms: C_1  and  C_9
    2  A    between atoms: C_1  and  N_13
    3  A    between atoms: C_2  and  C_10
    4  A    between atoms: C_5  and  C_12
    5  A    between atoms: C_5  and  C_30
    6  A    between atoms: C_7  and  N_13
    7  A    between atoms: C_8  and  C_34
    8  A    between atoms: C_10  and  C_12
    9  A    between atoms: C_30  and  N_32
                            x       y       z     vdW  Elec       q    Type
                         _______ _______ _______ _____ _____    ______ ____

>  <TORSDO>
F 9

$$$$
=
 OpenBabel11032421273D

 34 38  0  0  1  0  0  0  0  0999 V2000
  190.6090  177.8970  148.1000 N   0  0  0  0  0  0  0  0  0  0  0  0
  191.6430  176.7670  146.3020 N   0  0  0  0  0  2  0  0  0  0  0  0
  188.0490  177.1970  148.0490 S   0  0  0  0  0  0  0  0  0  0  0  0
  190.5000  177.3890  141.8720 C   0  0  0  0  0  0  0  0  0  0  0  0
  190.4940  177.1720  147.0430 C   0  0  0  0  0  0  0  0  0  0  0  0
  189.3630  178.2430  148.7560 C   0  0  0  0  0  2  0  0  0  0  0  0
  190.7730  176.6270  144.0410 C   0  0  0  0  0  0  0  0  0  0  0  0
  189.5340  177.2770  144.1700 C   0  0  0  0  0  0  0  0  0  0  0  0
  191.4970  175.9090  145.1350 C   0  0  0  0  0  2  0  0  0  0  0  0
  189.1260  176.7660  146.6330 C   0  0  2  0  0  3  0  0  0  0  0  0
  189.1290  177.9440  142.6720 S   0  0  0  0  0  0  0  0  0  0  0  0
  191.3120  176.6860  142.7470 C   0  0  0  0  0  3  0  0  0  0  0  0
  188.7440  177.4320  145.3730 N   0  0  0  0  0  0  0  0  0  0  0  0
  190.8130  177.6230  140.4990 N   0  0  0  0  0  2  0  0  0  0  0  0
  189.9880  177.0980  139.4250 C   0  0  0  0  0  2  0  0  0  0  0  0
  188.0070  176.6540  137.5930 C   0  0  1  0  0  3  0  0  0  0  0  0
  188.9410  178.1440  139.0250 C   0  0  2  0  0  3  0  0  0  0  0  0
  188.1470  177.6040  135.3250 C   0  0  0  0  0  1  0  0  0  0  0  0
  188.8490  177.2320  136.5520 N   0  0  0  0  0  0  0  0  0  0  0  0
  188.3070  178.1200  137.6200 C   0  0  1  0  0  0  0  0  0  0  0  0
  189.4800  178.8450  137.9830 O   0  0  0  0  0  0  0  0  0  0  0  0
  186.2460  175.1580  136.5450 N   0  0  0  0  0  1  0  0  0  0  0  0
  185.6590  177.1860  137.5100 O   0  0  0  0  0  0  0  0  0  0  0  0
  186.5750  176.3770  137.2040 C   0  0  0  0  0  0  0  0  0  0  0  0
  187.5380  178.2560  145.3070 C   0  0  0  0  0  2  0  0  0  0  0  0
  186.4300  177.5050  144.5850 C   0  0  0  0  0  2  0  0  0  0  0  0
  185.4440  178.4880  143.9720 C   0  0  0  0  0  2  0  0  0  0  0  0
  184.7370  177.8730  142.7710 C   0  0  0  0  0  2  0  0  0  0  0  0
  184.7640  178.7960  141.6010 C   0  0  0  0  0  0  0  0  0  0  0  0
  182.4660  179.3950  138.5460 C   0  0  0  0  0  1  0  0  0  0  0  0
  185.7040  179.6270  141.4790 O   0  0  0  0  0  0  0  0  0  0  0  0
  183.7140  178.7260  140.6300 N   0  0  0  0  0  2  0  0  0  0  0  0
  183.6660  179.4860  139.4180 C   0  0  0  0  0  0  0  0  0  0  0  0
  184.6300  180.2190  139.0700 O   0  0  0  0  0  0  0  0  0  0  0  0
  1  6  1  0  0  0  0
  2  5  1  0  0  0  0
  3  6  1  0  0  0  0
  4 11  1  0  0  0  0
  4 12  2  0  0  0  0
  5  1  2  0  0  0  0
  7  8  2  0  0  0  0
  7  9  1  0  0  0  0
  8 13  1  0  0  0  0
  9  2  1  0  0  0  0
 10  5  1  1  0  0  0
 10  3  1  0  0  0  0
 11  8  1  0  0  0  0
 12  7  1  0  0  0  0
 13 10  1  0  0  0  0
 14  4  1  0  0  0  0
 15 14  1  0  0  0  0
 16 24  1  6  0  0  0
 16 20  1  0  0  0  0
 17 15  1  6  0  0  0
 18 19  1  0  0  0  0
 19 16  1  0  0  0  0
 19 20  1  0  0  0  0
 20 21  1  6  0  0  0
 20 17  1  0  0  0  0
 21 17  1  0  0  0  0
 22 24  1  0  0  0  0
 24 23  2  0  0  0  0
 25 13  1  0  0  0  0
 26 25  1  0  0  0  0
 27 26  1  0  0  0  0
 28 27  1  0  0  0  0
 29 28  1  0  0  0  0
 30 33  1  0  0  0  0
 31 29  2  0  0  0  0
 32 29  1  0  0  0  0
 33 32  1  0  0  0  0
 34 33  2  0  0  0  0
M  END
>  <MODEL>
2

>  <REMARK>
 VINA RESULT:      -7.7      1.016      1.095
  Name = 
  9 active torsions:
  status: ('A' for Active; 'I' for Inactive)
    1  A    between atoms: C_1  and  C_9
    2  A    between atoms: C_1  and  N_13
    3  A    between atoms: C_2  and  C_10
    4  A    between atoms: C_5  and  C_12
    5  A    between atoms: C_5  and  C_30
    6  A    between atoms: C_7  and  N_13
    7  A    between atoms: C_8  and  C_34
    8  A    between atoms: C_10  and  C_12
    9  A    between atoms: C_30  and  N_32
                            x       y       z     vdW  Elec       q    Type
                         _______ _______ _______ _____ _____    ______ ____

>  <TORSDO>
F 9

$$$$
=
 OpenBabel11032421273D

 34 38  0  0  1  0  0  0  0  0999 V2000
  191.6770  177.1280  146.1920 N   0  0  0  0  0  0  0  0  0  0  0  0
  191.4990  176.3790  143.9590 N   0  0  0  0  0  2  0  0  0  0  0  0
  189.3280  176.6440  147.3320 S   0  0  0  0  0  0  0  0  0  0  0  0
  188.5040  178.1020  140.8970 C   0  0  0  0  0  0  0  0  0  0  0  0
  190.9410  176.6810  145.2360 C   0  0  0  0  0  0  0  0  0  0  0  0
  190.9840  177.3980  147.4370 C   0  0  0  0  0  2  0  0  0  0  0  0
  189.6420  176.8350  142.4650 C   0  0  0  0  0  0  0  0  0  0  0  0
  188.7560  177.5240  143.3120 C   0  0  0  0  0  0  0  0  0  0  0  0
  190.6610  175.8310  142.9040 C   0  0  0  0  0  2  0  0  0  0  0  0
  189.4960  176.4800  145.5160 C   0  0  2  0  0  3  0  0  0  0  0  0
  187.8100  178.5510  142.3620 S   0  0  0  0  0  0  0  0  0  0  0  0
  189.4940  177.1570  141.1080 C   0  0  0  0  0  3  0  0  0  0  0  0
  188.6840  177.4490  144.7560 N   0  0  0  0  0  0  0  0  0  0  0  0
  188.1560  178.6280  139.6170 N   0  0  0  0  0  2  0  0  0  0  0  0
  189.0730  178.5770  138.4920 C   0  0  0  0  0  2  0  0  0  0  0  0
  189.6690  176.1190  137.4500 C   0  0  1  0  0  3  0  0  0  0  0  0
  188.3630  177.9660  137.2780 C   0  0  2  0  0  3  0  0  0  0  0  0
  190.9530  175.9120  135.3590 C   0  0  0  0  0  1  0  0  0  0  0  0
  190.5690  176.7520  136.4920 N   0  0  0  0  0  0  0  0  0  0  0  0
  189.1000  176.9720  136.3590 C   0  0  1  0  0  0  0  0  0  0  0  0
  189.0590  178.3850  136.1780 O   0  0  0  0  0  0  0  0  0  0  0  0
  188.1600  174.2500  136.6340 N   0  0  0  0  0  1  0  0  0  0  0  0
  190.2620  173.7850  137.5020 O   0  0  0  0  0  0  0  0  0  0  0  0
  189.3910  174.6530  137.2260 C   0  0  0  0  0  0  0  0  0  0  0  0
  187.7630  178.3500  145.4490 C   0  0  0  0  0  2  0  0  0  0  0  0
  186.3940  177.7020  145.5780 C   0  0  0  0  0  2  0  0  0  0  0  0
  185.3760  178.7210  146.0680 C   0  0  0  0  0  2  0  0  0  0  0  0
  184.0850  178.6330  145.2640 C   0  0  0  0  0  2  0  0  0  0  0  0
  184.3010  179.0620  143.8530 C   0  0  0  0  0  0  0  0  0  0  0  0
  183.3010  177.6520  140.3920 C   0  0  0  0  0  1  0  0  0  0  0  0
  184.9360  180.1230  143.6100 O   0  0  0  0  0  0  0  0  0  0  0  0
  183.7770  178.2590  142.7900 N   0  0  0  0  0  2  0  0  0  0  0  0
  183.9890  178.5040  141.3950 C   0  0  0  0  0  0  0  0  0  0  0  0
  184.7610  179.4200  141.0060 O   0  0  0  0  0  0  0  0  0  0  0  0
  1  6  1  0  0  0  0
  2  5  1  0  0  0  0
  3  6  1  0  0  0  0
  4 12  2  0  0  0  0
  4 11  1  0  0  0  0
  5  1  2  0  0  0  0
  7  9  1  0  0  0  0
  7  8  2  0  0  0  0
  8 13  1  0  0  0  0
  9  2  1  0  0  0  0
 10  5  1  1  0  0  0
 10  3  1  0  0  0  0
 11  8  1  0  0  0  0
 12  7  1  0  0  0  0
 13 25  1  0  0  0  0
 13 10  1  0  0  0  0
 14  4  1  0  0  0  0
 15 14  1  0  0  0  0
 16 24  1  6  0  0  0
 17 15  1  1  0  0  0
 18 19  1  0  0  0  0
 19 16  1  0  0  0  0
 20 21  1  6  0  0  0
 20 19  1  0  0  0  0
 20 17  1  0  0  0  0
 20 16  1  0  0  0  0
 21 17  1  0  0  0  0
 22 24  1  0  0  0  0
 24 23  2  0  0  0  0
 25 26  1  0  0  0  0
 26 27  1  0  0  0  0
 28 27  1  0  0  0  0
 29 28  1  0  0  0  0
 30 33  1  0  0  0  0
 31 29  2  0  0  0  0
 32 29  1  0  0  0  0
 33 32  1  0  0  0  0
 34 33  2  0  0  0  0
M  END
>  <MODEL>
3

>  <REMARK>
 VINA RESULT:      -7.6      1.767      2.503
  Name = 
  9 active torsions:
  status: ('A' for Active; 'I' for Inactive)
    1  A    between atoms: C_1  and  C_9
    2  A    between atoms: C_1  and  N_13
    3  A    between atoms: C_2  and  C_10
    4  A    between atoms: C_5  and  C_12
    5  A    between atoms: C_5  and  C_30
    6  A    between atoms: C_7  and  N_13
    7  A    between atoms: C_8  and  C_34
    8  A    between atoms: C_10  and  C_12
    9  A    between atoms: C_30  and  N_32
                            x       y       z     vdW  Elec       q    Type
                         _______ _______ _______ _____ _____    ______ ____

>  <TORSDO>
F 9

$$$$
=
 OpenBabel11032421273D

 34 38  0  0  1  0  0  0  0  0999 V2000
  179.9500  180.8020  141.0570 N   0  0  0  0  0  0  0  0  0  0  0  0
  180.8860  179.8190  142.9910 N   0  0  0  0  0  2  0  0  0  0  0  0
  180.1820  179.0040  139.1180 S   0  0  0  0  0  0  0  0  0  0  0  0
  185.3010  178.5110  143.3330 C   0  0  0  0  0  0  0  0  0  0  0  0
  180.6110  179.8350  141.5920 C   0  0  0  0  0  0  0  0  0  0  0  0
  179.7430  180.6980  139.6270 C   0  0  0  0  0  2  0  0  0  0  0  0
  183.0020  178.6360  143.0840 C   0  0  0  0  0  0  0  0  0  0  0  0
  183.3900  178.6350  141.7330 C   0  0  0  0  0  0  0  0  0  0  0  0
  181.5950  178.6960  143.5850 C   0  0  0  0  0  2  0  0  0  0  0  0
  181.0620  178.7360  140.7020 C   0  0  2  0  0  3  0  0  0  0  0  0
  185.0760  178.5650  141.6670 S   0  0  0  0  0  0  0  0  0  0  0  0
  184.0780  178.5600  143.9810 C   0  0  0  0  0  3  0  0  0  0  0  0
  182.5310  178.7450  140.5720 N   0  0  0  0  0  0  0  0  0  0  0  0
  186.5620  178.4520  144.0000 N   0  0  0  0  0  2  0  0  0  0  0  0
  187.2180  177.1890  144.2860 C   0  0  0  0  0  2  0  0  0  0  0  0
  189.9180  177.1910  144.7280 C   0  0  1  0  0  3  0  0  0  0  0  0
  188.2640  176.8980  143.2030 C   0  0  2  0  0  3  0  0  0  0  0  0
  191.3210  179.0630  143.9620 C   0  0  0  0  0  1  0  0  0  0  0  0
  189.9810  178.5800  144.2890 N   0  0  0  0  0  0  0  0  0  0  0  0
  189.6730  177.5190  143.2880 C   0  0  1  0  0  0  0  0  0  0  0  0
  188.5550  178.1000  142.6210 O   0  0  0  0  0  0  0  0  0  0  0  0
  191.9100  176.6120  146.1890 N   0  0  0  0  0  1  0  0  0  0  0  0
  191.7420  175.7840  144.0270 O   0  0  0  0  0  0  0  0  0  0  0  0
  191.2450  176.5030  144.9340 C   0  0  0  0  0  0  0  0  0  0  0  0
  183.1590  178.8480  139.2560 C   0  0  0  0  0  2  0  0  0  0  0  0
  183.5090  177.4640  138.7330 C   0  0  0  0  0  2  0  0  0  0  0  0
  184.1710  177.5710  137.3680 C   0  0  0  0  0  2  0  0  0  0  0  0
  185.4930  176.8140  137.3420 C   0  0  0  0  0  2  0  0  0  0  0  0
  186.6160  177.6790  137.8050 C   0  0  0  0  0  0  0  0  0  0  0  0
  190.0970  177.0250  139.3610 C   0  0  0  0  0  1  0  0  0  0  0  0
  186.5250  178.9320  137.7040 O   0  0  0  0  0  0  0  0  0  0  0  0
  187.7870  177.0680  138.3550 N   0  0  0  0  0  2  0  0  0  0  0  0
  188.8950  177.7790  138.9190 C   0  0  0  0  0  0  0  0  0  0  0  0
  188.8620  179.0300  139.0590 O   0  0  0  0  0  0  0  0  0  0  0  0
  1  5  2  0  0  0  0
  2  9  1  0  0  0  0
  3  6  1  0  0  0  0
  4 12  2  0  0  0  0
  4 14  1  0  0  0  0
  5  2  1  0  0  0  0
  6  1  1  0  0  0  0
  7  9  1  0  0  0  0
  7 12  1  0  0  0  0
  8  7  2  0  0  0  0
 10  3  1  6  0  0  0
 10  5  1  0  0  0  0
 11  8  1  0  0  0  0
 11  4  1  0  0  0  0
 13 10  1  0  0  0  0
 13  8  1  0  0  0  0
 14 15  1  0  0  0  0
 16 24  1  6  0  0  0
 17 20  1  0  0  0  0
 17 15  1  1  0  0  0
 18 19  1  0  0  0  0
 19 16  1  0  0  0  0
 20 21  1  6  0  0  0
 20 19  1  0  0  0  0
 20 16  1  0  0  0  0
 21 17  1  0  0  0  0
 23 24  2  0  0  0  0
 24 22  1  0  0  0  0
 25 13  1  0  0  0  0
 26 25  1  0  0  0  0
 27 26  1  0  0  0  0
 28 27  1  0  0  0  0
 28 29  1  0  0  0  0
 29 32  1  0  0  0  0
 31 29  2  0  0  0  0
 32 33  1  0  0  0  0
 33 34  2  0  0  0  0
 33 30  1  0  0  0  0
M  END
>  <MODEL>
4

>  <REMARK>
 VINA RESULT:      -7.6      3.031      8.191
  Name = 
  9 active torsions:
  status: ('A' for Active; 'I' for Inactive)
    1  A    between atoms: C_1  and  C_9
    2  A    between atoms: C_1  and  N_13
    3  A    between atoms: C_2  and  C_10
    4  A    between atoms: C_5  and  C_12
    5  A    between atoms: C_5  and  C_30
    6  A    between atoms: C_7  and  N_13
    7  A    between atoms: C_8  and  C_34
    8  A    between atoms: C_10  and  C_12
    9  A    between atoms: C_30  and  N_32
                            x       y       z     vdW  Elec       q    Type
                         _______ _______ _______ _____ _____    ______ ____

>  <TORSDO>
F 9

$$$$
=
 OpenBabel11032421273D

 34 38  0  0  1  0  0  0  0  0999 V2000
  190.4670  177.9380  148.3020 N   0  0  0  0  0  0  0  0  0  0  0  0
  191.6820  176.8150  146.6160 N   0  0  0  0  0  2  0  0  0  0  0  0
  187.9400  177.1660  148.0410 S   0  0  0  0  0  0  0  0  0  0  0  0
  190.9100  177.3520  142.0960 C   0  0  0  0  0  0  0  0  0  0  0  0
  190.4630  177.1970  147.2490 C   0  0  0  0  0  0  0  0  0  0  0  0
  189.1610  178.2560  148.8430 C   0  0  0  0  0  2  0  0  0  0  0  0
  191.0150  176.6230  144.2910 C   0  0  0  0  0  0  0  0  0  0  0  0
  189.7520  177.2400  144.3030 C   0  0  0  0  0  0  0  0  0  0  0  0
  191.6610  175.9390  145.4540 C   0  0  0  0  0  2  0  0  0  0  0  0
  189.1470  176.7470  146.7290 C   0  0  2  0  0  3  0  0  0  0  0  0
  189.4610  177.8780  142.7670 S   0  0  0  0  0  0  0  0  0  0  0  0
  191.6610  176.6820  143.0470 C   0  0  0  0  0  3  0  0  0  0  0  0
  188.8580  177.3880  145.4320 N   0  0  0  0  0  0  0  0  0  0  0  0
  191.3340  177.5770  140.7510 N   0  0  0  0  0  2  0  0  0  0  0  0
  190.7860  176.8230  139.6380 C   0  0  0  0  0  2  0  0  0  0  0  0
  189.3230  176.0240  137.4700 C   0  0  1  0  0  3  0  0  0  0  0  0
  189.3710  177.3280  139.3250 C   0  0  2  0  0  3  0  0  0  0  0  0
  189.0410  177.5030  135.5210 C   0  0  0  0  0  1  0  0  0  0  0  0
  189.8030  177.1840  136.7270 N   0  0  0  0  0  0  0  0  0  0  0  0
  188.8680  177.3930  137.8700 C   0  0  1  0  0  0  0  0  0  0  0  0
  189.5270  178.4510  138.5620 O   0  0  0  0  0  0  0  0  0  0  0  0
  188.5340  174.3190  135.7640 N   0  0  0  0  0  1  0  0  0  0  0  0
  187.0320  175.3220  137.2230 O   0  0  0  0  0  0  0  0  0  0  0  0
  188.2200  175.2310  136.8130 C   0  0  0  0  0  0  0  0  0  0  0  0
  187.6400  178.1780  145.2500 C   0  0  0  0  0  2  0  0  0  0  0  0
  186.5300  177.3050  144.6880 C   0  0  0  0  0  2  0  0  0  0  0  0
  185.8000  178.0390  143.5720 C   0  0  0  0  0  2  0  0  0  0  0  0
  185.1330  179.3040  144.0970 C   0  0  0  0  0  2  0  0  0  0  0  0
  183.6710  179.0960  144.2990 C   0  0  0  0  0  0  0  0  0  0  0  0
  180.6230  178.7010  141.9500 C   0  0  0  0  0  1  0  0  0  0  0  0
  183.2070  179.0020  145.4670 O   0  0  0  0  0  0  0  0  0  0  0  0
  182.8130  179.0030  143.1570 N   0  0  0  0  0  2  0  0  0  0  0  0
  181.3870  178.8960  143.2090 C   0  0  0  0  0  0  0  0  0  0  0  0
  180.7670  178.9800  144.3030 O   0  0  0  0  0  0  0  0  0  0  0  0
  1  6  1  0  0  0  0
  2  5  1  0  0  0  0
  3  6  1  0  0  0  0
  4 11  1  0  0  0  0
  4 12  2  0  0  0  0
  5  1  2  0  0  0  0
  7  8  2  0  0  0  0
  7  9  1  0  0  0  0
  8 13  1  0  0  0  0
  9  2  1  0  0  0  0
 10  5  1  1  0  0  0
 10  3  1  0  0  0  0
 11  8  1  0  0  0  0
 12  7  1  0  0  0  0
 13 10  1  0  0  0  0
 14  4  1  0  0  0  0
 15 14  1  0  0  0  0
 16 24  1  6  0  0  0
 16 20  1  0  0  0  0
 17 15  1  6  0  0  0
 18 19  1  0  0  0  0
 19 16  1  0  0  0  0
 19 20  1  0  0  0  0
 20 21  1  6  0  0  0
 20 17  1  0  0  0  0
 21 17  1  0  0  0  0
 22 24  1  0  0  0  0
 24 23  2  0  0  0  0
 25 13  1  0  0  0  0
 26 25  1  0  0  0  0
 27 28  1  0  0  0  0
 27 26  1  0  0  0  0
 28 29  1  0  0  0  0
 29 31  2  0  0  0  0
 30 33  1  0  0  0  0
 32 33  1  0  0  0  0
 32 29  1  0  0  0  0
 33 34  2  0  0  0  0
M  END
>  <MODEL>
5

>  <REMARK>
 VINA RESULT:      -7.5      1.926      2.214
  Name = 
  9 active torsions:
  status: ('A' for Active; 'I' for Inactive)
    1  A    between atoms: C_1  and  C_9
    2  A    between atoms: C_1  and  N_13
    3  A    between atoms: C_2  and  C_10
    4  A    between atoms: C_5  and  C_12
    5  A    between atoms: C_5  and  C_30
    6  A    between atoms: C_7  and  N_13
    7  A    between atoms: C_8  and  C_34
    8  A    between atoms: C_10  and  C_12
    9  A    between atoms: C_30  and  N_32
                            x       y       z     vdW  Elec       q    Type
                         _______ _______ _______ _____ _____    ______ ____

>  <TORSDO>
F 9

$$$$
=
 OpenBabel11032421273D

 34 38  0  0  1  0  0  0  0  0999 V2000
  190.0010  176.3040  147.1010 N   0  0  0  0  0  0  0  0  0  0  0  0
  188.0680  177.4340  147.8540 N   0  0  0  0  0  2  0  0  0  0  0  0
  191.1160  177.8700  145.2700 S   0  0  0  0  0  0  0  0  0  0  0  0
  184.5000  178.5220  145.1320 C   0  0  0  0  0  0  0  0  0  0  0  0
  189.1770  177.2840  146.9710 C   0  0  0  0  0  0  0  0  0  0  0  0
  191.0820  176.2670  146.1360 C   0  0  0  0  0  2  0  0  0  0  0  0
  186.4170  178.5000  146.4300 C   0  0  0  0  0  0  0  0  0  0  0  0
  186.9890  178.3360  145.1560 C   0  0  0  0  0  0  0  0  0  0  0  0
  187.1720  178.5730  147.7190 C   0  0  0  0  0  2  0  0  0  0  0  0
  189.4320  178.2560  145.8770 C   0  0  2  0  0  3  0  0  0  0  0  0
  185.7410  178.3030  144.0190 S   0  0  0  0  0  0  0  0  0  0  0  0
  185.0190  178.6110  146.4140 C   0  0  0  0  0  3  0  0  0  0  0  0
  188.3890  178.1500  144.8380 N   0  0  0  0  0  0  0  0  0  0  0  0
  183.1080  178.5810  144.8250 N   0  0  0  0  0  2  0  0  0  0  0  0
  182.6290  179.0020  143.5200 C   0  0  0  0  0  2  0  0  0  0  0  0
  181.0670  178.1400  141.4470 C   0  0  1  0  0  3  0  0  0  0  0  0
  181.0950  179.0450  143.5260 C   0  0  2  0  0  3  0  0  0  0  0  0
  179.9620  179.7470  139.9440 C   0  0  0  0  0  1  0  0  0  0  0  0
  181.0130  179.5030  140.9300 N   0  0  0  0  0  0  0  0  0  0  0  0
  180.3110  179.1850  142.2060 C   0  0  1  0  0  0  0  0  0  0  0  0
  180.7460  180.2680  143.0250 O   0  0  0  0  0  0  0  0  0  0  0  0
  180.5220  176.5520  139.5440 N   0  0  0  0  0  1  0  0  0  0  0  0
  179.0750  176.7900  141.3430 O   0  0  0  0  0  0  0  0  0  0  0  0
  180.1460  177.1460  140.7830 C   0  0  0  0  0  0  0  0  0  0  0  0
  188.7510  177.8730  143.4490 C   0  0  0  0  0  2  0  0  0  0  0  0
  188.7800  176.3720  143.2050 C   0  0  0  0  0  2  0  0  0  0  0  0
  189.9870  176.0030  142.3550 C   0  0  0  0  0  2  0  0  0  0  0  0
  190.5080  177.2130  141.5930 C   0  0  0  0  0  2  0  0  0  0  0  0
  190.3900  177.0130  140.1200 C   0  0  0  0  0  0  0  0  0  0  0  0
  188.7900  179.0080  137.2170 C   0  0  0  0  0  1  0  0  0  0  0  0
  190.9020  175.9940  139.5830 O   0  0  0  0  0  0  0  0  0  0  0  0
  189.6960  177.9880  139.3350 N   0  0  0  0  0  2  0  0  0  0  0  0
  189.4300  177.8740  137.9330 C   0  0  0  0  0  0  0  0  0  0  0  0
  189.7170  176.8240  137.3000 O   0  0  0  0  0  0  0  0  0  0  0  0
  3  6  1  0  0  0  0
  4 12  2  0  0  0  0
  5  1  2  0  0  0  0
  5  2  1  0  0  0  0
  6  1  1  0  0  0  0
  7  9  1  0  0  0  0
  8  7  2  0  0  0  0
  9  2  1  0  0  0  0
 10  3  1  6  0  0  0
 10  5  1  0  0  0  0
 11  4  1  0  0  0  0
 11  8  1  0  0  0  0
 12  7  1  0  0  0  0
 13  8  1  0  0  0  0
 13 10  1  0  0  0  0
 14  4  1  0  0  0  0
 15 14  1  0  0  0  0
 16 24  1  6  0  0  0
 16 20  1  0  0  0  0
 17 15  1  6  0  0  0
 18 19  1  0  0  0  0
 19 16  1  0  0  0  0
 19 20  1  0  0  0  0
 20 21  1  1  0  0  0
 20 17  1  0  0  0  0
 21 17  1  0  0  0  0
 22 24  1  0  0  0  0
 24 23  2  0  0  0  0
 25 13  1  0  0  0  0
 26 25  1  0  0  0  0
 27 26  1  0  0  0  0
 28 27  1  0  0  0  0
 29 28  1  0  0  0  0
 30 33  1  0  0  0  0
 31 29  2  0  0  0  0
 32 29  1  0  0  0  0
 33 32  1  0  0  0  0
 34 33  2  0  0  0  0
M  END
>  <MODEL>
6

>  <REMARK>
 VINA RESULT:      -7.5      2.774      6.785
  Name = 
  9 active torsions:
  status: ('A' for Active; 'I' for Inactive)
    1  A    between atoms: C_1  and  C_9
    2  A    between atoms: C_1  and  N_13
    3  A    between atoms: C_2  and  C_10
    4  A    between atoms: C_5  and  C_12
    5  A    between atoms: C_5  and  C_30
    6  A    between atoms: C_7  and  N_13
    7  A    between atoms: C_8  and  C_34
    8  A    between atoms: C_10  and  C_12
    9  A    between atoms: C_30  and  N_32
                            x       y       z     vdW  Elec       q    Type
                         _______ _______ _______ _____ _____    ______ ____

>  <TORSDO>
F 9

$$$$
=
 OpenBabel11032421273D

 34 38  0  0  1  0  0  0  0  0999 V2000
  188.3320  176.7560  147.7680 N   0  0  0  0  0  0  0  0  0  0  0  0
  186.5300  178.2240  147.3490 N   0  0  0  0  0  2  0  0  0  0  0  0
  190.2910  177.4920  146.1340 S   0  0  0  0  0  0  0  0  0  0  0  0
  184.3860  178.5720  143.2750 C   0  0  0  0  0  0  0  0  0  0  0  0
  187.8170  177.6900  147.0480 C   0  0  0  0  0  0  0  0  0  0  0  0
  189.6430  176.2990  147.3500 C   0  0  0  0  0  2  0  0  0  0  0  0
  185.7080  178.8540  145.1550 C   0  0  0  0  0  0  0  0  0  0  0  0
  186.6280  178.2110  144.3090 C   0  0  0  0  0  0  0  0  0  0  0  0
  185.9830  179.3110  146.5520 C   0  0  0  0  0  2  0  0  0  0  0  0
  188.6160  178.1960  145.9030 C   0  0  2  0  0  3  0  0  0  0  0  0
  185.8570  177.8820  142.8430 S   0  0  0  0  0  0  0  0  0  0  0  0
  184.4500  179.0610  144.5700 C   0  0  0  0  0  3  0  0  0  0  0  0
  187.9850  177.8170  144.6240 N   0  0  0  0  0  0  0  0  0  0  0  0
  183.2210  178.6290  142.4530 N   0  0  0  0  0  2  0  0  0  0  0  0
  183.1730  177.9960  141.1470 C   0  0  0  0  0  2  0  0  0  0  0  0
  183.4770  177.4880  138.4770 C   0  0  1  0  0  3  0  0  0  0  0  0
  183.1080  179.0730  140.0570 C   0  0  2  0  0  3  0  0  0  0  0  0
  185.5690  178.0640  137.3120 C   0  0  0  0  0  1  0  0  0  0  0  0
  184.8960  177.8110  138.5840 N   0  0  0  0  0  0  0  0  0  0  0  0
  183.8920  178.9020  138.7400 C   0  0  1  0  0  0  0  0  0  0  0  0
  184.3820  179.5480  139.9130 O   0  0  0  0  0  0  0  0  0  0  0  0
  183.1370  176.0630  136.4040 N   0  0  0  0  0  1  0  0  0  0  0  0
  182.2850  178.2200  136.5160 O   0  0  0  0  0  0  0  0  0  0  0  0
  182.9460  177.3060  137.0760 C   0  0  0  0  0  0  0  0  0  0  0  0
  188.7300  177.0450  143.6300 C   0  0  0  0  0  2  0  0  0  0  0  0
  189.4750  177.9810  142.6920 C   0  0  0  0  0  2  0  0  0  0  0  0
  189.3030  177.5250  141.2510 C   0  0  0  0  0  2  0  0  0  0  0  0
  188.6870  178.6260  140.3990 C   0  0  0  0  0  2  0  0  0  0  0  0
  188.8620  178.3440  138.9460 C   0  0  0  0  0  0  0  0  0  0  0  0
  189.0380  175.1330  136.7950 C   0  0  0  0  0  1  0  0  0  0  0  0
  188.9790  179.2980  138.1310 O   0  0  0  0  0  0  0  0  0  0  0  0
  188.8900  176.9850  138.4960 N   0  0  0  0  0  2  0  0  0  0  0  0
  189.1410  176.5720  137.1490 C   0  0  0  0  0  0  0  0  0  0  0  0
  189.4630  177.4070  136.2620 O   0  0  0  0  0  0  0  0  0  0  0  0
  3  6  1  0  0  0  0
  4 12  2  0  0  0  0
  5  2  1  0  0  0  0
  5  1  2  0  0  0  0
  6  1  1  0  0  0  0
  7  9  1  0  0  0  0
  8 13  1  0  0  0  0
  8  7  2  0  0  0  0
  9  2  1  0  0  0  0
 10  3  1  6  0  0  0
 10  5  1  0  0  0  0
 11  4  1  0  0  0  0
 11  8  1  0  0  0  0
 12  7  1  0  0  0  0
 13 10  1  0  0  0  0
 14  4  1  0  0  0  0
 15 14  1  0  0  0  0
 16 24  1  6  0  0  0
 16 19  1  0  0  0  0
 16 20  1  0  0  0  0
 17 15  1  1  0  0  0
 18 19  1  0  0  0  0
 19 20  1  0  0  0  0
 20 21  1  6  0  0  0
 20 17  1  0  0  0  0
 21 17  1  0  0  0  0
 22 24  1  0  0  0  0
 23 24  2  0  0  0  0
 25 13  1  0  0  0  0
 26 25  1  0  0  0  0
 27 26  1  0  0  0  0
 28 27  1  0  0  0  0
 29 28  1  0  0  0  0
 30 33  1  0  0  0  0
 31 29  2  0  0  0  0
 32 29  1  0  0  0  0
 33 32  1  0  0  0  0
 34 33  2  0  0  0  0
M  END
>  <MODEL>
7

>  <REMARK>
 VINA RESULT:      -7.2      2.024      5.332
  Name = 
  9 active torsions:
  status: ('A' for Active; 'I' for Inactive)
    1  A    between atoms: C_1  and  C_9
    2  A    between atoms: C_1  and  N_13
    3  A    between atoms: C_2  and  C_10
    4  A    between atoms: C_5  and  C_12
    5  A    between atoms: C_5  and  C_30
    6  A    between atoms: C_7  and  N_13
    7  A    between atoms: C_8  and  C_34
    8  A    between atoms: C_10  and  C_12
    9  A    between atoms: C_30  and  N_32
                            x       y       z     vdW  Elec       q    Type
                         _______ _______ _______ _____ _____    ______ ____

>  <TORSDO>
F 9

$$$$
=
 OpenBabel11032421273D

 34 38  0  0  1  0  0  0  0  0999 V2000
  180.4500  175.5230  139.5290 N   0  0  0  0  0  0  0  0  0  0  0  0
  181.7320  175.6150  137.5470 N   0  0  0  0  0  2  0  0  0  0  0  0
  179.8460  178.0330  140.1440 S   0  0  0  0  0  0  0  0  0  0  0  0
  185.8080  177.7580  137.2150 C   0  0  0  0  0  0  0  0  0  0  0  0
  181.0780  176.2290  138.6540 C   0  0  0  0  0  0  0  0  0  0  0  0
  179.8330  176.2710  140.6060 C   0  0  0  0  0  2  0  0  0  0  0  0
  183.5810  177.1320  137.1350 C   0  0  0  0  0  0  0  0  0  0  0  0
  183.5660  177.9230  138.2970 C   0  0  0  0  0  0  0  0  0  0  0  0
  182.3990  176.4320  136.5440 C   0  0  0  0  0  2  0  0  0  0  0  0
  181.0850  177.7030  138.8370 C   0  0  2  0  0  3  0  0  0  0  0  0
  185.1330  178.4900  138.5700 S   0  0  0  0  0  0  0  0  0  0  0  0
  184.8410  177.0450  136.5260 C   0  0  0  0  0  3  0  0  0  0  0  0
  182.4420  178.1750  139.1740 N   0  0  0  0  0  0  0  0  0  0  0  0
  187.1820  177.8260  136.8310 N   0  0  0  0  0  2  0  0  0  0  0  0
  188.2050  177.0480  137.5070 C   0  0  0  0  0  2  0  0  0  0  0  0
  189.1980  177.1180  140.0550 C   0  0  1  0  0  3  0  0  0  0  0  0
  189.3380  177.9780  137.9610 C   0  0  2  0  0  3  0  0  0  0  0  0
  188.6230  178.9590  141.5850 C   0  0  0  0  0  1  0  0  0  0  0  0
  188.2920  178.2160  140.3700 N   0  0  0  0  0  0  0  0  0  0  0  0
  189.4190  178.4570  139.4230 C   0  0  1  0  0  0  0  0  0  0  0  0
  188.7400  179.1370  138.3700 O   0  0  0  0  0  0  0  0  0  0  0  0
  189.8980  176.0020  142.2230 N   0  0  0  0  0  1  0  0  0  0  0  0
  191.4320  177.1940  140.9520 O   0  0  0  0  0  0  0  0  0  0  0  0
  190.2430  176.8040  141.0970 C   0  0  0  0  0  0  0  0  0  0  0  0
  182.6790  178.9330  140.4020 C   0  0  0  0  0  2  0  0  0  0  0  0
  182.9250  177.9830  141.5630 C   0  0  0  0  0  2  0  0  0  0  0  0
  184.0010  178.5460  142.4810 C   0  0  0  0  0  2  0  0  0  0  0  0
  183.4290  178.8750  143.8540 C   0  0  0  0  0  2  0  0  0  0  0  0
  184.4590  178.7090  144.9190 C   0  0  0  0  0  0  0  0  0  0  0  0
  188.1440  177.5350  144.9880 C   0  0  0  0  0  1  0  0  0  0  0  0
  184.1780  178.9990  146.1130 O   0  0  0  0  0  0  0  0  0  0  0  0
  185.7580  178.2240  144.5650 N   0  0  0  0  0  2  0  0  0  0  0  0
  186.8060  177.9330  145.4960 C   0  0  0  0  0  0  0  0  0  0  0  0
  186.6090  177.9940  146.7390 O   0  0  0  0  0  0  0  0  0  0  0  0
  1  6  1  0  0  0  0
  2  5  1  0  0  0  0
  3  6  1  0  0  0  0
  4 11  1  0  0  0  0
  5  1  2  0  0  0  0
  7  8  2  0  0  0  0
  8 11  1  0  0  0  0
  8 13  1  0  0  0  0
  9  7  1  0  0  0  0
  9  2  1  0  0  0  0
 10  5  1  1  0  0  0
 10 13  1  0  0  0  0
 10  3  1  0  0  0  0
 12  7  1  0  0  0  0
 12  4  2  0  0  0  0
 13 25  1  0  0  0  0
 14  4  1  0  0  0  0
 14 15  1  0  0  0  0
 16 19  1  0  0  0  0
 16 24  1  1  0  0  0
 17 15  1  1  0  0  0
 17 21  1  0  0  0  0
 17 20  1  0  0  0  0
 19 18  1  0  0  0  0
 20 21  1  1  0  0  0
 20 16  1  0  0  0  0
 20 19  1  0  0  0  0
 23 24  2  0  0  0  0
 24 22  1  0  0  0  0
 25 26  1  0  0  0  0
 26 27  1  0  0  0  0
 27 28  1  0  0  0  0
 28 29  1  0  0  0  0
 29 31  2  0  0  0  0
 30 33  1  0  0  0  0
 32 29  1  0  0  0  0
 32 33  1  0  0  0  0
 33 34  2  0  0  0  0
M  END
>  <MODEL>
8

>  <REMARK>
 VINA RESULT:      -7.1      3.336      7.822
  Name = 
  9 active torsions:
  status: ('A' for Active; 'I' for Inactive)
    1  A    between atoms: C_1  and  C_9
    2  A    between atoms: C_1  and  N_13
    3  A    between atoms: C_2  and  C_10
    4  A    between atoms: C_5  and  C_12
    5  A    between atoms: C_5  and  C_30
    6  A    between atoms: C_7  and  N_13
    7  A    between atoms: C_8  and  C_34
    8  A    between atoms: C_10  and  C_12
    9  A    between atoms: C_30  and  N_32
                            x       y       z     vdW  Elec       q    Type
                         _______ _______ _______ _____ _____    ______ ____

>  <TORSDO>
F 9

$$$$
=
 OpenBabel11032421273D

 34 38  0  0  1  0  0  0  0  0999 V2000
  192.0360  178.1550  143.2510 N   0  0  0  0  0  0  0  0  0  0  0  0
  191.6270  177.4550  141.0330 N   0  0  0  0  0  2  0  0  0  0  0  0
  190.2780  176.8760  144.7750 S   0  0  0  0  0  0  0  0  0  0  0  0
  187.6430  178.1560  138.8060 C   0  0  0  0  0  0  0  0  0  0  0  0
  191.2940  177.5140  142.4180 C   0  0  0  0  0  0  0  0  0  0  0  0
  191.5820  178.1400  144.6280 C   0  0  0  0  0  2  0  0  0  0  0  0
  189.4430  177.3020  139.9860 C   0  0  0  0  0  0  0  0  0  0  0  0
  188.5890  177.6270  141.0540 C   0  0  0  0  0  0  0  0  0  0  0  0
  190.8010  176.6880  140.1130 C   0  0  0  0  0  2  0  0  0  0  0  0
  190.0890  176.8310  142.9540 C   0  0  2  0  0  3  0  0  0  0  0  0
  187.1790  178.3020  140.4160 S   0  0  0  0  0  0  0  0  0  0  0  0
  188.9070  177.5940  138.7230 C   0  0  0  0  0  3  0  0  0  0  0  0
  188.8620  177.4910  142.4690 N   0  0  0  0  0  0  0  0  0  0  0  0
  186.8730  178.5700  137.6780 N   0  0  0  0  0  2  0  0  0  0  0  0
  186.3210  177.6140  136.7340 C   0  0  0  0  0  2  0  0  0  0  0  0
  185.9940  174.9130  136.4480 C   0  0  1  0  0  3  0  0  0  0  0  0
  185.2070  176.8080  137.4140 C   0  0  2  0  0  3  0  0  0  0  0  0
  184.2070  174.0020  135.0190 C   0  0  0  0  0  1  0  0  0  0  0  0
  185.0410  175.1500  135.3690 N   0  0  0  0  0  0  0  0  0  0  0  0
  184.6630  175.5210  136.7630 C   0  0  1  0  0  0  0  0  0  0  0  0
  184.1420  176.8320  136.5570 O   0  0  0  0  0  0  0  0  0  0  0  0
  185.3510  173.0800  138.0800 N   0  0  0  0  0  1  0  0  0  0  0  0
  186.7870  172.6430  136.3090 O   0  0  0  0  0  0  0  0  0  0  0  0
  186.0960  173.4890  136.9360 C   0  0  0  0  0  0  0  0  0  0  0  0
  187.8750  178.0080  143.4160 C   0  0  0  0  0  2  0  0  0  0  0  0
  187.0230  176.8720  143.9580 C   0  0  0  0  0  2  0  0  0  0  0  0
  186.3710  177.2850  145.2690 C   0  0  0  0  0  2  0  0  0  0  0  0
  185.9170  178.7380  145.2190 C   0  0  0  0  0  2  0  0  0  0  0  0
  184.4960  178.8420  144.7820 C   0  0  0  0  0  0  0  0  0  0  0  0
  182.6560  178.5340  141.3930 C   0  0  0  0  0  1  0  0  0  0  0  0
  183.5940  179.0710  145.6320 O   0  0  0  0  0  0  0  0  0  0  0  0
  184.1760  178.6750  143.3970 N   0  0  0  0  0  2  0  0  0  0  0  0
  182.8710  178.8400  142.8310 C   0  0  0  0  0  0  0  0  0  0  0  0
  181.9070  179.2540  143.5270 O   0  0  0  0  0  0  0  0  0  0  0  0
  1  6  1  0  0  0  0
  2  5  1  0  0  0  0
  4 11  1  0  0  0  0
  5  1  2  0  0  0  0
  6  3  1  0  0  0  0
  7  9  1  0  0  0  0
  7  8  2  0  0  0  0
  8 13  1  0  0  0  0
  9  2  1  0  0  0  0
 10  5  1  6  0  0  0
 10  3  1  0  0  0  0
 11  8  1  0  0  0  0
 12  4  2  0  0  0  0
 12  7  1  0  0  0  0
 13 10  1  0  0  0  0
 13 25  1  0  0  0  0
 14  4  1  0  0  0  0
 15 14  1  0  0  0  0
 16 20  1  0  0  0  0
 16 24  1  1  0  0  0
 17 15  1  6  0  0  0
 18 19  1  0  0  0  0
 19 16  1  0  0  0  0
 19 20  1  0  0  0  0
 20 21  1  1  0  0  0
 20 17  1  0  0  0  0
 21 17  1  0  0  0  0
 23 24  2  0  0  0  0
 24 22  1  0  0  0  0
 25 26  1  0  0  0  0
 26 27  1  0  0  0  0
 28 27  1  0  0  0  0
 29 28  1  0  0  0  0
 29 31  2  0  0  0  0
 30 33  1  0  0  0  0
 32 29  1  0  0  0  0
 33 32  1  0  0  0  0
 33 34  2  0  0  0  0
M  END
>  <MODEL>
9

>  <REMARK>
 VINA RESULT:      -7.1      2.786      4.359
  Name = 
  9 active torsions:
  status: ('A' for Active; 'I' for Inactive)
    1  A    between atoms: C_1  and  C_9
    2  A    between atoms: C_1  and  N_13
    3  A    between atoms: C_2  and  C_10
    4  A    between atoms: C_5  and  C_12
    5  A    between atoms: C_5  and  C_30
    6  A    between atoms: C_7  and  N_13
    7  A    between atoms: C_8  and  C_34
    8  A    between atoms: C_10  and  C_12
    9  A    between atoms: C_30  and  N_32
                            x       y       z     vdW  Elec       q    Type
                         _______ _______ _______ _____ _____    ______ ____

>  <TORSDO>
F 9

$$$$
