=
 OpenBabel11032419343D

 31 35  0  0  1  0  0  0  0  0999 V2000
  190.9120  176.6900  138.7020 C   0  0  0  0  0  2  0  0  0  0  0  0
  190.1180  177.5360  137.6940 C   0  0  0  0  0  2  0  0  0  0  0  0
  188.8810  178.2170  138.3030 C   0  0  2  0  0  3  0  0  0  0  0  0
  190.7740  177.2320  140.1230 C   0  0  0  0  0  2  0  0  0  0  0  0
  188.3030  177.3580  139.4270 C   0  0  0  0  0  2  0  0  0  0  0  0
  189.3080  177.2310  140.5860 C   0  0  2  0  0  3  0  0  0  0  0  0
  185.7940  178.8870  138.6490 N   0  0  0  0  0  0  0  0  0  0  0  0
  186.4960  176.4390  136.1870 C   0  0  2  0  0  3  0  0  0  0  0  0
  184.6180  178.2200  138.7100 C   0  0  0  0  0  0  0  0  0  0  0  0
  188.0260  177.3900  135.7970 S   0  0  0  0  0  0  0  0  0  0  0  0
  185.8370  177.2330  137.2400 C   0  0  0  0  0  0  0  0  0  0  0  0
  184.5920  177.1340  137.8270 C   0  0  0  0  0  3  0  0  0  0  0  0
  187.8300  178.5320  137.2350 C   0  0  1  0  0  3  0  0  0  0  0  0
  186.5060  178.2520  137.7420 N   0  0  0  0  0  0  0  0  0  0  0  0
  182.7620  177.3190  140.0730 C   0  0  0  0  0  2  0  0  0  0  0  0
  183.7850  177.9250  141.0080 C   0  0  2  0  0  3  0  0  0  0  0  0
  183.0710  178.7200  142.0810 C   0  0  0  0  0  1  0  0  0  0  0  0
  183.5180  178.5690  139.6600 C   0  0  1  0  0  3  0  0  0  0  0  0
  186.9570  174.8120  136.8550 S   0  0  0  0  0  0  0  0  0  0  0  0
  188.4980  174.7600  135.8970 C   0  0  0  0  0  1  0  0  0  0  0  0
  187.7740  178.7790  141.6010 O   0  0  0  0  0  1  0  0  0  0  0  0
  189.0920  178.3100  141.6540 C   0  0  1  0  0  3  0  0  0  0  0  0
  189.4370  177.7810  143.0640 C   0  0  1  0  0  3  0  0  0  0  0  0
  190.9060  177.9720  145.0150 O   0  0  0  0  0  0  0  0  0  0  0  0
  191.7600  178.2200  143.9260 C   0  0  0  0  0  2  0  0  0  0  0  0
  190.3490  178.6770  143.9300 C   0  0  1  0  0  3  0  0  0  0  0  0
  187.7140  176.1490  143.6090 C   0  0  0  0  0  2  0  0  0  0  0  0
  188.2270  177.3540  143.8390 C   0  0  0  0  0  0  0  0  0  0  0  0
  187.6670  178.2250  144.7820 O   0  0  0  0  0  0  0  0  0  0  0  0
  185.3520  178.6450  145.2320 C   0  0  0  0  0  1  0  0  0  0  0  0
  186.5840  177.8610  145.6270 C   0  0  0  0  0  2  0  0  0  0  0  0
  1  4  1  0  0  0  0
  2  1  1  0  0  0  0
  3  2  1  6  0  0  0
  3  5  1  0  0  0  0
  4  6  1  0  0  0  0
  5  6  1  0  0  0  0
  6 22  1  1  0  0  0
  7  9  2  0  0  0  0
  8 19  1  1  0  0  0
  8 11  1  0  0  0  0
 10  8  1  0  0  0  0
 11 14  1  0  0  0  0
 11 12  2  0  0  0  0
 12  9  1  0  0  0  0
 13 10  1  6  0  0  0
 13 14  1  0  0  0  0
 13  3  1  0  0  0  0
 14  7  1  0  0  0  0
 15 16  1  0  0  0  0
 16 17  1  1  0  0  0
 18  9  1  6  0  0  0
 18 15  1  0  0  0  0
 18 16  1  0  0  0  0
 20 19  1  0  0  0  0
 22 21  1  1  0  0  0
 22 23  1  0  0  0  0
 23 28  1  1  0  0  0
 25 26  1  0  0  0  0
 25 24  1  0  0  0  0
 26 23  1  6  0  0  0
 26 24  1  0  0  0  0
 27 28  2  0  0  0  0
 28 29  1  0  0  0  0
 29 31  1  0  0  0  0
 30 31  1  0  0  0  0
M  END
>  <MODEL>
1

>  <REMARK>
 VINA RESULT:      -6.8      0.000      0.000
  Name = 
  9 active torsions:
  status: ('A' for Active; 'I' for Inactive)
    1  A    between atoms: C_4  and  S_22
    2  A    between atoms: C_10  and  C_21
    3  A    between atoms: C_13  and  C_25
    4  A    between atoms: C_16  and  C_20
    5  A    between atoms: C_16  and  C_27
    6  A    between atoms: C_17  and  C_20
    7  A    between atoms: C_17  and  O_31
    8  A    between atoms: C_20  and  C_30
    9  A    between atoms: C_29  and  O_31
                            x       y       z     vdW  Elec       q    Type
                         _______ _______ _______ _____ _____    ______ ____

>  <TORSDO>
F 9

$$$$
=
 OpenBabel11032419343D

 31 35  0  0  1  0  0  0  0  0999 V2000
  190.8850  176.4030  139.0940 C   0  0  0  0  0  2  0  0  0  0  0  0
  190.2330  177.2410  137.9830 C   0  0  0  0  0  2  0  0  0  0  0  0
  189.0580  178.1050  138.4730 C   0  0  2  0  0  3  0  0  0  0  0  0
  190.7530  177.0790  140.4580 C   0  0  0  0  0  2  0  0  0  0  0  0
  188.3420  177.4150  139.6340 C   0  0  0  0  0  2  0  0  0  0  0  0
  189.2800  177.2800  140.8470 C   0  0  2  0  0  3  0  0  0  0  0  0
  185.9590  178.7930  138.5920 N   0  0  0  0  0  0  0  0  0  0  0  0
  186.8300  176.3690  136.1600 C   0  0  2  0  0  3  0  0  0  0  0  0
  184.7770  178.1330  138.5550 C   0  0  0  0  0  0  0  0  0  0  0  0
  188.3910  177.3130  135.8990 S   0  0  0  0  0  0  0  0  0  0  0  0
  186.0980  177.1560  137.1700 C   0  0  0  0  0  0  0  0  0  0  0  0
  184.8110  177.0590  137.6600 C   0  0  0  0  0  3  0  0  0  0  0  0
  188.0940  178.4410  137.3320 C   0  0  1  0  0  3  0  0  0  0  0  0
  186.7330  178.1630  137.7330 N   0  0  0  0  0  0  0  0  0  0  0  0
  182.8640  177.2220  139.8280 C   0  0  0  0  0  2  0  0  0  0  0  0
  183.8090  177.8840  140.8060 C   0  0  2  0  0  3  0  0  0  0  0  0
  183.0080  178.6900  141.8060 C   0  0  0  0  0  1  0  0  0  0  0  0
  183.6100  178.4790  139.4240 C   0  0  1  0  0  3  0  0  0  0  0  0
  187.2280  174.7310  136.8410 S   0  0  0  0  0  0  0  0  0  0  0  0
  188.6280  174.5060  135.7070 C   0  0  0  0  0  1  0  0  0  0  0  0
  187.9900  179.1960  141.5130 O   0  0  0  0  0  1  0  0  0  0  0  0
  189.1460  178.4640  141.8110 C   0  0  1  0  0  3  0  0  0  0  0  0
  189.1410  177.9920  143.2820 C   0  0  1  0  0  3  0  0  0  0  0  0
  187.7900  176.6930  144.8600 O   0  0  0  0  0  0  0  0  0  0  0  0
  186.9260  176.9030  143.7700 C   0  0  0  0  0  2  0  0  0  0  0  0
  188.3800  176.6820  143.5810 C   0  0  1  0  0  3  0  0  0  0  0  0
  191.2300  179.0740  143.9080 C   0  0  0  0  0  2  0  0  0  0  0  0
  190.5110  177.9560  143.8890 C   0  0  0  0  0  0  0  0  0  0  0  0
  191.0020  176.7550  144.4170 O   0  0  0  0  0  0  0  0  0  0  0  0
  190.6000  176.8910  146.7760 C   0  0  0  0  0  1  0  0  0  0  0  0
  191.6300  176.6680  145.6890 C   0  0  0  0  0  2  0  0  0  0  0  0
  1  4  1  0  0  0  0
  2  1  1  0  0  0  0
  3  2  1  6  0  0  0
  3  5  1  0  0  0  0
  4  6  1  0  0  0  0
  5  6  1  0  0  0  0
  6 22  1  1  0  0  0
  8 19  1  1  0  0  0
  8 11  1  0  0  0  0
  9  7  2  0  0  0  0
 10  8  1  0  0  0  0
 11 12  2  0  0  0  0
 11 14  1  0  0  0  0
 12  9  1  0  0  0  0
 13 10  1  6  0  0  0
 13 14  1  0  0  0  0
 13  3  1  0  0  0  0
 14  7  1  0  0  0  0
 15 16  1  0  0  0  0
 16 17  1  1  0  0  0
 18  9  1  6  0  0  0
 18 15  1  0  0  0  0
 18 16  1  0  0  0  0
 20 19  1  0  0  0  0
 22 21  1  6  0  0  0
 22 23  1  0  0  0  0
 23 28  1  6  0  0  0
 25 24  1  0  0  0  0
 26 23  1  1  0  0  0
 26 25  1  0  0  0  0
 26 24  1  0  0  0  0
 28 27  2  0  0  0  0
 28 29  1  0  0  0  0
 29 31  1  0  0  0  0
 31 30  1  0  0  0  0
M  END
>  <MODEL>
2

>  <REMARK>
 VINA RESULT:      -6.6      0.926      2.176
  Name = 
  9 active torsions:
  status: ('A' for Active; 'I' for Inactive)
    1  A    between atoms: C_4  and  S_22
    2  A    between atoms: C_10  and  C_21
    3  A    between atoms: C_13  and  C_25
    4  A    between atoms: C_16  and  C_20
    5  A    between atoms: C_16  and  C_27
    6  A    between atoms: C_17  and  C_20
    7  A    between atoms: C_17  and  O_31
    8  A    between atoms: C_20  and  C_30
    9  A    between atoms: C_29  and  O_31
                            x       y       z     vdW  Elec       q    Type
                         _______ _______ _______ _____ _____    ______ ____

>  <TORSDO>
F 9

$$$$
=
 OpenBabel11032419343D

 31 35  0  0  1  0  0  0  0  0999 V2000
  185.1480  179.1350  141.0230 C   0  0  0  0  0  2  0  0  0  0  0  0
  185.4840  178.5850  139.6270 C   0  0  0  0  0  2  0  0  0  0  0  0
  186.9220  178.0540  139.5050 C   0  0  2  0  0  3  0  0  0  0  0  0
  185.9610  178.4370  142.1120 C   0  0  0  0  0  2  0  0  0  0  0  0
  187.8560  178.8410  140.4240 C   0  0  0  0  0  2  0  0  0  0  0  0
  187.4710  178.6310  141.8990 C   0  0  2  0  0  3  0  0  0  0  0  0
  186.4740  175.9140  137.1990 N   0  0  0  0  0  0  0  0  0  0  0  0
  189.8270  176.9960  137.5630 C   0  0  2  0  0  3  0  0  0  0  0  0
  187.0810  174.8010  136.7240 C   0  0  0  0  0  0  0  0  0  0  0  0
  189.1570  178.6620  137.9770 S   0  0  0  0  0  0  0  0  0  0  0  0
  188.6280  176.1870  137.2760 C   0  0  0  0  0  0  0  0  0  0  0  0
  188.4750  174.9170  136.7580 C   0  0  0  0  0  3  0  0  0  0  0  0
  187.4070  178.0750  138.0530 C   0  0  1  0  0  3  0  0  0  0  0  0
  187.4540  176.7310  137.5240 N   0  0  0  0  0  0  0  0  0  0  0  0
  186.9400  172.3410  136.9280 C   0  0  0  0  0  2  0  0  0  0  0  0
  185.6640  172.9360  137.4830 C   0  0  2  0  0  3  0  0  0  0  0  0
  184.4820  172.1220  136.9990 C   0  0  0  0  0  1  0  0  0  0  0  0
  186.3410  173.5790  136.2860 C   0  0  1  0  0  3  0  0  0  0  0  0
  190.6830  176.3170  139.0170 S   0  0  0  0  0  0  0  0  0  0  0  0
  192.2990  176.3580  138.1910 C   0  0  0  0  0  1  0  0  0  0  0  0
  189.3840  177.1810  141.7740 O   0  0  0  0  0  1  0  0  0  0  0  0
  188.2460  177.4720  142.5360 C   0  0  1  0  0  3  0  0  0  0  0  0
  188.6250  177.7880  144.0000 C   0  0  1  0  0  3  0  0  0  0  0  0
  187.9760  177.6070  146.3560 O   0  0  0  0  0  0  0  0  0  0  0  0
  186.7530  177.7720  145.6820 C   0  0  0  0  0  2  0  0  0  0  0  0
  187.8700  176.9960  145.0910 C   0  0  1  0  0  3  0  0  0  0  0  0
  190.8150  178.8490  144.0520 C   0  0  0  0  0  2  0  0  0  0  0  0
  190.1030  177.7430  144.2440 C   0  0  0  0  0  0  0  0  0  0  0  0
  190.6980  176.5470  144.6660 O   0  0  0  0  0  0  0  0  0  0  0  0
  191.1620  176.5520  147.0170 C   0  0  0  0  0  1  0  0  0  0  0  0
  191.7480  176.4990  145.6220 C   0  0  0  0  0  2  0  0  0  0  0  0
  1  4  1  0  0  0  0
  2  1  1  0  0  0  0
  3  2  1  6  0  0  0
  3  5  1  0  0  0  0
  5  6  1  0  0  0  0
  6  4  1  0  0  0  0
  6 22  1  6  0  0  0
  7 14  1  0  0  0  0
  8 10  1  0  0  0  0
  8 19  1  1  0  0  0
  9 12  1  0  0  0  0
  9  7  2  0  0  0  0
 11 14  1  0  0  0  0
 11  8  1  0  0  0  0
 12 11  2  0  0  0  0
 13 10  1  1  0  0  0
 13  3  1  0  0  0  0
 14 13  1  0  0  0  0
 15 16  1  0  0  0  0
 16 17  1  6  0  0  0
 18  9  1  1  0  0  0
 18 15  1  0  0  0  0
 18 16  1  0  0  0  0
 20 19  1  0  0  0  0
 22 21  1  6  0  0  0
 22 23  1  0  0  0  0
 23 28  1  6  0  0  0
 25 24  1  0  0  0  0
 26 23  1  6  0  0  0
 26 25  1  0  0  0  0
 26 24  1  0  0  0  0
 27 28  2  0  0  0  0
 28 29  1  0  0  0  0
 29 31  1  0  0  0  0
 31 30  1  0  0  0  0
M  END
>  <MODEL>
3

>  <REMARK>
 VINA RESULT:      -6.5      2.222      4.458
  Name = 
  9 active torsions:
  status: ('A' for Active; 'I' for Inactive)
    1  A    between atoms: C_4  and  S_22
    2  A    between atoms: C_10  and  C_21
    3  A    between atoms: C_13  and  C_25
    4  A    between atoms: C_16  and  C_20
    5  A    between atoms: C_16  and  C_27
    6  A    between atoms: C_17  and  C_20
    7  A    between atoms: C_17  and  O_31
    8  A    between atoms: C_20  and  C_30
    9  A    between atoms: C_29  and  O_31
                            x       y       z     vdW  Elec       q    Type
                         _______ _______ _______ _____ _____    ______ ____

>  <TORSDO>
F 9

$$$$
=
 OpenBabel11032419343D

 31 35  0  0  1  0  0  0  0  0999 V2000
  185.3350  179.1770  141.6070 C   0  0  0  0  0  2  0  0  0  0  0  0
  185.5750  178.7420  140.1520 C   0  0  0  0  0  2  0  0  0  0  0  0
  186.9470  178.0850  139.9240 C   0  0  2  0  0  3  0  0  0  0  0  0
  186.1010  178.2940  142.5900 C   0  0  0  0  0  2  0  0  0  0  0  0
  187.9820  178.6770  140.8820 C   0  0  0  0  0  2  0  0  0  0  0  0
  187.6170  178.3570  142.3420 C   0  0  2  0  0  3  0  0  0  0  0  0
  186.4720  176.0860  137.5010 N   0  0  0  0  0  0  0  0  0  0  0  0
  189.8160  177.2040  137.8450 C   0  0  2  0  0  3  0  0  0  0  0  0
  187.0840  175.0170  136.9400 C   0  0  0  0  0  0  0  0  0  0  0  0
  189.1290  178.8280  138.3810 S   0  0  0  0  0  0  0  0  0  0  0  0
  188.6220  176.3930  137.5390 C   0  0  0  0  0  0  0  0  0  0  0  0
  188.4760  175.1550  136.9460 C   0  0  0  0  0  3  0  0  0  0  0  0
  187.3920  178.2060  138.4640 C   0  0  1  0  0  3  0  0  0  0  0  0
  187.4470  176.8990  137.8510 N   0  0  0  0  0  0  0  0  0  0  0  0
  186.9950  172.5470  136.9820 C   0  0  0  0  0  2  0  0  0  0  0  0
  185.7280  173.0760  137.6170 C   0  0  2  0  0  3  0  0  0  0  0  0
  184.5460  172.2710  137.1180 C   0  0  0  0  0  1  0  0  0  0  0  0
  186.3510  173.8110  136.4450 C   0  0  1  0  0  3  0  0  0  0  0  0
  190.7210  176.4500  139.2300 S   0  0  0  0  0  0  0  0  0  0  0  0
  192.1450  176.0340  138.1840 C   0  0  0  0  0  1  0  0  0  0  0  0
  188.8480  176.3790  141.7500 O   0  0  0  0  0  1  0  0  0  0  0  0
  188.2850  177.0670  142.8320 C   0  0  1  0  0  3  0  0  0  0  0  0
  189.3460  177.3610  143.9160 C   0  0  1  0  0  3  0  0  0  0  0  0
  191.5020  178.4310  144.3760 O   0  0  0  0  0  0  0  0  0  0  0  0
  191.5810  178.0860  143.0150 C   0  0  0  0  0  2  0  0  0  0  0  0
  190.3100  178.5350  143.6330 C   0  0  1  0  0  3  0  0  0  0  0  0
  189.3950  176.9050  146.3070 C   0  0  0  0  0  2  0  0  0  0  0  0
  188.7600  177.4800  145.2900 C   0  0  0  0  0  0  0  0  0  0  0  0
  187.5650  178.1870  145.4730 O   0  0  0  0  0  0  0  0  0  0  0  0
  185.3060  178.5370  146.1920 C   0  0  0  0  0  1  0  0  0  0  0  0
  186.6350  177.8840  146.5040 C   0  0  0  0  0  2  0  0  0  0  0  0
  1  4  1  0  0  0  0
  2  1  1  0  0  0  0
  3  2  1  6  0  0  0
  3  5  1  0  0  0  0
  5  6  1  0  0  0  0
  6  4  1  0  0  0  0
  6 22  1  6  0  0  0
  7 14  1  0  0  0  0
  8 10  1  0  0  0  0
  8 19  1  1  0  0  0
  9 12  1  0  0  0  0
  9  7  2  0  0  0  0
 11  8  1  0  0  0  0
 11 14  1  0  0  0  0
 12 11  2  0  0  0  0
 13 10  1  1  0  0  0
 13  3  1  0  0  0  0
 14 13  1  0  0  0  0
 15 16  1  0  0  0  0
 16 17  1  6  0  0  0
 18  9  1  1  0  0  0
 18 15  1  0  0  0  0
 18 16  1  0  0  0  0
 20 19  1  0  0  0  0
 22 21  1  6  0  0  0
 22 23  1  0  0  0  0
 23 28  1  1  0  0  0
 25 26  1  0  0  0  0
 25 24  1  0  0  0  0
 26 23  1  1  0  0  0
 26 24  1  0  0  0  0
 28 29  1  0  0  0  0
 28 27  2  0  0  0  0
 29 31  1  0  0  0  0
 30 31  1  0  0  0  0
M  END
>  <MODEL>
4

>  <REMARK>
 VINA RESULT:      -6.4      2.155      3.921
  Name = 
  9 active torsions:
  status: ('A' for Active; 'I' for Inactive)
    1  A    between atoms: C_4  and  S_22
    2  A    between atoms: C_10  and  C_21
    3  A    between atoms: C_13  and  C_25
    4  A    between atoms: C_16  and  C_20
    5  A    between atoms: C_16  and  C_27
    6  A    between atoms: C_17  and  C_20
    7  A    between atoms: C_17  and  O_31
    8  A    between atoms: C_20  and  C_30
    9  A    between atoms: C_29  and  O_31
                            x       y       z     vdW  Elec       q    Type
                         _______ _______ _______ _____ _____    ______ ____

>  <TORSDO>
F 9

$$$$
=
 OpenBabel11032419343D

 31 35  0  0  1  0  0  0  0  0999 V2000
  187.5910  178.5330  140.2740 C   0  0  0  0  0  2  0  0  0  0  0  0
  188.0220  178.0350  141.6620 C   0  0  0  0  0  2  0  0  0  0  0  0
  189.2560  177.1180  141.6320 C   0  0  2  0  0  3  0  0  0  0  0  0
  188.7800  178.6310  139.3190 C   0  0  0  0  0  2  0  0  0  0  0  0
  189.2920  176.3230  140.3260 C   0  0  0  0  0  2  0  0  0  0  0  0
  189.4570  177.2650  139.1210 C   0  0  2  0  0  3  0  0  0  0  0  0
  187.2000  176.8620  144.0400 N   0  0  0  0  0  0  0  0  0  0  0  0
  190.5900  177.1340  145.0300 C   0  0  2  0  0  3  0  0  0  0  0  0
  186.9950  177.4230  145.2550 C   0  0  0  0  0  0  0  0  0  0  0  0
  191.0190  176.1400  143.5380 S   0  0  0  0  0  0  0  0  0  0  0  0
  189.1180  177.2140  144.9980 C   0  0  0  0  0  0  0  0  0  0  0  0
  188.2000  177.6820  145.9170 C   0  0  0  0  0  3  0  0  0  0  0  0
  189.3040  176.1980  142.8550 C   0  0  1  0  0  3  0  0  0  0  0  0
  188.5070  176.7540  143.9260 N   0  0  0  0  0  0  0  0  0  0  0  0
  185.6800  179.1450  146.4460 C   0  0  0  0  0  2  0  0  0  0  0  0
  185.1170  179.0030  145.0500 C   0  0  2  0  0  3  0  0  0  0  0  0
  183.6040  179.0030  145.1190 C   0  0  0  0  0  1  0  0  0  0  0  0
  185.6420  177.7810  145.7820 C   0  0  1  0  0  3  0  0  0  0  0  0
  191.2920  178.8030  144.8590 S   0  0  0  0  0  0  0  0  0  0  0  0
  192.0550  178.4100  143.2600 C   0  0  0  0  0  1  0  0  0  0  0  0
  191.7510  177.1510  139.8310 O   0  0  0  0  0  1  0  0  0  0  0  0
  190.9290  177.4570  138.7390 C   0  0  1  0  0  3  0  0  0  0  0  0
  191.3050  176.6060  137.5060 C   0  0  1  0  0  3  0  0  0  0  0  0
  192.7680  174.8460  136.6300 O   0  0  0  0  0  0  0  0  0  0  0  0
  193.5610  175.4950  137.5930 C   0  0  0  0  0  2  0  0  0  0  0  0
  192.1010  175.3110  137.7810 C   0  0  1  0  0  3  0  0  0  0  0  0
  189.5850  175.1160  136.6410 C   0  0  0  0  0  2  0  0  0  0  0  0
  190.1350  176.3260  136.6110 C   0  0  0  0  0  0  0  0  0  0  0  0
  189.6510  177.3350  135.7700 O   0  0  0  0  0  0  0  0  0  0  0  0
  187.3990  178.1240  135.9950 C   0  0  0  0  0  1  0  0  0  0  0  0
  188.3610  177.2930  135.1730 C   0  0  0  0  0  2  0  0  0  0  0  0
  1  2  1  0  0  0  0
  3  5  1  6  0  0  0
  3  2  1  0  0  0  0
  3 13  1  0  0  0  0
  4  1  1  0  0  0  0
  6 22  1  1  0  0  0
  6  4  1  0  0  0  0
  6  5  1  0  0  0  0
  7  9  2  0  0  0  0
  8 19  1  6  0  0  0
  9 12  1  0  0  0  0
 10  8  1  0  0  0  0
 11  8  1  0  0  0  0
 11 12  2  0  0  0  0
 13 10  1  1  0  0  0
 13 14  1  0  0  0  0
 14  7  1  0  0  0  0
 14 11  1  0  0  0  0
 16 17  1  1  0  0  0
 16 18  1  0  0  0  0
 16 15  1  0  0  0  0
 18  9  1  6  0  0  0
 18 15  1  0  0  0  0
 20 19  1  0  0  0  0
 22 21  1  1  0  0  0
 23 28  1  1  0  0  0
 23 22  1  0  0  0  0
 24 25  1  0  0  0  0
 24 26  1  0  0  0  0
 25 26  1  0  0  0  0
 26 23  1  6  0  0  0
 28 27  2  0  0  0  0
 29 28  1  0  0  0  0
 31 29  1  0  0  0  0
 31 30  1  0  0  0  0
M  END
>  <MODEL>
5

>  <REMARK>
 VINA RESULT:      -5.8      3.712      6.963
  Name = 
  9 active torsions:
  status: ('A' for Active; 'I' for Inactive)
    1  A    between atoms: C_4  and  S_22
    2  A    between atoms: C_10  and  C_21
    3  A    between atoms: C_13  and  C_25
    4  A    between atoms: C_16  and  C_20
    5  A    between atoms: C_16  and  C_27
    6  A    between atoms: C_17  and  C_20
    7  A    between atoms: C_17  and  O_31
    8  A    between atoms: C_20  and  C_30
    9  A    between atoms: C_29  and  O_31
                            x       y       z     vdW  Elec       q    Type
                         _______ _______ _______ _____ _____    ______ ____

>  <TORSDO>
F 9

$$$$
=
 OpenBabel11032419343D

 31 35  0  0  1  0  0  0  0  0999 V2000
  186.1770  176.2180  136.7590 C   0  0  0  0  0  2  0  0  0  0  0  0
  185.2570  177.4270  136.9890 C   0  0  0  0  0  2  0  0  0  0  0  0
  185.8030  178.4290  138.0210 C   0  0  2  0  0  3  0  0  0  0  0  0
  187.6430  176.5730  137.0010 C   0  0  0  0  0  2  0  0  0  0  0  0
  186.6320  177.7000  139.0780 C   0  0  0  0  0  2  0  0  0  0  0  0
  187.8760  177.0530  138.4430 C   0  0  2  0  0  3  0  0  0  0  0  0
  185.4690  179.4130  141.0230 N   0  0  0  0  0  0  0  0  0  0  0  0
  182.5810  177.8880  139.6510 C   0  0  2  0  0  3  0  0  0  0  0  0
  184.9310  178.9590  142.1790 C   0  0  0  0  0  0  0  0  0  0  0  0
  183.0390  178.6620  138.0420 S   0  0  0  0  0  0  0  0  0  0  0  0
  183.6180  178.3630  140.5860 C   0  0  0  0  0  0  0  0  0  0  0  0
  183.7370  178.2640  141.9580 C   0  0  0  0  0  3  0  0  0  0  0  0
  184.6790  179.2540  138.6520 C   0  0  1  0  0  3  0  0  0  0  0  0
  184.6360  179.0270  140.0790 N   0  0  0  0  0  0  0  0  0  0  0  0
  184.6450  178.6680  144.6180 C   0  0  0  0  0  2  0  0  0  0  0  0
  185.7730  177.7680  144.1630 C   0  0  2  0  0  3  0  0  0  0  0  0
  186.9120  177.8550  145.1570 C   0  0  0  0  0  1  0  0  0  0  0  0
  185.5810  179.1270  143.5150 C   0  0  1  0  0  3  0  0  0  0  0  0
  182.6890  176.0790  139.4960 S   0  0  0  0  0  0  0  0  0  0  0  0
  181.2520  176.0040  138.3880 C   0  0  0  0  0  1  0  0  0  0  0  0
  188.6830  179.3140  138.5640 O   0  0  0  0  0  1  0  0  0  0  0  0
  189.0970  177.9780  138.5010 C   0  0  1  0  0  3  0  0  0  0  0  0
  190.0130  177.6230  139.6930 C   0  0  1  0  0  3  0  0  0  0  0  0
  190.1110  177.2440  142.1110 O   0  0  0  0  0  0  0  0  0  0  0  0
  189.0470  178.1500  141.9560 C   0  0  0  0  0  2  0  0  0  0  0  0
  189.3140  177.0840  140.9600 C   0  0  1  0  0  3  0  0  0  0  0  0
  192.3970  177.1400  139.5800 C   0  0  0  0  0  2  0  0  0  0  0  0
  191.1600  176.7380  139.3050 C   0  0  0  0  0  0  0  0  0  0  0  0
  190.9060  175.5170  138.6680 O   0  0  0  0  0  0  0  0  0  0  0  0
  191.3050  175.9230  136.3410 C   0  0  0  0  0  1  0  0  0  0  0  0
  191.6420  175.0640  137.5410 C   0  0  0  0  0  2  0  0  0  0  0  0
  1  2  1  0  0  0  0
  1  4  1  0  0  0  0
  3  2  1  6  0  0  0
  3 13  1  0  0  0  0
  3  5  1  0  0  0  0
  4  6  1  0  0  0  0
  6 22  1  6  0  0  0
  6  5  1  0  0  0  0
  7  9  2  0  0  0  0
  8 19  1  6  0  0  0
  8 11  1  0  0  0  0
 10  8  1  0  0  0  0
 11 12  2  0  0  0  0
 12  9  1  0  0  0  0
 13 10  1  6  0  0  0
 13 14  1  0  0  0  0
 14 11  1  0  0  0  0
 14  7  1  0  0  0  0
 16 15  1  0  0  0  0
 16 17  1  1  0  0  0
 18  9  1  6  0  0  0
 18 16  1  0  0  0  0
 18 15  1  0  0  0  0
 20 19  1  0  0  0  0
 22 21  1  1  0  0  0
 22 23  1  0  0  0  0
 23 28  1  6  0  0  0
 25 24  1  0  0  0  0
 26 23  1  6  0  0  0
 26 25  1  0  0  0  0
 26 24  1  0  0  0  0
 28 27  2  0  0  0  0
 29 28  1  0  0  0  0
 30 31  1  0  0  0  0
 31 29  1  0  0  0  0
M  END
>  <MODEL>
6

>  <REMARK>
 VINA RESULT:      -5.8      2.265      5.110
  Name = 
  9 active torsions:
  status: ('A' for Active; 'I' for Inactive)
    1  A    between atoms: C_4  and  S_22
    2  A    between atoms: C_10  and  C_21
    3  A    between atoms: C_13  and  C_25
    4  A    between atoms: C_16  and  C_20
    5  A    between atoms: C_16  and  C_27
    6  A    between atoms: C_17  and  C_20
    7  A    between atoms: C_17  and  O_31
    8  A    between atoms: C_20  and  C_30
    9  A    between atoms: C_29  and  O_31
                            x       y       z     vdW  Elec       q    Type
                         _______ _______ _______ _____ _____    ______ ____

>  <TORSDO>
F 9

$$$$
=
 OpenBabel11032419343D

 31 35  0  0  1  0  0  0  0  0999 V2000
  188.0570  178.6050  140.0830 C   0  0  0  0  0  2  0  0  0  0  0  0
  188.4050  178.0840  141.4870 C   0  0  0  0  0  2  0  0  0  0  0  0
  189.5380  177.0430  141.4950 C   0  0  2  0  0  3  0  0  0  0  0  0
  189.2690  178.5650  139.1540 C   0  0  0  0  0  2  0  0  0  0  0  0
  189.5180  176.2310  140.2000 C   0  0  0  0  0  2  0  0  0  0  0  0
  189.8050  177.1340  138.9870 C   0  0  2  0  0  3  0  0  0  0  0  0
  187.2460  176.8080  143.6830 N   0  0  0  0  0  0  0  0  0  0  0  0
  190.5150  177.1160  145.0120 C   0  0  2  0  0  3  0  0  0  0  0  0
  186.9140  177.3840  144.8620 C   0  0  0  0  0  0  0  0  0  0  0  0
  191.1000  176.1040  143.5860 S   0  0  0  0  0  0  0  0  0  0  0  0
  189.0530  177.1860  144.8280 C   0  0  0  0  0  0  0  0  0  0  0  0
  188.0430  177.6600  145.6400 C   0  0  0  0  0  3  0  0  0  0  0  0
  189.4630  176.1420  142.7300 C   0  0  1  0  0  3  0  0  0  0  0  0
  188.5580  176.7060  143.7050 N   0  0  0  0  0  0  0  0  0  0  0  0
  185.4990  179.0080  146.0770 C   0  0  0  0  0  2  0  0  0  0  0  0
  185.1350  179.0680  144.6100 C   0  0  2  0  0  3  0  0  0  0  0  0
  183.6290  179.1350  144.4720 C   0  0  0  0  0  1  0  0  0  0  0  0
  185.5120  177.7410  145.2410 C   0  0  1  0  0  3  0  0  0  0  0  0
  191.2210  178.7870  144.8890 S   0  0  0  0  0  0  0  0  0  0  0  0
  192.0560  178.4110  143.3220 C   0  0  0  0  0  1  0  0  0  0  0  0
  192.0510  177.4580  139.7790 O   0  0  0  0  0  1  0  0  0  0  0  0
  191.2970  177.1670  138.6360 C   0  0  1  0  0  3  0  0  0  0  0  0
  191.7520  175.8380  137.9940 C   0  0  1  0  0  3  0  0  0  0  0  0
  191.2850  174.0160  136.4230 O   0  0  0  0  0  0  0  0  0  0  0  0
  190.1220  174.0880  137.2110 C   0  0  0  0  0  2  0  0  0  0  0  0
  190.8830  175.3030  136.8330 C   0  0  1  0  0  3  0  0  0  0  0  0
  193.5510  176.3810  136.4460 C   0  0  0  0  0  2  0  0  0  0  0  0
  193.2010  175.8410  137.6100 C   0  0  0  0  0  0  0  0  0  0  0  0
  194.1470  175.2790  138.4770 O   0  0  0  0  0  0  0  0  0  0  0  0
  196.1640  174.1380  139.0860 C   0  0  0  0  0  1  0  0  0  0  0  0
  195.0290  174.2350  138.0890 C   0  0  0  0  0  2  0  0  0  0  0  0
  1  2  1  0  0  0  0
  2  3  1  0  0  0  0
  3  5  1  6  0  0  0
  3 13  1  0  0  0  0
  4  1  1  0  0  0  0
  6 22  1  1  0  0  0
  6  4  1  0  0  0  0
  6  5  1  0  0  0  0
  7 14  1  0  0  0  0
  7  9  2  0  0  0  0
  8 19  1  6  0  0  0
  9 12  1  0  0  0  0
 10  8  1  0  0  0  0
 11  8  1  0  0  0  0
 11 12  2  0  0  0  0
 13 10  1  1  0  0  0
 13 14  1  0  0  0  0
 14 11  1  0  0  0  0
 16 17  1  1  0  0  0
 16 18  1  0  0  0  0
 16 15  1  0  0  0  0
 18  9  1  6  0  0  0
 18 15  1  0  0  0  0
 20 19  1  0  0  0  0
 22 21  1  1  0  0  0
 23 28  1  6  0  0  0
 23 22  1  0  0  0  0
 24 26  1  0  0  0  0
 24 25  1  0  0  0  0
 26 25  1  0  0  0  0
 26 23  1  1  0  0  0
 27 28  2  0  0  0  0
 28 29  1  0  0  0  0
 31 29  1  0  0  0  0
 31 30  1  0  0  0  0
M  END
>  <MODEL>
7

>  <REMARK>
 VINA RESULT:      -5.8      3.971      7.296
  Name = 
  9 active torsions:
  status: ('A' for Active; 'I' for Inactive)
    1  A    between atoms: C_4  and  S_22
    2  A    between atoms: C_10  and  C_21
    3  A    between atoms: C_13  and  C_25
    4  A    between atoms: C_16  and  C_20
    5  A    between atoms: C_16  and  C_27
    6  A    between atoms: C_17  and  C_20
    7  A    between atoms: C_17  and  O_31
    8  A    between atoms: C_20  and  C_30
    9  A    between atoms: C_29  and  O_31
                            x       y       z     vdW  Elec       q    Type
                         _______ _______ _______ _____ _____    ______ ____

>  <TORSDO>
F 9

$$$$
=
 OpenBabel11032419343D

 31 35  0  0  1  0  0  0  0  0999 V2000
  191.2810  177.5150  140.0030 C   0  0  0  0  0  2  0  0  0  0  0  0
  191.0870  176.5490  141.1830 C   0  0  0  0  0  2  0  0  0  0  0  0
  189.6310  176.4590  141.6710 C   0  0  2  0  0  3  0  0  0  0  0  0
  190.0210  177.6150  139.1450 C   0  0  0  0  0  2  0  0  0  0  0  0
  188.9190  177.7950  141.4600 C   0  0  0  0  0  2  0  0  0  0  0  0
  188.8240  178.1290  139.9600 C   0  0  2  0  0  3  0  0  0  0  0  0
  187.2250  176.6930  143.7330 N   0  0  0  0  0  0  0  0  0  0  0  0
  190.3530  177.7700  145.0010 C   0  0  2  0  0  3  0  0  0  0  0  0
  186.7610  177.5790  144.6450 C   0  0  0  0  0  0  0  0  0  0  0  0
  191.1250  176.4230  144.0080 S   0  0  0  0  0  0  0  0  0  0  0  0
  188.9070  177.6160  144.7530 C   0  0  0  0  0  0  0  0  0  0  0  0
  187.8040  178.2130  145.3290 C   0  0  0  0  0  3  0  0  0  0  0  0
  189.5550  176.0020  143.1300 C   0  0  1  0  0  3  0  0  0  0  0  0
  188.5370  176.7480  143.8340 N   0  0  0  0  0  0  0  0  0  0  0  0
  185.1380  179.0360  145.8090 C   0  0  0  0  0  2  0  0  0  0  0  0
  185.0090  179.2780  144.3210 C   0  0  2  0  0  3  0  0  0  0  0  0
  183.5420  179.3590  143.9540 C   0  0  0  0  0  1  0  0  0  0  0  0
  185.3100  177.8830  144.8370 C   0  0  1  0  0  3  0  0  0  0  0  0
  190.9090  179.3780  144.3620 S   0  0  0  0  0  0  0  0  0  0  0  0
  192.2700  178.6300  143.4220 C   0  0  0  0  0  1  0  0  0  0  0  0
  186.5320  178.6260  139.4320 O   0  0  0  0  0  1  0  0  0  0  0  0
  187.5120  177.6300  139.3430 C   0  0  1  0  0  3  0  0  0  0  0  0
  187.7160  177.1820  137.8790 C   0  0  1  0  0  3  0  0  0  0  0  0
  187.8640  175.3470  136.2620 O   0  0  0  0  0  0  0  0  0  0  0  0
  188.7870  174.9900  137.2610 C   0  0  0  0  0  2  0  0  0  0  0  0
  187.5140  175.6780  137.5860 C   0  0  1  0  0  3  0  0  0  0  0  0
  187.5740  179.0140  136.2820 C   0  0  0  0  0  2  0  0  0  0  0  0
  186.9480  178.0170  136.9000 C   0  0  0  0  0  0  0  0  0  0  0  0
  185.5980  177.7330  136.6580 O   0  0  0  0  0  0  0  0  0  0  0  0
  183.6160  177.1000  135.4690 C   0  0  0  0  0  1  0  0  0  0  0  0
  185.1230  177.2240  135.4190 C   0  0  0  0  0  2  0  0  0  0  0  0
  1  2  1  0  0  0  0
  3  2  1  1  0  0  0
  3 13  1  0  0  0  0
  4  6  1  0  0  0  0
  4  1  1  0  0  0  0
  5  3  1  0  0  0  0
  6 22  1  6  0  0  0
  6  5  1  0  0  0  0
  7 14  1  0  0  0  0
  7  9  2  0  0  0  0
  8 19  1  6  0  0  0
  9 12  1  0  0  0  0
 10  8  1  0  0  0  0
 11  8  1  0  0  0  0
 11 12  2  0  0  0  0
 13 14  1  0  0  0  0
 13 10  1  1  0  0  0
 14 11  1  0  0  0  0
 16 17  1  1  0  0  0
 16 18  1  0  0  0  0
 16 15  1  0  0  0  0
 18  9  1  6  0  0  0
 18 15  1  0  0  0  0
 20 19  1  0  0  0  0
 22 21  1  6  0  0  0
 23 28  1  6  0  0  0
 23 22  1  0  0  0  0
 24 25  1  0  0  0  0
 24 26  1  0  0  0  0
 25 26  1  0  0  0  0
 26 23  1  6  0  0  0
 27 28  2  0  0  0  0
 29 28  1  0  0  0  0
 31 30  1  0  0  0  0
 31 29  1  0  0  0  0
M  END
>  <MODEL>
8

>  <REMARK>
 VINA RESULT:      -5.5      3.608      6.777
  Name = 
  9 active torsions:
  status: ('A' for Active; 'I' for Inactive)
    1  A    between atoms: C_4  and  S_22
    2  A    between atoms: C_10  and  C_21
    3  A    between atoms: C_13  and  C_25
    4  A    between atoms: C_16  and  C_20
    5  A    between atoms: C_16  and  C_27
    6  A    between atoms: C_17  and  C_20
    7  A    between atoms: C_17  and  O_31
    8  A    between atoms: C_20  and  C_30
    9  A    between atoms: C_29  and  O_31
                            x       y       z     vdW  Elec       q    Type
                         _______ _______ _______ _____ _____    ______ ____

>  <TORSDO>
F 9

$$$$
=
 OpenBabel11032419343D

 31 35  0  0  1  0  0  0  0  0999 V2000
  185.9940  176.2010  136.4430 C   0  0  0  0  0  2  0  0  0  0  0  0
  185.1350  177.4430  136.7250 C   0  0  0  0  0  2  0  0  0  0  0  0
  185.6830  178.3260  137.8600 C   0  0  2  0  0  3  0  0  0  0  0  0
  187.4630  176.4450  136.7840 C   0  0  0  0  0  2  0  0  0  0  0  0
  186.4100  177.4670  138.8940 C   0  0  0  0  0  2  0  0  0  0  0  0
  187.6460  176.7960  138.2690 C   0  0  2  0  0  3  0  0  0  0  0  0
  185.4270  179.3800  140.8460 N   0  0  0  0  0  0  0  0  0  0  0  0
  182.5030  177.8280  139.5850 C   0  0  2  0  0  3  0  0  0  0  0  0
  184.9190  178.9540  142.0270 C   0  0  0  0  0  0  0  0  0  0  0  0
  182.9200  178.5650  137.9470 S   0  0  0  0  0  0  0  0  0  0  0  0
  183.5640  178.3230  140.4820 C   0  0  0  0  0  0  0  0  0  0  0  0
  183.7190  178.2550  141.8520 C   0  0  0  0  0  3  0  0  0  0  0  0
  184.5760  179.1680  138.5010 C   0  0  1  0  0  3  0  0  0  0  0  0
  184.5700  178.9740  139.9340 N   0  0  0  0  0  0  0  0  0  0  0  0
  184.6510  178.8490  144.4820 C   0  0  0  0  0  2  0  0  0  0  0  0
  185.6880  177.8260  144.0760 C   0  0  2  0  0  3  0  0  0  0  0  0
  186.8470  177.8770  145.0480 C   0  0  0  0  0  1  0  0  0  0  0  0
  185.6040  179.1500  143.3410 C   0  0  1  0  0  3  0  0  0  0  0  0
  182.6040  176.0170  139.4690 S   0  0  0  0  0  0  0  0  0  0  0  0
  180.8100  175.8190  139.6590 C   0  0  0  0  0  1  0  0  0  0  0  0
  188.6680  178.6750  139.3650 O   0  0  0  0  0  1  0  0  0  0  0  0
  188.9140  177.6360  138.4600 C   0  0  1  0  0  3  0  0  0  0  0  0
  190.1010  176.7630  138.9250 C   0  0  1  0  0  3  0  0  0  0  0  0
  191.9440  175.4810  137.9460 O   0  0  0  0  0  0  0  0  0  0  0  0
  191.1780  175.8720  136.8330 C   0  0  0  0  0  2  0  0  0  0  0  0
  191.3480  176.7550  138.0130 C   0  0  1  0  0  3  0  0  0  0  0  0
  191.7060  177.5030  140.6000 C   0  0  0  0  0  2  0  0  0  0  0  0
  190.4920  177.0210  140.3490 C   0  0  0  0  0  0  0  0  0  0  0  0
  189.5790  176.7510  141.3770 O   0  0  0  0  0  0  0  0  0  0  0  0
  190.0330  176.4310  143.7080 C   0  0  0  0  0  1  0  0  0  0  0  0
  189.6110  177.4120  142.6350 C   0  0  0  0  0  2  0  0  0  0  0  0
  1  2  1  0  0  0  0
  1  4  1  0  0  0  0
  3  2  1  6  0  0  0
  3 13  1  0  0  0  0
  3  5  1  0  0  0  0
  4  6  1  0  0  0  0
  6 22  1  6  0  0  0
  6  5  1  0  0  0  0
  7  9  2  0  0  0  0
  8 19  1  6  0  0  0
  8 11  1  0  0  0  0
 10  8  1  0  0  0  0
 11 12  2  0  0  0  0
 12  9  1  0  0  0  0
 13 10  1  6  0  0  0
 13 14  1  0  0  0  0
 14 11  1  0  0  0  0
 14  7  1  0  0  0  0
 16 15  1  0  0  0  0
 16 17  1  1  0  0  0
 18  9  1  6  0  0  0
 18 16  1  0  0  0  0
 18 15  1  0  0  0  0
 19 20  1  0  0  0  0
 22 23  1  0  0  0  0
 22 21  1  1  0  0  0
 23 28  1  1  0  0  0
 24 26  1  0  0  0  0
 25 24  1  0  0  0  0
 25 26  1  0  0  0  0
 26 23  1  1  0  0  0
 28 27  2  0  0  0  0
 28 29  1  0  0  0  0
 29 31  1  0  0  0  0
 31 30  1  0  0  0  0
M  END
>  <MODEL>
9

>  <REMARK>
 VINA RESULT:      -5.5      2.282      4.803
  Name = 
  9 active torsions:
  status: ('A' for Active; 'I' for Inactive)
    1  A    between atoms: C_4  and  S_22
    2  A    between atoms: C_10  and  C_21
    3  A    between atoms: C_13  and  C_25
    4  A    between atoms: C_16  and  C_20
    5  A    between atoms: C_16  and  C_27
    6  A    between atoms: C_17  and  C_20
    7  A    between atoms: C_17  and  O_31
    8  A    between atoms: C_20  and  C_30
    9  A    between atoms: C_29  and  O_31
                            x       y       z     vdW  Elec       q    Type
                         _______ _______ _______ _____ _____    ______ ____

>  <TORSDO>
F 9

$$$$
