=
 OpenBabel11032420393D

 45 49  0  0  1  0  0  0  0  0999 V2000
  185.8030  177.6980  140.3390 C   0  0  0  0  0  2  0  0  0  0  0  0
  183.4740  178.7530  140.7290 C   0  0  2  0  0  3  0  0  0  0  0  0
  184.8540  178.4760  141.2660 C   0  0  2  0  0  3  0  0  0  0  0  0
  185.4670  179.5880  142.1040 C   0  0  0  0  0  2  0  0  0  0  0  0
  180.9590  178.6730  141.0050 C   0  0  1  0  0  3  0  0  0  0  0  0
  181.0030  179.0910  143.2940 N   0  0  0  0  0  0  0  0  0  0  0  0
  184.4480  178.4170  144.0910 C   0  0  0  0  0  2  0  0  0  0  0  0
  180.2150  178.9530  142.1800 O   0  0  0  0  0  0  0  0  0  0  0  0
  182.3740  178.7470  141.5170 C   0  0  2  0  0  3  0  0  0  0  0  0
  185.7040  179.0690  143.5180 C   0  0  0  0  0  2  0  0  0  0  0  0
  182.2450  178.9480  142.9850 C   0  0  0  0  0  0  0  0  0  0  0  0
  183.2810  179.3770  143.9810 C   0  0  0  0  0  2  0  0  0  0  0  0
  180.6180  177.2470  140.5830 C   0  0  1  0  0  3  0  0  0  0  0  0
  179.2290  177.2400  139.9760 C   0  0  0  0  0  2  0  0  0  0  0  0
  180.4440  177.1330  139.0820 C   0  0  2  0  0  3  0  0  0  0  0  0
  180.6000  175.6840  138.6600 C   0  0  0  0  0  2  0  0  0  0  0  0
  183.0570  175.4080  138.6590 C   0  0  0  0  0  1  0  0  0  0  0  0
  181.8240  175.5090  137.7850 C   0  0  0  0  0  2  0  0  0  0  0  0
  183.3090  179.0340  139.2620 C   0  0  0  0  0  2  0  0  0  0  0  0
  183.2690  180.4300  139.0080 O   0  0  0  0  0  0  0  0  0  0  0  0
  182.0890  182.2900  138.3770 O   0  0  0  0  0  0  0  0  0  0  0  0
  182.2000  181.0390  138.3480 C   0  0  0  0  0  0  0  0  0  0  0  0
  181.1820  180.2380  137.6080 C   0  0  0  0  0  1  0  0  0  0  0  0
  186.7770  178.5680  139.5420 C   0  0  2  0  0  3  0  0  0  0  0  0
  187.0790  177.9460  138.1720 C   0  0  2  0  0  3  0  0  0  0  0  0
  188.2000  178.7080  137.4780 C   0  0  0  0  0  1  0  0  0  0  0  0
  185.8660  177.9750  137.2950 C   0  0  0  0  0  3  0  0  0  0  0  0
  186.3450  175.8460  136.3640 O   0  0  0  0  0  1  0  0  0  0  0  0
  185.5530  176.9860  136.4620 C   0  0  0  0  0  3  0  0  0  0  0  0
  188.0070  178.7040  140.3100 N   0  0  0  0  0  2  0  0  0  0  0  0
  189.5130  176.7770  140.2960 C   0  0  1  0  0  3  0  0  0  0  0  0
  188.5750  177.6060  142.4100 C   0  0  0  0  0  2  0  0  0  0  0  0
  189.7970  176.7600  142.6980 C   0  0  1  0  0  3  0  0  0  0  0  0
  188.2880  177.4190  140.9360 C   0  0  1  0  0  3  0  0  0  0  0  0
  190.7220  177.5780  140.5590 N   0  0  0  0  0  0  0  0  0  0  0  0
  191.7040  177.1820  139.5650 C   0  0  0  0  0  1  0  0  0  0  0  0
  190.4300  176.3780  141.3640 C   0  0  2  0  0  3  0  0  0  0  0  0
  190.7840  177.5200  143.5730 C   0  0  0  0  0  2  0  0  0  0  0  0
  188.9710  178.3270  145.5840 O   0  0  0  0  0  0  0  0  0  0  0  0
  189.8130  177.4400  145.8910 C   0  0  0  0  0  0  0  0  0  0  0  0
  191.6800  176.0390  145.2640 O   0  0  0  0  0  1  0  0  0  0  0  0
  190.7750  176.9880  144.9280 N   0  0  0  0  0  0  0  0  0  0  0  0
  189.7720  176.8410  147.2580 C   0  0  0  0  0  2  0  0  0  0  0  0
  189.3880  177.8820  148.2970 C   0  0  0  0  0  2  0  0  0  0  0  0
  187.9290  177.7320  148.6850 C   0  0  0  0  0  1  0  0  0  0  0  0
  2 19  1  6  0  0  0
  2  3  1  0  0  0  0
  2  9  1  0  0  0  0
  3  1  1  6  0  0  0
  3  4  1  0  0  0  0
  4 10  1  0  0  0  0
  5  9  1  0  0  0  0
  5  8  1  1  0  0  0
  8  6  1  0  0  0  0
  9 11  1  6  0  0  0
 10  7  1  0  0  0  0
 11  6  2  0  0  0  0
 11 12  1  0  0  0  0
 12  7  1  0  0  0  0
 13 14  1  1  0  0  0
 13  5  1  0  0  0  0
 15 16  1  1  0  0  0
 15 14  1  0  0  0  0
 15 13  1  0  0  0  0
 18 17  1  0  0  0  0
 18 16  1  0  0  0  0
 20 19  1  0  0  0  0
 22 21  2  0  0  0  0
 22 20  1  0  0  0  0
 23 22  1  0  0  0  0
 24 30  1  0  0  0  0
 24  1  1  1  0  0  0
 25 26  1  6  0  0  0
 25 24  1  0  0  0  0
 27 25  1  0  0  0  0
 28 29  1  0  0  0  0
 29 27  2  0  0  0  0
 31 35  1  6  0  0  0
 31 34  1  0  0  0  0
 31 37  1  0  0  0  0
 32 33  1  0  0  0  0
 33 38  1  1  0  0  0
 34 30  1  6  0  0  0
 34 32  1  0  0  0  0
 36 35  1  0  0  0  0
 37 35  1  6  0  0  0
 37 33  1  0  0  0  0
 38 42  1  0  0  0  0
 39 40  2  0  0  0  0
 40 43  1  0  0  0  0
 42 41  1  0  0  0  0
 42 40  1  0  0  0  0
 43 44  1  0  0  0  0
 44 45  1  0  0  0  0
M  END
>  <MODEL>
1

>  <REMARK>
 VINA RESULT:      -6.4      0.000      0.000
  Name = 
  16 active torsions:
  status: ('A' for Active; 'I' for Inactive)
    1  A    between atoms: C_1  and  C_19
    2  A    between atoms: N_2  and  C_22
    3  A    between atoms: N_2  and  C_27
    4  A    between atoms: C_3  and  C_5
    5  A    between atoms: C_5  and  C_33
    6  A    between atoms: C_7  and  C_16
    7  A    between atoms: C_8  and  C_11
    8  A    between atoms: C_9  and  O_38
    9  A    between atoms: C_11  and  O_38
   10  A    between atoms: C_13  and  C_40
   11  A    between atoms: C_19  and  C_22
   12  A    between atoms: C_22  and  C_40
   13  A    between atoms: C_23  and  C_26
   14  A    between atoms: C_26  and  N_45
   15  A    between atoms: C_28  and  C_43
   16  A    between atoms: C_29  and  C_43
                            x       y       z     vdW  Elec       q    Type
                         _______ _______ _______ _____ _____    ______ ____

>  <TORSDO>
F 16

$$$$
=
 OpenBabel11032420393D

 45 49  0  0  1  0  0  0  0  0999 V2000
  182.7590  179.9090  139.0040 C   0  0  0  0  0  2  0  0  0  0  0  0
  180.8920  178.1770  138.5510 C   0  0  2  0  0  3  0  0  0  0  0  0
  181.4800  179.2040  139.4840 C   0  0  2  0  0  3  0  0  0  0  0  0
  180.4710  180.0480  140.2490 C   0  0  0  0  0  2  0  0  0  0  0  0
  180.0100  175.8400  138.1390 C   0  0  1  0  0  3  0  0  0  0  0  0
  179.0360  175.6300  140.2420 N   0  0  0  0  0  0  0  0  0  0  0  0
  180.6330  178.2980  142.0560 C   0  0  0  0  0  2  0  0  0  0  0  0
  179.1830  175.0710  138.9980 O   0  0  0  0  0  0  0  0  0  0  0  0
  180.3010  177.0450  138.9980 C   0  0  2  0  0  3  0  0  0  0  0  0
  180.6400  179.7910  141.7420 C   0  0  0  0  0  2  0  0  0  0  0  0
  179.6820  176.7410  140.3140 C   0  0  0  0  0  0  0  0  0  0  0  0
  179.3920  177.6600  141.4640 C   0  0  0  0  0  2  0  0  0  0  0  0
  181.2840  175.0360  137.8990 C   0  0  1  0  0  3  0  0  0  0  0  0
  180.9360  173.8130  137.0740 C   0  0  0  0  0  2  0  0  0  0  0  0
  181.6430  174.9820  136.4280 C   0  0  2  0  0  3  0  0  0  0  0  0
  183.1100  174.6270  136.2750 C   0  0  0  0  0  2  0  0  0  0  0  0
  184.7740  173.3540  137.5880 C   0  0  0  0  0  1  0  0  0  0  0  0
  183.4110  173.2950  136.9330 C   0  0  0  0  0  2  0  0  0  0  0  0
  180.9760  178.4110  137.0690 C   0  0  0  0  0  2  0  0  0  0  0  0
  179.9420  179.2790  136.6270 O   0  0  0  0  0  0  0  0  0  0  0  0
  180.1080  180.4830  134.6850 O   0  0  0  0  0  0  0  0  0  0  0  0
  180.2060  180.4630  135.9380 C   0  0  0  0  0  0  0  0  0  0  0  0
  180.6020  181.7110  136.6530 C   0  0  0  0  0  1  0  0  0  0  0  0
  184.0620  179.2050  139.3870 C   0  0  2  0  0  3  0  0  0  0  0  0
  184.3950  178.0810  138.3970 C   0  0  2  0  0  3  0  0  0  0  0  0
  184.0250  176.7270  138.9860 C   0  0  0  0  0  1  0  0  0  0  0  0
  185.8560  178.0780  138.0670 C   0  0  0  0  0  3  0  0  0  0  0  0
  185.4770  177.2800  135.8660 O   0  0  0  0  0  1  0  0  0  0  0  0
  186.3290  177.6970  136.8840 C   0  0  0  0  0  3  0  0  0  0  0  0
  183.9130  178.6580  140.7290 N   0  0  0  0  0  2  0  0  0  0  0  0
  184.3570  179.5880  142.9480 C   0  0  1  0  0  3  0  0  0  0  0  0
  186.0910  178.3080  141.7670 C   0  0  0  0  0  2  0  0  0  0  0  0
  186.4170  178.3560  143.2450 C   0  0  1  0  0  3  0  0  0  0  0  0
  184.9330  179.2650  141.5750 C   0  0  1  0  0  3  0  0  0  0  0  0
  183.9830  178.3540  143.6630 N   0  0  0  0  0  0  0  0  0  0  0  0
  183.0470  178.7470  144.7020 C   0  0  0  0  0  1  0  0  0  0  0  0
  185.2550  179.0350  143.9620 C   0  0  2  0  0  3  0  0  0  0  0  0
  186.6500  176.9530  143.7900 C   0  0  0  0  0  2  0  0  0  0  0  0
  188.2200  177.9370  145.9230 O   0  0  0  0  0  0  0  0  0  0  0  0
  188.8020  177.2240  145.0610 C   0  0  0  0  0  0  0  0  0  0  0  0
  188.7060  175.9390  143.0160 O   0  0  0  0  0  1  0  0  0  0  0  0
  188.0750  176.6990  143.9420 N   0  0  0  0  0  0  0  0  0  0  0  0
  190.2490  176.9040  145.2400 C   0  0  0  0  0  2  0  0  0  0  0  0
  191.1250  178.0360  144.7300 C   0  0  0  0  0  2  0  0  0  0  0  0
  191.6260  177.7300  143.3300 C   0  0  0  0  0  1  0  0  0  0  0  0
  2 19  1  6  0  0  0
  2  9  1  0  0  0  0
  2  3  1  0  0  0  0
  3  1  1  6  0  0  0
  3  4  1  0  0  0  0
  4 10  1  0  0  0  0
  5  9  1  0  0  0  0
  5  8  1  1  0  0  0
  6 11  2  0  0  0  0
  8  6  1  0  0  0  0
  9 11  1  6  0  0  0
 10  7  1  0  0  0  0
 11 12  1  0  0  0  0
 12  7  1  0  0  0  0
 13 14  1  6  0  0  0
 13  5  1  0  0  0  0
 15 16  1  1  0  0  0
 15 14  1  0  0  0  0
 15 13  1  0  0  0  0
 16 18  1  0  0  0  0
 18 17  1  0  0  0  0
 20 19  1  0  0  0  0
 21 22  2  0  0  0  0
 22 20  1  0  0  0  0
 22 23  1  0  0  0  0
 24  1  1  6  0  0  0
 24 30  1  0  0  0  0
 25 26  1  1  0  0  0
 25 24  1  0  0  0  0
 27 25  1  0  0  0  0
 28 29  1  0  0  0  0
 29 27  2  0  0  0  0
 31 35  1  6  0  0  0
 31 37  1  0  0  0  0
 32 33  1  0  0  0  0
 33 38  1  1  0  0  0
 33 37  1  0  0  0  0
 34 30  1  6  0  0  0
 34 32  1  0  0  0  0
 34 31  1  0  0  0  0
 35 36  1  0  0  0  0
 37 35  1  6  0  0  0
 38 42  1  0  0  0  0
 40 43  1  0  0  0  0
 40 39  2  0  0  0  0
 41 42  1  0  0  0  0
 42 40  1  0  0  0  0
 44 43  1  0  0  0  0
 45 44  1  0  0  0  0
M  END
>  <MODEL>
2

>  <REMARK>
 VINA RESULT:      -6.2      2.393      4.292
  Name = 
  16 active torsions:
  status: ('A' for Active; 'I' for Inactive)
    1  A    between atoms: C_1  and  C_19
    2  A    between atoms: N_2  and  C_22
    3  A    between atoms: N_2  and  C_27
    4  A    between atoms: C_3  and  C_5
    5  A    between atoms: C_5  and  C_33
    6  A    between atoms: C_7  and  C_16
    7  A    between atoms: C_8  and  C_11
    8  A    between atoms: C_9  and  O_38
    9  A    between atoms: C_11  and  O_38
   10  A    between atoms: C_13  and  C_40
   11  A    between atoms: C_19  and  C_22
   12  A    between atoms: C_22  and  C_40
   13  A    between atoms: C_23  and  C_26
   14  A    between atoms: C_26  and  N_45
   15  A    between atoms: C_28  and  C_43
   16  A    between atoms: C_29  and  C_43
                            x       y       z     vdW  Elec       q    Type
                         _______ _______ _______ _____ _____    ______ ____

>  <TORSDO>
F 16

$$$$
=
 OpenBabel11032420393D

 45 49  0  0  1  0  0  0  0  0999 V2000
  186.4870  177.1850  138.2190 C   0  0  0  0  0  2  0  0  0  0  0  0
  183.9420  176.9210  137.8340 C   0  0  2  0  0  3  0  0  0  0  0  0
  185.0530  177.5770  138.6140 C   0  0  2  0  0  3  0  0  0  0  0  0
  184.8150  179.0300  138.9970 C   0  0  0  0  0  2  0  0  0  0  0  0
  181.7740  175.6150  137.7860 C   0  0  1  0  0  3  0  0  0  0  0  0
  180.8970  176.6300  139.6890 N   0  0  0  0  0  0  0  0  0  0  0  0
  183.8340  178.1260  141.1360 C   0  0  0  0  0  2  0  0  0  0  0  0
  180.6510  175.7860  138.6360 O   0  0  0  0  0  0  0  0  0  0  0  0
  182.7690  176.5650  138.4050 C   0  0  2  0  0  3  0  0  0  0  0  0
  184.7880  179.1440  140.5170 C   0  0  0  0  0  2  0  0  0  0  0  0
  182.1030  177.0780  139.6310 C   0  0  0  0  0  0  0  0  0  0  0  0
  182.4680  178.2510  140.4910 C   0  0  0  0  0  2  0  0  0  0  0  0
  182.2450  174.1730  137.9440 C   0  0  1  0  0  3  0  0  0  0  0  0
  181.4330  173.2940  137.0130 C   0  0  0  0  0  2  0  0  0  0  0  0
  182.8620  173.6430  136.6660 C   0  0  2  0  0  3  0  0  0  0  0  0
  183.7360  172.4430  136.9820 C   0  0  0  0  0  2  0  0  0  0  0  0
  186.1860  172.7570  137.0900 C   0  0  0  0  0  1  0  0  0  0  0  0
  184.8940  172.8430  137.8740 C   0  0  0  0  0  2  0  0  0  0  0  0
  184.1500  176.6390  136.3730 C   0  0  0  0  0  2  0  0  0  0  0  0
  183.6480  177.6960  135.5700 O   0  0  0  0  0  0  0  0  0  0  0  0
  181.6840  178.8430  135.2930 O   0  0  0  0  0  0  0  0  0  0  0  0
  182.3130  177.7610  135.1710 C   0  0  0  0  0  0  0  0  0  0  0  0
  181.6090  176.5750  134.6030 C   0  0  0  0  0  1  0  0  0  0  0  0
  187.3500  178.3420  137.7120 C   0  0  2  0  0  3  0  0  0  0  0  0
  188.0320  177.9820  136.3850 C   0  0  2  0  0  3  0  0  0  0  0  0
  187.1680  178.4150  135.2090 C   0  0  0  0  0  1  0  0  0  0  0  0
  188.2660  176.5060  136.2900 C   0  0  0  0  0  3  0  0  0  0  0  0
  190.5140  176.7900  135.5870 O   0  0  0  0  0  1  0  0  0  0  0  0
  189.4290  175.9820  135.9130 C   0  0  0  0  0  3  0  0  0  0  0  0
  188.3550  178.6450  138.7220 N   0  0  0  0  0  2  0  0  0  0  0  0
  189.7270  176.8440  139.6470 C   0  0  1  0  0  3  0  0  0  0  0  0
  188.1480  178.0650  141.0800 C   0  0  0  0  0  2  0  0  0  0  0  0
  189.1790  177.3680  141.9430 C   0  0  1  0  0  3  0  0  0  0  0  0
  188.3740  177.5450  139.6770 C   0  0  1  0  0  3  0  0  0  0  0  0
  190.7950  177.7460  140.1150 N   0  0  0  0  0  0  0  0  0  0  0  0
  192.0450  177.1950  139.6240 C   0  0  0  0  0  1  0  0  0  0  0  0
  190.2170  176.7380  141.0220 C   0  0  2  0  0  3  0  0  0  0  0  0
  189.8290  178.3530  142.9060 C   0  0  0  0  0  2  0  0  0  0  0  0
  187.8650  178.1660  144.9280 O   0  0  0  0  0  0  0  0  0  0  0  0
  188.9940  177.6600  145.1740 C   0  0  0  0  0  0  0  0  0  0  0  0
  191.2570  177.1850  144.4730 O   0  0  0  0  0  1  0  0  0  0  0  0
  190.0460  177.7260  144.2020 N   0  0  0  0  0  0  0  0  0  0  0  0
  189.2080  176.9580  146.4740 C   0  0  0  0  0  2  0  0  0  0  0  0
  189.3630  177.9550  147.6120 C   0  0  0  0  0  2  0  0  0  0  0  0
  188.1190  177.9690  148.4800 C   0  0  0  0  0  1  0  0  0  0  0  0
  2 19  1  1  0  0  0
  2  9  1  0  0  0  0
  2  3  1  0  0  0  0
  3  1  1  6  0  0  0
  3  4  1  0  0  0  0
  4 10  1  0  0  0  0
  5 13  1  0  0  0  0
  5  9  1  0  0  0  0
  5  8  1  1  0  0  0
  8  6  1  0  0  0  0
  9 11  1  6  0  0  0
 10  7  1  0  0  0  0
 11  6  2  0  0  0  0
 11 12  1  0  0  0  0
 12  7  1  0  0  0  0
 13 14  1  6  0  0  0
 15 16  1  1  0  0  0
 15 14  1  0  0  0  0
 15 13  1  0  0  0  0
 16 18  1  0  0  0  0
 17 18  1  0  0  0  0
 20 19  1  0  0  0  0
 22 21  2  0  0  0  0
 22 20  1  0  0  0  0
 23 22  1  0  0  0  0
 24  1  1  1  0  0  0
 24 30  1  0  0  0  0
 25 26  1  6  0  0  0
 25 24  1  0  0  0  0
 27 25  1  0  0  0  0
 28 29  1  0  0  0  0
 29 27  2  0  0  0  0
 31 34  1  0  0  0  0
 31 35  1  6  0  0  0
 31 37  1  0  0  0  0
 32 33  1  0  0  0  0
 33 38  1  1  0  0  0
 34 30  1  6  0  0  0
 34 32  1  0  0  0  0
 36 35  1  0  0  0  0
 37 35  1  6  0  0  0
 37 33  1  0  0  0  0
 38 42  1  0  0  0  0
 39 40  2  0  0  0  0
 40 43  1  0  0  0  0
 42 41  1  0  0  0  0
 42 40  1  0  0  0  0
 43 44  1  0  0  0  0
 44 45  1  0  0  0  0
M  END
>  <MODEL>
3

>  <REMARK>
 VINA RESULT:      -6.2      2.266      3.225
  Name = 
  16 active torsions:
  status: ('A' for Active; 'I' for Inactive)
    1  A    between atoms: C_1  and  C_19
    2  A    between atoms: N_2  and  C_22
    3  A    between atoms: N_2  and  C_27
    4  A    between atoms: C_3  and  C_5
    5  A    between atoms: C_5  and  C_33
    6  A    between atoms: C_7  and  C_16
    7  A    between atoms: C_8  and  C_11
    8  A    between atoms: C_9  and  O_38
    9  A    between atoms: C_11  and  O_38
   10  A    between atoms: C_13  and  C_40
   11  A    between atoms: C_19  and  C_22
   12  A    between atoms: C_22  and  C_40
   13  A    between atoms: C_23  and  C_26
   14  A    between atoms: C_26  and  N_45
   15  A    between atoms: C_28  and  C_43
   16  A    between atoms: C_29  and  C_43
                            x       y       z     vdW  Elec       q    Type
                         _______ _______ _______ _____ _____    ______ ____

>  <TORSDO>
F 16

$$$$
=
 OpenBabel11032420393D

 45 49  0  0  1  0  0  0  0  0999 V2000
  183.8880  179.1820  139.6770 C   0  0  0  0  0  2  0  0  0  0  0  0
  181.8980  178.8440  138.0600 C   0  0  2  0  0  3  0  0  0  0  0  0
  183.2730  178.4090  138.4990 C   0  0  2  0  0  3  0  0  0  0  0  0
  183.5350  176.9120  138.4440 C   0  0  0  0  0  2  0  0  0  0  0  0
  180.3100  179.5680  136.2260 C   0  0  1  0  0  3  0  0  0  0  0  0
  181.2430  178.1800  134.6070 N   0  0  0  0  0  0  0  0  0  0  0  0
  184.3990  177.3230  136.1120 C   0  0  0  0  0  2  0  0  0  0  0  0
  180.2180  179.0390  134.9130 O   0  0  0  0  0  0  0  0  0  0  0  0
  181.5150  178.8380  136.7630 C   0  0  2  0  0  3  0  0  0  0  0  0
  184.6610  176.6420  137.4520 C   0  0  0  0  0  2  0  0  0  0  0  0
  182.0380  178.0540  135.6130 C   0  0  0  0  0  0  0  0  0  0  0  0
  183.0280  176.9280  135.6000 C   0  0  0  0  0  2  0  0  0  0  0  0
  180.6060  181.0580  136.0930 C   0  0  1  0  0  3  0  0  0  0  0  0
  179.2980  181.7930  135.8720 C   0  0  0  0  0  2  0  0  0  0  0  0
  179.9800  181.8560  137.2190 C   0  0  2  0  0  3  0  0  0  0  0  0
  180.6760  183.1990  137.3390 C   0  0  0  0  0  2  0  0  0  0  0  0
  180.7310  185.2340  135.9360 C   0  0  0  0  0  1  0  0  0  0  0  0
  181.0210  183.7480  135.9700 C   0  0  0  0  0  2  0  0  0  0  0  0
  180.9200  179.3150  139.0990 C   0  0  0  0  0  2  0  0  0  0  0  0
  179.8620  178.3820  139.2690 O   0  0  0  0  0  0  0  0  0  0  0  0
  179.4950  177.8220  141.4600 O   0  0  0  0  0  0  0  0  0  0  0  0
  179.8460  177.4540  140.3110 C   0  0  0  0  0  0  0  0  0  0  0  0
  180.2360  176.0300  140.0940 C   0  0  0  0  0  1  0  0  0  0  0  0
  184.7740  178.3430  140.6020 C   0  0  2  0  0  3  0  0  0  0  0  0
  184.3010  178.4410  142.0580 C   0  0  2  0  0  3  0  0  0  0  0  0
  182.8210  178.7940  142.1130 C   0  0  0  0  0  1  0  0  0  0  0  0
  185.0710  179.4900  142.7980 C   0  0  0  0  0  3  0  0  0  0  0  0
  184.4520  178.6160  144.9150 O   0  0  0  0  0  1  0  0  0  0  0  0
  185.1200  179.5480  144.1270 C   0  0  0  0  0  3  0  0  0  0  0  0
  186.1440  178.8250  140.4890 N   0  0  0  0  0  2  0  0  0  0  0  0
  187.8220  177.8510  138.9990 C   0  0  1  0  0  3  0  0  0  0  0  0
  187.9730  177.5170  141.4280 C   0  0  0  0  0  2  0  0  0  0  0  0
  189.3230  177.2480  140.7970 C   0  0  1  0  0  3  0  0  0  0  0  0
  187.0070  177.6710  140.2740 C   0  0  1  0  0  3  0  0  0  0  0  0
  188.7580  178.9820  139.1310 N   0  0  0  0  0  0  0  0  0  0  0  0
  189.1300  179.3710  137.7830 C   0  0  0  0  0  1  0  0  0  0  0  0
  189.2270  177.5970  139.3160 C   0  0  2  0  0  3  0  0  0  0  0  0
  190.4100  178.0650  141.4810 C   0  0  0  0  0  2  0  0  0  0  0  0
  191.1230  179.4100  143.8610 O   0  0  0  0  0  0  0  0  0  0  0  0
  191.1900  178.1510  143.8700 C   0  0  0  0  0  0  0  0  0  0  0  0
  190.9340  176.0470  142.7100 O   0  0  0  0  0  1  0  0  0  0  0  0
  190.8560  177.3980  142.6960 N   0  0  0  0  0  0  0  0  0  0  0  0
  191.5840  177.4530  145.1300 C   0  0  0  0  0  2  0  0  0  0  0  0
  190.3770  177.2210  146.0240 C   0  0  0  0  0  2  0  0  0  0  0  0
  190.8020  176.5850  147.3350 C   0  0  0  0  0  1  0  0  0  0  0  0
  2  3  1  0  0  0  0
  2 19  1  6  0  0  0
  3  1  1  1  0  0  0
  4  3  1  0  0  0  0
  5  8  1  6  0  0  0
  5  9  1  0  0  0  0
  6  8  1  0  0  0  0
  6 11  2  0  0  0  0
  7 10  1  0  0  0  0
  9 11  1  1  0  0  0
  9  2  1  0  0  0  0
 10  4  1  0  0  0  0
 12 11  1  0  0  0  0
 12  7  1  0  0  0  0
 13 14  1  6  0  0  0
 13  5  1  0  0  0  0
 13 15  1  0  0  0  0
 14 15  1  0  0  0  0
 15 16  1  6  0  0  0
 17 18  1  0  0  0  0
 18 16  1  0  0  0  0
 19 20  1  0  0  0  0
 20 22  1  0  0  0  0
 22 21  2  0  0  0  0
 23 22  1  0  0  0  0
 24  1  1  6  0  0  0
 24 25  1  0  0  0  0
 25 26  1  6  0  0  0
 25 27  1  0  0  0  0
 27 29  2  0  0  0  0
 29 28  1  0  0  0  0
 30 24  1  0  0  0  0
 31 35  1  1  0  0  0
 31 37  1  0  0  0  0
 31 34  1  0  0  0  0
 33 32  1  0  0  0  0
 33 38  1  1  0  0  0
 34 30  1  1  0  0  0
 34 32  1  0  0  0  0
 36 35  1  0  0  0  0
 37 35  1  1  0  0  0
 37 33  1  0  0  0  0
 38 42  1  0  0  0  0
 39 40  2  0  0  0  0
 40 43  1  0  0  0  0
 42 41  1  0  0  0  0
 42 40  1  0  0  0  0
 43 44  1  0  0  0  0
 44 45  1  0  0  0  0
M  END
>  <MODEL>
4

>  <REMARK>
 VINA RESULT:      -6.0      2.501      5.326
  Name = 
  16 active torsions:
  status: ('A' for Active; 'I' for Inactive)
    1  A    between atoms: C_1  and  C_19
    2  A    between atoms: N_2  and  C_22
    3  A    between atoms: N_2  and  C_27
    4  A    between atoms: C_3  and  C_5
    5  A    between atoms: C_5  and  C_33
    6  A    between atoms: C_7  and  C_16
    7  A    between atoms: C_8  and  C_11
    8  A    between atoms: C_9  and  O_38
    9  A    between atoms: C_11  and  O_38
   10  A    between atoms: C_13  and  C_40
   11  A    between atoms: C_19  and  C_22
   12  A    between atoms: C_22  and  C_40
   13  A    between atoms: C_23  and  C_26
   14  A    between atoms: C_26  and  N_45
   15  A    between atoms: C_28  and  C_43
   16  A    between atoms: C_29  and  C_43
                            x       y       z     vdW  Elec       q    Type
                         _______ _______ _______ _____ _____    ______ ____

>  <TORSDO>
F 16

$$$$
=
 OpenBabel11032420393D

 45 49  0  0  1  0  0  0  0  0999 V2000
  187.9760  176.3610  142.7360 C   0  0  0  0  0  2  0  0  0  0  0  0
  186.3050  178.2940  143.1330 C   0  0  2  0  0  3  0  0  0  0  0  0
  187.3330  177.3570  143.7140 C   0  0  2  0  0  3  0  0  0  0  0  0
  188.2350  177.9560  144.7830 C   0  0  0  0  0  2  0  0  0  0  0  0
  183.9930  179.3230  143.1990 C   0  0  1  0  0  3  0  0  0  0  0  0
  183.8750  179.3800  145.5230 N   0  0  0  0  0  0  0  0  0  0  0  0
  186.5280  177.1280  146.4430 C   0  0  0  0  0  2  0  0  0  0  0  0
  183.2780  179.7560  144.3470 O   0  0  0  0  0  0  0  0  0  0  0  0
  185.2080  178.6840  143.8220 C   0  0  2  0  0  3  0  0  0  0  0  0
  188.0110  177.2100  146.0940 C   0  0  0  0  0  2  0  0  0  0  0  0
  184.9630  178.7320  145.2880 C   0  0  0  0  0  0  0  0  0  0  0  0
  185.9220  178.5170  146.4200 C   0  0  0  0  0  2  0  0  0  0  0  0
  183.1350  178.2710  142.5030 C   0  0  1  0  0  3  0  0  0  0  0  0
  181.6820  178.5210  142.8560 C   0  0  0  0  0  2  0  0  0  0  0  0
  182.2010  178.8950  141.4860 C   0  0  2  0  0  3  0  0  0  0  0  0
  181.7450  177.8360  140.4990 C   0  0  0  0  0  2  0  0  0  0  0  0
  181.5980  179.3580  138.5550 C   0  0  0  0  0  1  0  0  0  0  0  0
  180.8140  178.4350  139.4640 C   0  0  0  0  0  2  0  0  0  0  0  0
  186.4970  178.8040  141.7330 C   0  0  0  0  0  2  0  0  0  0  0  0
  185.7180  178.0620  140.8050 O   0  0  0  0  0  0  0  0  0  0  0  0
  184.9310  179.8510  139.6110 O   0  0  0  0  0  0  0  0  0  0  0  0
  185.2130  178.6270  139.6340 C   0  0  0  0  0  0  0  0  0  0  0  0
  184.9990  177.8110  138.4030 C   0  0  0  0  0  1  0  0  0  0  0  0
  189.4020  176.7130  142.3070 C   0  0  2  0  0  3  0  0  0  0  0  0
  190.1730  177.3870  143.4500 C   0  0  2  0  0  3  0  0  0  0  0  0
  190.8890  178.6320  142.9470 C   0  0  0  0  0  1  0  0  0  0  0  0
  191.1880  176.4520  144.0310 C   0  0  0  0  0  3  0  0  0  0  0  0
  191.2680  177.6310  146.0880 O   0  0  0  0  0  1  0  0  0  0  0  0
  191.6810  176.5930  145.2590 C   0  0  0  0  0  3  0  0  0  0  0  0
  189.3300  177.6080  141.1600 N   0  0  0  0  0  2  0  0  0  0  0  0
  188.6210  177.6770  138.8200 C   0  0  1  0  0  3  0  0  0  0  0  0
  190.3460  176.0860  139.5490 C   0  0  0  0  0  2  0  0  0  0  0  0
  190.4270  176.2660  138.0470 C   0  0  1  0  0  3  0  0  0  0  0  0
  189.0790  176.7970  139.9760 C   0  0  1  0  0  3  0  0  0  0  0  0
  189.6950  178.5980  138.4050 N   0  0  0  0  0  0  0  0  0  0  0  0
  189.0560  179.6730  137.6670 C   0  0  0  0  0  1  0  0  0  0  0  0
  189.4400  177.3580  137.6500 C   0  0  2  0  0  3  0  0  0  0  0  0
  191.8440  176.6310  137.6250 C   0  0  0  0  0  2  0  0  0  0  0  0
  194.4800  176.6480  136.6080 O   0  0  0  0  0  0  0  0  0  0  0  0
  193.9310  175.5230  136.7650 C   0  0  0  0  0  0  0  0  0  0  0  0
  192.0040  174.2250  137.4280 O   0  0  0  0  0  1  0  0  0  0  0  0
  192.5900  175.4340  137.2650 N   0  0  0  0  0  0  0  0  0  0  0  0
  194.7090  174.2860  136.4600 C   0  0  0  0  0  2  0  0  0  0  0  0
  195.9930  174.2360  137.2730 C   0  0  0  0  0  2  0  0  0  0  0  0
  195.6920  173.8800  138.7170 C   0  0  0  0  0  1  0  0  0  0  0  0
  2 19  1  6  0  0  0
  2  3  1  0  0  0  0
  2  9  1  0  0  0  0
  3  1  1  6  0  0  0
  3  4  1  0  0  0  0
  4 10  1  0  0  0  0
  5  9  1  0  0  0  0
  5  8  1  1  0  0  0
  8  6  1  0  0  0  0
  9 11  1  1  0  0  0
 10  7  1  0  0  0  0
 11  6  2  0  0  0  0
 11 12  1  0  0  0  0
 12  7  1  0  0  0  0
 13 14  1  1  0  0  0
 13  5  1  0  0  0  0
 15 16  1  6  0  0  0
 15 13  1  0  0  0  0
 15 14  1  0  0  0  0
 17 18  1  0  0  0  0
 18 16  1  0  0  0  0
 20 19  1  0  0  0  0
 21 22  2  0  0  0  0
 22 20  1  0  0  0  0
 23 22  1  0  0  0  0
 24  1  1  1  0  0  0
 24 25  1  0  0  0  0
 25 26  1  6  0  0  0
 25 27  1  0  0  0  0
 27 29  2  0  0  0  0
 29 28  1  0  0  0  0
 30 24  1  0  0  0  0
 31 35  1  1  0  0  0
 31 34  1  0  0  0  0
 32 34  1  0  0  0  0
 33 38  1  1  0  0  0
 33 32  1  0  0  0  0
 34 30  1  1  0  0  0
 36 35  1  0  0  0  0
 37 33  1  0  0  0  0
 37 35  1  1  0  0  0
 37 31  1  0  0  0  0
 39 40  2  0  0  0  0
 40 42  1  0  0  0  0
 42 41  1  0  0  0  0
 42 38  1  0  0  0  0
 43 40  1  0  0  0  0
 43 44  1  0  0  0  0
 44 45  1  0  0  0  0
M  END
>  <MODEL>
5

>  <REMARK>
 VINA RESULT:      -5.6      2.808      6.154
  Name = 
  16 active torsions:
  status: ('A' for Active; 'I' for Inactive)
    1  A    between atoms: C_1  and  C_19
    2  A    between atoms: N_2  and  C_22
    3  A    between atoms: N_2  and  C_27
    4  A    between atoms: C_3  and  C_5
    5  A    between atoms: C_5  and  C_33
    6  A    between atoms: C_7  and  C_16
    7  A    between atoms: C_8  and  C_11
    8  A    between atoms: C_9  and  O_38
    9  A    between atoms: C_11  and  O_38
   10  A    between atoms: C_13  and  C_40
   11  A    between atoms: C_19  and  C_22
   12  A    between atoms: C_22  and  C_40
   13  A    between atoms: C_23  and  C_26
   14  A    between atoms: C_26  and  N_45
   15  A    between atoms: C_28  and  C_43
   16  A    between atoms: C_29  and  C_43
                            x       y       z     vdW  Elec       q    Type
                         _______ _______ _______ _____ _____    ______ ____

>  <TORSDO>
F 16

$$$$
=
 OpenBabel11032420393D

 45 49  0  0  1  0  0  0  0  0999 V2000
  187.5260  176.4940  137.6620 C   0  0  0  0  0  2  0  0  0  0  0  0
  189.5610  177.5060  138.8960 C   0  0  2  0  0  3  0  0  0  0  0  0
  189.0330  176.7970  137.6750 C   0  0  2  0  0  3  0  0  0  0  0  0
  189.6670  177.2080  136.3540 C   0  0  0  0  0  2  0  0  0  0  0  0
  191.2260  177.6500  140.7980 C   0  0  1  0  0  3  0  0  0  0  0  0
  193.0040  176.7980  139.5600 N   0  0  0  0  0  0  0  0  0  0  0  0
  191.2990  175.3280  136.7510 C   0  0  0  0  0  2  0  0  0  0  0  0
  192.6170  177.3750  140.7430 O   0  0  0  0  0  0  0  0  0  0  0  0
  190.7830  177.2440  139.4150 C   0  0  2  0  0  3  0  0  0  0  0  0
  190.3680  175.9990  135.7450 C   0  0  0  0  0  2  0  0  0  0  0  0
  191.9920  176.6640  138.7740 C   0  0  0  0  0  0  0  0  0  0  0  0
  192.2500  176.3580  137.3290 C   0  0  0  0  0  2  0  0  0  0  0  0
  190.6230  176.7190  141.8450 C   0  0  1  0  0  3  0  0  0  0  0  0
  191.3050  176.9790  143.1740 C   0  0  0  0  0  2  0  0  0  0  0  0
  189.9040  177.4910  142.9320 C   0  0  2  0  0  3  0  0  0  0  0  0
  188.9300  176.5740  143.6490 C   0  0  0  0  0  2  0  0  0  0  0  0
  189.2280  177.6460  145.8570 C   0  0  0  0  0  1  0  0  0  0  0  0
  188.2270  177.3100  144.7720 C   0  0  0  0  0  2  0  0  0  0  0  0
  188.6950  178.5320  139.5710 C   0  0  0  0  0  2  0  0  0  0  0  0
  187.7060  177.9150  140.3830 O   0  0  0  0  0  0  0  0  0  0  0  0
  185.7380  178.9650  139.8590 O   0  0  0  0  0  0  0  0  0  0  0  0
  186.5300  178.5680  140.7510 C   0  0  0  0  0  0  0  0  0  0  0  0
  186.1860  178.8080  142.1830 C   0  0  0  0  0  1  0  0  0  0  0  0
  187.0160  175.8360  136.3770 C   0  0  2  0  0  3  0  0  0  0  0  0
  185.8750  176.6520  135.7550 C   0  0  2  0  0  3  0  0  0  0  0  0
  186.4280  177.6750  134.7730 C   0  0  0  0  0  1  0  0  0  0  0  0
  185.0970  177.3720  136.8110 C   0  0  0  0  0  3  0  0  0  0  0  0
  183.0200  176.9120  135.7610 O   0  0  0  0  0  1  0  0  0  0  0  0
  183.7710  177.4800  136.7850 C   0  0  0  0  0  3  0  0  0  0  0  0
  186.5510  174.4940  136.7010 N   0  0  0  0  0  2  0  0  0  0  0  0
  186.7860  172.8120  134.9410 C   0  0  1  0  0  3  0  0  0  0  0  0
  184.5680  173.3650  135.8440 C   0  0  0  0  0  2  0  0  0  0  0  0
  184.5110  172.0190  135.1520 C   0  0  1  0  0  3  0  0  0  0  0  0
  185.9290  173.9370  135.5070 C   0  0  1  0  0  3  0  0  0  0  0  0
  186.8460  171.6770  135.8790 N   0  0  0  0  0  0  0  0  0  0  0  0
  188.0090  170.8920  135.5030 C   0  0  0  0  0  1  0  0  0  0  0  0
  185.9270  171.6470  134.7270 C   0  0  2  0  0  3  0  0  0  0  0  0
  183.9230  170.9620  136.0780 C   0  0  0  0  0  2  0  0  0  0  0  0
  181.5670  171.9560  137.2790 O   0  0  0  0  0  0  0  0  0  0  0  0
  181.4280  171.1640  136.3070 C   0  0  0  0  0  0  0  0  0  0  0  0
  182.4220  169.7560  134.6140 O   0  0  0  0  0  1  0  0  0  0  0  0
  182.5770  170.6080  135.6530 N   0  0  0  0  0  0  0  0  0  0  0  0
  180.0520  170.8440  135.8210 C   0  0  0  0  0  2  0  0  0  0  0  0
  179.6790  171.7130  134.6310 C   0  0  0  0  0  2  0  0  0  0  0  0
  179.6820  173.1790  135.0210 C   0  0  0  0  0  1  0  0  0  0  0  0
  2  9  1  0  0  0  0
  2 19  1  1  0  0  0
  3  1  1  6  0  0  0
  3  2  1  0  0  0  0
  4  3  1  0  0  0  0
  5  8  1  6  0  0  0
  5 13  1  0  0  0  0
  6  8  1  0  0  0  0
  7 12  1  0  0  0  0
  9 11  1  6  0  0  0
  9  5  1  0  0  0  0
 10  4  1  0  0  0  0
 10  7  1  0  0  0  0
 11  6  2  0  0  0  0
 12 11  1  0  0  0  0
 13 15  1  0  0  0  0
 13 14  1  1  0  0  0
 15 14  1  0  0  0  0
 15 16  1  1  0  0  0
 16 18  1  0  0  0  0
 18 17  1  0  0  0  0
 19 20  1  0  0  0  0
 20 22  1  0  0  0  0
 21 22  2  0  0  0  0
 22 23  1  0  0  0  0
 24 30  1  0  0  0  0
 24  1  1  1  0  0  0
 25 26  1  6  0  0  0
 25 24  1  0  0  0  0
 25 27  1  0  0  0  0
 28 29  1  0  0  0  0
 29 27  2  0  0  0  0
 31 34  1  0  0  0  0
 31 35  1  1  0  0  0
 33 32  1  0  0  0  0
 33 38  1  1  0  0  0
 34 32  1  0  0  0  0
 34 30  1  1  0  0  0
 36 35  1  0  0  0  0
 37 31  1  0  0  0  0
 37 33  1  0  0  0  0
 37 35  1  1  0  0  0
 40 39  2  0  0  0  0
 41 42  1  0  0  0  0
 42 38  1  0  0  0  0
 42 40  1  0  0  0  0
 43 40  1  0  0  0  0
 44 45  1  0  0  0  0
 44 43  1  0  0  0  0
M  END
>  <MODEL>
6

>  <REMARK>
 VINA RESULT:      -5.5      4.046      9.787
  Name = 
  16 active torsions:
  status: ('A' for Active; 'I' for Inactive)
    1  A    between atoms: C_1  and  C_19
    2  A    between atoms: N_2  and  C_22
    3  A    between atoms: N_2  and  C_27
    4  A    between atoms: C_3  and  C_5
    5  A    between atoms: C_5  and  C_33
    6  A    between atoms: C_7  and  C_16
    7  A    between atoms: C_8  and  C_11
    8  A    between atoms: C_9  and  O_38
    9  A    between atoms: C_11  and  O_38
   10  A    between atoms: C_13  and  C_40
   11  A    between atoms: C_19  and  C_22
   12  A    between atoms: C_22  and  C_40
   13  A    between atoms: C_23  and  C_26
   14  A    between atoms: C_26  and  N_45
   15  A    between atoms: C_28  and  C_43
   16  A    between atoms: C_29  and  C_43
                            x       y       z     vdW  Elec       q    Type
                         _______ _______ _______ _____ _____    ______ ____

>  <TORSDO>
F 16

$$$$
=
 OpenBabel11032420393D

 45 49  0  0  1  0  0  0  0  0999 V2000
  185.7900  177.7800  141.2300 C   0  0  0  0  0  2  0  0  0  0  0  0
  183.4420  178.8490  141.0480 C   0  0  2  0  0  3  0  0  0  0  0  0
  184.6550  178.5710  141.8990 C   0  0  2  0  0  3  0  0  0  0  0  0
  185.0580  179.6890  142.8480 C   0  0  0  0  0  2  0  0  0  0  0  0
  180.9320  178.7810  140.7210 C   0  0  1  0  0  3  0  0  0  0  0  0
  180.4370  179.2230  142.9520 N   0  0  0  0  0  0  0  0  0  0  0  0
  183.5910  178.5420  144.5480 C   0  0  0  0  0  2  0  0  0  0  0  0
  179.9330  179.0750  141.6840 O   0  0  0  0  0  0  0  0  0  0  0  0
  182.1870  178.8550  141.5540 C   0  0  2  0  0  3  0  0  0  0  0  0
  184.9500  179.1840  144.2830 C   0  0  0  0  0  2  0  0  0  0  0  0
  181.7160  179.0710  142.9470 C   0  0  0  0  0  0  0  0  0  0  0  0
  182.4890  179.5060  144.1560 C   0  0  0  0  0  2  0  0  0  0  0  0
  180.6930  177.3520  140.2440 C   0  0  1  0  0  3  0  0  0  0  0  0
  179.4060  176.8440  140.8640 C   0  0  0  0  0  2  0  0  0  0  0  0
  179.4340  177.2450  139.4070 C   0  0  2  0  0  3  0  0  0  0  0  0
  179.4880  175.9830  138.5670 C   0  0  0  0  0  2  0  0  0  0  0  0
  180.7940  173.9660  137.9840 C   0  0  0  0  0  1  0  0  0  0  0  0
  180.8090  175.2670  138.7580 C   0  0  0  0  0  2  0  0  0  0  0  0
  183.6300  179.1150  139.5810 C   0  0  0  0  0  2  0  0  0  0  0  0
  183.5580  177.9130  138.8280 O   0  0  0  0  0  0  0  0  0  0  0  0
  183.4260  177.0200  136.7220 O   0  0  0  0  0  0  0  0  0  0  0  0
  183.0010  177.8650  137.5500 C   0  0  0  0  0  0  0  0  0  0  0  0
  181.9100  178.7960  137.1390 C   0  0  0  0  0  1  0  0  0  0  0  0
  186.9510  178.6350  140.7150 C   0  0  2  0  0  3  0  0  0  0  0  0
  187.5890  178.0080  139.4690 C   0  0  2  0  0  3  0  0  0  0  0  0
  189.0120  178.5170  139.2880 C   0  0  0  0  0  1  0  0  0  0  0  0
  186.8000  178.3430  138.2410 C   0  0  0  0  0  3  0  0  0  0  0  0
  187.4890  176.3710  137.1180 O   0  0  0  0  0  1  0  0  0  0  0  0
  186.7770  177.5650  137.1630 C   0  0  0  0  0  3  0  0  0  0  0  0
  187.9420  178.7530  141.7770 N   0  0  0  0  0  2  0  0  0  0  0  0
  189.2330  176.7800  142.4250 C   0  0  1  0  0  3  0  0  0  0  0  0
  187.6940  177.8380  144.0220 C   0  0  0  0  0  2  0  0  0  0  0  0
  188.6890  176.9790  144.7740 C   0  0  1  0  0  3  0  0  0  0  0  0
  187.9090  177.5240  142.5570 C   0  0  1  0  0  3  0  0  0  0  0  0
  190.3330  177.5580  143.0240 N   0  0  0  0  0  0  0  0  0  0  0  0
  191.5640  177.0350  142.4590 C   0  0  0  0  0  1  0  0  0  0  0  0
  189.7070  176.4510  143.7700 C   0  0  2  0  0  3  0  0  0  0  0  0
  189.3710  177.7820  145.8730 C   0  0  0  0  0  2  0  0  0  0  0  0
  192.0970  177.0990  146.1630 O   0  0  0  0  0  0  0  0  0  0  0  0
  191.2870  176.6040  146.9950 C   0  0  0  0  0  0  0  0  0  0  0  0
  189.0210  176.3560  147.7970 O   0  0  0  0  0  1  0  0  0  0  0  0
  189.8860  176.8940  146.9050 N   0  0  0  0  0  0  0  0  0  0  0  0
  191.8130  175.7430  148.0950 C   0  0  0  0  0  2  0  0  0  0  0  0
  193.2650  176.0740  148.4000 C   0  0  0  0  0  2  0  0  0  0  0  0
  193.3700  176.8580  149.6940 C   0  0  0  0  0  1  0  0  0  0  0  0
  2 19  1  6  0  0  0
  2  9  1  0  0  0  0
  2  3  1  0  0  0  0
  3  1  1  6  0  0  0
  3  4  1  0  0  0  0
  4 10  1  0  0  0  0
  5  9  1  0  0  0  0
  5  8  1  1  0  0  0
  8  6  1  0  0  0  0
  9 11  1  6  0  0  0
 10  7  1  0  0  0  0
 11  6  2  0  0  0  0
 11 12  1  0  0  0  0
 12  7  1  0  0  0  0
 13  5  1  0  0  0  0
 13 14  1  1  0  0  0
 15 16  1  6  0  0  0
 15 13  1  0  0  0  0
 15 14  1  0  0  0  0
 16 18  1  0  0  0  0
 17 18  1  0  0  0  0
 20 19  1  0  0  0  0
 21 22  2  0  0  0  0
 22 20  1  0  0  0  0
 23 22  1  0  0  0  0
 24  1  1  1  0  0  0
 24 30  1  0  0  0  0
 25 26  1  6  0  0  0
 25 24  1  0  0  0  0
 27 25  1  0  0  0  0
 28 29  1  0  0  0  0
 29 27  2  0  0  0  0
 31 34  1  0  0  0  0
 31 35  1  1  0  0  0
 31 37  1  0  0  0  0
 32 33  1  0  0  0  0
 33 38  1  1  0  0  0
 34 30  1  6  0  0  0
 34 32  1  0  0  0  0
 36 35  1  0  0  0  0
 37 35  1  1  0  0  0
 37 33  1  0  0  0  0
 38 42  1  0  0  0  0
 39 40  2  0  0  0  0
 40 43  1  0  0  0  0
 42 40  1  0  0  0  0
 42 41  1  0  0  0  0
 43 44  1  0  0  0  0
 44 45  1  0  0  0  0
M  END
>  <MODEL>
7

>  <REMARK>
 VINA RESULT:      -5.4      1.668      2.226
  Name = 
  16 active torsions:
  status: ('A' for Active; 'I' for Inactive)
    1  A    between atoms: C_1  and  C_19
    2  A    between atoms: N_2  and  C_22
    3  A    between atoms: N_2  and  C_27
    4  A    between atoms: C_3  and  C_5
    5  A    between atoms: C_5  and  C_33
    6  A    between atoms: C_7  and  C_16
    7  A    between atoms: C_8  and  C_11
    8  A    between atoms: C_9  and  O_38
    9  A    between atoms: C_11  and  O_38
   10  A    between atoms: C_13  and  C_40
   11  A    between atoms: C_19  and  C_22
   12  A    between atoms: C_22  and  C_40
   13  A    between atoms: C_23  and  C_26
   14  A    between atoms: C_26  and  N_45
   15  A    between atoms: C_28  and  C_43
   16  A    between atoms: C_29  and  C_43
                            x       y       z     vdW  Elec       q    Type
                         _______ _______ _______ _____ _____    ______ ____

>  <TORSDO>
F 16

$$$$
=
 OpenBabel11032420393D

 45 49  0  0  1  0  0  0  0  0999 V2000
  187.1350  177.6630  141.5240 C   0  0  0  0  0  2  0  0  0  0  0  0
  186.7520  177.2260  144.0440 C   0  0  2  0  0  3  0  0  0  0  0  0
  186.2680  177.8780  142.7750 C   0  0  2  0  0  3  0  0  0  0  0  0
  184.7590  177.8840  142.5760 C   0  0  0  0  0  2  0  0  0  0  0  0
  187.3570  177.3870  146.4970 C   0  0  1  0  0  3  0  0  0  0  0  0
  185.6970  178.9390  147.0020 N   0  0  0  0  0  0  0  0  0  0  0  0
  184.7890  180.1260  143.7270 C   0  0  0  0  0  2  0  0  0  0  0  0
  186.6690  178.1120  147.5050 O   0  0  0  0  0  0  0  0  0  0  0  0
  186.6070  177.8060  145.2580 C   0  0  2  0  0  3  0  0  0  0  0  0
  184.2710  179.3280  142.5350 C   0  0  0  0  0  2  0  0  0  0  0  0
  185.6390  178.8350  145.7200 C   0  0  0  0  0  0  0  0  0  0  0  0
  184.4440  179.4020  145.0130 C   0  0  0  0  0  2  0  0  0  0  0  0
  188.7870  177.9140  146.4580 C   0  0  1  0  0  3  0  0  0  0  0  0
  189.3200  177.9750  147.8770 C   0  0  0  0  0  2  0  0  0  0  0  0
  189.7790  176.8770  146.9450 C   0  0  2  0  0  3  0  0  0  0  0  0
  191.1680  177.2270  146.4450 C   0  0  0  0  0  2  0  0  0  0  0  0
  192.4270  175.6310  147.8530 C   0  0  0  0  0  1  0  0  0  0  0  0
  192.0580  176.0010  146.4310 C   0  0  0  0  0  2  0  0  0  0  0  0
  187.4340  175.8900  143.9590 C   0  0  0  0  0  2  0  0  0  0  0  0
  188.4040  175.8740  142.9230 O   0  0  0  0  0  0  0  0  0  0  0  0
  190.5570  175.1700  143.2710 O   0  0  0  0  0  0  0  0  0  0  0  0
  189.7550  176.1320  143.1600 C   0  0  0  0  0  0  0  0  0  0  0  0
  190.2720  177.5250  143.2880 C   0  0  0  0  0  1  0  0  0  0  0  0
  186.8790  178.6560  140.3880 C   0  0  2  0  0  3  0  0  0  0  0  0
  185.6040  178.2950  139.6150 C   0  0  2  0  0  3  0  0  0  0  0  0
  185.9510  177.7950  138.2200 C   0  0  0  0  0  1  0  0  0  0  0  0
  184.7040  179.4850  139.4880 C   0  0  0  0  0  3  0  0  0  0  0  0
  182.7680  178.1390  139.2270 O   0  0  0  0  0  1  0  0  0  0  0  0
  183.3900  179.3810  139.3050 C   0  0  0  0  0  3  0  0  0  0  0  0
  188.0270  178.6370  139.4910 N   0  0  0  0  0  2  0  0  0  0  0  0
  188.5260  176.5660  138.2880 C   0  0  1  0  0  3  0  0  0  0  0  0
  190.1320  177.4800  139.9070 C   0  0  0  0  0  2  0  0  0  0  0  0
  190.8420  176.5130  138.9830 C   0  0  1  0  0  3  0  0  0  0  0  0
  188.6570  177.3280  139.6010 C   0  0  1  0  0  3  0  0  0  0  0  0
  189.2790  177.2400  137.2140 N   0  0  0  0  0  0  0  0  0  0  0  0
  188.7370  176.7500  135.9600 C   0  0  0  0  0  1  0  0  0  0  0  0
  189.8510  176.0740  137.9110 C   0  0  2  0  0  3  0  0  0  0  0  0
  192.0680  177.1670  138.3590 C   0  0  0  0  0  2  0  0  0  0  0  0
  194.4430  175.8080  139.0600 O   0  0  0  0  0  0  0  0  0  0  0  0
  193.9550  175.5640  137.9230 C   0  0  0  0  0  0  0  0  0  0  0  0
  192.2410  175.9630  136.2670 O   0  0  0  0  0  1  0  0  0  0  0  0
  192.7580  176.2250  137.4900 N   0  0  0  0  0  0  0  0  0  0  0  0
  194.6180  174.5510  137.0490 C   0  0  0  0  0  2  0  0  0  0  0  0
  194.4210  173.1470  137.5960 C   0  0  0  0  0  2  0  0  0  0  0  0
  195.7290  172.6000  138.1360 C   0  0  0  0  0  1  0  0  0  0  0  0
  2 19  1  6  0  0  0
  2  9  1  0  0  0  0
  3  1  1  6  0  0  0
  3  2  1  0  0  0  0
  4  3  1  0  0  0  0
  5  8  1  1  0  0  0
  6  8  1  0  0  0  0
  7 12  1  0  0  0  0
  9 11  1  1  0  0  0
  9  5  1  0  0  0  0
 10  4  1  0  0  0  0
 10  7  1  0  0  0  0
 11  6  2  0  0  0  0
 12 11  1  0  0  0  0
 13  5  1  0  0  0  0
 13 15  1  0  0  0  0
 13 14  1  1  0  0  0
 15 16  1  6  0  0  0
 15 14  1  0  0  0  0
 18 16  1  0  0  0  0
 18 17  1  0  0  0  0
 20 22  1  0  0  0  0
 20 19  1  0  0  0  0
 22 21  2  0  0  0  0
 22 23  1  0  0  0  0
 24  1  1  1  0  0  0
 25 26  1  6  0  0  0
 25 24  1  0  0  0  0
 27 25  1  0  0  0  0
 28 29  1  0  0  0  0
 29 27  2  0  0  0  0
 30 24  1  0  0  0  0
 31 35  1  6  0  0  0
 31 34  1  0  0  0  0
 33 38  1  6  0  0  0
 33 32  1  0  0  0  0
 34 30  1  6  0  0  0
 34 32  1  0  0  0  0
 36 35  1  0  0  0  0
 37 35  1  6  0  0  0
 37 31  1  0  0  0  0
 37 33  1  0  0  0  0
 40 39  2  0  0  0  0
 41 42  1  0  0  0  0
 42 40  1  0  0  0  0
 42 38  1  0  0  0  0
 43 44  1  0  0  0  0
 43 40  1  0  0  0  0
 44 45  1  0  0  0  0
M  END
>  <MODEL>
8

>  <REMARK>
 VINA RESULT:      -5.3      2.840      7.706
  Name = 
  16 active torsions:
  status: ('A' for Active; 'I' for Inactive)
    1  A    between atoms: C_1  and  C_19
    2  A    between atoms: N_2  and  C_22
    3  A    between atoms: N_2  and  C_27
    4  A    between atoms: C_3  and  C_5
    5  A    between atoms: C_5  and  C_33
    6  A    between atoms: C_7  and  C_16
    7  A    between atoms: C_8  and  C_11
    8  A    between atoms: C_9  and  O_38
    9  A    between atoms: C_11  and  O_38
   10  A    between atoms: C_13  and  C_40
   11  A    between atoms: C_19  and  C_22
   12  A    between atoms: C_22  and  C_40
   13  A    between atoms: C_23  and  C_26
   14  A    between atoms: C_26  and  N_45
   15  A    between atoms: C_28  and  C_43
   16  A    between atoms: C_29  and  C_43
                            x       y       z     vdW  Elec       q    Type
                         _______ _______ _______ _____ _____    ______ ____

>  <TORSDO>
F 16

$$$$
=
 OpenBabel11032420393D

 45 49  0  0  1  0  0  0  0  0999 V2000
  181.9340  177.5830  138.6590 C   0  0  0  0  0  2  0  0  0  0  0  0
  181.3810  175.3800  137.4210 C   0  0  2  0  0  3  0  0  0  0  0  0
  181.0010  176.3730  138.4900 C   0  0  2  0  0  3  0  0  0  0  0  0
  179.5090  176.6230  138.6500 C   0  0  0  0  0  2  0  0  0  0  0  0
  181.8400  172.9940  136.7100 C   0  0  1  0  0  3  0  0  0  0  0  0
  180.2160  172.0650  138.0950 N   0  0  0  0  0  0  0  0  0  0  0  0
  179.5580  174.7790  140.3670 C   0  0  0  0  0  2  0  0  0  0  0  0
  181.1220  171.8310  137.0920 O   0  0  0  0  0  0  0  0  0  0  0  0
  181.1850  174.0490  137.5650 C   0  0  2  0  0  3  0  0  0  0  0  0
  179.0820  176.1930  140.0490 C   0  0  0  0  0  2  0  0  0  0  0  0
  180.2330  173.3080  138.4330 C   0  0  0  0  0  0  0  0  0  0  0  0
  179.1070  173.8320  139.2740 C   0  0  0  0  0  2  0  0  0  0  0  0
  183.2910  172.7890  137.1360 C   0  0  1  0  0  3  0  0  0  0  0  0
  183.7670  171.4510  136.6030 C   0  0  0  0  0  2  0  0  0  0  0  0
  184.2210  172.7320  135.9410 C   0  0  2  0  0  3  0  0  0  0  0  0
  185.6420  173.0210  136.3890 C   0  0  0  0  0  2  0  0  0  0  0  0
  187.8410  172.5300  135.3690 C   0  0  0  0  0  1  0  0  0  0  0  0
  186.5800  171.9180  135.9430 C   0  0  0  0  0  2  0  0  0  0  0  0
  182.0120  175.8840  136.1540 C   0  0  0  0  0  2  0  0  0  0  0  0
  183.4240  175.9750  136.2850 O   0  0  0  0  0  0  0  0  0  0  0  0
  183.7140  177.4930  134.5940 O   0  0  0  0  0  0  0  0  0  0  0  0
  184.1720  176.9560  135.6340 C   0  0  0  0  0  0  0  0  0  0  0  0
  185.5080  177.3840  136.1420 C   0  0  0  0  0  1  0  0  0  0  0  0
  181.2660  178.8310  139.2390 C   0  0  2  0  0  3  0  0  0  0  0  0
  180.9810  179.8660  138.1420 C   0  0  2  0  0  3  0  0  0  0  0  0
  181.4250  179.3370  136.7860 C   0  0  0  0  0  1  0  0  0  0  0  0
  181.7050  181.1470  138.4180 C   0  0  0  0  0  3  0  0  0  0  0  0
  179.9500  182.4680  137.5220 O   0  0  0  0  0  1  0  0  0  0  0  0
  181.2020  182.3410  138.1150 C   0  0  0  0  0  3  0  0  0  0  0  0
  182.1520  179.4020  140.2450 N   0  0  0  0  0  2  0  0  0  0  0  0
  183.9540  177.8800  140.8910 C   0  0  1  0  0  3  0  0  0  0  0  0
  182.4610  178.8330  142.5950 C   0  0  0  0  0  2  0  0  0  0  0  0
  183.7310  178.3390  143.2560 C   0  0  1  0  0  3  0  0  0  0  0  0
  182.5270  178.3380  141.1660 C   0  0  1  0  0  3  0  0  0  0  0  0
  184.9150  178.9610  141.1790 N   0  0  0  0  0  0  0  0  0  0  0  0
  186.1370  178.6270  140.4710 C   0  0  0  0  0  1  0  0  0  0  0  0
  184.6860  177.8830  142.1580 C   0  0  2  0  0  3  0  0  0  0  0  0
  184.3580  179.4370  144.1050 C   0  0  0  0  0  2  0  0  0  0  0  0
  186.9800  178.3990  144.2720 O   0  0  0  0  0  0  0  0  0  0  0  0
  186.2830  178.3750  145.3240 C   0  0  0  0  0  0  0  0  0  0  0  0
  184.1930  178.8410  146.4440 O   0  0  0  0  0  1  0  0  0  0  0  0
  184.9390  178.8730  145.3140 N   0  0  0  0  0  0  0  0  0  0  0  0
  186.8900  177.8580  146.5860 C   0  0  0  0  0  2  0  0  0  0  0  0
  188.3880  177.6560  146.4270 C   0  0  0  0  0  2  0  0  0  0  0  0
  188.9790  177.0550  147.6890 C   0  0  0  0  0  1  0  0  0  0  0  0
  2 19  1  1  0  0  0
  2  9  1  0  0  0  0
  2  3  1  0  0  0  0
  3  4  1  0  0  0  0
  3  1  1  6  0  0  0
  4 10  1  0  0  0  0
  5  8  1  1  0  0  0
  5 13  1  0  0  0  0
  5  9  1  0  0  0  0
  6 11  2  0  0  0  0
  8  6  1  0  0  0  0
  9 11  1  6  0  0  0
 10  7  1  0  0  0  0
 11 12  1  0  0  0  0
 12  7  1  0  0  0  0
 13 14  1  6  0  0  0
 15 16  1  1  0  0  0
 15 14  1  0  0  0  0
 15 13  1  0  0  0  0
 17 18  1  0  0  0  0
 18 16  1  0  0  0  0
 19 20  1  0  0  0  0
 21 22  2  0  0  0  0
 22 23  1  0  0  0  0
 22 20  1  0  0  0  0
 24  1  1  6  0  0  0
 24 30  1  0  0  0  0
 25 26  1  6  0  0  0
 25 27  1  0  0  0  0
 25 24  1  0  0  0  0
 28 29  1  0  0  0  0
 29 27  2  0  0  0  0
 31 34  1  0  0  0  0
 31 35  1  6  0  0  0
 31 37  1  0  0  0  0
 32 33  1  0  0  0  0
 33 38  1  6  0  0  0
 34 30  1  6  0  0  0
 34 32  1  0  0  0  0
 36 35  1  0  0  0  0
 37 35  1  6  0  0  0
 37 33  1  0  0  0  0
 38 42  1  0  0  0  0
 39 40  2  0  0  0  0
 40 43  1  0  0  0  0
 42 40  1  0  0  0  0
 42 41  1  0  0  0  0
 44 43  1  0  0  0  0
 44 45  1  0  0  0  0
M  END
>  <MODEL>
9

>  <REMARK>
 VINA RESULT:      -5.3      2.974      6.290
  Name = 
  16 active torsions:
  status: ('A' for Active; 'I' for Inactive)
    1  A    between atoms: C_1  and  C_19
    2  A    between atoms: N_2  and  C_22
    3  A    between atoms: N_2  and  C_27
    4  A    between atoms: C_3  and  C_5
    5  A    between atoms: C_5  and  C_33
    6  A    between atoms: C_7  and  C_16
    7  A    between atoms: C_8  and  C_11
    8  A    between atoms: C_9  and  O_38
    9  A    between atoms: C_11  and  O_38
   10  A    between atoms: C_13  and  C_40
   11  A    between atoms: C_19  and  C_22
   12  A    between atoms: C_22  and  C_40
   13  A    between atoms: C_23  and  C_26
   14  A    between atoms: C_26  and  N_45
   15  A    between atoms: C_28  and  C_43
   16  A    between atoms: C_29  and  C_43
                            x       y       z     vdW  Elec       q    Type
                         _______ _______ _______ _____ _____    ______ ____

>  <TORSDO>
F 16

$$$$
