=
 OpenBabel11042412423D

 57 62  0  0  1  0  0  0  0  0999 V2000
  190.3210  176.8660  139.1540 C   0  0  0  0  0  0  0  0  0  0  0  0
  190.7460  173.7700  136.7190 S   0  0  0  0  0  0  0  0  0  0  0  0
  188.9950  173.5290  136.4520 C   0  0  0  0  0  0  0  0  0  0  0  0
  188.2000  178.6960  140.7650 C   0  0  0  0  0  1  0  0  0  0  0  0
  190.3320  175.4100  137.2130 N   0  0  0  0  0  0  0  0  0  0  0  0
  185.5940  178.6260  139.0890 C   0  0  0  0  0  0  0  0  0  0  0  0
  185.4580  179.2270  140.1900 O   0  0  0  0  0  0  0  0  0  0  0  0
  187.9840  177.9640  139.4800 C   0  0  0  0  0  0  0  0  0  0  0  0
  188.2630  174.5970  136.4800 N   0  0  0  0  0  0  0  0  0  0  0  0
  190.9640  175.9860  138.3740 C   0  0  0  0  0  3  0  0  0  0  0  0
  188.3050  176.6860  137.7120 C   0  0  0  0  0  0  0  0  0  0  0  0
  188.4320  172.2140  136.3330 N   0  0  0  0  0  2  0  0  0  0  0  0
  188.9210  177.1870  138.8280 C   0  0  0  0  0  0  0  0  0  0  0  0
  186.8230  177.9490  138.7730 N   0  0  0  0  0  0  0  0  0  0  0  0
  189.0100  175.8190  136.7130 C   0  0  1  0  0  3  0  0  0  0  0  0
  187.0130  177.1750  137.6770 C   0  0  0  0  0  3  0  0  0  0  0  0
  186.7130  170.8430  135.4290 C   0  0  0  0  0  3  0  0  0  0  0  0
  187.0880  171.9240  136.0320 N   0  0  0  0  0  0  0  0  0  0  0  0
  185.2790  170.5910  135.1290 C   0  0  0  0  0  2  0  0  0  0  0  0
  184.4860  171.8890  135.1590 C   0  0  0  0  0  2  0  0  0  0  0  0
  183.2670  171.7710  136.0670 C   0  0  0  0  0  2  0  0  0  0  0  0
  180.7410  172.9710  136.7140 C   0  0  0  0  0  1  0  0  0  0  0  0
  183.1300  172.9740  136.9610 C   0  0  0  0  0  0  0  0  0  0  0  0
  181.9830  173.4910  137.2360 N   0  0  0  0  0  0  0  0  0  0  0  0
  184.5740  173.6790  137.6740 Cl  0  0  0  0  0  0  0  0  0  0  0  0
  184.4440  178.5850  138.1270 C   0  0  0  0  0  2  0  0  0  0  0  0
  183.1060  178.3950  138.8300 C   0  0  2  0  0  3  0  0  0  0  0  0
  182.9120  176.9210  139.1240 C   0  0  0  0  0  1  0  0  0  0  0  0
  181.9610  178.9080  137.9530 C   0  0  0  0  0  2  0  0  0  0  0  0
  180.6910  179.9250  139.8450 C   0  0  0  0  0  1  0  0  0  0  0  0
  181.3150  180.1940  138.4840 C   0  0  1  0  0  0  0  0  0  0  0  0
  182.2800  181.1960  138.6190 O   0  0  0  0  0  1  0  0  0  0  0  0
  180.2080  180.6510  137.5180 C   0  0  1  0  0  3  0  0  0  0  0  0
  179.0420  181.0250  138.1990 O   0  0  0  0  0  1  0  0  0  0  0  0
  180.6480  181.7150  136.4970 C   0  0  1  0  0  3  0  0  0  0  0  0
  180.4740  181.2010  135.2110 O   0  0  0  0  0  1  0  0  0  0  0  0
  180.9330  184.9080  135.6870 C   0  0  0  0  0  2  0  0  0  0  0  0
  180.5470  183.8910  137.5630 O   0  0  0  0  0  0  0  0  0  0  0  0
  181.5050  184.5350  136.9070 O   0  0  0  0  0  0  0  0  0  0  0  0
  179.9910  183.8090  135.3220 C   0  0  0  0  0  2  0  0  0  0  0  0
  179.9200  183.0630  136.6180 C   0  0  1  0  0  3  0  0  0  0  0  0
  191.0120  177.4730  140.3270 C   0  0  0  0  0  2  0  0  0  0  0  0
  190.9190  176.5980  141.4830 N   0  0  0  0  0  2  0  0  0  0  0  0
  191.4850  177.3330  142.6050 C   0  0  0  0  0  2  0  0  0  0  0  0
  188.8070  177.0760  145.3630 C   0  0  1  0  0  3  0  0  0  0  0  0
  190.9920  176.8960  146.2750 C   0  0  0  0  0  2  0  0  0  0  0  0
  191.6140  177.4000  145.0520 N   0  0  0  0  0  2  0  0  0  0  0  0
  190.8230  176.9310  143.9150 C   0  0  1  0  0  3  0  0  0  0  0  0
  189.3930  177.4600  144.0040 C   0  0  0  0  0  2  0  0  0  0  0  0
  189.6810  177.5170  146.4540 N   0  0  0  0  0  2  0  0  0  0  0  0
  184.3730  178.4580  143.4550 C   0  0  0  0  0  1  0  0  0  0  0  0
  184.8700  178.7110  145.8900 C   0  0  0  0  0  3  0  0  0  0  0  0
  186.5690  177.7830  144.4370 C   0  0  0  0  0  3  0  0  0  0  0  0
  185.7290  178.5730  146.9840 C   0  0  0  0  0  3  0  0  0  0  0  0
  187.4350  177.6450  145.5320 C   0  0  0  0  0  0  0  0  0  0  0  0
  185.2890  178.3160  144.6150 C   0  0  0  0  0  0  0  0  0  0  0  0
  187.0110  178.0370  146.8040 C   0  0  0  0  0  3  0  0  0  0  0  0
  1 42  1  0  0  0  0
  2  5  1  0  0  0  0
  3  9  2  0  0  0  0
  3  2  1  0  0  0  0
  5 10  1  0  0  0  0
  6  7  2  0  0  0  0
  8  4  1  0  0  0  0
 10  1  2  0  0  0  0
 11 13  1  0  0  0  0
 12  3  1  0  0  0  0
 13  1  1  0  0  0  0
 13  8  2  0  0  0  0
 14  6  1  0  0  0  0
 14  8  1  0  0  0  0
 15  9  1  1  0  0  0
 15  5  1  0  0  0  0
 15 11  1  0  0  0  0
 16 11  2  0  0  0  0
 16 14  1  0  0  0  0
 17 18  2  0  0  0  0
 18 12  1  0  0  0  0
 19 20  1  0  0  0  0
 19 17  1  0  0  0  0
 20 21  1  0  0  0  0
 21 23  1  0  0  0  0
 22 24  1  0  0  0  0
 23 24  2  0  0  0  0
 23 25  1  0  0  0  0
 26 27  1  0  0  0  0
 26  6  1  0  0  0  0
 27 28  1  6  0  0  0
 29 31  1  0  0  0  0
 29 27  1  0  0  0  0
 31 32  1  0  0  0  0
 31 30  1  1  0  0  0
 33 34  1  1  0  0  0
 33 31  1  0  0  0  0
 35 36  1  6  0  0  0
 35 33  1  0  0  0  0
 37 39  1  0  0  0  0
 39 38  1  0  0  0  0
 40 37  1  0  0  0  0
 40 41  1  0  0  0  0
 41 35  1  6  0  0  0
 41 38  1  0  0  0  0
 42 43  1  0  0  0  0
 43 44  1  0  0  0  0
 45 55  1  1  0  0  0
 45 50  1  0  0  0  0
 46 50  1  0  0  0  0
 47 46  1  0  0  0  0
 48 44  1  6  0  0  0
 48 49  1  0  0  0  0
 48 47  1  0  0  0  0
 49 45  1  0  0  0  0
 51 56  1  0  0  0  0
 52 54  1  0  0  0  0
 53 56  1  0  0  0  0
 53 55  2  0  0  0  0
 55 57  1  0  0  0  0
 56 52  2  0  0  0  0
 57 54  2  0  0  0  0
M  END
>  <MODEL>
1

>  <REMARK>
 VINA RESULT:      -9.1      0.000      0.000
  Name = 
  17 active torsions:
  status: ('A' for Active; 'I' for Inactive)
    1  A    between atoms: C_1  and  C_22
    2  A    between atoms: C_1  and  C_24
    3  A    between atoms: C_2  and  C_40
    4  A    between atoms: C_4  and  C_44
    5  A    between atoms: N_7  and  N_46
    6  A    between atoms: C_12  and  C_37
    7  A    between atoms: C_14  and  C_54
    8  A    between atoms: C_16  and  C_24
    9  A    between atoms: C_16  and  C_28
   10  A    between atoms: C_17  and  C_39
   11  A    between atoms: C_22  and  C_39
   12  A    between atoms: N_23  and  C_26
   13  A    between atoms: N_23  and  C_40
   14  A    between atoms: C_26  and  C_31
   15  A    between atoms: C_28  and  C_56
   16  A    between atoms: C_44  and  C_45
   17  A    between atoms: C_45  and  C_54
                            x       y       z     vdW  Elec       q    Type
                         _______ _______ _______ _____ _____    ______ ____

>  <TORSDO>
F 17

$$$$
=
 OpenBabel11042412423D

 57 62  0  0  1  0  0  0  0  0999 V2000
  190.7890  177.3380  139.9560 C   0  0  0  0  0  0  0  0  0  0  0  0
  192.3820  175.0890  137.1100 S   0  0  0  0  0  0  0  0  0  0  0  0
  190.8250  174.6820  136.3320 C   0  0  0  0  0  0  0  0  0  0  0  0
  188.0280  178.3560  141.2910 C   0  0  0  0  0  1  0  0  0  0  0  0
  191.5400  176.4640  137.8210 N   0  0  0  0  0  0  0  0  0  0  0  0
  185.9440  178.3630  138.9980 C   0  0  0  0  0  0  0  0  0  0  0  0
  185.4400  178.6260  140.1250 O   0  0  0  0  0  0  0  0  0  0  0  0
  188.2650  177.9680  139.8680 C   0  0  0  0  0  0  0  0  0  0  0  0
  189.9040  175.5900  136.3930 N   0  0  0  0  0  0  0  0  0  0  0  0
  191.7590  176.7960  139.2060 C   0  0  0  0  0  3  0  0  0  0  0  0
  189.2360  177.2620  138.0180 C   0  0  0  0  0  0  0  0  0  0  0  0
  190.5870  173.3790  135.7790 N   0  0  0  0  0  2  0  0  0  0  0  0
  189.4650  177.5320  139.3410 C   0  0  0  0  0  0  0  0  0  0  0  0
  187.3240  177.9750  138.8870 N   0  0  0  0  0  0  0  0  0  0  0  0
  190.3120  176.7990  137.0830 C   0  0  1  0  0  3  0  0  0  0  0  0
  187.9140  177.5540  137.7410 C   0  0  0  0  0  3  0  0  0  0  0  0
  188.4400  172.3690  135.6100 C   0  0  0  0  0  3  0  0  0  0  0  0
  189.4350  172.9910  135.0670 N   0  0  0  0  0  0  0  0  0  0  0  0
  187.2520  171.9770  134.8090 C   0  0  0  0  0  2  0  0  0  0  0  0
  186.2960  171.1330  135.6390 C   0  0  0  0  0  2  0  0  0  0  0  0
  184.8560  171.6030  135.4710 C   0  0  0  0  0  2  0  0  0  0  0  0
  182.1140  171.1720  136.2050 C   0  0  0  0  0  1  0  0  0  0  0  0
  184.2710  172.0600  136.7800 C   0  0  0  0  0  0  0  0  0  0  0  0
  183.0360  171.8510  137.0840 N   0  0  0  0  0  0  0  0  0  0  0  0
  185.3060  172.8780  137.9410 Cl  0  0  0  0  0  0  0  0  0  0  0  0
  185.0760  178.4160  137.7740 C   0  0  0  0  0  2  0  0  0  0  0  0
  183.7810  177.6350  137.9480 C   0  0  2  0  0  3  0  0  0  0  0  0
  184.0300  176.1840  137.5880 C   0  0  0  0  0  1  0  0  0  0  0  0
  182.6810  178.2130  137.0540 C   0  0  0  0  0  2  0  0  0  0  0  0
  180.5840  179.5650  137.0000 C   0  0  0  0  0  1  0  0  0  0  0  0
  181.4030  178.5800  137.8200 C   0  0  1  0  0  0  0  0  0  0  0  0
  180.6350  177.4350  138.0500 O   0  0  0  0  0  1  0  0  0  0  0  0
  181.7770  179.2440  139.1560 C   0  0  1  0  0  3  0  0  0  0  0  0
  181.4130  180.5970  139.1870 O   0  0  0  0  0  1  0  0  0  0  0  0
  181.2940  178.4870  140.4060 C   0  0  1  0  0  3  0  0  0  0  0  0
  182.3820  178.2870  141.2570 O   0  0  0  0  0  1  0  0  0  0  0  0
  179.8000  178.5280  143.3550 C   0  0  0  0  0  2  0  0  0  0  0  0
  179.0580  178.3100  141.3290 O   0  0  0  0  0  0  0  0  0  0  0  0
  179.2990  177.6080  142.4300 O   0  0  0  0  0  0  0  0  0  0  0  0
  180.5970  179.5120  142.5650 C   0  0  0  0  0  2  0  0  0  0  0  0
  180.1550  179.1730  141.1750 C   0  0  1  0  0  3  0  0  0  0  0  0
  191.0550  177.7050  141.3770 C   0  0  0  0  0  2  0  0  0  0  0  0
  190.9310  176.5410  142.2360 N   0  0  0  0  0  2  0  0  0  0  0  0
  191.7780  176.7880  143.3930 C   0  0  0  0  0  2  0  0  0  0  0  0
  188.9330  176.9710  145.9840 C   0  0  1  0  0  3  0  0  0  0  0  0
  191.0450  176.7620  147.0490 C   0  0  0  0  0  2  0  0  0  0  0  0
  191.7680  177.1000  145.8240 N   0  0  0  0  0  2  0  0  0  0  0  0
  191.0160  176.5620  144.6910 C   0  0  1  0  0  3  0  0  0  0  0  0
  189.6200  177.1780  144.6340 C   0  0  0  0  0  2  0  0  0  0  0  0
  189.7680  177.4710  147.0790 N   0  0  0  0  0  2  0  0  0  0  0  0
  184.7330  178.4390  143.6550 C   0  0  0  0  0  1  0  0  0  0  0  0
  185.0840  178.8740  146.0890 C   0  0  0  0  0  3  0  0  0  0  0  0
  186.8110  177.7240  144.8440 C   0  0  0  0  0  3  0  0  0  0  0  0
  185.8570  178.7820  147.2500 C   0  0  0  0  0  3  0  0  0  0  0  0
  187.5920  177.6330  146.0060 C   0  0  0  0  0  0  0  0  0  0  0  0
  185.5590  178.3450  144.8860 C   0  0  0  0  0  0  0  0  0  0  0  0
  187.1100  178.1590  147.2080 C   0  0  0  0  0  3  0  0  0  0  0  0
  1 42  1  0  0  0  0
  2  5  1  0  0  0  0
  3  9  2  0  0  0  0
  3  2  1  0  0  0  0
  5 10  1  0  0  0  0
  6  7  2  0  0  0  0
  8  4  1  0  0  0  0
 10  1  2  0  0  0  0
 11 13  1  0  0  0  0
 12  3  1  0  0  0  0
 13  8  2  0  0  0  0
 13  1  1  0  0  0  0
 14  6  1  0  0  0  0
 14  8  1  0  0  0  0
 15  9  1  1  0  0  0
 15  5  1  0  0  0  0
 15 11  1  0  0  0  0
 16 11  2  0  0  0  0
 16 14  1  0  0  0  0
 18 17  2  0  0  0  0
 18 12  1  0  0  0  0
 19 17  1  0  0  0  0
 19 20  1  0  0  0  0
 21 20  1  0  0  0  0
 21 23  1  0  0  0  0
 22 24  1  0  0  0  0
 23 24  2  0  0  0  0
 23 25  1  0  0  0  0
 26 27  1  0  0  0  0
 26  6  1  0  0  0  0
 27 28  1  6  0  0  0
 29 31  1  0  0  0  0
 29 27  1  0  0  0  0
 31 30  1  6  0  0  0
 31 32  1  0  0  0  0
 31 33  1  0  0  0  0
 33 34  1  6  0  0  0
 33 35  1  0  0  0  0
 35 36  1  1  0  0  0
 38 39  1  0  0  0  0
 39 37  1  0  0  0  0
 40 37  1  0  0  0  0
 41 35  1  6  0  0  0
 41 38  1  0  0  0  0
 41 40  1  0  0  0  0
 42 43  1  0  0  0  0
 43 44  1  0  0  0  0
 45 55  1  6  0  0  0
 45 50  1  0  0  0  0
 46 50  1  0  0  0  0
 47 46  1  0  0  0  0
 48 44  1  6  0  0  0
 48 47  1  0  0  0  0
 49 48  1  0  0  0  0
 49 45  1  0  0  0  0
 51 56  1  0  0  0  0
 52 54  1  0  0  0  0
 53 56  1  0  0  0  0
 53 55  2  0  0  0  0
 55 57  1  0  0  0  0
 56 52  2  0  0  0  0
 57 54  2  0  0  0  0
M  END
>  <MODEL>
2

>  <REMARK>
 VINA RESULT:      -9.1      1.850      3.086
  Name = 
  17 active torsions:
  status: ('A' for Active; 'I' for Inactive)
    1  A    between atoms: C_1  and  C_22
    2  A    between atoms: C_1  and  C_24
    3  A    between atoms: C_2  and  C_40
    4  A    between atoms: C_4  and  C_44
    5  A    between atoms: N_7  and  N_46
    6  A    between atoms: C_12  and  C_37
    7  A    between atoms: C_14  and  C_54
    8  A    between atoms: C_16  and  C_24
    9  A    between atoms: C_16  and  C_28
   10  A    between atoms: C_17  and  C_39
   11  A    between atoms: C_22  and  C_39
   12  A    between atoms: N_23  and  C_26
   13  A    between atoms: N_23  and  C_40
   14  A    between atoms: C_26  and  C_31
   15  A    between atoms: C_28  and  C_56
   16  A    between atoms: C_44  and  C_45
   17  A    between atoms: C_45  and  C_54
                            x       y       z     vdW  Elec       q    Type
                         _______ _______ _______ _____ _____    ______ ____

>  <TORSDO>
F 17

$$$$
=
 OpenBabel11042412423D

 57 62  0  0  1  0  0  0  0  0999 V2000
  190.9590  177.2700  139.8640 C   0  0  0  0  0  0  0  0  0  0  0  0
  192.5140  174.8350  137.1530 S   0  0  0  0  0  0  0  0  0  0  0  0
  190.9540  174.4370  136.3770 C   0  0  0  0  0  0  0  0  0  0  0  0
  188.2160  178.4360  141.1130 C   0  0  0  0  0  1  0  0  0  0  0  0
  191.7070  176.2680  137.7840 N   0  0  0  0  0  0  0  0  0  0  0  0
  186.1590  178.3920  138.7960 C   0  0  0  0  0  0  0  0  0  0  0  0
  185.6510  178.7260  139.9020 O   0  0  0  0  0  0  0  0  0  0  0  0
  188.4570  177.9700  139.7130 C   0  0  0  0  0  0  0  0  0  0  0  0
  190.0610  175.3740  136.3820 N   0  0  0  0  0  0  0  0  0  0  0  0
  191.9210  176.6620  139.1550 C   0  0  0  0  0  3  0  0  0  0  0  0
  189.4260  177.1440  137.9130 C   0  0  0  0  0  0  0  0  0  0  0  0
  190.6810  173.1150  135.8860 N   0  0  0  0  0  2  0  0  0  0  0  0
  189.6490  177.4730  139.2240 C   0  0  0  0  0  0  0  0  0  0  0  0
  187.5280  177.9570  138.7220 N   0  0  0  0  0  0  0  0  0  0  0  0
  190.4980  176.6030  137.0160 C   0  0  1  0  0  3  0  0  0  0  0  0
  188.1170  177.4620  137.6060 C   0  0  0  0  0  3  0  0  0  0  0  0
  188.3370  172.7690  135.6860 C   0  0  0  0  0  3  0  0  0  0  0  0
  189.5270  172.7280  135.1800 N   0  0  0  0  0  0  0  0  0  0  0  0
  187.1530  172.3400  134.8970 C   0  0  0  0  0  2  0  0  0  0  0  0
  186.2400  171.4540  135.7320 C   0  0  0  0  0  2  0  0  0  0  0  0
  184.7740  171.7970  135.4980 C   0  0  0  0  0  2  0  0  0  0  0  0
  182.0730  172.7680  135.5500 C   0  0  0  0  0  1  0  0  0  0  0  0
  184.2240  172.6470  136.6110 C   0  0  0  0  0  0  0  0  0  0  0  0
  183.0060  173.0680  136.6100 N   0  0  0  0  0  0  0  0  0  0  0  0
  185.2640  173.0570  137.9680 Cl  0  0  0  0  0  0  0  0  0  0  0  0
  185.3070  178.4100  137.5600 C   0  0  0  0  0  2  0  0  0  0  0  0
  184.3150  177.2560  137.5240 C   0  0  2  0  0  3  0  0  0  0  0  0
  184.3600  176.6120  136.1530 C   0  0  0  0  0  1  0  0  0  0  0  0
  182.8980  177.7570  137.8200 C   0  0  0  0  0  2  0  0  0  0  0  0
  181.0280  176.1050  137.8610 C   0  0  0  0  0  1  0  0  0  0  0  0
  182.0850  176.8010  138.7030 C   0  0  1  0  0  0  0  0  0  0  0  0
  182.9250  175.8350  139.2640 O   0  0  0  0  0  1  0  0  0  0  0  0
  181.3820  177.6010  139.8140 C   0  0  1  0  0  3  0  0  0  0  0  0
  182.2890  178.0660  140.7760 O   0  0  0  0  0  1  0  0  0  0  0  0
  180.4500  178.7170  139.3100 C   0  0  1  0  0  3  0  0  0  0  0  0
  179.1440  178.4200  139.7000 O   0  0  0  0  0  1  0  0  0  0  0  0
  179.4570  181.8650  139.1380 C   0  0  0  0  0  2  0  0  0  0  0  0
  181.3520  180.8930  138.7300 O   0  0  0  0  0  0  0  0  0  0  0  0
  180.3090  181.4380  138.1160 O   0  0  0  0  0  0  0  0  0  0  0  0
  179.6000  180.8650  140.2360 C   0  0  0  0  0  2  0  0  0  0  0  0
  180.8230  180.1300  139.7840 C   0  0  1  0  0  3  0  0  0  0  0  0
  191.2210  177.6990  141.2680 C   0  0  0  0  0  2  0  0  0  0  0  0
  191.0080  176.5950  142.1870 N   0  0  0  0  0  2  0  0  0  0  0  0
  191.7730  176.9010  143.3870 C   0  0  0  0  0  2  0  0  0  0  0  0
  188.7990  176.9980  145.8350 C   0  0  1  0  0  3  0  0  0  0  0  0
  190.8590  176.8180  147.0010 C   0  0  0  0  0  2  0  0  0  0  0  0
  191.6350  177.1850  145.8180 N   0  0  0  0  0  2  0  0  0  0  0  0
  190.9520  176.6450  144.6430 C   0  0  1  0  0  3  0  0  0  0  0  0
  189.5480  177.2340  144.5230 C   0  0  0  0  0  2  0  0  0  0  0  0
  189.5680  177.5010  146.9750 N   0  0  0  0  0  2  0  0  0  0  0  0
  184.6900  178.4070  143.3150 C   0  0  0  0  0  1  0  0  0  0  0  0
  184.9110  178.8230  145.7670 C   0  0  0  0  0  3  0  0  0  0  0  0
  186.7210  177.7210  144.5980 C   0  0  0  0  0  3  0  0  0  0  0  0
  185.6290  178.7340  146.9640 C   0  0  0  0  0  3  0  0  0  0  0  0
  187.4460  177.6330  145.7960 C   0  0  0  0  0  0  0  0  0  0  0  0
  185.4560  178.3170  144.5840 C   0  0  0  0  0  0  0  0  0  0  0  0
  186.8950  178.1360  146.9780 C   0  0  0  0  0  3  0  0  0  0  0  0
  1 42  1  0  0  0  0
  2  5  1  0  0  0  0
  3  9  2  0  0  0  0
  3  2  1  0  0  0  0
  5 10  1  0  0  0  0
  6  7  2  0  0  0  0
  8  4  1  0  0  0  0
 10  1  2  0  0  0  0
 11 13  1  0  0  0  0
 12  3  1  0  0  0  0
 13  8  2  0  0  0  0
 13  1  1  0  0  0  0
 14  6  1  0  0  0  0
 14  8  1  0  0  0  0
 15  9  1  1  0  0  0
 15  5  1  0  0  0  0
 15 11  1  0  0  0  0
 16 11  2  0  0  0  0
 16 14  1  0  0  0  0
 18 17  2  0  0  0  0
 18 12  1  0  0  0  0
 19 17  1  0  0  0  0
 19 20  1  0  0  0  0
 21 20  1  0  0  0  0
 21 23  1  0  0  0  0
 22 24  1  0  0  0  0
 23 25  1  0  0  0  0
 24 23  2  0  0  0  0
 26  6  1  0  0  0  0
 27 28  1  6  0  0  0
 27 26  1  0  0  0  0
 27 29  1  0  0  0  0
 29 31  1  0  0  0  0
 31 30  1  6  0  0  0
 31 32  1  0  0  0  0
 31 33  1  0  0  0  0
 33 34  1  1  0  0  0
 35 36  1  1  0  0  0
 35 33  1  0  0  0  0
 37 40  1  0  0  0  0
 38 41  1  0  0  0  0
 39 38  1  0  0  0  0
 39 37  1  0  0  0  0
 41 35  1  6  0  0  0
 41 40  1  0  0  0  0
 42 43  1  0  0  0  0
 43 44  1  0  0  0  0
 45 55  1  6  0  0  0
 45 50  1  0  0  0  0
 47 46  1  0  0  0  0
 48 44  1  6  0  0  0
 48 47  1  0  0  0  0
 49 48  1  0  0  0  0
 49 45  1  0  0  0  0
 50 46  1  0  0  0  0
 51 56  1  0  0  0  0
 52 54  1  0  0  0  0
 53 55  2  0  0  0  0
 54 57  2  0  0  0  0
 55 57  1  0  0  0  0
 56 53  1  0  0  0  0
 56 52  2  0  0  0  0
M  END
>  <MODEL>
3

>  <REMARK>
 VINA RESULT:      -8.9      1.614      2.440
  Name = 
  17 active torsions:
  status: ('A' for Active; 'I' for Inactive)
    1  A    between atoms: C_1  and  C_22
    2  A    between atoms: C_1  and  C_24
    3  A    between atoms: C_2  and  C_40
    4  A    between atoms: C_4  and  C_44
    5  A    between atoms: N_7  and  N_46
    6  A    between atoms: C_12  and  C_37
    7  A    between atoms: C_14  and  C_54
    8  A    between atoms: C_16  and  C_24
    9  A    between atoms: C_16  and  C_28
   10  A    between atoms: C_17  and  C_39
   11  A    between atoms: C_22  and  C_39
   12  A    between atoms: N_23  and  C_26
   13  A    between atoms: N_23  and  C_40
   14  A    between atoms: C_26  and  C_31
   15  A    between atoms: C_28  and  C_56
   16  A    between atoms: C_44  and  C_45
   17  A    between atoms: C_45  and  C_54
                            x       y       z     vdW  Elec       q    Type
                         _______ _______ _______ _____ _____    ______ ____

>  <TORSDO>
F 17

$$$$
=
 OpenBabel11042412423D

 57 62  0  0  1  0  0  0  0  0999 V2000
  183.4900  179.1530  143.2710 C   0  0  0  0  0  0  0  0  0  0  0  0
  179.6280  179.7330  142.6010 S   0  0  0  0  0  0  0  0  0  0  0  0
  179.7950  179.9190  140.8310 C   0  0  0  0  0  0  0  0  0  0  0  0
  186.4340  179.1290  141.9380 C   0  0  0  0  0  1  0  0  0  0  0  0
  181.1860  178.9110  142.5490 N   0  0  0  0  0  0  0  0  0  0  0  0
  186.0020  178.3350  138.9740 C   0  0  0  0  0  0  0  0  0  0  0  0
  187.1970  178.6510  139.2330 O   0  0  0  0  0  0  0  0  0  0  0  0
  185.1290  178.8220  141.2770 C   0  0  0  0  0  0  0  0  0  0  0  0
  180.7430  179.2360  140.2740 N   0  0  0  0  0  0  0  0  0  0  0  0
  182.1800  179.2020  143.5520 C   0  0  0  0  0  3  0  0  0  0  0  0
  182.9720  178.5330  140.9210 C   0  0  0  0  0  0  0  0  0  0  0  0
  178.9950  180.8630  140.1020 N   0  0  0  0  0  2  0  0  0  0  0  0
  183.8910  178.8500  141.8860 C   0  0  0  0  0  0  0  0  0  0  0  0
  184.9750  178.4840  139.9700 N   0  0  0  0  0  0  0  0  0  0  0  0
  181.5040  178.4180  141.2000 C   0  0  1  0  0  3  0  0  0  0  0  0
  183.6530  178.2920  139.7420 C   0  0  0  0  0  3  0  0  0  0  0  0
  179.0030  182.1700  138.1150 C   0  0  0  0  0  3  0  0  0  0  0  0
  178.9860  181.0180  138.7020 N   0  0  0  0  0  0  0  0  0  0  0  0
  178.9850  182.2750  136.6330 C   0  0  0  0  0  2  0  0  0  0  0  0
  180.3830  182.0850  136.0620 C   0  0  0  0  0  2  0  0  0  0  0  0
  180.9280  183.3890  135.4920 C   0  0  0  0  0  2  0  0  0  0  0  0
  178.9320  185.4410  135.7040 C   0  0  0  0  0  1  0  0  0  0  0  0
  180.9660  184.4710  136.5360 C   0  0  0  0  0  0  0  0  0  0  0  0
  180.0550  185.3800  136.6100 N   0  0  0  0  0  0  0  0  0  0  0  0
  182.2760  184.4840  137.7080 Cl  0  0  0  0  0  0  0  0  0  0  0  0
  185.6540  177.8410  137.6010 C   0  0  0  0  0  2  0  0  0  0  0  0
  186.6140  176.7660  137.1100 C   0  0  2  0  0  3  0  0  0  0  0  0
  186.0890  175.4080  137.5320 C   0  0  0  0  0  1  0  0  0  0  0  0
  188.0130  176.9890  137.6920 C   0  0  0  0  0  2  0  0  0  0  0  0
  188.4650  177.3470  135.2650 C   0  0  0  0  0  1  0  0  0  0  0  0
  189.1060  177.1110  136.6230 C   0  0  1  0  0  0  0  0  0  0  0  0
  189.9480  178.1870  136.9190 O   0  0  0  0  0  1  0  0  0  0  0  0
  189.9170  175.8050  136.5650 C   0  0  1  0  0  3  0  0  0  0  0  0
  190.1510  175.3940  135.2460 O   0  0  0  0  0  1  0  0  0  0  0  0
  191.2050  175.8120  137.4060 C   0  0  1  0  0  3  0  0  0  0  0  0
  191.1910  174.7060  138.2570 O   0  0  0  0  0  1  0  0  0  0  0  0
  194.3770  174.8890  137.5560 C   0  0  0  0  0  2  0  0  0  0  0  0
  193.4100  176.7720  137.0870 O   0  0  0  0  0  0  0  0  0  0  0  0
  194.0880  176.1630  138.0520 O   0  0  0  0  0  0  0  0  0  0  0  0
  193.2060  174.5010  136.7150 C   0  0  0  0  0  2  0  0  0  0  0  0
  192.5070  175.8190  136.5890 C   0  0  1  0  0  3  0  0  0  0  0  0
  184.4960  179.4230  144.3370 C   0  0  0  0  0  2  0  0  0  0  0  0
  184.9650  178.1800  144.9240 N   0  0  0  0  0  2  0  0  0  0  0  0
  185.1980  178.4500  146.3350 C   0  0  0  0  0  2  0  0  0  0  0  0
  188.9810  177.8760  145.8790 C   0  0  1  0  0  3  0  0  0  0  0  0
  188.3520  177.6530  148.1580 C   0  0  0  0  0  2  0  0  0  0  0  0
  186.9310  177.5630  147.8240 N   0  0  0  0  0  2  0  0  0  0  0  0
  186.6840  178.4160  146.6630 C   0  0  1  0  0  3  0  0  0  0  0  0
  187.5100  177.9460  145.4670 C   0  0  0  0  0  2  0  0  0  0  0  0
  189.1490  177.0620  147.0850 N   0  0  0  0  0  2  0  0  0  0  0  0
  189.6910  176.9010  141.0040 C   0  0  0  0  0  1  0  0  0  0  0  0
  191.4260  176.3270  142.7060 C   0  0  0  0  0  3  0  0  0  0  0  0
  189.3690  177.3710  143.4370 C   0  0  0  0  0  3  0  0  0  0  0  0
  191.8810  176.2960  144.0270 C   0  0  0  0  0  3  0  0  0  0  0  0
  189.8210  177.3380  144.7650 C   0  0  0  0  0  0  0  0  0  0  0  0
  190.1700  176.8640  142.4090 C   0  0  0  0  0  0  0  0  0  0  0  0
  191.0790  176.8040  145.0560 C   0  0  0  0  0  3  0  0  0  0  0  0
  1 10  2  0  0  0  0
  1 42  1  0  0  0  0
  3  2  1  0  0  0  0
  5  2  1  0  0  0  0
  5 10  1  0  0  0  0
  6  7  2  0  0  0  0
  6 14  1  0  0  0  0
  8 13  2  0  0  0  0
  8  4  1  0  0  0  0
  9  3  2  0  0  0  0
 11 15  1  0  0  0  0
 11 13  1  0  0  0  0
 12  3  1  0  0  0  0
 13  1  1  0  0  0  0
 14  8  1  0  0  0  0
 15  9  1  6  0  0  0
 15  5  1  0  0  0  0
 16 14  1  0  0  0  0
 16 11  2  0  0  0  0
 17 18  2  0  0  0  0
 18 12  1  0  0  0  0
 19 17  1  0  0  0  0
 20 19  1  0  0  0  0
 21 20  1  0  0  0  0
 21 23  1  0  0  0  0
 22 24  1  0  0  0  0
 23 24  2  0  0  0  0
 23 25  1  0  0  0  0
 26  6  1  0  0  0  0
 27 28  1  1  0  0  0
 27 26  1  0  0  0  0
 27 29  1  0  0  0  0
 31 30  1  6  0  0  0
 31 32  1  0  0  0  0
 31 29  1  0  0  0  0
 33 34  1  6  0  0  0
 33 31  1  0  0  0  0
 33 35  1  0  0  0  0
 35 36  1  1  0  0  0
 37 39  1  0  0  0  0
 38 39  1  0  0  0  0
 40 37  1  0  0  0  0
 41 40  1  0  0  0  0
 41 38  1  0  0  0  0
 41 35  1  1  0  0  0
 42 43  1  0  0  0  0
 43 44  1  0  0  0  0
 45 55  1  6  0  0  0
 45 50  1  0  0  0  0
 47 46  1  0  0  0  0
 48 44  1  6  0  0  0
 48 47  1  0  0  0  0
 49 45  1  0  0  0  0
 49 48  1  0  0  0  0
 50 46  1  0  0  0  0
 51 56  1  0  0  0  0
 52 54  1  0  0  0  0
 53 55  2  0  0  0  0
 54 57  2  0  0  0  0
 55 57  1  0  0  0  0
 56 52  2  0  0  0  0
 56 53  1  0  0  0  0
M  END
>  <MODEL>
4

>  <REMARK>
 VINA RESULT:      -7.7      4.513      9.407
  Name = 
  17 active torsions:
  status: ('A' for Active; 'I' for Inactive)
    1  A    between atoms: C_1  and  C_22
    2  A    between atoms: C_1  and  C_24
    3  A    between atoms: C_2  and  C_40
    4  A    between atoms: C_4  and  C_44
    5  A    between atoms: N_7  and  N_46
    6  A    between atoms: C_12  and  C_37
    7  A    between atoms: C_14  and  C_54
    8  A    between atoms: C_16  and  C_24
    9  A    between atoms: C_16  and  C_28
   10  A    between atoms: C_17  and  C_39
   11  A    between atoms: C_22  and  C_39
   12  A    between atoms: N_23  and  C_26
   13  A    between atoms: N_23  and  C_40
   14  A    between atoms: C_26  and  C_31
   15  A    between atoms: C_28  and  C_56
   16  A    between atoms: C_44  and  C_45
   17  A    between atoms: C_45  and  C_54
                            x       y       z     vdW  Elec       q    Type
                         _______ _______ _______ _____ _____    ______ ____

>  <TORSDO>
F 17

$$$$
=
 OpenBabel11042412423D

 57 62  0  0  1  0  0  0  0  0999 V2000
  184.0200  178.8340  143.4800 C   0  0  0  0  0  0  0  0  0  0  0  0
  180.1790  179.8070  143.4340 S   0  0  0  0  0  0  0  0  0  0  0  0
  180.1390  180.2310  141.6980 C   0  0  0  0  0  0  0  0  0  0  0  0
  186.7560  178.7690  141.7620 C   0  0  0  0  0  1  0  0  0  0  0  0
  181.6300  178.8800  143.0590 N   0  0  0  0  0  0  0  0  0  0  0  0
  185.8780  178.4440  138.8070 C   0  0  0  0  0  0  0  0  0  0  0  0
  187.1210  178.6250  138.9370 O   0  0  0  0  0  0  0  0  0  0  0  0
  185.3540  178.6640  141.2520 C   0  0  0  0  0  0  0  0  0  0  0  0
  180.9380  179.5620  140.9300 N   0  0  0  0  0  0  0  0  0  0  0  0
  182.7660  178.9450  143.9440 C   0  0  0  0  0  3  0  0  0  0  0  0
  183.1520  178.6000  141.1640 C   0  0  0  0  0  0  0  0  0  0  0  0
  179.3490  181.3300  141.2170 N   0  0  0  0  0  2  0  0  0  0  0  0
  184.2110  178.7020  142.0260 C   0  0  0  0  0  0  0  0  0  0  0  0
  185.0040  178.5300  139.9460 N   0  0  0  0  0  0  0  0  0  0  0  0
  181.7270  178.5630  141.6260 C   0  0  1  0  0  3  0  0  0  0  0  0
  183.6510  178.4770  139.8810 C   0  0  0  0  0  3  0  0  0  0  0  0
  179.7820  181.0830  138.8920 C   0  0  0  0  0  3  0  0  0  0  0  0
  179.1790  181.6840  139.8650 N   0  0  0  0  0  0  0  0  0  0  0  0
  179.5700  181.5050  137.4820 C   0  0  0  0  0  2  0  0  0  0  0  0
  180.7810  182.2620  136.9580 C   0  0  0  0  0  2  0  0  0  0  0  0
  180.7070  183.7410  137.3210 C   0  0  0  0  0  2  0  0  0  0  0  0
  179.2080  186.0600  138.1060 C   0  0  0  0  0  1  0  0  0  0  0  0
  179.8000  184.4910  136.3850 C   0  0  0  0  0  0  0  0  0  0  0  0
  179.1390  185.5310  136.7640 N   0  0  0  0  0  0  0  0  0  0  0  0
  179.6540  183.9520  134.7190 Cl  0  0  0  0  0  0  0  0  0  0  0  0
  185.3130  178.1820  137.4420 C   0  0  0  0  0  2  0  0  0  0  0  0
  185.1620  176.6940  137.1540 C   0  0  2  0  0  3  0  0  0  0  0  0
  186.4640  176.1710  136.5820 C   0  0  0  0  0  1  0  0  0  0  0  0
  184.0210  176.4530  136.1610 C   0  0  0  0  0  2  0  0  0  0  0  0
  182.9750  175.4070  138.1710 C   0  0  0  0  0  1  0  0  0  0  0  0
  182.6950  176.0780  136.8360 C   0  0  1  0  0  0  0  0  0  0  0  0
  181.9290  177.2270  137.0580 O   0  0  0  0  0  1  0  0  0  0  0  0
  181.9230  175.0930  135.9420 C   0  0  1  0  0  3  0  0  0  0  0  0
  182.2920  175.2120  134.5950 O   0  0  0  0  0  1  0  0  0  0  0  0
  181.9540  173.6320  136.4220 C   0  0  1  0  0  3  0  0  0  0  0  0
  180.6410  173.1850  136.5820 O   0  0  0  0  0  1  0  0  0  0  0  0
  183.3190  170.6210  136.3690 C   0  0  0  0  0  2  0  0  0  0  0  0
  184.0740  172.5910  135.8690 O   0  0  0  0  0  0  0  0  0  0  0  0
  184.1460  171.6580  136.8100 O   0  0  0  0  0  0  0  0  0  0  0  0
  182.1870  171.2760  135.6520 C   0  0  0  0  0  2  0  0  0  0  0  0
  182.7200  172.6670  135.5040 C   0  0  1  0  0  3  0  0  0  0  0  0
  185.1740  178.8680  144.4230 C   0  0  0  0  0  2  0  0  0  0  0  0
  185.0040  177.8800  145.4740 N   0  0  0  0  0  2  0  0  0  0  0  0
  185.3040  178.5540  146.7290 C   0  0  0  0  0  2  0  0  0  0  0  0
  189.0700  177.9240  146.2210 C   0  0  1  0  0  3  0  0  0  0  0  0
  188.5060  177.9100  148.5270 C   0  0  0  0  0  2  0  0  0  0  0  0
  187.0760  177.7970  148.2420 N   0  0  0  0  0  2  0  0  0  0  0  0
  186.7980  178.5440  147.0170 C   0  0  1  0  0  3  0  0  0  0  0  0
  187.5890  177.9630  145.8460 C   0  0  0  0  0  2  0  0  0  0  0  0
  189.2710  177.2210  147.4900 N   0  0  0  0  0  2  0  0  0  0  0  0
  189.8260  176.8520  141.3730 C   0  0  0  0  0  1  0  0  0  0  0  0
  191.4190  176.0780  143.1340 C   0  0  0  0  0  3  0  0  0  0  0  0
  189.4790  177.3660  143.7930 C   0  0  0  0  0  3  0  0  0  0  0  0
  191.8210  175.9970  144.4710 C   0  0  0  0  0  3  0  0  0  0  0  0
  189.8770  177.2850  145.1360 C   0  0  0  0  0  0  0  0  0  0  0  0
  190.2480  176.7620  142.7940 C   0  0  0  0  0  0  0  0  0  0  0  0
  191.0510  176.6030  145.4710 C   0  0  0  0  0  3  0  0  0  0  0  0
  1 10  2  0  0  0  0
  1 42  1  0  0  0  0
  3  2  1  0  0  0  0
  5  2  1  0  0  0  0
  5 10  1  0  0  0  0
  6  7  2  0  0  0  0
  6 14  1  0  0  0  0
  8  4  1  0  0  0  0
  8 13  2  0  0  0  0
  9  3  2  0  0  0  0
 11 15  1  0  0  0  0
 11 13  1  0  0  0  0
 12  3  1  0  0  0  0
 13  1  1  0  0  0  0
 14  8  1  0  0  0  0
 15  9  1  6  0  0  0
 15  5  1  0  0  0  0
 16 14  1  0  0  0  0
 16 11  2  0  0  0  0
 17 18  2  0  0  0  0
 18 12  1  0  0  0  0
 19 17  1  0  0  0  0
 20 21  1  0  0  0  0
 20 19  1  0  0  0  0
 23 24  2  0  0  0  0
 23 21  1  0  0  0  0
 24 22  1  0  0  0  0
 25 23  1  0  0  0  0
 26  6  1  0  0  0  0
 27 28  1  6  0  0  0
 27 26  1  0  0  0  0
 29 31  1  0  0  0  0
 29 27  1  0  0  0  0
 31 32  1  0  0  0  0
 31 30  1  1  0  0  0
 33 34  1  6  0  0  0
 33 35  1  0  0  0  0
 33 31  1  0  0  0  0
 35 36  1  6  0  0  0
 37 39  1  0  0  0  0
 38 39  1  0  0  0  0
 40 37  1  0  0  0  0
 41 40  1  0  0  0  0
 41 38  1  0  0  0  0
 41 35  1  1  0  0  0
 42 43  1  0  0  0  0
 43 44  1  0  0  0  0
 45 55  1  6  0  0  0
 45 50  1  0  0  0  0
 47 46  1  0  0  0  0
 48 44  1  6  0  0  0
 48 47  1  0  0  0  0
 49 45  1  0  0  0  0
 49 48  1  0  0  0  0
 50 46  1  0  0  0  0
 51 56  1  0  0  0  0
 52 54  1  0  0  0  0
 53 55  2  0  0  0  0
 54 57  2  0  0  0  0
 55 57  1  0  0  0  0
 56 52  2  0  0  0  0
 56 53  1  0  0  0  0
M  END
>  <MODEL>
5

>  <REMARK>
 VINA RESULT:      -7.6      4.383      8.487
  Name = 
  17 active torsions:
  status: ('A' for Active; 'I' for Inactive)
    1  A    between atoms: C_1  and  C_22
    2  A    between atoms: C_1  and  C_24
    3  A    between atoms: C_2  and  C_40
    4  A    between atoms: C_4  and  C_44
    5  A    between atoms: N_7  and  N_46
    6  A    between atoms: C_12  and  C_37
    7  A    between atoms: C_14  and  C_54
    8  A    between atoms: C_16  and  C_24
    9  A    between atoms: C_16  and  C_28
   10  A    between atoms: C_17  and  C_39
   11  A    between atoms: C_22  and  C_39
   12  A    between atoms: N_23  and  C_26
   13  A    between atoms: N_23  and  C_40
   14  A    between atoms: C_26  and  C_31
   15  A    between atoms: C_28  and  C_56
   16  A    between atoms: C_44  and  C_45
   17  A    between atoms: C_45  and  C_54
                            x       y       z     vdW  Elec       q    Type
                         _______ _______ _______ _____ _____    ______ ____

>  <TORSDO>
F 17

$$$$
=
 OpenBabel11042412423D

 57 62  0  0  1  0  0  0  0  0999 V2000
  190.8900  177.4930  140.6400 C   0  0  0  0  0  0  0  0  0  0  0  0
  193.4170  175.4250  138.3950 S   0  0  0  0  0  0  0  0  0  0  0  0
  192.1990  174.9470  137.1770 C   0  0  0  0  0  0  0  0  0  0  0  0
  187.7930  178.3040  141.0800 C   0  0  0  0  0  1  0  0  0  0  0  0
  192.3100  176.7260  138.8270 N   0  0  0  0  0  0  0  0  0  0  0  0
  186.5070  178.2500  138.2610 C   0  0  0  0  0  0  0  0  0  0  0  0
  185.6690  178.4500  139.1830 O   0  0  0  0  0  0  0  0  0  0  0  0
  188.4760  177.9710  139.7920 C   0  0  0  0  0  0  0  0  0  0  0  0
  191.2450  175.7950  136.9620 N   0  0  0  0  0  0  0  0  0  0  0  0
  192.0760  177.0320  140.2160 C   0  0  0  0  0  3  0  0  0  0  0  0
  190.0060  177.3770  138.3200 C   0  0  0  0  0  0  0  0  0  0  0  0
  192.2260  173.6480  136.5660 N   0  0  0  0  0  2  0  0  0  0  0  0
  189.8050  177.6240  139.6520 C   0  0  0  0  0  0  0  0  0  0  0  0
  187.8790  177.9490  138.5720 N   0  0  0  0  0  0  0  0  0  0  0  0
  191.3440  177.0070  137.7540 C   0  0  1  0  0  3  0  0  0  0  0  0
  188.8140  177.5970  137.6570 C   0  0  0  0  0  3  0  0  0  0  0  0
  190.3530  172.4410  135.7340 C   0  0  0  0  0  3  0  0  0  0  0  0
  191.3730  173.2110  135.5350 N   0  0  0  0  0  0  0  0  0  0  0  0
  189.4900  172.0050  134.6060 C   0  0  0  0  0  2  0  0  0  0  0  0
  188.2790  171.2390  135.1180 C   0  0  0  0  0  2  0  0  0  0  0  0
  187.8490  171.7410  136.4920 C   0  0  0  0  0  2  0  0  0  0  0  0
  187.0040  174.2740  137.5450 C   0  0  0  0  0  1  0  0  0  0  0  0
  186.4170  172.2000  136.4850 C   0  0  0  0  0  0  0  0  0  0  0  0
  186.0650  173.3440  136.9630 N   0  0  0  0  0  0  0  0  0  0  0  0
  185.1880  171.1600  135.7800 Cl  0  0  0  0  0  0  0  0  0  0  0  0
  186.0500  178.2850  136.8320 C   0  0  0  0  0  2  0  0  0  0  0  0
  185.3310  177.0060  136.4220 C   0  0  2  0  0  3  0  0  0  0  0  0
  185.9910  176.4490  135.1760 C   0  0  0  0  0  1  0  0  0  0  0  0
  183.8510  177.2860  136.1490 C   0  0  0  0  0  2  0  0  0  0  0  0
  182.4560  175.2200  136.2440 C   0  0  0  0  0  1  0  0  0  0  0  0
  182.9010  176.4510  137.0170 C   0  0  1  0  0  0  0  0  0  0  0  0
  183.5540  176.0410  138.1840 O   0  0  0  0  0  1  0  0  0  0  0  0
  181.6590  177.2870  137.3710 C   0  0  1  0  0  3  0  0  0  0  0  0
  180.5740  176.9890  136.5350 O   0  0  0  0  0  1  0  0  0  0  0  0
  181.2680  177.2570  138.8590 C   0  0  1  0  0  3  0  0  0  0  0  0
  181.2470  178.5650  139.3430 O   0  0  0  0  0  1  0  0  0  0  0  0
  179.9590  174.6850  140.4730 C   0  0  0  0  0  2  0  0  0  0  0  0
  179.7910  175.3810  138.4260 O   0  0  0  0  0  0  0  0  0  0  0  0
  180.3680  174.4370  139.1600 O   0  0  0  0  0  0  0  0  0  0  0  0
  179.8570  176.1690  140.5980 C   0  0  0  0  0  2  0  0  0  0  0  0
  179.9240  176.5730  139.1580 C   0  0  1  0  0  3  0  0  0  0  0  0
  190.6880  177.8350  142.0770 C   0  0  0  0  0  2  0  0  0  0  0  0
  191.7950  177.3460  142.8780 N   0  0  0  0  0  2  0  0  0  0  0  0
  191.7060  178.0200  144.1650 C   0  0  0  0  0  2  0  0  0  0  0  0
  188.3070  177.1890  145.7790 C   0  0  1  0  0  3  0  0  0  0  0  0
  190.0920  176.7830  147.2910 C   0  0  0  0  0  2  0  0  0  0  0  0
  191.0410  177.5390  146.4750 N   0  0  0  0  0  2  0  0  0  0  0  0
  190.6850  177.3450  145.0700 C   0  0  1  0  0  3  0  0  0  0  0  0
  189.2720  177.8580  144.8000 C   0  0  0  0  0  2  0  0  0  0  0  0
  188.7580  177.3640  147.1620 N   0  0  0  0  0  2  0  0  0  0  0  0
  184.4090  178.4110  142.8600 C   0  0  0  0  0  1  0  0  0  0  0  0
  184.3210  178.7240  145.3360 C   0  0  0  0  0  3  0  0  0  0  0  0
  186.3300  177.8150  144.3400 C   0  0  0  0  0  3  0  0  0  0  0  0
  184.9040  178.6320  146.6020 C   0  0  0  0  0  3  0  0  0  0  0  0
  186.9210  177.7230  145.6100 C   0  0  0  0  0  0  0  0  0  0  0  0
  185.0320  178.3160  144.2040 C   0  0  0  0  0  0  0  0  0  0  0  0
  186.2040  178.1280  146.7390 C   0  0  0  0  0  3  0  0  0  0  0  0
  1 42  1  0  0  0  0
  2  5  1  0  0  0  0
  3  2  1  0  0  0  0
  5 10  1  0  0  0  0
  6 14  1  0  0  0  0
  6  7  2  0  0  0  0
  8  4  1  0  0  0  0
  9  3  2  0  0  0  0
 10  1  2  0  0  0  0
 11 13  1  0  0  0  0
 12  3  1  0  0  0  0
 13  8  2  0  0  0  0
 13  1  1  0  0  0  0
 14  8  1  0  0  0  0
 15  9  1  6  0  0  0
 15 11  1  0  0  0  0
 15  5  1  0  0  0  0
 16 11  2  0  0  0  0
 16 14  1  0  0  0  0
 18 17  2  0  0  0  0
 18 12  1  0  0  0  0
 19 20  1  0  0  0  0
 19 17  1  0  0  0  0
 20 21  1  0  0  0  0
 23 21  1  0  0  0  0
 23 24  2  0  0  0  0
 24 22  1  0  0  0  0
 25 23  1  0  0  0  0
 26  6  1  0  0  0  0
 27 28  1  6  0  0  0
 27 26  1  0  0  0  0
 29 27  1  0  0  0  0
 29 31  1  0  0  0  0
 31 30  1  6  0  0  0
 31 33  1  0  0  0  0
 31 32  1  0  0  0  0
 33 34  1  6  0  0  0
 33 35  1  0  0  0  0
 35 36  1  6  0  0  0
 37 40  1  0  0  0  0
 38 41  1  0  0  0  0
 38 39  1  0  0  0  0
 39 37  1  0  0  0  0
 41 35  1  1  0  0  0
 41 40  1  0  0  0  0
 42 43  1  0  0  0  0
 43 44  1  0  0  0  0
 45 55  1  1  0  0  0
 45 50  1  0  0  0  0
 47 46  1  0  0  0  0
 48 44  1  6  0  0  0
 48 47  1  0  0  0  0
 49 48  1  0  0  0  0
 49 45  1  0  0  0  0
 50 46  1  0  0  0  0
 51 56  1  0  0  0  0
 52 54  1  0  0  0  0
 53 55  2  0  0  0  0
 54 57  2  0  0  0  0
 55 57  1  0  0  0  0
 56 53  1  0  0  0  0
 56 52  2  0  0  0  0
M  END
>  <MODEL>
6

>  <REMARK>
 VINA RESULT:      -7.3      2.845      4.088
  Name = 
  17 active torsions:
  status: ('A' for Active; 'I' for Inactive)
    1  A    between atoms: C_1  and  C_22
    2  A    between atoms: C_1  and  C_24
    3  A    between atoms: C_2  and  C_40
    4  A    between atoms: C_4  and  C_44
    5  A    between atoms: N_7  and  N_46
    6  A    between atoms: C_12  and  C_37
    7  A    between atoms: C_14  and  C_54
    8  A    between atoms: C_16  and  C_24
    9  A    between atoms: C_16  and  C_28
   10  A    between atoms: C_17  and  C_39
   11  A    between atoms: C_22  and  C_39
   12  A    between atoms: N_23  and  C_26
   13  A    between atoms: N_23  and  C_40
   14  A    between atoms: C_26  and  C_31
   15  A    between atoms: C_28  and  C_56
   16  A    between atoms: C_44  and  C_45
   17  A    between atoms: C_45  and  C_54
                            x       y       z     vdW  Elec       q    Type
                         _______ _______ _______ _____ _____    ______ ____

>  <TORSDO>
F 17

$$$$
=
 OpenBabel11042412423D

 57 62  0  0  1  0  0  0  0  0999 V2000
  182.6780  178.6300  141.5960 C   0  0  0  0  0  0  0  0  0  0  0  0
  183.3580  179.0100  145.4810 S   0  0  0  0  0  0  0  0  0  0  0  0
  185.0900  178.5810  145.3870 C   0  0  0  0  0  0  0  0  0  0  0  0
  183.9420  177.7240  138.7640 C   0  0  0  0  0  1  0  0  0  0  0  0
  183.4710  179.3830  143.7630 N   0  0  0  0  0  0  0  0  0  0  0  0
  186.9870  178.2520  139.0010 C   0  0  0  0  0  0  0  0  0  0  0  0
  186.6680  177.6660  137.9290 O   0  0  0  0  0  0  0  0  0  0  0  0
  184.6620  178.2830  139.9480 C   0  0  0  0  0  0  0  0  0  0  0  0
  185.7020  178.9220  144.2980 N   0  0  0  0  0  0  0  0  0  0  0  0
  182.4210  178.9600  142.8700 C   0  0  0  0  0  3  0  0  0  0  0  0
  185.0940  179.0850  141.9560 C   0  0  0  0  0  0  0  0  0  0  0  0
  185.7220  177.8030  146.4140 N   0  0  0  0  0  2  0  0  0  0  0  0
  184.0790  178.6530  141.1440 C   0  0  0  0  0  0  0  0  0  0  0  0
  186.0020  178.4950  140.0210 N   0  0  0  0  0  0  0  0  0  0  0  0
  184.8610  179.6130  143.3390 C   0  0  1  0  0  3  0  0  0  0  0  0
  186.2780  179.0000  141.2480 C   0  0  0  0  0  3  0  0  0  0  0  0
  187.7610  177.4460  147.5850 C   0  0  0  0  0  3  0  0  0  0  0  0
  187.0940  177.4930  146.4780 N   0  0  0  0  0  0  0  0  0  0  0  0
  189.2110  177.1210  147.5930 C   0  0  0  0  0  2  0  0  0  0  0  0
  189.9190  177.7870  146.4230 C   0  0  0  0  0  2  0  0  0  0  0  0
  190.0520  176.8330  145.2420 C   0  0  0  0  0  2  0  0  0  0  0  0
  188.6330  176.4070  142.7830 C   0  0  0  0  0  1  0  0  0  0  0  0
  190.3660  177.5730  143.9700 C   0  0  0  0  0  0  0  0  0  0  0  0
  189.7110  177.3630  142.8800 N   0  0  0  0  0  0  0  0  0  0  0  0
  191.6440  178.7790  143.9750 Cl  0  0  0  0  0  0  0  0  0  0  0  0
  188.4150  178.6560  139.2210 C   0  0  0  0  0  2  0  0  0  0  0  0
  189.3080  178.2950  138.0420 C   0  0  2  0  0  3  0  0  0  0  0  0
  188.9880  179.2180  136.8830 C   0  0  0  0  0  1  0  0  0  0  0  0
  189.0850  176.8380  137.6260 C   0  0  0  0  0  2  0  0  0  0  0  0
  191.5490  176.7560  137.2360 C   0  0  0  0  0  1  0  0  0  0  0  0
  190.3470  175.9720  137.7390 C   0  0  1  0  0  0  0  0  0  0  0  0
  190.5660  175.6140  139.0730 O   0  0  0  0  0  1  0  0  0  0  0  0
  190.1840  174.7110  136.8730 C   0  0  1  0  0  3  0  0  0  0  0  0
  190.4640  173.5420  137.5950 O   0  0  0  0  0  1  0  0  0  0  0  0
  188.8460  174.6190  136.1190 C   0  0  1  0  0  3  0  0  0  0  0  0
  189.1080  174.3640  134.7720 O   0  0  0  0  0  1  0  0  0  0  0  0
  185.8990  173.2440  135.5210 C   0  0  0  0  0  2  0  0  0  0  0  0
  186.7640  174.1730  137.2800 O   0  0  0  0  0  0  0  0  0  0  0  0
  185.8850  174.3970  136.3100 O   0  0  0  0  0  0  0  0  0  0  0  0
  187.3070  172.7490  135.5430 C   0  0  0  0  0  2  0  0  0  0  0  0
  187.8700  173.5650  136.6650 C   0  0  1  0  0  3  0  0  0  0  0  0
  181.5670  178.2310  140.6860 C   0  0  0  0  0  2  0  0  0  0  0  0
  180.2860  178.6430  141.2330 N   0  0  0  0  0  2  0  0  0  0  0  0
  179.4250  178.9370  140.0970 C   0  0  0  0  0  2  0  0  0  0  0  0
  180.8320  181.2760  137.3790 C   0  0  1  0  0  3  0  0  0  0  0  0
  180.7680  179.0280  136.6200 C   0  0  0  0  0  2  0  0  0  0  0  0
  179.8860  178.6170  137.7110 N   0  0  0  0  0  2  0  0  0  0  0  0
  180.2370  179.3990  138.8960 C   0  0  1  0  0  3  0  0  0  0  0  0
  180.0420  180.8900  138.6290 C   0  0  0  0  0  2  0  0  0  0  0  0
  180.4820  180.4120  136.2500 N   0  0  0  0  0  2  0  0  0  0  0  0
  179.4290  185.9280  138.6480 C   0  0  0  0  0  1  0  0  0  0  0  0
  180.1980  185.3940  136.3330 C   0  0  0  0  0  3  0  0  0  0  0  0
  180.1320  183.6250  137.9830 C   0  0  0  0  0  3  0  0  0  0  0  0
  180.6730  184.4880  135.3790 C   0  0  0  0  0  3  0  0  0  0  0  0
  180.6050  182.7120  137.0280 C   0  0  0  0  0  0  0  0  0  0  0  0
  179.9280  184.9630  137.6350 C   0  0  0  0  0  0  0  0  0  0  0  0
  180.8790  183.1480  135.7290 C   0  0  0  0  0  3  0  0  0  0  0  0
  1 10  2  0  0  0  0
  3  2  1  0  0  0  0
  3 12  1  0  0  0  0
  4  8  1  0  0  0  0
  5  2  1  0  0  0  0
  6 26  1  0  0  0  0
  6 14  1  0  0  0  0
  7  6  2  0  0  0  0
  8 14  1  0  0  0  0
  8 13  2  0  0  0  0
  9  3  2  0  0  0  0
 10  5  1  0  0  0  0
 12 18  1  0  0  0  0
 13  1  1  0  0  0  0
 13 11  1  0  0  0  0
 14 16  1  0  0  0  0
 15 11  1  6  0  0  0
 15  5  1  0  0  0  0
 15  9  1  0  0  0  0
 16 11  2  0  0  0  0
 17 19  1  0  0  0  0
 18 17  2  0  0  0  0
 20 19  1  0  0  0  0
 21 20  1  0  0  0  0
 22 24  1  0  0  0  0
 23 25  1  0  0  0  0
 23 21  1  0  0  0  0
 24 23  2  0  0  0  0
 27 28  1  6  0  0  0
 27 26  1  0  0  0  0
 29 31  1  0  0  0  0
 29 27  1  0  0  0  0
 31 30  1  6  0  0  0
 31 32  1  0  0  0  0
 33 34  1  1  0  0  0
 33 31  1  0  0  0  0
 35 36  1  6  0  0  0
 35 33  1  0  0  0  0
 37 40  1  0  0  0  0
 37 39  1  0  0  0  0
 39 38  1  0  0  0  0
 40 41  1  0  0  0  0
 41 35  1  6  0  0  0
 41 38  1  0  0  0  0
 42 43  1  0  0  0  0
 42  1  1  0  0  0  0
 44 43  1  0  0  0  0
 45 55  1  6  0  0  0
 45 49  1  0  0  0  0
 46 47  1  0  0  0  0
 47 48  1  0  0  0  0
 48 44  1  1  0  0  0
 49 48  1  0  0  0  0
 50 46  1  0  0  0  0
 50 45  1  0  0  0  0
 52 56  1  0  0  0  0
 54 57  1  0  0  0  0
 54 52  2  0  0  0  0
 55 53  1  0  0  0  0
 56 53  2  0  0  0  0
 56 51  1  0  0  0  0
 57 55  2  0  0  0  0
M  END
>  <MODEL>
7

>  <REMARK>
 VINA RESULT:      -7.2      4.108     10.705
  Name = 
  17 active torsions:
  status: ('A' for Active; 'I' for Inactive)
    1  A    between atoms: C_1  and  C_22
    2  A    between atoms: C_1  and  C_24
    3  A    between atoms: C_2  and  C_40
    4  A    between atoms: C_4  and  C_44
    5  A    between atoms: N_7  and  N_46
    6  A    between atoms: C_12  and  C_37
    7  A    between atoms: C_14  and  C_54
    8  A    between atoms: C_16  and  C_24
    9  A    between atoms: C_16  and  C_28
   10  A    between atoms: C_17  and  C_39
   11  A    between atoms: C_22  and  C_39
   12  A    between atoms: N_23  and  C_26
   13  A    between atoms: N_23  and  C_40
   14  A    between atoms: C_26  and  C_31
   15  A    between atoms: C_28  and  C_56
   16  A    between atoms: C_44  and  C_45
   17  A    between atoms: C_45  and  C_54
                            x       y       z     vdW  Elec       q    Type
                         _______ _______ _______ _____ _____    ______ ____

>  <TORSDO>
F 17

$$$$
=
 OpenBabel11042412423D

 57 62  0  0  1  0  0  0  0  0999 V2000
  183.9290  178.9180  143.5270 C   0  0  0  0  0  0  0  0  0  0  0  0
  180.0620  179.7740  143.4140 S   0  0  0  0  0  0  0  0  0  0  0  0
  180.0250  180.1330  141.6640 C   0  0  0  0  0  0  0  0  0  0  0  0
  186.6810  178.8730  141.8330 C   0  0  0  0  0  1  0  0  0  0  0  0
  181.5430  178.8780  143.0850 N   0  0  0  0  0  0  0  0  0  0  0  0
  185.8400  178.4140  138.8860 C   0  0  0  0  0  0  0  0  0  0  0  0
  187.0750  178.6360  139.0190 O   0  0  0  0  0  0  0  0  0  0  0  0
  185.2880  178.7080  141.3170 C   0  0  0  0  0  0  0  0  0  0  0  0
  180.8500  179.4600  140.9270 N   0  0  0  0  0  0  0  0  0  0  0  0
  182.6690  179.0100  143.9760 C   0  0  0  0  0  3  0  0  0  0  0  0
  183.0890  178.5740  141.2130 C   0  0  0  0  0  0  0  0  0  0  0  0
  179.2070  181.1890  141.1370 N   0  0  0  0  0  2  0  0  0  0  0  0
  184.1370  178.7390  142.0800 C   0  0  0  0  0  0  0  0  0  0  0  0
  184.9540  178.5150  140.0140 N   0  0  0  0  0  0  0  0  0  0  0  0
  181.6620  178.5110  141.6660 C   0  0  1  0  0  3  0  0  0  0  0  0
  183.6040  178.4200  139.9400 C   0  0  0  0  0  3  0  0  0  0  0  0
  179.8170  182.2870  139.1170 C   0  0  0  0  0  3  0  0  0  0  0  0
  179.0380  181.4880  139.7710 N   0  0  0  0  0  0  0  0  0  0  0  0
  179.5870  182.5730  137.6770 C   0  0  0  0  0  2  0  0  0  0  0  0
  179.3450  181.2850  136.9040 C   0  0  0  0  0  2  0  0  0  0  0  0
  180.3730  180.2200  137.2700 C   0  0  0  0  0  2  0  0  0  0  0  0
  181.2560  177.4930  137.1220 C   0  0  0  0  0  1  0  0  0  0  0  0
  181.0060  179.6240  136.0420 C   0  0  0  0  0  0  0  0  0  0  0  0
  181.3920  178.3950  136.0030 N   0  0  0  0  0  0  0  0  0  0  0  0
  181.2010  180.6220  134.6090 Cl  0  0  0  0  0  0  0  0  0  0  0  0
  185.2950  178.0850  137.5270 C   0  0  0  0  0  2  0  0  0  0  0  0
  185.9160  176.8230  136.9430 C   0  0  2  0  0  3  0  0  0  0  0  0
  184.9740  175.6590  137.1750 C   0  0  0  0  0  1  0  0  0  0  0  0
  187.2700  176.5390  137.5990 C   0  0  0  0  0  2  0  0  0  0  0  0
  187.9470  176.8170  135.2130 C   0  0  0  0  0  1  0  0  0  0  0  0
  188.4580  176.6990  136.6400 C   0  0  1  0  0  0  0  0  0  0  0  0
  189.1800  177.8530  136.9590 O   0  0  0  0  0  1  0  0  0  0  0  0
  189.3670  175.4610  136.7370 C   0  0  1  0  0  3  0  0  0  0  0  0
  189.6350  174.9110  135.4770 O   0  0  0  0  0  1  0  0  0  0  0  0
  190.6490  175.6710  137.5620 C   0  0  1  0  0  3  0  0  0  0  0  0
  191.0750  174.4340  138.0490 O   0  0  0  0  0  1  0  0  0  0  0  0
  193.9240  175.5340  137.1310 C   0  0  0  0  0  2  0  0  0  0  0  0
  192.5730  177.1440  137.6670 O   0  0  0  0  0  0  0  0  0  0  0  0
  193.4810  176.3290  138.1920 O   0  0  0  0  0  0  0  0  0  0  0  0
  192.7370  175.3250  136.2510 C   0  0  0  0  0  2  0  0  0  0  0  0
  191.7990  176.3520  136.8030 C   0  0  1  0  0  3  0  0  0  0  0  0
  185.0740  179.0220  144.4770 C   0  0  0  0  0  2  0  0  0  0  0  0
  185.0630  177.9110  145.4120 N   0  0  0  0  0  2  0  0  0  0  0  0
  185.3160  178.4760  146.7290 C   0  0  0  0  0  2  0  0  0  0  0  0
  189.1120  178.0220  146.2590 C   0  0  1  0  0  3  0  0  0  0  0  0
  188.5540  178.2140  148.5590 C   0  0  0  0  0  2  0  0  0  0  0  0
  187.1330  177.9870  148.2990 N   0  0  0  0  0  2  0  0  0  0  0  0
  186.8090  178.5840  147.0040 C   0  0  1  0  0  3  0  0  0  0  0  0
  187.6300  177.9340  145.8940 C   0  0  0  0  0  2  0  0  0  0  0  0
  189.3570  177.4680  147.5930 N   0  0  0  0  0  2  0  0  0  0  0  0
  189.9390  176.5290  141.5360 C   0  0  0  0  0  1  0  0  0  0  0  0
  191.5620  176.0090  143.3610 C   0  0  0  0  0  3  0  0  0  0  0  0
  189.5580  177.2550  143.8960 C   0  0  0  0  0  3  0  0  0  0  0  0
  191.9620  176.0770  144.6990 C   0  0  0  0  0  3  0  0  0  0  0  0
  189.9540  177.3230  145.2400 C   0  0  0  0  0  0  0  0  0  0  0  0
  190.3600  176.5970  142.9580 C   0  0  0  0  0  0  0  0  0  0  0  0
  191.1590  176.7360  145.6370 C   0  0  0  0  0  3  0  0  0  0  0  0
  1 10  2  0  0  0  0
  1 42  1  0  0  0  0
  3  2  1  0  0  0  0
  5  2  1  0  0  0  0
  5 10  1  0  0  0  0
  6  7  2  0  0  0  0
  6 14  1  0  0  0  0
  8  4  1  0  0  0  0
  8 13  2  0  0  0  0
  9  3  2  0  0  0  0
 11 15  1  0  0  0  0
 11 13  1  0  0  0  0
 12  3  1  0  0  0  0
 13  1  1  0  0  0  0
 14  8  1  0  0  0  0
 15  9  1  6  0  0  0
 15  5  1  0  0  0  0
 16 14  1  0  0  0  0
 16 11  2  0  0  0  0
 17 18  2  0  0  0  0
 18 12  1  0  0  0  0
 19 17  1  0  0  0  0
 20 21  1  0  0  0  0
 20 19  1  0  0  0  0
 23 21  1  0  0  0  0
 24 23  2  0  0  0  0
 24 22  1  0  0  0  0
 25 23  1  0  0  0  0
 26  6  1  0  0  0  0
 27 28  1  1  0  0  0
 27 26  1  0  0  0  0
 27 29  1  0  0  0  0
 31 30  1  6  0  0  0
 31 33  1  0  0  0  0
 31 32  1  0  0  0  0
 31 29  1  0  0  0  0
 33 34  1  6  0  0  0
 33 35  1  0  0  0  0
 35 36  1  6  0  0  0
 37 39  1  0  0  0  0
 38 39  1  0  0  0  0
 40 41  1  0  0  0  0
 40 37  1  0  0  0  0
 41 35  1  1  0  0  0
 41 38  1  0  0  0  0
 42 43  1  0  0  0  0
 43 44  1  0  0  0  0
 45 55  1  6  0  0  0
 45 50  1  0  0  0  0
 47 46  1  0  0  0  0
 48 44  1  6  0  0  0
 48 47  1  0  0  0  0
 49 45  1  0  0  0  0
 49 48  1  0  0  0  0
 50 46  1  0  0  0  0
 51 56  1  0  0  0  0
 52 54  1  0  0  0  0
 53 55  2  0  0  0  0
 54 57  2  0  0  0  0
 55 57  1  0  0  0  0
 56 52  2  0  0  0  0
 56 53  1  0  0  0  0
M  END
>  <MODEL>
8

>  <REMARK>
 VINA RESULT:      -7.1      4.354      8.819
  Name = 
  17 active torsions:
  status: ('A' for Active; 'I' for Inactive)
    1  A    between atoms: C_1  and  C_22
    2  A    between atoms: C_1  and  C_24
    3  A    between atoms: C_2  and  C_40
    4  A    between atoms: C_4  and  C_44
    5  A    between atoms: N_7  and  N_46
    6  A    between atoms: C_12  and  C_37
    7  A    between atoms: C_14  and  C_54
    8  A    between atoms: C_16  and  C_24
    9  A    between atoms: C_16  and  C_28
   10  A    between atoms: C_17  and  C_39
   11  A    between atoms: C_22  and  C_39
   12  A    between atoms: N_23  and  C_26
   13  A    between atoms: N_23  and  C_40
   14  A    between atoms: C_26  and  C_31
   15  A    between atoms: C_28  and  C_56
   16  A    between atoms: C_44  and  C_45
   17  A    between atoms: C_45  and  C_54
                            x       y       z     vdW  Elec       q    Type
                         _______ _______ _______ _____ _____    ______ ____

>  <TORSDO>
F 17

$$$$
=
 OpenBabel11042412423D

 57 62  0  0  1  0  0  0  0  0999 V2000
  189.3240  176.8780  137.7020 C   0  0  0  0  0  0  0  0  0  0  0  0
  189.7840  173.7220  135.3510 S   0  0  0  0  0  0  0  0  0  0  0  0
  188.0390  173.3530  135.2290 C   0  0  0  0  0  0  0  0  0  0  0  0
  187.2060  178.6230  139.4070 C   0  0  0  0  0  1  0  0  0  0  0  0
  189.2940  175.3490  135.8180 N   0  0  0  0  0  0  0  0  0  0  0  0
  184.4940  178.3100  137.9390 C   0  0  0  0  0  0  0  0  0  0  0  0
  184.3980  178.9450  139.0260 O   0  0  0  0  0  0  0  0  0  0  0  0
  186.9470  177.8280  138.1680 C   0  0  0  0  0  0  0  0  0  0  0  0
  187.2380  174.3700  135.2750 N   0  0  0  0  0  0  0  0  0  0  0  0
  189.9680  176.0120  136.9050 C   0  0  0  0  0  3  0  0  0  0  0  0
  187.2250  176.5040  136.4270 C   0  0  0  0  0  0  0  0  0  0  0  0
  187.5630  171.9990  135.2000 N   0  0  0  0  0  2  0  0  0  0  0  0
  187.8850  177.0910  137.4730 C   0  0  0  0  0  0  0  0  0  0  0  0
  185.7410  177.7060  137.5540 N   0  0  0  0  0  0  0  0  0  0  0  0
  187.9130  175.6470  135.4070 C   0  0  1  0  0  3  0  0  0  0  0  0
  185.9030  176.9030  136.4740 C   0  0  0  0  0  3  0  0  0  0  0  0
  185.7210  170.5310  135.5240 C   0  0  0  0  0  3  0  0  0  0  0  0
  186.2240  171.6070  135.0130 N   0  0  0  0  0  0  0  0  0  0  0  0
  184.3010  170.1610  135.2880 C   0  0  0  0  0  2  0  0  0  0  0  0
  183.4280  170.6010  136.4540 C   0  0  0  0  0  2  0  0  0  0  0  0
  182.0710  171.0990  135.9710 C   0  0  0  0  0  2  0  0  0  0  0  0
  179.5260  172.4120  135.7710 C   0  0  0  0  0  1  0  0  0  0  0  0
  181.8590  172.5450  136.3280 C   0  0  0  0  0  0  0  0  0  0  0  0
  180.7040  173.1090  136.2310 N   0  0  0  0  0  0  0  0  0  0  0  0
  183.2180  173.4890  136.9220 Cl  0  0  0  0  0  0  0  0  0  0  0  0
  183.2810  178.1540  137.0700 C   0  0  0  0  0  2  0  0  0  0  0  0
  182.2610  177.1930  137.6670 C   0  0  2  0  0  3  0  0  0  0  0  0
  181.4110  176.6230  136.5490 C   0  0  0  0  0  1  0  0  0  0  0  0
  181.3720  177.9160  138.6820 C   0  0  0  0  0  2  0  0  0  0  0  0
  180.3450  175.9850  139.8840 C   0  0  0  0  0  1  0  0  0  0  0  0
  181.2650  177.1870  140.0280 C   0  0  1  0  0  0  0  0  0  0  0  0
  182.5270  176.7440  140.4360 O   0  0  0  0  0  1  0  0  0  0  0  0
  180.6720  178.1370  141.0820 C   0  0  1  0  0  3  0  0  0  0  0  0
  179.8630  177.4560  142.0020 O   0  0  0  0  0  1  0  0  0  0  0  0
  181.7000  179.0460  141.7780 C   0  0  1  0  0  3  0  0  0  0  0  0
  181.0190  180.0780  142.4250 O   0  0  0  0  0  1  0  0  0  0  0  0
  184.2660  179.5780  143.7930 C   0  0  0  0  0  2  0  0  0  0  0  0
  183.8990  178.1260  142.2250 O   0  0  0  0  0  0  0  0  0  0  0  0
  184.5850  179.2340  142.4770 O   0  0  0  0  0  0  0  0  0  0  0  0
  182.8400  179.1820  143.9870 C   0  0  0  0  0  2  0  0  0  0  0  0
  182.6230  178.3290  142.7750 C   0  0  1  0  0  3  0  0  0  0  0  0
  190.0560  177.5770  138.7960 C   0  0  0  0  0  2  0  0  0  0  0  0
  190.1600  176.7240  139.9670 N   0  0  0  0  0  2  0  0  0  0  0  0
  189.6670  177.5030  141.0930 C   0  0  0  0  0  2  0  0  0  0  0  0
  189.5660  176.7140  144.8630 C   0  0  1  0  0  3  0  0  0  0  0  0
  191.6890  176.1890  143.9380 C   0  0  0  0  0  2  0  0  0  0  0  0
  191.4160  176.9480  142.7180 N   0  0  0  0  0  2  0  0  0  0  0  0
  189.9910  176.8240  142.4160 C   0  0  1  0  0  3  0  0  0  0  0  0
  189.1510  177.3930  143.5570 C   0  0  0  0  0  2  0  0  0  0  0  0
  191.0130  176.8170  145.0700 N   0  0  0  0  0  2  0  0  0  0  0  0
  185.3450  178.4730  146.9370 C   0  0  0  0  0  1  0  0  0  0  0  0
  187.4830  178.3880  148.2250 C   0  0  0  0  0  3  0  0  0  0  0  0
  187.4630  177.6060  145.9350 C   0  0  0  0  0  3  0  0  0  0  0  0
  188.8430  178.0810  148.3200 C   0  0  0  0  0  3  0  0  0  0  0  0
  188.8290  177.2990  146.0250 C   0  0  0  0  0  0  0  0  0  0  0  0
  186.7910  178.1510  147.0340 C   0  0  0  0  0  0  0  0  0  0  0  0
  189.5150  177.5330  147.2200 C   0  0  0  0  0  3  0  0  0  0  0  0
  1 42  1  0  0  0  0
  2  5  1  0  0  0  0
  3  9  2  0  0  0  0
  3  2  1  0  0  0  0
  5 10  1  0  0  0  0
  6  7  2  0  0  0  0
  8  4  1  0  0  0  0
 10  1  2  0  0  0  0
 11 16  2  0  0  0  0
 11 13  1  0  0  0  0
 12  3  1  0  0  0  0
 13  1  1  0  0  0  0
 13  8  2  0  0  0  0
 14  6  1  0  0  0  0
 14  8  1  0  0  0  0
 15  9  1  1  0  0  0
 15  5  1  0  0  0  0
 15 11  1  0  0  0  0
 16 14  1  0  0  0  0
 18 12  1  0  0  0  0
 18 17  2  0  0  0  0
 19 17  1  0  0  0  0
 19 20  1  0  0  0  0
 21 23  1  0  0  0  0
 21 20  1  0  0  0  0
 22 24  1  0  0  0  0
 23 25  1  0  0  0  0
 24 23  2  0  0  0  0
 26 27  1  0  0  0  0
 26  6  1  0  0  0  0
 27 28  1  6  0  0  0
 27 29  1  0  0  0  0
 29 31  1  0  0  0  0
 31 30  1  6  0  0  0
 31 32  1  0  0  0  0
 31 33  1  0  0  0  0
 33 35  1  0  0  0  0
 33 34  1  1  0  0  0
 35 36  1  1  0  0  0
 37 40  1  0  0  0  0
 38 39  1  0  0  0  0
 38 41  1  0  0  0  0
 39 37  1  0  0  0  0
 41 35  1  6  0  0  0
 41 40  1  0  0  0  0
 42 43  1  0  0  0  0
 43 44  1  0  0  0  0
 45 50  1  0  0  0  0
 45 55  1  1  0  0  0
 46 50  1  0  0  0  0
 47 46  1  0  0  0  0
 48 44  1  6  0  0  0
 48 47  1  0  0  0  0
 48 49  1  0  0  0  0
 49 45  1  0  0  0  0
 51 56  1  0  0  0  0
 52 54  1  0  0  0  0
 53 55  2  0  0  0  0
 53 56  1  0  0  0  0
 55 57  1  0  0  0  0
 56 52  2  0  0  0  0
 57 54  2  0  0  0  0
M  END
>  <MODEL>
9

>  <REMARK>
 VINA RESULT:      -7.1      2.660      3.677
  Name = 
  17 active torsions:
  status: ('A' for Active; 'I' for Inactive)
    1  A    between atoms: C_1  and  C_22
    2  A    between atoms: C_1  and  C_24
    3  A    between atoms: C_2  and  C_40
    4  A    between atoms: C_4  and  C_44
    5  A    between atoms: N_7  and  N_46
    6  A    between atoms: C_12  and  C_37
    7  A    between atoms: C_14  and  C_54
    8  A    between atoms: C_16  and  C_24
    9  A    between atoms: C_16  and  C_28
   10  A    between atoms: C_17  and  C_39
   11  A    between atoms: C_22  and  C_39
   12  A    between atoms: N_23  and  C_26
   13  A    between atoms: N_23  and  C_40
   14  A    between atoms: C_26  and  C_31
   15  A    between atoms: C_28  and  C_56
   16  A    between atoms: C_44  and  C_45
   17  A    between atoms: C_45  and  C_54
                            x       y       z     vdW  Elec       q    Type
                         _______ _______ _______ _____ _____    ______ ____

>  <TORSDO>
F 17

$$$$
