=
 OpenBabel11032421303D

 26 29  0  0  1  0  0  0  0  0999 V2000
  190.1850  176.1260  138.4360 C   0  0  0  0  0  3  0  0  0  0  0  0
  190.0280  177.3040  145.3140 C   0  0  0  0  0  0  0  0  0  0  0  0
  190.2170  176.9970  142.1660 C   0  0  2  0  0  3  0  0  0  0  0  0
  190.9620  179.6680  144.1560 O   0  0  0  0  0  1  0  0  0  0  0  0
  190.5180  176.2040  139.8710 C   0  0  0  0  0  3  0  0  0  0  0  0
  189.7940  176.9380  140.7240 C   0  0  0  0  0  0  0  0  0  0  0  0
  188.2260  178.4950  142.5810 C   0  0  1  0  0  3  0  0  0  0  0  0
  187.0650  178.4950  143.5510 C   0  0  0  0  0  2  0  0  0  0  0  0
  188.6070  177.7260  140.2370 C   0  0  0  0  0  0  0  0  0  0  0  0
  188.8100  177.0140  144.4620 C   0  0  1  0  0  3  0  0  0  0  0  0
  187.6370  177.9180  144.8490 C   0  0  2  0  0  3  0  0  0  0  0  0
  187.3410  178.2640  138.2620 O   0  0  0  0  0  0  0  0  0  0  0  0
  191.6170  178.5010  143.7560 C   0  0  2  0  0  3  0  0  0  0  0  0
  188.9410  177.2280  142.9610 C   0  0  2  0  0  3  0  0  0  0  0  0
  191.2390  178.1330  142.3220 C   0  0  0  0  0  2  0  0  0  0  0  0
  188.3050  177.6410  138.7810 C   0  0  0  0  0  0  0  0  0  0  0  0
  187.8580  178.4630  141.1030 C   0  0  0  0  0  0  0  0  0  0  0  0
  189.1520  176.7980  137.9240 C   0  0  0  0  0  3  0  0  0  0  0  0
  191.4230  177.3680  144.7620 C   0  0  0  0  0  2  0  0  0  0  0  0
  189.8880  177.4220  146.5210 O   0  0  0  0  0  0  0  0  0  0  0  0
  185.4310  178.9350  140.8060 C   0  0  0  0  0  1  0  0  0  0  0  0
  186.8030  179.2450  140.6080 O   0  0  0  0  0  0  0  0  0  0  0  0
  186.5810  177.1120  145.5900 C   0  0  0  0  0  2  0  0  0  0  0  0
  186.0400  177.8880  146.7410 C   0  0  0  0  0  0  0  0  0  0  0  0
  186.7880  178.1820  147.7100 O   0  0  0  0  0  1  0  0  0  0  0  0
  184.7190  178.3160  146.7320 O   0  0  0  0  0  0  0  0  0  0  0  0
  1  5  1  0  0  0  0
  2 20  2  0  0  0  0
  3 15  1  6  0  0  0
  3 14  1  0  0  0  0
  5  6  2  0  0  0  0
  6  3  1  0  0  0  0
  7 14  1  0  0  0  0
  7  8  1  1  0  0  0
  8 11  1  0  0  0  0
  9  6  1  0  0  0  0
  9 17  2  0  0  0  0
 10 11  1  0  0  0  0
 10  2  1  1  0  0  0
 11 23  1  6  0  0  0
 12 16  2  0  0  0  0
 13  4  1  1  0  0  0
 13 19  1  0  0  0  0
 14 10  1  0  0  0  0
 15 13  1  0  0  0  0
 16  9  1  0  0  0  0
 17  7  1  0  0  0  0
 18  1  2  0  0  0  0
 18 16  1  0  0  0  0
 19  2  1  0  0  0  0
 22 21  1  0  0  0  0
 22 17  1  0  0  0  0
 23 24  1  0  0  0  0
 24 25  1  0  0  0  0
 26 24  2  0  0  0  0
M  END
>  <MODEL>
1

>  <REMARK>
 VINA RESULT:      -8.0      0.000      0.000
  Name = 
  3 active torsions:
  status: ('A' for Active; 'I' for Inactive)
    1  A    between atoms: C_3  and  C_22
    2  A    between atoms: O_9  and  C_23
    3  A    between atoms: C_14  and  C_22
                            x       y       z     vdW  Elec       q    Type
                         _______ _______ _______ _____ _____    ______ ____

>  <TORSDO>
F 3

$$$$
=
 OpenBabel11032421303D

 26 29  0  0  1  0  0  0  0  0999 V2000
  188.9910  178.5150  148.4800 C   0  0  0  0  0  3  0  0  0  0  0  0
  191.1640  177.2550  141.9670 C   0  0  0  0  0  0  0  0  0  0  0  0
  190.1570  177.5720  144.9550 C   0  0  2  0  0  3  0  0  0  0  0  0
  190.3630  174.7850  142.9960 O   0  0  0  0  0  1  0  0  0  0  0  0
  189.8100  178.2250  147.2870 C   0  0  0  0  0  3  0  0  0  0  0  0
  189.2560  177.8880  146.1160 C   0  0  0  0  0  0  0  0  0  0  0  0
  188.0760  177.1870  143.5780 C   0  0  1  0  0  3  0  0  0  0  0  0
  187.5540  177.6990  142.2520 C   0  0  0  0  0  2  0  0  0  0  0  0
  187.7600  177.7830  145.9820 C   0  0  0  0  0  0  0  0  0  0  0  0
  189.9790  178.1280  142.3270 C   0  0  1  0  0  3  0  0  0  0  0  0
  188.8010  177.8770  141.3810 C   0  0  2  0  0  3  0  0  0  0  0  0
  185.7030  178.0000  147.2110 O   0  0  0  0  0  0  0  0  0  0  0  0
  191.2430  175.5150  143.7970 C   0  0  2  0  0  3  0  0  0  0  0  0
  189.3690  177.9420  143.7090 C   0  0  2  0  0  3  0  0  0  0  0  0
  190.5190  176.0810  145.0190 C   0  0  0  0  0  2  0  0  0  0  0  0
  186.9610  178.0650  147.2060 C   0  0  0  0  0  0  0  0  0  0  0  0
  187.1900  177.4560  144.7880 C   0  0  0  0  0  0  0  0  0  0  0  0
  187.6600  178.4390  148.4450 C   0  0  0  0  0  3  0  0  0  0  0  0
  192.0130  176.5580  142.9910 C   0  0  0  0  0  2  0  0  0  0  0  0
  191.4960  177.1660  140.7960 O   0  0  0  0  0  0  0  0  0  0  0  0
  184.9250  178.2490  144.1280 C   0  0  0  0  0  1  0  0  0  0  0  0
  185.7990  177.2940  144.7110 O   0  0  0  0  0  0  0  0  0  0  0  0
  188.6320  179.0550  140.4350 C   0  0  0  0  0  2  0  0  0  0  0  0
  188.7920  178.6190  139.0190 C   0  0  0  0  0  0  0  0  0  0  0  0
  188.9940  179.4740  138.1170 O   0  0  0  0  0  0  0  0  0  0  0  0
  188.7540  177.2700  138.6980 O   0  0  0  0  0  1  0  0  0  0  0  0
  2 19  1  0  0  0  0
  3 15  1  6  0  0  0
  3  6  1  0  0  0  0
  5  1  1  0  0  0  0
  6  5  2  0  0  0  0
  7  8  1  6  0  0  0
  7 14  1  0  0  0  0
  7 17  1  0  0  0  0
  9  6  1  0  0  0  0
  9 16  1  0  0  0  0
 10  2  1  6  0  0  0
 10 14  1  0  0  0  0
 11 23  1  6  0  0  0
 11  8  1  0  0  0  0
 11 10  1  0  0  0  0
 13  4  1  6  0  0  0
 13 15  1  0  0  0  0
 14  3  1  0  0  0  0
 16 12  2  0  0  0  0
 16 18  1  0  0  0  0
 17  9  2  0  0  0  0
 18  1  2  0  0  0  0
 19 13  1  0  0  0  0
 20  2  2  0  0  0  0
 21 22  1  0  0  0  0
 22 17  1  0  0  0  0
 24 23  1  0  0  0  0
 25 24  2  0  0  0  0
 26 24  1  0  0  0  0
M  END
>  <MODEL>
2

>  <REMARK>
 VINA RESULT:      -7.8      2.003      6.102
  Name = 
  3 active torsions:
  status: ('A' for Active; 'I' for Inactive)
    1  A    between atoms: C_3  and  C_22
    2  A    between atoms: O_9  and  C_23
    3  A    between atoms: C_14  and  C_22
                            x       y       z     vdW  Elec       q    Type
                         _______ _______ _______ _____ _____    ______ ____

>  <TORSDO>
F 3

$$$$
=
 OpenBabel11032421303D

 26 29  0  0  1  0  0  0  0  0999 V2000
  189.6460  175.9170  143.5760 C   0  0  0  0  0  3  0  0  0  0  0  0
  183.2070  178.6100  143.4850 C   0  0  0  0  0  0  0  0  0  0  0  0
  186.2130  177.6160  143.6110 C   0  0  2  0  0  3  0  0  0  0  0  0
  184.9190  180.7440  144.0480 O   0  0  0  0  0  1  0  0  0  0  0  0
  188.2880  176.3630  143.9430 C   0  0  0  0  0  3  0  0  0  0  0  0
  187.5760  177.1760  143.1540 C   0  0  0  0  0  0  0  0  0  0  0  0
  186.0180  178.9070  141.4490 C   0  0  1  0  0  3  0  0  0  0  0  0
  185.0010  178.9830  140.3310 C   0  0  0  0  0  2  0  0  0  0  0  0
  188.1510  177.6750  141.8540 C   0  0  0  0  0  0  0  0  0  0  0  0
  183.8950  177.9820  142.2910 C   0  0  1  0  0  3  0  0  0  0  0  0
  183.6450  178.7950  141.0180 C   0  0  2  0  0  3  0  0  0  0  0  0
  190.1120  177.5830  140.4630 O   0  0  0  0  0  0  0  0  0  0  0  0
  185.0890  179.6090  144.8430 C   0  0  2  0  0  3  0  0  0  0  0  0
  185.4110  177.8610  142.3430 C   0  0  2  0  0  3  0  0  0  0  0  0
  186.3790  178.8770  144.4720 C   0  0  0  0  0  2  0  0  0  0  0  0
  189.5290  177.2210  141.5190 C   0  0  0  0  0  0  0  0  0  0  0  0
  187.4250  178.4910  141.0400 C   0  0  0  0  0  0  0  0  0  0  0  0
  190.2290  176.3180  142.4460 C   0  0  0  0  0  3  0  0  0  0  0  0
  183.8460  178.7210  144.8390 C   0  0  0  0  0  2  0  0  0  0  0  0
  182.0500  178.9830  143.3700 O   0  0  0  0  0  0  0  0  0  0  0  0
  187.8660  178.4050  138.5910 C   0  0  0  0  0  1  0  0  0  0  0  0
  188.0140  178.9990  139.8720 O   0  0  0  0  0  0  0  0  0  0  0  0
  182.6790  178.0540  140.1070 C   0  0  0  0  0  2  0  0  0  0  0  0
  181.4250  178.8380  139.9230 C   0  0  0  0  0  0  0  0  0  0  0  0
  180.3590  178.4590  140.4750 O   0  0  0  0  0  1  0  0  0  0  0  0
  181.4380  180.0040  139.1710 O   0  0  0  0  0  0  0  0  0  0  0  0
  1  5  1  0  0  0  0
  2 19  1  0  0  0  0
  3 15  1  6  0  0  0
  6  3  1  0  0  0  0
  6  5  2  0  0  0  0
  7  8  1  6  0  0  0
  7 14  1  0  0  0  0
  8 11  1  0  0  0  0
  9  6  1  0  0  0  0
 10 14  1  0  0  0  0
 10  2  1  1  0  0  0
 11 23  1  6  0  0  0
 11 10  1  0  0  0  0
 12 16  2  0  0  0  0
 13  4  1  6  0  0  0
 14  3  1  0  0  0  0
 15 13  1  0  0  0  0
 16  9  1  0  0  0  0
 16 18  1  0  0  0  0
 17  7  1  0  0  0  0
 17  9  2  0  0  0  0
 18  1  2  0  0  0  0
 19 13  1  0  0  0  0
 20  2  2  0  0  0  0
 21 22  1  0  0  0  0
 22 17  1  0  0  0  0
 24 23  1  0  0  0  0
 24 25  1  0  0  0  0
 26 24  2  0  0  0  0
M  END
>  <MODEL>
3

>  <REMARK>
 VINA RESULT:      -6.6      2.773      5.578
  Name = 
  3 active torsions:
  status: ('A' for Active; 'I' for Inactive)
    1  A    between atoms: C_3  and  C_22
    2  A    between atoms: O_9  and  C_23
    3  A    between atoms: C_14  and  C_22
                            x       y       z     vdW  Elec       q    Type
                         _______ _______ _______ _____ _____    ______ ____

>  <TORSDO>
F 3

$$$$
=
 OpenBabel11032421303D

 26 29  0  0  1  0  0  0  0  0999 V2000
  190.6310  178.2790  148.2640 C   0  0  0  0  0  3  0  0  0  0  0  0
  189.2980  177.5280  141.4530 C   0  0  0  0  0  0  0  0  0  0  0  0
  189.8980  177.6120  144.5640 C   0  0  2  0  0  3  0  0  0  0  0  0
  189.0680  174.9750  142.5630 O   0  0  0  0  0  1  0  0  0  0  0  0
  190.7530  178.0920  146.8050 C   0  0  0  0  0  3  0  0  0  0  0  0
  189.6900  177.8250  146.0370 C   0  0  0  0  0  0  0  0  0  0  0  0
  187.4020  177.2800  144.3650 C   0  0  1  0  0  3  0  0  0  0  0  0
  186.3040  177.8720  143.5080 C   0  0  0  0  0  2  0  0  0  0  0  0
  188.3190  177.6980  146.6490 C   0  0  0  0  0  0  0  0  0  0  0  0
  188.4580  178.3470  142.4110 C   0  0  1  0  0  3  0  0  0  0  0  0
  186.9630  178.1380  142.1520 C   0  0  2  0  0  3  0  0  0  0  0  0
  187.1370  177.7840  148.7430 O   0  0  0  0  0  0  0  0  0  0  0  0
  190.2410  175.6650  142.8770 C   0  0  2  0  0  3  0  0  0  0  0  0
  188.6040  178.0520  143.8960 C   0  0  2  0  0  3  0  0  0  0  0  0
  190.2200  176.1280  144.3340 C   0  0  0  0  0  2  0  0  0  0  0  0
  188.2300  177.8760  148.1250 C   0  0  0  0  0  0  0  0  0  0  0  0
  187.2310  177.4430  145.8700 C   0  0  0  0  0  0  0  0  0  0  0  0
  189.4540  178.1770  148.8830 C   0  0  0  0  0  3  0  0  0  0  0  0
  190.5300  176.7790  141.8730 C   0  0  0  0  0  2  0  0  0  0  0  0
  189.0100  177.5280  140.2680 O   0  0  0  0  0  0  0  0  0  0  0  0
  184.9660  178.2510  146.5150 C   0  0  0  0  0  1  0  0  0  0  0  0
  185.9790  177.2570  146.4760 O   0  0  0  0  0  0  0  0  0  0  0  0
  186.3690  179.3750  141.4990 C   0  0  0  0  0  2  0  0  0  0  0  0
  185.3600  178.9940  140.4700 C   0  0  0  0  0  0  0  0  0  0  0  0
  185.7290  178.7200  139.2980 O   0  0  0  0  0  0  0  0  0  0  0  0
  184.0180  178.9080  140.8110 O   0  0  0  0  0  1  0  0  0  0  0  0
  1 18  2  0  0  0  0
  2 19  1  0  0  0  0
  3 15  1  1  0  0  0
  3  6  1  0  0  0  0
  5  1  1  0  0  0  0
  6  9  1  0  0  0  0
  6  5  2  0  0  0  0
  7  8  1  6  0  0  0
  7 17  1  0  0  0  0
  9 16  1  0  0  0  0
 10  2  1  6  0  0  0
 10 14  1  0  0  0  0
 11 23  1  1  0  0  0
 11 10  1  0  0  0  0
 11  8  1  0  0  0  0
 13  4  1  6  0  0  0
 13 15  1  0  0  0  0
 14  7  1  0  0  0  0
 14  3  1  0  0  0  0
 16 12  2  0  0  0  0
 16 18  1  0  0  0  0
 17 22  1  0  0  0  0
 17  9  2  0  0  0  0
 19 13  1  0  0  0  0
 20  2  2  0  0  0  0
 22 21  1  0  0  0  0
 24 26  1  0  0  0  0
 24 23  1  0  0  0  0
 25 24  2  0  0  0  0
M  END
>  <MODEL>
4

>  <REMARK>
 VINA RESULT:      -6.2      2.028      6.049
  Name = 
  3 active torsions:
  status: ('A' for Active; 'I' for Inactive)
    1  A    between atoms: C_3  and  C_22
    2  A    between atoms: O_9  and  C_23
    3  A    between atoms: C_14  and  C_22
                            x       y       z     vdW  Elec       q    Type
                         _______ _______ _______ _____ _____    ______ ____

>  <TORSDO>
F 3

$$$$
=
 OpenBabel11032421303D

 26 29  0  0  1  0  0  0  0  0999 V2000
  186.0080  178.0590  143.5020 C   0  0  0  0  0  3  0  0  0  0  0  0
  182.1870  178.8190  137.7100 C   0  0  0  0  0  0  0  0  0  0  0  0
  183.8100  178.2440  140.3700 C   0  0  2  0  0  3  0  0  0  0  0  0
  181.2590  176.4880  138.9370 O   0  0  0  0  0  1  0  0  0  0  0  0
  185.5140  178.0250  142.1120 C   0  0  0  0  0  3  0  0  0  0  0  0
  184.2490  178.3360  141.8050 C   0  0  0  0  0  0  0  0  0  0  0  0
  181.5320  179.0330  141.1240 C   0  0  1  0  0  3  0  0  0  0  0  0
  180.5860  180.1390  140.7100 C   0  0  0  0  0  2  0  0  0  0  0  0
  183.2760  178.7270  142.8850 C   0  0  0  0  0  0  0  0  0  0  0  0
  182.1900  179.7880  138.8730 C   0  0  1  0  0  3  0  0  0  0  0  0
  180.7730  180.2690  139.1960 C   0  0  2  0  0  3  0  0  0  0  0  0
  183.0710  179.0400  145.2620 O   0  0  0  0  0  0  0  0  0  0  0  0
  182.6420  176.5680  138.7640 C   0  0  2  0  0  3  0  0  0  0  0  0
  182.7010  179.2720  140.2110 C   0  0  2  0  0  3  0  0  0  0  0  0
  183.3410  176.8060  140.1020 C   0  0  0  0  0  2  0  0  0  0  0  0
  183.7980  178.7370  144.2800 C   0  0  0  0  0  0  0  0  0  0  0  0
  181.9910  179.0600  142.5770 C   0  0  0  0  0  0  0  0  0  0  0  0
  185.2070  178.3890  144.5160 C   0  0  0  0  0  3  0  0  0  0  0  0
  183.0210  177.5710  137.6760 C   0  0  0  0  0  2  0  0  0  0  0  0
  181.5330  179.0930  136.7160 O   0  0  0  0  0  0  0  0  0  0  0  0
  179.9620  178.5400  143.9230 C   0  0  0  0  0  1  0  0  0  0  0  0
  181.0870  179.3480  143.6110 O   0  0  0  0  0  0  0  0  0  0  0  0
  180.5990  181.7140  138.7560 C   0  0  0  0  0  2  0  0  0  0  0  0
  179.7520  181.7930  137.5320 C   0  0  0  0  0  0  0  0  0  0  0  0
  179.8050  182.8120  136.7950 O   0  0  0  0  0  0  0  0  0  0  0  0
  178.9310  180.7290  137.1850 O   0  0  0  0  0  1  0  0  0  0  0  0
  1 18  2  0  0  0  0
  3 15  1  1  0  0  0
  3  6  1  0  0  0  0
  5  1  1  0  0  0  0
  6  5  2  0  0  0  0
  6  9  1  0  0  0  0
  7  8  1  1  0  0  0
  7 17  1  0  0  0  0
  9 16  1  0  0  0  0
 10  2  1  6  0  0  0
 10 11  1  0  0  0  0
 10 14  1  0  0  0  0
 11 23  1  1  0  0  0
 11  8  1  0  0  0  0
 13  4  1  1  0  0  0
 13 15  1  0  0  0  0
 14  3  1  0  0  0  0
 14  7  1  0  0  0  0
 16 18  1  0  0  0  0
 16 12  2  0  0  0  0
 17  9  2  0  0  0  0
 17 22  1  0  0  0  0
 19  2  1  0  0  0  0
 19 13  1  0  0  0  0
 20  2  2  0  0  0  0
 22 21  1  0  0  0  0
 24 23  1  0  0  0  0
 25 24  2  0  0  0  0
 26 24  1  0  0  0  0
M  END
>  <MODEL>
5

>  <REMARK>
 VINA RESULT:      -6.2      4.757      8.983
  Name = 
  3 active torsions:
  status: ('A' for Active; 'I' for Inactive)
    1  A    between atoms: C_3  and  C_22
    2  A    between atoms: O_9  and  C_23
    3  A    between atoms: C_14  and  C_22
                            x       y       z     vdW  Elec       q    Type
                         _______ _______ _______ _____ _____    ______ ____

>  <TORSDO>
F 3

$$$$
=
 OpenBabel11032421303D

 26 29  0  0  1  0  0  0  0  0999 V2000
  191.3850  175.4570  137.3300 C   0  0  0  0  0  3  0  0  0  0  0  0
  189.5700  177.0360  143.8820 C   0  0  0  0  0  0  0  0  0  0  0  0
  190.5450  176.5280  140.9100 C   0  0  2  0  0  3  0  0  0  0  0  0
  191.0960  179.1910  142.9720 O   0  0  0  0  0  1  0  0  0  0  0  0
  191.3320  175.5730  138.7990 C   0  0  0  0  0  3  0  0  0  0  0  0
  190.5170  176.4420  139.4090 C   0  0  0  0  0  0  0  0  0  0  0  0
  188.7430  178.2890  140.7390 C   0  0  1  0  0  3  0  0  0  0  0  0
  187.3770  178.4930  141.3580 C   0  0  0  0  0  2  0  0  0  0  0  0
  189.6230  177.3450  138.6020 C   0  0  0  0  0  0  0  0  0  0  0  0
  188.5950  176.8550  142.7380 C   0  0  1  0  0  3  0  0  0  0  0  0
  187.4970  177.9220  142.7740 C   0  0  2  0  0  3  0  0  0  0  0  0
  189.0150  177.9270  136.3480 O   0  0  0  0  0  0  0  0  0  0  0  0
  191.6660  177.9290  142.7890 C   0  0  2  0  0  3  0  0  0  0  0  0
  189.1490  176.9660  141.3240 C   0  0  2  0  0  3  0  0  0  0  0  0
  191.6350  177.5310  141.3140 C   0  0  0  0  0  2  0  0  0  0  0  0
  189.7100  177.2170  137.1210 C   0  0  0  0  0  0  0  0  0  0  0  0
  188.7790  178.2210  139.2180 C   0  0  0  0  0  0  0  0  0  0  0  0
  190.6290  176.2250  136.5430 C   0  0  0  0  0  3  0  0  0  0  0  0
  191.0570  176.8900  143.7280 C   0  0  0  0  0  2  0  0  0  0  0  0
  189.1320  177.2390  145.0030 O   0  0  0  0  0  0  0  0  0  0  0  0
  186.6720  178.8450  138.0480 C   0  0  0  0  0  1  0  0  0  0  0  0
  188.0130  179.1010  138.4390 O   0  0  0  0  0  0  0  0  0  0  0  0
  186.1820  177.3020  143.2160 C   0  0  0  0  0  2  0  0  0  0  0  0
  185.3520  178.2980  143.9510 C   0  0  0  0  0  0  0  0  0  0  0  0
  184.9770  178.0590  145.1290 O   0  0  0  0  0  1  0  0  0  0  0  0
  185.0190  179.5040  143.3510 O   0  0  0  0  0  0  0  0  0  0  0  0
  1  5  1  0  0  0  0
  2 20  2  0  0  0  0
  3 15  1  6  0  0  0
  3 14  1  0  0  0  0
  5  6  2  0  0  0  0
  6  3  1  0  0  0  0
  7 14  1  0  0  0  0
  7  8  1  6  0  0  0
  8 11  1  0  0  0  0
  9 17  2  0  0  0  0
  9  6  1  0  0  0  0
 10 11  1  0  0  0  0
 10  2  1  1  0  0  0
 11 23  1  6  0  0  0
 12 16  2  0  0  0  0
 13  4  1  6  0  0  0
 13 19  1  0  0  0  0
 14 10  1  0  0  0  0
 15 13  1  0  0  0  0
 16  9  1  0  0  0  0
 17  7  1  0  0  0  0
 18 16  1  0  0  0  0
 18  1  2  0  0  0  0
 19  2  1  0  0  0  0
 21 22  1  0  0  0  0
 22 17  1  0  0  0  0
 23 24  1  0  0  0  0
 24 25  1  0  0  0  0
 26 24  2  0  0  0  0
M  END
>  <MODEL>
6

>  <REMARK>
 VINA RESULT:      -6.0      1.552      2.115
  Name = 
  3 active torsions:
  status: ('A' for Active; 'I' for Inactive)
    1  A    between atoms: C_3  and  C_22
    2  A    between atoms: O_9  and  C_23
    3  A    between atoms: C_14  and  C_22
                            x       y       z     vdW  Elec       q    Type
                         _______ _______ _______ _____ _____    ______ ____

>  <TORSDO>
F 3

$$$$
=
 OpenBabel11032421303D

 26 29  0  0  1  0  0  0  0  0999 V2000
  184.1220  177.8800  142.5760 C   0  0  0  0  0  3  0  0  0  0  0  0
  190.9100  176.6680  143.6670 C   0  0  0  0  0  0  0  0  0  0  0  0
  187.8910  177.4610  143.1140 C   0  0  2  0  0  3  0  0  0  0  0  0
  190.6790  179.4230  143.2710 O   0  0  0  0  0  1  0  0  0  0  0  0
  185.5510  177.5510  142.4080 C   0  0  0  0  0  3  0  0  0  0  0  0
  186.4480  177.7900  143.3720 C   0  0  0  0  0  0  0  0  0  0  0  0
  188.3880  178.2740  145.4530 C   0  0  1  0  0  3  0  0  0  0  0  0
  189.1020  177.7060  146.6600 C   0  0  0  0  0  2  0  0  0  0  0  0
  186.0210  178.4190  144.6720 C   0  0  0  0  0  0  0  0  0  0  0  0
  189.8160  176.4200  144.6840 C   0  0  1  0  0  3  0  0  0  0  0  0
  190.2480  176.8710  146.0810 C   0  0  2  0  0  3  0  0  0  0  0  0
  184.1090  179.2910  145.8450 O   0  0  0  0  0  0  0  0  0  0  0  0
  190.0700  178.6230  142.3030 C   0  0  2  0  0  3  0  0  0  0  0  0
  188.4910  177.1390  144.4740 C   0  0  2  0  0  3  0  0  0  0  0  0
  188.5480  178.6740  142.4390 C   0  0  0  0  0  2  0  0  0  0  0  0
  184.5760  178.7550  144.8060 C   0  0  0  0  0  0  0  0  0  0  0  0
  186.9270  178.6510  145.6630 C   0  0  0  0  0  0  0  0  0  0  0  0
  183.6650  178.4440  143.6940 C   0  0  0  0  0  3  0  0  0  0  0  0
  190.6460  177.2090  142.2900 C   0  0  0  0  0  2  0  0  0  0  0  0
  192.0550  176.3500  143.9430 O   0  0  0  0  0  0  0  0  0  0  0  0
  186.6540  178.7580  148.1350 C   0  0  0  0  0  1  0  0  0  0  0  0
  186.5140  179.3060  146.8330 O   0  0  0  0  0  0  0  0  0  0  0  0
  190.5260  175.6600  146.9580 C   0  0  0  0  0  2  0  0  0  0  0  0
  191.9640  175.6110  147.3470 C   0  0  0  0  0  0  0  0  0  0  0  0
  192.7640  174.8790  146.7090 O   0  0  0  0  0  0  0  0  0  0  0  0
  192.4290  176.3990  148.3900 O   0  0  0  0  0  1  0  0  0  0  0  0
  1 18  2  0  0  0  0
  2 20  2  0  0  0  0
  3 15  1  1  0  0  0
  3  6  1  0  0  0  0
  3 14  1  0  0  0  0
  5  1  1  0  0  0  0
  5  6  2  0  0  0  0
  6  9  1  0  0  0  0
  7 17  1  0  0  0  0
  7  8  1  1  0  0  0
  9 16  1  0  0  0  0
  9 17  2  0  0  0  0
 10  2  1  6  0  0  0
 10 11  1  0  0  0  0
 11  8  1  0  0  0  0
 11 23  1  1  0  0  0
 13 15  1  0  0  0  0
 13  4  1  1  0  0  0
 14 10  1  0  0  0  0
 14  7  1  0  0  0  0
 16 12  2  0  0  0  0
 17 22  1  0  0  0  0
 18 16  1  0  0  0  0
 19 13  1  0  0  0  0
 19  2  1  0  0  0  0
 22 21  1  0  0  0  0
 23 24  1  0  0  0  0
 24 26  1  0  0  0  0
 25 24  2  0  0  0  0
M  END
>  <MODEL>
7

>  <REMARK>
 VINA RESULT:      -5.9      2.537      5.153
  Name = 
  3 active torsions:
  status: ('A' for Active; 'I' for Inactive)
    1  A    between atoms: C_3  and  C_22
    2  A    between atoms: O_9  and  C_23
    3  A    between atoms: C_14  and  C_22
                            x       y       z     vdW  Elec       q    Type
                         _______ _______ _______ _____ _____    ______ ____

>  <TORSDO>
F 3

$$$$
=
 OpenBabel11032421303D

 26 29  0  0  1  0  0  0  0  0999 V2000
  183.2360  176.6690  136.4900 C   0  0  0  0  0  3  0  0  0  0  0  0
  189.8500  177.4610  138.5750 C   0  0  0  0  0  0  0  0  0  0  0  0
  186.8610  177.3390  137.5300 C   0  0  2  0  0  3  0  0  0  0  0  0
  189.0550  179.9520  137.5940 O   0  0  0  0  0  1  0  0  0  0  0  0
  184.7090  176.6980  136.5580 C   0  0  0  0  0  3  0  0  0  0  0  0
  185.3580  177.3230  137.5480 C   0  0  0  0  0  0  0  0  0  0  0  0
  186.7690  178.6440  139.6910 C   0  0  1  0  0  3  0  0  0  0  0  0
  187.3910  178.4960  141.0630 C   0  0  0  0  0  2  0  0  0  0  0  0
  184.5920  178.0350  138.6320 C   0  0  0  0  0  0  0  0  0  0  0  0
  188.6930  177.1170  139.4900 C   0  0  1  0  0  3  0  0  0  0  0  0
  188.7770  177.8990  140.8040 C   0  0  2  0  0  3  0  0  0  0  0  0
  182.3660  178.5720  139.3730 O   0  0  0  0  0  0  0  0  0  0  0  0
  188.8130  178.8660  136.7490 C   0  0  2  0  0  3  0  0  0  0  0  0
  187.2900  177.4220  138.9870 C   0  0  2  0  0  3  0  0  0  0  0  0
  187.3190  178.5460  136.6980 C   0  0  0  0  0  2  0  0  0  0  0  0
  183.1070  178.0040  138.5270 C   0  0  0  0  0  0  0  0  0  0  0  0
  185.2470  178.6600  139.6500 C   0  0  0  0  0  0  0  0  0  0  0  0
  182.4850  177.2810  137.4080 C   0  0  0  0  0  3  0  0  0  0  0  0
  189.6950  177.6700  137.0960 C   0  0  0  0  0  2  0  0  0  0  0  0
  190.9770  177.5020  139.0410 O   0  0  0  0  0  0  0  0  0  0  0  0
  184.3260  178.9480  141.9450 C   0  0  0  0  0  1  0  0  0  0  0  0
  184.5090  179.3780  140.6040 O   0  0  0  0  0  0  0  0  0  0  0  0
  189.1820  176.9710  141.9380 C   0  0  0  0  0  2  0  0  0  0  0  0
  190.2940  177.5650  142.7330 C   0  0  0  0  0  0  0  0  0  0  0  0
  190.0440  178.1840  143.8000 O   0  0  0  0  0  1  0  0  0  0  0  0
  191.6080  177.4080  142.3150 O   0  0  0  0  0  0  0  0  0  0  0  0
  1  5  1  0  0  0  0
  1 18  2  0  0  0  0
  2 20  2  0  0  0  0
  3 15  1  6  0  0  0
  3  6  1  0  0  0  0
  3 14  1  0  0  0  0
  5  6  2  0  0  0  0
  6  9  1  0  0  0  0
  7  8  1  1  0  0  0
  9 17  2  0  0  0  0
 10  2  1  6  0  0  0
 10 11  1  0  0  0  0
 11  8  1  0  0  0  0
 11 23  1  1  0  0  0
 13 19  1  0  0  0  0
 13  4  1  1  0  0  0
 14 10  1  0  0  0  0
 14  7  1  0  0  0  0
 15 13  1  0  0  0  0
 16  9  1  0  0  0  0
 16 12  2  0  0  0  0
 17  7  1  0  0  0  0
 17 22  1  0  0  0  0
 18 16  1  0  0  0  0
 19  2  1  0  0  0  0
 22 21  1  0  0  0  0
 23 24  1  0  0  0  0
 24 25  1  0  0  0  0
 26 24  2  0  0  0  0
M  END
>  <MODEL>
8

>  <REMARK>
 VINA RESULT:      -5.9      2.704      5.668
  Name = 
  3 active torsions:
  status: ('A' for Active; 'I' for Inactive)
    1  A    between atoms: C_3  and  C_22
    2  A    between atoms: O_9  and  C_23
    3  A    between atoms: C_14  and  C_22
                            x       y       z     vdW  Elec       q    Type
                         _______ _______ _______ _____ _____    ______ ____

>  <TORSDO>
F 3

$$$$
=
 OpenBabel11032421303D

 26 29  0  0  1  0  0  0  0  0999 V2000
  181.8070  178.6280  144.2240 C   0  0  0  0  0  3  0  0  0  0  0  0
  181.7690  177.9200  137.2800 C   0  0  0  0  0  0  0  0  0  0  0  0
  181.7690  178.4960  140.3960 C   0  0  2  0  0  3  0  0  0  0  0  0
  181.9310  180.6660  137.7670 O   0  0  0  0  0  1  0  0  0  0  0  0
  181.3980  178.4770  142.8140 C   0  0  0  0  0  3  0  0  0  0  0  0
  182.2670  178.6300  141.8080 C   0  0  0  0  0  0  0  0  0  0  0  0
  184.1350  178.9300  139.6280 C   0  0  1  0  0  3  0  0  0  0  0  0
  185.1120  178.2310  138.7070 C   0  0  0  0  0  2  0  0  0  0  0  0
  183.7060  178.9760  142.0870 C   0  0  0  0  0  0  0  0  0  0  0  0
  182.8530  177.3900  138.1940 C   0  0  1  0  0  3  0  0  0  0  0  0
  184.2440  177.6290  137.5980 C   0  0  2  0  0  3  0  0  0  0  0  0
  185.2580  179.4340  143.8680 O   0  0  0  0  0  0  0  0  0  0  0  0
  180.9160  179.9910  138.4490 C   0  0  2  0  0  3  0  0  0  0  0  0
  182.9550  178.0000  139.5840 C   0  0  2  0  0  3  0  0  0  0  0  0
  181.2540  179.8680  139.9350 C   0  0  0  0  0  2  0  0  0  0  0  0
  184.0850  179.1380  143.5180 C   0  0  0  0  0  0  0  0  0  0  0  0
  184.5980  179.1180  141.0670 C   0  0  0  0  0  0  0  0  0  0  0  0
  183.0620  178.9390  144.5550 C   0  0  0  0  0  3  0  0  0  0  0  0
  180.5640  178.6660  137.7780 C   0  0  0  0  0  2  0  0  0  0  0  0
  181.8310  177.6730  136.0860 O   0  0  0  0  0  0  0  0  0  0  0  0
  187.0250  178.6290  141.3290 C   0  0  0  0  0  1  0  0  0  0  0  0
  185.9140  179.5130  141.3540 O   0  0  0  0  0  0  0  0  0  0  0  0
  184.8340  176.3160  137.1080 C   0  0  0  0  0  2  0  0  0  0  0  0
  186.2420  176.5070  136.6610 C   0  0  0  0  0  0  0  0  0  0  0  0
  187.1680  175.8460  137.1990 O   0  0  0  0  0  1  0  0  0  0  0  0
  186.5300  177.3870  135.6270 O   0  0  0  0  0  0  0  0  0  0  0  0
  1 18  2  0  0  0  0
  2 19  1  0  0  0  0
  3 15  1  6  0  0  0
  3  6  1  0  0  0  0
  5  1  1  0  0  0  0
  6  9  1  0  0  0  0
  6  5  2  0  0  0  0
  7  8  1  6  0  0  0
  7 17  1  0  0  0  0
  9 16  1  0  0  0  0
 10  2  1  6  0  0  0
 10 14  1  0  0  0  0
 11 23  1  1  0  0  0
 11 10  1  0  0  0  0
 11  8  1  0  0  0  0
 13  4  1  6  0  0  0
 13 15  1  0  0  0  0
 14  7  1  0  0  0  0
 14  3  1  0  0  0  0
 16 12  2  0  0  0  0
 16 18  1  0  0  0  0
 17 22  1  0  0  0  0
 17  9  2  0  0  0  0
 19 13  1  0  0  0  0
 20  2  2  0  0  0  0
 21 22  1  0  0  0  0
 24 23  1  0  0  0  0
 24 25  1  0  0  0  0
 26 24  2  0  0  0  0
M  END
>  <MODEL>
9

>  <REMARK>
 VINA RESULT:      -5.7      3.795      8.920
  Name = 
  3 active torsions:
  status: ('A' for Active; 'I' for Inactive)
    1  A    between atoms: C_3  and  C_22
    2  A    between atoms: O_9  and  C_23
    3  A    between atoms: C_14  and  C_22
                            x       y       z     vdW  Elec       q    Type
                         _______ _______ _______ _____ _____    ______ ____

>  <TORSDO>
F 3

$$$$
