=
 OpenBabel11062410593D

 49 52  0  0  1  0  0  0  0  0999 V2000
  184.4740  177.5920  138.0400 C   0  0  2  0  0  3  0  0  0  0  0  0
  186.3660  175.5960  137.4260 O   0  0  0  0  0  1  0  0  0  0  0  0
  190.5210  177.0350  138.8250 C   0  0  0  0  0  0  0  0  0  0  0  0
  191.2920  177.4620  141.1920 C   0  0  0  0  0  0  0  0  0  0  0  0
  191.0910  177.9660  142.3730 N   0  0  0  0  0  0  0  0  0  0  0  0
  185.2660  178.5140  137.3270 O   0  0  0  0  0  0  0  0  0  0  0  0
  194.0270  176.3950  139.0830 O   0  0  0  0  0  0  0  0  0  0  0  0
  186.2460  177.8690  136.5220 C   0  0  1  0  0  3  0  0  0  0  0  0
  183.2910  177.1430  137.1700 C   0  0  2  0  0  3  0  0  0  0  0  0
  188.3460  178.0270  138.0550 C   0  0  1  0  0  3  0  0  0  0  0  0
  184.8980  175.9380  135.5860 C   0  0  0  0  0  3  0  0  0  0  0  0
  187.3360  178.4650  139.9880 C   0  0  0  0  0  2  0  0  0  0  0  0
  192.8690  176.7280  139.4390 C   0  0  0  0  0  0  0  0  0  0  0  0
  190.1390  177.1320  140.2810 C   0  0  0  0  0  2  0  0  0  0  0  0
  183.6640  176.2700  135.9920 C   0  0  0  0  0  3  0  0  0  0  0  0
  187.4420  177.5040  138.9830 O   0  0  0  0  0  0  0  0  0  0  0  0
  186.0450  178.2490  140.7470 C   0  0  1  0  0  3  0  0  0  0  0  0
  191.7780  176.7720  138.4550 C   0  0  0  0  0  3  0  0  0  0  0  0
  183.9260  178.2330  139.3270 C   0  0  2  0  0  3  0  0  0  0  0  0
  189.4500  177.0120  137.7770 C   0  0  0  0  0  2  0  0  0  0  0  0
  187.6560  178.4250  136.7460 C   0  0  0  0  0  2  0  0  0  0  0  0
  189.8060  178.4210  142.8160 C   0  0  0  0  0  0  0  0  0  0  0  0
  186.1720  176.3450  136.2640 C   0  0  2  0  0  3  0  0  0  0  0  0
  189.2960  179.4410  142.2740 O   0  0  0  0  0  0  0  0  0  0  0  0
  186.8050  177.5210  142.9890 C   0  0  0  0  0  2  0  0  0  0  0  0
  187.6880  178.0310  144.1170 C   0  0  0  0  0  2  0  0  0  0  0  0
  192.6150  177.1010  140.7950 N   0  0  0  0  0  2  0  0  0  0  0  0
  189.0870  177.7180  143.8410 N   0  0  0  0  0  0  0  0  0  0  0  0
  186.2380  178.6790  142.1900 C   0  0  0  0  0  2  0  0  0  0  0  0
  184.9450  179.0800  140.1020 C   0  0  0  0  0  2  0  0  0  0  0  0
  182.5680  178.2800  136.7160 O   0  0  0  0  0  0  0  0  0  0  0  0
  180.7710  179.5480  137.5670 C   0  0  0  0  0  0  0  0  0  0  0  0
  181.2130  178.4360  136.9950 C   0  0  0  0  0  3  0  0  0  0  0  0
  179.3800  179.6940  137.8400 N   0  0  0  0  0  1  0  0  0  0  0  0
  181.6650  180.5650  137.8950 O   0  0  0  0  0  0  0  0  0  0  0  0
  181.2930  181.5780  138.6890 O   0  0  0  0  0  1  0  0  0  0  0  0
  189.7060  176.6180  144.5730 C   0  0  0  0  0  2  0  0  0  0  0  0
  190.2270  177.1090  145.9170 C   0  0  2  0  0  3  0  0  0  0  0  0
  191.8780  176.2080  147.3810 O   0  0  0  0  0  1  0  0  0  0  0  0
  191.6860  176.7260  146.1000 C   0  0  0  0  0  2  0  0  0  0  0  0
  189.3530  176.6380  147.0830 C   0  0  0  0  0  2  0  0  0  0  0  0
  187.4860  178.0330  147.6110 O   0  0  0  0  0  0  0  0  0  0  0  0
  188.6980  177.7670  147.8160 C   0  0  0  0  0  0  0  0  0  0  0  0
  189.4350  178.5400  148.7050 O   0  0  0  0  0  1  0  0  0  0  0  0
  183.2650  177.1880  140.2210 C   0  0  0  0  0  2  0  0  0  0  0  0
  181.7950  177.5080  140.4110 C   0  0  0  0  0  2  0  0  0  0  0  0
  181.6450  178.6500  141.3520 C   0  0  0  0  0  0  0  0  0  0  0  0
  182.4860  178.7600  142.4530 O   0  0  0  0  0  1  0  0  0  0  0  0
  180.7750  179.5330  141.1360 O   0  0  0  0  0  0  0  0  0  0  0  0
  1  6  1  6  0  0  0
  1 19  1  0  0  0  0
  3 14  1  0  0  0  0
  4  5  2  0  0  0  0
  5 22  1  0  0  0  0
  7 13  2  0  0  0  0
  8 21  1  1  0  0  0
  8  6  1  0  0  0  0
  9 31  1  6  0  0  0
  9  1  1  0  0  0  0
 10 21  1  6  0  0  0
 10 16  1  0  0  0  0
 11 15  2  0  0  0  0
 11 23  1  0  0  0  0
 13 27  1  0  0  0  0
 14  4  1  0  0  0  0
 15  9  1  0  0  0  0
 16 12  1  0  0  0  0
 17 12  1  6  0  0  0
 17 29  1  0  0  0  0
 18  3  2  0  0  0  0
 18 13  1  0  0  0  0
 19 30  1  0  0  0  0
 19 45  1  1  0  0  0
 20 10  1  0  0  0  0
 20  3  1  0  0  0  0
 22 28  1  0  0  0  0
 23  8  1  0  0  0  0
 23  2  1  1  0  0  0
 24 22  2  0  0  0  0
 25 26  1  0  0  0  0
 27  4  1  0  0  0  0
 28 26  1  0  0  0  0
 28 37  1  0  0  0  0
 29 25  1  0  0  0  0
 30 17  1  0  0  0  0
 31 33  1  0  0  0  0
 32 34  1  0  0  0  0
 32 35  1  0  0  0  0
 33 32  2  0  0  0  0
 35 36  1  0  0  0  0
 38 37  1  6  0  0  0
 38 40  1  0  0  0  0
 38 41  1  0  0  0  0
 40 39  1  0  0  0  0
 41 43  1  0  0  0  0
 42 43  2  0  0  0  0
 43 44  1  0  0  0  0
 45 46  1  0  0  0  0
 46 47  1  0  0  0  0
 47 48  1  0  0  0  0
 49 47  2  0  0  0  0
M  END
>  <MODEL>
1

>  <REMARK>
 VINA RESULT:      -7.2      0.000      0.000
  Name = 
  11 active torsions:
  status: ('A' for Active; 'I' for Inactive)
    1  A    between atoms: C_5  and  O_22
    2  A    between atoms: C_10  and  O_21
    3  A    between atoms: C_12  and  O_21
    4  A    between atoms: C_20  and  C_24
    5  A    between atoms: C_23  and  C_31
    6  A    between atoms: C_23  and  C_33
    7  A    between atoms: C_23  and  C_49
    8  A    between atoms: C_24  and  C_38
    9  A    between atoms: C_27  and  C_38
   10  A    between atoms: C_28  and  C_49
   11  A    between atoms: C_33  and  N_44
                            x       y       z     vdW  Elec       q    Type
                         _______ _______ _______ _____ _____    ______ ____

>  <TORSDO>
F 11

$$$$
=
 OpenBabel11062410593D

 49 52  0  0  1  0  0  0  0  0999 V2000
  181.8190  177.5670  138.4530 C   0  0  2  0  0  3  0  0  0  0  0  0
  182.8970  175.0520  137.7760 O   0  0  0  0  0  1  0  0  0  0  0  0
  187.2560  175.6510  136.3880 C   0  0  0  0  0  0  0  0  0  0  0  0
  189.2180  176.4580  137.7600 C   0  0  0  0  0  0  0  0  0  0  0  0
  189.7310  177.2870  138.6210 N   0  0  0  0  0  0  0  0  0  0  0  0
  182.1780  178.0270  137.1710 O   0  0  0  0  0  0  0  0  0  0  0  0
  190.2740  174.1940  135.1480 O   0  0  0  0  0  0  0  0  0  0  0  0
  182.5070  176.9590  136.2900 C   0  0  1  0  0  3  0  0  0  0  0  0
  180.3200  177.2370  138.4840 C   0  0  2  0  0  3  0  0  0  0  0  0
  185.1070  176.9480  136.4560 C   0  0  1  0  0  3  0  0  0  0  0  0
  180.7040  175.2800  136.8820 C   0  0  0  0  0  3  0  0  0  0  0  0
  185.3440  178.1250  138.3280 C   0  0  0  0  0  2  0  0  0  0  0  0
  189.5260  174.9040  135.8670 C   0  0  0  0  0  0  0  0  0  0  0  0
  187.7320  176.2210  137.7020 C   0  0  0  0  0  2  0  0  0  0  0  0
  179.9200  176.0220  137.6780 C   0  0  0  0  0  3  0  0  0  0  0  0
  184.8060  176.9440  137.8190 O   0  0  0  0  0  0  0  0  0  0  0  0
  184.6540  178.4640  139.6310 C   0  0  1  0  0  3  0  0  0  0  0  0
  188.0860  174.9770  135.5850 C   0  0  0  0  0  3  0  0  0  0  0  0
  182.1120  178.6410  139.5140 C   0  0  2  0  0  3  0  0  0  0  0  0
  185.7920  175.6410  136.0700 C   0  0  0  0  0  2  0  0  0  0  0  0
  183.8580  177.1610  135.5930 C   0  0  0  0  0  2  0  0  0  0  0  0
  188.9350  178.1650  139.4260 C   0  0  0  0  0  0  0  0  0  0  0  0
  182.1730  175.4970  136.6680 C   0  0  2  0  0  3  0  0  0  0  0  0
  188.3050  179.1060  138.8680 O   0  0  0  0  0  0  0  0  0  0  0  0
  186.4370  178.1690  141.3250 C   0  0  0  0  0  2  0  0  0  0  0  0
  187.8300  178.7020  141.6220 C   0  0  0  0  0  2  0  0  0  0  0  0
  190.0790  175.6690  136.9400 N   0  0  0  0  0  2  0  0  0  0  0  0
  188.8250  177.9680  140.8440 N   0  0  0  0  0  0  0  0  0  0  0  0
  185.6320  179.1860  140.5390 C   0  0  0  0  0  2  0  0  0  0  0  0
  183.4580  179.3590  139.3420 C   0  0  0  0  0  2  0  0  0  0  0  0
  179.5690  178.3670  138.0570 O   0  0  0  0  0  0  0  0  0  0  0  0
  179.3040  179.7200  136.1440 C   0  0  0  0  0  0  0  0  0  0  0  0
  179.2040  178.5310  136.7240 C   0  0  0  0  0  3  0  0  0  0  0  0
  178.9310  179.8700  134.7780 N   0  0  0  0  0  1  0  0  0  0  0  0
  179.7730  180.8120  136.8720 O   0  0  0  0  0  0  0  0  0  0  0  0
  181.0690  181.1500  136.8450 O   0  0  0  0  0  1  0  0  0  0  0  0
  189.6410  176.9740  141.5300 C   0  0  0  0  0  2  0  0  0  0  0  0
  189.9250  177.4210  142.9580 C   0  0  2  0  0  3  0  0  0  0  0  0
  191.6600  178.7860  143.8550 O   0  0  0  0  0  1  0  0  0  0  0  0
  191.4190  177.5880  143.1830 C   0  0  0  0  0  2  0  0  0  0  0  0
  189.2830  176.4920  143.9940 C   0  0  0  0  0  2  0  0  0  0  0  0
  187.2420  177.3050  144.9370 O   0  0  0  0  0  0  0  0  0  0  0  0
  188.4940  177.2300  145.0310 C   0  0  0  0  0  0  0  0  0  0  0  0
  189.1470  177.8550  146.0860 O   0  0  0  0  0  1  0  0  0  0  0  0
  181.9500  178.0780  140.9230 C   0  0  0  0  0  2  0  0  0  0  0  0
  181.0220  178.9570  141.7400 C   0  0  0  0  0  2  0  0  0  0  0  0
  179.9150  178.1370  142.3010 C   0  0  0  0  0  0  0  0  0  0  0  0
  179.5640  176.9350  141.6980 O   0  0  0  0  0  0  0  0  0  0  0  0
  179.3160  178.5170  143.3400 O   0  0  0  0  0  1  0  0  0  0  0  0
  1  6  1  6  0  0  0
  1  9  1  0  0  0  0
  1 19  1  0  0  0  0
  3 14  1  0  0  0  0
  4  5  2  0  0  0  0
  5 22  1  0  0  0  0
  7 13  2  0  0  0  0
  8 21  1  1  0  0  0
  8 23  1  0  0  0  0
  8  6  1  0  0  0  0
  9 31  1  6  0  0  0
 10 21  1  6  0  0  0
 10 16  1  0  0  0  0
 11 15  2  0  0  0  0
 13 27  1  0  0  0  0
 14  4  1  0  0  0  0
 15  9  1  0  0  0  0
 16 12  1  0  0  0  0
 17 12  1  6  0  0  0
 17 29  1  0  0  0  0
 18 13  1  0  0  0  0
 18  3  2  0  0  0  0
 19 45  1  1  0  0  0
 20  3  1  0  0  0  0
 20 10  1  0  0  0  0
 22 28  1  0  0  0  0
 23 11  1  0  0  0  0
 23  2  1  1  0  0  0
 24 22  2  0  0  0  0
 25 26  1  0  0  0  0
 27  4  1  0  0  0  0
 28 37  1  0  0  0  0
 28 26  1  0  0  0  0
 29 25  1  0  0  0  0
 30 19  1  0  0  0  0
 30 17  1  0  0  0  0
 32 33  2  0  0  0  0
 32 35  1  0  0  0  0
 33 31  1  0  0  0  0
 34 32  1  0  0  0  0
 36 35  1  0  0  0  0
 38 37  1  6  0  0  0
 38 40  1  0  0  0  0
 38 41  1  0  0  0  0
 40 39  1  0  0  0  0
 41 43  1  0  0  0  0
 42 43  2  0  0  0  0
 43 44  1  0  0  0  0
 45 46  1  0  0  0  0
 46 47  1  0  0  0  0
 47 49  1  0  0  0  0
 48 47  2  0  0  0  0
M  END
>  <MODEL>
2

>  <REMARK>
 VINA RESULT:      -6.8      2.206      3.365
  Name = 
  11 active torsions:
  status: ('A' for Active; 'I' for Inactive)
    1  A    between atoms: C_5  and  O_22
    2  A    between atoms: C_10  and  O_21
    3  A    between atoms: C_12  and  O_21
    4  A    between atoms: C_20  and  C_24
    5  A    between atoms: C_23  and  C_31
    6  A    between atoms: C_23  and  C_33
    7  A    between atoms: C_23  and  C_49
    8  A    between atoms: C_24  and  C_38
    9  A    between atoms: C_27  and  C_38
   10  A    between atoms: C_28  and  C_49
   11  A    between atoms: C_33  and  N_44
                            x       y       z     vdW  Elec       q    Type
                         _______ _______ _______ _____ _____    ______ ____

>  <TORSDO>
F 11

$$$$
=
 OpenBabel11062410593D

 49 52  0  0  1  0  0  0  0  0999 V2000
  188.7060  177.4070  140.2780 C   0  0  2  0  0  3  0  0  0  0  0  0
  187.1420  176.4140  142.4020 O   0  0  0  0  0  1  0  0  0  0  0  0
  183.1710  178.7610  142.5200 C   0  0  0  0  0  0  0  0  0  0  0  0
  181.3380  178.7840  140.7830 C   0  0  0  0  0  0  0  0  0  0  0  0
  180.9560  178.8580  139.5420 N   0  0  0  0  0  0  0  0  0  0  0  0
  188.5730  178.6970  140.8280 O   0  0  0  0  0  0  0  0  0  0  0  0
  180.0170  179.3130  144.1060 O   0  0  0  0  0  0  0  0  0  0  0  0
  188.0840  178.6620  142.1640 C   0  0  1  0  0  3  0  0  0  0  0  0
  190.0820  176.8280  140.6390 C   0  0  2  0  0  3  0  0  0  0  0  0
  185.5470  179.1170  141.7870 C   0  0  1  0  0  3  0  0  0  0  0  0
  189.3970  176.7080  143.1010 C   0  0  0  0  0  3  0  0  0  0  0  0
  185.4280  178.6570  139.6150 C   0  0  0  0  0  2  0  0  0  0  0  0
  180.8430  179.1240  143.1780 C   0  0  0  0  0  0  0  0  0  0  0  0
  182.7280  178.3340  141.1420 C   0  0  0  0  0  2  0  0  0  0  0  0
  190.2600  176.4790  142.1000 C   0  0  0  0  0  3  0  0  0  0  0  0
  185.7220  178.0920  140.8550 O   0  0  0  0  0  0  0  0  0  0  0  0
  186.0630  177.8210  138.5260 C   0  0  1  0  0  3  0  0  0  0  0  0
  182.2810  179.0510  143.4740 C   0  0  0  0  0  3  0  0  0  0  0  0
  188.5780  177.4580  138.7450 C   0  0  2  0  0  3  0  0  0  0  0  0
  184.6160  178.6520  142.9030 C   0  0  0  0  0  2  0  0  0  0  0  0
  186.8810  179.5870  142.3780 C   0  0  0  0  0  2  0  0  0  0  0  0
  181.8610  178.7130  138.4400 C   0  0  0  0  0  0  0  0  0  0  0  0
  188.0410  177.3310  142.9510 C   0  0  2  0  0  3  0  0  0  0  0  0
  182.7350  179.6020  138.2430 O   0  0  0  0  0  0  0  0  0  0  0  0
  184.1210  176.8310  137.3480 C   0  0  0  0  0  2  0  0  0  0  0  0
  182.8670  177.2940  136.6220 C   0  0  0  0  0  2  0  0  0  0  0  0
  180.3910  179.0150  141.8270 N   0  0  0  0  0  2  0  0  0  0  0  0
  181.8010  177.5620  137.5830 N   0  0  0  0  0  0  0  0  0  0  0  0
  185.2020  177.8930  137.2770 C   0  0  0  0  0  2  0  0  0  0  0  0
  187.4520  178.3650  138.2280 C   0  0  0  0  0  2  0  0  0  0  0  0
  191.1050  177.7270  140.2310 O   0  0  0  0  0  0  0  0  0  0  0  0
  193.3130  177.0770  139.7210 C   0  0  0  0  0  0  0  0  0  0  0  0
  192.4320  177.5310  140.6020 C   0  0  0  0  0  3  0  0  0  0  0  0
  194.6690  176.8880  140.1160 N   0  0  0  0  0  1  0  0  0  0  0  0
  192.9110  176.7900  138.4190 O   0  0  0  0  0  0  0  0  0  0  0  0
  193.8080  176.6890  137.4280 O   0  0  0  0  0  1  0  0  0  0  0  0
  180.7230  176.5880  137.7070 C   0  0  0  0  0  2  0  0  0  0  0  0
  181.2530  175.2910  138.3030 C   0  0  2  0  0  3  0  0  0  0  0  0
  181.5230  173.2210  137.1530 O   0  0  0  0  0  1  0  0  0  0  0  0
  180.5650  174.0900  137.6750 C   0  0  0  0  0  2  0  0  0  0  0  0
  181.1620  175.2770  139.8320 C   0  0  0  0  0  2  0  0  0  0  0  0
  178.9380  175.9800  140.3540 O   0  0  0  0  0  0  0  0  0  0  0  0
  179.7720  175.0380  140.3330 C   0  0  0  0  0  0  0  0  0  0  0  0
  179.4070  173.7810  140.7990 O   0  0  0  0  0  1  0  0  0  0  0  0
  188.4850  176.0540  138.1560 C   0  0  0  0  0  2  0  0  0  0  0  0
  189.1790  175.9980  136.8080 C   0  0  0  0  0  2  0  0  0  0  0  0
  190.2120  174.9280  136.8170 C   0  0  0  0  0  0  0  0  0  0  0  0
  190.7280  174.4670  138.0220 O   0  0  0  0  0  1  0  0  0  0  0  0
  190.5980  174.4200  135.7330 O   0  0  0  0  0  0  0  0  0  0  0  0
  1  9  1  0  0  0  0
  1  6  1  6  0  0  0
  3 20  1  0  0  0  0
  3 18  2  0  0  0  0
  4 14  1  0  0  0  0
  4 27  1  0  0  0  0
  5  4  2  0  0  0  0
  6  8  1  0  0  0  0
  8 21  1  6  0  0  0
  8 23  1  0  0  0  0
  9 31  1  1  0  0  0
  9 15  1  0  0  0  0
 10 21  1  1  0  0  0
 10 20  1  0  0  0  0
 12 16  1  0  0  0  0
 13 18  1  0  0  0  0
 13  7  2  0  0  0  0
 14  3  1  0  0  0  0
 15 11  2  0  0  0  0
 16 10  1  0  0  0  0
 17 29  1  6  0  0  0
 17 12  1  0  0  0  0
 19 45  1  1  0  0  0
 19  1  1  0  0  0  0
 22  5  1  0  0  0  0
 23  2  1  6  0  0  0
 23 11  1  0  0  0  0
 24 22  2  0  0  0  0
 26 25  1  0  0  0  0
 26 28  1  0  0  0  0
 27 13  1  0  0  0  0
 28 37  1  0  0  0  0
 28 22  1  0  0  0  0
 29 25  1  0  0  0  0
 30 17  1  0  0  0  0
 30 19  1  0  0  0  0
 31 33  1  0  0  0  0
 32 34  1  0  0  0  0
 32 33  2  0  0  0  0
 35 32  1  0  0  0  0
 36 35  1  0  0  0  0
 37 38  1  0  0  0  0
 38 40  1  6  0  0  0
 38 41  1  0  0  0  0
 39 40  1  0  0  0  0
 41 43  1  0  0  0  0
 43 42  2  0  0  0  0
 43 44  1  0  0  0  0
 46 47  1  0  0  0  0
 46 45  1  0  0  0  0
 47 48  1  0  0  0  0
 49 47  2  0  0  0  0
M  END
>  <MODEL>
3

>  <REMARK>
 VINA RESULT:      -5.9      2.825      9.714
  Name = 
  11 active torsions:
  status: ('A' for Active; 'I' for Inactive)
    1  A    between atoms: C_5  and  O_22
    2  A    between atoms: C_10  and  O_21
    3  A    between atoms: C_12  and  O_21
    4  A    between atoms: C_20  and  C_24
    5  A    between atoms: C_23  and  C_31
    6  A    between atoms: C_23  and  C_33
    7  A    between atoms: C_23  and  C_49
    8  A    between atoms: C_24  and  C_38
    9  A    between atoms: C_27  and  C_38
   10  A    between atoms: C_28  and  C_49
   11  A    between atoms: C_33  and  N_44
                            x       y       z     vdW  Elec       q    Type
                         _______ _______ _______ _____ _____    ______ ____

>  <TORSDO>
F 11

$$$$
=
 OpenBabel11062410593D

 49 52  0  0  1  0  0  0  0  0999 V2000
  183.7470  175.5540  137.0030 C   0  0  2  0  0  3  0  0  0  0  0  0
  185.1870  173.1520  137.3230 O   0  0  0  0  0  1  0  0  0  0  0  0
  189.6550  174.0070  136.5530 C   0  0  0  0  0  0  0  0  0  0  0  0
  191.2050  175.4690  137.9100 C   0  0  0  0  0  0  0  0  0  0  0  0
  191.4470  176.5780  138.5440 N   0  0  0  0  0  0  0  0  0  0  0  0
  184.3120  175.6810  135.7180 O   0  0  0  0  0  0  0  0  0  0  0  0
  192.9920  172.7500  136.3360 O   0  0  0  0  0  0  0  0  0  0  0  0
  184.9190  174.4720  135.2770 C   0  0  1  0  0  3  0  0  0  0  0  0
  182.3140  175.0170  136.8880 C   0  0  2  0  0  3  0  0  0  0  0  0
  187.4180  174.9160  135.8620 C   0  0  1  0  0  3  0  0  0  0  0  0
  183.2100  172.7700  136.0550 C   0  0  0  0  0  3  0  0  0  0  0  0
  187.1490  176.5990  137.2910 C   0  0  0  0  0  2  0  0  0  0  0  0
  192.0470  173.5080  136.6680 C   0  0  0  0  0  0  0  0  0  0  0  0
  189.7940  174.9950  137.6850 C   0  0  0  0  0  2  0  0  0  0  0  0
  182.2100  173.5750  136.4430 C   0  0  0  0  0  3  0  0  0  0  0  0
  186.8470  175.2530  137.0920 O   0  0  0  0  0  0  0  0  0  0  0  0
  186.1780  177.1830  138.2940 C   0  0  1  0  0  3  0  0  0  0  0  0
  190.6940  173.2710  136.1450 C   0  0  0  0  0  3  0  0  0  0  0  0
  183.7090  176.9190  137.7130 C   0  0  2  0  0  3  0  0  0  0  0  0
  188.2950  173.6770  136.0180 C   0  0  0  0  0  2  0  0  0  0  0  0
  186.3550  174.6760  134.7840 C   0  0  0  0  0  2  0  0  0  0  0  0
  190.4200  177.5120  138.8960 C   0  0  0  0  0  0  0  0  0  0  0  0
  184.6630  173.1440  136.0290 C   0  0  2  0  0  3  0  0  0  0  0  0
  189.8250  178.1450  137.9800 O   0  0  0  0  0  0  0  0  0  0  0  0
  187.6000  177.6650  140.2640 C   0  0  0  0  0  2  0  0  0  0  0  0
  188.8430  178.4730  140.6060 C   0  0  0  0  0  2  0  0  0  0  0  0
  192.2900  174.6240  137.5270 N   0  0  0  0  0  2  0  0  0  0  0  0
  190.0430  177.7130  140.2680 N   0  0  0  0  0  0  0  0  0  0  0  0
  186.8740  178.2780  139.0820 C   0  0  0  0  0  2  0  0  0  0  0  0
  184.9830  177.7600  137.5500 C   0  0  0  0  0  2  0  0  0  0  0  0
  181.5570  175.8460  136.0150 O   0  0  0  0  0  0  0  0  0  0  0  0
  180.0530  177.6500  135.8050 C   0  0  0  0  0  0  0  0  0  0  0  0
  180.4740  176.5880  136.4790 C   0  0  0  0  0  3  0  0  0  0  0  0
  178.9400  178.3950  136.2900 N   0  0  0  0  0  1  0  0  0  0  0  0
  180.6980  178.0280  134.6290 O   0  0  0  0  0  0  0  0  0  0  0  0
  181.8780  178.6630  134.6650 O   0  0  0  0  0  1  0  0  0  0  0  0
  190.7980  177.0960  141.3520 C   0  0  0  0  0  2  0  0  0  0  0  0
  190.4030  177.7150  142.6860 C   0  0  2  0  0  3  0  0  0  0  0  0
  191.0300  179.6350  143.9510 O   0  0  0  0  0  1  0  0  0  0  0  0
  191.5450  178.5420  143.2540 C   0  0  0  0  0  2  0  0  0  0  0  0
  189.8950  176.6680  143.6820 C   0  0  0  0  0  2  0  0  0  0  0  0
  187.5430  176.2940  143.4760 O   0  0  0  0  0  0  0  0  0  0  0  0
  188.4700  176.8880  144.0840 C   0  0  0  0  0  0  0  0  0  0  0  0
  188.1670  177.7690  145.1150 O   0  0  0  0  0  1  0  0  0  0  0  0
  183.3210  176.7620  139.1800 C   0  0  0  0  0  2  0  0  0  0  0  0
  183.0430  178.1180  139.8010 C   0  0  0  0  0  2  0  0  0  0  0  0
  181.7230  178.0980  140.4870 C   0  0  0  0  0  0  0  0  0  0  0  0
  181.3720  179.1260  141.3530 O   0  0  0  0  0  1  0  0  0  0  0  0
  180.9120  177.1640  140.2590 O   0  0  0  0  0  0  0  0  0  0  0  0
  1  6  1  6  0  0  0
  1 19  1  0  0  0  0
  3 14  1  0  0  0  0
  4  5  2  0  0  0  0
  5 22  1  0  0  0  0
  7 13  2  0  0  0  0
  8 21  1  1  0  0  0
  8  6  1  0  0  0  0
  8 23  1  0  0  0  0
  9 31  1  6  0  0  0
  9  1  1  0  0  0  0
 10 21  1  6  0  0  0
 10 20  1  0  0  0  0
 10 16  1  0  0  0  0
 11 15  2  0  0  0  0
 13 27  1  0  0  0  0
 14  4  1  0  0  0  0
 15  9  1  0  0  0  0
 16 12  1  0  0  0  0
 17 12  1  6  0  0  0
 17 29  1  0  0  0  0
 18  3  2  0  0  0  0
 18 13  1  0  0  0  0
 19 45  1  1  0  0  0
 20  3  1  0  0  0  0
 22 28  1  0  0  0  0
 23 11  1  0  0  0  0
 23  2  1  1  0  0  0
 24 22  2  0  0  0  0
 25 26  1  0  0  0  0
 27  4  1  0  0  0  0
 28 26  1  0  0  0  0
 28 37  1  0  0  0  0
 29 25  1  0  0  0  0
 30 19  1  0  0  0  0
 30 17  1  0  0  0  0
 31 33  1  0  0  0  0
 32 34  1  0  0  0  0
 32 33  2  0  0  0  0
 35 36  1  0  0  0  0
 35 32  1  0  0  0  0
 38 37  1  6  0  0  0
 38 40  1  0  0  0  0
 38 41  1  0  0  0  0
 40 39  1  0  0  0  0
 41 43  1  0  0  0  0
 42 43  2  0  0  0  0
 43 44  1  0  0  0  0
 45 46  1  0  0  0  0
 46 47  1  0  0  0  0
 47 48  1  0  0  0  0
 49 47  2  0  0  0  0
M  END
>  <MODEL>
4

>  <REMARK>
 VINA RESULT:      -5.6      2.335      3.463
  Name = 
  11 active torsions:
  status: ('A' for Active; 'I' for Inactive)
    1  A    between atoms: C_5  and  O_22
    2  A    between atoms: C_10  and  O_21
    3  A    between atoms: C_12  and  O_21
    4  A    between atoms: C_20  and  C_24
    5  A    between atoms: C_23  and  C_31
    6  A    between atoms: C_23  and  C_33
    7  A    between atoms: C_23  and  C_49
    8  A    between atoms: C_24  and  C_38
    9  A    between atoms: C_27  and  C_38
   10  A    between atoms: C_28  and  C_49
   11  A    between atoms: C_33  and  N_44
                            x       y       z     vdW  Elec       q    Type
                         _______ _______ _______ _____ _____    ______ ____

>  <TORSDO>
F 11

$$$$
=
 OpenBabel11062410593D

 49 52  0  0  1  0  0  0  0  0999 V2000
  182.0920  176.9350  137.5050 C   0  0  2  0  0  3  0  0  0  0  0  0
  184.0660  174.9550  137.1450 O   0  0  0  0  0  1  0  0  0  0  0  0
  188.1870  176.8070  138.0840 C   0  0  0  0  0  0  0  0  0  0  0  0
  189.0250  177.6660  140.3070 C   0  0  0  0  0  0  0  0  0  0  0  0
  188.8420  178.3530  141.3950 N   0  0  0  0  0  0  0  0  0  0  0  0
  182.8040  177.7590  136.6110 O   0  0  0  0  0  0  0  0  0  0  0  0
  191.7300  176.3870  138.2790 O   0  0  0  0  0  0  0  0  0  0  0  0
  183.7870  177.0330  135.8800 C   0  0  1  0  0  3  0  0  0  0  0  0
  180.9030  176.2890  136.7790 C   0  0  2  0  0  3  0  0  0  0  0  0
  185.9320  177.5490  137.2630 C   0  0  1  0  0  3  0  0  0  0  0  0
  182.5110  174.9100  135.3460 C   0  0  0  0  0  3  0  0  0  0  0  0
  184.9760  178.2610  139.1400 C   0  0  0  0  0  2  0  0  0  0  0  0
  190.5700  176.7200  138.6290 C   0  0  0  0  0  0  0  0  0  0  0  0
  187.8570  177.1320  139.5200 C   0  0  0  0  0  2  0  0  0  0  0  0
  181.2770  175.2480  135.7490 C   0  0  0  0  0  3  0  0  0  0  0  0
  185.0950  177.1500  138.3080 O   0  0  0  0  0  0  0  0  0  0  0  0
  183.7290  178.1160  139.9850 C   0  0  1  0  0  3  0  0  0  0  0  0
  189.4410  176.5440  137.7040 C   0  0  0  0  0  3  0  0  0  0  0  0
  181.5610  177.7590  138.6910 C   0  0  2  0  0  3  0  0  0  0  0  0
  187.0790  176.5550  137.1070 C   0  0  0  0  0  2  0  0  0  0  0  0
  185.1720  177.6860  135.9400 C   0  0  0  0  0  2  0  0  0  0  0  0
  187.5530  178.8160  141.8160 C   0  0  0  0  0  0  0  0  0  0  0  0
  183.7870  175.4860  135.8850 C   0  0  2  0  0  3  0  0  0  0  0  0
  186.9670  179.7030  141.1350 O   0  0  0  0  0  0  0  0  0  0  0  0
  184.6140  177.8170  142.2790 C   0  0  0  0  0  2  0  0  0  0  0  0
  185.5110  178.5530  143.2630 C   0  0  0  0  0  2  0  0  0  0  0  0
  190.3490  177.3050  139.9140 N   0  0  0  0  0  2  0  0  0  0  0  0
  186.9130  178.2640  142.9780 N   0  0  0  0  0  0  0  0  0  0  0  0
  183.9540  178.7930  141.3250 C   0  0  0  0  0  2  0  0  0  0  0  0
  182.5610  178.7730  139.2640 C   0  0  0  0  0  2  0  0  0  0  0  0
  180.1020  177.2970  136.1760 O   0  0  0  0  0  0  0  0  0  0  0  0
  180.1750  179.5260  135.4100 C   0  0  0  0  0  0  0  0  0  0  0  0
  180.6660  178.2950  135.3860 C   0  0  0  0  0  3  0  0  0  0  0  0
  180.7680  180.5370  134.5990 N   0  0  0  0  0  1  0  0  0  0  0  0
  179.0860  179.8250  136.2270 O   0  0  0  0  0  0  0  0  0  0  0  0
  179.2620  180.1510  137.5150 O   0  0  0  0  0  1  0  0  0  0  0  0
  187.6190  177.3350  143.8530 C   0  0  0  0  0  2  0  0  0  0  0  0
  187.6290  177.8640  145.2810 C   0  0  2  0  0  3  0  0  0  0  0  0
  188.9320  178.0350  147.2690 O   0  0  0  0  0  1  0  0  0  0  0  0
  188.9510  177.5490  145.9620 C   0  0  0  0  0  2  0  0  0  0  0  0
  186.4270  177.3670  146.0910 C   0  0  0  0  0  2  0  0  0  0  0  0
  184.3840  178.2490  146.9620 O   0  0  0  0  0  1  0  0  0  0  0  0
  185.5660  178.4800  146.6010 C   0  0  0  0  0  0  0  0  0  0  0  0
  186.0650  179.7760  146.6550 O   0  0  0  0  0  0  0  0  0  0  0  0
  180.9930  176.8510  139.7780 C   0  0  0  0  0  2  0  0  0  0  0  0
  179.5840  177.2780  140.1420 C   0  0  0  0  0  2  0  0  0  0  0  0
  179.6230  178.1980  141.3100 C   0  0  0  0  0  0  0  0  0  0  0  0
  179.6660  179.5730  141.1140 O   0  0  0  0  0  0  0  0  0  0  0  0
  179.5860  177.7310  142.4780 O   0  0  0  0  0  1  0  0  0  0  0  0
  1  6  1  6  0  0  0
  1 19  1  0  0  0  0
  3 14  1  0  0  0  0
  4  5  2  0  0  0  0
  5 22  1  0  0  0  0
  7 13  2  0  0  0  0
  8 23  1  0  0  0  0
  8 21  1  1  0  0  0
  8  6  1  0  0  0  0
  9 31  1  6  0  0  0
  9  1  1  0  0  0  0
 10 21  1  6  0  0  0
 10 16  1  0  0  0  0
 11 15  2  0  0  0  0
 11 23  1  0  0  0  0
 13 27  1  0  0  0  0
 14  4  1  0  0  0  0
 15  9  1  0  0  0  0
 16 12  1  0  0  0  0
 17 12  1  6  0  0  0
 17 29  1  0  0  0  0
 18  3  2  0  0  0  0
 18 13  1  0  0  0  0
 19 30  1  0  0  0  0
 19 45  1  1  0  0  0
 20 10  1  0  0  0  0
 20  3  1  0  0  0  0
 22 28  1  0  0  0  0
 23  2  1  1  0  0  0
 24 22  2  0  0  0  0
 25 26  1  0  0  0  0
 27  4  1  0  0  0  0
 28 26  1  0  0  0  0
 28 37  1  0  0  0  0
 29 25  1  0  0  0  0
 30 17  1  0  0  0  0
 32 35  1  0  0  0  0
 33 32  2  0  0  0  0
 33 31  1  0  0  0  0
 34 32  1  0  0  0  0
 35 36  1  0  0  0  0
 38 37  1  6  0  0  0
 38 40  1  0  0  0  0
 38 41  1  0  0  0  0
 40 39  1  0  0  0  0
 41 43  1  0  0  0  0
 43 44  2  0  0  0  0
 43 42  1  0  0  0  0
 45 46  1  0  0  0  0
 46 47  1  0  0  0  0
 47 49  1  0  0  0  0
 48 47  2  0  0  0  0
M  END
>  <MODEL>
5

>  <REMARK>
 VINA RESULT:      -5.5      1.943      2.666
  Name = 
  11 active torsions:
  status: ('A' for Active; 'I' for Inactive)
    1  A    between atoms: C_5  and  O_22
    2  A    between atoms: C_10  and  O_21
    3  A    between atoms: C_12  and  O_21
    4  A    between atoms: C_20  and  C_24
    5  A    between atoms: C_23  and  C_31
    6  A    between atoms: C_23  and  C_33
    7  A    between atoms: C_23  and  C_49
    8  A    between atoms: C_24  and  C_38
    9  A    between atoms: C_27  and  C_38
   10  A    between atoms: C_28  and  C_49
   11  A    between atoms: C_33  and  N_44
                            x       y       z     vdW  Elec       q    Type
                         _______ _______ _______ _____ _____    ______ ____

>  <TORSDO>
F 11

$$$$
=
 OpenBabel11062410593D

 49 52  0  0  1  0  0  0  0  0999 V2000
  189.0350  177.7810  144.6040 C   0  0  2  0  0  3  0  0  0  0  0  0
  190.3410  179.2850  142.6100 O   0  0  0  0  0  1  0  0  0  0  0  0
  188.7490  177.9520  138.4900 C   0  0  0  0  0  0  0  0  0  0  0  0
  186.4070  178.2150  137.5800 C   0  0  0  0  0  0  0  0  0  0  0  0
  185.1190  178.1290  137.7310 N   0  0  0  0  0  0  0  0  0  0  0  0
  189.4520  176.6080  143.9440 O   0  0  0  0  0  0  0  0  0  0  0  0
  188.8700  178.2890  134.9350 O   0  0  0  0  0  0  0  0  0  0  0  0
  190.4650  176.8670  142.9790 C   0  0  1  0  0  3  0  0  0  0  0  0
  189.9480  178.0490  145.8100 C   0  0  2  0  0  3  0  0  0  0  0  0
  189.0600  176.9900  140.7890 C   0  0  1  0  0  3  0  0  0  0  0  0
  191.9050  178.5310  144.2360 C   0  0  0  0  0  3  0  0  0  0  0  0
  187.0450  177.2830  141.6820 C   0  0  0  0  0  2  0  0  0  0  0  0
  188.3730  178.2010  136.0860 C   0  0  0  0  0  0  0  0  0  0  0  0
  187.3210  178.3550  138.7680 C   0  0  0  0  0  2  0  0  0  0  0  0
  191.3580  178.4670  145.4580 C   0  0  0  0  0  3  0  0  0  0  0  0
  188.3070  177.8650  141.5760 O   0  0  0  0  0  0  0  0  0  0  0  0
  186.3360  177.8530  142.8920 C   0  0  1  0  0  3  0  0  0  0  0  0
  189.2410  177.9600  137.2470 C   0  0  0  0  0  3  0  0  0  0  0  0
  187.5870  177.6340  145.1030 C   0  0  2  0  0  3  0  0  0  0  0  0
  189.6980  177.7520  139.6310 C   0  0  0  0  0  2  0  0  0  0  0  0
  190.1400  176.2720  141.6050 C   0  0  0  0  0  2  0  0  0  0  0  0
  184.4950  177.9660  139.0110 C   0  0  0  0  0  0  0  0  0  0  0  0
  191.1930  178.2320  142.9500 C   0  0  2  0  0  3  0  0  0  0  0  0
  184.6590  176.8840  139.6400 O   0  0  0  0  0  0  0  0  0  0  0  0
  184.4810  179.1690  141.9090 C   0  0  0  0  0  2  0  0  0  0  0  0
  183.2900  178.9530  140.9870 C   0  0  0  0  0  2  0  0  0  0  0  0
  186.9590  178.3000  136.2650 N   0  0  0  0  0  2  0  0  0  0  0  0
  183.7160  179.0240  139.5920 N   0  0  0  0  0  0  0  0  0  0  0  0
  184.8410  177.8810  142.6250 C   0  0  0  0  0  2  0  0  0  0  0  0
  186.6290  176.9760  144.0990 C   0  0  0  0  0  2  0  0  0  0  0  0
  189.9810  176.9050  146.6530 O   0  0  0  0  0  0  0  0  0  0  0  0
  192.0630  175.8760  147.0630 C   0  0  0  0  0  0  0  0  0  0  0  0
  191.0690  176.6470  147.4830 C   0  0  0  0  0  3  0  0  0  0  0  0
  193.1710  175.6280  147.9230 N   0  0  0  0  0  1  0  0  0  0  0  0
  192.0190  175.3170  145.7880 O   0  0  0  0  0  0  0  0  0  0  0  0
  192.6940  174.1950  145.5060 O   0  0  0  0  0  1  0  0  0  0  0  0
  183.4030  180.2300  138.8350 C   0  0  0  0  0  2  0  0  0  0  0  0
  181.9120  180.2870  138.5310 C   0  0  2  0  0  3  0  0  0  0  0  0
  180.7500  180.1000  136.4580 O   0  0  0  0  0  1  0  0  0  0  0  0
  181.5710  179.4010  137.3440 C   0  0  0  0  0  2  0  0  0  0  0  0
  181.4150  181.7240  138.3440 C   0  0  0  0  0  2  0  0  0  0  0  0
  179.7930  181.2700  140.0390 O   0  0  0  0  0  1  0  0  0  0  0  0
  180.1390  182.0010  139.0770 C   0  0  0  0  0  0  0  0  0  0  0  0
  179.3230  183.0530  138.6780 O   0  0  0  0  0  0  0  0  0  0  0  0
  187.0440  178.9660  145.6090 C   0  0  0  0  0  2  0  0  0  0  0  0
  186.3130  178.7750  146.9240 C   0  0  0  0  0  2  0  0  0  0  0  0
  184.8540  178.6280  146.6730 C   0  0  0  0  0  0  0  0  0  0  0  0
  184.2400  179.3750  145.6750 O   0  0  0  0  0  0  0  0  0  0  0  0
  184.1810  177.8050  147.3460 O   0  0  0  0  0  1  0  0  0  0  0  0
  1  6  1  1  0  0  0
  1 19  1  0  0  0  0
  1  9  1  0  0  0  0
  3 14  1  0  0  0  0
  3 20  1  0  0  0  0
  4  5  2  0  0  0  0
  4 14  1  0  0  0  0
  5 22  1  0  0  0  0
  7 13  2  0  0  0  0
  8 21  1  6  0  0  0
  8  6  1  0  0  0  0
  9 31  1  6  0  0  0
 10 20  1  6  0  0  0
 10 16  1  0  0  0  0
 10 21  1  0  0  0  0
 11 15  2  0  0  0  0
 13 27  1  0  0  0  0
 13 18  1  0  0  0  0
 15  9  1  0  0  0  0
 16 12  1  0  0  0  0
 17 12  1  6  0  0  0
 17 30  1  0  0  0  0
 18  3  2  0  0  0  0
 19 45  1  6  0  0  0
 22 28  1  0  0  0  0
 22 24  2  0  0  0  0
 23  2  1  1  0  0  0
 23  8  1  0  0  0  0
 23 11  1  0  0  0  0
 25 29  1  0  0  0  0
 26 25  1  0  0  0  0
 27  4  1  0  0  0  0
 28 26  1  0  0  0  0
 29 17  1  0  0  0  0
 30 19  1  0  0  0  0
 31 33  1  0  0  0  0
 32 33  2  0  0  0  0
 32 34  1  0  0  0  0
 35 32  1  0  0  0  0
 36 35  1  0  0  0  0
 37 28  1  0  0  0  0
 38 40  1  6  0  0  0
 38 37  1  0  0  0  0
 39 40  1  0  0  0  0
 41 38  1  0  0  0  0
 41 43  1  0  0  0  0
 43 42  1  0  0  0  0
 44 43  2  0  0  0  0
 45 46  1  0  0  0  0
 47 46  1  0  0  0  0
 47 49  1  0  0  0  0
 48 47  2  0  0  0  0
M  END
>  <MODEL>
6

>  <REMARK>
 VINA RESULT:      -5.4      2.743      9.234
  Name = 
  11 active torsions:
  status: ('A' for Active; 'I' for Inactive)
    1  A    between atoms: C_5  and  O_22
    2  A    between atoms: C_10  and  O_21
    3  A    between atoms: C_12  and  O_21
    4  A    between atoms: C_20  and  C_24
    5  A    between atoms: C_23  and  C_31
    6  A    between atoms: C_23  and  C_33
    7  A    between atoms: C_23  and  C_49
    8  A    between atoms: C_24  and  C_38
    9  A    between atoms: C_27  and  C_38
   10  A    between atoms: C_28  and  C_49
   11  A    between atoms: C_33  and  N_44
                            x       y       z     vdW  Elec       q    Type
                         _______ _______ _______ _____ _____    ______ ____

>  <TORSDO>
F 11

$$$$
=
 OpenBabel11062410593D

 49 52  0  0  1  0  0  0  0  0999 V2000
  188.1670  177.6680  144.8440 C   0  0  2  0  0  3  0  0  0  0  0  0
  185.6280  176.5600  145.3650 O   0  0  0  0  0  1  0  0  0  0  0  0
  182.4710  178.9580  143.0040 C   0  0  0  0  0  0  0  0  0  0  0  0
  182.2170  179.1280  140.4970 C   0  0  0  0  0  0  0  0  0  0  0  0
  182.7350  179.2910  139.3160 N   0  0  0  0  0  0  0  0  0  0  0  0
  187.6670  178.9200  145.2520 O   0  0  0  0  0  0  0  0  0  0  0  0
  179.0310  179.4530  142.1740 O   0  0  0  0  0  0  0  0  0  0  0  0
  186.4260  178.8040  145.9390 C   0  0  1  0  0  3  0  0  0  0  0  0
  188.9910  177.0440  145.9800 C   0  0  2  0  0  3  0  0  0  0  0  0
  184.7370  179.3240  144.0250 C   0  0  1  0  0  3  0  0  0  0  0  0
  186.8700  176.7700  147.3830 C   0  0  0  0  0  3  0  0  0  0  0  0
  186.0790  179.0120  142.2790 C   0  0  0  0  0  2  0  0  0  0  0  0
  180.2690  179.3130  142.0020 C   0  0  0  0  0  0  0  0  0  0  0  0
  183.0490  178.6310  141.6490 C   0  0  0  0  0  2  0  0  0  0  0  0
  188.1840  176.5940  147.1770 C   0  0  0  0  0  3  0  0  0  0  0  0
  185.5100  178.3610  143.3730 O   0  0  0  0  0  0  0  0  0  0  0  0
  187.2970  178.2410  141.8210 C   0  0  1  0  0  3  0  0  0  0  0  0
  181.1660  179.1970  143.1600 C   0  0  0  0  0  3  0  0  0  0  0  0
  189.0690  177.8240  143.6070 C   0  0  2  0  0  3  0  0  0  0  0  0
  183.3180  178.8000  144.2300 C   0  0  0  0  0  2  0  0  0  0  0  0
  185.3460  179.7310  145.3710 C   0  0  0  0  0  2  0  0  0  0  0  0
  184.1440  179.2060  139.0660 C   0  0  0  0  0  0  0  0  0  0  0  0
  185.9220  177.4230  146.4220 C   0  0  2  0  0  3  0  0  0  0  0  0
  184.9060  180.0910  139.5440 O   0  0  0  0  0  0  0  0  0  0  0  0
  186.6280  177.3640  139.6030 C   0  0  0  0  0  2  0  0  0  0  0  0
  186.1370  177.8960  138.2650 C   0  0  0  0  0  2  0  0  0  0  0  0
  180.8110  179.3030  140.6810 N   0  0  0  0  0  2  0  0  0  0  0  0
  184.6950  178.1160  138.3100 N   0  0  0  0  0  0  0  0  0  0  0  0
  187.4590  178.4110  140.3210 C   0  0  0  0  0  2  0  0  0  0  0  0
  188.5260  178.7820  142.5370 C   0  0  0  0  0  2  0  0  0  0  0  0
  190.0040  177.9510  146.3960 O   0  0  0  0  0  0  0  0  0  0  0  0
  191.8090  176.6460  147.1690 C   0  0  0  0  0  0  0  0  0  0  0  0
  190.9230  177.6090  147.3840 C   0  0  0  0  0  3  0  0  0  0  0  0
  192.7460  176.3120  148.1890 N   0  0  0  0  0  1  0  0  0  0  0  0
  191.8200  175.9690  145.9510 O   0  0  0  0  0  0  0  0  0  0  0  0
  192.4270  174.7810  145.8300 O   0  0  0  0  0  1  0  0  0  0  0  0
  183.8280  177.1540  137.6390 C   0  0  0  0  0  2  0  0  0  0  0  0
  184.6460  176.2720  136.7050 C   0  0  2  0  0  3  0  0  0  0  0  0
  185.4570  177.4670  134.8090 O   0  0  0  0  0  1  0  0  0  0  0  0
  184.4100  176.6610  135.2550 C   0  0  0  0  0  2  0  0  0  0  0  0
  184.4000  174.7810  136.9530 C   0  0  0  0  0  2  0  0  0  0  0  0
  185.6060  172.8860  137.7700 O   0  0  0  0  0  1  0  0  0  0  0  0
  185.6590  174.0180  137.2240 C   0  0  0  0  0  0  0  0  0  0  0  0
  186.8910  174.5700  136.8950 O   0  0  0  0  0  0  0  0  0  0  0  0
  189.4280  176.4640  143.0160 C   0  0  0  0  0  2  0  0  0  0  0  0
  190.9050  176.4090  142.6750 C   0  0  0  0  0  2  0  0  0  0  0  0
  191.1120  176.8290  141.2630 C   0  0  0  0  0  0  0  0  0  0  0  0
  190.2550  176.3750  140.2680 O   0  0  0  0  0  0  0  0  0  0  0  0
  192.0470  177.6200  140.9740 O   0  0  0  0  0  1  0  0  0  0  0  0
  1  6  1  1  0  0  0
  1  9  1  0  0  0  0
  3 18  2  0  0  0  0
  3 20  1  0  0  0  0
  4 27  1  0  0  0  0
  4 14  1  0  0  0  0
  5  4  2  0  0  0  0
  6  8  1  0  0  0  0
  8 21  1  6  0  0  0
  8 23  1  0  0  0  0
  9 31  1  1  0  0  0
  9 15  1  0  0  0  0
 10 20  1  1  0  0  0
 10 21  1  0  0  0  0
 12 16  1  0  0  0  0
 13  7  2  0  0  0  0
 13 18  1  0  0  0  0
 14  3  1  0  0  0  0
 15 11  2  0  0  0  0
 16 10  1  0  0  0  0
 17 29  1  6  0  0  0
 17 12  1  0  0  0  0
 17 30  1  0  0  0  0
 19 45  1  6  0  0  0
 19  1  1  0  0  0  0
 22  5  1  0  0  0  0
 22 24  2  0  0  0  0
 23  2  1  6  0  0  0
 23 11  1  0  0  0  0
 25 29  1  0  0  0  0
 26 28  1  0  0  0  0
 26 25  1  0  0  0  0
 27 13  1  0  0  0  0
 28 22  1  0  0  0  0
 30 19  1  0  0  0  0
 31 33  1  0  0  0  0
 32 33  2  0  0  0  0
 32 34  1  0  0  0  0
 35 32  1  0  0  0  0
 36 35  1  0  0  0  0
 37 28  1  0  0  0  0
 38 40  1  6  0  0  0
 38 41  1  0  0  0  0
 38 37  1  0  0  0  0
 39 40  1  0  0  0  0
 41 43  1  0  0  0  0
 43 42  1  0  0  0  0
 44 43  2  0  0  0  0
 46 45  1  0  0  0  0
 47 46  1  0  0  0  0
 48 47  2  0  0  0  0
 49 47  1  0  0  0  0
M  END
>  <MODEL>
7

>  <REMARK>
 VINA RESULT:      -5.3      2.676     10.223
  Name = 
  11 active torsions:
  status: ('A' for Active; 'I' for Inactive)
    1  A    between atoms: C_5  and  O_22
    2  A    between atoms: C_10  and  O_21
    3  A    between atoms: C_12  and  O_21
    4  A    between atoms: C_20  and  C_24
    5  A    between atoms: C_23  and  C_31
    6  A    between atoms: C_23  and  C_33
    7  A    between atoms: C_23  and  C_49
    8  A    between atoms: C_24  and  C_38
    9  A    between atoms: C_27  and  C_38
   10  A    between atoms: C_28  and  C_49
   11  A    between atoms: C_33  and  N_44
                            x       y       z     vdW  Elec       q    Type
                         _______ _______ _______ _____ _____    ______ ____

>  <TORSDO>
F 11

$$$$
=
 OpenBabel11062410593D

 49 52  0  0  1  0  0  0  0  0999 V2000
  181.4390  177.8380  140.2160 C   0  0  2  0  0  3  0  0  0  0  0  0
  182.0920  175.2100  139.4330 O   0  0  0  0  0  1  0  0  0  0  0  0
  185.7790  175.3780  136.6650 C   0  0  0  0  0  0  0  0  0  0  0  0
  188.1240  176.1060  137.2570 C   0  0  0  0  0  0  0  0  0  0  0  0
  188.9380  176.9390  137.8350 N   0  0  0  0  0  0  0  0  0  0  0  0
  181.3820  178.1930  138.8530 O   0  0  0  0  0  0  0  0  0  0  0  0
  188.1350  173.6160  134.6360 O   0  0  0  0  0  0  0  0  0  0  0  0
  181.3430  177.0520  138.0030 C   0  0  1  0  0  3  0  0  0  0  0  0
  180.0170  177.6310  140.7580 C   0  0  2  0  0  3  0  0  0  0  0  0
  183.8480  176.8440  137.3180 C   0  0  1  0  0  3  0  0  0  0  0  0
  179.7440  175.5600  139.2820 C   0  0  0  0  0  3  0  0  0  0  0  0
  184.7520  178.1060  138.9110 C   0  0  0  0  0  2  0  0  0  0  0  0
  187.7060  174.4230  135.4990 C   0  0  0  0  0  0  0  0  0  0  0  0
  186.6910  175.9840  137.7030 C   0  0  0  0  0  2  0  0  0  0  0  0
  179.3070  176.4060  140.2260 C   0  0  0  0  0  3  0  0  0  0  0  0
  184.0120  176.9430  138.7020 O   0  0  0  0  0  0  0  0  0  0  0  0
  184.5490  178.5740  140.3360 C   0  0  1  0  0  3  0  0  0  0  0  0
  186.2590  174.5940  135.6940 C   0  0  0  0  0  3  0  0  0  0  0  0
  182.1240  178.9460  141.0340 C   0  0  2  0  0  3  0  0  0  0  0  0
  184.2940  175.4660  136.8400 C   0  0  0  0  0  2  0  0  0  0  0  0
  182.3980  177.1050  136.8930 C   0  0  0  0  0  2  0  0  0  0  0  0
  188.5010  177.9240  138.7800 C   0  0  0  0  0  0  0  0  0  0  0  0
  181.0700  175.6460  138.5870 C   0  0  2  0  0  3  0  0  0  0  0  0
  187.7760  178.8770  138.3820 O   0  0  0  0  0  0  0  0  0  0  0  0
  186.7700  178.2380  141.3790 C   0  0  0  0  0  2  0  0  0  0  0  0
  188.2120  178.6750  141.1640 C   0  0  0  0  0  2  0  0  0  0  0  0
  188.6230  175.2030  136.2690 N   0  0  0  0  0  2  0  0  0  0  0  0
  188.8530  177.8200  140.1690 N   0  0  0  0  0  0  0  0  0  0  0  0
  185.8100  179.2680  140.8160 C   0  0  0  0  0  2  0  0  0  0  0  0
  183.3770  179.5430  140.3770 C   0  0  0  0  0  2  0  0  0  0  0  0
  179.2330  178.7900  140.5060 O   0  0  0  0  0  0  0  0  0  0  0  0
  179.0190  180.6520  139.0750 C   0  0  0  0  0  0  0  0  0  0  0  0
  179.1430  179.3410  139.2300 C   0  0  0  0  0  3  0  0  0  0  0  0
  178.9340  181.2000  137.7630 N   0  0  0  0  0  1  0  0  0  0  0  0
  178.9740  181.4840  140.1920 O   0  0  0  0  0  0  0  0  0  0  0  0
  179.8830  181.3720  141.1690 O   0  0  0  0  0  1  0  0  0  0  0  0
  189.7920  176.8050  140.6320 C   0  0  0  0  0  2  0  0  0  0  0  0
  190.5220  177.2940  141.8760 C   0  0  2  0  0  3  0  0  0  0  0  0
  192.6230  177.3190  140.7530 O   0  0  0  0  0  1  0  0  0  0  0  0
  191.7460  178.1100  141.4960 C   0  0  0  0  0  2  0  0  0  0  0  0
  190.8630  176.1480  142.8340 C   0  0  0  0  0  2  0  0  0  0  0  0
  191.4320  177.8450  144.4180 O   0  0  0  0  0  0  0  0  0  0  0  0
  191.4550  176.6220  144.1250 C   0  0  0  0  0  0  0  0  0  0  0  0
  192.0510  175.7140  144.9910 O   0  0  0  0  0  1  0  0  0  0  0  0
  182.4030  178.4810  142.4600 C   0  0  0  0  0  2  0  0  0  0  0  0
  182.7810  179.6600  143.3360 C   0  0  0  0  0  2  0  0  0  0  0  0
  183.9010  179.2790  144.2380 C   0  0  0  0  0  0  0  0  0  0  0  0
  183.8100  178.1300  145.0150 O   0  0  0  0  0  1  0  0  0  0  0  0
  184.9430  179.9820  144.2770 O   0  0  0  0  0  0  0  0  0  0  0  0
  1  6  1  6  0  0  0
  1  9  1  0  0  0  0
  1 19  1  0  0  0  0
  3 20  1  0  0  0  0
  3 14  1  0  0  0  0
  4 14  1  0  0  0  0
  4  5  2  0  0  0  0
  5 22  1  0  0  0  0
  7 13  2  0  0  0  0
  8 21  1  1  0  0  0
  8 23  1  0  0  0  0
  8  6  1  0  0  0  0
  9 31  1  6  0  0  0
 10 20  1  1  0  0  0
 10 16  1  0  0  0  0
 11 15  2  0  0  0  0
 13 18  1  0  0  0  0
 13 27  1  0  0  0  0
 15  9  1  0  0  0  0
 16 12  1  0  0  0  0
 17 12  1  6  0  0  0
 17 30  1  0  0  0  0
 17 29  1  0  0  0  0
 18  3  2  0  0  0  0
 19 45  1  1  0  0  0
 21 10  1  0  0  0  0
 22 28  1  0  0  0  0
 23 11  1  0  0  0  0
 23  2  1  1  0  0  0
 24 22  2  0  0  0  0
 26 25  1  0  0  0  0
 27  4  1  0  0  0  0
 28 37  1  0  0  0  0
 28 26  1  0  0  0  0
 29 25  1  0  0  0  0
 30 19  1  0  0  0  0
 32 33  2  0  0  0  0
 32 35  1  0  0  0  0
 33 31  1  0  0  0  0
 34 32  1  0  0  0  0
 35 36  1  0  0  0  0
 38 37  1  6  0  0  0
 38 41  1  0  0  0  0
 39 40  1  0  0  0  0
 40 38  1  0  0  0  0
 41 43  1  0  0  0  0
 43 42  2  0  0  0  0
 43 44  1  0  0  0  0
 45 46  1  0  0  0  0
 46 47  1  0  0  0  0
 47 49  2  0  0  0  0
 47 48  1  0  0  0  0
M  END
>  <MODEL>
8

>  <REMARK>
 VINA RESULT:      -4.5      2.384      4.572
  Name = 
  11 active torsions:
  status: ('A' for Active; 'I' for Inactive)
    1  A    between atoms: C_5  and  O_22
    2  A    between atoms: C_10  and  O_21
    3  A    between atoms: C_12  and  O_21
    4  A    between atoms: C_20  and  C_24
    5  A    between atoms: C_23  and  C_31
    6  A    between atoms: C_23  and  C_33
    7  A    between atoms: C_23  and  C_49
    8  A    between atoms: C_24  and  C_38
    9  A    between atoms: C_27  and  C_38
   10  A    between atoms: C_28  and  C_49
   11  A    between atoms: C_33  and  N_44
                            x       y       z     vdW  Elec       q    Type
                         _______ _______ _______ _____ _____    ______ ____

>  <TORSDO>
F 11

$$$$
=
 OpenBabel11062410593D

 49 52  0  0  1  0  0  0  0  0999 V2000
  189.9580  176.2250  137.0140 C   0  0  2  0  0  3  0  0  0  0  0  0
  188.6810  176.3920  139.5200 O   0  0  0  0  0  1  0  0  0  0  0  0
  184.6000  178.4690  138.9490 C   0  0  0  0  0  0  0  0  0  0  0  0
  182.6050  177.6240  137.6510 C   0  0  0  0  0  0  0  0  0  0  0  0
  182.0980  177.0770  136.5860 N   0  0  0  0  0  0  0  0  0  0  0  0
  189.8000  177.6180  136.8780 O   0  0  0  0  0  0  0  0  0  0  0  0
  181.5910  179.7070  140.4260 O   0  0  0  0  0  0  0  0  0  0  0  0
  189.4490  178.2400  138.1090 C   0  0  1  0  0  3  0  0  0  0  0  0
  191.3970  175.9070  137.4460 C   0  0  2  0  0  3  0  0  0  0  0  0
  186.8630  178.4350  137.8610 C   0  0  1  0  0  3  0  0  0  0  0  0
  190.9700  177.0060  139.7160 C   0  0  0  0  0  3  0  0  0  0  0  0
  186.5580  176.9670  136.2190 C   0  0  0  0  0  2  0  0  0  0  0  0
  182.3310  179.0920  139.6170 C   0  0  0  0  0  0  0  0  0  0  0  0
  184.0500  177.4170  138.0170 C   0  0  0  0  0  2  0  0  0  0  0  0
  191.7420  176.3200  138.8590 C   0  0  0  0  0  3  0  0  0  0  0  0
  187.0090  177.0850  137.5330 O   0  0  0  0  0  0  0  0  0  0  0  0
  187.1330  175.7080  135.6080 C   0  0  1  0  0  3  0  0  0  0  0  0
  183.7930  179.1830  139.7400 C   0  0  0  0  0  3  0  0  0  0  0  0
  189.6760  175.5160  135.6780 C   0  0  2  0  0  3  0  0  0  0  0  0
  186.0790  178.5700  139.1630 C   0  0  0  0  0  2  0  0  0  0  0  0
  188.2170  179.1430  137.9870 C   0  0  0  0  0  2  0  0  0  0  0  0
  182.8950  176.4160  135.5960 C   0  0  0  0  0  0  0  0  0  0  0  0
  189.5690  177.4660  139.4430 C   0  0  2  0  0  3  0  0  0  0  0  0
  183.6870  177.1000  134.8900 O   0  0  0  0  0  0  0  0  0  0  0  0
  185.1510  174.2550  135.2990 C   0  0  0  0  0  2  0  0  0  0  0  0
  183.8040  174.2950  134.5940 C   0  0  0  0  0  2  0  0  0  0  0  0
  181.7540  178.3310  138.5540 N   0  0  0  0  0  2  0  0  0  0  0  0
  182.8240  174.9920  135.4210 N   0  0  0  0  0  0  0  0  0  0  0  0
  186.1500  175.1520  134.5940 C   0  0  0  0  0  2  0  0  0  0  0  0
  188.4480  176.0460  134.9210 C   0  0  0  0  0  2  0  0  0  0  0  0
  192.3150  176.4960  136.5340 O   0  0  0  0  0  0  0  0  0  0  0  0
  194.2370  175.4600  135.6440 C   0  0  0  0  0  0  0  0  0  0  0  0
  192.9450  175.7400  135.5490 C   0  0  0  0  0  3  0  0  0  0  0  0
  194.8650  174.6800  134.6300 N   0  0  0  0  0  1  0  0  0  0  0  0
  194.9720  175.9260  136.7320 O   0  0  0  0  0  0  0  0  0  0  0  0
  194.8830  175.3300  137.9290 O   0  0  0  0  0  1  0  0  0  0  0  0
  181.8270  174.1980  136.1300 C   0  0  0  0  0  2  0  0  0  0  0  0
  181.7050  172.8200  135.4930 C   0  0  2  0  0  3  0  0  0  0  0  0
  179.3230  172.7620  135.5650 O   0  0  0  0  0  1  0  0  0  0  0  0
  180.4140  172.7080  134.6970 C   0  0  0  0  0  2  0  0  0  0  0  0
  181.8520  171.6930  136.5190 C   0  0  0  0  0  2  0  0  0  0  0  0
  183.5740  170.0660  136.8390 O   0  0  0  0  0  1  0  0  0  0  0  0
  182.7450  170.5870  136.0490 C   0  0  0  0  0  0  0  0  0  0  0  0
  182.6770  170.1510  134.7320 O   0  0  0  0  0  0  0  0  0  0  0  0
  189.6140  174.0030  135.8620 C   0  0  0  0  0  2  0  0  0  0  0  0
  189.0010  173.6580  137.2060 C   0  0  0  0  0  2  0  0  0  0  0  0
  187.9740  172.5960  137.0330 C   0  0  0  0  0  0  0  0  0  0  0  0
  188.2570  171.4700  136.2690 O   0  0  0  0  0  0  0  0  0  0  0  0
  186.8580  172.7030  137.6040 O   0  0  0  0  0  1  0  0  0  0  0  0
  1  6  1  6  0  0  0
  1  9  1  0  0  0  0
  3 20  1  0  0  0  0
  3 18  2  0  0  0  0
  4 14  1  0  0  0  0
  4 27  1  0  0  0  0
  5  4  2  0  0  0  0
  6  8  1  0  0  0  0
  8 21  1  6  0  0  0
  8 23  1  0  0  0  0
  9 31  1  6  0  0  0
  9 15  1  0  0  0  0
 10 21  1  1  0  0  0
 10 20  1  0  0  0  0
 12 16  1  0  0  0  0
 13 18  1  0  0  0  0
 13  7  2  0  0  0  0
 14  3  1  0  0  0  0
 15 11  2  0  0  0  0
 16 10  1  0  0  0  0
 17 29  1  6  0  0  0
 17 12  1  0  0  0  0
 19 45  1  1  0  0  0
 19  1  1  0  0  0  0
 22  5  1  0  0  0  0
 23  2  1  6  0  0  0
 23 11  1  0  0  0  0
 24 22  2  0  0  0  0
 26 25  1  0  0  0  0
 26 28  1  0  0  0  0
 27 13  1  0  0  0  0
 28 22  1  0  0  0  0
 28 37  1  0  0  0  0
 29 25  1  0  0  0  0
 30 17  1  0  0  0  0
 30 19  1  0  0  0  0
 32 35  1  0  0  0  0
 33 32  2  0  0  0  0
 33 31  1  0  0  0  0
 34 32  1  0  0  0  0
 35 36  1  0  0  0  0
 38 40  1  1  0  0  0
 38 37  1  0  0  0  0
 38 41  1  0  0  0  0
 40 39  1  0  0  0  0
 43 41  1  0  0  0  0
 43 42  1  0  0  0  0
 44 43  2  0  0  0  0
 45 46  1  0  0  0  0
 47 46  1  0  0  0  0
 47 49  1  0  0  0  0
 48 47  2  0  0  0  0
M  END
>  <MODEL>
9

>  <REMARK>
 VINA RESULT:      -4.3      4.180     10.366
  Name = 
  11 active torsions:
  status: ('A' for Active; 'I' for Inactive)
    1  A    between atoms: C_5  and  O_22
    2  A    between atoms: C_10  and  O_21
    3  A    between atoms: C_12  and  O_21
    4  A    between atoms: C_20  and  C_24
    5  A    between atoms: C_23  and  C_31
    6  A    between atoms: C_23  and  C_33
    7  A    between atoms: C_23  and  C_49
    8  A    between atoms: C_24  and  C_38
    9  A    between atoms: C_27  and  C_38
   10  A    between atoms: C_28  and  C_49
   11  A    between atoms: C_33  and  N_44
                            x       y       z     vdW  Elec       q    Type
                         _______ _______ _______ _____ _____    ______ ____

>  <TORSDO>
F 11

$$$$
