=
 OpenBabel11062413423D

 35 38  0  0  1  0  0  0  0  0999 V2000
  181.1320  179.8130  137.6100 C   0  0  2  0  0  3  0  0  0  0  0  0
  179.4350  178.0490  140.6090 C   0  0  0  0  0  3  0  0  0  0  0  0
  181.5960  178.7550  135.4640 O   0  0  0  0  0  0  0  0  0  0  0  0
  180.5620  179.2790  136.3000 C   0  0  2  0  0  0  0  0  0  0  0  0
  182.4040  177.7000  135.9150 C   0  0  0  0  0  0  0  0  0  0  0  0
  180.2340  179.6200  138.8260 C   0  0  1  0  0  3  0  0  0  0  0  0
  180.5630  180.7690  136.5690 C   0  0  0  0  0  2  0  0  0  0  0  0
  181.0960  178.6830  142.2500 C   0  0  0  0  0  0  0  0  0  0  0  0
  183.7470  177.5000  135.2990 C   0  0  0  0  0  1  0  0  0  0  0  0
  184.9210  177.0850  137.9810 O   0  0  0  0  0  1  0  0  0  0  0  0
  179.1910  178.6230  136.2590 C   0  0  0  0  0  1  0  0  0  0  0  0
  180.4870  178.2620  139.5340 C   0  0  1  0  0  3  0  0  0  0  0  0
  179.7840  178.2790  141.8770 C   0  0  0  0  0  0  0  0  0  0  0  0
  180.4060  180.8250  139.7470 C   0  0  0  0  0  1  0  0  0  0  0  0
  182.7730  176.0750  137.7350 C   0  0  0  0  0  2  0  0  0  0  0  0
  183.7220  176.8640  138.6650 C   0  0  2  0  0  3  0  0  0  0  0  0
  182.1150  178.6480  141.4480 N   0  0  0  0  0  0  0  0  0  0  0  0
  181.9840  176.9810  136.9150 N   0  0  0  0  0  0  0  0  0  0  0  0
  183.1250  178.2110  139.1690 C   0  0  1  0  0  3  0  0  0  0  0  0
  178.9310  178.3800  143.0030 N   0  0  0  0  0  0  0  0  0  0  0  0
  181.9300  178.0310  140.1230 C   0  0  2  0  0  3  0  0  0  0  0  0
  181.0900  179.1050  143.5570 O   0  0  0  0  0  0  0  0  0  0  0  0
  179.7810  178.8750  144.1120 C   0  0  0  0  0  3  0  0  0  0  0  0
  184.1620  179.2410  139.6620 C   0  0  2  0  0  3  0  0  0  0  0  0
  184.3300  180.2600  138.7180 O   0  0  0  0  0  1  0  0  0  0  0  0
  185.5080  178.6300  140.0210 C   0  0  0  0  0  2  0  0  0  0  0  0
  186.0500  179.3030  141.1190 O   0  0  0  0  0  0  0  0  0  0  0  0
  185.9980  178.3900  142.1790 C   0  0  1  0  0  3  0  0  0  0  0  0
  187.3810  177.9070  142.5080 C   0  0  0  0  0  0  0  0  0  0  0  0
  187.5640  176.6520  143.0720 O   0  0  0  0  0  1  0  0  0  0  0  0
  188.3780  178.6560  142.3150 O   0  0  0  0  0  0  0  0  0  0  0  0
  185.3700  179.0470  143.3660 C   0  0  0  0  0  3  0  0  0  0  0  0
  184.5430  178.3690  144.1590 C   0  0  0  0  0  3  0  0  0  0  0  0
  183.9210  179.0290  145.3450 C   0  0  0  0  0  2  0  0  0  0  0  0
  184.5480  178.5810  146.5120 O   0  0  0  0  0  1  0  0  0  0  0  0
  1  7  1  6  0  0  0
  1  6  1  0  0  0  0
  2 13  2  0  0  0  0
  3  5  1  0  0  0  0
  3  4  1  0  0  0  0
  4 11  1  1  0  0  0
  4  7  1  0  0  0  0
  4  1  1  0  0  0  0
  5 18  2  0  0  0  0
  6 12  1  0  0  0  0
  6 14  1  1  0  0  0
  8 22  1  0  0  0  0
  9  5  1  0  0  0  0
 12 21  1  0  0  0  0
 12  2  1  1  0  0  0
 13  8  1  0  0  0  0
 13 20  1  0  0  0  0
 15 16  1  0  0  0  0
 16 10  1  6  0  0  0
 16 19  1  0  0  0  0
 17  8  2  0  0  0  0
 18 15  1  0  0  0  0
 19 24  1  1  0  0  0
 19 21  1  0  0  0  0
 20 23  2  0  0  0  0
 21 17  1  1  0  0  0
 22 23  1  0  0  0  0
 24 25  1  6  0  0  0
 24 26  1  0  0  0  0
 26 27  1  0  0  0  0
 27 28  1  0  0  0  0
 28 29  1  0  0  0  0
 28 32  1  1  0  0  0
 29 30  1  0  0  0  0
 31 29  2  0  0  0  0
 32 33  2  0  0  0  0
 33 34  1  0  0  0  0
 34 35  1  0  0  0  0
M  END
>  <MODEL>
1

>  <REMARK>
 VINA RESULT:      -6.6      0.000      0.000
  Name = 
  7 active torsions:
  status: ('A' for Active; 'I' for Inactive)
    1  A    between atoms: C_5  and  C_29
    2  A    between atoms: C_5  and  C_30
    3  A    between atoms: C_7  and  C_9
    4  A    between atoms: O_8  and  C_9
    5  A    between atoms: O_8  and  C_30
    6  A    between atoms: C_9  and  C_15
    7  A    between atoms: C_11  and  C_17
                            x       y       z     vdW  Elec       q    Type
                         _______ _______ _______ _____ _____    ______ ____

>  <TORSDO>
F 7

$$$$
=
 OpenBabel11062413423D

 35 38  0  0  1  0  0  0  0  0999 V2000
  188.5500  174.8100  136.9700 C   0  0  2  0  0  3  0  0  0  0  0  0
  191.6110  175.7670  134.8010 C   0  0  0  0  0  3  0  0  0  0  0  0
  186.3330  175.8010  136.7500 O   0  0  0  0  0  0  0  0  0  0  0  0
  187.2730  174.9110  136.1420 C   0  0  2  0  0  0  0  0  0  0  0  0
  186.6750  177.1440  136.9740 C   0  0  0  0  0  0  0  0  0  0  0  0
  189.8280  174.6400  136.1580 C   0  0  1  0  0  3  0  0  0  0  0  0
  187.5970  173.6250  136.8750 C   0  0  0  0  0  2  0  0  0  0  0  0
  193.1310  176.1230  136.6500 C   0  0  0  0  0  0  0  0  0  0  0  0
  185.9430  177.9140  138.0200 C   0  0  0  0  0  1  0  0  0  0  0  0
  188.5000  179.0340  138.9940 O   0  0  0  0  0  1  0  0  0  0  0  0
  187.3200  174.8290  134.6250 C   0  0  0  0  0  1  0  0  0  0  0  0
  190.4610  176.0030  135.7650 C   0  0  1  0  0  3  0  0  0  0  0  0
  192.8530  175.8250  135.2870 C   0  0  0  0  0  0  0  0  0  0  0  0
  190.7760  173.7340  136.9380 C   0  0  0  0  0  1  0  0  0  0  0  0
  188.3950  178.8760  136.6150 C   0  0  0  0  0  2  0  0  0  0  0  0
  189.2720  178.7050  137.8770 C   0  0  2  0  0  3  0  0  0  0  0  0
  192.2460  176.5810  137.4810 N   0  0  0  0  0  0  0  0  0  0  0  0
  187.6790  177.6470  136.3150 N   0  0  0  0  0  0  0  0  0  0  0  0
  189.8760  177.2780  138.0290 C   0  0  1  0  0  3  0  0  0  0  0  0
  194.0490  175.4120  134.6500 N   0  0  0  0  0  0  0  0  0  0  0  0
  190.9180  176.9360  136.9490 C   0  0  2  0  0  3  0  0  0  0  0  0
  194.4490  175.8460  136.9180 O   0  0  0  0  0  0  0  0  0  0  0  0
  195.1010  175.4650  135.6930 C   0  0  0  0  0  3  0  0  0  0  0  0
  190.3190  176.9060  139.4590 C   0  0  2  0  0  3  0  0  0  0  0  0
  190.8790  175.6250  139.4830 O   0  0  0  0  0  1  0  0  0  0  0  0
  189.2060  177.0130  140.4910 C   0  0  0  0  0  2  0  0  0  0  0  0
  189.7200  177.5350  141.6810 O   0  0  0  0  0  0  0  0  0  0  0  0
  189.8610  176.4380  142.5390 C   0  0  1  0  0  3  0  0  0  0  0  0
  191.1460  176.5500  143.3060 C   0  0  0  0  0  0  0  0  0  0  0  0
  191.7980  177.7720  143.3980 O   0  0  0  0  0  0  0  0  0  0  0  0
  191.6620  175.5270  143.8340 O   0  0  0  0  0  1  0  0  0  0  0  0
  188.6910  176.3860  143.4690 C   0  0  0  0  0  3  0  0  0  0  0  0
  188.2880  177.4790  144.1140 C   0  0  0  0  0  3  0  0  0  0  0  0
  187.1180  177.4220  145.0400 C   0  0  0  0  0  2  0  0  0  0  0  0
  187.5680  177.4450  146.3640 O   0  0  0  0  0  1  0  0  0  0  0  0
  1  7  1  1  0  0  0
  2 13  2  0  0  0  0
  3  5  1  0  0  0  0
  4 11  1  6  0  0  0
  4  3  1  0  0  0  0
  4  7  1  0  0  0  0
  4  1  1  0  0  0  0
  5  9  1  0  0  0  0
  6 14  1  1  0  0  0
  6  1  1  0  0  0  0
  8 22  1  0  0  0  0
  8 17  2  0  0  0  0
 12  2  1  6  0  0  0
 12  6  1  0  0  0  0
 12 21  1  0  0  0  0
 13  8  1  0  0  0  0
 15 16  1  0  0  0  0
 16 19  1  0  0  0  0
 16 10  1  1  0  0  0
 18 15  1  0  0  0  0
 18  5  2  0  0  0  0
 19 24  1  1  0  0  0
 20 13  1  0  0  0  0
 20 23  2  0  0  0  0
 21 17  1  1  0  0  0
 21 19  1  0  0  0  0
 23 22  1  0  0  0  0
 24 25  1  6  0  0  0
 24 26  1  0  0  0  0
 26 27  1  0  0  0  0
 27 28  1  0  0  0  0
 28 29  1  0  0  0  0
 28 32  1  1  0  0  0
 29 30  2  0  0  0  0
 29 31  1  0  0  0  0
 32 33  2  0  0  0  0
 33 34  1  0  0  0  0
 34 35  1  0  0  0  0
M  END
>  <MODEL>
2

>  <REMARK>
 VINA RESULT:      -6.5      5.916      9.124
  Name = 
  7 active torsions:
  status: ('A' for Active; 'I' for Inactive)
    1  A    between atoms: C_5  and  C_29
    2  A    between atoms: C_5  and  C_30
    3  A    between atoms: C_7  and  C_9
    4  A    between atoms: O_8  and  C_9
    5  A    between atoms: O_8  and  C_30
    6  A    between atoms: C_9  and  C_15
    7  A    between atoms: C_11  and  C_17
                            x       y       z     vdW  Elec       q    Type
                         _______ _______ _______ _____ _____    ______ ____

>  <TORSDO>
F 7

$$$$
=
 OpenBabel11062413423D

 35 38  0  0  1  0  0  0  0  0999 V2000
  180.9520  179.8120  137.6820 C   0  0  2  0  0  3  0  0  0  0  0  0
  179.3890  177.9950  140.7220 C   0  0  0  0  0  3  0  0  0  0  0  0
  181.3990  178.7680  135.5250 O   0  0  0  0  0  0  0  0  0  0  0  0
  180.3680  179.2570  136.3870 C   0  0  2  0  0  0  0  0  0  0  0  0
  182.2520  177.7400  135.9570 C   0  0  0  0  0  0  0  0  0  0  0  0
  180.0910  179.5900  138.9190 C   0  0  1  0  0  3  0  0  0  0  0  0
  180.3260  180.7470  136.6550 C   0  0  0  0  0  2  0  0  0  0  0  0
  181.0680  178.6870  142.3220 C   0  0  0  0  0  0  0  0  0  0  0  0
  183.5860  177.5850  135.3080 C   0  0  0  0  0  1  0  0  0  0  0  0
  184.8380  177.2120  137.9610 O   0  0  0  0  0  1  0  0  0  0  0  0
  179.0200  178.5560  136.3790 C   0  0  0  0  0  1  0  0  0  0  0  0
  180.4060  178.2420  139.6220 C   0  0  1  0  0  3  0  0  0  0  0  0
  179.7610  178.2380  141.9810 C   0  0  0  0  0  0  0  0  0  0  0  0
  180.2450  180.8010  139.8350 C   0  0  0  0  0  1  0  0  0  0  0  0
  182.7200  176.1310  137.7680 C   0  0  0  0  0  2  0  0  0  0  0  0
  183.6640  176.9530  138.6740 C   0  0  2  0  0  3  0  0  0  0  0  0
  182.0670  178.6850  141.4950 N   0  0  0  0  0  0  0  0  0  0  0  0
  181.8810  177.0090  136.9670 N   0  0  0  0  0  0  0  0  0  0  0  0
  183.0350  178.2790  139.1920 C   0  0  1  0  0  3  0  0  0  0  0  0
  178.9320  178.3120  143.1280 N   0  0  0  0  0  0  0  0  0  0  0  0
  181.8700  178.0600  140.1750 C   0  0  2  0  0  3  0  0  0  0  0  0
  181.0790  179.1090  143.6290 O   0  0  0  0  0  0  0  0  0  0  0  0
  179.7930  178.8360  144.2150 C   0  0  0  0  0  3  0  0  0  0  0  0
  184.0490  179.3440  139.6590 C   0  0  2  0  0  3  0  0  0  0  0  0
  184.3390  180.2350  138.6210 O   0  0  0  0  0  1  0  0  0  0  0  0
  185.3340  178.7590  140.2240 C   0  0  0  0  0  2  0  0  0  0  0  0
  185.7070  179.4670  141.3700 O   0  0  0  0  0  0  0  0  0  0  0  0
  186.9180  178.8980  141.7810 C   0  0  1  0  0  3  0  0  0  0  0  0
  186.6660  177.8700  142.8450 C   0  0  0  0  0  0  0  0  0  0  0  0
  185.5730  177.9990  143.6920 O   0  0  0  0  0  1  0  0  0  0  0  0
  187.4680  176.9090  143.0030 O   0  0  0  0  0  0  0  0  0  0  0  0
  187.6000  178.2830  140.6000 C   0  0  0  0  0  3  0  0  0  0  0  0
  188.8950  178.4950  140.3770 C   0  0  0  0  0  3  0  0  0  0  0  0
  189.5700  177.8760  139.1990 C   0  0  0  0  0  2  0  0  0  0  0  0
  189.2760  178.6170  138.0500 O   0  0  0  0  0  1  0  0  0  0  0  0
  1  7  1  6  0  0  0
  1  6  1  0  0  0  0
  2 13  2  0  0  0  0
  3  5  1  0  0  0  0
  3  4  1  0  0  0  0
  4 11  1  1  0  0  0
  4  7  1  0  0  0  0
  4  1  1  0  0  0  0
  5 18  2  0  0  0  0
  6 12  1  0  0  0  0
  6 14  1  1  0  0  0
  8 22  1  0  0  0  0
  9  5  1  0  0  0  0
 12 21  1  0  0  0  0
 12  2  1  1  0  0  0
 13  8  1  0  0  0  0
 13 20  1  0  0  0  0
 15 16  1  0  0  0  0
 16 10  1  6  0  0  0
 16 19  1  0  0  0  0
 17  8  2  0  0  0  0
 18 15  1  0  0  0  0
 19 24  1  1  0  0  0
 19 21  1  0  0  0  0
 20 23  2  0  0  0  0
 21 17  1  1  0  0  0
 22 23  1  0  0  0  0
 24 25  1  6  0  0  0
 24 26  1  0  0  0  0
 26 27  1  0  0  0  0
 27 28  1  0  0  0  0
 28 32  1  6  0  0  0
 28 29  1  0  0  0  0
 29 31  2  0  0  0  0
 29 30  1  0  0  0  0
 33 32  2  0  0  0  0
 34 33  1  0  0  0  0
 35 34  1  0  0  0  0
M  END
>  <MODEL>
3

>  <REMARK>
 VINA RESULT:      -6.1      1.251      2.534
  Name = 
  7 active torsions:
  status: ('A' for Active; 'I' for Inactive)
    1  A    between atoms: C_5  and  C_29
    2  A    between atoms: C_5  and  C_30
    3  A    between atoms: C_7  and  C_9
    4  A    between atoms: O_8  and  C_9
    5  A    between atoms: O_8  and  C_30
    6  A    between atoms: C_9  and  C_15
    7  A    between atoms: C_11  and  C_17
                            x       y       z     vdW  Elec       q    Type
                         _______ _______ _______ _____ _____    ______ ____

>  <TORSDO>
F 7

$$$$
=
 OpenBabel11062413423D

 35 38  0  0  1  0  0  0  0  0999 V2000
  181.1040  179.8240  137.6930 C   0  0  2  0  0  3  0  0  0  0  0  0
  179.4080  178.0450  140.6840 C   0  0  0  0  0  3  0  0  0  0  0  0
  181.5290  178.7900  135.5270 O   0  0  0  0  0  0  0  0  0  0  0  0
  180.5120  179.3180  136.3820 C   0  0  2  0  0  0  0  0  0  0  0  0
  182.3240  177.7150  135.9550 C   0  0  0  0  0  0  0  0  0  0  0  0
  180.2150  179.6280  138.9150 C   0  0  1  0  0  3  0  0  0  0  0  0
  180.5410  180.8050  136.6720 C   0  0  0  0  0  2  0  0  0  0  0  0
  181.0960  178.6280  142.3170 C   0  0  0  0  0  0  0  0  0  0  0  0
  183.6570  177.5010  135.3230 C   0  0  0  0  0  1  0  0  0  0  0  0
  184.8500  177.0280  137.9860 O   0  0  0  0  0  1  0  0  0  0  0  0
  179.1300  178.6860  136.3450 C   0  0  0  0  0  1  0  0  0  0  0  0
  180.4520  178.2560  139.6010 C   0  0  1  0  0  3  0  0  0  0  0  0
  179.7740  178.2510  141.9510 C   0  0  0  0  0  0  0  0  0  0  0  0
  180.4170  180.8170  139.8510 C   0  0  0  0  0  1  0  0  0  0  0  0
  182.6830  176.0570  137.7470 C   0  0  0  0  0  2  0  0  0  0  0  0
  183.6550  176.8180  138.6790 C   0  0  2  0  0  3  0  0  0  0  0  0
  182.1060  178.5880  141.5040 N   0  0  0  0  0  0  0  0  0  0  0  0
  181.9010  176.9880  136.9490 N   0  0  0  0  0  0  0  0  0  0  0  0
  183.0850  178.1670  139.2090 C   0  0  1  0  0  3  0  0  0  0  0  0
  178.9330  178.3500  143.0870 N   0  0  0  0  0  0  0  0  0  0  0  0
  181.8970  177.9930  140.1720 C   0  0  2  0  0  3  0  0  0  0  0  0
  181.1100  179.0310  143.6300 O   0  0  0  0  0  0  0  0  0  0  0  0
  179.8030  178.8140  144.1940 C   0  0  0  0  0  3  0  0  0  0  0  0
  184.1450  179.1720  139.7050 C   0  0  2  0  0  3  0  0  0  0  0  0
  184.7780  179.7940  138.6240 O   0  0  0  0  0  1  0  0  0  0  0  0
  185.1770  178.5610  140.6400 C   0  0  0  0  0  2  0  0  0  0  0  0
  186.4310  179.1230  140.3840 O   0  0  0  0  0  0  0  0  0  0  0  0
  187.3600  178.1320  140.7240 C   0  0  1  0  0  3  0  0  0  0  0  0
  188.5750  178.2480  139.8510 C   0  0  0  0  0  0  0  0  0  0  0  0
  189.7510  177.6010  140.2070 O   0  0  0  0  0  1  0  0  0  0  0  0
  188.5480  178.9670  138.8150 O   0  0  0  0  0  0  0  0  0  0  0  0
  187.7280  178.2750  142.1660 C   0  0  0  0  0  3  0  0  0  0  0  0
  187.3310  177.3730  143.0610 C   0  0  0  0  0  3  0  0  0  0  0  0
  187.7040  177.5190  144.4990 C   0  0  0  0  0  2  0  0  0  0  0  0
  186.5450  177.5500  145.2810 O   0  0  0  0  0  1  0  0  0  0  0  0
  1  7  1  6  0  0  0
  1  6  1  0  0  0  0
  2 13  2  0  0  0  0
  3  5  1  0  0  0  0
  3  4  1  0  0  0  0
  4 11  1  1  0  0  0
  4  7  1  0  0  0  0
  4  1  1  0  0  0  0
  5 18  2  0  0  0  0
  6 12  1  0  0  0  0
  6 14  1  1  0  0  0
  8 22  1  0  0  0  0
  9  5  1  0  0  0  0
 12 21  1  0  0  0  0
 12  2  1  1  0  0  0
 13  8  1  0  0  0  0
 13 20  1  0  0  0  0
 15 16  1  0  0  0  0
 16 10  1  6  0  0  0
 16 19  1  0  0  0  0
 17  8  2  0  0  0  0
 18 15  1  0  0  0  0
 19 24  1  1  0  0  0
 19 21  1  0  0  0  0
 20 23  2  0  0  0  0
 21 17  1  1  0  0  0
 22 23  1  0  0  0  0
 24 25  1  6  0  0  0
 24 26  1  0  0  0  0
 27 26  1  0  0  0  0
 27 28  1  0  0  0  0
 28 32  1  1  0  0  0
 29 30  1  0  0  0  0
 29 28  1  0  0  0  0
 31 29  2  0  0  0  0
 32 33  2  0  0  0  0
 33 34  1  0  0  0  0
 34 35  1  0  0  0  0
M  END
>  <MODEL>
4

>  <REMARK>
 VINA RESULT:      -6.0      1.309      1.532
  Name = 
  7 active torsions:
  status: ('A' for Active; 'I' for Inactive)
    1  A    between atoms: C_5  and  C_29
    2  A    between atoms: C_5  and  C_30
    3  A    between atoms: C_7  and  C_9
    4  A    between atoms: O_8  and  C_9
    5  A    between atoms: O_8  and  C_30
    6  A    between atoms: C_9  and  C_15
    7  A    between atoms: C_11  and  C_17
                            x       y       z     vdW  Elec       q    Type
                         _______ _______ _______ _____ _____    ______ ____

>  <TORSDO>
F 7

$$$$
=
 OpenBabel11062413423D

 35 38  0  0  1  0  0  0  0  0999 V2000
  182.5110  175.1850  137.2690 C   0  0  2  0  0  3  0  0  0  0  0  0
  185.0900  176.8540  134.9130 C   0  0  0  0  0  3  0  0  0  0  0  0
  180.0990  175.5150  137.1360 O   0  0  0  0  0  0  0  0  0  0  0  0
  181.2220  174.8930  136.5070 C   0  0  2  0  0  0  0  0  0  0  0  0
  180.0640  176.9080  137.3020 C   0  0  0  0  0  0  0  0  0  0  0  0
  183.7500  175.3400  136.3960 C   0  0  1  0  0  3  0  0  0  0  0  0
  181.9220  173.7800  137.2600 C   0  0  0  0  0  2  0  0  0  0  0  0
  186.5280  177.6970  136.6670 C   0  0  0  0  0  0  0  0  0  0  0  0
  179.1910  177.4910  138.3610 C   0  0  0  0  0  1  0  0  0  0  0  0
  181.3750  179.3150  139.1650 O   0  0  0  0  0  1  0  0  0  0  0  0
  181.2270  174.7610  134.9930 C   0  0  0  0  0  1  0  0  0  0  0  0
  183.9620  176.8050  135.9290 C   0  0  1  0  0  3  0  0  0  0  0  0
  186.2870  177.2750  135.3300 C   0  0  0  0  0  0  0  0  0  0  0  0
  184.9460  174.7660  137.1510 C   0  0  0  0  0  1  0  0  0  0  0  0
  181.2170  179.0310  136.8000 C   0  0  0  0  0  2  0  0  0  0  0  0
  182.1600  179.1640  138.0180 C   0  0  2  0  0  3  0  0  0  0  0  0
  185.5870  177.9290  137.5290 N   0  0  0  0  0  0  0  0  0  0  0  0
  180.8590  177.6400  136.5760 N   0  0  0  0  0  0  0  0  0  0  0  0
  183.1420  177.9670  138.1810 C   0  0  1  0  0  3  0  0  0  0  0  0
  187.5220  177.1810  134.6440 N   0  0  0  0  0  0  0  0  0  0  0  0
  184.1920  177.8800  137.0580 C   0  0  2  0  0  3  0  0  0  0  0  0
  187.8820  177.8070  136.8740 O   0  0  0  0  0  0  0  0  0  0  0  0
  188.5620  177.5680  135.6280 C   0  0  0  0  0  3  0  0  0  0  0  0
  183.7320  177.7950  139.5960 C   0  0  2  0  0  3  0  0  0  0  0  0
  182.9870  176.8660  140.3300 O   0  0  0  0  0  1  0  0  0  0  0  0
  183.8560  179.0990  140.3700 C   0  0  0  0  0  2  0  0  0  0  0  0
  185.2020  179.4660  140.4560 O   0  0  0  0  0  0  0  0  0  0  0  0
  185.7460  178.6540  141.4570 C   0  0  1  0  0  3  0  0  0  0  0  0
  187.2280  178.5180  141.2580 C   0  0  0  0  0  0  0  0  0  0  0  0
  187.7780  178.6840  139.9940 O   0  0  0  0  0  0  0  0  0  0  0  0
  187.9740  178.2110  142.2280 O   0  0  0  0  0  1  0  0  0  0  0  0
  185.4440  179.2520  142.7950 C   0  0  0  0  0  3  0  0  0  0  0  0
  185.0270  178.4870  143.8020 C   0  0  0  0  0  3  0  0  0  0  0  0
  184.7290  179.0880  145.1350 C   0  0  0  0  0  2  0  0  0  0  0  0
  183.3460  179.1070  145.3410 O   0  0  0  0  0  1  0  0  0  0  0  0
  1  7  1  1  0  0  0
  2 13  2  0  0  0  0
  3  5  1  0  0  0  0
  4 11  1  6  0  0  0
  4  3  1  0  0  0  0
  4  7  1  0  0  0  0
  4  1  1  0  0  0  0
  5  9  1  0  0  0  0
  6 14  1  1  0  0  0
  6  1  1  0  0  0  0
  8 22  1  0  0  0  0
  8 17  2  0  0  0  0
 12  2  1  6  0  0  0
 12  6  1  0  0  0  0
 12 21  1  0  0  0  0
 13  8  1  0  0  0  0
 15 16  1  0  0  0  0
 16 19  1  0  0  0  0
 16 10  1  1  0  0  0
 18 15  1  0  0  0  0
 18  5  2  0  0  0  0
 19 24  1  1  0  0  0
 20 13  1  0  0  0  0
 20 23  2  0  0  0  0
 21 17  1  1  0  0  0
 21 19  1  0  0  0  0
 23 22  1  0  0  0  0
 24 25  1  1  0  0  0
 24 26  1  0  0  0  0
 26 27  1  0  0  0  0
 27 28  1  0  0  0  0
 28 32  1  1  0  0  0
 29 28  1  0  0  0  0
 29 31  1  0  0  0  0
 30 29  2  0  0  0  0
 32 33  2  0  0  0  0
 33 34  1  0  0  0  0
 34 35  1  0  0  0  0
M  END
>  <MODEL>
5

>  <REMARK>
 VINA RESULT:      -5.9      2.499      5.416
  Name = 
  7 active torsions:
  status: ('A' for Active; 'I' for Inactive)
    1  A    between atoms: C_5  and  C_29
    2  A    between atoms: C_5  and  C_30
    3  A    between atoms: C_7  and  C_9
    4  A    between atoms: O_8  and  C_9
    5  A    between atoms: O_8  and  C_30
    6  A    between atoms: C_9  and  C_15
    7  A    between atoms: C_11  and  C_17
                            x       y       z     vdW  Elec       q    Type
                         _______ _______ _______ _____ _____    ______ ____

>  <TORSDO>
F 7

$$$$
=
 OpenBabel11062413423D

 35 38  0  0  1  0  0  0  0  0999 V2000
  183.1120  175.8510  137.3620 C   0  0  2  0  0  3  0  0  0  0  0  0
  186.1190  177.8870  136.0220 C   0  0  0  0  0  3  0  0  0  0  0  0
  180.7760  176.3490  136.8750 O   0  0  0  0  0  0  0  0  0  0  0  0
  181.9910  175.8340  136.3270 C   0  0  2  0  0  0  0  0  0  0  0  0
  180.7260  177.6590  137.3770 C   0  0  0  0  0  0  0  0  0  0  0  0
  184.4980  176.1400  136.8000 C   0  0  1  0  0  3  0  0  0  0  0  0
  182.5180  174.5300  136.8890 C   0  0  0  0  0  2  0  0  0  0  0  0
  187.2000  178.1840  138.1670 C   0  0  0  0  0  0  0  0  0  0  0  0
  179.6720  178.0160  138.3700 C   0  0  0  0  0  1  0  0  0  0  0  0
  181.6820  179.4500  139.9970 O   0  0  0  0  0  1  0  0  0  0  0  0
  182.2880  176.0780  134.8560 C   0  0  0  0  0  1  0  0  0  0  0  0
  184.8150  177.6590  136.7670 C   0  0  1  0  0  3  0  0  0  0  0  0
  187.2170  178.1180  136.7450 C   0  0  0  0  0  0  0  0  0  0  0  0
  185.5170  175.3260  137.5940 C   0  0  0  0  0  1  0  0  0  0  0  0
  181.9820  179.7660  137.6500 C   0  0  0  0  0  2  0  0  0  0  0  0
  182.6720  179.5380  139.0150 C   0  0  2  0  0  3  0  0  0  0  0  0
  186.1130  178.2530  138.8700 N   0  0  0  0  0  0  0  0  0  0  0  0
  181.6560  178.4970  137.0200 N   0  0  0  0  0  0  0  0  0  0  0  0
  183.5890  178.2800  139.0480 C   0  0  1  0  0  3  0  0  0  0  0  0
  188.5610  178.1210  136.2980 N   0  0  0  0  0  0  0  0  0  0  0  0
  184.8350  178.4070  138.1530 C   0  0  2  0  0  3  0  0  0  0  0  0
  188.4890  178.1570  138.6400 O   0  0  0  0  0  0  0  0  0  0  0  0
  189.3950  178.1910  137.5220 C   0  0  0  0  0  3  0  0  0  0  0  0
  183.8900  177.7290  140.4570 C   0  0  2  0  0  3  0  0  0  0  0  0
  182.9000  176.8250  140.8550 O   0  0  0  0  0  1  0  0  0  0  0  0
  184.0680  178.8120  141.5110 C   0  0  0  0  0  2  0  0  0  0  0  0
  184.0400  178.2350  142.7840 O   0  0  0  0  0  0  0  0  0  0  0  0
  185.1310  178.7870  143.4670 C   0  0  1  0  0  3  0  0  0  0  0  0
  184.7620  179.0450  144.8990 C   0  0  0  0  0  0  0  0  0  0  0  0
  183.4310  179.0080  145.2910 O   0  0  0  0  0  0  0  0  0  0  0  0
  185.6530  179.3410  145.7420 O   0  0  0  0  0  1  0  0  0  0  0  0
  186.2920  177.8480  143.3810 C   0  0  0  0  0  3  0  0  0  0  0  0
  187.2930  178.0820  142.5340 C   0  0  0  0  0  3  0  0  0  0  0  0
  188.4500  177.1430  142.4540 C   0  0  0  0  0  2  0  0  0  0  0  0
  188.1810  176.0030  143.2190 O   0  0  0  0  0  1  0  0  0  0  0  0
  1  7  1  6  0  0  0
  2 13  2  0  0  0  0
  3  5  1  0  0  0  0
  4 11  1  6  0  0  0
  4  3  1  0  0  0  0
  4  7  1  0  0  0  0
  4  1  1  0  0  0  0
  5  9  1  0  0  0  0
  6  1  1  0  0  0  0
  6 14  1  1  0  0  0
  8 22  1  0  0  0  0
  8 17  2  0  0  0  0
 12  2  1  1  0  0  0
 12  6  1  0  0  0  0
 12 21  1  0  0  0  0
 13  8  1  0  0  0  0
 15 16  1  0  0  0  0
 16 19  1  0  0  0  0
 16 10  1  1  0  0  0
 18  5  2  0  0  0  0
 18 15  1  0  0  0  0
 19 24  1  1  0  0  0
 20 13  1  0  0  0  0
 20 23  2  0  0  0  0
 21 17  1  1  0  0  0
 21 19  1  0  0  0  0
 23 22  1  0  0  0  0
 24 25  1  1  0  0  0
 24 26  1  0  0  0  0
 26 27  1  0  0  0  0
 27 28  1  0  0  0  0
 28 32  1  1  0  0  0
 28 29  1  0  0  0  0
 29 30  2  0  0  0  0
 29 31  1  0  0  0  0
 33 32  2  0  0  0  0
 34 33  1  0  0  0  0
 34 35  1  0  0  0  0
M  END
>  <MODEL>
6

>  <REMARK>
 VINA RESULT:      -5.6      2.529      5.517
  Name = 
  7 active torsions:
  status: ('A' for Active; 'I' for Inactive)
    1  A    between atoms: C_5  and  C_29
    2  A    between atoms: C_5  and  C_30
    3  A    between atoms: C_7  and  C_9
    4  A    between atoms: O_8  and  C_9
    5  A    between atoms: O_8  and  C_30
    6  A    between atoms: C_9  and  C_15
    7  A    between atoms: C_11  and  C_17
                            x       y       z     vdW  Elec       q    Type
                         _______ _______ _______ _____ _____    ______ ____

>  <TORSDO>
F 7

$$$$
=
 OpenBabel11062413423D

 35 38  0  0  1  0  0  0  0  0999 V2000
  182.1120  175.5390  137.1750 C   0  0  2  0  0  3  0  0  0  0  0  0
  185.2520  177.1740  135.6090 C   0  0  0  0  0  3  0  0  0  0  0  0
  179.8190  176.2270  136.7170 O   0  0  0  0  0  0  0  0  0  0  0  0
  180.9610  175.5590  136.1750 C   0  0  2  0  0  0  0  0  0  0  0  0
  179.9110  177.5670  137.1240 C   0  0  0  0  0  0  0  0  0  0  0  0
  183.5000  175.6510  136.5560 C   0  0  1  0  0  3  0  0  0  0  0  0
  181.3790  174.2520  136.8160 C   0  0  0  0  0  2  0  0  0  0  0  0
  186.4290  177.5130  137.6960 C   0  0  0  0  0  0  0  0  0  0  0  0
  178.9310  178.0930  138.1160 C   0  0  0  0  0  1  0  0  0  0  0  0
  181.1220  179.4350  139.5790 O   0  0  0  0  0  1  0  0  0  0  0  0
  181.2280  175.6700  134.6830 C   0  0  0  0  0  1  0  0  0  0  0  0
  183.9590  177.1260  136.4040 C   0  0  1  0  0  3  0  0  0  0  0  0
  186.3910  177.3470  136.2830 C   0  0  0  0  0  0  0  0  0  0  0  0
  184.4630  174.7990  137.3790 C   0  0  0  0  0  1  0  0  0  0  0  0
  181.3700  179.5550  137.2090 C   0  0  0  0  0  2  0  0  0  0  0  0
  182.0820  179.3570  138.5660 C   0  0  2  0  0  3  0  0  0  0  0  0
  185.3780  177.7370  138.4220 N   0  0  0  0  0  0  0  0  0  0  0  0
  180.9040  178.2830  136.6810 N   0  0  0  0  0  0  0  0  0  0  0  0
  182.8760  178.0210  138.6670 C   0  0  1  0  0  3  0  0  0  0  0  0
  187.7140  177.1870  135.8000 N   0  0  0  0  0  0  0  0  0  0  0  0
  184.0970  177.9640  137.7310 C   0  0  2  0  0  3  0  0  0  0  0  0
  187.7250  177.3940  138.1350 O   0  0  0  0  0  0  0  0  0  0  0  0
  188.5910  177.2610  136.9930 C   0  0  0  0  0  3  0  0  0  0  0  0
  183.1710  177.5440  140.1030 C   0  0  2  0  0  3  0  0  0  0  0  0
  182.1540  176.7000  140.5610 O   0  0  0  0  0  1  0  0  0  0  0  0
  183.3970  178.6790  141.0900 C   0  0  0  0  0  2  0  0  0  0  0  0
  183.4270  178.1690  142.3920 O   0  0  0  0  0  0  0  0  0  0  0  0
  183.0150  179.2250  143.2140 C   0  0  1  0  0  3  0  0  0  0  0  0
  181.5210  179.2060  143.3620 C   0  0  0  0  0  0  0  0  0  0  0  0
  180.9050  178.1830  144.0700 O   0  0  0  0  0  1  0  0  0  0  0  0
  180.8160  180.0940  142.8090 O   0  0  0  0  0  0  0  0  0  0  0  0
  183.6810  179.0990  144.5470 C   0  0  0  0  0  3  0  0  0  0  0  0
  185.0090  179.1050  144.6460 C   0  0  0  0  0  3  0  0  0  0  0  0
  185.6680  178.9830  145.9790 C   0  0  0  0  0  2  0  0  0  0  0  0
  184.7040  178.7010  146.9530 O   0  0  0  0  0  1  0  0  0  0  0  0
  1  7  1  6  0  0  0
  2 13  2  0  0  0  0
  3  5  1  0  0  0  0
  4 11  1  6  0  0  0
  4  3  1  0  0  0  0
  4  7  1  0  0  0  0
  4  1  1  0  0  0  0
  5  9  1  0  0  0  0
  6  1  1  0  0  0  0
  6 14  1  1  0  0  0
  8 22  1  0  0  0  0
  8 17  2  0  0  0  0
 12  2  1  1  0  0  0
 12  6  1  0  0  0  0
 12 21  1  0  0  0  0
 13  8  1  0  0  0  0
 15 16  1  0  0  0  0
 16 19  1  0  0  0  0
 16 10  1  1  0  0  0
 18  5  2  0  0  0  0
 18 15  1  0  0  0  0
 19 24  1  1  0  0  0
 20 13  1  0  0  0  0
 20 23  2  0  0  0  0
 21 17  1  1  0  0  0
 21 19  1  0  0  0  0
 23 22  1  0  0  0  0
 24 25  1  1  0  0  0
 24 26  1  0  0  0  0
 26 27  1  0  0  0  0
 27 28  1  0  0  0  0
 28 29  1  0  0  0  0
 28 32  1  1  0  0  0
 29 30  1  0  0  0  0
 31 29  2  0  0  0  0
 32 33  2  0  0  0  0
 33 34  1  0  0  0  0
 34 35  1  0  0  0  0
M  END
>  <MODEL>
7

>  <REMARK>
 VINA RESULT:      -5.5      2.556      5.511
  Name = 
  7 active torsions:
  status: ('A' for Active; 'I' for Inactive)
    1  A    between atoms: C_5  and  C_29
    2  A    between atoms: C_5  and  C_30
    3  A    between atoms: C_7  and  C_9
    4  A    between atoms: O_8  and  C_9
    5  A    between atoms: O_8  and  C_30
    6  A    between atoms: C_9  and  C_15
    7  A    between atoms: C_11  and  C_17
                            x       y       z     vdW  Elec       q    Type
                         _______ _______ _______ _____ _____    ______ ____

>  <TORSDO>
F 7

$$$$
=
 OpenBabel11062413423D

 35 38  0  0  1  0  0  0  0  0999 V2000
  187.7070  177.8620  136.8260 C   0  0  2  0  0  3  0  0  0  0  0  0
  188.7770  177.2230  140.4910 C   0  0  0  0  0  3  0  0  0  0  0  0
  185.9140  176.6720  135.6800 O   0  0  0  0  0  0  0  0  0  0  0  0
  186.2040  177.6540  136.6780 C   0  0  2  0  0  0  0  0  0  0  0  0
  186.4060  175.3640  135.8120 C   0  0  0  0  0  0  0  0  0  0  0  0
  188.1760  178.1600  138.2450 C   0  0  1  0  0  3  0  0  0  0  0  0
  186.8330  178.9540  136.2230 C   0  0  0  0  0  2  0  0  0  0  0  0
  191.1410  176.9840  140.0280 C   0  0  0  0  0  0  0  0  0  0  0  0
  186.5450  174.5150  134.5940 C   0  0  0  0  0  1  0  0  0  0  0  0
  189.2120  173.6250  135.5110 O   0  0  0  0  0  1  0  0  0  0  0  0
  185.2820  177.7600  137.8820 C   0  0  0  0  0  1  0  0  0  0  0  0
  188.5070  176.8680  139.0390 C   0  0  1  0  0  3  0  0  0  0  0  0
  190.0490  177.2740  140.8940 C   0  0  0  0  0  0  0  0  0  0  0  0
  189.3440  179.1400  138.1690 C   0  0  0  0  0  1  0  0  0  0  0  0
  187.6250  173.8040  137.2850 C   0  0  0  0  0  2  0  0  0  0  0  0
  189.0860  174.0390  136.8400 C   0  0  2  0  0  3  0  0  0  0  0  0
  191.0060  176.4360  138.8600 N   0  0  0  0  0  0  0  0  0  0  0  0
  186.8030  174.9650  136.9860 N   0  0  0  0  0  0  0  0  0  0  0  0
  189.5590  175.5140  137.0010 C   0  0  1  0  0  3  0  0  0  0  0  0
  190.5500  177.8050  142.1080 N   0  0  0  0  0  0  0  0  0  0  0  0
  189.6660  175.9660  138.4690 C   0  0  2  0  0  3  0  0  0  0  0  0
  192.3130  177.3790  140.6240 O   0  0  0  0  0  0  0  0  0  0  0  0
  192.0250  177.8350  141.9580 C   0  0  0  0  0  3  0  0  0  0  0  0
  190.7770  175.9070  136.1400 C   0  0  2  0  0  3  0  0  0  0  0  0
  190.3680  176.3360  134.8730 O   0  0  0  0  0  1  0  0  0  0  0  0
  191.8160  174.8030  136.0110 C   0  0  0  0  0  2  0  0  0  0  0  0
  192.6180  175.0420  134.8920 O   0  0  0  0  0  0  0  0  0  0  0  0
  193.9300  175.0870  135.3770 C   0  0  1  0  0  3  0  0  0  0  0  0
  194.3100  176.5040  135.6960 C   0  0  0  0  0  0  0  0  0  0  0  0
  194.0900  177.0130  136.9690 O   0  0  0  0  0  1  0  0  0  0  0  0
  194.7890  177.2510  134.8000 O   0  0  0  0  0  0  0  0  0  0  0  0
  194.0350  174.2240  136.5940 C   0  0  0  0  0  3  0  0  0  0  0  0
  195.1330  173.5070  136.8250 C   0  0  0  0  0  3  0  0  0  0  0  0
  195.2340  172.6490  138.0420 C   0  0  0  0  0  2  0  0  0  0  0  0
  195.5940  173.4370  139.1400 O   0  0  0  0  0  1  0  0  0  0  0  0
  1  7  1  6  0  0  0
  1  6  1  0  0  0  0
  2 13  2  0  0  0  0
  3  5  1  0  0  0  0
  3  4  1  0  0  0  0
  4  1  1  0  0  0  0
  4 11  1  1  0  0  0
  5 18  2  0  0  0  0
  6 14  1  6  0  0  0
  6 12  1  0  0  0  0
  7  4  1  0  0  0  0
  8 22  1  0  0  0  0
  8 13  1  0  0  0  0
  9  5  1  0  0  0  0
 12  2  1  1  0  0  0
 13 20  1  0  0  0  0
 16 10  1  6  0  0  0
 16 19  1  0  0  0  0
 16 15  1  0  0  0  0
 17  8  2  0  0  0  0
 18 15  1  0  0  0  0
 19 24  1  1  0  0  0
 19 21  1  0  0  0  0
 21 17  1  6  0  0  0
 21 12  1  0  0  0  0
 22 23  1  0  0  0  0
 23 20  2  0  0  0  0
 24 25  1  6  0  0  0
 26 24  1  0  0  0  0
 27 28  1  0  0  0  0
 27 26  1  0  0  0  0
 28 29  1  0  0  0  0
 28 32  1  1  0  0  0
 29 30  1  0  0  0  0
 31 29  2  0  0  0  0
 32 33  2  0  0  0  0
 33 34  1  0  0  0  0
 34 35  1  0  0  0  0
M  END
>  <MODEL>
8

>  <REMARK>
 VINA RESULT:      -5.3      6.642      9.228
  Name = 
  7 active torsions:
  status: ('A' for Active; 'I' for Inactive)
    1  A    between atoms: C_5  and  C_29
    2  A    between atoms: C_5  and  C_30
    3  A    between atoms: C_7  and  C_9
    4  A    between atoms: O_8  and  C_9
    5  A    between atoms: O_8  and  C_30
    6  A    between atoms: C_9  and  C_15
    7  A    between atoms: C_11  and  C_17
                            x       y       z     vdW  Elec       q    Type
                         _______ _______ _______ _____ _____    ______ ____

>  <TORSDO>
F 7

$$$$
=
 OpenBabel11062413423D

 35 38  0  0  1  0  0  0  0  0999 V2000
  181.9920  178.6480  137.1300 C   0  0  2  0  0  3  0  0  0  0  0  0
  182.2120  178.1230  140.9590 C   0  0  0  0  0  3  0  0  0  0  0  0
  181.0930  177.0170  135.5580 O   0  0  0  0  0  0  0  0  0  0  0  0
  180.7500  177.9560  136.5800 C   0  0  2  0  0  0  0  0  0  0  0  0
  181.9550  175.9460  135.8440 C   0  0  0  0  0  0  0  0  0  0  0  0
  181.9380  178.9750  138.6170 C   0  0  1  0  0  3  0  0  0  0  0  0
  180.9850  179.4240  136.2910 C   0  0  0  0  0  2  0  0  0  0  0  0
  184.5440  178.7350  141.1660 C   0  0  0  0  0  0  0  0  0  0  0  0
  182.6950  175.2930  134.7260 C   0  0  0  0  0  1  0  0  0  0  0  0
  185.1630  175.2880  136.3560 O   0  0  0  0  0  1  0  0  0  0  0  0
  179.5660  177.6490  137.4820 C   0  0  0  0  0  1  0  0  0  0  0  0
  182.4750  177.8130  139.4960 C   0  0  1  0  0  3  0  0  0  0  0  0
  183.2330  178.5690  141.6940 C   0  0  0  0  0  0  0  0  0  0  0  0
  182.6690  180.2950  138.8470 C   0  0  0  0  0  1  0  0  0  0  0  0
  183.2050  174.7790  137.6220 C   0  0  0  0  0  2  0  0  0  0  0  0
  184.5560  175.5290  137.5920 C   0  0  2  0  0  3  0  0  0  0  0  0
  184.9210  178.2670  140.0170 N   0  0  0  0  0  0  0  0  0  0  0  0
  182.1410  175.6140  137.0880 N   0  0  0  0  0  0  0  0  0  0  0  0
  184.4280  177.0600  137.8490 C   0  0  1  0  0  3  0  0  0  0  0  0
  183.1800  179.1410  142.9900 N   0  0  0  0  0  0  0  0  0  0  0  0
  183.9810  177.4040  139.2810 C   0  0  2  0  0  3  0  0  0  0  0  0
  185.3060  179.4550  142.0540 O   0  0  0  0  0  0  0  0  0  0  0  0
  184.5360  179.6810  143.2490 C   0  0  0  0  0  3  0  0  0  0  0  0
  185.6150  177.9080  137.3480 C   0  0  2  0  0  3  0  0  0  0  0  0
  185.6630  177.9100  135.9500 O   0  0  0  0  0  1  0  0  0  0  0  0
  186.9570  177.4790  137.9200 C   0  0  0  0  0  2  0  0  0  0  0  0
  187.7320  178.6090  138.1960 O   0  0  0  0  0  0  0  0  0  0  0  0
  189.0080  178.1200  138.4980 C   0  0  1  0  0  3  0  0  0  0  0  0
  189.1620  177.9740  139.9850 C   0  0  0  0  0  0  0  0  0  0  0  0
  188.2590  178.5890  140.8410 O   0  0  0  0  0  1  0  0  0  0  0  0
  190.1360  177.3310  140.4630 O   0  0  0  0  0  0  0  0  0  0  0  0
  189.2080  176.8050  137.8140 C   0  0  0  0  0  3  0  0  0  0  0  0
  190.3980  176.4700  137.3220 C   0  0  0  0  0  3  0  0  0  0  0  0
  190.5920  175.1550  136.6420 C   0  0  0  0  0  2  0  0  0  0  0  0
  190.5840  174.1310  137.5940 O   0  0  0  0  0  1  0  0  0  0  0  0
  1  7  1  6  0  0  0
  1  6  1  0  0  0  0
  2 13  2  0  0  0  0
  3  5  1  0  0  0  0
  3  4  1  0  0  0  0
  4  1  1  0  0  0  0
  4 11  1  1  0  0  0
  5 18  2  0  0  0  0
  6 14  1  6  0  0  0
  6 12  1  0  0  0  0
  7  4  1  0  0  0  0
  8 13  1  0  0  0  0
  8 22  1  0  0  0  0
  9  5  1  0  0  0  0
 12  2  1  1  0  0  0
 13 20  1  0  0  0  0
 16 10  1  6  0  0  0
 16 15  1  0  0  0  0
 16 19  1  0  0  0  0
 17  8  2  0  0  0  0
 18 15  1  0  0  0  0
 19 24  1  1  0  0  0
 19 21  1  0  0  0  0
 20 23  2  0  0  0  0
 21 12  1  0  0  0  0
 21 17  1  6  0  0  0
 22 23  1  0  0  0  0
 24 25  1  6  0  0  0
 24 26  1  0  0  0  0
 26 27  1  0  0  0  0
 27 28  1  0  0  0  0
 28 32  1  6  0  0  0
 28 29  1  0  0  0  0
 29 31  2  0  0  0  0
 29 30  1  0  0  0  0
 33 32  2  0  0  0  0
 34 33  1  0  0  0  0
 34 35  1  0  0  0  0
M  END
>  <MODEL>
9

>  <REMARK>
 VINA RESULT:      -5.1      2.822      4.357
  Name = 
  7 active torsions:
  status: ('A' for Active; 'I' for Inactive)
    1  A    between atoms: C_5  and  C_29
    2  A    between atoms: C_5  and  C_30
    3  A    between atoms: C_7  and  C_9
    4  A    between atoms: O_8  and  C_9
    5  A    between atoms: O_8  and  C_30
    6  A    between atoms: C_9  and  C_15
    7  A    between atoms: C_11  and  C_17
                            x       y       z     vdW  Elec       q    Type
                         _______ _______ _______ _____ _____    ______ ____

>  <TORSDO>
F 7

$$$$
