=
 OpenBabel11062415333D

 35 35  0  0  1  0  0  0  0  0999 V2000
  183.7810  178.5260  143.1170 C   0  0  0  0  0  0  0  0  0  0  0  0
  182.7080  178.9810  143.6990 N   0  0  0  0  0  0  0  0  0  0  0  0
  181.3550  178.8340  141.7140 C   0  0  0  0  0  3  0  0  0  0  0  0
  181.4350  179.0300  143.0330 C   0  0  0  0  0  3  0  0  0  0  0  0
  183.6740  177.9210  141.7390 C   0  0  0  0  0  2  0  0  0  0  0  0
  185.0110  178.4970  143.8560 N   0  0  0  0  0  0  0  0  0  0  0  0
  182.6140  178.6540  140.9180 C   0  0  1  0  0  3  0  0  0  0  0  0
  186.3120  178.1230  143.3800 C   0  0  0  0  0  3  0  0  0  0  0  0
  187.3150  177.7860  144.1900 C   0  0  0  0  0  2  0  0  0  0  0  0
  189.0900  178.2230  142.4650 C   0  0  0  0  0  1  0  0  0  0  0  0
  188.6920  177.3950  143.7010 C   0  0  1  0  0  0  0  0  0  0  0  0
  189.6940  177.7000  144.8350 C   0  0  1  0  0  3  0  0  0  0  0  0
  190.4770  178.8110  144.5150 O   0  0  0  0  0  1  0  0  0  0  0  0
  189.0380  177.9180  146.1960 C   0  0  0  0  0  2  0  0  0  0  0  0
  189.4260  176.7950  147.1360 C   0  0  0  0  0  2  0  0  0  0  0  0
  190.8820  176.7460  147.2720 C   0  0  0  0  0  0  0  0  0  0  0  0
  192.0340  176.7100  147.3800 N   0  0  0  0  0  0  0  0  0  0  0  0
  190.0400  175.6320  142.9770 C   0  0  0  0  0  1  0  0  0  0  0  0
  188.7660  175.9970  143.4550 O   0  0  0  0  0  0  0  0  0  0  0  0
  182.3480  177.9460  139.7440 O   0  0  0  0  0  0  0  0  0  0  0  0
  182.7340  178.1840  137.1600 O   0  0  0  0  0  0  0  0  0  0  0  0
  181.9390  180.7730  138.4250 S   0  0  0  0  0  1  0  0  0  0  0  0
  182.9440  178.9050  138.4750 P   0  0  1  0  0  0  0  0  0  0  0  0
  184.6030  179.1540  138.7320 O   0  0  0  0  0  0  0  0  0  0  0  0
  185.2340  177.9810  138.3100 C   0  0  0  0  0  2  0  0  0  0  0  0
  186.5010  178.3200  137.5430 C   0  0  0  0  0  2  0  0  0  0  0  0
  187.6250  177.3530  137.8900 C   0  0  2  0  0  3  0  0  0  0  0  0
  188.9140  178.1360  138.1440 C   0  0  2  0  0  3  0  0  0  0  0  0
  188.8480  179.4130  137.5790 O   0  0  0  0  0  1  0  0  0  0  0  0
  190.1280  177.3830  137.6200 C   0  0  0  0  0  2  0  0  0  0  0  0
  191.3910  177.3680  139.7690 O   0  0  0  0  0  1  0  0  0  0  0  0
  190.8140  176.6580  138.7260 C   0  0  0  0  0  0  0  0  0  0  0  0
  190.8430  175.3990  138.7300 O   0  0  0  0  0  0  0  0  0  0  0  0
  187.3160  175.0710  137.2220 O   0  0  0  0  0  1  0  0  0  0  0  0
  187.7800  176.3110  136.7840 C   0  0  0  0  0  2  0  0  0  0  0  0
  1  2  2  0  0  0  0
  1  6  1  0  0  0  0
  3  4  2  0  0  0  0
  4  2  1  0  0  0  0
  5  1  1  0  0  0  0
  7 20  1  6  0  0  0
  7  3  1  0  0  0  0
  7  5  1  0  0  0  0
  8  6  2  0  0  0  0
  8  9  1  0  0  0  0
 11 10  1  6  0  0  0
 11  9  1  0  0  0  0
 11 12  1  0  0  0  0
 12 13  1  6  0  0  0
 12 14  1  0  0  0  0
 14 15  1  0  0  0  0
 15 16  1  0  0  0  0
 16 17  3  0  0  0  0
 18 19  1  0  0  0  0
 19 11  1  0  0  0  0
 22 23  1  0  0  0  0
 23 21  2  6  0  0  0
 23 24  1  0  0  0  0
 23 20  1  0  0  0  0
 25 24  1  0  0  0  0
 26 27  1  0  0  0  0
 26 25  1  0  0  0  0
 27 35  1  6  0  0  0
 27 28  1  0  0  0  0
 28 29  1  6  0  0  0
 30 28  1  0  0  0  0
 30 32  1  0  0  0  0
 32 33  2  0  0  0  0
 32 31  1  0  0  0  0
 35 34  1  0  0  0  0
M  END
>  <MODEL>
1

>  <REMARK>
 VINA RESULT:      -6.6      0.000      0.000
  Name = 
  17 active torsions:
  status: ('A' for Active; 'I' for Inactive)
    1  A    between atoms: C_3  and  C_4
    2  A    between atoms: C_3  and  C_21
    3  A    between atoms: C_3  and  C_31
    4  A    between atoms: C_4  and  C_27
    5  A    between atoms: C_5  and  N_30
    6  A    between atoms: C_7  and  C_10
    7  A    between atoms: C_8  and  C_15
    8  A    between atoms: C_10  and  C_19
    9  A    between atoms: C_12  and  C_15
   10  A    between atoms: C_12  and  C_19
   11  A    between atoms: C_15  and  O_33
   12  A    between atoms: O_16  and  P_22
   13  A    between atoms: O_16  and  C_35
   14  A    between atoms: C_18  and  C_21
   15  A    between atoms: C_18  and  C_26
   16  A    between atoms: P_22  and  O_32
   17  A    between atoms: C_27  and  O_32
                            x       y       z     vdW  Elec       q    Type
                         _______ _______ _______ _____ _____    ______ ____

>  <TORSDO>
F 17

$$$$
=
 OpenBabel11062415333D

 35 35  0  0  1  0  0  0  0  0999 V2000
  187.2330  178.1180  138.8080 C   0  0  0  0  0  0  0  0  0  0  0  0
  186.0610  178.4330  139.2820 N   0  0  0  0  0  0  0  0  0  0  0  0
  186.8530  178.7150  141.5370 C   0  0  0  0  0  3  0  0  0  0  0  0
  185.8720  178.8580  140.6420 C   0  0  0  0  0  3  0  0  0  0  0  0
  188.4550  178.3100  139.6700 C   0  0  0  0  0  2  0  0  0  0  0  0
  187.3380  177.7170  137.4330 N   0  0  0  0  0  2  0  0  0  0  0  0
  188.1230  178.0240  141.1340 C   0  0  1  0  0  3  0  0  0  0  0  0
  188.5070  177.2480  136.7440 C   0  0  0  0  0  3  0  0  0  0  0  0
  188.7640  175.9560  136.5430 C   0  0  0  0  0  3  0  0  0  0  0  0
  190.5020  176.4890  134.8070 C   0  0  0  0  0  1  0  0  0  0  0  0
  189.9940  175.4490  135.8230 C   0  0  1  0  0  0  0  0  0  0  0  0
  191.0950  175.2240  136.8810 C   0  0  1  0  0  3  0  0  0  0  0  0
  190.5460  174.7210  138.0640 O   0  0  0  0  0  1  0  0  0  0  0  0
  192.2200  174.3050  136.4160 C   0  0  0  0  0  2  0  0  0  0  0  0
  193.5470  175.0330  136.5130 C   0  0  0  0  0  2  0  0  0  0  0  0
  193.5230  175.9520  137.6510 C   0  0  0  0  0  0  0  0  0  0  0  0
  193.5030  176.6780  138.5510 N   0  0  0  0  0  0  0  0  0  0  0  0
  188.4830  174.1630  134.5940 C   0  0  0  0  0  1  0  0  0  0  0  0
  189.7450  174.1870  135.2180 O   0  0  0  0  0  0  0  0  0  0  0  0
  189.1790  178.4340  141.9510 O   0  0  0  0  0  0  0  0  0  0  0  0
  190.3790  176.1400  141.5300 O   0  0  0  0  0  0  0  0  0  0  0  0
  191.3640  177.4910  144.0080 S   0  0  0  0  0  1  0  0  0  0  0  0
  189.8210  177.0170  142.6320 P   0  0  1  0  0  0  0  0  0  0  0  0
  188.5690  176.2000  143.4340 O   0  0  0  0  0  0  0  0  0  0  0  0
  188.3610  176.8990  144.6270 C   0  0  0  0  0  2  0  0  0  0  0  0
  186.8780  177.1660  144.8190 C   0  0  0  0  0  2  0  0  0  0  0  0
  186.5910  177.6640  146.2300 C   0  0  2  0  0  3  0  0  0  0  0  0
  185.7110  178.9130  146.1630 C   0  0  2  0  0  3  0  0  0  0  0  0
  185.7460  179.6200  147.3680 O   0  0  0  0  0  1  0  0  0  0  0  0
  184.2780  178.5570  145.7940 C   0  0  0  0  0  2  0  0  0  0  0  0
  182.6070  179.0360  144.0070 O   0  0  0  0  0  1  0  0  0  0  0  0
  183.8700  179.2510  144.5400 C   0  0  0  0  0  0  0  0  0  0  0  0
  184.6610  180.0560  143.9810 O   0  0  0  0  0  0  0  0  0  0  0  0
  188.0020  177.0490  148.0690 O   0  0  0  0  0  1  0  0  0  0  0  0
  187.9020  177.9090  146.9750 C   0  0  0  0  0  2  0  0  0  0  0  0
  1  2  2  0  0  0  0
  1  5  1  0  0  0  0
  2  4  1  0  0  0  0
  4  3  2  0  0  0  0
  5  7  1  0  0  0  0
  6  1  1  0  0  0  0
  7  3  1  0  0  0  0
  7 20  1  1  0  0  0
  8  6  1  0  0  0  0
  9  8  2  0  0  0  0
 11 10  1  6  0  0  0
 11  9  1  0  0  0  0
 11 12  1  0  0  0  0
 12 13  1  1  0  0  0
 14 15  1  0  0  0  0
 14 12  1  0  0  0  0
 15 16  1  0  0  0  0
 16 17  3  0  0  0  0
 18 19  1  0  0  0  0
 19 11  1  0  0  0  0
 20 23  1  0  0  0  0
 23 21  2  6  0  0  0
 23 24  1  0  0  0  0
 23 22  1  0  0  0  0
 24 25  1  0  0  0  0
 25 26  1  0  0  0  0
 27 26  1  6  0  0  0
 27 35  1  0  0  0  0
 28 27  1  0  0  0  0
 28 29  1  1  0  0  0
 30 28  1  0  0  0  0
 31 32  1  0  0  0  0
 32 30  1  0  0  0  0
 33 32  2  0  0  0  0
 35 34  1  0  0  0  0
M  END
>  <MODEL>
2

>  <REMARK>
 VINA RESULT:      -6.4      4.101      8.480
  Name = 
  17 active torsions:
  status: ('A' for Active; 'I' for Inactive)
    1  A    between atoms: C_3  and  C_4
    2  A    between atoms: C_3  and  C_21
    3  A    between atoms: C_3  and  C_31
    4  A    between atoms: C_4  and  C_27
    5  A    between atoms: C_5  and  N_30
    6  A    between atoms: C_7  and  C_10
    7  A    between atoms: C_8  and  C_15
    8  A    between atoms: C_10  and  C_19
    9  A    between atoms: C_12  and  C_15
   10  A    between atoms: C_12  and  C_19
   11  A    between atoms: C_15  and  O_33
   12  A    between atoms: O_16  and  P_22
   13  A    between atoms: O_16  and  C_35
   14  A    between atoms: C_18  and  C_21
   15  A    between atoms: C_18  and  C_26
   16  A    between atoms: P_22  and  O_32
   17  A    between atoms: C_27  and  O_32
                            x       y       z     vdW  Elec       q    Type
                         _______ _______ _______ _____ _____    ______ ____

>  <TORSDO>
F 17

$$$$
=
 OpenBabel11062415333D

 35 35  0  0  1  0  0  0  0  0999 V2000
  189.1410  177.8410  138.6410 C   0  0  0  0  0  0  0  0  0  0  0  0
  189.4760  178.0630  137.4020 N   0  0  0  0  0  0  0  0  0  0  0  0
  187.2290  178.5570  136.6970 C   0  0  0  0  0  3  0  0  0  0  0  0
  188.5370  178.5450  136.4270 C   0  0  0  0  0  3  0  0  0  0  0  0
  187.7540  178.2080  139.1080 C   0  0  0  0  0  2  0  0  0  0  0  0
  190.1420  177.3720  139.5570 N   0  0  0  0  0  2  0  0  0  0  0  0
  186.7380  177.9760  137.9910 C   0  0  1  0  0  3  0  0  0  0  0  0
  189.9650  176.9860  140.9270 C   0  0  0  0  0  3  0  0  0  0  0  0
  190.0460  177.8440  141.9430 C   0  0  0  0  0  3  0  0  0  0  0  0
  190.5620  178.4580  144.3250 C   0  0  0  0  0  1  0  0  0  0  0  0
  189.8680  177.4490  143.3920 C   0  0  1  0  0  0  0  0  0  0  0  0
  188.3550  177.4650  143.6970 C   0  0  1  0  0  3  0  0  0  0  0  0
  187.7850  176.2170  143.4300 O   0  0  0  0  0  1  0  0  0  0  0  0
  188.0180  177.8780  145.1270 C   0  0  0  0  0  2  0  0  0  0  0  0
  186.6590  177.3270  145.5110 C   0  0  0  0  0  2  0  0  0  0  0  0
  185.9070  178.3400  146.2520 C   0  0  0  0  0  0  0  0  0  0  0  0
  185.3120  179.1420  146.8360 N   0  0  0  0  0  0  0  0  0  0  0  0
  191.4900  176.1010  144.3910 C   0  0  0  0  0  1  0  0  0  0  0  0
  190.3160  176.1180  143.6150 O   0  0  0  0  0  0  0  0  0  0  0  0
  185.5090  178.5410  138.3400 O   0  0  0  0  0  0  0  0  0  0  0  0
  183.3280  177.9480  137.0080 O   0  0  0  0  0  0  0  0  0  0  0  0
  185.2450  175.6580  137.1100 S   0  0  0  0  0  1  0  0  0  0  0  0
  184.3370  177.3670  137.9770 P   0  0  1  0  0  0  0  0  0  0  0  0
  183.5580  176.9310  139.4210 O   0  0  0  0  0  0  0  0  0  0  0  0
  182.5720  177.9000  139.6290 C   0  0  0  0  0  2  0  0  0  0  0  0
  183.0910  178.9740  140.5710 C   0  0  0  0  0  2  0  0  0  0  0  0
  183.3580  178.4010  141.9570 C   0  0  2  0  0  3  0  0  0  0  0  0
  182.4050  179.0420  142.9670 C   0  0  2  0  0  3  0  0  0  0  0  0
  182.7710  178.7240  144.2790 O   0  0  0  0  0  1  0  0  0  0  0  0
  180.9640  178.6310  142.7010 C   0  0  0  0  0  2  0  0  0  0  0  0
  180.0050  180.7480  141.8000 O   0  0  0  0  0  0  0  0  0  0  0  0
  180.0530  179.8050  142.8160 C   0  0  0  0  0  0  0  0  0  0  0  0
  179.3050  179.9240  143.8210 O   0  0  0  0  0  1  0  0  0  0  0  0
  185.4000  179.5850  141.5320 O   0  0  0  0  0  1  0  0  0  0  0  0
  184.8270  178.5960  142.3300 C   0  0  0  0  0  2  0  0  0  0  0  0
  1  5  1  0  0  0  0
  1  6  1  0  0  0  0
  2  1  2  0  0  0  0
  3  7  1  0  0  0  0
  4  3  2  0  0  0  0
  4  2  1  0  0  0  0
  6  8  1  0  0  0  0
  7 20  1  1  0  0  0
  7  5  1  0  0  0  0
  8  9  2  0  0  0  0
  9 11  1  0  0  0  0
 11 19  1  0  0  0  0
 11 12  1  0  0  0  0
 11 10  1  1  0  0  0
 12 13  1  1  0  0  0
 12 14  1  0  0  0  0
 14 15  1  0  0  0  0
 15 16  1  0  0  0  0
 16 17  3  0  0  0  0
 19 18  1  0  0  0  0
 22 23  1  0  0  0  0
 23 21  2  6  0  0  0
 23 20  1  0  0  0  0
 23 24  1  0  0  0  0
 24 25  1  0  0  0  0
 25 26  1  0  0  0  0
 27 26  1  6  0  0  0
 27 35  1  0  0  0  0
 27 28  1  0  0  0  0
 28 29  1  1  0  0  0
 30 32  1  0  0  0  0
 30 28  1  0  0  0  0
 31 32  2  0  0  0  0
 32 33  1  0  0  0  0
 34 35  1  0  0  0  0
M  END
>  <MODEL>
3

>  <REMARK>
 VINA RESULT:      -6.3      2.858      6.517
  Name = 
  17 active torsions:
  status: ('A' for Active; 'I' for Inactive)
    1  A    between atoms: C_3  and  C_4
    2  A    between atoms: C_3  and  C_21
    3  A    between atoms: C_3  and  C_31
    4  A    between atoms: C_4  and  C_27
    5  A    between atoms: C_5  and  N_30
    6  A    between atoms: C_7  and  C_10
    7  A    between atoms: C_8  and  C_15
    8  A    between atoms: C_10  and  C_19
    9  A    between atoms: C_12  and  C_15
   10  A    between atoms: C_12  and  C_19
   11  A    between atoms: C_15  and  O_33
   12  A    between atoms: O_16  and  P_22
   13  A    between atoms: O_16  and  C_35
   14  A    between atoms: C_18  and  C_21
   15  A    between atoms: C_18  and  C_26
   16  A    between atoms: P_22  and  O_32
   17  A    between atoms: C_27  and  O_32
                            x       y       z     vdW  Elec       q    Type
                         _______ _______ _______ _____ _____    ______ ____

>  <TORSDO>
F 17

$$$$
=
 OpenBabel11062415333D

 35 35  0  0  1  0  0  0  0  0999 V2000
  189.5010  177.4240  138.3560 C   0  0  0  0  0  0  0  0  0  0  0  0
  189.9180  177.6780  137.1480 N   0  0  0  0  0  0  0  0  0  0  0  0
  187.7050  177.7300  136.2050 C   0  0  0  0  0  3  0  0  0  0  0  0
  189.0130  177.9570  136.0670 C   0  0  0  0  0  3  0  0  0  0  0  0
  188.0300  177.5360  138.6690 C   0  0  0  0  0  2  0  0  0  0  0  0
  190.4700  177.1690  139.3840 N   0  0  0  0  0  2  0  0  0  0  0  0
  187.1950  177.0960  137.4670 C   0  0  1  0  0  3  0  0  0  0  0  0
  190.2250  176.7850  140.7440 C   0  0  0  0  0  3  0  0  0  0  0  0
  190.1830  177.6560  141.7510 C   0  0  0  0  0  3  0  0  0  0  0  0
  190.5540  178.2900  144.1550 C   0  0  0  0  0  1  0  0  0  0  0  0
  189.9310  177.2640  143.1900 C   0  0  1  0  0  0  0  0  0  0  0  0
  188.4040  177.2530  143.4110 C   0  0  1  0  0  3  0  0  0  0  0  0
  187.8850  175.9720  143.2080 O   0  0  0  0  0  1  0  0  0  0  0  0
  187.9750  177.7600  144.7850 C   0  0  0  0  0  2  0  0  0  0  0  0
  186.5650  177.2900  145.0850 C   0  0  0  0  0  2  0  0  0  0  0  0
  185.8120  178.3670  145.7290 C   0  0  0  0  0  0  0  0  0  0  0  0
  185.2190  179.2210  146.2360 N   0  0  0  0  0  0  0  0  0  0  0  0
  191.6380  175.9550  144.0970 C   0  0  0  0  0  1  0  0  0  0  0  0
  190.3900  175.9430  143.4450 O   0  0  0  0  0  0  0  0  0  0  0  0
  185.8550  177.4280  137.6700 O   0  0  0  0  0  0  0  0  0  0  0  0
  184.3800  176.4850  135.7160 O   0  0  0  0  0  0  0  0  0  0  0  0
  186.1830  174.4020  136.8760 S   0  0  0  0  0  1  0  0  0  0  0  0
  184.9530  176.1200  137.0690 P   0  0  1  0  0  0  0  0  0  0  0  0
  183.6910  175.8010  138.1580 O   0  0  0  0  0  0  0  0  0  0  0  0
  182.6380  176.6370  137.7750 C   0  0  0  0  0  2  0  0  0  0  0  0
  182.1960  177.4870  138.9550 C   0  0  0  0  0  2  0  0  0  0  0  0
  182.5390  178.9540  138.7300 C   0  0  2  0  0  3  0  0  0  0  0  0
  183.5210  179.4190  139.8060 C   0  0  2  0  0  3  0  0  0  0  0  0
  184.6320  180.0490  139.2360 O   0  0  0  0  0  1  0  0  0  0  0  0
  183.9600  178.2600  140.6900 C   0  0  0  0  0  2  0  0  0  0  0  0
  185.5780  179.3300  142.2550 O   0  0  0  0  0  0  0  0  0  0  0  0
  184.3360  178.7470  142.0460 C   0  0  0  0  0  0  0  0  0  0  0  0
  183.5150  178.6570  142.9970 O   0  0  0  0  0  1  0  0  0  0  0  0
  181.5520  181.0970  138.3040 O   0  0  0  0  0  1  0  0  0  0  0  0
  181.2620  179.7920  138.6990 C   0  0  0  0  0  2  0  0  0  0  0  0
  1  5  1  0  0  0  0
  1  6  1  0  0  0  0
  2  1  2  0  0  0  0
  3  7  1  0  0  0  0
  4  3  2  0  0  0  0
  4  2  1  0  0  0  0
  6  8  1  0  0  0  0
  7 20  1  1  0  0  0
  7  5  1  0  0  0  0
  8  9  2  0  0  0  0
  9 11  1  0  0  0  0
 11 12  1  0  0  0  0
 11 19  1  0  0  0  0
 11 10  1  1  0  0  0
 12 13  1  1  0  0  0
 12 14  1  0  0  0  0
 14 15  1  0  0  0  0
 15 16  1  0  0  0  0
 16 17  3  0  0  0  0
 19 18  1  0  0  0  0
 22 23  1  0  0  0  0
 23 21  2  6  0  0  0
 23 20  1  0  0  0  0
 23 24  1  0  0  0  0
 25 24  1  0  0  0  0
 25 26  1  0  0  0  0
 27 35  1  1  0  0  0
 27 26  1  0  0  0  0
 27 28  1  0  0  0  0
 28 29  1  6  0  0  0
 28 30  1  0  0  0  0
 30 32  1  0  0  0  0
 32 31  2  0  0  0  0
 32 33  1  0  0  0  0
 34 35  1  0  0  0  0
M  END
>  <MODEL>
4

>  <REMARK>
 VINA RESULT:      -6.1      3.056      5.871
  Name = 
  17 active torsions:
  status: ('A' for Active; 'I' for Inactive)
    1  A    between atoms: C_3  and  C_4
    2  A    between atoms: C_3  and  C_21
    3  A    between atoms: C_3  and  C_31
    4  A    between atoms: C_4  and  C_27
    5  A    between atoms: C_5  and  N_30
    6  A    between atoms: C_7  and  C_10
    7  A    between atoms: C_8  and  C_15
    8  A    between atoms: C_10  and  C_19
    9  A    between atoms: C_12  and  C_15
   10  A    between atoms: C_12  and  C_19
   11  A    between atoms: C_15  and  O_33
   12  A    between atoms: O_16  and  P_22
   13  A    between atoms: O_16  and  C_35
   14  A    between atoms: C_18  and  C_21
   15  A    between atoms: C_18  and  C_26
   16  A    between atoms: P_22  and  O_32
   17  A    between atoms: C_27  and  O_32
                            x       y       z     vdW  Elec       q    Type
                         _______ _______ _______ _____ _____    ______ ____

>  <TORSDO>
F 17

$$$$
=
 OpenBabel11062415333D

 35 35  0  0  1  0  0  0  0  0999 V2000
  183.3820  178.9040  144.1460 C   0  0  0  0  0  0  0  0  0  0  0  0
  183.7620  178.7680  145.3850 N   0  0  0  0  0  0  0  0  0  0  0  0
  186.0820  178.4580  144.8250 C   0  0  0  0  0  3  0  0  0  0  0  0
  185.1460  178.6620  145.7560 C   0  0  0  0  0  3  0  0  0  0  0  0
  184.4240  179.0740  143.0690 C   0  0  0  0  0  2  0  0  0  0  0  0
  181.9800  179.0180  143.8600 N   0  0  0  0  0  2  0  0  0  0  0  0
  185.6680  178.2500  143.3970 C   0  0  1  0  0  3  0  0  0  0  0  0
  181.3500  179.0840  142.5720 C   0  0  0  0  0  3  0  0  0  0  0  0
  181.2410  178.0340  141.7600 C   0  0  0  0  0  3  0  0  0  0  0  0
  180.6330  179.5220  139.8280 C   0  0  0  0  0  1  0  0  0  0  0  0
  180.5850  178.0920  140.3980 C   0  0  1  0  0  0  0  0  0  0  0  0
  181.3820  177.1660  139.4560 C   0  0  1  0  0  3  0  0  0  0  0  0
  181.3000  177.6160  138.1360 O   0  0  0  0  0  1  0  0  0  0  0  0
  182.8490  177.0040  139.8440 C   0  0  0  0  0  2  0  0  0  0  0  0
  183.7320  177.5730  138.7520 C   0  0  0  0  0  2  0  0  0  0  0  0
  184.2990  178.8500  139.1900 C   0  0  0  0  0  0  0  0  0  0  0  0
  184.7440  179.8600  139.5360 N   0  0  0  0  0  0  0  0  0  0  0  0
  179.2510  176.2320  140.8550 C   0  0  0  0  0  1  0  0  0  0  0  0
  179.2600  177.5810  140.4490 O   0  0  0  0  0  0  0  0  0  0  0  0
  186.7100  178.5960  142.5350 O   0  0  0  0  0  0  0  0  0  0  0  0
  187.4250  176.2050  143.3430 O   0  0  0  0  0  0  0  0  0  0  0  0
  189.2220  177.2550  141.1980 S   0  0  0  0  0  1  0  0  0  0  0  0
  187.9890  177.5390  142.9000 P   0  0  1  0  0  0  0  0  0  0  0  0
  188.8990  178.2220  144.1600 O   0  0  0  0  0  0  0  0  0  0  0  0
  190.1290  178.5710  143.5950 C   0  0  0  0  0  2  0  0  0  0  0  0
  191.2610  178.1600  144.5220 C   0  0  0  0  0  2  0  0  0  0  0  0
  190.9690  176.8170  145.1770 C   0  0  2  0  0  3  0  0  0  0  0  0
  191.2470  176.9090  146.6790 C   0  0  2  0  0  3  0  0  0  0  0  0
  192.4570  176.2890  147.0070 O   0  0  0  0  0  1  0  0  0  0  0  0
  190.1050  176.3120  147.4870 C   0  0  0  0  0  2  0  0  0  0  0  0
  189.3480  178.5520  148.2760 O   0  0  0  0  0  1  0  0  0  0  0  0
  189.0350  177.3240  147.7110 C   0  0  0  0  0  0  0  0  0  0  0  0
  187.8510  177.0760  147.3590 O   0  0  0  0  0  0  0  0  0  0  0  0
  191.0810  175.2100  143.4010 O   0  0  0  0  0  1  0  0  0  0  0  0
  191.7800  175.7150  144.4970 C   0  0  0  0  0  2  0  0  0  0  0  0
  1  2  2  0  0  0  0
  2  4  1  0  0  0  0
  3  4  2  0  0  0  0
  5  7  1  0  0  0  0
  5  1  1  0  0  0  0
  6  1  1  0  0  0  0
  7 20  1  6  0  0  0
  7  3  1  0  0  0  0
  8  6  1  0  0  0  0
  9  8  2  0  0  0  0
 11 10  1  6  0  0  0
 11 19  1  0  0  0  0
 11  9  1  0  0  0  0
 12 13  1  6  0  0  0
 12 14  1  0  0  0  0
 12 11  1  0  0  0  0
 15 16  1  0  0  0  0
 15 14  1  0  0  0  0
 16 17  3  0  0  0  0
 19 18  1  0  0  0  0
 20 23  1  0  0  0  0
 23 22  1  6  0  0  0
 23 21  2  0  0  0  0
 23 24  1  0  0  0  0
 25 24  1  0  0  0  0
 25 26  1  0  0  0  0
 26 27  1  0  0  0  0
 27 35  1  6  0  0  0
 27 28  1  0  0  0  0
 28 29  1  6  0  0  0
 28 30  1  0  0  0  0
 30 32  1  0  0  0  0
 32 31  1  0  0  0  0
 33 32  2  0  0  0  0
 34 35  1  0  0  0  0
M  END
>  <MODEL>
5

>  <REMARK>
 VINA RESULT:      -6.1      3.775      8.102
  Name = 
  17 active torsions:
  status: ('A' for Active; 'I' for Inactive)
    1  A    between atoms: C_3  and  C_4
    2  A    between atoms: C_3  and  C_21
    3  A    between atoms: C_3  and  C_31
    4  A    between atoms: C_4  and  C_27
    5  A    between atoms: C_5  and  N_30
    6  A    between atoms: C_7  and  C_10
    7  A    between atoms: C_8  and  C_15
    8  A    between atoms: C_10  and  C_19
    9  A    between atoms: C_12  and  C_15
   10  A    between atoms: C_12  and  C_19
   11  A    between atoms: C_15  and  O_33
   12  A    between atoms: O_16  and  P_22
   13  A    between atoms: O_16  and  C_35
   14  A    between atoms: C_18  and  C_21
   15  A    between atoms: C_18  and  C_26
   16  A    between atoms: P_22  and  O_32
   17  A    between atoms: C_27  and  O_32
                            x       y       z     vdW  Elec       q    Type
                         _______ _______ _______ _____ _____    ______ ____

>  <TORSDO>
F 17

$$$$
=
 OpenBabel11062415333D

 35 35  0  0  1  0  0  0  0  0999 V2000
  187.5300  178.0590  138.4940 C   0  0  0  0  0  0  0  0  0  0  0  0
  186.3050  178.3640  138.8160 N   0  0  0  0  0  0  0  0  0  0  0  0
  186.8110  178.6900  141.1460 C   0  0  0  0  0  3  0  0  0  0  0  0
  185.9460  178.8050  140.1350 C   0  0  0  0  0  3  0  0  0  0  0  0
  188.6350  178.2820  139.4960 C   0  0  0  0  0  2  0  0  0  0  0  0
  187.8090  177.6390  137.1500 N   0  0  0  0  0  2  0  0  0  0  0  0
  188.1300  178.0120  140.9130 C   0  0  1  0  0  3  0  0  0  0  0  0
  189.0590  177.1770  136.6170 C   0  0  0  0  0  3  0  0  0  0  0  0
  189.3850  175.8880  136.5360 C   0  0  0  0  0  3  0  0  0  0  0  0
  191.1090  176.1920  134.7330 C   0  0  0  0  0  1  0  0  0  0  0  0
  190.7010  175.3890  135.9820 C   0  0  1  0  0  0  0  0  0  0  0  0
  191.7750  175.6000  137.0690 C   0  0  1  0  0  3  0  0  0  0  0  0
  191.4280  174.9260  138.2430 O   0  0  0  0  0  1  0  0  0  0  0  0
  193.1780  175.1770  136.6410 C   0  0  0  0  0  2  0  0  0  0  0  0
  193.6600  174.0420  137.5220 C   0  0  0  0  0  2  0  0  0  0  0  0
  194.8670  174.4520  138.2400 C   0  0  0  0  0  0  0  0  0  0  0  0
  195.8220  174.7790  138.8060 N   0  0  0  0  0  0  0  0  0  0  0  0
  189.3330  173.5780  135.4360 C   0  0  0  0  0  1  0  0  0  0  0  0
  190.6470  173.9910  135.7260 O   0  0  0  0  0  0  0  0  0  0  0  0
  189.0720  178.4510  141.8460 O   0  0  0  0  0  0  0  0  0  0  0  0
  190.2100  176.1220  141.4410 O   0  0  0  0  0  0  0  0  0  0  0  0
  191.3570  177.5410  143.8080 S   0  0  0  0  0  1  0  0  0  0  0  0
  189.7300  177.0470  142.5400 P   0  0  1  0  0  0  0  0  0  0  0  0
  188.5130  176.2800  143.4410 O   0  0  0  0  0  0  0  0  0  0  0  0
  188.0810  177.2240  144.3780 C   0  0  0  0  0  2  0  0  0  0  0  0
  186.5630  177.2410  144.4350 C   0  0  0  0  0  2  0  0  0  0  0  0
  186.0600  178.4410  145.2250 C   0  0  2  0  0  3  0  0  0  0  0  0
  185.9780  178.0780  146.7100 C   0  0  2  0  0  3  0  0  0  0  0  0
  184.6940  178.3060  147.2150 O   0  0  0  0  0  1  0  0  0  0  0  0
  187.0140  178.8420  147.5200 C   0  0  0  0  0  2  0  0  0  0  0  0
  188.7970  178.3320  149.1860 O   0  0  0  0  0  1  0  0  0  0  0  0
  187.9940  177.9050  148.1380 C   0  0  0  0  0  0  0  0  0  0  0  0
  188.0710  176.7170  147.7290 O   0  0  0  0  0  0  0  0  0  0  0  0
  184.3980  178.1930  143.5140 O   0  0  0  0  0  1  0  0  0  0  0  0
  184.7210  178.9150  144.6630 C   0  0  0  0  0  2  0  0  0  0  0  0
  1  2  2  0  0  0  0
  1  5  1  0  0  0  0
  2  4  1  0  0  0  0
  4  3  2  0  0  0  0
  5  7  1  0  0  0  0
  6  1  1  0  0  0  0
  7  3  1  0  0  0  0
  7 20  1  1  0  0  0
  8  6  1  0  0  0  0
  9  8  2  0  0  0  0
 11 10  1  6  0  0  0
 11  9  1  0  0  0  0
 11 12  1  0  0  0  0
 12 13  1  1  0  0  0
 14 12  1  0  0  0  0
 14 15  1  0  0  0  0
 15 16  1  0  0  0  0
 16 17  3  0  0  0  0
 18 19  1  0  0  0  0
 19 11  1  0  0  0  0
 20 23  1  0  0  0  0
 23 21  2  6  0  0  0
 23 24  1  0  0  0  0
 23 22  1  0  0  0  0
 24 25  1  0  0  0  0
 25 26  1  0  0  0  0
 27 26  1  6  0  0  0
 27 28  1  0  0  0  0
 28 29  1  1  0  0  0
 28 30  1  0  0  0  0
 30 32  1  0  0  0  0
 32 31  1  0  0  0  0
 33 32  2  0  0  0  0
 34 35  1  0  0  0  0
 35 27  1  0  0  0  0
M  END
>  <MODEL>
6

>  <REMARK>
 VINA RESULT:      -6.1      4.224      8.328
  Name = 
  17 active torsions:
  status: ('A' for Active; 'I' for Inactive)
    1  A    between atoms: C_3  and  C_4
    2  A    between atoms: C_3  and  C_21
    3  A    between atoms: C_3  and  C_31
    4  A    between atoms: C_4  and  C_27
    5  A    between atoms: C_5  and  N_30
    6  A    between atoms: C_7  and  C_10
    7  A    between atoms: C_8  and  C_15
    8  A    between atoms: C_10  and  C_19
    9  A    between atoms: C_12  and  C_15
   10  A    between atoms: C_12  and  C_19
   11  A    between atoms: C_15  and  O_33
   12  A    between atoms: O_16  and  P_22
   13  A    between atoms: O_16  and  C_35
   14  A    between atoms: C_18  and  C_21
   15  A    between atoms: C_18  and  C_26
   16  A    between atoms: P_22  and  O_32
   17  A    between atoms: C_27  and  O_32
                            x       y       z     vdW  Elec       q    Type
                         _______ _______ _______ _____ _____    ______ ____

>  <TORSDO>
F 17

$$$$
=
 OpenBabel11062415333D

 35 35  0  0  1  0  0  0  0  0999 V2000
  186.0280  178.1750  144.5620 C   0  0  0  0  0  0  0  0  0  0  0  0
  185.1580  178.8610  145.2470 N   0  0  0  0  0  0  0  0  0  0  0  0
  183.5290  178.8980  143.4750 C   0  0  0  0  0  3  0  0  0  0  0  0
  183.8360  179.1330  144.7540 C   0  0  0  0  0  3  0  0  0  0  0  0
  185.6100  177.5420  143.2580 C   0  0  0  0  0  2  0  0  0  0  0  0
  187.3240  177.9350  145.1320 N   0  0  0  0  0  2  0  0  0  0  0  0
  184.6020  178.4340  142.5340 C   0  0  1  0  0  3  0  0  0  0  0  0
  188.4460  177.2880  144.5150 C   0  0  0  0  0  3  0  0  0  0  0  0
  189.0830  177.7850  143.4560 C   0  0  0  0  0  3  0  0  0  0  0  0
  190.2130  175.5850  143.0070 C   0  0  0  0  0  1  0  0  0  0  0  0
  190.2640  177.1100  142.7940 C   0  0  1  0  0  0  0  0  0  0  0  0
  190.1750  177.3940  141.2800 C   0  0  1  0  0  3  0  0  0  0  0  0
  190.6350  176.2980  140.5450 O   0  0  0  0  0  1  0  0  0  0  0  0
  188.7750  177.7700  140.8030 C   0  0  0  0  0  2  0  0  0  0  0  0
  188.8540  178.3840  139.4200 C   0  0  0  0  0  2  0  0  0  0  0  0
  188.3010  177.4540  138.4340 C   0  0  0  0  0  0  0  0  0  0  0  0
  187.8610  176.7200  137.6550 N   0  0  0  0  0  0  0  0  0  0  0  0
  191.3030  178.9860  143.7160 C   0  0  0  0  0  1  0  0  0  0  0  0
  191.4900  177.6720  143.2440 O   0  0  0  0  0  0  0  0  0  0  0  0
  184.0390  177.7410  141.4600 O   0  0  0  0  0  0  0  0  0  0  0  0
  185.5020  179.5460  140.2420 O   0  0  0  0  0  0  0  0  0  0  0  0
  184.2890  177.5970  138.3280 S   0  0  0  0  0  1  0  0  0  0  0  0
  184.2200  178.7510  140.1060 P   0  0  1  0  0  0  0  0  0  0  0  0
  182.8940  179.8080  140.0520 O   0  0  0  0  0  0  0  0  0  0  0  0
  182.0040  179.2560  139.1260 C   0  0  0  0  0  2  0  0  0  0  0  0
  180.5800  179.3710  139.6430 C   0  0  0  0  0  2  0  0  0  0  0  0
  180.4310  178.6790  140.9910 C   0  0  2  0  0  3  0  0  0  0  0  0
  179.3300  177.6200  140.9040 C   0  0  2  0  0  3  0  0  0  0  0  0
  179.3360  176.7930  142.0310 O   0  0  0  0  0  1  0  0  0  0  0  0
  179.4620  176.7930  139.6340 C   0  0  0  0  0  2  0  0  0  0  0  0
  179.7060  174.3570  140.1020 O   0  0  0  0  0  1  0  0  0  0  0  0
  180.3040  175.5880  139.8770 C   0  0  0  0  0  0  0  0  0  0  0  0
  181.5590  175.6820  139.8470 O   0  0  0  0  0  0  0  0  0  0  0  0
  179.8240  180.9380  141.5150 O   0  0  0  0  0  1  0  0  0  0  0  0
  180.1670  179.7130  142.0850 C   0  0  0  0  0  2  0  0  0  0  0  0
  1  6  1  0  0  0  0
  1  2  2  0  0  0  0
  3  4  2  0  0  0  0
  4  2  1  0  0  0  0
  5  1  1  0  0  0  0
  7 20  1  6  0  0  0
  7  5  1  0  0  0  0
  7  3  1  0  0  0  0
  8  6  1  0  0  0  0
  9  8  2  0  0  0  0
 11 10  1  1  0  0  0
 11 19  1  0  0  0  0
 11  9  1  0  0  0  0
 12 13  1  6  0  0  0
 12 11  1  0  0  0  0
 14 12  1  0  0  0  0
 15 14  1  0  0  0  0
 16 15  1  0  0  0  0
 17 16  3  0  0  0  0
 19 18  1  0  0  0  0
 23 22  1  6  0  0  0
 23 21  2  0  0  0  0
 23 20  1  0  0  0  0
 24 23  1  0  0  0  0
 25 26  1  0  0  0  0
 25 24  1  0  0  0  0
 27 26  1  6  0  0  0
 27 35  1  0  0  0  0
 28 27  1  0  0  0  0
 28 29  1  1  0  0  0
 30 32  1  0  0  0  0
 30 28  1  0  0  0  0
 32 31  1  0  0  0  0
 33 32  2  0  0  0  0
 34 35  1  0  0  0  0
M  END
>  <MODEL>
7

>  <REMARK>
 VINA RESULT:      -6.0      2.556      6.494
  Name = 
  17 active torsions:
  status: ('A' for Active; 'I' for Inactive)
    1  A    between atoms: C_3  and  C_4
    2  A    between atoms: C_3  and  C_21
    3  A    between atoms: C_3  and  C_31
    4  A    between atoms: C_4  and  C_27
    5  A    between atoms: C_5  and  N_30
    6  A    between atoms: C_7  and  C_10
    7  A    between atoms: C_8  and  C_15
    8  A    between atoms: C_10  and  C_19
    9  A    between atoms: C_12  and  C_15
   10  A    between atoms: C_12  and  C_19
   11  A    between atoms: C_15  and  O_33
   12  A    between atoms: O_16  and  P_22
   13  A    between atoms: O_16  and  C_35
   14  A    between atoms: C_18  and  C_21
   15  A    between atoms: C_18  and  C_26
   16  A    between atoms: P_22  and  O_32
   17  A    between atoms: C_27  and  O_32
                            x       y       z     vdW  Elec       q    Type
                         _______ _______ _______ _____ _____    ______ ____

>  <TORSDO>
F 17

$$$$
=
 OpenBabel11062415333D

 35 35  0  0  1  0  0  0  0  0999 V2000
  187.4050  178.2750  138.2090 C   0  0  0  0  0  0  0  0  0  0  0  0
  188.3190  178.8950  137.5170 N   0  0  0  0  0  0  0  0  0  0  0  0
  190.1530  177.8610  138.6830 C   0  0  0  0  0  3  0  0  0  0  0  0
  189.7190  178.6050  137.6630 C   0  0  0  0  0  3  0  0  0  0  0  0
  187.8070  177.1360  139.1110 C   0  0  0  0  0  2  0  0  0  0  0  0
  186.0270  178.6140  137.9950 N   0  0  0  0  0  0  0  0  0  0  0  0
  189.1790  177.4040  139.7290 C   0  0  1  0  0  3  0  0  0  0  0  0
  184.8820  178.1220  138.7070 C   0  0  0  0  0  3  0  0  0  0  0  0
  183.6770  178.6840  138.6270 C   0  0  0  0  0  2  0  0  0  0  0  0
  182.6470  176.7040  139.7830 C   0  0  0  0  0  1  0  0  0  0  0  0
  182.4640  178.1790  139.3760 C   0  0  1  0  0  0  0  0  0  0  0  0
  182.3220  179.0240  140.6590 C   0  0  1  0  0  3  0  0  0  0  0  0
  181.0940  179.6900  140.6780 O   0  0  0  0  0  1  0  0  0  0  0  0
  182.4820  178.2220  141.9480 C   0  0  0  0  0  2  0  0  0  0  0  0
  183.3860  178.9710  142.9060 C   0  0  0  0  0  2  0  0  0  0  0  0
  184.6870  179.2040  142.2780 C   0  0  0  0  0  0  0  0  0  0  0  0
  185.7160  179.3910  141.7830 N   0  0  0  0  0  0  0  0  0  0  0  0
  181.5750  178.6410  137.2680 C   0  0  0  0  0  1  0  0  0  0  0  0
  181.2780  178.3820  138.6200 O   0  0  0  0  0  0  0  0  0  0  0  0
  189.6500  176.2520  140.3620 O   0  0  0  0  0  0  0  0  0  0  0  0
  189.9350  175.4400  142.8400 O   0  0  0  0  0  0  0  0  0  0  0  0
  191.7790  177.6960  142.1730 S   0  0  0  0  0  1  0  0  0  0  0  0
  189.9230  176.6870  141.9810 P   0  0  1  0  0  0  0  0  0  0  0  0
  188.6610  177.7090  142.4750 O   0  0  0  0  0  0  0  0  0  0  0  0
  188.2290  177.2120  143.7070 C   0  0  0  0  0  2  0  0  0  0  0  0
  188.9610  177.9170  144.8370 C   0  0  0  0  0  2  0  0  0  0  0  0
  188.8380  177.1360  146.1390 C   0  0  2  0  0  3  0  0  0  0  0  0
  187.8130  177.8150  147.0480 C   0  0  2  0  0  3  0  0  0  0  0  0
  187.9870  177.4290  148.3810 O   0  0  0  0  0  1  0  0  0  0  0  0
  186.3920  177.5230  146.5900 C   0  0  0  0  0  2  0  0  0  0  0  0
  186.0550  179.8940  147.2810 O   0  0  0  0  0  1  0  0  0  0  0  0
  185.5120  178.7030  146.8220 C   0  0  0  0  0  0  0  0  0  0  0  0
  184.2800  178.6270  146.5710 O   0  0  0  0  0  0  0  0  0  0  0  0
  191.2100  176.9720  145.8280 O   0  0  0  0  0  1  0  0  0  0  0  0
  190.2090  176.9990  146.7990 C   0  0  0  0  0  2  0  0  0  0  0  0
  1  5  1  0  0  0  0
  2  4  1  0  0  0  0
  2  1  2  0  0  0  0
  3  7  1  0  0  0  0
  4  3  2  0  0  0  0
  5  7  1  0  0  0  0
  6  1  1  0  0  0  0
  6  8  2  0  0  0  0
  7 20  1  6  0  0  0
  9  8  1  0  0  0  0
  9 11  1  0  0  0  0
 11 10  1  1  0  0  0
 11 12  1  0  0  0  0
 12 13  1  1  0  0  0
 12 14  1  0  0  0  0
 14 15  1  0  0  0  0
 16 15  1  0  0  0  0
 17 16  3  0  0  0  0
 18 19  1  0  0  0  0
 19 11  1  0  0  0  0
 20 23  1  0  0  0  0
 23 22  1  1  0  0  0
 23 24  1  0  0  0  0
 23 21  2  0  0  0  0
 24 25  1  0  0  0  0
 25 26  1  0  0  0  0
 27 26  1  6  0  0  0
 27 35  1  0  0  0  0
 27 28  1  0  0  0  0
 28 29  1  1  0  0  0
 30 32  1  0  0  0  0
 30 28  1  0  0  0  0
 32 31  1  0  0  0  0
 33 32  2  0  0  0  0
 34 35  1  0  0  0  0
M  END
>  <MODEL>
8

>  <REMARK>
 VINA RESULT:      -6.0      3.589      8.543
  Name = 
  17 active torsions:
  status: ('A' for Active; 'I' for Inactive)
    1  A    between atoms: C_3  and  C_4
    2  A    between atoms: C_3  and  C_21
    3  A    between atoms: C_3  and  C_31
    4  A    between atoms: C_4  and  C_27
    5  A    between atoms: C_5  and  N_30
    6  A    between atoms: C_7  and  C_10
    7  A    between atoms: C_8  and  C_15
    8  A    between atoms: C_10  and  C_19
    9  A    between atoms: C_12  and  C_15
   10  A    between atoms: C_12  and  C_19
   11  A    between atoms: C_15  and  O_33
   12  A    between atoms: O_16  and  P_22
   13  A    between atoms: O_16  and  C_35
   14  A    between atoms: C_18  and  C_21
   15  A    between atoms: C_18  and  C_26
   16  A    between atoms: P_22  and  O_32
   17  A    between atoms: C_27  and  O_32
                            x       y       z     vdW  Elec       q    Type
                         _______ _______ _______ _____ _____    ______ ____

>  <TORSDO>
F 17

$$$$
=
 OpenBabel11062415333D

 35 35  0  0  1  0  0  0  0  0999 V2000
  183.7700  178.3500  141.1050 C   0  0  0  0  0  0  0  0  0  0  0  0
  183.4330  178.5830  142.3410 N   0  0  0  0  0  0  0  0  0  0  0  0
  185.6820  179.0660  143.0500 C   0  0  0  0  0  3  0  0  0  0  0  0
  184.3730  179.0660  143.3150 C   0  0  0  0  0  3  0  0  0  0  0  0
  185.1600  178.7040  140.6390 C   0  0  0  0  0  2  0  0  0  0  0  0
  182.7680  177.8820  140.1900 N   0  0  0  0  0  2  0  0  0  0  0  0
  186.1720  178.4730  141.7610 C   0  0  1  0  0  3  0  0  0  0  0  0
  182.9460  177.4840  138.8230 C   0  0  0  0  0  3  0  0  0  0  0  0
  183.4160  176.2900  138.4670 C   0  0  0  0  0  3  0  0  0  0  0  0
  182.9510  176.8590  136.0630 C   0  0  0  0  0  1  0  0  0  0  0  0
  183.6140  175.8600  137.0300 C   0  0  1  0  0  0  0  0  0  0  0  0
  185.1310  175.8460  136.7510 C   0  0  1  0  0  3  0  0  0  0  0  0
  185.4430  174.9070  135.7650 O   0  0  0  0  0  1  0  0  0  0  0  0
  185.6980  177.2060  136.3510 C   0  0  0  0  0  2  0  0  0  0  0  0
  187.2100  177.1280  136.2780 C   0  0  0  0  0  2  0  0  0  0  0  0
  187.7960  178.3150  136.9000 C   0  0  0  0  0  0  0  0  0  0  0  0
  188.2580  179.2550  137.3920 N   0  0  0  0  0  0  0  0  0  0  0  0
  182.2250  174.4730  135.7670 C   0  0  0  0  0  1  0  0  0  0  0  0
  183.1490  174.5320  136.8280 O   0  0  0  0  0  0  0  0  0  0  0  0
  187.4060  179.0250  141.4110 O   0  0  0  0  0  0  0  0  0  0  0  0
  187.8900  176.6830  142.4880 O   0  0  0  0  0  0  0  0  0  0  0  0
  189.6610  177.2340  140.1450 S   0  0  0  0  0  1  0  0  0  0  0  0
  188.5750  177.8740  141.8510 P   0  0  1  0  0  0  0  0  0  0  0  0
  189.6320  178.5910  142.9680 O   0  0  0  0  0  0  0  0  0  0  0  0
  189.8710  177.6200  143.9430 C   0  0  0  0  0  2  0  0  0  0  0  0
  189.7660  178.2370  145.3280 C   0  0  0  0  0  2  0  0  0  0  0  0
  189.2750  177.2160  146.3450 C   0  0  2  0  0  3  0  0  0  0  0  0
  188.1190  177.8130  147.1510 C   0  0  2  0  0  3  0  0  0  0  0  0
  188.0180  177.2100  148.4090 O   0  0  0  0  0  1  0  0  0  0  0  0
  186.8030  177.6950  146.3960 C   0  0  0  0  0  2  0  0  0  0  0  0
  186.1850  179.7570  147.6520 O   0  0  0  0  0  1  0  0  0  0  0  0
  185.7840  178.6180  146.9680 C   0  0  0  0  0  0  0  0  0  0  0  0
  184.5580  178.3810  146.8050 O   0  0  0  0  0  0  0  0  0  0  0  0
  191.6490  177.1680  146.6810 O   0  0  0  0  0  1  0  0  0  0  0  0
  190.4340  176.7600  147.2300 C   0  0  0  0  0  2  0  0  0  0  0  0
  1  2  2  0  0  0  0
  2  4  1  0  0  0  0
  3  4  2  0  0  0  0
  5  1  1  0  0  0  0
  5  7  1  0  0  0  0
  6  1  1  0  0  0  0
  7 20  1  6  0  0  0
  7  3  1  0  0  0  0
  8  6  1  0  0  0  0
  9  8  2  0  0  0  0
 11 10  1  6  0  0  0
 11  9  1  0  0  0  0
 12 13  1  6  0  0  0
 12 11  1  0  0  0  0
 14 12  1  0  0  0  0
 15 14  1  0  0  0  0
 15 16  1  0  0  0  0
 16 17  3  0  0  0  0
 18 19  1  0  0  0  0
 19 11  1  0  0  0  0
 20 23  1  0  0  0  0
 23 22  1  6  0  0  0
 23 21  2  0  0  0  0
 23 24  1  0  0  0  0
 24 25  1  0  0  0  0
 25 26  1  0  0  0  0
 27 26  1  6  0  0  0
 27 28  1  0  0  0  0
 27 35  1  0  0  0  0
 28 29  1  1  0  0  0
 30 32  1  0  0  0  0
 30 28  1  0  0  0  0
 32 31  1  0  0  0  0
 33 32  2  0  0  0  0
 34 35  1  0  0  0  0
M  END
>  <MODEL>
9

>  <REMARK>
 VINA RESULT:      -5.9      3.493      8.374
  Name = 
  17 active torsions:
  status: ('A' for Active; 'I' for Inactive)
    1  A    between atoms: C_3  and  C_4
    2  A    between atoms: C_3  and  C_21
    3  A    between atoms: C_3  and  C_31
    4  A    between atoms: C_4  and  C_27
    5  A    between atoms: C_5  and  N_30
    6  A    between atoms: C_7  and  C_10
    7  A    between atoms: C_8  and  C_15
    8  A    between atoms: C_10  and  C_19
    9  A    between atoms: C_12  and  C_15
   10  A    between atoms: C_12  and  C_19
   11  A    between atoms: C_15  and  O_33
   12  A    between atoms: O_16  and  P_22
   13  A    between atoms: O_16  and  C_35
   14  A    between atoms: C_18  and  C_21
   15  A    between atoms: C_18  and  C_26
   16  A    between atoms: P_22  and  O_32
   17  A    between atoms: C_27  and  O_32
                            x       y       z     vdW  Elec       q    Type
                         _______ _______ _______ _____ _____    ______ ____

>  <TORSDO>
F 17

$$$$
