=
 OpenBabel11062412113D

 55 60  0  0  1  0  0  0  0  0999 V2000
  186.2790  178.8950  141.1900 C   0  0  0  0  0  3  0  0  0  0  0  0
  182.5960  178.0180  140.6950 C   0  0  0  0  0  2  0  0  0  0  0  0
  185.0390  178.8600  140.7810 C   0  0  0  0  0  0  0  0  0  0  0  0
  183.8000  178.8420  140.3850 C   0  0  0  0  0  0  0  0  0  0  0  0
  182.9410  179.7050  139.4760 C   0  0  0  0  0  0  0  0  0  0  0  0
  183.1350  180.7140  138.7510 O   0  0  0  0  0  0  0  0  0  0  0  0
  181.7730  178.8490  139.8270 C   0  0  2  0  0  0  0  0  0  0  0  0
  180.7500  179.6570  140.6140 C   0  0  0  0  0  1  0  0  0  0  0  0
  181.8870  176.8510  138.2140 C   0  0  0  0  0  0  0  0  0  0  0  0
  182.3240  174.7750  137.3780 C   0  0  2  0  0  3  0  0  0  0  0  0
  181.4490  175.9850  137.3330 C   0  0  0  0  0  0  0  0  0  0  0  0
  179.7010  177.2610  136.0840 C   0  0  0  0  0  3  0  0  0  0  0  0
  180.2340  176.1090  136.5100 C   0  0  0  0  0  3  0  0  0  0  0  0
  183.3570  175.0590  138.3860 N   0  0  0  0  0  0  0  0  0  0  0  0
  180.9070  178.9970  137.4270 C   0  0  0  0  0  3  0  0  0  0  0  0
  183.0260  176.3370  138.8700 N   0  0  0  0  0  0  0  0  0  0  0  0
  181.1570  178.1080  138.6150 C   0  0  2  0  0  3  0  0  0  0  0  0
  180.2270  178.6170  136.3440 C   0  0  0  0  0  3  0  0  0  0  0  0
  182.9560  174.4910  136.0140 C   0  0  1  0  0  3  0  0  0  0  0  0
  183.6810  175.6550  135.5210 N   0  0  0  0  0  2  0  0  0  0  0  0
  185.0670  175.2630  135.3190 C   0  0  0  0  0  2  0  0  0  0  0  0
  188.0970  176.4780  137.2190 C   0  0  0  0  0  3  0  0  0  0  0  0
  184.2930  177.8200  136.3470 F   0  0  0  0  0  0  0  0  0  0  0  0
  186.4150  178.1440  137.3810 C   0  0  0  0  0  3  0  0  0  0  0  0
  187.6650  177.6870  137.6660 N   0  0  0  0  0  0  0  0  0  0  0  0
  187.2590  175.6740  136.4450 C   0  0  0  0  0  3  0  0  0  0  0  0
  185.5390  177.3640  136.6190 C   0  0  0  0  0  0  0  0  0  0  0  0
  185.9700  176.1210  136.1390 C   0  0  0  0  0  0  0  0  0  0  0  0
  183.8890  173.2920  136.0940 C   0  0  0  0  0  2  0  0  0  0  0  0
  182.9270  171.1020  137.0450 C   0  0  0  0  0  2  0  0  0  0  0  0
  183.1330  171.9950  135.8520 C   0  0  0  0  0  0  0  0  0  0  0  0
  182.0960  171.9760  134.9240 O   0  0  0  0  0  1  0  0  0  0  0  0
  183.9170  170.7110  135.9500 C   0  0  0  0  0  2  0  0  0  0  0  0
  186.6110  178.9640  142.5800 N   0  0  0  0  0  2  0  0  0  0  0  0
  186.4170  177.8630  143.5220 C   0  0  2  0  0  3  0  0  0  0  0  0
  184.0640  178.3100  144.1800 C   0  0  0  0  0  2  0  0  0  0  0  0
  185.5020  178.2970  144.6620 C   0  0  0  0  0  3  0  0  0  0  0  0
  184.8260  179.6080  144.3190 C   0  0  0  0  0  2  0  0  0  0  0  0
  187.7650  177.3590  144.0510 C   0  0  2  0  0  3  0  0  0  0  0  0
  187.8610  177.4430  145.5710 C   0  0  0  0  0  2  0  0  0  0  0  0
  189.0850  178.0070  145.9470 O   0  0  0  0  0  0  0  0  0  0  0  0
  187.8820  177.4500  147.9200 C   0  0  0  0  0  1  0  0  0  0  0  0
  189.2470  177.6620  147.2940 C   0  0  1  0  0  3  0  0  0  0  0  0
  191.2010  176.7770  146.7710 C   0  0  0  0  0  1  0  0  0  0  0  0
  189.9900  176.4860  147.3970 O   0  0  0  0  0  0  0  0  0  0  0  0
  188.8930  178.1560  143.3940 C   0  0  0  0  0  2  0  0  0  0  0  0
  189.9510  177.3450  142.5970 C   0  0  2  0  0  0  0  0  0  0  0  0
  189.0480  175.0440  143.0210 F   0  0  0  0  0  0  0  0  0  0  0  0
  190.0990  175.9060  143.0710 C   0  0  0  0  0  0  0  0  0  0  0  0
  191.1620  175.5160  143.5320 O   0  0  0  0  0  0  0  0  0  0  0  0
  191.2520  178.0330  142.6020 N   0  0  0  0  0  2  0  0  0  0  0  0
  191.3860  178.9490  143.7290 C   0  0  0  0  0  1  0  0  0  0  0  0
  189.3850  177.2590  140.8540 S   0  0  0  0  0  0  0  0  0  0  0  0
  191.0230  177.0050  140.1000 C   0  0  0  0  0  2  0  0  0  0  0  0
  190.9610  175.9650  139.1760 O   0  0  0  0  0  1  0  0  0  0  0  0
  1 34  1  0  0  0  0
  3  1  2  0  0  0  0
  4  2  1  0  0  0  0
  4  3  2  0  0  0  0
  5  7  1  0  0  0  0
  5  4  1  0  0  0  0
  6  5  2  0  0  0  0
  7  8  1  1  0  0  0
  7  2  1  0  0  0  0
  9 17  1  0  0  0  0
  9 16  1  0  0  0  0
 10 19  1  6  0  0  0
 10 14  1  0  0  0  0
 11 10  1  0  0  0  0
 11  9  2  0  0  0  0
 12 18  1  0  0  0  0
 12 13  2  0  0  0  0
 13 11  1  0  0  0  0
 14 16  2  0  0  0  0
 17 15  1  6  0  0  0
 17  7  1  0  0  0  0
 18 15  2  0  0  0  0
 19 29  1  1  0  0  0
 20 19  1  0  0  0  0
 21 20  1  0  0  0  0
 21 28  1  0  0  0  0
 22 25  1  0  0  0  0
 23 27  1  0  0  0  0
 24 25  2  0  0  0  0
 26 22  2  0  0  0  0
 27 24  1  0  0  0  0
 28 26  1  0  0  0  0
 28 27  2  0  0  0  0
 31 33  1  0  0  0  0
 31 29  1  0  0  0  0
 31 30  1  0  0  0  0
 32 31  1  0  0  0  0
 33 30  1  0  0  0  0
 35 34  1  6  0  0  0
 35 39  1  0  0  0  0
 35 37  1  0  0  0  0
 36 38  1  0  0  0  0
 36 37  1  0  0  0  0
 38 37  1  0  0  0  0
 39 46  1  6  0  0  0
 39 40  1  0  0  0  0
 40 41  1  0  0  0  0
 41 43  1  0  0  0  0
 43 45  1  0  0  0  0
 43 42  1  6  0  0  0
 44 45  1  0  0  0  0
 47 51  1  0  0  0  0
 47 49  1  0  0  0  0
 47 46  1  1  0  0  0
 48 49  1  0  0  0  0
 49 50  2  0  0  0  0
 51 52  1  0  0  0  0
 53 47  1  0  0  0  0
 54 53  1  0  0  0  0
 55 54  1  0  0  0  0
M  END
>  <MODEL>
1

>  <REMARK>
 VINA RESULT:      -7.1      0.000      0.000
  Name = 
  21 active torsions:
  status: ('A' for Active; 'I' for Inactive)
    1  A    between atoms: C_6  and  C_43
    2  A    between atoms: N_7  and  C_34
    3  A    between atoms: C_8  and  S_46
    4  A    between atoms: C_9  and  N_13
    5  A    between atoms: C_10  and  C_12
    6  A    between atoms: C_10  and  N_13
    7  A    between atoms: C_10  and  C_22
    8  A    between atoms: C_22  and  C_38
    9  A    between atoms: C_22  and  C_39
   10  A    between atoms: C_23  and  C_34
   11  A    between atoms: C_31  and  N_32
   12  A    between atoms: C_31  and  C_50
   13  A    between atoms: N_32  and  C_43
   14  A    between atoms: C_33  and  O_41
   15  A    between atoms: C_33  and  O_45
   16  A    between atoms: C_34  and  C_39
   17  A    between atoms: C_34  and  S_46
   18  A    between atoms: C_37  and  C_42
   19  A    between atoms: C_38  and  O_45
   20  A    between atoms: C_42  and  C_43
   21  A    between atoms: C_48  and  C_51
                            x       y       z     vdW  Elec       q    Type
                         _______ _______ _______ _____ _____    ______ ____

>  <TORSDO>
F 21

$$$$
=
 OpenBabel11062412113D

 55 60  0  0  1  0  0  0  0  0999 V2000
  186.4940  178.9450  141.1160 C   0  0  0  0  0  3  0  0  0  0  0  0
  182.9020  177.8340  140.4530 C   0  0  0  0  0  2  0  0  0  0  0  0
  185.2700  178.8500  140.6730 C   0  0  0  0  0  0  0  0  0  0  0  0
  184.0430  178.7700  140.2440 C   0  0  0  0  0  0  0  0  0  0  0  0
  183.1390  179.6390  139.3860 C   0  0  0  0  0  0  0  0  0  0  0  0
  183.2680  180.7160  138.7510 O   0  0  0  0  0  0  0  0  0  0  0  0
  182.0340  178.6700  139.6350 C   0  0  2  0  0  0  0  0  0  0  0  0
  180.9360  179.3290  140.4580 C   0  0  0  0  0  1  0  0  0  0  0  0
  182.1930  176.6940  137.9980 C   0  0  0  0  0  0  0  0  0  0  0  0
  182.5880  174.6090  137.1640 C   0  0  2  0  0  3  0  0  0  0  0  0
  181.7970  175.8710  137.0580 C   0  0  0  0  0  0  0  0  0  0  0  0
  180.2650  177.2730  135.6670 C   0  0  0  0  0  3  0  0  0  0  0  0
  180.6810  176.0840  136.1190 C   0  0  0  0  0  3  0  0  0  0  0  0
  183.5270  174.8130  138.2780 N   0  0  0  0  0  0  0  0  0  0  0  0
  181.4300  178.9100  137.1630 C   0  0  0  0  0  3  0  0  0  0  0  0
  183.2260  176.1000  138.7550 N   0  0  0  0  0  0  0  0  0  0  0  0
  181.5020  177.9880  138.3500 C   0  0  2  0  0  3  0  0  0  0  0  0
  180.8420  178.5900  136.0090 C   0  0  0  0  0  3  0  0  0  0  0  0
  183.3380  174.3080  135.8650 C   0  0  1  0  0  3  0  0  0  0  0  0
  184.7520  174.0680  136.1220 N   0  0  0  0  0  2  0  0  0  0  0  0
  185.5170  174.9780  135.2840 C   0  0  0  0  0  2  0  0  0  0  0  0
  188.1790  176.5760  137.4340 C   0  0  0  0  0  3  0  0  0  0  0  0
  184.4500  177.5470  135.9560 F   0  0  0  0  0  0  0  0  0  0  0  0
  186.3880  178.1180  137.2200 C   0  0  0  0  0  3  0  0  0  0  0  0
  187.6140  177.7830  137.7050 N   0  0  0  0  0  0  0  0  0  0  0  0
  187.5060  175.6480  136.6380 C   0  0  0  0  0  3  0  0  0  0  0  0
  185.6750  177.2120  136.4280 C   0  0  0  0  0  0  0  0  0  0  0  0
  186.2450  175.9690  136.1280 C   0  0  0  0  0  0  0  0  0  0  0  0
  182.7250  173.1090  135.1580 C   0  0  0  0  0  2  0  0  0  0  0  0
  182.6020  170.6230  135.8110 C   0  0  0  0  0  2  0  0  0  0  0  0
  183.4570  171.8270  135.5220 C   0  0  0  0  0  0  0  0  0  0  0  0
  184.6760  171.5440  134.9130 O   0  0  0  0  0  1  0  0  0  0  0  0
  183.3320  171.3410  136.9440 C   0  0  0  0  0  2  0  0  0  0  0  0
  186.7920  178.9220  142.5150 N   0  0  0  0  0  2  0  0  0  0  0  0
  186.4390  177.8210  143.4090 C   0  0  2  0  0  3  0  0  0  0  0  0
  184.0840  178.3370  144.0070 C   0  0  0  0  0  2  0  0  0  0  0  0
  185.5130  178.3130  144.5150 C   0  0  0  0  0  3  0  0  0  0  0  0
  184.8690  179.6240  144.1140 C   0  0  0  0  0  2  0  0  0  0  0  0
  187.6990  177.1660  143.9860 C   0  0  2  0  0  3  0  0  0  0  0  0
  187.6970  177.1470  145.5120 C   0  0  0  0  0  2  0  0  0  0  0  0
  188.9960  176.9580  145.9940 O   0  0  0  0  0  0  0  0  0  0  0  0
  187.9540  177.2440  148.1120 C   0  0  0  0  0  1  0  0  0  0  0  0
  189.0570  177.7040  147.1780 C   0  0  1  0  0  3  0  0  0  0  0  0
  190.8290  176.3850  147.1770 C   0  0  0  0  0  1  0  0  0  0  0  0
  190.2940  177.5150  147.7940 O   0  0  0  0  0  0  0  0  0  0  0  0
  188.9340  177.8990  143.4580 C   0  0  0  0  0  2  0  0  0  0  0  0
  189.9530  177.0570  142.6430 C   0  0  2  0  0  0  0  0  0  0  0  0
  188.5320  176.8890  140.5840 F   0  0  0  0  0  0  0  0  0  0  0  0
  189.7480  177.1440  141.1380 C   0  0  0  0  0  0  0  0  0  0  0  0
  190.6860  177.4180  140.4030 O   0  0  0  0  0  0  0  0  0  0  0  0
  189.9520  175.6550  143.0920 N   0  0  0  0  0  2  0  0  0  0  0  0
  191.2400  175.2500  143.6400 C   0  0  0  0  0  1  0  0  0  0  0  0
  191.6250  177.7360  142.9770 S   0  0  0  0  0  0  0  0  0  0  0  0
  191.1590  178.7950  144.3820 C   0  0  0  0  0  2  0  0  0  0  0  0
  191.2840  180.1350  144.0240 O   0  0  0  0  0  1  0  0  0  0  0  0
  1 34  1  0  0  0  0
  3  1  2  0  0  0  0
  4  2  1  0  0  0  0
  4  3  2  0  0  0  0
  5  7  1  0  0  0  0
  5  4  1  0  0  0  0
  6  5  2  0  0  0  0
  7  2  1  0  0  0  0
  7  8  1  1  0  0  0
  9 17  1  0  0  0  0
  9 16  1  0  0  0  0
 10 19  1  6  0  0  0
 10 14  1  0  0  0  0
 11 10  1  0  0  0  0
 11  9  2  0  0  0  0
 12 18  1  0  0  0  0
 12 13  2  0  0  0  0
 13 11  1  0  0  0  0
 14 16  2  0  0  0  0
 17 15  1  6  0  0  0
 17  7  1  0  0  0  0
 18 15  2  0  0  0  0
 19 29  1  1  0  0  0
 19 20  1  0  0  0  0
 21 20  1  0  0  0  0
 21 28  1  0  0  0  0
 22 25  1  0  0  0  0
 23 27  1  0  0  0  0
 24 25  2  0  0  0  0
 26 22  2  0  0  0  0
 27 24  1  0  0  0  0
 28 27  2  0  0  0  0
 28 26  1  0  0  0  0
 29 31  1  0  0  0  0
 30 33  1  0  0  0  0
 31 30  1  0  0  0  0
 31 33  1  0  0  0  0
 32 31  1  0  0  0  0
 35 34  1  6  0  0  0
 35 39  1  0  0  0  0
 35 37  1  0  0  0  0
 36 38  1  0  0  0  0
 36 37  1  0  0  0  0
 38 37  1  0  0  0  0
 39 46  1  1  0  0  0
 39 40  1  0  0  0  0
 40 41  1  0  0  0  0
 41 43  1  0  0  0  0
 43 45  1  0  0  0  0
 43 42  1  1  0  0  0
 44 45  1  0  0  0  0
 47 53  1  0  0  0  0
 47 51  1  0  0  0  0
 47 46  1  1  0  0  0
 48 49  1  0  0  0  0
 49 47  1  0  0  0  0
 50 49  2  0  0  0  0
 51 52  1  0  0  0  0
 53 54  1  0  0  0  0
 55 54  1  0  0  0  0
M  END
>  <MODEL>
2

>  <REMARK>
 VINA RESULT:      -6.9      1.140      1.636
  Name = 
  21 active torsions:
  status: ('A' for Active; 'I' for Inactive)
    1  A    between atoms: C_6  and  C_43
    2  A    between atoms: N_7  and  C_34
    3  A    between atoms: C_8  and  S_46
    4  A    between atoms: C_9  and  N_13
    5  A    between atoms: C_10  and  C_12
    6  A    between atoms: C_10  and  N_13
    7  A    between atoms: C_10  and  C_22
    8  A    between atoms: C_22  and  C_38
    9  A    between atoms: C_22  and  C_39
   10  A    between atoms: C_23  and  C_34
   11  A    between atoms: C_31  and  N_32
   12  A    between atoms: C_31  and  C_50
   13  A    between atoms: N_32  and  C_43
   14  A    between atoms: C_33  and  O_41
   15  A    between atoms: C_33  and  O_45
   16  A    between atoms: C_34  and  C_39
   17  A    between atoms: C_34  and  S_46
   18  A    between atoms: C_37  and  C_42
   19  A    between atoms: C_38  and  O_45
   20  A    between atoms: C_42  and  C_43
   21  A    between atoms: C_48  and  C_51
                            x       y       z     vdW  Elec       q    Type
                         _______ _______ _______ _____ _____    ______ ____

>  <TORSDO>
F 21

$$$$
=
 OpenBabel11062412113D

 55 60  0  0  1  0  0  0  0  0999 V2000
  185.9490  178.6850  141.4690 C   0  0  0  0  0  3  0  0  0  0  0  0
  182.3050  178.0020  140.5550 C   0  0  0  0  0  2  0  0  0  0  0  0
  184.7640  178.7130  140.9200 C   0  0  0  0  0  0  0  0  0  0  0  0
  183.5790  178.7580  140.3840 C   0  0  0  0  0  0  0  0  0  0  0  0
  182.8790  179.6580  139.3810 C   0  0  0  0  0  0  0  0  0  0  0  0
  183.2090  180.6490  138.6800 O   0  0  0  0  0  0  0  0  0  0  0  0
  181.6330  178.8690  139.5970 C   0  0  2  0  0  0  0  0  0  0  0  0
  180.5720  179.7370  140.2590 C   0  0  0  0  0  1  0  0  0  0  0  0
  181.7840  176.8270  138.0430 C   0  0  0  0  0  0  0  0  0  0  0  0
  182.1420  174.7000  137.3040 C   0  0  2  0  0  3  0  0  0  0  0  0
  181.3920  175.9780  137.1230 C   0  0  0  0  0  0  0  0  0  0  0  0
  179.9470  177.3670  135.6310 C   0  0  0  0  0  3  0  0  0  0  0  0
  180.3130  176.1850  136.1420 C   0  0  0  0  0  3  0  0  0  0  0  0
  183.0520  174.9200  138.4380 N   0  0  0  0  0  0  0  0  0  0  0  0
  181.1130  179.0280  137.0990 C   0  0  0  0  0  3  0  0  0  0  0  0
  182.7750  176.2330  138.8550 N   0  0  0  0  0  0  0  0  0  0  0  0
  181.1210  178.1520  138.3220 C   0  0  2  0  0  3  0  0  0  0  0  0
  180.5520  178.6800  135.9400 C   0  0  0  0  0  3  0  0  0  0  0  0
  182.9230  174.3260  136.0420 C   0  0  1  0  0  3  0  0  0  0  0  0
  184.3220  174.0620  136.3520 N   0  0  0  0  0  2  0  0  0  0  0  0
  185.1340  174.9480  135.5320 C   0  0  0  0  0  2  0  0  0  0  0  0
  187.7060  176.5370  137.7950 C   0  0  0  0  0  3  0  0  0  0  0  0
  184.1060  177.5660  136.0600 F   0  0  0  0  0  0  0  0  0  0  0  0
  185.9790  178.1210  137.4240 C   0  0  0  0  0  3  0  0  0  0  0  0
  187.1630  177.7670  137.9950 N   0  0  0  0  0  0  0  0  0  0  0  0
  187.0550  175.6030  136.9870 C   0  0  0  0  0  3  0  0  0  0  0  0
  185.2890  177.2120  136.6180 C   0  0  0  0  0  0  0  0  0  0  0  0
  185.8380  175.9440  136.3900 C   0  0  0  0  0  0  0  0  0  0  0  0
  182.3010  173.1140  135.3650 C   0  0  0  0  0  2  0  0  0  0  0  0
  181.0570  170.9430  135.9660 C   0  0  0  0  0  2  0  0  0  0  0  0
  182.0540  171.9960  136.3660 C   0  0  0  0  0  0  0  0  0  0  0  0
  183.1120  171.5340  137.1430 O   0  0  0  0  0  1  0  0  0  0  0  0
  180.7080  171.9640  137.0460 C   0  0  0  0  0  2  0  0  0  0  0  0
  186.1220  178.7470  142.8880 N   0  0  0  0  0  2  0  0  0  0  0  0
  186.9340  177.8030  143.6540 C   0  0  2  0  0  3  0  0  0  0  0  0
  185.5780  177.3560  145.6860 C   0  0  0  0  0  2  0  0  0  0  0  0
  186.7980  178.0780  145.1470 C   0  0  0  0  0  3  0  0  0  0  0  0
  185.5190  178.8430  145.4230 C   0  0  0  0  0  2  0  0  0  0  0  0
  188.3990  177.8620  143.2080 C   0  0  2  0  0  3  0  0  0  0  0  0
  188.5620  177.6000  141.7130 C   0  0  0  0  0  2  0  0  0  0  0  0
  189.4700  176.5570  141.5020 O   0  0  0  0  0  0  0  0  0  0  0  0
  191.5130  177.5800  140.8460 C   0  0  0  0  0  1  0  0  0  0  0  0
  190.2170  176.9440  140.3830 C   0  0  1  0  0  3  0  0  0  0  0  0
  191.3400  176.3100  138.5900 C   0  0  0  0  0  1  0  0  0  0  0  0
  190.5040  175.8280  139.5960 O   0  0  0  0  0  0  0  0  0  0  0  0
  189.2160  176.8580  144.0230 C   0  0  0  0  0  2  0  0  0  0  0  0
  190.2500  177.4450  145.0230 C   0  0  2  0  0  0  0  0  0  0  0  0
  188.8340  176.6350  146.9280 F   0  0  0  0  0  0  0  0  0  0  0  0
  190.0680  176.9450  146.4490 C   0  0  0  0  0  0  0  0  0  0  0  0
  191.0340  176.8430  147.1930 O   0  0  0  0  0  0  0  0  0  0  0  0
  190.2440  178.9160  144.9800 N   0  0  0  0  0  2  0  0  0  0  0  0
  191.2330  179.4440  144.0480 C   0  0  0  0  0  1  0  0  0  0  0  0
  191.9150  176.8890  144.4880 S   0  0  0  0  0  0  0  0  0  0  0  0
  191.4200  175.2390  143.9000 C   0  0  0  0  0  2  0  0  0  0  0  0
  192.3350  174.2870  144.3420 O   0  0  0  0  0  1  0  0  0  0  0  0
  1 34  1  0  0  0  0
  3  1  2  0  0  0  0
  4  2  1  0  0  0  0
  4  3  2  0  0  0  0
  5  7  1  0  0  0  0
  5  4  1  0  0  0  0
  6  5  2  0  0  0  0
  7  8  1  1  0  0  0
  7  2  1  0  0  0  0
  9 17  1  0  0  0  0
  9 16  1  0  0  0  0
 10 19  1  6  0  0  0
 10 14  1  0  0  0  0
 11 10  1  0  0  0  0
 11  9  2  0  0  0  0
 12 18  1  0  0  0  0
 12 13  2  0  0  0  0
 13 11  1  0  0  0  0
 14 16  2  0  0  0  0
 17 15  1  6  0  0  0
 17  7  1  0  0  0  0
 18 15  2  0  0  0  0
 19 29  1  1  0  0  0
 19 20  1  0  0  0  0
 21 20  1  0  0  0  0
 21 28  1  0  0  0  0
 22 25  1  0  0  0  0
 23 27  1  0  0  0  0
 24 25  2  0  0  0  0
 26 22  2  0  0  0  0
 27 24  1  0  0  0  0
 28 27  2  0  0  0  0
 28 26  1  0  0  0  0
 29 31  1  0  0  0  0
 30 31  1  0  0  0  0
 30 33  1  0  0  0  0
 31 33  1  0  0  0  0
 31 32  1  0  0  0  0
 35 34  1  6  0  0  0
 35 37  1  0  0  0  0
 37 38  1  0  0  0  0
 37 36  1  0  0  0  0
 38 36  1  0  0  0  0
 39 40  1  6  0  0  0
 39 35  1  0  0  0  0
 39 46  1  0  0  0  0
 41 40  1  0  0  0  0
 43 42  1  1  0  0  0
 43 41  1  0  0  0  0
 44 45  1  0  0  0  0
 45 43  1  0  0  0  0
 47 46  1  6  0  0  0
 47 49  1  0  0  0  0
 49 48  1  0  0  0  0
 49 50  2  0  0  0  0
 51 47  1  0  0  0  0
 52 51  1  0  0  0  0
 53 47  1  0  0  0  0
 54 55  1  0  0  0  0
 54 53  1  0  0  0  0
M  END
>  <MODEL>
3

>  <REMARK>
 VINA RESULT:      -6.0      1.416      2.882
  Name = 
  21 active torsions:
  status: ('A' for Active; 'I' for Inactive)
    1  A    between atoms: C_6  and  C_43
    2  A    between atoms: N_7  and  C_34
    3  A    between atoms: C_8  and  S_46
    4  A    between atoms: C_9  and  N_13
    5  A    between atoms: C_10  and  C_12
    6  A    between atoms: C_10  and  N_13
    7  A    between atoms: C_10  and  C_22
    8  A    between atoms: C_22  and  C_38
    9  A    between atoms: C_22  and  C_39
   10  A    between atoms: C_23  and  C_34
   11  A    between atoms: C_31  and  N_32
   12  A    between atoms: C_31  and  C_50
   13  A    between atoms: N_32  and  C_43
   14  A    between atoms: C_33  and  O_41
   15  A    between atoms: C_33  and  O_45
   16  A    between atoms: C_34  and  C_39
   17  A    between atoms: C_34  and  S_46
   18  A    between atoms: C_37  and  C_42
   19  A    between atoms: C_38  and  O_45
   20  A    between atoms: C_42  and  C_43
   21  A    between atoms: C_48  and  C_51
                            x       y       z     vdW  Elec       q    Type
                         _______ _______ _______ _____ _____    ______ ____

>  <TORSDO>
F 21

$$$$
=
 OpenBabel11062412113D

 55 60  0  0  1  0  0  0  0  0999 V2000
  185.5560  178.2300  142.0750 C   0  0  0  0  0  3  0  0  0  0  0  0
  182.0110  178.0880  140.6640 C   0  0  0  0  0  2  0  0  0  0  0  0
  184.4770  178.4240  141.3650 C   0  0  0  0  0  0  0  0  0  0  0  0
  183.3980  178.6350  140.6680 C   0  0  0  0  0  0  0  0  0  0  0  0
  182.9910  179.6040  139.5720 C   0  0  0  0  0  0  0  0  0  0  0  0
  183.5640  180.5140  138.9190 O   0  0  0  0  0  0  0  0  0  0  0  0
  181.6200  179.0210  139.6160 C   0  0  2  0  0  0  0  0  0  0  0  0
  180.6260  180.0580  140.1190 C   0  0  0  0  0  1  0  0  0  0  0  0
  181.8800  177.0540  137.9810 C   0  0  0  0  0  0  0  0  0  0  0  0
  182.3090  174.9690  137.1650 C   0  0  2  0  0  3  0  0  0  0  0  0
  181.5480  176.2440  137.0060 C   0  0  0  0  0  0  0  0  0  0  0  0
  180.1550  177.6790  135.5070 C   0  0  0  0  0  3  0  0  0  0  0  0
  180.5150  176.4800  135.9820 C   0  0  0  0  0  3  0  0  0  0  0  0
  183.1580  175.1500  138.3520 N   0  0  0  0  0  0  0  0  0  0  0  0
  181.2200  179.2870  137.1060 C   0  0  0  0  0  3  0  0  0  0  0  0
  182.8400  176.4390  138.8130 N   0  0  0  0  0  0  0  0  0  0  0  0
  181.1830  178.3560  138.2870 C   0  0  2  0  0  3  0  0  0  0  0  0
  180.7230  178.9850  135.9050 C   0  0  0  0  0  3  0  0  0  0  0  0
  183.1570  174.6650  135.9280 C   0  0  1  0  0  3  0  0  0  0  0  0
  183.9330  175.8310  135.5270 N   0  0  0  0  0  2  0  0  0  0  0  0
  185.3400  175.4660  135.5760 C   0  0  0  0  0  2  0  0  0  0  0  0
  186.3550  178.4260  137.6910 C   0  0  0  0  0  3  0  0  0  0  0  0
  187.9780  176.1200  134.6790 F   0  0  0  0  0  0  0  0  0  0  0  0
  188.1560  177.9170  136.2330 C   0  0  0  0  0  3  0  0  0  0  0  0
  187.6070  178.6730  137.2230 N   0  0  0  0  0  0  0  0  0  0  0  0
  185.6010  177.3760  137.1650 C   0  0  0  0  0  3  0  0  0  0  0  0
  187.4300  176.8630  135.6700 C   0  0  0  0  0  0  0  0  0  0  0  0
  186.1440  176.5850  136.1480 C   0  0  0  0  0  0  0  0  0  0  0  0
  184.0830  173.4860  136.1890 C   0  0  0  0  0  2  0  0  0  0  0  0
  183.0810  171.2390  136.9420 C   0  0  0  0  0  2  0  0  0  0  0  0
  183.4160  172.1730  135.8110 C   0  0  0  0  0  0  0  0  0  0  0  0
  182.5180  172.1480  134.7480 O   0  0  0  0  0  1  0  0  0  0  0  0
  184.2260  170.9130  135.9850 C   0  0  0  0  0  2  0  0  0  0  0  0
  185.5410  178.3030  143.5040 N   0  0  0  0  0  2  0  0  0  0  0  0
  186.4050  177.5060  144.3730 C   0  0  2  0  0  3  0  0  0  0  0  0
  184.6410  178.2220  145.9680 C   0  0  0  0  0  2  0  0  0  0  0  0
  186.0880  177.7890  145.8370 C   0  0  0  0  0  3  0  0  0  0  0  0
  185.7440  179.2530  146.0240 C   0  0  0  0  0  2  0  0  0  0  0  0
  187.8810  177.7730  144.0590 C   0  0  2  0  0  3  0  0  0  0  0  0
  188.1470  177.8830  142.5610 C   0  0  0  0  0  2  0  0  0  0  0  0
  188.8090  176.7390  142.1020 O   0  0  0  0  0  0  0  0  0  0  0  0
  188.8730  178.4860  140.4920 C   0  0  0  0  0  1  0  0  0  0  0  0
  189.1470  177.0220  140.7740 C   0  0  1  0  0  3  0  0  0  0  0  0
  190.6360  176.6930  139.1760 C   0  0  0  0  0  1  0  0  0  0  0  0
  190.5000  176.7560  140.5620 O   0  0  0  0  0  0  0  0  0  0  0  0
  188.7360  176.6650  144.6780 C   0  0  0  0  0  2  0  0  0  0  0  0
  190.0240  177.1090  145.4240 C   0  0  2  0  0  0  0  0  0  0  0  0
  191.7560  178.6550  144.4760 F   0  0  0  0  0  0  0  0  0  0  0  0
  191.1890  177.4190  144.4950 C   0  0  0  0  0  0  0  0  0  0  0  0
  191.6110  176.5620  143.7300 O   0  0  0  0  0  0  0  0  0  0  0  0
  190.4120  176.1130  146.4360 N   0  0  0  0  0  2  0  0  0  0  0  0
  191.8100  176.2450  146.8310 C   0  0  0  0  0  1  0  0  0  0  0  0
  189.6410  178.6690  146.3110 S   0  0  0  0  0  0  0  0  0  0  0  0
  188.8880  177.9080  147.7840 C   0  0  0  0  0  2  0  0  0  0  0  0
  189.5440  178.3490  148.9300 O   0  0  0  0  0  1  0  0  0  0  0  0
  1 34  1  0  0  0  0
  2  4  1  0  0  0  0
  3  1  2  0  0  0  0
  4  3  2  0  0  0  0
  5  7  1  0  0  0  0
  5  4  1  0  0  0  0
  6  5  2  0  0  0  0
  7  8  1  1  0  0  0
  7  2  1  0  0  0  0
  9 17  1  0  0  0  0
  9 16  1  0  0  0  0
 10 19  1  6  0  0  0
 10 14  1  0  0  0  0
 11 10  1  0  0  0  0
 11  9  2  0  0  0  0
 12 18  1  0  0  0  0
 12 13  2  0  0  0  0
 13 11  1  0  0  0  0
 14 16  2  0  0  0  0
 17 15  1  6  0  0  0
 17  7  1  0  0  0  0
 18 15  2  0  0  0  0
 19 29  1  1  0  0  0
 20 21  1  0  0  0  0
 20 19  1  0  0  0  0
 21 28  1  0  0  0  0
 23 27  1  0  0  0  0
 24 25  2  0  0  0  0
 25 22  1  0  0  0  0
 26 22  2  0  0  0  0
 27 28  2  0  0  0  0
 27 24  1  0  0  0  0
 28 26  1  0  0  0  0
 31 33  1  0  0  0  0
 31 29  1  0  0  0  0
 31 30  1  0  0  0  0
 32 31  1  0  0  0  0
 33 30  1  0  0  0  0
 35 34  1  6  0  0  0
 35 37  1  0  0  0  0
 36 38  1  0  0  0  0
 37 36  1  0  0  0  0
 37 38  1  0  0  0  0
 39 40  1  6  0  0  0
 39 35  1  0  0  0  0
 39 46  1  0  0  0  0
 41 40  1  0  0  0  0
 43 42  1  1  0  0  0
 43 41  1  0  0  0  0
 44 45  1  0  0  0  0
 45 43  1  0  0  0  0
 47 46  1  6  0  0  0
 47 53  1  0  0  0  0
 47 51  1  0  0  0  0
 48 49  1  0  0  0  0
 49 47  1  0  0  0  0
 50 49  2  0  0  0  0
 51 52  1  0  0  0  0
 53 54  1  0  0  0  0
 54 55  1  0  0  0  0
M  END
>  <MODEL>
4

>  <REMARK>
 VINA RESULT:      -5.7      1.704      3.223
  Name = 
  21 active torsions:
  status: ('A' for Active; 'I' for Inactive)
    1  A    between atoms: C_6  and  C_43
    2  A    between atoms: N_7  and  C_34
    3  A    between atoms: C_8  and  S_46
    4  A    between atoms: C_9  and  N_13
    5  A    between atoms: C_10  and  C_12
    6  A    between atoms: C_10  and  N_13
    7  A    between atoms: C_10  and  C_22
    8  A    between atoms: C_22  and  C_38
    9  A    between atoms: C_22  and  C_39
   10  A    between atoms: C_23  and  C_34
   11  A    between atoms: C_31  and  N_32
   12  A    between atoms: C_31  and  C_50
   13  A    between atoms: N_32  and  C_43
   14  A    between atoms: C_33  and  O_41
   15  A    between atoms: C_33  and  O_45
   16  A    between atoms: C_34  and  C_39
   17  A    between atoms: C_34  and  S_46
   18  A    between atoms: C_37  and  C_42
   19  A    between atoms: C_38  and  O_45
   20  A    between atoms: C_42  and  C_43
   21  A    between atoms: C_48  and  C_51
                            x       y       z     vdW  Elec       q    Type
                         _______ _______ _______ _____ _____    ______ ____

>  <TORSDO>
F 21

$$$$
=
 OpenBabel11062412113D

 55 60  0  0  1  0  0  0  0  0999 V2000
  185.5650  179.4860  142.0430 C   0  0  0  0  0  3  0  0  0  0  0  0
  183.1080  177.0650  140.4070 C   0  0  0  0  0  2  0  0  0  0  0  0
  184.5610  178.9630  141.3920 C   0  0  0  0  0  0  0  0  0  0  0  0
  183.5480  178.4450  140.7600 C   0  0  0  0  0  0  0  0  0  0  0  0
  182.2680  178.9820  140.1450 C   0  0  0  0  0  0  0  0  0  0  0  0
  181.7550  180.1200  139.9880 O   0  0  0  0  0  0  0  0  0  0  0  0
  181.8780  177.5800  139.8220 C   0  0  2  0  0  0  0  0  0  0  0  0
  180.6510  177.1790  140.6280 C   0  0  0  0  0  1  0  0  0  0  0  0
  181.2760  175.9120  137.9610 C   0  0  0  0  0  0  0  0  0  0  0  0
  180.3310  174.1490  136.8660 C   0  0  2  0  0  3  0  0  0  0  0  0
  180.9190  175.5170  136.7620 C   0  0  0  0  0  0  0  0  0  0  0  0
  181.8510  177.2900  135.2670 C   0  0  0  0  0  3  0  0  0  0  0  0
  180.9700  176.3160  135.5250 C   0  0  0  0  0  3  0  0  0  0  0  0
  180.4170  173.7770  138.2860 N   0  0  0  0  0  0  0  0  0  0  0  0
  182.9200  177.7180  137.4920 C   0  0  0  0  0  3  0  0  0  0  0  0
  180.9900  174.9010  138.9050 N   0  0  0  0  0  0  0  0  0  0  0  0
  181.7210  177.3110  138.3040 C   0  0  2  0  0  3  0  0  0  0  0  0
  182.9400  177.7430  136.1580 C   0  0  0  0  0  3  0  0  0  0  0  0
  181.0890  173.1470  135.9920 C   0  0  1  0  0  3  0  0  0  0  0  0
  182.4570  173.5890  135.7560 N   0  0  0  0  0  2  0  0  0  0  0  0
  183.3510  172.5860  136.3130 C   0  0  0  0  0  2  0  0  0  0  0  0
  186.2190  174.9670  136.9140 C   0  0  0  0  0  3  0  0  0  0  0  0
  185.6940  171.0490  135.7300 F   0  0  0  0  0  0  0  0  0  0  0  0
  187.1290  172.8800  136.2440 C   0  0  0  0  0  3  0  0  0  0  0  0
  187.2880  174.1760  136.6310 N   0  0  0  0  0  0  0  0  0  0  0  0
  184.9230  174.4590  136.8190 C   0  0  0  0  0  3  0  0  0  0  0  0
  185.8470  172.3360  136.1250 C   0  0  0  0  0  0  0  0  0  0  0  0
  184.7340  173.1320  136.4240 C   0  0  0  0  0  0  0  0  0  0  0  0
  181.0900  171.7680  136.6360 C   0  0  0  0  0  2  0  0  0  0  0  0
  179.4130  171.2840  134.7450 C   0  0  0  0  0  2  0  0  0  0  0  0
  180.4030  170.7470  135.7430 C   0  0  0  0  0  0  0  0  0  0  0  0
  181.1140  169.6300  135.3150 O   0  0  0  0  0  1  0  0  0  0  0  0
  178.9310  170.5110  135.9710 C   0  0  0  0  0  2  0  0  0  0  0  0
  185.9130  179.0560  143.3620 N   0  0  0  0  0  2  0  0  0  0  0  0
  186.5580  177.7790  143.6630 C   0  0  2  0  0  3  0  0  0  0  0  0
  185.0130  177.6530  145.6030 C   0  0  0  0  0  2  0  0  0  0  0  0
  186.4490  177.4680  145.1510 C   0  0  0  0  0  3  0  0  0  0  0  0
  186.0450  178.7120  145.9160 C   0  0  0  0  0  2  0  0  0  0  0  0
  188.0190  177.7880  143.2000 C   0  0  2  0  0  3  0  0  0  0  0  0
  188.1890  177.2080  141.7990 C   0  0  0  0  0  2  0  0  0  0  0  0
  188.6600  178.1910  140.9230 O   0  0  0  0  0  0  0  0  0  0  0  0
  189.0220  178.6190  138.6130 C   0  0  0  0  0  1  0  0  0  0  0  0
  188.6670  177.5830  139.6620 C   0  0  1  0  0  3  0  0  0  0  0  0
  190.8420  177.2050  139.6330 C   0  0  0  0  0  1  0  0  0  0  0  0
  189.6090  176.5550  139.6350 O   0  0  0  0  0  0  0  0  0  0  0  0
  188.8720  177.0170  144.2100 C   0  0  0  0  0  2  0  0  0  0  0  0
  190.4080  177.2390  144.1430 C   0  0  2  0  0  0  0  0  0  0  0  0
  190.2790  179.7390  143.9950 F   0  0  0  0  0  0  0  0  0  0  0  0
  190.8030  178.5740  143.5280 C   0  0  0  0  0  0  0  0  0  0  0  0
  191.5790  178.6110  142.5840 O   0  0  0  0  0  0  0  0  0  0  0  0
  191.0680  176.1250  143.4430 N   0  0  0  0  0  2  0  0  0  0  0  0
  190.1290  175.0720  143.0750 C   0  0  0  0  0  1  0  0  0  0  0  0
  191.0400  177.2540  145.8650 S   0  0  0  0  0  0  0  0  0  0  0  0
  189.4220  177.1980  146.6970 C   0  0  0  0  0  2  0  0  0  0  0  0
  189.4270  176.2010  147.6700 O   0  0  0  0  0  1  0  0  0  0  0  0
  1 34  1  0  0  0  0
  2  4  1  0  0  0  0
  3  1  2  0  0  0  0
  4  3  2  0  0  0  0
  5  4  1  0  0  0  0
  6  5  2  0  0  0  0
  7  5  1  0  0  0  0
  7  2  1  0  0  0  0
  7  8  1  1  0  0  0
  9 17  1  0  0  0  0
  9 16  1  0  0  0  0
 10 19  1  6  0  0  0
 10 14  1  0  0  0  0
 11 10  1  0  0  0  0
 11  9  2  0  0  0  0
 12 13  2  0  0  0  0
 12 18  1  0  0  0  0
 13 11  1  0  0  0  0
 14 16  2  0  0  0  0
 17 15  1  6  0  0  0
 17  7  1  0  0  0  0
 18 15  2  0  0  0  0
 19 29  1  1  0  0  0
 20 19  1  0  0  0  0
 20 21  1  0  0  0  0
 21 28  1  0  0  0  0
 23 27  1  0  0  0  0
 24 25  1  0  0  0  0
 25 22  2  0  0  0  0
 26 22  1  0  0  0  0
 27 24  2  0  0  0  0
 27 28  1  0  0  0  0
 28 26  2  0  0  0  0
 30 31  1  0  0  0  0
 30 33  1  0  0  0  0
 31 33  1  0  0  0  0
 31 29  1  0  0  0  0
 32 31  1  0  0  0  0
 35 34  1  1  0  0  0
 35 37  1  0  0  0  0
 36 38  1  0  0  0  0
 37 36  1  0  0  0  0
 37 38  1  0  0  0  0
 39 40  1  6  0  0  0
 39 35  1  0  0  0  0
 39 46  1  0  0  0  0
 41 40  1  0  0  0  0
 43 42  1  6  0  0  0
 43 41  1  0  0  0  0
 44 45  1  0  0  0  0
 45 43  1  0  0  0  0
 47 46  1  6  0  0  0
 47 53  1  0  0  0  0
 49 48  1  0  0  0  0
 49 47  1  0  0  0  0
 50 49  2  0  0  0  0
 51 47  1  0  0  0  0
 52 51  1  0  0  0  0
 53 54  1  0  0  0  0
 54 55  1  0  0  0  0
M  END
>  <MODEL>
5

>  <REMARK>
 VINA RESULT:      -5.6      2.369      3.866
  Name = 
  21 active torsions:
  status: ('A' for Active; 'I' for Inactive)
    1  A    between atoms: C_6  and  C_43
    2  A    between atoms: N_7  and  C_34
    3  A    between atoms: C_8  and  S_46
    4  A    between atoms: C_9  and  N_13
    5  A    between atoms: C_10  and  C_12
    6  A    between atoms: C_10  and  N_13
    7  A    between atoms: C_10  and  C_22
    8  A    between atoms: C_22  and  C_38
    9  A    between atoms: C_22  and  C_39
   10  A    between atoms: C_23  and  C_34
   11  A    between atoms: C_31  and  N_32
   12  A    between atoms: C_31  and  C_50
   13  A    between atoms: N_32  and  C_43
   14  A    between atoms: C_33  and  O_41
   15  A    between atoms: C_33  and  O_45
   16  A    between atoms: C_34  and  C_39
   17  A    between atoms: C_34  and  S_46
   18  A    between atoms: C_37  and  C_42
   19  A    between atoms: C_38  and  O_45
   20  A    between atoms: C_42  and  C_43
   21  A    between atoms: C_48  and  C_51
                            x       y       z     vdW  Elec       q    Type
                         _______ _______ _______ _____ _____    ______ ____

>  <TORSDO>
F 21

$$$$
=
 OpenBabel11062412113D

 55 60  0  0  1  0  0  0  0  0999 V2000
  185.7440  179.4630  141.5900 C   0  0  0  0  0  3  0  0  0  0  0  0
  183.0040  177.2480  140.1190 C   0  0  0  0  0  2  0  0  0  0  0  0
  184.7210  179.0080  140.9170 C   0  0  0  0  0  0  0  0  0  0  0  0
  183.6890  178.5650  140.2600 C   0  0  0  0  0  0  0  0  0  0  0  0
  182.6170  179.1860  139.3810 C   0  0  0  0  0  0  0  0  0  0  0  0
  182.3740  180.3380  138.9400 O   0  0  0  0  0  0  0  0  0  0  0  0
  181.9740  177.8450  139.2800 C   0  0  2  0  0  0  0  0  0  0  0  0
  180.6160  177.8620  139.9690 C   0  0  0  0  0  1  0  0  0  0  0  0
  181.3490  175.8960  137.7240 C   0  0  0  0  0  0  0  0  0  0  0  0
  180.3120  174.0410  136.8990 C   0  0  2  0  0  3  0  0  0  0  0  0
  181.0510  175.3020  136.5950 C   0  0  0  0  0  0  0  0  0  0  0  0
  182.2890  176.6450  134.8890 C   0  0  0  0  0  3  0  0  0  0  0  0
  181.2890  175.8260  135.2380 C   0  0  0  0  0  3  0  0  0  0  0  0
  180.2400  173.9580  138.3660 N   0  0  0  0  0  0  0  0  0  0  0  0
  183.2120  177.4160  137.0860 C   0  0  0  0  0  3  0  0  0  0  0  0
  180.8790  175.1270  138.8110 N   0  0  0  0  0  0  0  0  0  0  0  0
  181.9130  177.2900  137.8350 C   0  0  2  0  0  3  0  0  0  0  0  0
  183.3440  177.1690  135.7810 C   0  0  0  0  0  3  0  0  0  0  0  0
  181.0260  172.8190  136.3170 C   0  0  1  0  0  3  0  0  0  0  0  0
  182.4410  172.8280  136.6610 N   0  0  0  0  0  2  0  0  0  0  0  0
  183.2000  172.8300  135.4200 C   0  0  0  0  0  2  0  0  0  0  0  0
  186.6760  174.0350  136.2750 C   0  0  0  0  0  3  0  0  0  0  0  0
  184.8120  170.4650  135.3730 F   0  0  0  0  0  0  0  0  0  0  0  0
  186.7740  171.6860  135.9530 C   0  0  0  0  0  3  0  0  0  0  0  0
  187.3770  172.8710  136.2440 N   0  0  0  0  0  0  0  0  0  0  0  0
  185.3050  174.0370  136.0110 C   0  0  0  0  0  3  0  0  0  0  0  0
  185.4050  171.6460  135.6720 C   0  0  0  0  0  0  0  0  0  0  0  0
  184.6630  172.8330  135.7100 C   0  0  0  0  0  0  0  0  0  0  0  0
  180.3770  171.5340  136.8100 C   0  0  0  0  0  2  0  0  0  0  0  0
  179.1960  170.8670  134.6230 C   0  0  0  0  0  2  0  0  0  0  0  0
  180.2170  170.5330  135.6760 C   0  0  0  0  0  0  0  0  0  0  0  0
  181.3360  169.8510  135.2090 O   0  0  0  0  0  1  0  0  0  0  0  0
  178.9310  169.7470  135.6270 C   0  0  0  0  0  2  0  0  0  0  0  0
  185.8620  179.2690  143.0020 N   0  0  0  0  0  2  0  0  0  0  0  0
  185.9520  177.9590  143.6430 C   0  0  2  0  0  3  0  0  0  0  0  0
  183.8620  178.5490  144.8480 C   0  0  0  0  0  2  0  0  0  0  0  0
  185.2610  177.9850  145.0020 C   0  0  0  0  0  3  0  0  0  0  0  0
  184.9650  179.4140  145.4090 C   0  0  0  0  0  2  0  0  0  0  0  0
  187.4140  177.5170  143.7690 C   0  0  2  0  0  3  0  0  0  0  0  0
  188.0990  178.1190  144.9920 C   0  0  0  0  0  2  0  0  0  0  0  0
  188.0890  177.2050  146.0510 O   0  0  0  0  0  0  0  0  0  0  0  0
  188.6330  177.7360  148.3030 C   0  0  0  0  0  1  0  0  0  0  0  0
  189.1450  177.5970  146.8820 C   0  0  1  0  0  3  0  0  0  0  0  0
  191.1090  177.0930  147.7580 C   0  0  0  0  0  1  0  0  0  0  0  0
  190.1570  176.6370  146.8470 O   0  0  0  0  0  0  0  0  0  0  0  0
  188.1660  177.8910  142.4910 C   0  0  0  0  0  2  0  0  0  0  0  0
  189.6490  177.4400  142.3930 C   0  0  2  0  0  0  0  0  0  0  0  0
  191.1300  175.4700  142.8570 F   0  0  0  0  0  0  0  0  0  0  0  0
  189.8850  176.0180  142.8810 C   0  0  0  0  0  0  0  0  0  0  0  0
  188.9480  175.3390  143.2770 O   0  0  0  0  0  0  0  0  0  0  0  0
  190.5320  178.3870  143.0920 N   0  0  0  0  0  2  0  0  0  0  0  0
  191.3350  177.7360  144.1200 C   0  0  0  0  0  1  0  0  0  0  0  0
  190.1190  177.4620  140.6190 S   0  0  0  0  0  0  0  0  0  0  0  0
  188.7960  178.5770  140.0530 C   0  0  0  0  0  2  0  0  0  0  0  0
  187.9540  177.9020  139.1720 O   0  0  0  0  0  1  0  0  0  0  0  0
  1 34  1  0  0  0  0
  2  4  1  0  0  0  0
  3  1  2  0  0  0  0
  4  3  2  0  0  0  0
  5  4  1  0  0  0  0
  6  5  2  0  0  0  0
  7  5  1  0  0  0  0
  7  8  1  1  0  0  0
  7  2  1  0  0  0  0
  9 17  1  0  0  0  0
  9 16  1  0  0  0  0
 10 19  1  1  0  0  0
 10 14  1  0  0  0  0
 11 10  1  0  0  0  0
 11  9  2  0  0  0  0
 12 13  2  0  0  0  0
 12 18  1  0  0  0  0
 13 11  1  0  0  0  0
 14 16  2  0  0  0  0
 17 15  1  1  0  0  0
 17  7  1  0  0  0  0
 18 15  2  0  0  0  0
 19 20  1  0  0  0  0
 19 29  1  1  0  0  0
 21 28  1  0  0  0  0
 21 20  1  0  0  0  0
 23 27  1  0  0  0  0
 24 25  2  0  0  0  0
 25 22  1  0  0  0  0
 26 22  2  0  0  0  0
 27 28  2  0  0  0  0
 27 24  1  0  0  0  0
 28 26  1  0  0  0  0
 30 33  1  0  0  0  0
 30 31  1  0  0  0  0
 31 29  1  0  0  0  0
 32 31  1  0  0  0  0
 33 31  1  0  0  0  0
 35 34  1  1  0  0  0
 35 39  1  0  0  0  0
 35 37  1  0  0  0  0
 36 37  1  0  0  0  0
 36 38  1  0  0  0  0
 37 38  1  0  0  0  0
 39 46  1  6  0  0  0
 39 40  1  0  0  0  0
 40 41  1  0  0  0  0
 41 43  1  0  0  0  0
 43 42  1  1  0  0  0
 45 43  1  0  0  0  0
 45 44  1  0  0  0  0
 47 46  1  1  0  0  0
 47 49  1  0  0  0  0
 47 51  1  0  0  0  0
 48 49  1  0  0  0  0
 49 50  2  0  0  0  0
 51 52  1  0  0  0  0
 53 47  1  0  0  0  0
 54 53  1  0  0  0  0
 55 54  1  0  0  0  0
M  END
>  <MODEL>
6

>  <REMARK>
 VINA RESULT:      -5.4      2.178      2.695
  Name = 
  21 active torsions:
  status: ('A' for Active; 'I' for Inactive)
    1  A    between atoms: C_6  and  C_43
    2  A    between atoms: N_7  and  C_34
    3  A    between atoms: C_8  and  S_46
    4  A    between atoms: C_9  and  N_13
    5  A    between atoms: C_10  and  C_12
    6  A    between atoms: C_10  and  N_13
    7  A    between atoms: C_10  and  C_22
    8  A    between atoms: C_22  and  C_38
    9  A    between atoms: C_22  and  C_39
   10  A    between atoms: C_23  and  C_34
   11  A    between atoms: C_31  and  N_32
   12  A    between atoms: C_31  and  C_50
   13  A    between atoms: N_32  and  C_43
   14  A    between atoms: C_33  and  O_41
   15  A    between atoms: C_33  and  O_45
   16  A    between atoms: C_34  and  C_39
   17  A    between atoms: C_34  and  S_46
   18  A    between atoms: C_37  and  C_42
   19  A    between atoms: C_38  and  O_45
   20  A    between atoms: C_42  and  C_43
   21  A    between atoms: C_48  and  C_51
                            x       y       z     vdW  Elec       q    Type
                         _______ _______ _______ _____ _____    ______ ____

>  <TORSDO>
F 21

$$$$
=
 OpenBabel11062412113D

 55 60  0  0  1  0  0  0  0  0999 V2000
  191.9030  176.8860  138.9440 C   0  0  0  0  0  3  0  0  0  0  0  0
  190.6490  175.6320  142.3260 C   0  0  0  0  0  2  0  0  0  0  0  0
  191.5470  176.7930  140.1980 C   0  0  0  0  0  0  0  0  0  0  0  0
  191.2120  176.7000  141.4520 C   0  0  0  0  0  0  0  0  0  0  0  0
  191.3110  177.6050  142.6680 C   0  0  0  0  0  0  0  0  0  0  0  0
  191.7080  178.7790  142.8840 O   0  0  0  0  0  0  0  0  0  0  0  0
  190.7480  176.4980  143.4930 C   0  0  2  0  0  0  0  0  0  0  0  0
  191.7910  176.0020  144.4840 C   0  0  0  0  0  1  0  0  0  0  0  0
  188.3060  177.2420  143.1940 C   0  0  0  0  0  0  0  0  0  0  0  0
  186.2490  177.5720  142.2680 C   0  0  2  0  0  3  0  0  0  0  0  0
  187.0480  177.4110  143.5190 C   0  0  1  0  0  3  0  0  0  0  0  0
  187.1190  177.6550  146.0050 C   0  0  0  0  0  3  0  0  0  0  0  0
  186.4750  177.3400  144.8750 C   0  0  0  0  0  3  0  0  0  0  0  0
  187.2140  177.5060  141.1600 N   0  0  0  0  0  2  0  0  0  0  0  0
  189.5120  177.8330  145.2870 C   0  0  0  0  0  3  0  0  0  0  0  0
  188.4510  177.2890  141.7900 N   0  0  0  0  0  0  0  0  0  0  0  0
  189.3940  176.8450  144.1590 C   0  0  2  0  0  3  0  0  0  0  0  0
  188.5110  178.1400  146.1140 C   0  0  0  0  0  3  0  0  0  0  0  0
  185.4930  178.9030  142.2540 C   0  0  1  0  0  3  0  0  0  0  0  0
  185.5800  179.5400  140.9470 N   0  0  0  0  0  2  0  0  0  0  0  0
  184.2950  179.3790  140.2870 C   0  0  0  0  0  2  0  0  0  0  0  0
  185.3790  177.6530  137.1070 C   0  0  0  0  0  3  0  0  0  0  0  0
  182.7360  176.9800  140.2040 F   0  0  0  0  0  0  0  0  0  0  0  0
  183.7410  176.2930  138.1560 C   0  0  0  0  0  3  0  0  0  0  0  0
  184.6130  176.5300  137.1380 N   0  0  0  0  0  0  0  0  0  0  0  0
  185.2890  178.5940  138.1340 C   0  0  0  0  0  3  0  0  0  0  0  0
  183.6120  177.2160  139.1980 C   0  0  0  0  0  0  0  0  0  0  0  0
  184.4010  178.3730  139.1900 C   0  0  0  0  0  0  0  0  0  0  0  0
  184.0350  178.6950  142.6370 C   0  0  0  0  0  2  0  0  0  0  0  0
  183.2280  178.5390  145.0750 C   0  0  0  0  0  2  0  0  0  0  0  0
  183.7050  179.4040  143.9410 C   0  0  0  0  0  0  0  0  0  0  0  0
  184.4640  180.5050  144.3260 O   0  0  0  0  0  1  0  0  0  0  0  0
  182.2540  179.4630  144.3460 C   0  0  0  0  0  2  0  0  0  0  0  0
  192.8010  175.9460  138.3460 N   0  0  0  0  0  2  0  0  0  0  0  0
  192.9030  175.7160  136.9060 C   0  0  2  0  0  3  0  0  0  0  0  0
  191.5840  175.6350  134.8030 C   0  0  0  0  0  2  0  0  0  0  0  0
  191.5220  175.4700  136.3100 C   0  0  0  0  0  3  0  0  0  0  0  0
  191.0010  176.7350  135.6590 C   0  0  0  0  0  2  0  0  0  0  0  0
  193.8540  174.5510  136.6100 C   0  0  2  0  0  3  0  0  0  0  0  0
  193.2190  173.1940  136.9020 C   0  0  0  0  0  2  0  0  0  0  0  0
  193.5900  172.2670  135.9230 O   0  0  0  0  0  0  0  0  0  0  0  0
  191.6370  172.0080  134.5930 C   0  0  0  0  0  1  0  0  0  0  0  0
  192.4620  171.4580  135.7410 C   0  0  1  0  0  3  0  0  0  0  0  0
  194.0340  169.9650  136.1660 C   0  0  0  0  0  1  0  0  0  0  0  0
  192.8570  170.1530  135.4430 O   0  0  0  0  0  0  0  0  0  0  0  0
  195.1380  174.7300  137.4220 C   0  0  0  0  0  2  0  0  0  0  0  0
  196.4770  174.4500  136.6860 C   0  0  2  0  0  0  0  0  0  0  0  0
  196.4950  172.1360  137.6530 F   0  0  0  0  0  0  0  0  0  0  0  0
  196.8500  172.9750  136.6430 C   0  0  0  0  0  0  0  0  0  0  0  0
  197.5020  172.5320  135.7090 O   0  0  0  0  0  0  0  0  0  0  0  0
  197.5700  175.2500  137.2630 N   0  0  0  0  0  2  0  0  0  0  0  0
  198.5380  174.4260  137.9760 C   0  0  0  0  0  1  0  0  0  0  0  0
  196.2710  174.9810  134.9420 S   0  0  0  0  0  0  0  0  0  0  0  0
  196.7220  176.7280  135.1870 C   0  0  0  0  0  2  0  0  0  0  0  0
  195.5880  177.4640  135.5230 O   0  0  0  0  0  1  0  0  0  0  0  0
  1  3  2  0  0  0  0
  2  7  1  0  0  0  0
  3  4  2  0  0  0  0
  4  2  1  0  0  0  0
  4  5  1  0  0  0  0
  5  6  2  0  0  0  0
  5  7  1  0  0  0  0
  7 17  1  0  0  0  0
  7  8  1  1  0  0  0
  9 11  1  0  0  0  0
  9 17  1  0  0  0  0
 10 19  1  1  0  0  0
 10 11  1  0  0  0  0
 11 13  1  6  0  0  0
 12 18  1  0  0  0  0
 13 12  2  0  0  0  0
 14 16  1  0  0  0  0
 14 10  1  0  0  0  0
 15 18  2  0  0  0  0
 16  9  2  0  0  0  0
 17 15  1  1  0  0  0
 19 29  1  6  0  0  0
 20 19  1  0  0  0  0
 21 20  1  0  0  0  0
 22 25  2  0  0  0  0
 22 26  1  0  0  0  0
 24 27  2  0  0  0  0
 25 24  1  0  0  0  0
 26 28  2  0  0  0  0
 27 23  1  0  0  0  0
 28 27  1  0  0  0  0
 28 21  1  0  0  0  0
 29 31  1  0  0  0  0
 31 32  1  0  0  0  0
 31 33  1  0  0  0  0
 31 30  1  0  0  0  0
 33 30  1  0  0  0  0
 34  1  1  0  0  0  0
 35 34  1  1  0  0  0
 36 38  1  0  0  0  0
 36 37  1  0  0  0  0
 37 35  1  0  0  0  0
 38 37  1  0  0  0  0
 39 40  1  1  0  0  0
 39 35  1  0  0  0  0
 39 46  1  0  0  0  0
 41 40  1  0  0  0  0
 43 42  1  6  0  0  0
 43 41  1  0  0  0  0
 45 43  1  0  0  0  0
 45 44  1  0  0  0  0
 47 51  1  0  0  0  0
 47 46  1  1  0  0  0
 49 47  1  0  0  0  0
 49 48  1  0  0  0  0
 50 49  2  0  0  0  0
 51 52  1  0  0  0  0
 53 54  1  0  0  0  0
 53 47  1  0  0  0  0
 54 55  1  0  0  0  0
M  END
>  <MODEL>
7

>  <REMARK>
 VINA RESULT:      -5.3      4.534      9.494
  Name = 
  21 active torsions:
  status: ('A' for Active; 'I' for Inactive)
    1  A    between atoms: C_6  and  C_43
    2  A    between atoms: N_7  and  C_34
    3  A    between atoms: C_8  and  S_46
    4  A    between atoms: C_9  and  N_13
    5  A    between atoms: C_10  and  C_12
    6  A    between atoms: C_10  and  N_13
    7  A    between atoms: C_10  and  C_22
    8  A    between atoms: C_22  and  C_38
    9  A    between atoms: C_22  and  C_39
   10  A    between atoms: C_23  and  C_34
   11  A    between atoms: C_31  and  N_32
   12  A    between atoms: C_31  and  C_50
   13  A    between atoms: N_32  and  C_43
   14  A    between atoms: C_33  and  O_41
   15  A    between atoms: C_33  and  O_45
   16  A    between atoms: C_34  and  C_39
   17  A    between atoms: C_34  and  S_46
   18  A    between atoms: C_37  and  C_42
   19  A    between atoms: C_38  and  O_45
   20  A    between atoms: C_42  and  C_43
   21  A    between atoms: C_48  and  C_51
                            x       y       z     vdW  Elec       q    Type
                         _______ _______ _______ _____ _____    ______ ____

>  <TORSDO>
F 21

$$$$
=
 OpenBabel11062412113D

 55 60  0  0  1  0  0  0  0  0999 V2000
  184.5950  180.0200  143.9190 C   0  0  0  0  0  3  0  0  0  0  0  0
  182.2070  177.7970  141.9360 C   0  0  0  0  0  2  0  0  0  0  0  0
  183.5730  179.5520  143.2550 C   0  0  0  0  0  0  0  0  0  0  0  0
  182.5430  179.0830  142.6110 C   0  0  0  0  0  0  0  0  0  0  0  0
  181.1420  179.5810  142.3030 C   0  0  0  0  0  0  0  0  0  0  0  0
  180.4960  180.6380  142.5210 O   0  0  0  0  0  0  0  0  0  0  0  0
  180.8610  178.2730  141.6450 C   0  0  2  0  0  0  0  0  0  0  0  0
  179.8040  177.5090  142.4300 C   0  0  0  0  0  1  0  0  0  0  0  0
  180.3520  177.0730  139.4290 C   0  0  0  0  0  0  0  0  0  0  0  0
  179.6550  175.4910  137.9430 C   0  0  2  0  0  3  0  0  0  0  0  0
  179.9050  176.9400  138.2040 C   0  0  0  0  0  0  0  0  0  0  0  0
  180.1770  179.2270  137.2350 C   0  0  0  0  0  3  0  0  0  0  0  0
  179.5830  178.0280  137.2650 C   0  0  0  0  0  3  0  0  0  0  0  0
  180.0440  174.7850  139.1730 N   0  0  0  0  0  0  0  0  0  0  0  0
  181.4650  179.2970  139.3830 C   0  0  0  0  0  3  0  0  0  0  0  0
  180.4480  175.8080  140.0480 N   0  0  0  0  0  0  0  0  0  0  0  0
  180.5280  178.3930  140.1370 C   0  0  2  0  0  3  0  0  0  0  0  0
  181.2670  179.6860  138.1210 C   0  0  0  0  0  3  0  0  0  0  0  0
  180.4650  174.9900  136.7460 C   0  0  1  0  0  3  0  0  0  0  0  0
  181.7570  175.6600  136.6720 N   0  0  0  0  0  2  0  0  0  0  0  0
  182.7540  174.7670  137.2420 C   0  0  0  0  0  2  0  0  0  0  0  0
  186.1950  174.7640  135.6850 C   0  0  0  0  0  3  0  0  0  0  0  0
  183.9010  177.2680  138.0300 F   0  0  0  0  0  0  0  0  0  0  0  0
  185.9240  176.8090  136.8570 C   0  0  0  0  0  3  0  0  0  0  0  0
  186.6710  175.9720  136.0880 N   0  0  0  0  0  0  0  0  0  0  0  0
  184.9110  174.3570  136.0510 C   0  0  0  0  0  3  0  0  0  0  0  0
  184.6370  176.4340  137.2560 C   0  0  0  0  0  0  0  0  0  0  0  0
  184.1240  175.2000  136.8400 C   0  0  0  0  0  0  0  0  0  0  0  0
  180.6620  173.4830  136.8240 C   0  0  0  0  0  2  0  0  0  0  0  0
  179.0860  171.5010  136.3710 C   0  0  0  0  0  2  0  0  0  0  0  0
  179.7340  172.7600  135.8620 C   0  0  0  0  0  0  0  0  0  0  0  0
  178.9530  173.5040  134.9830 O   0  0  0  0  0  1  0  0  0  0  0  0
  180.1970  171.4290  135.3260 C   0  0  0  0  0  2  0  0  0  0  0  0
  185.1630  179.3100  145.0240 N   0  0  0  0  0  2  0  0  0  0  0  0
  185.8040  178.0010  144.9140 C   0  0  2  0  0  3  0  0  0  0  0  0
  185.2860  177.8820  147.3400 C   0  0  0  0  0  2  0  0  0  0  0  0
  186.3130  177.5450  146.2760 C   0  0  0  0  0  3  0  0  0  0  0  0
  186.5200  178.7400  147.1840 C   0  0  0  0  0  2  0  0  0  0  0  0
  186.9350  178.0390  143.8790 C   0  0  2  0  0  3  0  0  0  0  0  0
  186.4150  177.9620  142.4470 C   0  0  0  0  0  2  0  0  0  0  0  0
  187.3200  178.5710  141.5710 O   0  0  0  0  0  0  0  0  0  0  0  0
  185.4250  179.0710  140.2270 C   0  0  0  0  0  1  0  0  0  0  0  0
  186.7750  178.3850  140.2950 C   0  0  1  0  0  3  0  0  0  0  0  0
  188.7510  178.1160  139.3470 C   0  0  0  0  0  1  0  0  0  0  0  0
  187.6230  178.9330  139.3330 O   0  0  0  0  0  0  0  0  0  0  0  0
  187.9120  176.8950  144.1600 C   0  0  0  0  0  2  0  0  0  0  0  0
  189.4250  177.2450  144.1350 C   0  0  2  0  0  0  0  0  0  0  0  0
  189.3980  177.2800  146.6420 F   0  0  0  0  0  0  0  0  0  0  0  0
  190.1020  177.1120  145.4910 C   0  0  0  0  0  0  0  0  0  0  0  0
  191.3010  176.8790  145.5600 O   0  0  0  0  0  0  0  0  0  0  0  0
  189.6430  178.5870  143.5700 N   0  0  0  0  0  2  0  0  0  0  0  0
  190.2980  179.4830  144.5160 C   0  0  0  0  0  1  0  0  0  0  0  0
  190.2530  176.0430  143.0230 S   0  0  0  0  0  0  0  0  0  0  0  0
  191.0940  177.2620  141.9640 C   0  0  0  0  0  2  0  0  0  0  0  0
  192.3260  177.5990  142.5190 O   0  0  0  0  0  1  0  0  0  0  0  0
  1 34  1  0  0  0  0
  2  4  1  0  0  0  0
  3  1  2  0  0  0  0
  4  3  2  0  0  0  0
  5  6  2  0  0  0  0
  5  4  1  0  0  0  0
  7  2  1  0  0  0  0
  7  5  1  0  0  0  0
  7  8  1  1  0  0  0
  9 16  1  0  0  0  0
  9 17  1  0  0  0  0
 10 19  1  6  0  0  0
 10 11  1  0  0  0  0
 10 14  1  0  0  0  0
 11  9  2  0  0  0  0
 12 13  2  0  0  0  0
 12 18  1  0  0  0  0
 13 11  1  0  0  0  0
 14 16  2  0  0  0  0
 17 15  1  6  0  0  0
 17  7  1  0  0  0  0
 18 15  2  0  0  0  0
 19 29  1  1  0  0  0
 20 19  1  0  0  0  0
 20 21  1  0  0  0  0
 22 26  2  0  0  0  0
 22 25  1  0  0  0  0
 24 27  1  0  0  0  0
 25 24  2  0  0  0  0
 26 28  1  0  0  0  0
 27 23  1  0  0  0  0
 28 21  1  0  0  0  0
 28 27  2  0  0  0  0
 31 30  1  0  0  0  0
 31 29  1  0  0  0  0
 32 31  1  0  0  0  0
 33 31  1  0  0  0  0
 33 30  1  0  0  0  0
 35 34  1  1  0  0  0
 35 37  1  0  0  0  0
 37 38  1  0  0  0  0
 37 36  1  0  0  0  0
 38 36  1  0  0  0  0
 39 40  1  6  0  0  0
 39 46  1  0  0  0  0
 39 35  1  0  0  0  0
 41 40  1  0  0  0  0
 43 42  1  1  0  0  0
 43 41  1  0  0  0  0
 45 44  1  0  0  0  0
 45 43  1  0  0  0  0
 47 46  1  1  0  0  0
 47 49  1  0  0  0  0
 49 50  2  0  0  0  0
 49 48  1  0  0  0  0
 51 47  1  0  0  0  0
 51 52  1  0  0  0  0
 53 47  1  0  0  0  0
 54 55  1  0  0  0  0
 54 53  1  0  0  0  0
M  END
>  <MODEL>
8

>  <REMARK>
 VINA RESULT:      -5.1      2.266      3.466
  Name = 
  21 active torsions:
  status: ('A' for Active; 'I' for Inactive)
    1  A    between atoms: C_6  and  C_43
    2  A    between atoms: N_7  and  C_34
    3  A    between atoms: C_8  and  S_46
    4  A    between atoms: C_9  and  N_13
    5  A    between atoms: C_10  and  C_12
    6  A    between atoms: C_10  and  N_13
    7  A    between atoms: C_10  and  C_22
    8  A    between atoms: C_22  and  C_38
    9  A    between atoms: C_22  and  C_39
   10  A    between atoms: C_23  and  C_34
   11  A    between atoms: C_31  and  N_32
   12  A    between atoms: C_31  and  C_50
   13  A    between atoms: N_32  and  C_43
   14  A    between atoms: C_33  and  O_41
   15  A    between atoms: C_33  and  O_45
   16  A    between atoms: C_34  and  C_39
   17  A    between atoms: C_34  and  S_46
   18  A    between atoms: C_37  and  C_42
   19  A    between atoms: C_38  and  O_45
   20  A    between atoms: C_42  and  C_43
   21  A    between atoms: C_48  and  C_51
                            x       y       z     vdW  Elec       q    Type
                         _______ _______ _______ _____ _____    ______ ____

>  <TORSDO>
F 21

$$$$
=
 OpenBabel11062412113D

 55 60  0  0  1  0  0  0  0  0999 V2000
  183.2490  174.9520  136.9590 C   0  0  0  0  0  3  0  0  0  0  0  0
  183.7400  178.1860  138.9280 C   0  0  0  0  0  2  0  0  0  0  0  0
  183.0680  176.0140  137.6970 C   0  0  0  0  0  0  0  0  0  0  0  0
  182.8790  177.0820  138.4160 C   0  0  0  0  0  0  0  0  0  0  0  0
  181.6720  177.7810  139.0190 C   0  0  0  0  0  0  0  0  0  0  0  0
  180.4370  177.5520  139.0740 O   0  0  0  0  0  0  0  0  0  0  0  0
  182.5820  178.8590  139.5010 C   0  0  2  0  0  0  0  0  0  0  0  0
  182.2700  180.1660  138.7860 C   0  0  0  0  0  1  0  0  0  0  0  0
  183.9810  178.8380  141.6570 C   0  0  0  0  0  0  0  0  0  0  0  0
  185.7500  179.0270  143.0840 C   0  0  2  0  0  3  0  0  0  0  0  0
  184.2680  179.0840  142.9120 C   0  0  1  0  0  3  0  0  0  0  0  0
  182.0300  179.1100  144.0240 C   0  0  0  0  0  3  0  0  0  0  0  0
  183.3170  179.4720  143.9690 C   0  0  0  0  0  3  0  0  0  0  0  0
  186.2970  178.6830  141.7630 N   0  0  0  0  0  2  0  0  0  0  0  0
  181.5910  178.1560  141.7490 C   0  0  0  0  0  3  0  0  0  0  0  0
  185.1680  178.5950  140.9310 N   0  0  0  0  0  0  0  0  0  0  0  0
  182.6140  179.0030  141.0430 C   0  0  2  0  0  3  0  0  0  0  0  0
  181.3200  178.2510  143.0520 C   0  0  0  0  0  3  0  0  0  0  0  0
  186.1530  177.9860  144.1300 C   0  0  1  0  0  3  0  0  0  0  0  0
  186.9020  176.8950  143.5200 N   0  0  0  0  0  2  0  0  0  0  0  0
  188.0290  176.5910  144.3880 C   0  0  0  0  0  2  0  0  0  0  0  0
  190.7290  176.8280  141.7580 C   0  0  0  0  0  3  0  0  0  0  0  0
  190.1370  178.0560  145.6530 F   0  0  0  0  0  0  0  0  0  0  0  0
  191.4990  177.9520  143.7010 C   0  0  0  0  0  3  0  0  0  0  0  0
  191.6840  177.5360  142.4180 N   0  0  0  0  0  0  0  0  0  0  0  0
  189.5240  176.5140  142.3880 C   0  0  0  0  0  3  0  0  0  0  0  0
  190.3110  177.6480  144.3730 C   0  0  0  0  0  0  0  0  0  0  0  0
  189.3110  176.9300  143.7060 C   0  0  0  0  0  0  0  0  0  0  0  0
  186.9740  178.6280  145.2380 C   0  0  0  0  0  2  0  0  0  0  0  0
  184.9870  177.9370  146.7190 C   0  0  0  0  0  2  0  0  0  0  0  0
  186.4610  178.2160  146.6080 C   0  0  0  0  0  0  0  0  0  0  0  0
  187.2670  177.4300  147.4270 O   0  0  0  0  0  1  0  0  0  0  0  0
  185.5830  179.1980  147.3400 C   0  0  0  0  0  2  0  0  0  0  0  0
  183.8870  175.0240  135.6800 N   0  0  0  0  0  2  0  0  0  0  0  0
  184.7250  173.9640  135.1240 C   0  0  2  0  0  3  0  0  0  0  0  0
  184.1630  171.5480  135.0020 C   0  0  0  0  0  2  0  0  0  0  0  0
  184.5600  172.6810  135.9290 C   0  0  0  0  0  3  0  0  0  0  0  0
  183.1210  172.2100  135.8730 C   0  0  0  0  0  2  0  0  0  0  0  0
  186.1930  174.4060  135.0730 C   0  0  2  0  0  3  0  0  0  0  0  0
  187.1190  173.2880  134.6020 C   0  0  0  0  0  2  0  0  0  0  0  0
  188.4130  173.4960  135.0910 O   0  0  0  0  0  0  0  0  0  0  0  0
  187.9740  171.1690  135.2930 C   0  0  0  0  0  1  0  0  0  0  0  0
  188.6910  172.3710  135.8760 C   0  0  1  0  0  3  0  0  0  0  0  0
  190.6350  173.2930  135.3770 C   0  0  0  0  0  1  0  0  0  0  0  0
  190.0650  172.1290  135.8890 O   0  0  0  0  0  0  0  0  0  0  0  0
  186.6150  174.9100  136.4540 C   0  0  0  0  0  2  0  0  0  0  0  0
  187.3510  176.2770  136.5050 C   0  0  2  0  0  0  0  0  0  0  0  0
  186.3600  177.3360  138.5510 F   0  0  0  0  0  0  0  0  0  0  0  0
  186.5560  177.3700  137.2060 C   0  0  0  0  0  0  0  0  0  0  0  0
  186.0590  178.2800  136.5580 O   0  0  0  0  0  0  0  0  0  0  0  0
  187.7540  176.7050  135.1560 N   0  0  0  0  0  2  0  0  0  0  0  0
  189.1880  176.5590  134.9370 C   0  0  0  0  0  1  0  0  0  0  0  0
  188.8850  176.0430  137.4860 S   0  0  0  0  0  0  0  0  0  0  0  0
  188.9480  177.7170  138.2000 C   0  0  0  0  0  2  0  0  0  0  0  0
  190.1680  178.3150  137.8920 O   0  0  0  0  0  1  0  0  0  0  0  0
  1  3  2  0  0  0  0
  2  7  1  0  0  0  0
  3  4  2  0  0  0  0
  4  2  1  0  0  0  0
  4  5  1  0  0  0  0
  5  6  2  0  0  0  0
  5  7  1  0  0  0  0
  7  8  1  6  0  0  0
  7 17  1  0  0  0  0
  9 11  1  0  0  0  0
 10 19  1  1  0  0  0
 11 10  1  0  0  0  0
 11 13  1  6  0  0  0
 13 12  2  0  0  0  0
 14 10  1  0  0  0  0
 15 18  2  0  0  0  0
 16  9  2  0  0  0  0
 16 14  1  0  0  0  0
 17  9  1  0  0  0  0
 17 15  1  1  0  0  0
 18 12  1  0  0  0  0
 19 29  1  1  0  0  0
 20 19  1  0  0  0  0
 20 21  1  0  0  0  0
 22 26  2  0  0  0  0
 22 25  1  0  0  0  0
 24 27  1  0  0  0  0
 25 24  2  0  0  0  0
 26 28  1  0  0  0  0
 27 23  1  0  0  0  0
 28 27  2  0  0  0  0
 28 21  1  0  0  0  0
 29 31  1  0  0  0  0
 30 33  1  0  0  0  0
 31 30  1  0  0  0  0
 31 33  1  0  0  0  0
 31 32  1  0  0  0  0
 34  1  1  0  0  0  0
 35 34  1  1  0  0  0
 35 37  1  0  0  0  0
 36 38  1  0  0  0  0
 36 37  1  0  0  0  0
 38 37  1  0  0  0  0
 39 40  1  1  0  0  0
 39 35  1  0  0  0  0
 39 46  1  0  0  0  0
 40 41  1  0  0  0  0
 41 43  1  0  0  0  0
 43 42  1  6  0  0  0
 43 45  1  0  0  0  0
 44 45  1  0  0  0  0
 47 46  1  6  0  0  0
 47 49  1  0  0  0  0
 47 53  1  0  0  0  0
 49 48  1  0  0  0  0
 50 49  2  0  0  0  0
 51 47  1  0  0  0  0
 52 51  1  0  0  0  0
 53 54  1  0  0  0  0
 55 54  1  0  0  0  0
M  END
>  <MODEL>
9

>  <REMARK>
 VINA RESULT:      -4.7      2.339      8.598
  Name = 
  21 active torsions:
  status: ('A' for Active; 'I' for Inactive)
    1  A    between atoms: C_6  and  C_43
    2  A    between atoms: N_7  and  C_34
    3  A    between atoms: C_8  and  S_46
    4  A    between atoms: C_9  and  N_13
    5  A    between atoms: C_10  and  C_12
    6  A    between atoms: C_10  and  N_13
    7  A    between atoms: C_10  and  C_22
    8  A    between atoms: C_22  and  C_38
    9  A    between atoms: C_22  and  C_39
   10  A    between atoms: C_23  and  C_34
   11  A    between atoms: C_31  and  N_32
   12  A    between atoms: C_31  and  C_50
   13  A    between atoms: N_32  and  C_43
   14  A    between atoms: C_33  and  O_41
   15  A    between atoms: C_33  and  O_45
   16  A    between atoms: C_34  and  C_39
   17  A    between atoms: C_34  and  S_46
   18  A    between atoms: C_37  and  C_42
   19  A    between atoms: C_38  and  O_45
   20  A    between atoms: C_42  and  C_43
   21  A    between atoms: C_48  and  C_51
                            x       y       z     vdW  Elec       q    Type
                         _______ _______ _______ _____ _____    ______ ____

>  <TORSDO>
F 21

$$$$
