=
 OpenBabel11062413363D

 42 48  0  0  1  0  0  0  0  0999 V2000
  189.0860  177.6420  147.8010 C   0  0  1  0  0  0  0  0  0  0  0  0
  189.5790  176.6510  146.7620 C   0  0  2  0  0  3  0  0  0  0  0  0
  187.7710  178.0090  145.8130 C   0  0  2  0  0  3  0  0  0  0  0  0
  190.2010  177.3770  145.5820 C   0  0  2  0  0  3  0  0  0  0  0  0
  187.6680  177.5510  148.3180 C   0  0  0  0  0  2  0  0  0  0  0  0
  188.7650  176.8870  145.5080 C   0  0  1  0  0  3  0  0  0  0  0  0
  190.0090  178.3390  148.5800 O   0  0  0  0  0  1  0  0  0  0  0  0
  188.0320  178.5510  147.2170 C   0  0  1  0  0  3  0  0  0  0  0  0
  186.4400  177.5200  145.7210 O   0  0  0  0  0  0  0  0  0  0  0  0
  185.3390  178.3610  145.5520 C   0  0  0  0  0  0  0  0  0  0  0  0
  184.4510  178.4590  146.4420 O   0  0  0  0  0  0  0  0  0  0  0  0
  185.1980  179.1220  144.2840 C   0  0  0  0  0  2  0  0  0  0  0  0
  185.0030  179.5870  141.4620 O   0  0  0  0  0  0  0  0  0  0  0  0
  184.3130  178.6530  141.9560 C   0  0  0  0  0  0  0  0  0  0  0  0
  184.4060  178.3410  143.3490 N   0  0  0  0  0  2  0  0  0  0  0  0
  181.7120  177.8900  138.7880 C   0  0  1  0  0  3  0  0  0  0  0  0
  183.9330  177.6880  139.7910 N   0  0  0  0  0  2  0  0  0  0  0  0
  181.9650  179.1840  138.0100 C   0  0  0  0  0  1  0  0  0  0  0  0
  181.3860  178.9940  142.1980 N   0  0  0  0  0  1  0  0  0  0  0  0
  182.9700  177.0280  138.9160 C   0  0  0  0  0  2  0  0  0  0  0  0
  182.0270  178.7670  140.9120 C   0  0  1  0  0  3  0  0  0  0  0  0
  183.3150  177.9390  141.0950 C   0  0  2  0  0  3  0  0  0  0  0  0
  181.1110  178.1260  140.0530 O   0  0  0  0  0  0  0  0  0  0  0  0
  191.0300  176.4970  144.8880 O   0  0  0  0  0  0  0  0  0  0  0  0
  190.4030  176.3350  143.6540 C   0  0  0  0  0  2  0  0  0  0  0  0
  190.8310  177.4420  142.7070 C   0  0  0  0  0  2  0  0  0  0  0  0
  190.8350  177.3700  138.8000 C   0  0  2  0  0  3  0  0  0  0  0  0
  188.9590  177.9800  137.1540 C   0  0  0  0  0  1  0  0  0  0  0  0
  188.9260  177.2950  140.9650 C   0  0  2  0  0  0  0  0  0  0  0  0
  191.3230  177.7530  140.2040 C   0  0  2  0  0  3  0  0  0  0  0  0
  188.0020  177.4460  142.0110 O   0  0  0  0  0  0  0  0  0  0  0  0
  192.6630  177.3920  140.3740 O   0  0  0  0  0  1  0  0  0  0  0  0
  188.3790  177.7030  139.6210 C   0  0  1  0  0  3  0  0  0  0  0  0
  190.4310  177.0940  141.2710 C   0  0  1  0  0  3  0  0  0  0  0  0
  187.8600  178.8890  140.1560 O   0  0  0  0  0  0  0  0  0  0  0  0
  188.4660  178.6320  141.4050 C   0  0  2  0  0  3  0  0  0  0  0  0
  189.4660  178.0420  138.5860 C   0  0  1  0  0  3  0  0  0  0  0  0
  190.9520  175.8400  138.5720 C   0  0  2  0  0  3  0  0  0  0  0  0
  192.2840  175.5290  137.9180 C   0  0  0  0  0  1  0  0  0  0  0  0
  189.8330  175.1470  137.7930 C   0  0  0  0  0  2  0  0  0  0  0  0
  190.1640  173.8150  137.5330 O   0  0  0  0  0  0  0  0  0  0  0  0
  189.2460  173.3950  136.6870 O   0  0  0  0  0  1  0  0  0  0  0  0
  1  5  1  0  0  0  0
  1  7  1  1  0  0  0
  2  1  1  0  0  0  0
  3  8  1  0  0  0  0
  4  2  1  0  0  0  0
  6  4  1  0  0  0  0
  6  3  1  0  0  0  0
  6  2  1  0  0  0  0
  8  1  1  0  0  0  0
  8  5  1  0  0  0  0
  9  3  1  0  0  0  0
 10  9  1  0  0  0  0
 10 11  2  0  0  0  0
 12 10  1  0  0  0  0
 13 14  2  0  0  0  0
 14 15  1  0  0  0  0
 15 12  1  0  0  0  0
 16 20  1  0  0  0  0
 16 23  1  0  0  0  0
 17 22  1  0  0  0  0
 18 16  1  0  0  0  0
 20 17  1  0  0  0  0
 21 22  1  0  0  0  0
 21 19  1  0  0  0  0
 22 14  1  0  0  0  0
 23 21  1  0  0  0  0
 24  4  1  0  0  0  0
 25 24  1  0  0  0  0
 26 25  1  0  0  0  0
 27 30  1  0  0  0  0
 28 37  1  0  0  0  0
 29 34  1  0  0  0  0
 29 36  1  0  0  0  0
 29 31  1  0  0  0  0
 30 32  1  0  0  0  0
 30 34  1  0  0  0  0
 33 35  1  0  0  0  0
 33 29  1  0  0  0  0
 34 26  1  0  0  0  0
 35 36  1  0  0  0  0
 36 31  1  0  0  0  0
 37 27  1  0  0  0  0
 37 33  1  0  0  0  0
 38 27  1  0  0  0  0
 39 38  1  0  0  0  0
 40 38  1  0  0  0  0
 41 40  1  0  0  0  0
 42 41  1  0  0  0  0
M  END
>  <MODEL>
1

>  <REMARK>
 VINA RESULT:      -8.3      0.000      0.000
  Name = 
  12 active torsions:
  status: ('A' for Active; 'I' for Inactive)
    1  A    between atoms: C_1  and  C_10
    2  A    between atoms: C_3  and  C_29
    3  A    between atoms: C_3  and  C_31
    4  A    between atoms: C_4  and  C_10
    5  A    between atoms: C_4  and  O_30
    6  A    between atoms: C_7  and  C_11
    7  A    between atoms: C_7  and  O_18
    8  A    between atoms: C_11  and  N_26
    9  A    between atoms: C_13  and  O_18
   10  A    between atoms: C_22  and  C_38
   11  A    between atoms: C_23  and  O_32
   12  A    between atoms: C_31  and  O_32
                            x       y       z     vdW  Elec       q    Type
                         _______ _______ _______ _____ _____    ______ ____

>  <TORSDO>
F 12

$$$$
=
 OpenBabel11062413363D

 42 48  0  0  1  0  0  0  0  0999 V2000
  188.1430  177.4840  147.7170 C   0  0  1  0  0  0  0  0  0  0  0  0
  187.2560  178.2540  146.7560 C   0  0  2  0  0  3  0  0  0  0  0  0
  189.1360  177.2670  145.5300 C   0  0  2  0  0  3  0  0  0  0  0  0
  186.6240  177.3170  145.7420 C   0  0  2  0  0  3  0  0  0  0  0  0
  189.5680  177.9320  147.9520 C   0  0  0  0  0  2  0  0  0  0  0  0
  187.8680  178.1100  145.3790 C   0  0  1  0  0  3  0  0  0  0  0  0
  187.5620  176.6620  148.6810 O   0  0  0  0  0  1  0  0  0  0  0  0
  189.2620  176.7920  146.9760 C   0  0  1  0  0  3  0  0  0  0  0  0
  190.2770  178.0330  145.1700 O   0  0  0  0  0  0  0  0  0  0  0  0
  190.9810  177.8240  143.9830 C   0  0  0  0  0  0  0  0  0  0  0  0
  191.9840  178.5280  143.6880 O   0  0  0  0  0  0  0  0  0  0  0  0
  190.5120  176.7780  143.0390 C   0  0  0  0  0  2  0  0  0  0  0  0
  188.4040  177.5150  141.2400 O   0  0  0  0  0  0  0  0  0  0  0  0
  189.5910  177.5630  140.8120 C   0  0  0  0  0  0  0  0  0  0  0  0
  190.6880  177.2560  141.6780 N   0  0  0  0  0  2  0  0  0  0  0  0
  188.9370  177.7930  136.7010 C   0  0  1  0  0  3  0  0  0  0  0  0
  188.8570  178.8340  138.9120 N   0  0  0  0  0  2  0  0  0  0  0  0
  187.5130  177.2310  136.6960 C   0  0  0  0  0  1  0  0  0  0  0  0
  190.7170  175.5900  138.9210 N   0  0  0  0  0  1  0  0  0  0  0  0
  189.0490  179.1000  137.4910 C   0  0  0  0  0  2  0  0  0  0  0  0
  189.7230  176.5670  138.5060 C   0  0  1  0  0  3  0  0  0  0  0  0
  189.8390  177.8460  139.3610 C   0  0  2  0  0  3  0  0  0  0  0  0
  189.8950  176.8390  137.1330 O   0  0  0  0  0  0  0  0  0  0  0  0
  185.5020  177.9310  145.1870 O   0  0  0  0  0  0  0  0  0  0  0  0
  185.7190  177.8640  143.8120 C   0  0  0  0  0  2  0  0  0  0  0  0
  185.0280  179.0260  143.1220 C   0  0  0  0  0  2  0  0  0  0  0  0
  183.0200  178.7080  139.7850 C   0  0  2  0  0  3  0  0  0  0  0  0
  180.4820  178.7820  139.3940 C   0  0  0  0  0  1  0  0  0  0  0  0
  182.5840  178.3510  142.6160 C   0  0  2  0  0  0  0  0  0  0  0  0
  184.0670  179.2780  140.7530 C   0  0  2  0  0  3  0  0  0  0  0  0
  182.3300  178.3610  143.9970 O   0  0  0  0  0  0  0  0  0  0  0  0
  185.3410  179.2340  140.1790 O   0  0  0  0  0  1  0  0  0  0  0  0
  181.3440  178.5410  141.7800 C   0  0  1  0  0  3  0  0  0  0  0  0
  184.0290  178.5080  142.0840 C   0  0  1  0  0  3  0  0  0  0  0  0
  180.9310  179.6150  142.5800 O   0  0  0  0  0  0  0  0  0  0  0  0
  182.1360  179.5780  143.3140 C   0  0  2  0  0  3  0  0  0  0  0  0
  181.6300  179.0460  140.3550 C   0  0  1  0  0  3  0  0  0  0  0  0
  183.3370  177.2310  139.4350 C   0  0  2  0  0  3  0  0  0  0  0  0
  183.8510  177.1500  138.0110 C   0  0  0  0  0  1  0  0  0  0  0  0
  182.2270  176.1970  139.6300 C   0  0  0  0  0  2  0  0  0  0  0  0
  181.9640  175.5230  138.4350 O   0  0  0  0  0  0  0  0  0  0  0  0
  180.7730  174.9860  138.6030 O   0  0  0  0  0  1  0  0  0  0  0  0
  1  5  1  0  0  0  0
  1  7  1  1  0  0  0
  2  1  1  0  0  0  0
  3  8  1  0  0  0  0
  4  2  1  0  0  0  0
  6  3  1  0  0  0  0
  6  4  1  0  0  0  0
  6  2  1  0  0  0  0
  8  1  1  0  0  0  0
  8  5  1  0  0  0  0
  9  3  1  0  0  0  0
 10  9  1  0  0  0  0
 11 10  2  0  0  0  0
 12 10  1  0  0  0  0
 14 13  2  0  0  0  0
 14 15  1  0  0  0  0
 15 12  1  0  0  0  0
 16 23  1  0  0  0  0
 16 20  1  0  0  0  0
 17 22  1  0  0  0  0
 18 16  1  0  0  0  0
 20 17  1  0  0  0  0
 21 19  1  0  0  0  0
 21 22  1  0  0  0  0
 22 14  1  0  0  0  0
 23 21  1  0  0  0  0
 24  4  1  0  0  0  0
 25 24  1  0  0  0  0
 26 25  1  0  0  0  0
 27 37  1  0  0  0  0
 27 30  1  0  0  0  0
 28 37  1  0  0  0  0
 29 36  1  0  0  0  0
 29 31  1  0  0  0  0
 30 34  1  0  0  0  0
 32 30  1  0  0  0  0
 33 35  1  0  0  0  0
 33 29  1  0  0  0  0
 34 29  1  0  0  0  0
 34 26  1  0  0  0  0
 35 36  1  0  0  0  0
 36 31  1  0  0  0  0
 37 33  1  0  0  0  0
 38 40  1  0  0  0  0
 38 27  1  0  0  0  0
 39 38  1  0  0  0  0
 41 42  1  0  0  0  0
 41 40  1  0  0  0  0
M  END
>  <MODEL>
2

>  <REMARK>
 VINA RESULT:      -8.2      2.399      6.537
  Name = 
  12 active torsions:
  status: ('A' for Active; 'I' for Inactive)
    1  A    between atoms: C_1  and  C_10
    2  A    between atoms: C_3  and  C_29
    3  A    between atoms: C_3  and  C_31
    4  A    between atoms: C_4  and  C_10
    5  A    between atoms: C_4  and  O_30
    6  A    between atoms: C_7  and  C_11
    7  A    between atoms: C_7  and  O_18
    8  A    between atoms: C_11  and  N_26
    9  A    between atoms: C_13  and  O_18
   10  A    between atoms: C_22  and  C_38
   11  A    between atoms: C_23  and  O_32
   12  A    between atoms: C_31  and  O_32
                            x       y       z     vdW  Elec       q    Type
                         _______ _______ _______ _____ _____    ______ ____

>  <TORSDO>
F 12

$$$$
=
 OpenBabel11062413363D

 42 48  0  0  1  0  0  0  0  0999 V2000
  188.1460  177.5360  147.8450 C   0  0  1  0  0  0  0  0  0  0  0  0
  187.3740  178.3650  146.8350 C   0  0  2  0  0  3  0  0  0  0  0  0
  189.2130  177.1990  145.7090 C   0  0  2  0  0  3  0  0  0  0  0  0
  186.7080  177.4700  145.8040 C   0  0  2  0  0  3  0  0  0  0  0  0
  189.5930  177.8620  148.1400 C   0  0  0  0  0  2  0  0  0  0  0  0
  188.0310  178.1460  145.4900 C   0  0  1  0  0  3  0  0  0  0  0  0
  187.4530  176.7820  148.7910 O   0  0  0  0  0  1  0  0  0  0  0  0
  189.2320  176.7380  147.1640 C   0  0  1  0  0  3  0  0  0  0  0  0
  190.4320  177.8580  145.3920 O   0  0  0  0  0  0  0  0  0  0  0  0
  190.9110  177.9680  144.0860 C   0  0  0  0  0  0  0  0  0  0  0  0
  191.0100  179.0910  143.5210 O   0  0  0  0  0  0  0  0  0  0  0  0
  191.2740  176.7340  143.3420 C   0  0  0  0  0  2  0  0  0  0  0  0
  191.5920  177.5070  140.6000 O   0  0  0  0  0  0  0  0  0  0  0  0
  190.5010  176.9710  140.9410 C   0  0  0  0  0  0  0  0  0  0  0  0
  190.3030  176.5180  142.2830 N   0  0  0  0  0  2  0  0  0  0  0  0
  188.2230  177.7600  137.5390 C   0  0  1  0  0  3  0  0  0  0  0  0
  189.9040  176.4040  138.6850 N   0  0  0  0  0  2  0  0  0  0  0  0
  189.1850  178.7550  136.8840 C   0  0  0  0  0  1  0  0  0  0  0  0
  188.1610  178.7770  140.9910 N   0  0  0  0  0  1  0  0  0  0  0  0
  188.8360  176.3660  137.6930 C   0  0  0  0  0  2  0  0  0  0  0  0
  188.7230  178.2860  139.7420 C   0  0  1  0  0  3  0  0  0  0  0  0
  189.3730  176.9040  139.9550 C   0  0  2  0  0  3  0  0  0  0  0  0
  187.7020  178.2390  138.7700 O   0  0  0  0  0  0  0  0  0  0  0  0
  185.6700  178.1700  145.1910 O   0  0  0  0  0  0  0  0  0  0  0  0
  185.9200  178.0290  143.8270 C   0  0  0  0  0  2  0  0  0  0  0  0
  185.2420  179.1490  143.0590 C   0  0  0  0  0  2  0  0  0  0  0  0
  182.8300  178.7200  140.0150 C   0  0  2  0  0  3  0  0  0  0  0  0
  180.2620  178.7030  139.9570 C   0  0  0  0  0  1  0  0  0  0  0  0
  182.7780  178.3860  142.8820 C   0  0  2  0  0  0  0  0  0  0  0  0
  183.9730  179.3380  140.8330 C   0  0  2  0  0  3  0  0  0  0  0  0
  182.7060  178.4040  144.2840 O   0  0  0  0  0  0  0  0  0  0  0  0
  185.1620  179.3300  140.0980 O   0  0  0  0  0  1  0  0  0  0  0  0
  181.4350  178.5230  142.2130 C   0  0  1  0  0  3  0  0  0  0  0  0
  184.1360  178.5840  142.1640 C   0  0  1  0  0  3  0  0  0  0  0  0
  181.0910  179.5920  143.0500 O   0  0  0  0  0  0  0  0  0  0  0  0
  182.3820  179.6060  143.6220 C   0  0  2  0  0  3  0  0  0  0  0  0
  181.5150  179.0180  140.7580 C   0  0  1  0  0  3  0  0  0  0  0  0
  183.1510  177.2500  139.6390 C   0  0  2  0  0  3  0  0  0  0  0  0
  183.7240  177.2030  138.2360 C   0  0  0  0  0  1  0  0  0  0  0  0
  182.0260  176.2210  139.7590 C   0  0  0  0  0  2  0  0  0  0  0  0
  181.5790  175.8270  138.4960 O   0  0  0  0  0  0  0  0  0  0  0  0
  180.8590  174.7450  138.7120 O   0  0  0  0  0  1  0  0  0  0  0  0
  1  5  1  0  0  0  0
  1  7  1  1  0  0  0
  2  1  1  0  0  0  0
  3  8  1  0  0  0  0
  4  2  1  0  0  0  0
  6  3  1  0  0  0  0
  6  4  1  0  0  0  0
  6  2  1  0  0  0  0
  8  1  1  0  0  0  0
  8  5  1  0  0  0  0
  9  3  1  0  0  0  0
 10  9  1  0  0  0  0
 11 10  2  0  0  0  0
 12 10  1  0  0  0  0
 13 14  2  0  0  0  0
 14 15  1  0  0  0  0
 15 12  1  0  0  0  0
 16 20  1  0  0  0  0
 16 23  1  0  0  0  0
 17 22  1  0  0  0  0
 18 16  1  0  0  0  0
 20 17  1  0  0  0  0
 21 22  1  0  0  0  0
 21 19  1  0  0  0  0
 22 14  1  0  0  0  0
 23 21  1  0  0  0  0
 24  4  1  0  0  0  0
 25 24  1  0  0  0  0
 26 25  1  0  0  0  0
 27 37  1  0  0  0  0
 27 30  1  0  0  0  0
 28 37  1  0  0  0  0
 29 36  1  0  0  0  0
 29 31  1  0  0  0  0
 30 34  1  0  0  0  0
 32 30  1  0  0  0  0
 33 29  1  0  0  0  0
 33 35  1  0  0  0  0
 34 29  1  0  0  0  0
 34 26  1  0  0  0  0
 35 36  1  0  0  0  0
 36 31  1  0  0  0  0
 37 33  1  0  0  0  0
 38 40  1  0  0  0  0
 38 27  1  0  0  0  0
 39 38  1  0  0  0  0
 41 42  1  0  0  0  0
 41 40  1  0  0  0  0
M  END
>  <MODEL>
3

>  <REMARK>
 VINA RESULT:      -8.2      2.382      6.415
  Name = 
  12 active torsions:
  status: ('A' for Active; 'I' for Inactive)
    1  A    between atoms: C_1  and  C_10
    2  A    between atoms: C_3  and  C_29
    3  A    between atoms: C_3  and  C_31
    4  A    between atoms: C_4  and  C_10
    5  A    between atoms: C_4  and  O_30
    6  A    between atoms: C_7  and  C_11
    7  A    between atoms: C_7  and  O_18
    8  A    between atoms: C_11  and  N_26
    9  A    between atoms: C_13  and  O_18
   10  A    between atoms: C_22  and  C_38
   11  A    between atoms: C_23  and  O_32
   12  A    between atoms: C_31  and  O_32
                            x       y       z     vdW  Elec       q    Type
                         _______ _______ _______ _____ _____    ______ ____

>  <TORSDO>
F 12

$$$$
=
 OpenBabel11062413363D

 42 48  0  0  1  0  0  0  0  0999 V2000
  189.8860  177.1330  145.3140 C   0  0  1  0  0  0  0  0  0  0  0  0
  189.3440  176.4030  144.0980 C   0  0  2  0  0  3  0  0  0  0  0  0
  187.6790  178.0120  144.9050 C   0  0  2  0  0  3  0  0  0  0  0  0
  189.1290  177.3690  142.9460 C   0  0  2  0  0  3  0  0  0  0  0  0
  189.2090  176.9700  146.6560 C   0  0  0  0  0  2  0  0  0  0  0  0
  187.9630  176.9620  143.8290 C   0  0  1  0  0  3  0  0  0  0  0  0
  191.2040  177.5880  145.3120 O   0  0  0  0  0  1  0  0  0  0  0  0
  188.9170  178.1920  145.7800 C   0  0  1  0  0  3  0  0  0  0  0  0
  186.5750  177.6070  145.7030 O   0  0  0  0  0  0  0  0  0  0  0  0
  185.4630  178.4220  145.9190 C   0  0  0  0  0  0  0  0  0  0  0  0
  184.8150  178.3660  147.0000 O   0  0  0  0  0  0  0  0  0  0  0  0
  185.0190  179.3420  144.8410 C   0  0  0  0  0  2  0  0  0  0  0  0
  185.3350  179.6900  142.0130 O   0  0  0  0  0  0  0  0  0  0  0  0
  184.5070  178.8260  142.4140 C   0  0  0  0  0  0  0  0  0  0  0  0
  184.3420  178.5720  143.8120 N   0  0  0  0  0  2  0  0  0  0  0  0
  182.1130  178.2420  139.0500 C   0  0  1  0  0  3  0  0  0  0  0  0
  184.3070  178.1270  140.1250 N   0  0  0  0  0  2  0  0  0  0  0  0
  182.2570  179.6480  138.4600 C   0  0  0  0  0  1  0  0  0  0  0  0
  181.5540  178.8400  142.5540 N   0  0  0  0  0  1  0  0  0  0  0  0
  183.4500  177.4990  139.1260 C   0  0  0  0  0  2  0  0  0  0  0  0
  182.2600  178.8530  141.2830 C   0  0  1  0  0  3  0  0  0  0  0  0
  183.6200  178.1390  141.4190 C   0  0  2  0  0  3  0  0  0  0  0  0
  181.4470  178.2450  140.3030 O   0  0  0  0  0  0  0  0  0  0  0  0
  189.0820  176.6530  141.7510 O   0  0  0  0  0  0  0  0  0  0  0  0
  190.4120  176.5790  141.3420 C   0  0  0  0  0  2  0  0  0  0  0  0
  190.5900  177.3110  140.0250 C   0  0  0  0  0  2  0  0  0  0  0  0
  189.3290  175.6550  136.7170 C   0  0  2  0  0  3  0  0  0  0  0  0
  187.6800  176.5560  134.9660 C   0  0  0  0  0  1  0  0  0  0  0  0
  188.4780  177.6890  138.5810 C   0  0  2  0  0  0  0  0  0  0  0  0
  190.3580  176.1810  137.7290 C   0  0  2  0  0  3  0  0  0  0  0  0
  188.1680  178.7970  139.3850 O   0  0  0  0  0  0  0  0  0  0  0  0
  191.2610  175.1730  138.0790 O   0  0  0  0  0  1  0  0  0  0  0  0
  187.8510  177.7490  137.2120 C   0  0  1  0  0  3  0  0  0  0  0  0
  189.6390  176.7400  138.9690 C   0  0  1  0  0  3  0  0  0  0  0  0
  188.2570  179.0800  137.0500 O   0  0  0  0  0  0  0  0  0  0  0  0
  188.9810  179.0450  138.2610 C   0  0  2  0  0  3  0  0  0  0  0  0
  188.5580  176.8690  136.1670 C   0  0  1  0  0  3  0  0  0  0  0  0
  188.5210  174.4740  137.3140 C   0  0  2  0  0  3  0  0  0  0  0  0
  189.0050  173.1730  136.7040 C   0  0  0  0  0  1  0  0  0  0  0  0
  186.9960  174.5360  137.2260 C   0  0  0  0  0  2  0  0  0  0  0  0
  186.4600  173.2640  137.0110 O   0  0  0  0  0  0  0  0  0  0  0  0
  185.7180  173.0220  138.0720 O   0  0  0  0  0  1  0  0  0  0  0  0
  1  7  1  1  0  0  0
  1  8  1  0  0  0  0
  1  5  1  0  0  0  0
  2  1  1  0  0  0  0
  3  9  1  0  0  0  0
  3  8  1  0  0  0  0
  4  6  1  0  0  0  0
  4  2  1  0  0  0  0
  6  2  1  0  0  0  0
  6  3  1  0  0  0  0
  8  5  1  0  0  0  0
  9 10  1  0  0  0  0
 10 11  2  0  0  0  0
 12 10  1  0  0  0  0
 13 14  2  0  0  0  0
 14 15  1  0  0  0  0
 15 12  1  0  0  0  0
 16 20  1  0  0  0  0
 16 23  1  0  0  0  0
 17 22  1  0  0  0  0
 18 16  1  0  0  0  0
 20 17  1  0  0  0  0
 21 22  1  0  0  0  0
 21 19  1  0  0  0  0
 22 14  1  0  0  0  0
 23 21  1  0  0  0  0
 24  4  1  0  0  0  0
 25 24  1  0  0  0  0
 26 25  1  0  0  0  0
 27 38  1  0  0  0  0
 27 30  1  0  0  0  0
 28 37  1  0  0  0  0
 29 34  1  0  0  0  0
 29 31  1  0  0  0  0
 30 32  1  0  0  0  0
 30 34  1  0  0  0  0
 33 29  1  0  0  0  0
 34 26  1  0  0  0  0
 35 33  1  0  0  0  0
 35 36  1  0  0  0  0
 36 29  1  0  0  0  0
 36 31  1  0  0  0  0
 37 27  1  0  0  0  0
 37 33  1  0  0  0  0
 39 38  1  0  0  0  0
 40 38  1  0  0  0  0
 41 40  1  0  0  0  0
 41 42  1  0  0  0  0
M  END
>  <MODEL>
4

>  <REMARK>
 VINA RESULT:      -8.1      1.478      2.382
  Name = 
  12 active torsions:
  status: ('A' for Active; 'I' for Inactive)
    1  A    between atoms: C_1  and  C_10
    2  A    between atoms: C_3  and  C_29
    3  A    between atoms: C_3  and  C_31
    4  A    between atoms: C_4  and  C_10
    5  A    between atoms: C_4  and  O_30
    6  A    between atoms: C_7  and  C_11
    7  A    between atoms: C_7  and  O_18
    8  A    between atoms: C_11  and  N_26
    9  A    between atoms: C_13  and  O_18
   10  A    between atoms: C_22  and  C_38
   11  A    between atoms: C_23  and  O_32
   12  A    between atoms: C_31  and  O_32
                            x       y       z     vdW  Elec       q    Type
                         _______ _______ _______ _____ _____    ______ ____

>  <TORSDO>
F 12

$$$$
=
 OpenBabel11062413363D

 42 48  0  0  1  0  0  0  0  0999 V2000
  188.0660  177.6740  146.2240 C   0  0  1  0  0  0  0  0  0  0  0  0
  187.0560  178.4700  145.4160 C   0  0  2  0  0  3  0  0  0  0  0  0
  188.4060  177.0830  143.9110 C   0  0  2  0  0  3  0  0  0  0  0  0
  186.0670  177.5420  144.7320 C   0  0  2  0  0  3  0  0  0  0  0  0
  189.5460  177.9180  146.0320 C   0  0  0  0  0  2  0  0  0  0  0  0
  187.2570  178.0910  143.9650 C   0  0  1  0  0  3  0  0  0  0  0  0
  187.6660  177.0550  147.4080 O   0  0  0  0  0  1  0  0  0  0  0  0
  188.8530  176.7460  145.3320 C   0  0  1  0  0  3  0  0  0  0  0  0
  189.4960  177.6220  143.1750 O   0  0  0  0  0  0  0  0  0  0  0  0
  190.2880  176.8480  142.3250 C   0  0  0  0  0  0  0  0  0  0  0  0
  190.3380  175.5940  142.4450 O   0  0  0  0  0  0  0  0  0  0  0  0
  191.1110  177.5230  141.2900 C   0  0  0  0  0  2  0  0  0  0  0  0
  188.6650  178.6200  140.2730 O   0  0  0  0  0  0  0  0  0  0  0  0
  189.2880  177.7940  139.5500 C   0  0  0  0  0  0  0  0  0  0  0  0
  190.5390  177.2510  139.9810 N   0  0  0  0  0  2  0  0  0  0  0  0
  188.9460  176.2930  135.6750 C   0  0  1  0  0  3  0  0  0  0  0  0
  189.0430  175.9050  138.0880 N   0  0  0  0  0  2  0  0  0  0  0  0
  190.4430  176.1390  135.3910 C   0  0  0  0  0  1  0  0  0  0  0  0
  188.7000  179.5290  137.2300 N   0  0  0  0  0  1  0  0  0  0  0  0
  188.4770  175.4130  136.8370 C   0  0  0  0  0  2  0  0  0  0  0  0
  189.1070  178.1430  137.0650 C   0  0  1  0  0  3  0  0  0  0  0  0
  188.6580  177.3050  138.2800 C   0  0  2  0  0  3  0  0  0  0  0  0
  188.5660  177.6480  135.8610 O   0  0  0  0  0  0  0  0  0  0  0  0
  184.9220  178.2610  144.3940 O   0  0  0  0  0  0  0  0  0  0  0  0
  184.7420  178.0020  143.0360 C   0  0  0  0  0  2  0  0  0  0  0  0
  183.6470  178.8940  142.4800 C   0  0  0  0  0  2  0  0  0  0  0  0
  183.5220  178.8920  138.5740 C   0  0  2  0  0  3  0  0  0  0  0  0
  181.4900  179.0030  137.0060 C   0  0  0  0  0  1  0  0  0  0  0  0
  181.7860  178.2700  140.7960 C   0  0  2  0  0  0  0  0  0  0  0  0
  183.9430  179.3680  139.9720 C   0  0  2  0  0  3  0  0  0  0  0  0
  180.8960  178.1490  141.8750 O   0  0  0  0  0  0  0  0  0  0  0  0
  185.3350  179.3780  140.0880 O   0  0  0  0  0  1  0  0  0  0  0  0
  181.0990  178.5390  139.4820 C   0  0  1  0  0  3  0  0  0  0  0  0
  183.3010  178.4760  141.0480 C   0  0  1  0  0  3  0  0  0  0  0  0
  180.3030  179.5330  140.0650 O   0  0  0  0  0  0  0  0  0  0  0  0
  181.0020  179.4260  141.2870 C   0  0  2  0  0  3  0  0  0  0  0  0
  182.0160  179.1750  138.4220 C   0  0  1  0  0  3  0  0  0  0  0  0
  184.0350  177.4540  138.3020 C   0  0  2  0  0  3  0  0  0  0  0  0
  185.2300  177.5150  137.3700 C   0  0  0  0  0  1  0  0  0  0  0  0
  183.0340  176.4270  137.7730 C   0  0  0  0  0  2  0  0  0  0  0  0
  182.8540  175.3920  138.6930 O   0  0  0  0  0  0  0  0  0  0  0  0
  181.5520  175.2060  138.7470 O   0  0  0  0  0  1  0  0  0  0  0  0
  1  7  1  1  0  0  0
  2  1  1  0  0  0  0
  3  6  1  0  0  0  0
  3  8  1  0  0  0  0
  4  2  1  0  0  0  0
  5  1  1  0  0  0  0
  6  4  1  0  0  0  0
  6  2  1  0  0  0  0
  8  5  1  0  0  0  0
  8  1  1  0  0  0  0
  9  3  1  0  0  0  0
 10 11  2  0  0  0  0
 10  9  1  0  0  0  0
 12 10  1  0  0  0  0
 14 15  1  0  0  0  0
 14 13  2  0  0  0  0
 15 12  1  0  0  0  0
 16 23  1  0  0  0  0
 16 20  1  0  0  0  0
 17 22  1  0  0  0  0
 18 16  1  0  0  0  0
 20 17  1  0  0  0  0
 21 19  1  0  0  0  0
 21 22  1  0  0  0  0
 22 14  1  0  0  0  0
 23 21  1  0  0  0  0
 24  4  1  0  0  0  0
 25 24  1  0  0  0  0
 26 25  1  0  0  0  0
 27 30  1  0  0  0  0
 28 37  1  0  0  0  0
 29 34  1  0  0  0  0
 29 36  1  0  0  0  0
 29 31  1  0  0  0  0
 30 32  1  0  0  0  0
 30 34  1  0  0  0  0
 33 35  1  0  0  0  0
 33 29  1  0  0  0  0
 34 26  1  0  0  0  0
 35 36  1  0  0  0  0
 36 31  1  0  0  0  0
 37 27  1  0  0  0  0
 37 33  1  0  0  0  0
 38 27  1  0  0  0  0
 39 38  1  0  0  0  0
 40 38  1  0  0  0  0
 40 41  1  0  0  0  0
 41 42  1  0  0  0  0
M  END
>  <MODEL>
5

>  <REMARK>
 VINA RESULT:      -7.8      2.700      6.572
  Name = 
  12 active torsions:
  status: ('A' for Active; 'I' for Inactive)
    1  A    between atoms: C_1  and  C_10
    2  A    between atoms: C_3  and  C_29
    3  A    between atoms: C_3  and  C_31
    4  A    between atoms: C_4  and  C_10
    5  A    between atoms: C_4  and  O_30
    6  A    between atoms: C_7  and  C_11
    7  A    between atoms: C_7  and  O_18
    8  A    between atoms: C_11  and  N_26
    9  A    between atoms: C_13  and  O_18
   10  A    between atoms: C_22  and  C_38
   11  A    between atoms: C_23  and  O_32
   12  A    between atoms: C_31  and  O_32
                            x       y       z     vdW  Elec       q    Type
                         _______ _______ _______ _____ _____    ______ ____

>  <TORSDO>
F 12

$$$$
=
 OpenBabel11062413363D

 42 48  0  0  1  0  0  0  0  0999 V2000
  185.4060  178.6350  146.0870 C   0  0  1  0  0  0  0  0  0  0  0  0
  185.0830  179.3630  144.7950 C   0  0  2  0  0  3  0  0  0  0  0  0
  186.5440  177.4520  144.3210 C   0  0  2  0  0  3  0  0  0  0  0  0
  184.2830  178.4690  143.8620 C   0  0  2  0  0  3  0  0  0  0  0  0
  186.8320  178.5820  146.5880 C   0  0  0  0  0  2  0  0  0  0  0  0
  185.7840  178.6150  143.6810 C   0  0  1  0  0  3  0  0  0  0  0  0
  184.3920  178.3950  147.0140 O   0  0  0  0  0  1  0  0  0  0  0  0
  186.2330  177.4020  145.8160 C   0  0  1  0  0  3  0  0  0  0  0  0
  187.9420  177.6120  144.1210 O   0  0  0  0  0  0  0  0  0  0  0  0
  188.6630  176.8490  143.2020 C   0  0  0  0  0  0  0  0  0  0  0  0
  188.4320  175.6180  143.0540 O   0  0  0  0  0  0  0  0  0  0  0  0
  189.7450  177.4950  142.4160 C   0  0  0  0  0  2  0  0  0  0  0  0
  191.5800  177.4850  140.2140 O   0  0  0  0  0  0  0  0  0  0  0  0
  190.3460  177.5240  139.9550 C   0  0  0  0  0  0  0  0  0  0  0  0
  189.3800  177.4800  141.0100 N   0  0  0  0  0  2  0  0  0  0  0  0
  187.8130  177.8110  136.6550 C   0  0  1  0  0  3  0  0  0  0  0  0
  189.0100  178.8860  138.4960 N   0  0  0  0  0  2  0  0  0  0  0  0
  186.4960  177.5610  137.3950 C   0  0  0  0  0  1  0  0  0  0  0  0
  190.0360  175.3240  138.0050 N   0  0  0  0  0  1  0  0  0  0  0  0
  188.5240  179.0790  137.1340 C   0  0  0  0  0  2  0  0  0  0  0  0
  189.1540  176.4800  138.0000 C   0  0  1  0  0  3  0  0  0  0  0  0
  189.8960  177.7210  138.5380 C   0  0  2  0  0  3  0  0  0  0  0  0
  188.6770  176.6840  136.6890 O   0  0  0  0  0  0  0  0  0  0  0  0
  183.6210  179.2610  142.9250 O   0  0  0  0  0  0  0  0  0  0  0  0
  182.2690  179.0420  143.1860 C   0  0  0  0  0  2  0  0  0  0  0  0
  181.6610  178.1930  142.0840 C   0  0  0  0  0  2  0  0  0  0  0  0
  180.1430  179.8320  138.8770 C   0  0  2  0  0  3  0  0  0  0  0  0
  180.8500  179.5740  136.4220 C   0  0  0  0  0  1  0  0  0  0  0  0
  182.6320  178.6450  139.7300 C   0  0  2  0  0  0  0  0  0  0  0  0
  180.1450  179.0220  140.1820 C   0  0  2  0  0  3  0  0  0  0  0  0
  183.7680  177.9040  140.0930 O   0  0  0  0  0  0  0  0  0  0  0  0
  179.2150  179.5440  141.0860 O   0  0  0  0  0  1  0  0  0  0  0  0
  182.4140  178.7130  138.2410 C   0  0  1  0  0  3  0  0  0  0  0  0
  181.5590  179.0030  140.7880 C   0  0  1  0  0  3  0  0  0  0  0  0
  182.6270  177.3340  138.1150 O   0  0  0  0  0  0  0  0  0  0  0  0
  182.7040  177.1820  139.5160 C   0  0  2  0  0  3  0  0  0  0  0  0
  180.9650  179.0440  137.8420 C   0  0  1  0  0  3  0  0  0  0  0  0
  180.5150  181.3130  139.1460 C   0  0  2  0  0  3  0  0  0  0  0  0
  179.2770  182.1770  139.0060 C   0  0  0  0  0  1  0  0  0  0  0  0
  181.6510  181.9240  138.3250 C   0  0  0  0  0  2  0  0  0  0  0  0
  181.2110  183.0560  137.6350 O   0  0  0  0  0  0  0  0  0  0  0  0
  182.1170  183.9800  137.8830 O   0  0  0  0  0  1  0  0  0  0  0  0
  1  5  1  0  0  0  0
  1  7  1  1  0  0  0
  2  1  1  0  0  0  0
  3  8  1  0  0  0  0
  4  2  1  0  0  0  0
  6  4  1  0  0  0  0
  6  3  1  0  0  0  0
  6  2  1  0  0  0  0
  8  1  1  0  0  0  0
  8  5  1  0  0  0  0
  9  3  1  0  0  0  0
 10  9  1  0  0  0  0
 11 10  2  0  0  0  0
 12 10  1  0  0  0  0
 14 13  2  0  0  0  0
 14 15  1  0  0  0  0
 15 12  1  0  0  0  0
 16 23  1  0  0  0  0
 16 20  1  0  0  0  0
 16 18  1  0  0  0  0
 17 22  1  0  0  0  0
 20 17  1  0  0  0  0
 21 19  1  0  0  0  0
 21 22  1  0  0  0  0
 22 14  1  0  0  0  0
 23 21  1  0  0  0  0
 24 25  1  0  0  0  0
 24  4  1  0  0  0  0
 26 25  1  0  0  0  0
 27 38  1  0  0  0  0
 27 30  1  0  0  0  0
 28 37  1  0  0  0  0
 29 31  1  0  0  0  0
 29 34  1  0  0  0  0
 30 34  1  0  0  0  0
 30 32  1  0  0  0  0
 33 29  1  0  0  0  0
 34 26  1  0  0  0  0
 35 33  1  0  0  0  0
 35 36  1  0  0  0  0
 36 29  1  0  0  0  0
 36 31  1  0  0  0  0
 37 33  1  0  0  0  0
 37 27  1  0  0  0  0
 39 38  1  0  0  0  0
 40 38  1  0  0  0  0
 41 42  1  0  0  0  0
 41 40  1  0  0  0  0
M  END
>  <MODEL>
6

>  <REMARK>
 VINA RESULT:      -7.8      2.721      7.928
  Name = 
  12 active torsions:
  status: ('A' for Active; 'I' for Inactive)
    1  A    between atoms: C_1  and  C_10
    2  A    between atoms: C_3  and  C_29
    3  A    between atoms: C_3  and  C_31
    4  A    between atoms: C_4  and  C_10
    5  A    between atoms: C_4  and  O_30
    6  A    between atoms: C_7  and  C_11
    7  A    between atoms: C_7  and  O_18
    8  A    between atoms: C_11  and  N_26
    9  A    between atoms: C_13  and  O_18
   10  A    between atoms: C_22  and  C_38
   11  A    between atoms: C_23  and  O_32
   12  A    between atoms: C_31  and  O_32
                            x       y       z     vdW  Elec       q    Type
                         _______ _______ _______ _____ _____    ______ ____

>  <TORSDO>
F 12

$$$$
=
 OpenBabel11062413363D

 42 48  0  0  1  0  0  0  0  0999 V2000
  186.1690  178.3840  146.7970 C   0  0  1  0  0  0  0  0  0  0  0  0
  186.2280  178.9130  145.3750 C   0  0  2  0  0  3  0  0  0  0  0  0
  188.0890  177.3630  145.7560 C   0  0  2  0  0  3  0  0  0  0  0  0
  186.0220  177.7880  144.3760 C   0  0  2  0  0  3  0  0  0  0  0  0
  187.2830  178.7040  147.7680 C   0  0  0  0  0  2  0  0  0  0  0  0
  187.4240  178.2640  144.7140 C   0  0  1  0  0  3  0  0  0  0  0  0
  184.9440  177.9890  147.3340 O   0  0  0  0  0  1  0  0  0  0  0  0
  187.2520  177.3600  147.0330 C   0  0  1  0  0  3  0  0  0  0  0  0
  189.4020  177.8280  146.0370 O   0  0  0  0  0  0  0  0  0  0  0  0
  190.4900  176.9660  146.1880 C   0  0  0  0  0  0  0  0  0  0  0  0
  190.6950  176.3610  147.2750 O   0  0  0  0  0  0  0  0  0  0  0  0
  191.4380  176.7940  145.0580 C   0  0  0  0  0  2  0  0  0  0  0  0
  190.1740  175.6260  142.7650 O   0  0  0  0  0  0  0  0  0  0  0  0
  190.3560  176.8750  142.7680 C   0  0  0  0  0  0  0  0  0  0  0  0
  190.9360  177.5220  143.9050 N   0  0  0  0  0  2  0  0  0  0  0  0
  189.1870  177.7340  138.8590 C   0  0  1  0  0  3  0  0  0  0  0  0
  188.6300  177.5240  141.2310 N   0  0  0  0  0  2  0  0  0  0  0  0
  188.8220  176.3060  138.4440 C   0  0  0  0  0  1  0  0  0  0  0  0
  192.3110  177.3460  140.6010 N   0  0  0  0  0  1  0  0  0  0  0  0
  188.3150  178.2520  140.0060 C   0  0  0  0  0  2  0  0  0  0  0  0
  190.8930  177.1790  140.3290 C   0  0  1  0  0  3  0  0  0  0  0  0
  190.0560  177.6660  141.5300 C   0  0  2  0  0  3  0  0  0  0  0  0
  190.5690  177.8790  139.1480 O   0  0  0  0  0  0  0  0  0  0  0  0
  185.6280  178.3280  143.1530 O   0  0  0  0  0  0  0  0  0  0  0  0
  184.2910  177.9530  143.0280 C   0  0  0  0  0  2  0  0  0  0  0  0
  183.5310  179.0010  142.2360 C   0  0  0  0  0  2  0  0  0  0  0  0
  183.4690  178.7610  138.3360 C   0  0  2  0  0  3  0  0  0  0  0  0
  181.4600  178.6840  136.7370 C   0  0  0  0  0  1  0  0  0  0  0  0
  181.7280  178.1920  140.5680 C   0  0  2  0  0  0  0  0  0  0  0  0
  183.8450  179.3390  139.7080 C   0  0  2  0  0  3  0  0  0  0  0  0
  180.8280  178.0940  141.6400 O   0  0  0  0  0  0  0  0  0  0  0  0
  185.2330  179.4210  139.8420 O   0  0  0  0  0  1  0  0  0  0  0  0
  181.0510  178.3490  139.2310 C   0  0  1  0  0  3  0  0  0  0  0  0
  183.2270  178.4830  140.8270 C   0  0  1  0  0  3  0  0  0  0  0  0
  180.2000  179.3380  139.7420 O   0  0  0  0  0  0  0  0  0  0  0  0
  180.8840  179.3370  140.9780 C   0  0  2  0  0  3  0  0  0  0  0  0
  181.9540  178.9640  138.1470 C   0  0  1  0  0  3  0  0  0  0  0  0
  184.0520  177.3360  138.1570 C   0  0  2  0  0  3  0  0  0  0  0  0
  185.2340  177.3900  137.2090 C   0  0  0  0  0  1  0  0  0  0  0  0
  183.1000  176.2250  137.7140 C   0  0  0  0  0  2  0  0  0  0  0  0
  183.3320  175.8770  136.3810 O   0  0  0  0  0  0  0  0  0  0  0  0
  182.5160  174.8700  136.1440 O   0  0  0  0  0  1  0  0  0  0  0  0
  1  8  1  0  0  0  0
  1  7  1  1  0  0  0
  1  5  1  0  0  0  0
  2  1  1  0  0  0  0
  3  9  1  0  0  0  0
  3  8  1  0  0  0  0
  4  6  1  0  0  0  0
  4  2  1  0  0  0  0
  6  2  1  0  0  0  0
  6  3  1  0  0  0  0
  8  5  1  0  0  0  0
  9 10  1  0  0  0  0
 10 11  2  0  0  0  0
 12 10  1  0  0  0  0
 13 14  2  0  0  0  0
 14 15  1  0  0  0  0
 15 12  1  0  0  0  0
 16 23  1  0  0  0  0
 16 20  1  0  0  0  0
 17 22  1  0  0  0  0
 18 16  1  0  0  0  0
 20 17  1  0  0  0  0
 21 19  1  0  0  0  0
 21 22  1  0  0  0  0
 22 14  1  0  0  0  0
 23 21  1  0  0  0  0
 24  4  1  0  0  0  0
 25 24  1  0  0  0  0
 26 25  1  0  0  0  0
 27 30  1  0  0  0  0
 28 37  1  0  0  0  0
 29 34  1  0  0  0  0
 29 36  1  0  0  0  0
 29 31  1  0  0  0  0
 30 32  1  0  0  0  0
 30 34  1  0  0  0  0
 33 35  1  0  0  0  0
 33 29  1  0  0  0  0
 34 26  1  0  0  0  0
 35 36  1  0  0  0  0
 36 31  1  0  0  0  0
 37 27  1  0  0  0  0
 37 33  1  0  0  0  0
 38 27  1  0  0  0  0
 39 38  1  0  0  0  0
 40 38  1  0  0  0  0
 41 40  1  0  0  0  0
 42 41  1  0  0  0  0
M  END
>  <MODEL>
7

>  <REMARK>
 VINA RESULT:      -7.8      2.542      6.635
  Name = 
  12 active torsions:
  status: ('A' for Active; 'I' for Inactive)
    1  A    between atoms: C_1  and  C_10
    2  A    between atoms: C_3  and  C_29
    3  A    between atoms: C_3  and  C_31
    4  A    between atoms: C_4  and  C_10
    5  A    between atoms: C_4  and  O_30
    6  A    between atoms: C_7  and  C_11
    7  A    between atoms: C_7  and  O_18
    8  A    between atoms: C_11  and  N_26
    9  A    between atoms: C_13  and  O_18
   10  A    between atoms: C_22  and  C_38
   11  A    between atoms: C_23  and  O_32
   12  A    between atoms: C_31  and  O_32
                            x       y       z     vdW  Elec       q    Type
                         _______ _______ _______ _____ _____    ______ ____

>  <TORSDO>
F 12

$$$$
=
 OpenBabel11062413363D

 42 48  0  0  1  0  0  0  0  0999 V2000
  185.3880  178.5810  146.1950 C   0  0  1  0  0  0  0  0  0  0  0  0
  185.0950  179.4140  144.9600 C   0  0  2  0  0  3  0  0  0  0  0  0
  186.5960  177.5670  144.3710 C   0  0  2  0  0  3  0  0  0  0  0  0
  184.3370  178.5950  143.9290 C   0  0  2  0  0  3  0  0  0  0  0  0
  186.7990  178.5010  146.7340 C   0  0  0  0  0  2  0  0  0  0  0  0
  185.8400  178.7720  143.8090 C   0  0  1  0  0  3  0  0  0  0  0  0
  184.3490  178.2510  147.0650 O   0  0  0  0  0  1  0  0  0  0  0  0
  186.2400  177.3850  145.8450 C   0  0  1  0  0  3  0  0  0  0  0  0
  187.9970  177.7590  144.2300 O   0  0  0  0  0  0  0  0  0  0  0  0
  188.7280  177.2220  143.1690 C   0  0  0  0  0  0  0  0  0  0  0  0
  189.0130  175.9950  143.1290 O   0  0  0  0  0  0  0  0  0  0  0  0
  189.2060  178.1250  142.0900 C   0  0  0  0  0  2  0  0  0  0  0  0
  190.7930  177.4280  139.8070 O   0  0  0  0  0  0  0  0  0  0  0  0
  189.5380  177.3630  139.6960 C   0  0  0  0  0  0  0  0  0  0  0  0
  188.6940  177.6500  140.8160 N   0  0  0  0  0  2  0  0  0  0  0  0
  189.2620  176.4550  135.6360 C   0  0  1  0  0  3  0  0  0  0  0  0
  189.2850  175.7170  137.9670 N   0  0  0  0  0  2  0  0  0  0  0  0
  190.7620  176.3020  135.3660 C   0  0  0  0  0  1  0  0  0  0  0  0
  189.0560  179.4350  137.6430 N   0  0  0  0  0  1  0  0  0  0  0  0
  188.7400  175.4290  136.6450 C   0  0  0  0  0  2  0  0  0  0  0  0
  189.4320  178.0770  137.2860 C   0  0  1  0  0  3  0  0  0  0  0  0
  188.9300  177.0840  138.3540 C   0  0  2  0  0  3  0  0  0  0  0  0
  188.9110  177.7790  136.0100 O   0  0  0  0  0  0  0  0  0  0  0  0
  183.6930  179.4570  143.0430 O   0  0  0  0  0  0  0  0  0  0  0  0
  182.8260  178.6300  142.3300 C   0  0  0  0  0  2  0  0  0  0  0  0
  183.6220  177.6770  141.4570 C   0  0  0  0  0  2  0  0  0  0  0  0
  182.6670  176.7460  137.7830 C   0  0  2  0  0  3  0  0  0  0  0  0
  183.7510  177.4900  135.5770 C   0  0  0  0  0  1  0  0  0  0  0  0
  184.0700  178.8400  139.1910 C   0  0  2  0  0  0  0  0  0  0  0  0
  183.0570  176.4940  139.2470 C   0  0  2  0  0  3  0  0  0  0  0  0
  184.9040  179.7490  139.8600 O   0  0  0  0  0  0  0  0  0  0  0  0
  182.1160  175.6710  139.8710 O   0  0  0  0  0  1  0  0  0  0  0  0
  184.3790  178.7150  137.7210 C   0  0  1  0  0  3  0  0  0  0  0  0
  183.2080  177.8320  139.9900 C   0  0  1  0  0  3  0  0  0  0  0  0
  185.7500  178.6020  137.9860 O   0  0  0  0  0  0  0  0  0  0  0  0
  185.5140  178.5740  139.3780 C   0  0  2  0  0  3  0  0  0  0  0  0
  183.8720  177.4070  137.0890 C   0  0  1  0  0  3  0  0  0  0  0  0
  181.2850  177.4440  137.6930 C   0  0  2  0  0  3  0  0  0  0  0  0
  180.2860  176.5020  137.0510 C   0  0  0  0  0  1  0  0  0  0  0  0
  181.2170  178.8030  136.9950 C   0  0  0  0  0  2  0  0  0  0  0  0
  180.7340  179.7830  137.8660 O   0  0  0  0  0  0  0  0  0  0  0  0
  181.5390  180.8130  137.7000 O   0  0  0  0  0  1  0  0  0  0  0  0
  1  5  1  0  0  0  0
  1  7  1  1  0  0  0
  2  1  1  0  0  0  0
  3  8  1  0  0  0  0
  4  2  1  0  0  0  0
  6  4  1  0  0  0  0
  6  3  1  0  0  0  0
  6  2  1  0  0  0  0
  8  1  1  0  0  0  0
  8  5  1  0  0  0  0
  9  3  1  0  0  0  0
 10  9  1  0  0  0  0
 11 10  2  0  0  0  0
 12 10  1  0  0  0  0
 14 13  2  0  0  0  0
 14 15  1  0  0  0  0
 15 12  1  0  0  0  0
 16 23  1  0  0  0  0
 16 20  1  0  0  0  0
 17 22  1  0  0  0  0
 18 16  1  0  0  0  0
 20 17  1  0  0  0  0
 21 19  1  0  0  0  0
 21 22  1  0  0  0  0
 22 14  1  0  0  0  0
 23 21  1  0  0  0  0
 24  4  1  0  0  0  0
 25 24  1  0  0  0  0
 26 25  1  0  0  0  0
 27 30  1  0  0  0  0
 28 37  1  0  0  0  0
 29 36  1  0  0  0  0
 29 31  1  0  0  0  0
 29 34  1  0  0  0  0
 30 32  1  0  0  0  0
 30 34  1  0  0  0  0
 33 35  1  0  0  0  0
 33 29  1  0  0  0  0
 34 26  1  0  0  0  0
 35 36  1  0  0  0  0
 36 31  1  0  0  0  0
 37 33  1  0  0  0  0
 37 27  1  0  0  0  0
 38 27  1  0  0  0  0
 39 38  1  0  0  0  0
 40 38  1  0  0  0  0
 40 41  1  0  0  0  0
 42 41  1  0  0  0  0
M  END
>  <MODEL>
8

>  <REMARK>
 VINA RESULT:      -7.7      2.660      6.995
  Name = 
  12 active torsions:
  status: ('A' for Active; 'I' for Inactive)
    1  A    between atoms: C_1  and  C_10
    2  A    between atoms: C_3  and  C_29
    3  A    between atoms: C_3  and  C_31
    4  A    between atoms: C_4  and  C_10
    5  A    between atoms: C_4  and  O_30
    6  A    between atoms: C_7  and  C_11
    7  A    between atoms: C_7  and  O_18
    8  A    between atoms: C_11  and  N_26
    9  A    between atoms: C_13  and  O_18
   10  A    between atoms: C_22  and  C_38
   11  A    between atoms: C_23  and  O_32
   12  A    between atoms: C_31  and  O_32
                            x       y       z     vdW  Elec       q    Type
                         _______ _______ _______ _____ _____    ______ ____

>  <TORSDO>
F 12

$$$$
=
 OpenBabel11062413363D

 42 48  0  0  1  0  0  0  0  0999 V2000
  185.4800  178.5870  146.4040 C   0  0  1  0  0  0  0  0  0  0  0  0
  185.3040  179.2940  145.0720 C   0  0  2  0  0  3  0  0  0  0  0  0
  186.9790  177.5170  144.8480 C   0  0  2  0  0  3  0  0  0  0  0  0
  184.7400  178.3420  144.0310 C   0  0  2  0  0  3  0  0  0  0  0  0
  186.8080  178.6530  147.1230 C   0  0  0  0  0  2  0  0  0  0  0  0
  186.2330  178.6160  144.0880 C   0  0  1  0  0  3  0  0  0  0  0  0
  184.3570  178.2560  147.1610 O   0  0  0  0  0  1  0  0  0  0  0  0
  186.4420  177.4320  146.2740 C   0  0  1  0  0  3  0  0  0  0  0  0
  188.3720  177.7980  144.8690 O   0  0  0  0  0  0  0  0  0  0  0  0
  189.3110  176.9960  144.2190 C   0  0  0  0  0  0  0  0  0  0  0  0
  190.5350  177.0520  144.5210 O   0  0  0  0  0  0  0  0  0  0  0  0
  188.8620  176.0920  143.1300 C   0  0  0  0  0  2  0  0  0  0  0  0
  188.3200  178.2690  141.3450 O   0  0  0  0  0  0  0  0  0  0  0  0
  189.2560  177.4770  141.0450 C   0  0  0  0  0  0  0  0  0  0  0  0
  189.6070  176.4010  141.9220 N   0  0  0  0  0  2  0  0  0  0  0  0
  191.0700  176.3870  137.4520 C   0  0  1  0  0  3  0  0  0  0  0  0
  189.0610  177.0150  138.6970 N   0  0  0  0  0  2  0  0  0  0  0  0
  190.9380  174.8700  137.6170 C   0  0  0  0  0  1  0  0  0  0  0  0
  192.1900  177.5020  140.6850 N   0  0  0  0  0  1  0  0  0  0  0  0
  189.7120  177.0910  137.3940 C   0  0  0  0  0  2  0  0  0  0  0  0
  191.3040  176.9000  139.7020 C   0  0  1  0  0  3  0  0  0  0  0  0
  189.9330  177.6070  139.7130 C   0  0  2  0  0  3  0  0  0  0  0  0
  191.9160  176.9670  138.4330 O   0  0  0  0  0  0  0  0  0  0  0  0
  184.1690  179.0800  142.9960 O   0  0  0  0  0  0  0  0  0  0  0  0
  184.1330  178.1920  141.9210 C   0  0  0  0  0  2  0  0  0  0  0  0
  183.0050  178.5690  140.9780 C   0  0  0  0  0  2  0  0  0  0  0  0
  183.7240  177.8700  137.2000 C   0  0  2  0  0  3  0  0  0  0  0  0
  182.1790  176.8890  135.3990 C   0  0  0  0  0  1  0  0  0  0  0  0
  181.9100  176.9760  139.2600 C   0  0  2  0  0  0  0  0  0  0  0  0
  183.6320  178.7000  138.4890 C   0  0  2  0  0  3  0  0  0  0  0  0
  180.9190  176.6850  140.2110 O   0  0  0  0  0  0  0  0  0  0  0  0
  184.8640  179.2920  138.7810 O   0  0  0  0  0  1  0  0  0  0  0  0
  181.4690  176.7210  137.8410 C   0  0  1  0  0  3  0  0  0  0  0  0
  183.1500  177.8150  139.6520 C   0  0  1  0  0  3  0  0  0  0  0  0
  180.2580  177.3890  138.0640 O   0  0  0  0  0  0  0  0  0  0  0  0
  180.6690  177.7780  139.3570 C   0  0  2  0  0  3  0  0  0  0  0  0
  182.2900  177.4900  136.7910 C   0  0  1  0  0  3  0  0  0  0  0  0
  184.7770  176.7410  137.3440 C   0  0  2  0  0  3  0  0  0  0  0  0
  186.0610  177.1590  136.6560 C   0  0  0  0  0  1  0  0  0  0  0  0
  184.3870  175.3380  136.8770 C   0  0  0  0  0  2  0  0  0  0  0  0
  184.1730  174.4940  137.9700 O   0  0  0  0  0  0  0  0  0  0  0  0
  184.4710  173.2880  137.5320 O   0  0  0  0  0  1  0  0  0  0  0  0
  1  5  1  0  0  0  0
  1  7  1  1  0  0  0
  2  1  1  0  0  0  0
  3  9  1  0  0  0  0
  3  8  1  0  0  0  0
  4  6  1  0  0  0  0
  4  2  1  0  0  0  0
  6  3  1  0  0  0  0
  6  2  1  0  0  0  0
  8  1  1  0  0  0  0
  8  5  1  0  0  0  0
 10 11  2  0  0  0  0
 10  9  1  0  0  0  0
 12 10  1  0  0  0  0
 14 13  2  0  0  0  0
 14 15  1  0  0  0  0
 15 12  1  0  0  0  0
 16 18  1  0  0  0  0
 16 23  1  0  0  0  0
 17 22  1  0  0  0  0
 20 16  1  0  0  0  0
 20 17  1  0  0  0  0
 21 22  1  0  0  0  0
 21 19  1  0  0  0  0
 22 14  1  0  0  0  0
 23 21  1  0  0  0  0
 24  4  1  0  0  0  0
 25 24  1  0  0  0  0
 26 25  1  0  0  0  0
 27 38  1  0  0  0  0
 27 30  1  0  0  0  0
 28 37  1  0  0  0  0
 29 36  1  0  0  0  0
 29 34  1  0  0  0  0
 29 31  1  0  0  0  0
 30 32  1  0  0  0  0
 30 34  1  0  0  0  0
 33 35  1  0  0  0  0
 33 29  1  0  0  0  0
 34 26  1  0  0  0  0
 35 36  1  0  0  0  0
 36 31  1  0  0  0  0
 37 27  1  0  0  0  0
 37 33  1  0  0  0  0
 39 38  1  0  0  0  0
 40 38  1  0  0  0  0
 40 41  1  0  0  0  0
 42 41  1  0  0  0  0
M  END
>  <MODEL>
9

>  <REMARK>
 VINA RESULT:      -7.6      2.606      6.755
  Name = 
  12 active torsions:
  status: ('A' for Active; 'I' for Inactive)
    1  A    between atoms: C_1  and  C_10
    2  A    between atoms: C_3  and  C_29
    3  A    between atoms: C_3  and  C_31
    4  A    between atoms: C_4  and  C_10
    5  A    between atoms: C_4  and  O_30
    6  A    between atoms: C_7  and  C_11
    7  A    between atoms: C_7  and  O_18
    8  A    between atoms: C_11  and  N_26
    9  A    between atoms: C_13  and  O_18
   10  A    between atoms: C_22  and  C_38
   11  A    between atoms: C_23  and  O_32
   12  A    between atoms: C_31  and  O_32
                            x       y       z     vdW  Elec       q    Type
                         _______ _______ _______ _____ _____    ______ ____

>  <TORSDO>
F 12

$$$$
