=
 OpenBabel11062418133D

 70 78  0  0  1  0  0  0  0  0999 V2000
  188.5860  176.3130  139.4260 O   0  0  0  0  0  0  0  0  0  0  0  0
  188.5940  176.6980  138.2680 C   0  0  0  0  0  0  0  0  0  0  0  0
  187.3950  176.7610  137.4010 C   0  0  2  0  0  0  0  0  0  0  0  0
  189.2560  177.1060  136.0940 C   0  0  0  0  0  2  0  0  0  0  0  0
  187.8440  177.1440  136.1100 O   0  0  0  0  0  0  0  0  0  0  0  0
  189.8090  177.0190  137.5100 C   0  0  2  0  0  3  0  0  0  0  0  0
  185.2850  179.0020  139.2770 C   0  0  0  0  0  0  0  0  0  0  0  0
  185.7980  178.7080  137.2410 C   0  0  0  0  0  3  0  0  0  0  0  0
  186.4540  177.7560  137.9380 N   0  0  0  0  0  0  0  0  0  0  0  0
  185.0510  179.4940  138.0470 N   0  0  0  0  0  0  0  0  0  0  0  0
  184.7110  179.5380  140.4620 N   0  0  0  0  0  1  0  0  0  0  0  0
  186.1500  177.9350  139.2380 C   0  0  0  0  0  3  0  0  0  0  0  0
  190.4080  174.5910  137.3190 C   0  0  0  0  0  1  0  0  0  0  0  0
  190.9500  175.9770  137.6720 C   0  0  1  0  0  0  0  0  0  0  0  0
  192.3280  176.3550  136.4810 S   0  0  0  0  0  0  0  0  0  0  0  0
  194.8400  172.5800  137.2920 C   0  0  0  0  0  3  0  0  0  0  0  0
  193.2730  173.7880  135.8920 C   0  0  0  0  0  0  0  0  0  0  0  0
  193.9810  171.2780  135.0510 Cl  0  0  0  0  0  0  0  0  0  0  0  0
  194.8690  173.6530  138.1860 C   0  0  0  0  0  3  0  0  0  0  0  0
  194.0420  172.6460  136.1470 C   0  0  0  0  0  0  0  0  0  0  0  0
  192.4700  173.8200  134.7980 F   0  0  0  0  0  0  0  0  0  0  0  0
  194.1050  174.7940  137.9330 C   0  0  0  0  0  3  0  0  0  0  0  0
  193.3210  174.8780  136.7760 C   0  0  0  0  0  0  0  0  0  0  0  0
  191.3720  175.9330  139.0320 O   0  0  0  0  0  0  0  0  0  0  0  0
  191.7170  177.2070  139.5420 C   0  0  0  0  0  2  0  0  0  0  0  0
  191.2010  177.4080  140.8280 O   0  0  0  0  0  0  0  0  0  0  0  0
  190.3780  174.7700  143.1030 N   0  0  0  0  0  2  0  0  0  0  0  0
  191.1880  176.1870  141.4210 N   0  0  0  0  0  2  0  0  0  0  0  0
  190.5790  175.9780  142.6950 C   0  0  0  0  0  0  0  0  0  0  0  0
  190.2740  177.0980  143.5380 N   0  0  0  0  0  2  0  0  0  0  0  0
  186.9830  176.2590  144.0390 C   0  0  0  0  0  1  0  0  0  0  0  0
  188.5430  177.1320  147.3800 C   0  0  0  0  0  2  0  0  0  0  0  0
  186.6050  178.6970  143.5190 C   0  0  0  0  0  1  0  0  0  0  0  0
  186.6100  177.8420  145.9660 C   0  0  1  0  0  3  0  0  0  0  0  0
  187.1440  177.6910  144.5330 C   0  0  0  0  0  0  0  0  0  0  0  0
  188.0060  178.2210  146.4450 C   0  0  2  0  0  3  0  0  0  0  0  0
  188.5410  178.0910  145.0100 C   0  0  1  0  0  3  0  0  0  0  0  0
  190.6900  177.1510  145.9590 C   0  0  0  0  0  2  0  0  0  0  0  0
  190.0790  177.0870  147.3700 C   0  0  0  0  0  2  0  0  0  0  0  0
  189.6400  177.0190  144.8540 C   0  0  2  0  0  3  0  0  0  0  0  0
  184.5420  178.4060  146.5320 C   0  0  0  0  0  1  0  0  0  0  0  0
  185.7560  178.9420  146.1060 O   0  0  0  0  0  0  0  0  0  0  0  0
  186.7450  175.3700  137.3300 C   0  0  0  0  0  2  0  0  0  0  0  0
  185.6650  175.2690  136.2650 C   0  0  0  0  0  2  0  0  0  0  0  0
  184.3390  175.4630  136.8540 N   0  0  0  0  0  2  0  0  0  0  0  0
  183.3060  175.7680  135.8490 C   0  0  0  0  0  0  0  0  0  0  0  0
  182.9720  174.5630  134.9710 C   0  0  0  0  0  1  0  0  0  0  0  0
  183.8720  176.8210  134.9120 C   0  0  0  0  0  1  0  0  0  0  0  0
  180.4120  178.3890  140.0420 O   0  0  0  0  0  0  0  0  0  0  0  0
  181.4590  177.4390  140.1420 C   0  0  0  0  0  2  0  0  0  0  0  0
  181.9220  177.8020  136.5400 C   0  0  0  0  0  0  0  0  0  0  0  0
  180.8720  180.2930  137.1350 C   0  0  0  0  0  0  0  0  0  0  0  0
  181.8250  175.9000  137.9860 C   0  0  2  0  0  3  0  0  0  0  0  0
  181.3530  179.4630  138.1600 C   0  0  0  0  0  0  0  0  0  0  0  0
  181.9560  178.2620  137.8250 C   0  0  0  0  0  0  0  0  0  0  0  0
  180.9520  179.8300  135.8030 C   0  0  0  0  0  3  0  0  0  0  0  0
  182.1700  177.1730  138.7960 C   0  0  1  0  0  3  0  0  0  0  0  0
  182.0080  176.3090  136.4950 C   0  0  2  0  0  3  0  0  0  0  0  0
  181.4330  178.5800  135.5350 N   0  0  0  0  0  0  0  0  0  0  0  0
  180.9630  179.6140  139.6000 C   0  0  0  0  0  2  0  0  0  0  0  0
  179.4610  176.0130  137.7920 O   0  0  0  0  0  0  0  0  0  0  0  0
  180.4240  175.3970  138.2240 C   0  0  0  0  0  0  0  0  0  0  0  0
  179.7540  174.4440  140.4000 C   0  0  0  0  0  1  0  0  0  0  0  0
  180.2150  174.1340  138.9920 C   0  0  0  0  0  2  0  0  0  0  0  0
  180.2770  181.5210  137.4450 O   0  0  0  0  0  0  0  0  0  0  0  0
  181.0010  182.5770  137.8750 O   0  0  0  0  0  0  0  0  0  0  0  0
  180.0300  185.2920  136.8620 C   0  0  0  0  0  2  0  0  0  0  0  0
  181.4220  184.8430  137.2700 C   0  0  0  0  0  2  0  0  0  0  0  0
  179.7290  183.8930  136.3620 C   0  0  0  0  0  2  0  0  0  0  0  0
  181.1180  183.4410  136.7780 C   0  0  0  0  0  3  0  0  0  0  0  0
  2  1  2  0  0  0  0
  3 43  1  6  0  0  0
  3  9  1  0  0  0  0
  3  2  1  0  0  0  0
  4  5  1  0  0  0  0
  4  6  1  0  0  0  0
  5  3  1  0  0  0  0
  6 14  1  6  0  0  0
  6  2  1  0  0  0  0
  7 11  1  0  0  0  0
  8  9  1  0  0  0  0
  8 10  2  0  0  0  0
  9 12  1  0  0  0  0
 10  7  1  0  0  0  0
 12  7  2  0  0  0  0
 14 13  1  6  0  0  0
 14 24  1  0  0  0  0
 15 23  1  0  0  0  0
 15 14  1  0  0  0  0
 16 19  1  0  0  0  0
 17 20  1  0  0  0  0
 17 23  2  0  0  0  0
 18 20  1  0  0  0  0
 20 16  2  0  0  0  0
 21 17  1  0  0  0  0
 22 19  2  0  0  0  0
 23 22  1  0  0  0  0
 24 25  1  0  0  0  0
 25 26  1  0  0  0  0
 26 28  1  0  0  0  0
 28 29  1  0  0  0  0
 29 27  2  0  0  0  0
 29 30  1  0  0  0  0
 31 35  1  0  0  0  0
 33 35  1  0  0  0  0
 34 42  1  6  0  0  0
 34 36  1  0  0  0  0
 35 34  1  0  0  0  0
 36 32  1  1  0  0  0
 37 35  1  6  0  0  0
 37 36  1  0  0  0  0
 38 39  1  0  0  0  0
 39 32  1  0  0  0  0
 40 30  1  6  0  0  0
 40 37  1  0  0  0  0
 40 38  1  0  0  0  0
 42 41  1  0  0  0  0
 44 45  1  0  0  0  0
 44 43  1  0  0  0  0
 46 45  1  0  0  0  0
 47 46  1  0  0  0  0
 48 46  1  0  0  0  0
 49 50  1  0  0  0  0
 51 55  1  0  0  0  0
 52 65  1  0  0  0  0
 52 54  1  0  0  0  0
 53 62  1  6  0  0  0
 53 57  1  0  0  0  0
 54 60  1  0  0  0  0
 55 54  2  0  0  0  0
 55 57  1  0  0  0  0
 56 52  2  0  0  0  0
 57 50  1  1  0  0  0
 58 46  1  1  0  0  0
 58 51  1  0  0  0  0
 58 53  1  0  0  0  0
 59 56  1  0  0  0  0
 59 51  2  0  0  0  0
 60 49  1  0  0  0  0
 61 62  2  0  0  0  0
 62 64  1  0  0  0  0
 64 63  1  0  0  0  0
 65 66  1  0  0  0  0
 67 68  1  0  0  0  0
 69 70  1  0  0  0  0
 69 67  1  0  0  0  0
 70 68  1  0  0  0  0
 70 66  1  0  0  0  0
M  END
>  <MODEL>
1

>  <REMARK>
 VINA RESULT:      -6.7      0.000      0.000
  Name = 
  20 active torsions:
  status: ('A' for Active; 'I' for Inactive)
    1  A    between atoms: C_1  and  N_57
    2  A    between atoms: C_1  and  C_63
    3  A    between atoms: O_6  and  C_40
    4  A    between atoms: O_8  and  O_13
    5  A    between atoms: O_8  and  C_53
    6  A    between atoms: O_13  and  C_23
    7  A    between atoms: N_21  and  C_49
    8  A    between atoms: N_24  and  O_44
    9  A    between atoms: S_25  and  C_39
   10  A    between atoms: S_25  and  C_61
   11  A    between atoms: C_27  and  C_58
   12  A    between atoms: C_28  and  O_34
   13  A    between atoms: C_28  and  O_44
   14  A    between atoms: O_34  and  C_61
   15  A    between atoms: C_43  and  C_58
   16  A    between atoms: C_49  and  C_69
   17  A    between atoms: C_51  and  N_57
   18  A    between atoms: C_51  and  C_69
   19  A    between atoms: C_61  and  C_66
   20  A    between atoms: N_64  and  C_65
                            x       y       z     vdW  Elec       q    Type
                         _______ _______ _______ _____ _____    ______ ____

>  <TORSDO>
F 20

$$$$
=
 OpenBabel11062418133D

 70 78  0  0  1  0  0  0  0  0999 V2000
  183.6620  174.5360  138.4210 O   0  0  0  0  0  0  0  0  0  0  0  0
  182.9530  174.7930  137.4620 C   0  0  0  0  0  0  0  0  0  0  0  0
  183.2450  174.3720  136.0730 C   0  0  2  0  0  0  0  0  0  0  0  0
  181.5130  175.8850  136.0250 C   0  0  0  0  0  2  0  0  0  0  0  0
  182.2530  174.9650  135.2490 O   0  0  0  0  0  0  0  0  0  0  0  0
  181.7830  175.6780  137.5090 C   0  0  2  0  0  3  0  0  0  0  0  0
  183.7160  170.8120  135.7620 C   0  0  0  0  0  0  0  0  0  0  0  0
  182.1260  172.1190  136.2720 C   0  0  0  0  0  3  0  0  0  0  0  0
  183.1850  172.9050  135.9810 N   0  0  0  0  0  0  0  0  0  0  0  0
  182.4240  170.8080  136.1330 N   0  0  0  0  0  0  0  0  0  0  0  0
  184.4680  169.6320  135.5150 N   0  0  0  0  0  1  0  0  0  0  0  0
  184.2110  172.0910  135.6660 C   0  0  0  0  0  3  0  0  0  0  0  0
  182.7710  177.9800  137.3910 C   0  0  0  0  0  1  0  0  0  0  0  0
  182.0190  176.9980  138.2920 C   0  0  1  0  0  0  0  0  0  0  0  0
  180.3870  177.7800  138.7240 S   0  0  0  0  0  0  0  0  0  0  0  0
  180.5180  181.2930  135.7480 C   0  0  0  0  0  3  0  0  0  0  0  0
  180.8310  180.4450  137.9970 C   0  0  0  0  0  0  0  0  0  0  0  0
  181.3240  183.1130  137.6160 Cl  0  0  0  0  0  0  0  0  0  0  0  0
  180.1250  180.0210  135.3230 C   0  0  0  0  0  3  0  0  0  0  0  0
  180.8690  181.5050  137.0830 C   0  0  0  0  0  0  0  0  0  0  0  0
  181.1350  180.6760  139.2990 F   0  0  0  0  0  0  0  0  0  0  0  0
  180.0880  178.9610  136.2310 C   0  0  0  0  0  3  0  0  0  0  0  0
  180.4610  179.1610  137.5650 C   0  0  0  0  0  0  0  0  0  0  0  0
  182.8440  176.7450  139.4260 O   0  0  0  0  0  0  0  0  0  0  0  0
  183.0340  177.8900  140.2340 C   0  0  0  0  0  2  0  0  0  0  0  0
  183.7240  177.5850  141.4130 O   0  0  0  0  0  0  0  0  0  0  0  0
  184.6780  180.1430  143.7300 N   0  0  0  0  0  2  0  0  0  0  0  0
  183.6650  178.7030  142.1810 N   0  0  0  0  0  2  0  0  0  0  0  0
  184.6330  178.9680  143.1970 C   0  0  0  0  0  0  0  0  0  0  0  0
  185.4820  177.9130  143.6730 N   0  0  0  0  0  2  0  0  0  0  0  0
  188.7360  178.7800  143.0060 C   0  0  0  0  0  1  0  0  0  0  0  0
  188.3970  178.0670  146.7120 C   0  0  0  0  0  2  0  0  0  0  0  0
  188.9610  176.3200  142.5000 C   0  0  0  0  0  1  0  0  0  0  0  0
  189.7590  177.2920  144.7660 C   0  0  1  0  0  3  0  0  0  0  0  0
  188.7740  177.3730  143.5890 C   0  0  0  0  0  0  0  0  0  0  0  0
  188.6090  176.9350  145.7010 C   0  0  2  0  0  3  0  0  0  0  0  0
  187.6240  176.9950  144.5230 C   0  0  1  0  0  3  0  0  0  0  0  0
  185.8990  177.9770  146.0920 C   0  0  0  0  0  2  0  0  0  0  0  0
  186.9450  178.1100  147.2140 C   0  0  0  0  0  2  0  0  0  0  0  0
  186.5170  178.0560  144.6960 C   0  0  2  0  0  3  0  0  0  0  0  0
  191.7510  176.6950  143.9970 C   0  0  0  0  0  1  0  0  0  0  0  0
  190.6300  176.2020  144.6620 O   0  0  0  0  0  0  0  0  0  0  0  0
  184.6330  174.8930  135.6650 C   0  0  0  0  0  2  0  0  0  0  0  0
  185.4520  175.3980  136.8420 C   0  0  0  0  0  2  0  0  0  0  0  0
  186.4570  174.4080  137.2340 N   0  0  0  0  0  2  0  0  0  0  0  0
  187.6160  174.3780  136.3260 C   0  0  0  0  0  0  0  0  0  0  0  0
  187.2060  174.2410  134.8610 C   0  0  0  0  0  1  0  0  0  0  0  0
  188.4230  173.1330  136.6500 C   0  0  0  0  0  1  0  0  0  0  0  0
  191.8450  177.3050  138.8520 O   0  0  0  0  0  0  0  0  0  0  0  0
  190.8380  176.5030  139.4470 C   0  0  0  0  0  2  0  0  0  0  0  0
  189.9410  175.4110  136.0810 C   0  0  0  0  0  0  0  0  0  0  0  0
  192.6130  176.0130  135.6850 C   0  0  0  0  0  0  0  0  0  0  0  0
  188.6470  176.1210  137.9620 C   0  0  2  0  0  3  0  0  0  0  0  0
  192.1020  175.8790  136.9860 C   0  0  0  0  0  0  0  0  0  0  0  0
  190.7840  175.4880  137.1530 C   0  0  0  0  0  0  0  0  0  0  0  0
  191.7360  175.8180  134.5950 C   0  0  0  0  0  3  0  0  0  0  0  0
  190.0500  175.6570  138.4200 C   0  0  1  0  0  3  0  0  0  0  0  0
  188.5180  175.6250  136.4930 C   0  0  2  0  0  3  0  0  0  0  0  0
  190.4120  175.5660  134.8120 N   0  0  0  0  0  0  0  0  0  0  0  0
  192.7670  176.4540  138.2010 C   0  0  0  0  0  2  0  0  0  0  0  0
  188.1720  178.1570  139.0890 O   0  0  0  0  0  0  0  0  0  0  0  0
  188.4550  177.6150  138.0300 C   0  0  0  0  0  0  0  0  0  0  0  0
  187.2980  179.0860  136.4210 C   0  0  0  0  0  1  0  0  0  0  0  0
  188.6130  178.4350  136.7940 C   0  0  0  0  0  2  0  0  0  0  0  0
  193.9470  176.3860  135.4890 O   0  0  0  0  0  0  0  0  0  0  0  0
  194.8620  175.5310  134.9830 O   0  0  0  0  0  0  0  0  0  0  0  0
  197.2550  173.7540  135.6580 C   0  0  0  0  0  2  0  0  0  0  0  0
  197.0760  175.2530  135.8200 C   0  0  0  0  0  2  0  0  0  0  0  0
  195.7760  173.5520  135.9250 C   0  0  0  0  0  2  0  0  0  0  0  0
  195.5950  175.0520  136.0780 C   0  0  0  0  0  3  0  0  0  0  0  0
  2  6  1  0  0  0  0
  2  1  2  0  0  0  0
  3 43  1  6  0  0  0
  3  2  1  0  0  0  0
  4  6  1  0  0  0  0
  5  4  1  0  0  0  0
  5  3  1  0  0  0  0
  6 14  1  1  0  0  0
  7 10  1  0  0  0  0
  9  3  1  0  0  0  0
  9  8  1  0  0  0  0
 10  8  2  0  0  0  0
 11  7  1  0  0  0  0
 12  7  2  0  0  0  0
 12  9  1  0  0  0  0
 14 13  1  6  0  0  0
 14 15  1  0  0  0  0
 14 24  1  0  0  0  0
 16 20  1  0  0  0  0
 17 21  1  0  0  0  0
 19 16  2  0  0  0  0
 19 22  1  0  0  0  0
 20 18  1  0  0  0  0
 20 17  2  0  0  0  0
 22 23  2  0  0  0  0
 23 17  1  0  0  0  0
 23 15  1  0  0  0  0
 24 25  1  0  0  0  0
 25 26  1  0  0  0  0
 26 28  1  0  0  0  0
 28 29  1  0  0  0  0
 29 30  1  0  0  0  0
 29 27  2  0  0  0  0
 31 35  1  0  0  0  0
 32 39  1  0  0  0  0
 33 35  1  0  0  0  0
 34 42  1  6  0  0  0
 34 36  1  0  0  0  0
 35 34  1  0  0  0  0
 36 32  1  1  0  0  0
 37 35  1  6  0  0  0
 37 40  1  0  0  0  0
 37 36  1  0  0  0  0
 38 39  1  0  0  0  0
 40 30  1  6  0  0  0
 40 38  1  0  0  0  0
 41 42  1  0  0  0  0
 43 44  1  0  0  0  0
 44 45  1  0  0  0  0
 46 48  1  0  0  0  0
 46 45  1  0  0  0  0
 47 46  1  0  0  0  0
 49 50  1  0  0  0  0
 51 58  1  0  0  0  0
 51 55  1  0  0  0  0
 52 54  1  0  0  0  0
 53 62  1  6  0  0  0
 53 57  1  0  0  0  0
 54 55  2  0  0  0  0
 54 60  1  0  0  0  0
 55 57  1  0  0  0  0
 56 59  1  0  0  0  0
 56 52  2  0  0  0  0
 57 50  1  1  0  0  0
 58 46  1  1  0  0  0
 58 53  1  0  0  0  0
 59 51  2  0  0  0  0
 60 49  1  0  0  0  0
 62 61  2  0  0  0  0
 63 64  1  0  0  0  0
 64 62  1  0  0  0  0
 65 52  1  0  0  0  0
 66 65  1  0  0  0  0
 66 70  1  0  0  0  0
 67 68  1  0  0  0  0
 67 69  1  0  0  0  0
 68 70  1  0  0  0  0
 69 70  1  0  0  0  0
M  END
>  <MODEL>
2

>  <REMARK>
 VINA RESULT:      -6.1      4.018      9.995
  Name = 
  20 active torsions:
  status: ('A' for Active; 'I' for Inactive)
    1  A    between atoms: C_1  and  N_57
    2  A    between atoms: C_1  and  C_63
    3  A    between atoms: O_6  and  C_40
    4  A    between atoms: O_8  and  O_13
    5  A    between atoms: O_8  and  C_53
    6  A    between atoms: O_13  and  C_23
    7  A    between atoms: N_21  and  C_49
    8  A    between atoms: N_24  and  O_44
    9  A    between atoms: S_25  and  C_39
   10  A    between atoms: S_25  and  C_61
   11  A    between atoms: C_27  and  C_58
   12  A    between atoms: C_28  and  O_34
   13  A    between atoms: C_28  and  O_44
   14  A    between atoms: O_34  and  C_61
   15  A    between atoms: C_43  and  C_58
   16  A    between atoms: C_49  and  C_69
   17  A    between atoms: C_51  and  N_57
   18  A    between atoms: C_51  and  C_69
   19  A    between atoms: C_61  and  C_66
   20  A    between atoms: N_64  and  C_65
                            x       y       z     vdW  Elec       q    Type
                         _______ _______ _______ _____ _____    ______ ____

>  <TORSDO>
F 20

$$$$
=
 OpenBabel11062418133D

 70 78  0  0  1  0  0  0  0  0999 V2000
  183.2960  174.8590  138.6420 O   0  0  0  0  0  0  0  0  0  0  0  0
  182.4840  174.9590  137.7380 C   0  0  0  0  0  0  0  0  0  0  0  0
  182.7270  174.5160  136.3460 C   0  0  2  0  0  0  0  0  0  0  0  0
  180.7860  175.7500  136.3880 C   0  0  0  0  0  2  0  0  0  0  0  0
  181.5950  174.9120  135.5870 O   0  0  0  0  0  0  0  0  0  0  0  0
  181.2000  175.6610  137.8500 C   0  0  2  0  0  3  0  0  0  0  0  0
  183.6840  171.0540  136.0520 C   0  0  0  0  0  0  0  0  0  0  0  0
  182.0500  172.1390  136.8570 C   0  0  0  0  0  3  0  0  0  0  0  0
  182.8840  173.0540  136.3160 N   0  0  0  0  0  0  0  0  0  0  0  0
  182.5170  170.8810  136.6970 N   0  0  0  0  0  0  0  0  0  0  0  0
  184.5450  169.9850  135.6830 N   0  0  0  0  0  1  0  0  0  0  0  0
  183.9360  172.3820  135.8100 C   0  0  0  0  0  3  0  0  0  0  0  0
  182.1690  177.9700  137.7180 C   0  0  0  0  0  1  0  0  0  0  0  0
  181.2930  177.0400  138.5590 C   0  0  1  0  0  0  0  0  0  0  0  0
  179.6040  177.8140  138.6640 S   0  0  0  0  0  0  0  0  0  0  0  0
  180.1100  180.0220  142.6740 C   0  0  0  0  0  3  0  0  0  0  0  0
  179.7890  177.9540  141.4520 C   0  0  0  0  0  0  0  0  0  0  0  0
  179.9000  177.7560  144.1830 Cl  0  0  0  0  0  0  0  0  0  0  0  0
  180.1160  180.7330  141.4710 C   0  0  0  0  0  3  0  0  0  0  0  0
  179.9450  178.6350  142.6660 C   0  0  0  0  0  0  0  0  0  0  0  0
  179.5870  176.6120  141.4630 F   0  0  0  0  0  0  0  0  0  0  0  0
  179.9620  180.0560  140.2600 C   0  0  0  0  0  3  0  0  0  0  0  0
  179.8200  178.6630  140.2410 C   0  0  0  0  0  0  0  0  0  0  0  0
  181.9270  176.8890  139.8250 O   0  0  0  0  0  0  0  0  0  0  0  0
  183.0650  177.7170  139.9730 C   0  0  0  0  0  2  0  0  0  0  0  0
  183.6150  177.6190  141.2560 O   0  0  0  0  0  0  0  0  0  0  0  0
  185.4780  180.2950  142.7360 N   0  0  0  0  0  2  0  0  0  0  0  0
  184.0020  178.8760  141.5940 N   0  0  0  0  0  2  0  0  0  0  0  0
  184.9680  179.1150  142.6180 C   0  0  0  0  0  0  0  0  0  0  0  0
  185.2970  178.0760  143.5510 N   0  0  0  0  0  2  0  0  0  0  0  0
  188.6220  178.7790  143.0700 C   0  0  0  0  0  1  0  0  0  0  0  0
  188.0290  178.1470  146.7590 C   0  0  0  0  0  2  0  0  0  0  0  0
  188.7610  176.3030  142.6140 C   0  0  0  0  0  1  0  0  0  0  0  0
  189.4660  177.2760  144.9100 C   0  0  1  0  0  3  0  0  0  0  0  0
  188.5590  177.3820  143.6750 C   0  0  0  0  0  0  0  0  0  0  0  0
  188.2470  176.9880  145.7790 C   0  0  2  0  0  3  0  0  0  0  0  0
  187.3380  177.0740  144.5420 C   0  0  1  0  0  3  0  0  0  0  0  0
  185.5710  178.1620  145.9900 C   0  0  0  0  0  2  0  0  0  0  0  0
  186.5540  178.2650  147.1710 C   0  0  0  0  0  2  0  0  0  0  0  0
  186.2750  178.1880  144.6330 C   0  0  2  0  0  3  0  0  0  0  0  0
  191.5680  176.6170  145.1660 C   0  0  0  0  0  1  0  0  0  0  0  0
  190.2900  176.1450  144.8750 O   0  0  0  0  0  0  0  0  0  0  0  0
  183.9830  175.2160  135.8020 C   0  0  0  0  0  2  0  0  0  0  0  0
  184.9080  175.7200  136.8980 C   0  0  0  0  0  2  0  0  0  0  0  0
  185.9190  174.7130  137.2240 N   0  0  0  0  0  2  0  0  0  0  0  0
  187.0390  174.6950  136.2680 C   0  0  0  0  0  0  0  0  0  0  0  0
  186.5660  174.6760  134.8150 C   0  0  0  0  0  1  0  0  0  0  0  0
  187.7990  173.3970  136.4740 C   0  0  0  0  0  1  0  0  0  0  0  0
  191.4050  177.3100  138.9000 O   0  0  0  0  0  0  0  0  0  0  0  0
  190.3570  176.5410  139.4650 C   0  0  0  0  0  2  0  0  0  0  0  0
  189.4150  175.6140  136.0620 C   0  0  0  0  0  0  0  0  0  0  0  0
  192.1160  176.0900  135.6910 C   0  0  0  0  0  0  0  0  0  0  0  0
  188.1530  176.3240  137.9650 C   0  0  2  0  0  3  0  0  0  0  0  0
  191.5950  175.9380  136.9860 C   0  0  0  0  0  0  0  0  0  0  0  0
  190.2570  175.6110  137.1370 C   0  0  0  0  0  0  0  0  0  0  0  0
  191.2330  175.9790  134.5940 C   0  0  0  0  0  3  0  0  0  0  0  0
  189.5290  175.7730  138.4090 C   0  0  1  0  0  3  0  0  0  0  0  0
  188.0040  175.8860  136.4790 C   0  0  2  0  0  3  0  0  0  0  0  0
  189.8970  175.7880  134.8000 N   0  0  0  0  0  0  0  0  0  0  0  0
  192.2840  176.4360  138.2210 C   0  0  0  0  0  2  0  0  0  0  0  0
  187.7240  178.3380  139.1480 O   0  0  0  0  0  0  0  0  0  0  0  0
  188.0380  177.8230  138.0850 C   0  0  0  0  0  0  0  0  0  0  0  0
  187.2150  178.5190  135.8640 C   0  0  0  0  0  1  0  0  0  0  0  0
  188.3130  178.6800  136.8950 C   0  0  0  0  0  2  0  0  0  0  0  0
  193.4680  176.4010  135.5100 O   0  0  0  0  0  0  0  0  0  0  0  0
  194.3380  175.5190  134.9720 O   0  0  0  0  0  0  0  0  0  0  0  0
  197.3830  175.5030  134.7120 C   0  0  0  0  0  2  0  0  0  0  0  0
  196.4460  176.6190  135.1380 C   0  0  0  0  0  2  0  0  0  0  0  0
  196.4450  174.4830  135.3290 C   0  0  0  0  0  2  0  0  0  0  0  0
  195.5030  175.5990  135.7480 C   0  0  0  0  0  3  0  0  0  0  0  0
  2  6  1  0  0  0  0
  2  1  2  0  0  0  0
  3 43  1  6  0  0  0
  3  2  1  0  0  0  0
  4  6  1  0  0  0  0
  5  3  1  0  0  0  0
  5  4  1  0  0  0  0
  6 14  1  6  0  0  0
  7 10  1  0  0  0  0
  9  3  1  0  0  0  0
  9  8  1  0  0  0  0
 10  8  2  0  0  0  0
 11  7  1  0  0  0  0
 12  7  2  0  0  0  0
 12  9  1  0  0  0  0
 14 13  1  6  0  0  0
 14 15  1  0  0  0  0
 14 24  1  0  0  0  0
 15 23  1  0  0  0  0
 17 21  1  0  0  0  0
 17 20  2  0  0  0  0
 19 16  2  0  0  0  0
 20 16  1  0  0  0  0
 20 18  1  0  0  0  0
 22 19  1  0  0  0  0
 23 22  2  0  0  0  0
 23 17  1  0  0  0  0
 24 25  1  0  0  0  0
 25 26  1  0  0  0  0
 26 28  1  0  0  0  0
 28 29  1  0  0  0  0
 29 27  2  0  0  0  0
 29 30  1  0  0  0  0
 31 35  1  0  0  0  0
 32 39  1  0  0  0  0
 33 35  1  0  0  0  0
 34 42  1  6  0  0  0
 34 36  1  0  0  0  0
 35 34  1  0  0  0  0
 36 32  1  1  0  0  0
 37 35  1  6  0  0  0
 37 40  1  0  0  0  0
 37 36  1  0  0  0  0
 38 39  1  0  0  0  0
 40 30  1  6  0  0  0
 40 38  1  0  0  0  0
 42 41  1  0  0  0  0
 43 44  1  0  0  0  0
 44 45  1  0  0  0  0
 46 48  1  0  0  0  0
 46 45  1  0  0  0  0
 47 46  1  0  0  0  0
 49 50  1  0  0  0  0
 51 58  1  0  0  0  0
 51 55  1  0  0  0  0
 52 54  1  0  0  0  0
 53 62  1  6  0  0  0
 53 57  1  0  0  0  0
 54 55  2  0  0  0  0
 54 60  1  0  0  0  0
 55 57  1  0  0  0  0
 56 59  1  0  0  0  0
 56 52  2  0  0  0  0
 57 50  1  1  0  0  0
 58 46  1  1  0  0  0
 58 53  1  0  0  0  0
 59 51  2  0  0  0  0
 60 49  1  0  0  0  0
 62 61  2  0  0  0  0
 63 64  1  0  0  0  0
 64 62  1  0  0  0  0
 65 52  1  0  0  0  0
 66 65  1  0  0  0  0
 66 70  1  0  0  0  0
 67 68  1  0  0  0  0
 67 69  1  0  0  0  0
 68 70  1  0  0  0  0
 69 70  1  0  0  0  0
M  END
>  <MODEL>
3

>  <REMARK>
 VINA RESULT:      -5.8      4.286      9.971
  Name = 
  20 active torsions:
  status: ('A' for Active; 'I' for Inactive)
    1  A    between atoms: C_1  and  N_57
    2  A    between atoms: C_1  and  C_63
    3  A    between atoms: O_6  and  C_40
    4  A    between atoms: O_8  and  O_13
    5  A    between atoms: O_8  and  C_53
    6  A    between atoms: O_13  and  C_23
    7  A    between atoms: N_21  and  C_49
    8  A    between atoms: N_24  and  O_44
    9  A    between atoms: S_25  and  C_39
   10  A    between atoms: S_25  and  C_61
   11  A    between atoms: C_27  and  C_58
   12  A    between atoms: C_28  and  O_34
   13  A    between atoms: C_28  and  O_44
   14  A    between atoms: O_34  and  C_61
   15  A    between atoms: C_43  and  C_58
   16  A    between atoms: C_49  and  C_69
   17  A    between atoms: C_51  and  N_57
   18  A    between atoms: C_51  and  C_69
   19  A    between atoms: C_61  and  C_66
   20  A    between atoms: N_64  and  C_65
                            x       y       z     vdW  Elec       q    Type
                         _______ _______ _______ _____ _____    ______ ____

>  <TORSDO>
F 20

$$$$
=
 OpenBabel11062418133D

 70 78  0  0  1  0  0  0  0  0999 V2000
  188.9810  176.7940  139.6040 O   0  0  0  0  0  0  0  0  0  0  0  0
  188.9480  176.8890  138.3890 C   0  0  0  0  0  0  0  0  0  0  0  0
  187.7390  176.6510  137.5660 C   0  0  2  0  0  0  0  0  0  0  0  0
  189.5540  176.8120  136.1620 C   0  0  0  0  0  2  0  0  0  0  0  0
  188.1440  176.7450  136.2090 O   0  0  0  0  0  0  0  0  0  0  0  0
  190.1260  177.1080  137.5410 C   0  0  2  0  0  3  0  0  0  0  0  0
  185.2900  178.9290  138.9090 C   0  0  0  0  0  0  0  0  0  0  0  0
  186.3160  178.6760  137.0710 C   0  0  0  0  0  3  0  0  0  0  0  0
  186.7270  177.6720  137.8760 N   0  0  0  0  0  0  0  0  0  0  0  0
  185.4110  179.4700  137.6840 N   0  0  0  0  0  0  0  0  0  0  0  0
  184.4410  179.4540  139.9220 N   0  0  0  0  0  1  0  0  0  0  0  0
  186.0930  177.8240  139.0560 C   0  0  0  0  0  3  0  0  0  0  0  0
  190.9960  174.7590  137.6570 C   0  0  0  0  0  1  0  0  0  0  0  0
  191.3480  176.2250  137.9150 C   0  0  1  0  0  0  0  0  0  0  0  0
  192.7940  176.6490  136.8240 S   0  0  0  0  0  0  0  0  0  0  0  0
  194.0130  172.3740  135.6200 C   0  0  0  0  0  3  0  0  0  0  0  0
  194.1200  174.2140  137.1940 C   0  0  0  0  0  0  0  0  0  0  0  0
  195.5580  171.9710  137.8350 Cl  0  0  0  0  0  0  0  0  0  0  0  0
  193.1820  173.1310  134.7900 C   0  0  0  0  0  3  0  0  0  0  0  0
  194.4840  172.9140  136.8190 C   0  0  0  0  0  0  0  0  0  0  0  0
  194.6190  174.7400  138.3410 F   0  0  0  0  0  0  0  0  0  0  0  0
  192.8170  174.4260  135.1630 C   0  0  0  0  0  3  0  0  0  0  0  0
  193.2640  174.9670  136.3740 C   0  0  0  0  0  0  0  0  0  0  0  0
  191.6290  176.3560  139.3060 O   0  0  0  0  0  0  0  0  0  0  0  0
  192.0350  177.6630  139.6640 C   0  0  0  0  0  2  0  0  0  0  0  0
  191.8040  177.9250  141.0190 O   0  0  0  0  0  0  0  0  0  0  0  0
  191.3020  175.1970  143.2830 N   0  0  0  0  0  2  0  0  0  0  0  0
  191.9950  176.7470  141.6660 N   0  0  0  0  0  2  0  0  0  0  0  0
  191.2660  176.4110  142.8470 C   0  0  0  0  0  0  0  0  0  0  0  0
  190.5740  177.4340  143.5790 N   0  0  0  0  0  2  0  0  0  0  0  0
  187.4190  176.0800  143.6010 C   0  0  0  0  0  1  0  0  0  0  0  0
  188.3410  177.0880  147.1360 C   0  0  0  0  0  2  0  0  0  0  0  0
  186.7380  178.4450  143.0490 C   0  0  0  0  0  1  0  0  0  0  0  0
  186.5370  177.5300  145.4660 C   0  0  1  0  0  3  0  0  0  0  0  0
  187.2820  177.5060  144.1230 C   0  0  0  0  0  0  0  0  0  0  0  0
  187.7750  178.1070  146.1410 C   0  0  2  0  0  3  0  0  0  0  0  0
  188.5180  178.1030  144.7950 C   0  0  1  0  0  3  0  0  0  0  0  0
  190.6350  177.4800  146.0340 C   0  0  0  0  0  2  0  0  0  0  0  0
  189.8510  177.2820  147.3430 C   0  0  0  0  0  2  0  0  0  0  0  0
  189.7840  177.2190  144.7900 C   0  0  2  0  0  3  0  0  0  0  0  0
  185.4680  178.9360  146.8060 C   0  0  0  0  0  1  0  0  0  0  0  0
  185.5090  178.4800  145.4910 O   0  0  0  0  0  0  0  0  0  0  0  0
  187.2020  175.2390  137.8480 C   0  0  0  0  0  2  0  0  0  0  0  0
  186.4370  174.6460  136.6750 C   0  0  0  0  0  2  0  0  0  0  0  0
  184.9940  174.7780  136.8800 N   0  0  0  0  0  2  0  0  0  0  0  0
  184.2310  174.7380  135.6200 C   0  0  0  0  0  0  0  0  0  0  0  0
  184.4280  173.4280  134.8600 C   0  0  0  0  0  1  0  0  0  0  0  0
  184.7780  175.8290  134.7160 C   0  0  0  0  0  1  0  0  0  0  0  0
  179.3260  173.9770  138.4830 O   0  0  0  0  0  0  0  0  0  0  0  0
  180.3210  173.0230  138.1520 C   0  0  0  0  0  2  0  0  0  0  0  0
  182.4060  175.8100  137.0510 C   0  0  0  0  0  0  0  0  0  0  0  0
  180.8480  177.1020  138.9400 C   0  0  0  0  0  0  0  0  0  0  0  0
  181.9020  173.6770  136.0960 C   0  0  2  0  0  3  0  0  0  0  0  0
  180.8900  175.6990  138.8950 C   0  0  0  0  0  0  0  0  0  0  0  0
  181.7470  175.0810  138.0000 C   0  0  0  0  0  0  0  0  0  0  0  0
  181.6280  177.8270  138.0120 C   0  0  0  0  0  3  0  0  0  0  0  0
  181.6230  173.6620  137.6180 C   0  0  1  0  0  3  0  0  0  0  0  0
  182.7190  174.9780  135.8480 C   0  0  2  0  0  3  0  0  0  0  0  0
  182.3550  177.1710  137.0600 N   0  0  0  0  0  0  0  0  0  0  0  0
  179.8360  174.8190  139.4970 C   0  0  0  0  0  2  0  0  0  0  0  0
  180.0000  174.7000  135.1060 O   0  0  0  0  0  0  0  0  0  0  0  0
  180.6510  173.6750  135.2550 C   0  0  0  0  0  0  0  0  0  0  0  0
  180.5500  171.2180  135.4640 C   0  0  0  0  0  1  0  0  0  0  0  0
  180.2060  172.4110  134.5990 C   0  0  0  0  0  2  0  0  0  0  0  0
  180.0060  177.7510  139.8490 O   0  0  0  0  0  0  0  0  0  0  0  0
  179.9980  177.4410  141.1630 O   0  0  0  0  0  0  0  0  0  0  0  0
  180.0910  180.1940  142.4860 C   0  0  0  0  0  2  0  0  0  0  0  0
  180.2970  178.8150  143.0870 C   0  0  0  0  0  2  0  0  0  0  0  0
  180.6930  179.7120  141.1810 C   0  0  0  0  0  2  0  0  0  0  0  0
  180.8900  178.3290  141.7790 C   0  0  0  0  0  3  0  0  0  0  0  0
  2  1  2  0  0  0  0
  3 43  1  1  0  0  0
  3  9  1  0  0  0  0
  3  2  1  0  0  0  0
  4  5  1  0  0  0  0
  4  6  1  0  0  0  0
  5  3  1  0  0  0  0
  6 14  1  1  0  0  0
  6  2  1  0  0  0  0
  7 12  2  0  0  0  0
  7 11  1  0  0  0  0
  8 10  2  0  0  0  0
  8  9  1  0  0  0  0
  9 12  1  0  0  0  0
 10  7  1  0  0  0  0
 14 13  1  6  0  0  0
 14 24  1  0  0  0  0
 15 14  1  0  0  0  0
 16 20  1  0  0  0  0
 17 21  1  0  0  0  0
 19 22  1  0  0  0  0
 19 16  2  0  0  0  0
 20 17  2  0  0  0  0
 20 18  1  0  0  0  0
 22 23  2  0  0  0  0
 23 15  1  0  0  0  0
 23 17  1  0  0  0  0
 24 25  1  0  0  0  0
 25 26  1  0  0  0  0
 26 28  1  0  0  0  0
 28 29  1  0  0  0  0
 29 27  2  0  0  0  0
 29 30  1  0  0  0  0
 31 35  1  0  0  0  0
 32 39  1  0  0  0  0
 33 35  1  0  0  0  0
 34 42  1  6  0  0  0
 34 36  1  0  0  0  0
 35 34  1  0  0  0  0
 36 32  1  1  0  0  0
 37 35  1  6  0  0  0
 37 36  1  0  0  0  0
 38 39  1  0  0  0  0
 40 30  1  6  0  0  0
 40 37  1  0  0  0  0
 40 38  1  0  0  0  0
 42 41  1  0  0  0  0
 44 45  1  0  0  0  0
 44 43  1  0  0  0  0
 46 45  1  0  0  0  0
 47 46  1  0  0  0  0
 48 46  1  0  0  0  0
 49 60  1  0  0  0  0
 50 49  1  0  0  0  0
 51 59  2  0  0  0  0
 51 55  1  0  0  0  0
 52 65  1  0  0  0  0
 53 62  1  6  0  0  0
 53 57  1  0  0  0  0
 54 52  1  0  0  0  0
 54 60  1  0  0  0  0
 55 54  2  0  0  0  0
 56 52  2  0  0  0  0
 57 55  1  0  0  0  0
 57 50  1  6  0  0  0
 58 46  1  1  0  0  0
 58 53  1  0  0  0  0
 58 51  1  0  0  0  0
 59 56  1  0  0  0  0
 61 62  2  0  0  0  0
 64 62  1  0  0  0  0
 64 63  1  0  0  0  0
 65 66  1  0  0  0  0
 66 70  1  0  0  0  0
 67 68  1  0  0  0  0
 69 70  1  0  0  0  0
 69 67  1  0  0  0  0
 70 68  1  0  0  0  0
M  END
>  <MODEL>
4

>  <REMARK>
 VINA RESULT:      -5.7      2.103      2.916
  Name = 
  20 active torsions:
  status: ('A' for Active; 'I' for Inactive)
    1  A    between atoms: C_1  and  N_57
    2  A    between atoms: C_1  and  C_63
    3  A    between atoms: O_6  and  C_40
    4  A    between atoms: O_8  and  O_13
    5  A    between atoms: O_8  and  C_53
    6  A    between atoms: O_13  and  C_23
    7  A    between atoms: N_21  and  C_49
    8  A    between atoms: N_24  and  O_44
    9  A    between atoms: S_25  and  C_39
   10  A    between atoms: S_25  and  C_61
   11  A    between atoms: C_27  and  C_58
   12  A    between atoms: C_28  and  O_34
   13  A    between atoms: C_28  and  O_44
   14  A    between atoms: O_34  and  C_61
   15  A    between atoms: C_43  and  C_58
   16  A    between atoms: C_49  and  C_69
   17  A    between atoms: C_51  and  N_57
   18  A    between atoms: C_51  and  C_69
   19  A    between atoms: C_61  and  C_66
   20  A    between atoms: N_64  and  C_65
                            x       y       z     vdW  Elec       q    Type
                         _______ _______ _______ _____ _____    ______ ____

>  <TORSDO>
F 20

$$$$
=
 OpenBabel11062418133D

 70 78  0  0  1  0  0  0  0  0999 V2000
  183.7530  175.5200  138.4120 O   0  0  0  0  0  0  0  0  0  0  0  0
  182.8920  175.5560  137.5490 C   0  0  0  0  0  0  0  0  0  0  0  0
  183.1430  175.3140  136.1100 C   0  0  2  0  0  0  0  0  0  0  0  0
  181.0100  176.1430  136.3470 C   0  0  0  0  0  2  0  0  0  0  0  0
  181.9200  175.5630  135.4340 O   0  0  0  0  0  0  0  0  0  0  0  0
  181.5060  175.9840  137.7770 C   0  0  2  0  0  3  0  0  0  0  0  0
  183.6560  171.7520  135.9270 C   0  0  0  0  0  0  0  0  0  0  0  0
  184.5860  173.4860  135.1390 C   0  0  0  0  0  3  0  0  0  0  0  0
  183.5680  173.9200  135.9130 N   0  0  0  0  0  0  0  0  0  0  0  0
  184.6740  172.1380  135.1370 N   0  0  0  0  0  0  0  0  0  0  0  0
  183.3470  170.3920  136.2050 N   0  0  0  0  0  1  0  0  0  0  0  0
  182.9560  172.8290  136.4130 C   0  0  0  0  0  3  0  0  0  0  0  0
  182.3290  178.3340  138.0770 C   0  0  0  0  0  1  0  0  0  0  0  0
  181.3750  177.2740  138.6320 C   0  0  1  0  0  0  0  0  0  0  0  0
  179.6490  177.9530  138.4940 S   0  0  0  0  0  0  0  0  0  0  0  0
  180.5260  181.4610  135.6410 C   0  0  0  0  0  3  0  0  0  0  0  0
  180.3490  180.5950  137.8980 C   0  0  0  0  0  0  0  0  0  0  0  0
  181.0290  183.2380  137.6510 Cl  0  0  0  0  0  0  0  0  0  0  0  0
  180.1670  180.2100  135.1330 C   0  0  0  0  0  3  0  0  0  0  0  0
  180.6160  181.6540  137.0210 C   0  0  0  0  0  0  0  0  0  0  0  0
  180.4000  180.8100  139.2370 F   0  0  0  0  0  0  0  0  0  0  0  0
  179.9030  179.1510  136.0040 C   0  0  0  0  0  3  0  0  0  0  0  0
  180.0130  179.3310  137.3880 C   0  0  0  0  0  0  0  0  0  0  0  0
  181.7740  177.0060  139.9730 O   0  0  0  0  0  0  0  0  0  0  0  0
  182.6440  177.9920  140.4960 C   0  0  0  0  0  2  0  0  0  0  0  0
  183.9810  177.5820  140.4490 O   0  0  0  0  0  0  0  0  0  0  0  0
  186.1670  179.9600  141.9930 N   0  0  0  0  0  2  0  0  0  0  0  0
  184.7230  178.7030  140.6410 N   0  0  0  0  0  2  0  0  0  0  0  0
  185.2790  179.0260  141.9150 C   0  0  0  0  0  0  0  0  0  0  0  0
  184.7900  178.3760  143.0980 N   0  0  0  0  0  2  0  0  0  0  0  0
  188.1080  178.7390  143.9020 C   0  0  0  0  0  1  0  0  0  0  0  0
  186.0620  178.8170  147.0910 C   0  0  0  0  0  2  0  0  0  0  0  0
  188.0690  176.2180  143.8770 C   0  0  0  0  0  1  0  0  0  0  0  0
  187.9650  177.5290  146.1100 C   0  0  1  0  0  3  0  0  0  0  0  0
  187.6250  177.4800  144.6120 C   0  0  0  0  0  0  0  0  0  0  0  0
  186.4790  177.4900  146.4460 C   0  0  2  0  0  3  0  0  0  0  0  0
  186.1360  177.4210  144.9500 C   0  0  1  0  0  3  0  0  0  0  0  0
  184.1150  178.8740  145.4060 C   0  0  0  0  0  2  0  0  0  0  0  0
  184.5730  179.1140  146.8570 C   0  0  0  0  0  2  0  0  0  0  0  0
  185.2830  178.6080  144.4550 C   0  0  2  0  0  3  0  0  0  0  0  0
  189.8620  176.7320  146.9360 C   0  0  0  0  0  1  0  0  0  0  0  0
  188.5750  176.3530  146.5600 O   0  0  0  0  0  0  0  0  0  0  0  0
  184.2170  176.2940  135.6100 C   0  0  0  0  0  2  0  0  0  0  0  0
  185.3190  176.5420  136.6270 C   0  0  0  0  0  2  0  0  0  0  0  0
  186.3840  177.3620  136.0450 N   0  0  0  0  0  2  0  0  0  0  0  0
  187.4860  176.5580  135.4900 C   0  0  0  0  0  0  0  0  0  0  0  0
  188.4120  177.3780  134.5940 C   0  0  0  0  0  1  0  0  0  0  0  0
  186.8740  175.4960  134.5940 C   0  0  0  0  0  1  0  0  0  0  0  0
  192.3660  175.5740  138.3280 O   0  0  0  0  0  0  0  0  0  0  0  0
  192.1580  175.7030  136.9310 C   0  0  0  0  0  2  0  0  0  0  0  0
  188.7570  176.7870  137.6950 C   0  0  0  0  0  0  0  0  0  0  0  0
  190.0380  177.5780  140.0180 C   0  0  0  0  0  0  0  0  0  0  0  0
  189.6580  175.2560  136.0940 C   0  0  2  0  0  3  0  0  0  0  0  0
  190.7840  177.2410  138.8770 C   0  0  0  0  0  0  0  0  0  0  0  0
  190.1150  176.9370  137.7030 C   0  0  0  0  0  0  0  0  0  0  0  0
  188.6290  177.5170  139.9420 C   0  0  0  0  0  3  0  0  0  0  0  0
  190.7530  176.2390  136.5720 C   0  0  1  0  0  3  0  0  0  0  0  0
  188.3190  175.8690  136.5980 C   0  0  2  0  0  3  0  0  0  0  0  0
  188.0180  177.0820  138.8000 N   0  0  0  0  0  0  0  0  0  0  0  0
  192.2310  176.8510  138.9180 C   0  0  0  0  0  2  0  0  0  0  0  0
  190.4900  173.6550  137.6380 O   0  0  0  0  0  0  0  0  0  0  0  0
  189.8290  173.8580  136.6300 C   0  0  0  0  0  0  0  0  0  0  0  0
  187.9300  172.2800  136.6550 C   0  0  0  0  0  1  0  0  0  0  0  0
  189.1820  172.7130  135.9230 C   0  0  0  0  0  2  0  0  0  0  0  0
  190.6890  177.9080  141.2110 O   0  0  0  0  0  0  0  0  0  0  0  0
  190.5010  177.2040  142.3480 O   0  0  0  0  0  0  0  0  0  0  0  0
  191.8070  176.8860  145.0920 C   0  0  0  0  0  2  0  0  0  0  0  0
  191.7600  175.9270  143.9170 C   0  0  0  0  0  2  0  0  0  0  0  0
  191.8160  178.0590  144.1310 C   0  0  0  0  0  2  0  0  0  0  0  0
  191.7600  177.0990  142.9550 C   0  0  0  0  0  3  0  0  0  0  0  0
  2  6  1  0  0  0  0
  2  1  2  0  0  0  0
  3 43  1  6  0  0  0
  3  2  1  0  0  0  0
  4  6  1  0  0  0  0
  5  3  1  0  0  0  0
  5  4  1  0  0  0  0
  6 14  1  1  0  0  0
  7 11  1  0  0  0  0
  7 12  2  0  0  0  0
  8  9  1  0  0  0  0
  9  3  1  0  0  0  0
  9 12  1  0  0  0  0
 10  8  2  0  0  0  0
 10  7  1  0  0  0  0
 14 13  1  6  0  0  0
 14 24  1  0  0  0  0
 15 14  1  0  0  0  0
 16 20  1  0  0  0  0
 17 21  1  0  0  0  0
 19 16  2  0  0  0  0
 19 22  1  0  0  0  0
 20 18  1  0  0  0  0
 20 17  2  0  0  0  0
 22 23  2  0  0  0  0
 23 17  1  0  0  0  0
 23 15  1  0  0  0  0
 24 25  1  0  0  0  0
 26 25  1  0  0  0  0
 26 28  1  0  0  0  0
 28 29  1  0  0  0  0
 29 27  2  0  0  0  0
 29 30  1  0  0  0  0
 31 35  1  0  0  0  0
 33 35  1  0  0  0  0
 34 36  1  0  0  0  0
 34 42  1  1  0  0  0
 35 34  1  0  0  0  0
 36 32  1  6  0  0  0
 37 35  1  6  0  0  0
 37 36  1  0  0  0  0
 38 39  1  0  0  0  0
 39 32  1  0  0  0  0
 40 30  1  6  0  0  0
 40 37  1  0  0  0  0
 40 38  1  0  0  0  0
 42 41  1  0  0  0  0
 43 44  1  0  0  0  0
 45 44  1  0  0  0  0
 46 45  1  0  0  0  0
 47 46  1  0  0  0  0
 48 46  1  0  0  0  0
 49 60  1  0  0  0  0
 50 49  1  0  0  0  0
 51 55  2  0  0  0  0
 51 59  1  0  0  0  0
 52 65  1  0  0  0  0
 53 57  1  0  0  0  0
 53 58  1  0  0  0  0
 53 62  1  1  0  0  0
 54 60  1  0  0  0  0
 54 52  2  0  0  0  0
 55 54  1  0  0  0  0
 56 52  1  0  0  0  0
 57 50  1  1  0  0  0
 57 55  1  0  0  0  0
 58 46  1  6  0  0  0
 58 51  1  0  0  0  0
 59 56  2  0  0  0  0
 62 61  2  0  0  0  0
 64 62  1  0  0  0  0
 64 63  1  0  0  0  0
 65 66  1  0  0  0  0
 66 70  1  0  0  0  0
 68 67  1  0  0  0  0
 69 67  1  0  0  0  0
 70 68  1  0  0  0  0
 70 69  1  0  0  0  0
M  END
>  <MODEL>
5

>  <REMARK>
 VINA RESULT:      -5.1      4.010      9.453
  Name = 
  20 active torsions:
  status: ('A' for Active; 'I' for Inactive)
    1  A    between atoms: C_1  and  N_57
    2  A    between atoms: C_1  and  C_63
    3  A    between atoms: O_6  and  C_40
    4  A    between atoms: O_8  and  O_13
    5  A    between atoms: O_8  and  C_53
    6  A    between atoms: O_13  and  C_23
    7  A    between atoms: N_21  and  C_49
    8  A    between atoms: N_24  and  O_44
    9  A    between atoms: S_25  and  C_39
   10  A    between atoms: S_25  and  C_61
   11  A    between atoms: C_27  and  C_58
   12  A    between atoms: C_28  and  O_34
   13  A    between atoms: C_28  and  O_44
   14  A    between atoms: O_34  and  C_61
   15  A    between atoms: C_43  and  C_58
   16  A    between atoms: C_49  and  C_69
   17  A    between atoms: C_51  and  N_57
   18  A    between atoms: C_51  and  C_69
   19  A    between atoms: C_61  and  C_66
   20  A    between atoms: N_64  and  C_65
                            x       y       z     vdW  Elec       q    Type
                         _______ _______ _______ _____ _____    ______ ____

>  <TORSDO>
F 20

$$$$
=
 OpenBabel11062418133D

 70 78  0  0  1  0  0  0  0  0999 V2000
  183.9660  175.3590  137.9960 O   0  0  0  0  0  0  0  0  0  0  0  0
  183.2980  175.4590  136.9810 C   0  0  0  0  0  0  0  0  0  0  0  0
  183.7520  175.0320  135.6380 C   0  0  2  0  0  0  0  0  0  0  0  0
  181.8130  176.2460  135.3970 C   0  0  0  0  0  2  0  0  0  0  0  0
  182.7420  175.4240  134.7210 O   0  0  0  0  0  0  0  0  0  0  0  0
  182.0030  176.1470  136.9050 C   0  0  2  0  0  3  0  0  0  0  0  0
  184.7860  171.5800  135.7070 C   0  0  0  0  0  0  0  0  0  0  0  0
  182.9520  172.6390  135.6070 C   0  0  0  0  0  3  0  0  0  0  0  0
  183.9280  173.5720  135.6200 N   0  0  0  0  0  0  0  0  0  0  0  0
  183.4570  171.3860  135.6480 N   0  0  0  0  0  0  0  0  0  0  0  0
  185.7330  170.5230  135.7830 N   0  0  0  0  0  1  0  0  0  0  0  0
  185.1030  172.9170  135.6970 C   0  0  0  0  0  3  0  0  0  0  0  0
  182.8780  178.4970  136.8780 C   0  0  0  0  0  1  0  0  0  0  0  0
  181.9730  177.5200  137.6300 C   0  0  1  0  0  0  0  0  0  0  0  0
  180.2490  178.2180  137.5930 S   0  0  0  0  0  0  0  0  0  0  0  0
  179.2930  177.6250  142.0600 C   0  0  0  0  0  3  0  0  0  0  0  0
  179.8870  179.0940  140.2260 C   0  0  0  0  0  0  0  0  0  0  0  0
  179.6350  180.2580  142.6930 Cl  0  0  0  0  0  0  0  0  0  0  0  0
  179.2890  176.5340  141.1860 C   0  0  0  0  0  3  0  0  0  0  0  0
  179.5940  178.9020  141.5820 C   0  0  0  0  0  0  0  0  0  0  0  0
  180.2180  180.3340  139.7850 F   0  0  0  0  0  0  0  0  0  0  0  0
  179.5790  176.7220  139.8330 C   0  0  0  0  0  3  0  0  0  0  0  0
  179.8580  178.0030  139.3410 C   0  0  0  0  0  0  0  0  0  0  0  0
  182.5000  177.3810  138.9460 O   0  0  0  0  0  0  0  0  0  0  0  0
  183.2290  178.5170  139.3690 C   0  0  0  0  0  2  0  0  0  0  0  0
  184.6030  178.3650  139.1490 O   0  0  0  0  0  0  0  0  0  0  0  0
  186.5100  179.9600  141.7260 N   0  0  0  0  0  2  0  0  0  0  0  0
  185.2090  179.3370  139.8770 N   0  0  0  0  0  2  0  0  0  0  0  0
  185.7370  179.0820  141.1790 C   0  0  0  0  0  0  0  0  0  0  0  0
  185.3420  177.9030  141.8950 N   0  0  0  0  0  2  0  0  0  0  0  0
  183.4770  178.1900  144.7630 C   0  0  0  0  0  1  0  0  0  0  0  0
  186.9450  176.9650  145.6780 C   0  0  0  0  0  2  0  0  0  0  0  0
  184.2860  180.5770  144.6800 C   0  0  0  0  0  1  0  0  0  0  0  0
  185.4040  178.8460  146.2510 C   0  0  1  0  0  3  0  0  0  0  0  0
  184.6720  179.1210  144.9290 C   0  0  0  0  0  0  0  0  0  0  0  0
  186.6570  178.4570  145.4750 C   0  0  2  0  0  3  0  0  0  0  0  0
  185.9340  178.7500  144.1510 C   0  0  1  0  0  3  0  0  0  0  0  0
  187.1590  176.7910  143.1180 C   0  0  0  0  0  2  0  0  0  0  0  0
  187.7190  176.3740  144.4900 C   0  0  0  0  0  2  0  0  0  0  0  0
  185.8190  177.5210  143.2240 C   0  0  2  0  0  3  0  0  0  0  0  0
  186.3880  179.6030  148.0890 C   0  0  0  0  0  1  0  0  0  0  0  0
  185.6530  180.0150  146.9790 O   0  0  0  0  0  0  0  0  0  0  0  0
  185.0670  175.7500  135.2940 C   0  0  0  0  0  2  0  0  0  0  0  0
  185.9050  176.0810  136.5190 C   0  0  0  0  0  2  0  0  0  0  0  0
  186.8360  177.1730  136.2280 N   0  0  0  0  0  2  0  0  0  0  0  0
  188.1370  176.6970  135.7270 C   0  0  0  0  0  0  0  0  0  0  0  0
  188.9750  177.8200  135.1200 C   0  0  0  0  0  1  0  0  0  0  0  0
  187.8650  175.7230  134.5940 C   0  0  0  0  0  1  0  0  0  0  0  0
  192.9470  175.7430  138.6910 O   0  0  0  0  0  0  0  0  0  0  0  0
  192.7850  175.9420  137.2970 C   0  0  0  0  0  2  0  0  0  0  0  0
  189.3170  176.8500  137.9880 C   0  0  0  0  0  0  0  0  0  0  0  0
  190.4800  177.5570  140.3980 C   0  0  0  0  0  0  0  0  0  0  0  0
  190.3360  175.4470  136.3420 C   0  0  2  0  0  3  0  0  0  0  0  0
  191.2800  177.3140  139.2700 C   0  0  0  0  0  0  0  0  0  0  0  0
  190.6670  177.0510  138.0560 C   0  0  0  0  0  0  0  0  0  0  0  0
  189.0790  177.4460  140.2650 C   0  0  0  0  0  3  0  0  0  0  0  0
  191.3730  176.4430  136.9140 C   0  0  1  0  0  3  0  0  0  0  0  0
  188.9560  175.9790  136.8260 C   0  0  2  0  0  3  0  0  0  0  0  0
  188.5270  177.0530  139.0790 N   0  0  0  0  0  0  0  0  0  0  0  0
  192.7390  176.9790  139.3450 C   0  0  0  0  0  2  0  0  0  0  0  0
  189.8350  173.5500  137.6790 O   0  0  0  0  0  0  0  0  0  0  0  0
  190.5450  174.0280  136.8060 C   0  0  0  0  0  0  0  0  0  0  0  0
  191.4740  173.1730  134.6860 C   0  0  0  0  0  1  0  0  0  0  0  0
  191.6260  173.2030  136.1920 C   0  0  0  0  0  2  0  0  0  0  0  0
  191.0750  177.8450  141.6320 O   0  0  0  0  0  0  0  0  0  0  0  0
  190.3730  177.8250  142.7850 O   0  0  0  0  0  0  0  0  0  0  0  0
  190.6380  177.7130  145.8280 C   0  0  0  0  0  2  0  0  0  0  0  0
  191.2930  176.8570  144.7580 C   0  0  0  0  0  2  0  0  0  0  0  0
  190.6560  178.9000  144.8840 C   0  0  0  0  0  2  0  0  0  0  0  0
  191.3030  178.0410  143.8110 C   0  0  0  0  0  3  0  0  0  0  0  0
  2  1  2  0  0  0  0
  3 43  1  6  0  0  0
  3  2  1  0  0  0  0
  4  6  1  0  0  0  0
  5  4  1  0  0  0  0
  5  3  1  0  0  0  0
  6  2  1  0  0  0  0
  6 14  1  6  0  0  0
  7 11  1  0  0  0  0
  8  9  1  0  0  0  0
  8 10  2  0  0  0  0
  9  3  1  0  0  0  0
  9 12  1  0  0  0  0
 10  7  1  0  0  0  0
 12  7  2  0  0  0  0
 14 13  1  6  0  0  0
 14 24  1  0  0  0  0
 15 14  1  0  0  0  0
 15 23  1  0  0  0  0
 17 20  2  0  0  0  0
 19 16  2  0  0  0  0
 20 16  1  0  0  0  0
 20 18  1  0  0  0  0
 21 17  1  0  0  0  0
 22 19  1  0  0  0  0
 23 22  2  0  0  0  0
 23 17  1  0  0  0  0
 24 25  1  0  0  0  0
 26 25  1  0  0  0  0
 26 28  1  0  0  0  0
 28 29  1  0  0  0  0
 29 27  2  0  0  0  0
 29 30  1  0  0  0  0
 31 35  1  0  0  0  0
 33 35  1  0  0  0  0
 34 42  1  1  0  0  0
 35 34  1  0  0  0  0
 36 32  1  6  0  0  0
 36 34  1  0  0  0  0
 37 35  1  1  0  0  0
 37 36  1  0  0  0  0
 38 40  1  0  0  0  0
 38 39  1  0  0  0  0
 39 32  1  0  0  0  0
 40 30  1  6  0  0  0
 40 37  1  0  0  0  0
 42 41  1  0  0  0  0
 43 44  1  0  0  0  0
 45 44  1  0  0  0  0
 46 45  1  0  0  0  0
 47 46  1  0  0  0  0
 48 46  1  0  0  0  0
 49 60  1  0  0  0  0
 50 49  1  0  0  0  0
 51 55  2  0  0  0  0
 51 59  1  0  0  0  0
 52 65  1  0  0  0  0
 53 62  1  1  0  0  0
 53 58  1  0  0  0  0
 53 57  1  0  0  0  0
 54 60  1  0  0  0  0
 54 52  2  0  0  0  0
 55 54  1  0  0  0  0
 56 52  1  0  0  0  0
 57 50  1  1  0  0  0
 57 55  1  0  0  0  0
 58 46  1  6  0  0  0
 58 51  1  0  0  0  0
 59 56  2  0  0  0  0
 62 61  2  0  0  0  0
 63 64  1  0  0  0  0
 64 62  1  0  0  0  0
 65 66  1  0  0  0  0
 66 70  1  0  0  0  0
 68 67  1  0  0  0  0
 69 67  1  0  0  0  0
 70 68  1  0  0  0  0
 70 69  1  0  0  0  0
M  END
>  <MODEL>
6

>  <REMARK>
 VINA RESULT:      -4.6      4.192      9.525
  Name = 
  20 active torsions:
  status: ('A' for Active; 'I' for Inactive)
    1  A    between atoms: C_1  and  N_57
    2  A    between atoms: C_1  and  C_63
    3  A    between atoms: O_6  and  C_40
    4  A    between atoms: O_8  and  O_13
    5  A    between atoms: O_8  and  C_53
    6  A    between atoms: O_13  and  C_23
    7  A    between atoms: N_21  and  C_49
    8  A    between atoms: N_24  and  O_44
    9  A    between atoms: S_25  and  C_39
   10  A    between atoms: S_25  and  C_61
   11  A    between atoms: C_27  and  C_58
   12  A    between atoms: C_28  and  O_34
   13  A    between atoms: C_28  and  O_44
   14  A    between atoms: O_34  and  C_61
   15  A    between atoms: C_43  and  C_58
   16  A    between atoms: C_49  and  C_69
   17  A    between atoms: C_51  and  N_57
   18  A    between atoms: C_51  and  C_69
   19  A    between atoms: C_61  and  C_66
   20  A    between atoms: N_64  and  C_65
                            x       y       z     vdW  Elec       q    Type
                         _______ _______ _______ _____ _____    ______ ____

>  <TORSDO>
F 20

$$$$
=
 OpenBabel11062418133D

 70 78  0  0  1  0  0  0  0  0999 V2000
  189.7640  176.6220  139.0720 O   0  0  0  0  0  0  0  0  0  0  0  0
  189.7100  176.5190  137.8580 C   0  0  0  0  0  0  0  0  0  0  0  0
  188.4850  176.1640  137.1050 C   0  0  2  0  0  0  0  0  0  0  0  0
  190.2770  176.0760  135.6640 C   0  0  0  0  0  2  0  0  0  0  0  0
  188.8670  176.0330  135.7440 O   0  0  0  0  0  0  0  0  0  0  0  0
  190.8750  176.5870  136.9680 C   0  0  2  0  0  3  0  0  0  0  0  0
  186.0810  178.6570  138.1010 C   0  0  0  0  0  0  0  0  0  0  0  0
  187.0620  178.0900  136.3090 C   0  0  0  0  0  3  0  0  0  0  0  0
  187.4860  177.2320  137.2610 N   0  0  0  0  0  0  0  0  0  0  0  0
  186.1760  178.9840  136.8000 N   0  0  0  0  0  0  0  0  0  0  0  0
  185.2590  179.3530  139.0290 N   0  0  0  0  0  1  0  0  0  0  0  0
  186.8810  177.5850  138.4120 C   0  0  0  0  0  3  0  0  0  0  0  0
  191.7640  174.2740  137.3540 C   0  0  0  0  0  1  0  0  0  0  0  0
  192.0960  175.7640  137.4600 C   0  0  1  0  0  0  0  0  0  0  0  0
  193.5620  176.0850  136.3610 S   0  0  0  0  0  0  0  0  0  0  0  0
  196.3710  172.9490  138.2280 C   0  0  0  0  0  3  0  0  0  0  0  0
  195.3050  173.8980  136.2690 C   0  0  0  0  0  0  0  0  0  0  0  0
  196.9370  171.7380  135.8470 Cl  0  0  0  0  0  0  0  0  0  0  0  0
  195.7300  173.8920  139.0350 C   0  0  0  0  0  3  0  0  0  0  0  0
  196.1580  172.9500  136.8470 C   0  0  0  0  0  0  0  0  0  0  0  0
  195.0750  173.8600  134.9330 F   0  0  0  0  0  0  0  0  0  0  0  0
  194.8800  174.8400  138.4620 C   0  0  0  0  0  3  0  0  0  0  0  0
  194.6800  174.8630  137.0760 C   0  0  0  0  0  0  0  0  0  0  0  0
  192.3450  176.0460  138.8340 O   0  0  0  0  0  0  0  0  0  0  0  0
  192.7840  177.3730  139.0520 C   0  0  0  0  0  2  0  0  0  0  0  0
  192.6150  177.7640  140.3850 O   0  0  0  0  0  0  0  0  0  0  0  0
  191.8240  175.2110  142.7670 N   0  0  0  0  0  2  0  0  0  0  0  0
  192.7090  176.6280  141.1220 N   0  0  0  0  0  2  0  0  0  0  0  0
  191.8660  176.3930  142.2500 C   0  0  0  0  0  0  0  0  0  0  0  0
  191.1440  177.4810  142.8460 N   0  0  0  0  0  2  0  0  0  0  0  0
  187.8960  176.3890  142.6330 C   0  0  0  0  0  1  0  0  0  0  0  0
  188.6030  177.4300  146.2080 C   0  0  0  0  0  2  0  0  0  0  0  0
  187.4630  178.7830  141.9670 C   0  0  0  0  0  1  0  0  0  0  0  0
  186.9860  177.9650  144.3790 C   0  0  1  0  0  3  0  0  0  0  0  0
  187.8360  177.8370  143.1060 C   0  0  0  0  0  0  0  0  0  0  0  0
  188.2080  178.4600  145.1430 C   0  0  2  0  0  3  0  0  0  0  0  0
  189.0570  178.3530  143.8660 C   0  0  1  0  0  3  0  0  0  0  0  0
  191.0050  177.6000  145.2950 C   0  0  0  0  0  2  0  0  0  0  0  0
  190.1010  177.5070  146.5380 C   0  0  0  0  0  2  0  0  0  0  0  0
  190.2400  177.3700  143.9910 C   0  0  2  0  0  3  0  0  0  0  0  0
  184.8060  178.3680  144.4350 C   0  0  0  0  0  1  0  0  0  0  0  0
  186.0420  178.9950  144.2930 O   0  0  0  0  0  0  0  0  0  0  0  0
  187.9430  174.8210  137.6200 C   0  0  0  0  0  2  0  0  0  0  0  0
  187.2030  174.0280  136.5550 C   0  0  0  0  0  2  0  0  0  0  0  0
  185.7570  174.2180  136.6800 N   0  0  0  0  0  2  0  0  0  0  0  0
  184.9800  173.2150  135.9310 C   0  0  0  0  0  0  0  0  0  0  0  0
  184.9740  171.8510  136.6170 C   0  0  0  0  0  1  0  0  0  0  0  0
  185.6680  173.0060  134.5940 C   0  0  0  0  0  1  0  0  0  0  0  0
  179.8840  175.1570  137.6890 O   0  0  0  0  0  0  0  0  0  0  0  0
  180.7150  174.1740  138.2830 C   0  0  0  0  0  2  0  0  0  0  0  0
  183.2980  175.1390  135.8900 C   0  0  0  0  0  0  0  0  0  0  0  0
  181.8950  177.5190  136.0570 C   0  0  0  0  0  0  0  0  0  0  0  0
  182.4830  173.0200  136.6410 C   0  0  2  0  0  3  0  0  0  0  0  0
  181.6980  176.5120  137.0150 C   0  0  0  0  0  0  0  0  0  0  0  0
  182.4790  175.3700  136.9590 C   0  0  0  0  0  0  0  0  0  0  0  0
  182.8320  177.2910  135.0250 C   0  0  0  0  0  3  0  0  0  0  0  0
  182.1330  174.1240  137.6670 C   0  0  1  0  0  3  0  0  0  0  0  0
  183.5230  173.6740  135.6850 C   0  0  2  0  0  3  0  0  0  0  0  0
  183.4810  176.0930  134.9350 N   0  0  0  0  0  0  0  0  0  0  0  0
  180.4810  176.4230  137.8860 C   0  0  0  0  0  2  0  0  0  0  0  0
  181.1760  172.7850  134.6720 O   0  0  0  0  0  0  0  0  0  0  0  0
  181.2930  172.5240  135.8610 C   0  0  0  0  0  0  0  0  0  0  0  0
  179.3160  171.0830  135.5330 C   0  0  0  0  0  1  0  0  0  0  0  0
  180.2500  171.7050  136.5480 C   0  0  0  0  0  2  0  0  0  0  0  0
  181.1340  178.6920  136.1030 O   0  0  0  0  0  0  0  0  0  0  0  0
  181.4910  179.7470  136.8670 O   0  0  0  0  0  0  0  0  0  0  0  0
  180.4880  182.4110  137.9790 C   0  0  0  0  0  2  0  0  0  0  0  0
  180.3640  181.8270  136.5830 C   0  0  0  0  0  2  0  0  0  0  0  0
  180.4200  181.0140  138.5660 C   0  0  0  0  0  2  0  0  0  0  0  0
  180.3050  180.4290  137.1690 C   0  0  0  0  0  3  0  0  0  0  0  0
  2  1  2  0  0  0  0
  3  9  1  0  0  0  0
  3 43  1  1  0  0  0
  3  2  1  0  0  0  0
  4  5  1  0  0  0  0
  4  6  1  0  0  0  0
  5  3  1  0  0  0  0
  6 14  1  1  0  0  0
  6  2  1  0  0  0  0
  7 12  2  0  0  0  0
  7 11  1  0  0  0  0
  8 10  2  0  0  0  0
  8  9  1  0  0  0  0
  9 12  1  0  0  0  0
 10  7  1  0  0  0  0
 14 13  1  6  0  0  0
 14 24  1  0  0  0  0
 15 23  1  0  0  0  0
 15 14  1  0  0  0  0
 16 19  1  0  0  0  0
 17 20  1  0  0  0  0
 17 23  2  0  0  0  0
 18 20  1  0  0  0  0
 20 16  2  0  0  0  0
 21 17  1  0  0  0  0
 22 19  2  0  0  0  0
 23 22  1  0  0  0  0
 24 25  1  0  0  0  0
 25 26  1  0  0  0  0
 26 28  1  0  0  0  0
 28 29  1  0  0  0  0
 29 27  2  0  0  0  0
 29 30  1  0  0  0  0
 31 35  1  0  0  0  0
 32 39  1  0  0  0  0
 33 35  1  0  0  0  0
 34 42  1  6  0  0  0
 34 36  1  0  0  0  0
 35 34  1  0  0  0  0
 36 32  1  1  0  0  0
 37 35  1  6  0  0  0
 37 40  1  0  0  0  0
 37 36  1  0  0  0  0
 38 39  1  0  0  0  0
 40 30  1  6  0  0  0
 40 38  1  0  0  0  0
 42 41  1  0  0  0  0
 44 45  1  0  0  0  0
 44 43  1  0  0  0  0
 46 47  1  0  0  0  0
 46 45  1  0  0  0  0
 48 46  1  0  0  0  0
 49 60  1  0  0  0  0
 49 50  1  0  0  0  0
 51 55  1  0  0  0  0
 52 65  1  0  0  0  0
 52 54  1  0  0  0  0
 53 62  1  6  0  0  0
 53 57  1  0  0  0  0
 54 60  1  0  0  0  0
 55 54  2  0  0  0  0
 55 57  1  0  0  0  0
 56 52  2  0  0  0  0
 57 50  1  6  0  0  0
 58 51  1  0  0  0  0
 58 46  1  1  0  0  0
 58 53  1  0  0  0  0
 59 56  1  0  0  0  0
 59 51  2  0  0  0  0
 61 62  2  0  0  0  0
 62 64  1  0  0  0  0
 63 64  1  0  0  0  0
 65 66  1  0  0  0  0
 66 70  1  0  0  0  0
 67 69  1  0  0  0  0
 68 70  1  0  0  0  0
 68 67  1  0  0  0  0
 70 69  1  0  0  0  0
M  END
>  <MODEL>
7

>  <REMARK>
 VINA RESULT:      -3.9      1.819      2.500
  Name = 
  20 active torsions:
  status: ('A' for Active; 'I' for Inactive)
    1  A    between atoms: C_1  and  N_57
    2  A    between atoms: C_1  and  C_63
    3  A    between atoms: O_6  and  C_40
    4  A    between atoms: O_8  and  O_13
    5  A    between atoms: O_8  and  C_53
    6  A    between atoms: O_13  and  C_23
    7  A    between atoms: N_21  and  C_49
    8  A    between atoms: N_24  and  O_44
    9  A    between atoms: S_25  and  C_39
   10  A    between atoms: S_25  and  C_61
   11  A    between atoms: C_27  and  C_58
   12  A    between atoms: C_28  and  O_34
   13  A    between atoms: C_28  and  O_44
   14  A    between atoms: O_34  and  C_61
   15  A    between atoms: C_43  and  C_58
   16  A    between atoms: C_49  and  C_69
   17  A    between atoms: C_51  and  N_57
   18  A    between atoms: C_51  and  C_69
   19  A    between atoms: C_61  and  C_66
   20  A    between atoms: N_64  and  C_65
                            x       y       z     vdW  Elec       q    Type
                         _______ _______ _______ _____ _____    ______ ____

>  <TORSDO>
F 20

$$$$
