=
 OpenBabel11062417463D

 64 72  0  0  1  0  0  0  0  0999 V2000
  188.6290  177.2080  139.6660 C   0  0  1  0  0  3  0  0  0  0  0  0
  187.1250  179.0780  140.7060 O   0  0  0  0  0  0  0  0  0  0  0  0
  185.9380  178.7630  141.3980 C   0  0  1  0  0  3  0  0  0  0  0  0
  188.8560  179.8120  142.1540 C   0  0  0  0  0  1  0  0  0  0  0  0
  191.0250  176.6250  139.4240 F   0  0  0  0  0  0  0  0  0  0  0  0
  189.7380  176.4770  138.9400 C   0  0  0  0  0  0  0  0  0  0  0  0
  187.6460  177.7310  142.6190 C   0  0  2  0  0  3  0  0  0  0  0  0
  184.7990  178.4070  140.4490 C   0  0  0  0  0  2  0  0  0  0  0  0
  186.2000  177.5750  142.2860 C   0  0  0  0  0  2  0  0  0  0  0  0
  184.7140  179.3080  139.2130 C   0  0  1  0  0  3  0  0  0  0  0  0
  187.0520  177.2730  136.9200 C   0  0  0  0  0  3  0  0  0  0  0  0
  189.1950  177.9640  140.7200 O   0  0  0  0  0  0  0  0  0  0  0  0
  189.3740  175.2510  138.3980 F   0  0  0  0  0  0  0  0  0  0  0  0
  188.2000  178.6120  141.4970 C   0  0  1  0  0  0  0  0  0  0  0  0
  186.0460  177.5270  137.9920 C   0  0  0  0  0  2  0  0  0  0  0  0
  185.8090  179.0200  138.1770 C   0  0  0  0  0  2  0  0  0  0  0  0
  188.3800  177.3580  137.0750 C   0  0  0  0  0  3  0  0  0  0  0  0
  189.1520  177.7360  138.3200 C   0  0  1  0  0  3  0  0  0  0  0  0
  183.3180  179.2740  138.5910 C   0  0  0  0  0  2  0  0  0  0  0  0
  181.0810  175.7010  137.3250 O   0  0  0  0  0  0  0  0  0  0  0  0
  180.9060  178.9460  139.3660 C   0  0  2  0  0  3  0  0  0  0  0  0
  182.3400  178.3900  139.3700 C   0  0  1  0  0  3  0  0  0  0  0  0
  179.7130  177.8340  140.2330 S   0  0  0  0  0  0  0  0  0  0  0  0
  183.2250  176.3640  138.0210 O   0  0  0  0  0  0  0  0  0  0  0  0
  179.9170  176.0670  138.0410 C   0  0  0  0  0  2  0  0  0  0  0  0
  180.2510  176.2060  139.5470 C   0  0  1  0  0  0  0  0  0  0  0  0
  181.6360  176.0200  139.7580 O   0  0  0  0  0  0  0  0  0  0  0  0
  182.3120  176.9330  138.9260 C   0  0  1  0  0  0  0  0  0  0  0  0
  179.5060  175.1170  140.2890 C   0  0  0  0  0  1  0  0  0  0  0  0
  181.9820  176.7740  137.4730 C   0  0  2  0  0  3  0  0  0  0  0  0
  180.4580  179.1990  138.0630 O   0  0  0  0  0  0  0  0  0  0  0  0
  179.6350  180.3260  138.1660 C   0  0  1  0  0  3  0  0  0  0  0  0
  179.5710  181.5510  140.3410 O   0  0  0  0  0  1  0  0  0  0  0  0
  180.2300  181.2780  139.1520 C   0  0  0  0  0  0  0  0  0  0  0  0
  181.3580  181.7910  138.9320 O   0  0  0  0  0  0  0  0  0  0  0  0
  179.5050  181.0120  136.8000 C   0  0  1  0  0  3  0  0  0  0  0  0
  179.3180  182.4140  136.9490 O   0  0  0  0  0  0  0  0  0  0  0  0
  179.7860  183.3220  136.0000 C   0  0  0  0  0  0  0  0  0  0  0  0
  180.9620  183.7580  136.0820 O   0  0  0  0  0  1  0  0  0  0  0  0
  178.9590  183.7640  134.9720 O   0  0  0  0  0  0  0  0  0  0  0  0
  180.7120  180.7230  135.9050 C   0  0  0  0  0  2  0  0  0  0  0  0
  178.9310  179.8780  134.5940 O   0  0  0  0  0  0  0  0  0  0  0  0
  180.2950  180.0670  134.5980 C   0  0  0  0  0  3  0  0  0  0  0  0
  179.7350  178.8390  134.8600 O   0  0  0  0  0  0  0  0  0  0  0  0
  188.3260  176.3800  142.7930 C   0  0  0  0  0  2  0  0  0  0  0  0
  189.0980  176.3870  144.0350 N   0  0  0  0  0  0  0  0  0  0  0  0
  189.7120  177.7100  144.0790 C   0  0  2  0  0  0  0  0  0  0  0  0
  188.6450  177.3180  145.0860 C   0  0  2  0  0  0  0  0  0  0  0  0
  189.2970  178.5400  145.1150 O   0  0  0  0  0  0  0  0  0  0  0  0
  191.1630  177.4260  144.4240 C   0  0  0  0  0  2  0  0  0  0  0  0
  192.1620  175.1720  144.2110 C   0  0  0  0  0  1  0  0  0  0  0  0
  191.3060  176.0640  145.0850 C   0  0  1  0  0  3  0  0  0  0  0  0
  191.9310  176.1860  146.4360 C   0  0  0  0  0  0  0  0  0  0  0  0
  192.6430  175.2400  146.8750 O   0  0  0  0  0  0  0  0  0  0  0  0
  191.7470  177.3490  147.1880 O   0  0  0  0  0  0  0  0  0  0  0  0
  190.7080  177.4630  148.1480 C   0  0  0  0  0  1  0  0  0  0  0  0
  187.1700  177.6940  144.8710 C   0  0  0  0  0  2  0  0  0  0  0  0
  186.3620  177.5560  146.1570 C   0  0  1  0  0  3  0  0  0  0  0  0
  186.8980  178.3730  147.1550 O   0  0  0  0  0  1  0  0  0  0  0  0
  184.9020  177.9090  145.9220 C   0  0  0  0  0  2  0  0  0  0  0  0
  184.7930  179.1250  145.0140 C   0  0  0  0  0  2  0  0  0  0  0  0
  183.2430  180.4460  143.7750 F   0  0  0  0  0  0  0  0  0  0  0  0
  183.4090  179.2190  144.3930 C   0  0  0  0  0  3  0  0  0  0  0  0
  183.2150  178.1980  143.4780 F   0  0  0  0  0  0  0  0  0  0  0  0
  1 12  1  1  0  0  0
  2  3  1  0  0  0  0
  2 14  1  0  0  0  0
  3  8  1  6  0  0  0
  3  9  1  0  0  0  0
  6  5  1  0  0  0  0
  6  1  1  0  0  0  0
  7 45  1  6  0  0  0
  9  7  1  0  0  0  0
 10 19  1  6  0  0  0
 10  8  1  0  0  0  0
 11 17  2  0  0  0  0
 11 15  1  0  0  0  0
 12 14  1  0  0  0  0
 13  6  1  0  0  0  0
 14  4  1  1  0  0  0
 14  7  1  0  0  0  0
 15 16  1  0  0  0  0
 16 10  1  0  0  0  0
 18 17  1  6  0  0  0
 18  6  1  0  0  0  0
 18  1  1  0  0  0  0
 20 25  1  0  0  0  0
 21 31  1  6  0  0  0
 21 22  1  0  0  0  0
 21 23  1  0  0  0  0
 22 19  1  6  0  0  0
 25 26  1  0  0  0  0
 26 27  1  0  0  0  0
 26 23  1  0  0  0  0
 26 29  1  1  0  0  0
 28 24  1  1  0  0  0
 28 22  1  0  0  0  0
 28 27  1  0  0  0  0
 30 20  1  1  0  0  0
 30 24  1  0  0  0  0
 30 28  1  0  0  0  0
 32 31  1  6  0  0  0
 32 34  1  0  0  0  0
 34 33  1  0  0  0  0
 35 34  2  0  0  0  0
 36 41  1  6  0  0  0
 36 37  1  0  0  0  0
 36 32  1  0  0  0  0
 38 39  1  0  0  0  0
 38 37  1  0  0  0  0
 40 38  2  0  0  0  0
 42 43  1  0  0  0  0
 42 44  1  0  0  0  0
 43 44  1  0  0  0  0
 43 41  1  0  0  0  0
 45 46  1  0  0  0  0
 46 47  1  0  0  0  0
 46 48  1  0  0  0  0
 47 50  1  1  0  0  0
 47 48  1  0  0  0  0
 47 49  1  0  0  0  0
 48 57  1  6  0  0  0
 48 49  1  0  0  0  0
 50 52  1  0  0  0  0
 52 51  1  6  0  0  0
 52 53  1  0  0  0  0
 53 54  2  0  0  0  0
 53 55  1  0  0  0  0
 55 56  1  0  0  0  0
 57 58  1  0  0  0  0
 58 59  1  1  0  0  0
 60 58  1  0  0  0  0
 61 60  1  0  0  0  0
 62 63  1  0  0  0  0
 63 61  1  0  0  0  0
 64 63  1  0  0  0  0
M  END
>  <MODEL>
1

>  <REMARK>
 VINA RESULT:      -6.1      0.000      0.000
  Name = 
  21 active torsions:
  status: ('A' for Active; 'I' for Inactive)
    1  A    between atoms: C_2  and  O_14
    2  A    between atoms: C_5  and  C_44
    3  A    between atoms: C_5  and  C_51
    4  A    between atoms: C_6  and  C_39
    5  A    between atoms: C_6  and  C_51
    6  A    between atoms: C_7  and  O_11
    7  A    between atoms: C_9  and  C_37
    8  A    between atoms: C_9  and  C_54
    9  A    between atoms: C_10  and  C_26
   10  A    between atoms: O_11  and  C_21
   11  A    between atoms: O_14  and  C_38
   12  A    between atoms: O_16  and  C_61
   13  A    between atoms: C_21  and  C_38
   14  A    between atoms: C_21  and  C_47
   15  A    between atoms: C_23  and  C_35
   16  A    between atoms: C_26  and  C_33
   17  A    between atoms: N_32  and  C_35
   18  A    between atoms: C_38  and  C_55
   19  A    between atoms: C_42  and  C_44
   20  A    between atoms: C_52  and  C_55
   21  A    between atoms: C_54  and  C_61
                            x       y       z     vdW  Elec       q    Type
                         _______ _______ _______ _____ _____    ______ ____

>  <TORSDO>
F 21

$$$$
=
 OpenBabel11062417463D

 64 72  0  0  1  0  0  0  0  0999 V2000
  181.4520  178.9560  141.2100 C   0  0  1  0  0  3  0  0  0  0  0  0
  183.9160  179.5900  140.6030 O   0  0  0  0  0  0  0  0  0  0  0  0
  184.8640  178.6040  140.2620 C   0  0  1  0  0  3  0  0  0  0  0  0
  183.2340  180.8830  138.7330 C   0  0  0  0  0  1  0  0  0  0  0  0
  179.1400  179.7440  140.7960 F   0  0  0  0  0  0  0  0  0  0  0  0
  179.9950  179.0270  141.6130 C   0  0  0  0  0  0  0  0  0  0  0  0
  183.1950  178.4340  138.6310 C   0  0  2  0  0  3  0  0  0  0  0  0
  185.3810  177.8600  141.4880 C   0  0  0  0  0  2  0  0  0  0  0  0
  184.2080  177.6040  139.3450 C   0  0  0  0  0  2  0  0  0  0  0  0
  185.6600  178.7640  142.6930 C   0  0  1  0  0  3  0  0  0  0  0  0
  182.1500  178.6140  144.2800 C   0  0  0  0  0  3  0  0  0  0  0  0
  181.6380  179.7230  140.0360 O   0  0  0  0  0  0  0  0  0  0  0  0
  179.5060  177.8900  142.2430 F   0  0  0  0  0  0  0  0  0  0  0  0
  182.9690  179.6340  139.5530 C   0  0  1  0  0  0  0  0  0  0  0  0
  183.3430  178.1420  143.5200 C   0  0  0  0  0  2  0  0  0  0  0  0
  184.3840  179.2470  143.3950 C   0  0  0  0  0  2  0  0  0  0  0  0
  181.1530  179.3490  143.7700 C   0  0  0  0  0  3  0  0  0  0  0  0
  181.0100  179.8780  142.3590 C   0  0  1  0  0  3  0  0  0  0  0  0
  186.6340  178.1070  143.6710 C   0  0  0  0  0  2  0  0  0  0  0  0
  189.9690  175.4000  142.7070 O   0  0  0  0  0  0  0  0  0  0  0  0
  188.9610  178.5740  144.6140 C   0  0  2  0  0  3  0  0  0  0  0  0
  188.0990  178.4150  143.3500 C   0  0  1  0  0  3  0  0  0  0  0  0
  190.7440  178.8600  144.2240 S   0  0  0  0  0  0  0  0  0  0  0  0
  188.0830  176.3990  141.7250 O   0  0  0  0  0  0  0  0  0  0  0  0
  190.9090  176.1510  143.4500 C   0  0  0  0  0  2  0  0  0  0  0  0
  190.9780  177.5960  142.8980 C   0  0  1  0  0  0  0  0  0  0  0  0
  190.0180  177.7740  141.8760 O   0  0  0  0  0  0  0  0  0  0  0  0
  188.7660  177.4160  142.4140 C   0  0  1  0  0  0  0  0  0  0  0  0
  192.3530  177.7970  142.2980 C   0  0  0  0  0  1  0  0  0  0  0  0
  188.7180  176.0110  142.9320 C   0  0  2  0  0  3  0  0  0  0  0  0
  188.8330  177.4680  145.4650 O   0  0  0  0  0  0  0  0  0  0  0  0
  189.0360  177.9680  146.7560 C   0  0  1  0  0  3  0  0  0  0  0  0
  187.7520  178.0380  148.8960 O   0  0  0  0  0  1  0  0  0  0  0  0
  187.7530  177.8900  147.5180 C   0  0  0  0  0  0  0  0  0  0  0  0
  186.6640  177.7450  146.9050 O   0  0  0  0  0  0  0  0  0  0  0  0
  190.1150  177.1500  147.4760 C   0  0  1  0  0  3  0  0  0  0  0  0
  190.5940  176.0970  146.6470 O   0  0  0  0  0  0  0  0  0  0  0  0
  191.7030  175.3300  147.0010 C   0  0  0  0  0  0  0  0  0  0  0  0
  192.7190  175.3250  146.2620 O   0  0  0  0  0  0  0  0  0  0  0  0
  191.6900  174.5560  148.1580 O   0  0  0  0  0  1  0  0  0  0  0  0
  191.2740  178.0320  147.9470 C   0  0  0  0  0  2  0  0  0  0  0  0
  192.8730  178.3560  149.6620 O   0  0  0  0  0  0  0  0  0  0  0  0
  191.7330  177.6510  149.3460 C   0  0  0  0  0  3  0  0  0  0  0  0
  192.9800  177.0760  149.2780 O   0  0  0  0  0  0  0  0  0  0  0  0
  181.9530  177.6230  138.2900 C   0  0  0  0  0  2  0  0  0  0  0  0
  181.7490  177.6420  136.8420 N   0  0  0  0  0  0  0  0  0  0  0  0
  180.6790  176.6780  136.6070 C   0  0  2  0  0  0  0  0  0  0  0  0
  180.4520  178.1600  136.3670 C   0  0  2  0  0  0  0  0  0  0  0  0
  179.4890  177.1980  136.1110 O   0  0  0  0  0  0  0  0  0  0  0  0
  181.1950  175.8340  135.4550 C   0  0  0  0  0  2  0  0  0  0  0  0
  181.5680  173.5440  134.5940 C   0  0  0  0  0  1  0  0  0  0  0  0
  180.9610  174.3560  135.7190 C   0  0  1  0  0  3  0  0  0  0  0  0
  181.5680  173.9390  137.0190 C   0  0  0  0  0  0  0  0  0  0  0  0
  182.7450  173.4810  137.0330 O   0  0  0  0  0  0  0  0  0  0  0  0
  180.8450  174.0840  138.2060 O   0  0  0  0  0  0  0  0  0  0  0  0
  179.6510  173.3570  138.4480 C   0  0  0  0  0  1  0  0  0  0  0  0
  179.8040  179.0510  137.4390 C   0  0  0  0  0  2  0  0  0  0  0  0
  179.5400  180.4580  136.9150 C   0  0  1  0  0  3  0  0  0  0  0  0
  179.2820  181.3290  137.9760 O   0  0  0  0  0  1  0  0  0  0  0  0
  180.7180  180.9660  136.0990 C   0  0  0  0  0  2  0  0  0  0  0  0
  180.2240  181.7510  134.8940 C   0  0  0  0  0  2  0  0  0  0  0  0
  179.0390  183.5670  135.8830 F   0  0  0  0  0  0  0  0  0  0  0  0
  180.1910  183.2410  135.1900 C   0  0  0  0  0  3  0  0  0  0  0  0
  181.3050  183.6180  135.9200 F   0  0  0  0  0  0  0  0  0  0  0  0
  1 12  1  6  0  0  0
  1  6  1  0  0  0  0
  1 18  1  0  0  0  0
  3  9  1  6  0  0  0
  3  2  1  0  0  0  0
  3  8  1  0  0  0  0
  5  6  1  0  0  0  0
  6 13  1  0  0  0  0
  6 18  1  0  0  0  0
  7 45  1  1  0  0  0
  7  9  1  0  0  0  0
  7 14  1  0  0  0  0
  8 10  1  0  0  0  0
 10 16  1  0  0  0  0
 10 19  1  1  0  0  0
 14  4  1  6  0  0  0
 14 12  1  0  0  0  0
 14  2  1  0  0  0  0
 15 11  1  0  0  0  0
 16 15  1  0  0  0  0
 17 11  2  0  0  0  0
 18 17  1  1  0  0  0
 20 30  1  0  0  0  0
 20 25  1  0  0  0  0
 21 31  1  1  0  0  0
 22 19  1  1  0  0  0
 22 21  1  0  0  0  0
 23 21  1  0  0  0  0
 26 29  1  6  0  0  0
 26 25  1  0  0  0  0
 26 23  1  0  0  0  0
 27 28  1  0  0  0  0
 27 26  1  0  0  0  0
 28 24  1  6  0  0  0
 28 30  1  0  0  0  0
 28 22  1  0  0  0  0
 30 24  1  6  0  0  0
 32 31  1  6  0  0  0
 32 36  1  0  0  0  0
 32 34  1  0  0  0  0
 34 33  1  0  0  0  0
 35 34  2  0  0  0  0
 36 41  1  6  0  0  0
 37 38  1  0  0  0  0
 37 36  1  0  0  0  0
 38 40  1  0  0  0  0
 39 38  2  0  0  0  0
 41 43  1  0  0  0  0
 43 42  1  0  0  0  0
 44 43  1  0  0  0  0
 44 42  1  0  0  0  0
 46 45  1  0  0  0  0
 47 50  1  6  0  0  0
 47 46  1  0  0  0  0
 48 47  1  0  0  0  0
 48 46  1  0  0  0  0
 48 57  1  1  0  0  0
 49 48  1  0  0  0  0
 49 47  1  0  0  0  0
 50 52  1  0  0  0  0
 52 51  1  6  0  0  0
 52 53  1  0  0  0  0
 53 54  2  0  0  0  0
 53 55  1  0  0  0  0
 55 56  1  0  0  0  0
 58 57  1  0  0  0  0
 58 59  1  1  0  0  0
 60 58  1  0  0  0  0
 61 63  1  0  0  0  0
 61 60  1  0  0  0  0
 63 62  1  0  0  0  0
 63 64  1  0  0  0  0
M  END
>  <MODEL>
2

>  <REMARK>
 VINA RESULT:      -6.0      3.555     11.731
  Name = 
  21 active torsions:
  status: ('A' for Active; 'I' for Inactive)
    1  A    between atoms: C_2  and  O_14
    2  A    between atoms: C_5  and  C_44
    3  A    between atoms: C_5  and  C_51
    4  A    between atoms: C_6  and  C_39
    5  A    between atoms: C_6  and  C_51
    6  A    between atoms: C_7  and  O_11
    7  A    between atoms: C_9  and  C_37
    8  A    between atoms: C_9  and  C_54
    9  A    between atoms: C_10  and  C_26
   10  A    between atoms: O_11  and  C_21
   11  A    between atoms: O_14  and  C_38
   12  A    between atoms: O_16  and  C_61
   13  A    between atoms: C_21  and  C_38
   14  A    between atoms: C_21  and  C_47
   15  A    between atoms: C_23  and  C_35
   16  A    between atoms: C_26  and  C_33
   17  A    between atoms: N_32  and  C_35
   18  A    between atoms: C_38  and  C_55
   19  A    between atoms: C_42  and  C_44
   20  A    between atoms: C_52  and  C_55
   21  A    between atoms: C_54  and  C_61
                            x       y       z     vdW  Elec       q    Type
                         _______ _______ _______ _____ _____    ______ ____

>  <TORSDO>
F 21

$$$$
=
 OpenBabel11062417463D

 64 72  0  0  1  0  0  0  0  0999 V2000
  185.3200  178.0110  138.5270 C   0  0  1  0  0  3  0  0  0  0  0  0
  184.0930  177.2730  140.7160 O   0  0  0  0  0  0  0  0  0  0  0  0
  183.4440  178.2110  141.5440 C   0  0  1  0  0  3  0  0  0  0  0  0
  182.5690  175.8990  139.5250 C   0  0  0  0  0  1  0  0  0  0  0  0
  185.6120  177.2670  136.1810 F   0  0  0  0  0  0  0  0  0  0  0  0
  186.1150  178.0040  137.2380 C   0  0  0  0  0  0  0  0  0  0  0  0
  182.3320  178.3390  139.4890 C   0  0  2  0  0  3  0  0  0  0  0  0
  184.4300  179.0070  142.3910 C   0  0  0  0  0  2  0  0  0  0  0  0
  182.6860  179.1770  140.6710 C   0  0  0  0  0  2  0  0  0  0  0  0
  185.5640  178.1630  142.9830 C   0  0  1  0  0  3  0  0  0  0  0  0
  188.0500  178.5010  140.0560 C   0  0  0  0  0  3  0  0  0  0  0  0
  184.1900  177.1740  138.3690 O   0  0  0  0  0  0  0  0  0  0  0  0
  186.7850  179.1870  136.9590 F   0  0  0  0  0  0  0  0  0  0  0  0
  183.3520  177.1980  139.5140 C   0  0  1  0  0  0  0  0  0  0  0  0
  186.9610  178.8960  140.9960 C   0  0  0  0  0  2  0  0  0  0  0  0
  186.6200  177.7550  141.9470 C   0  0  0  0  0  2  0  0  0  0  0  0
  187.8810  177.7670  138.9480 C   0  0  0  0  0  3  0  0  0  0  0  0
  186.6010  177.1670  138.4110 C   0  0  1  0  0  3  0  0  0  0  0  0
  186.1910  178.8440  144.1990 C   0  0  0  0  0  2  0  0  0  0  0  0
  187.3500  179.6400  148.3700 O   0  0  0  0  0  0  0  0  0  0  0  0
  187.8860  177.3240  145.3580 C   0  0  2  0  0  3  0  0  0  0  0  0
  186.4500  177.8760  145.3570 C   0  0  1  0  0  3  0  0  0  0  0  0
  188.2210  176.2250  146.8040 S   0  0  0  0  0  0  0  0  0  0  0  0
  185.4720  179.6610  146.9590 O   0  0  0  0  0  0  0  0  0  0  0  0
  188.2250  178.5310  148.4320 C   0  0  0  0  0  2  0  0  0  0  0  0
  187.4400  177.2280  148.1440 C   0  0  1  0  0  0  0  0  0  0  0  0
  186.1000  177.5300  147.8110 O   0  0  0  0  0  0  0  0  0  0  0  0
  186.1320  178.4400  146.7360 C   0  0  1  0  0  0  0  0  0  0  0  0
  187.4400  176.3980  149.4100 C   0  0  0  0  0  1  0  0  0  0  0  0
  186.8880  179.6970  147.0400 C   0  0  2  0  0  3  0  0  0  0  0  0
  188.8330  178.3560  145.3170 O   0  0  0  0  0  0  0  0  0  0  0  0
  189.7810  177.9530  144.3700 C   0  0  1  0  0  3  0  0  0  0  0  0
  190.9030  180.0450  145.1420 O   0  0  0  0  0  1  0  0  0  0  0  0
  190.7890  179.0410  144.1930 C   0  0  0  0  0  0  0  0  0  0  0  0
  191.5750  179.0180  143.2110 O   0  0  0  0  0  0  0  0  0  0  0  0
  190.4810  176.6700  144.8370 C   0  0  1  0  0  3  0  0  0  0  0  0
  190.8400  175.8530  143.7290 O   0  0  0  0  0  0  0  0  0  0  0  0
  190.0630  175.8000  142.5730 C   0  0  0  0  0  0  0  0  0  0  0  0
  188.9210  175.2740  142.6140 O   0  0  0  0  0  1  0  0  0  0  0  0
  190.5440  176.3080  141.3700 O   0  0  0  0  0  0  0  0  0  0  0  0
  191.7080  176.9770  145.6980 C   0  0  0  0  0  2  0  0  0  0  0  0
  191.8820  177.0460  148.0580 O   0  0  0  0  0  0  0  0  0  0  0  0
  191.6910  176.1880  146.9980 C   0  0  0  0  0  3  0  0  0  0  0  0
  192.9100  176.3050  147.6210 O   0  0  0  0  0  0  0  0  0  0  0  0
  182.3000  179.1660  138.2110 C   0  0  0  0  0  2  0  0  0  0  0  0
  180.9560  179.1120  137.6380 N   0  0  0  0  0  0  0  0  0  0  0  0
  180.9030  180.2410  136.7150 C   0  0  2  0  0  0  0  0  0  0  0  0
  180.8670  178.8150  136.1960 C   0  0  2  0  0  0  0  0  0  0  0  0
  180.7670  179.9220  135.3690 O   0  0  0  0  0  0  0  0  0  0  0  0
  179.5850  180.9190  137.0440 C   0  0  0  0  0  2  0  0  0  0  0  0
  179.8700  181.6150  139.4020 C   0  0  0  0  0  1  0  0  0  0  0  0
  179.8030  182.1050  137.9710 C   0  0  1  0  0  3  0  0  0  0  0  0
  181.0670  182.8260  137.6320 C   0  0  0  0  0  0  0  0  0  0  0  0
  182.1370  182.5100  138.2230 O   0  0  0  0  0  0  0  0  0  0  0  0
  181.0610  183.8190  136.6490 O   0  0  0  0  0  0  0  0  0  0  0  0
  180.7920  183.5240  135.2880 C   0  0  0  0  0  1  0  0  0  0  0  0
  182.1450  178.1100  135.7130 C   0  0  0  0  0  2  0  0  0  0  0  0
  181.8440  176.7240  135.1530 C   0  0  1  0  0  3  0  0  0  0  0  0
  182.8420  175.8230  135.5300 O   0  0  0  0  0  1  0  0  0  0  0  0
  180.4870  176.2270  135.6270 C   0  0  0  0  0  2  0  0  0  0  0  0
  180.6530  174.9890  136.4940 C   0  0  0  0  0  2  0  0  0  0  0  0
  180.8770  172.8850  135.3950 F   0  0  0  0  0  0  0  0  0  0  0  0
  179.9490  173.7920  135.8750 C   0  0  0  0  0  3  0  0  0  0  0  0
  179.1230  173.1790  136.8020 F   0  0  0  0  0  0  0  0  0  0  0  0
  1 12  1  6  0  0  0
  2  3  1  0  0  0  0
  3  9  1  6  0  0  0
  3  8  1  0  0  0  0
  5  6  1  0  0  0  0
  6 18  1  0  0  0  0
  6  1  1  0  0  0  0
  7 45  1  6  0  0  0
  7 14  1  0  0  0  0
  7  9  1  0  0  0  0
  8 10  1  0  0  0  0
 10 19  1  1  0  0  0
 11 15  1  0  0  0  0
 12 14  1  0  0  0  0
 13  6  1  0  0  0  0
 14  4  1  1  0  0  0
 14  2  1  0  0  0  0
 15 16  1  0  0  0  0
 16 10  1  0  0  0  0
 17 11  2  0  0  0  0
 18  1  1  0  0  0  0
 18 17  1  1  0  0  0
 20 25  1  0  0  0  0
 21 31  1  1  0  0  0
 21 23  1  0  0  0  0
 22 19  1  6  0  0  0
 22 21  1  0  0  0  0
 22 28  1  0  0  0  0
 23 26  1  0  0  0  0
 26 25  1  0  0  0  0
 26 29  1  1  0  0  0
 27 26  1  0  0  0  0
 28 24  1  6  0  0  0
 28 30  1  0  0  0  0
 28 27  1  0  0  0  0
 30 24  1  1  0  0  0
 30 20  1  0  0  0  0
 32 34  1  1  0  0  0
 32 36  1  0  0  0  0
 32 31  1  0  0  0  0
 34 33  1  0  0  0  0
 35 34  2  0  0  0  0
 36 41  1  6  0  0  0
 37 36  1  0  0  0  0
 38 39  1  0  0  0  0
 38 37  1  0  0  0  0
 40 38  2  0  0  0  0
 41 43  1  0  0  0  0
 43 44  1  0  0  0  0
 43 42  1  0  0  0  0
 44 42  1  0  0  0  0
 46 45  1  0  0  0  0
 47 50  1  1  0  0  0
 47 46  1  0  0  0  0
 48 57  1  6  0  0  0
 48 47  1  0  0  0  0
 48 46  1  0  0  0  0
 49 48  1  0  0  0  0
 49 47  1  0  0  0  0
 50 52  1  0  0  0  0
 52 51  1  1  0  0  0
 53 52  1  0  0  0  0
 53 54  2  0  0  0  0
 55 53  1  0  0  0  0
 56 55  1  0  0  0  0
 58 59  1  1  0  0  0
 58 60  1  0  0  0  0
 58 57  1  0  0  0  0
 60 61  1  0  0  0  0
 62 63  1  0  0  0  0
 63 61  1  0  0  0  0
 63 64  1  0  0  0  0
M  END
>  <MODEL>
3

>  <REMARK>
 VINA RESULT:      -5.8      3.159     11.136
  Name = 
  21 active torsions:
  status: ('A' for Active; 'I' for Inactive)
    1  A    between atoms: C_2  and  O_14
    2  A    between atoms: C_5  and  C_44
    3  A    between atoms: C_5  and  C_51
    4  A    between atoms: C_6  and  C_39
    5  A    between atoms: C_6  and  C_51
    6  A    between atoms: C_7  and  O_11
    7  A    between atoms: C_9  and  C_37
    8  A    between atoms: C_9  and  C_54
    9  A    between atoms: C_10  and  C_26
   10  A    between atoms: O_11  and  C_21
   11  A    between atoms: O_14  and  C_38
   12  A    between atoms: O_16  and  C_61
   13  A    between atoms: C_21  and  C_38
   14  A    between atoms: C_21  and  C_47
   15  A    between atoms: C_23  and  C_35
   16  A    between atoms: C_26  and  C_33
   17  A    between atoms: N_32  and  C_35
   18  A    between atoms: C_38  and  C_55
   19  A    between atoms: C_42  and  C_44
   20  A    between atoms: C_52  and  C_55
   21  A    between atoms: C_54  and  C_61
                            x       y       z     vdW  Elec       q    Type
                         _______ _______ _______ _____ _____    ______ ____

>  <TORSDO>
F 21

$$$$
=
 OpenBabel11062417463D

 64 72  0  0  1  0  0  0  0  0999 V2000
  185.3050  177.9920  138.4350 C   0  0  1  0  0  3  0  0  0  0  0  0
  184.1820  177.2480  140.6770 O   0  0  0  0  0  0  0  0  0  0  0  0
  183.5980  178.1860  141.5520 C   0  0  1  0  0  3  0  0  0  0  0  0
  182.5670  175.9220  139.5510 C   0  0  0  0  0  1  0  0  0  0  0  0
  185.4540  177.2780  136.0670 F   0  0  0  0  0  0  0  0  0  0  0  0
  186.0280  177.9880  137.1060 C   0  0  0  0  0  0  0  0  0  0  0  0
  182.3800  178.3670  139.5620 C   0  0  2  0  0  3  0  0  0  0  0  0
  184.6450  178.9490  142.3550 C   0  0  0  0  0  2  0  0  0  0  0  0
  182.8140  179.1800  140.7350 C   0  0  0  0  0  2  0  0  0  0  0  0
  185.7910  178.0730  142.8740 C   0  0  1  0  0  3  0  0  0  0  0  0
  188.1220  178.4040  139.8220 C   0  0  0  0  0  3  0  0  0  0  0  0
  184.1500  177.1820  138.3270 O   0  0  0  0  0  0  0  0  0  0  0  0
  186.7080  179.1620  136.8070 F   0  0  0  0  0  0  0  0  0  0  0  0
  183.3750  177.2060  139.5160 C   0  0  1  0  0  0  0  0  0  0  0  0
  187.0940  178.8070  140.8240 C   0  0  0  0  0  2  0  0  0  0  0  0
  186.7810  177.6600  141.7770 C   0  0  0  0  0  2  0  0  0  0  0  0
  187.8790  177.6910  138.7140 C   0  0  0  0  0  3  0  0  0  0  0  0
  186.5590  177.1240  138.2390 C   0  0  1  0  0  3  0  0  0  0  0  0
  186.4960  178.7240  144.0630 C   0  0  0  0  0  2  0  0  0  0  0  0
  187.2500  179.5690  148.3170 O   0  0  0  0  0  0  0  0  0  0  0  0
  188.1170  177.2540  145.3820 C   0  0  2  0  0  3  0  0  0  0  0  0
  186.6730  177.7680  145.2470 C   0  0  1  0  0  3  0  0  0  0  0  0
  188.3470  176.1700  146.8600 S   0  0  0  0  0  0  0  0  0  0  0  0
  185.5070  179.5340  146.7410 O   0  0  0  0  0  0  0  0  0  0  0  0
  188.1440  178.4830  148.4650 C   0  0  0  0  0  2  0  0  0  0  0  0
  187.4210  177.1590  148.1160 C   0  0  1  0  0  0  0  0  0  0  0  0
  186.1100  177.4240  147.6610 O   0  0  0  0  0  0  0  0  0  0  0  0
  186.2160  178.3300  146.5870 C   0  0  1  0  0  0  0  0  0  0  0  0
  187.3270  176.3350  149.3820 C   0  0  0  0  0  1  0  0  0  0  0  0
  186.9090  179.6070  146.9500 C   0  0  2  0  0  3  0  0  0  0  0  0
  189.0360  178.3100  145.4200 O   0  0  0  0  0  0  0  0  0  0  0  0
  189.8260  178.1560  144.2750 C   0  0  1  0  0  3  0  0  0  0  0  0
  191.3590  180.1100  144.5360 O   0  0  0  0  0  1  0  0  0  0  0  0
  190.3270  179.4960  143.8420 C   0  0  0  0  0  0  0  0  0  0  0  0
  189.8530  180.0440  142.8150 O   0  0  0  0  0  0  0  0  0  0  0  0
  191.0130  177.2320  144.5730 C   0  0  1  0  0  3  0  0  0  0  0  0
  190.7920  176.4860  145.7640 O   0  0  0  0  0  0  0  0  0  0  0  0
  191.8300  176.1820  146.6430 C   0  0  0  0  0  0  0  0  0  0  0  0
  191.9980  176.8820  147.6740 O   0  0  0  0  0  1  0  0  0  0  0  0
  192.6920  175.1200  146.3850 O   0  0  0  0  0  0  0  0  0  0  0  0
  191.3080  176.2940  143.4000 C   0  0  0  0  0  2  0  0  0  0  0  0
  189.8870  175.9260  141.5420 O   0  0  0  0  0  0  0  0  0  0  0  0
  190.7550  176.8420  142.0930 C   0  0  0  0  0  3  0  0  0  0  0  0
  191.1330  176.0220  141.0560 O   0  0  0  0  0  0  0  0  0  0  0  0
  182.2970  179.2130  138.2990 C   0  0  0  0  0  2  0  0  0  0  0  0
  180.9590  179.0860  137.7230 N   0  0  0  0  0  0  0  0  0  0  0  0
  180.8440  180.2150  136.8050 C   0  0  2  0  0  0  0  0  0  0  0  0
  180.8890  178.7910  136.2790 C   0  0  2  0  0  0  0  0  0  0  0  0
  180.7290  179.8940  135.4570 O   0  0  0  0  0  0  0  0  0  0  0  0
  179.4890  180.8160  137.1350 C   0  0  0  0  0  2  0  0  0  0  0  0
  179.7180  181.8500  139.3710 C   0  0  0  0  0  1  0  0  0  0  0  0
  179.6480  182.1290  137.8840 C   0  0  1  0  0  3  0  0  0  0  0  0
  180.8840  182.8480  137.4530 C   0  0  0  0  0  0  0  0  0  0  0  0
  181.9350  182.7410  138.1460 O   0  0  0  0  0  0  0  0  0  0  0  0
  180.8780  183.6050  136.2790 O   0  0  0  0  0  0  0  0  0  0  0  0
  181.1300  185.0010  136.2880 C   0  0  0  0  0  1  0  0  0  0  0  0
  182.2050  178.1620  135.7960 C   0  0  0  0  0  2  0  0  0  0  0  0
  181.9670  176.8270  135.0980 C   0  0  1  0  0  3  0  0  0  0  0  0
  183.0590  175.9780  135.2920 O   0  0  0  0  0  1  0  0  0  0  0  0
  180.6960  176.1660  135.6070 C   0  0  0  0  0  2  0  0  0  0  0  0
  180.7980  174.6540  135.4720 C   0  0  0  0  0  2  0  0  0  0  0  0
  181.9310  173.6490  137.3130 F   0  0  0  0  0  0  0  0  0  0  0  0
  180.6770  173.9760  136.8270 C   0  0  0  0  0  3  0  0  0  0  0  0
  180.0210  174.7980  137.7270 F   0  0  0  0  0  0  0  0  0  0  0  0
  1 12  1  6  0  0  0
  2  3  1  0  0  0  0
  3  9  1  6  0  0  0
  3  8  1  0  0  0  0
  5  6  1  0  0  0  0
  6 18  1  0  0  0  0
  6  1  1  0  0  0  0
  7 45  1  6  0  0  0
  7  9  1  0  0  0  0
  8 10  1  0  0  0  0
 10 19  1  1  0  0  0
 11 15  1  0  0  0  0
 12 14  1  0  0  0  0
 13  6  1  0  0  0  0
 14  4  1  1  0  0  0
 14  7  1  0  0  0  0
 14  2  1  0  0  0  0
 15 16  1  0  0  0  0
 16 10  1  0  0  0  0
 17 11  2  0  0  0  0
 18  1  1  0  0  0  0
 18 17  1  1  0  0  0
 20 25  1  0  0  0  0
 21 31  1  1  0  0  0
 21 23  1  0  0  0  0
 22 19  1  6  0  0  0
 22 21  1  0  0  0  0
 22 28  1  0  0  0  0
 23 26  1  0  0  0  0
 26 25  1  0  0  0  0
 26 29  1  1  0  0  0
 27 26  1  0  0  0  0
 28 24  1  6  0  0  0
 28 30  1  0  0  0  0
 28 27  1  0  0  0  0
 30 24  1  1  0  0  0
 30 20  1  0  0  0  0
 32 34  1  1  0  0  0
 32 36  1  0  0  0  0
 32 31  1  0  0  0  0
 34 33  1  0  0  0  0
 35 34  2  0  0  0  0
 36 41  1  6  0  0  0
 36 37  1  0  0  0  0
 37 38  1  0  0  0  0
 38 39  1  0  0  0  0
 40 38  2  0  0  0  0
 42 43  1  0  0  0  0
 43 41  1  0  0  0  0
 44 42  1  0  0  0  0
 44 43  1  0  0  0  0
 46 45  1  0  0  0  0
 47 50  1  1  0  0  0
 47 46  1  0  0  0  0
 48 57  1  6  0  0  0
 48 47  1  0  0  0  0
 48 46  1  0  0  0  0
 49 48  1  0  0  0  0
 49 47  1  0  0  0  0
 50 52  1  0  0  0  0
 52 51  1  1  0  0  0
 53 52  1  0  0  0  0
 53 54  2  0  0  0  0
 55 56  1  0  0  0  0
 55 53  1  0  0  0  0
 58 59  1  1  0  0  0
 58 60  1  0  0  0  0
 58 57  1  0  0  0  0
 61 60  1  0  0  0  0
 61 63  1  0  0  0  0
 63 62  1  0  0  0  0
 63 64  1  0  0  0  0
M  END
>  <MODEL>
4

>  <REMARK>
 VINA RESULT:      -4.9      3.031     10.994
  Name = 
  21 active torsions:
  status: ('A' for Active; 'I' for Inactive)
    1  A    between atoms: C_2  and  O_14
    2  A    between atoms: C_5  and  C_44
    3  A    between atoms: C_5  and  C_51
    4  A    between atoms: C_6  and  C_39
    5  A    between atoms: C_6  and  C_51
    6  A    between atoms: C_7  and  O_11
    7  A    between atoms: C_9  and  C_37
    8  A    between atoms: C_9  and  C_54
    9  A    between atoms: C_10  and  C_26
   10  A    between atoms: O_11  and  C_21
   11  A    between atoms: O_14  and  C_38
   12  A    between atoms: O_16  and  C_61
   13  A    between atoms: C_21  and  C_38
   14  A    between atoms: C_21  and  C_47
   15  A    between atoms: C_23  and  C_35
   16  A    between atoms: C_26  and  C_33
   17  A    between atoms: N_32  and  C_35
   18  A    between atoms: C_38  and  C_55
   19  A    between atoms: C_42  and  C_44
   20  A    between atoms: C_52  and  C_55
   21  A    between atoms: C_54  and  C_61
                            x       y       z     vdW  Elec       q    Type
                         _______ _______ _______ _____ _____    ______ ____

>  <TORSDO>
F 21

$$$$
=
 OpenBabel11062417463D

 64 72  0  0  1  0  0  0  0  0999 V2000
  185.3230  177.9410  138.4220 C   0  0  1  0  0  3  0  0  0  0  0  0
  184.0880  177.1460  140.5860 O   0  0  0  0  0  0  0  0  0  0  0  0
  183.3800  178.0520  141.4010 C   0  0  1  0  0  3  0  0  0  0  0  0
  182.6510  175.7050  139.3640 C   0  0  0  0  0  1  0  0  0  0  0  0
  185.6950  177.2150  136.0820 F   0  0  0  0  0  0  0  0  0  0  0  0
  186.1430  177.9720  137.1490 C   0  0  0  0  0  0  0  0  0  0  0  0
  182.3050  178.1320  139.3250 C   0  0  2  0  0  3  0  0  0  0  0  0
  184.3120  178.8910  142.2680 C   0  0  0  0  0  2  0  0  0  0  0  0
  182.5960  178.9840  140.5140 C   0  0  0  0  0  2  0  0  0  0  0  0
  185.4710  178.0980  142.8820 C   0  0  1  0  0  3  0  0  0  0  0  0
  187.9970  178.5530  140.0050 C   0  0  0  0  0  3  0  0  0  0  0  0
  184.2350  177.0540  138.2410 O   0  0  0  0  0  0  0  0  0  0  0  0
  186.7640  179.1850  136.8840 F   0  0  0  0  0  0  0  0  0  0  0  0
  183.3750  177.0390  139.3690 C   0  0  1  0  0  0  0  0  0  0  0  0
  186.8730  178.8970  140.9230 C   0  0  0  0  0  2  0  0  0  0  0  0
  186.5650  177.7410  141.8670 C   0  0  0  0  0  2  0  0  0  0  0  0
  187.8840  177.8140  138.8930 C   0  0  0  0  0  3  0  0  0  0  0  0
  186.6430  177.1560  138.3310 C   0  0  1  0  0  3  0  0  0  0  0  0
  186.0430  178.8060  144.1100 C   0  0  0  0  0  2  0  0  0  0  0  0
  187.2560  179.6600  148.2550 O   0  0  0  0  0  0  0  0  0  0  0  0
  187.6940  177.2580  145.2940 C   0  0  2  0  0  3  0  0  0  0  0  0
  186.2770  177.8580  145.2900 C   0  0  1  0  0  3  0  0  0  0  0  0
  188.0030  176.1820  146.7640 S   0  0  0  0  0  0  0  0  0  0  0  0
  185.3690  179.7100  146.8550 O   0  0  0  0  0  0  0  0  0  0  0  0
  188.0940  178.5240  148.3370 C   0  0  0  0  0  2  0  0  0  0  0  0
  187.2640  177.2420  148.0850 C   0  0  1  0  0  0  0  0  0  0  0  0
  185.9320  177.5810  147.7530 O   0  0  0  0  0  0  0  0  0  0  0  0
  185.9870  178.4630  146.6570 C   0  0  1  0  0  0  0  0  0  0  0  0
  187.2450  176.4420  149.3690 C   0  0  0  0  0  1  0  0  0  0  0  0
  186.7860  179.7020  146.9260 C   0  0  2  0  0  3  0  0  0  0  0  0
  188.6740  178.2570  145.2240 O   0  0  0  0  0  0  0  0  0  0  0  0
  189.7620  177.6630  144.5750 C   0  0  1  0  0  3  0  0  0  0  0  0
  189.8220  178.0530  142.1090 O   0  0  0  0  0  0  0  0  0  0  0  0
  190.1350  178.4900  143.3870 C   0  0  0  0  0  0  0  0  0  0  0  0
  190.6820  179.6110  143.5470 O   0  0  0  0  0  1  0  0  0  0  0  0
  190.9570  177.5650  145.5310 C   0  0  1  0  0  3  0  0  0  0  0  0
  190.5510  177.0880  146.8080 O   0  0  0  0  0  0  0  0  0  0  0  0
  191.4750  176.6770  147.7670 C   0  0  0  0  0  0  0  0  0  0  0  0
  192.0910  177.5370  148.4470 O   0  0  0  0  0  1  0  0  0  0  0  0
  191.7340  175.3250  147.9700 O   0  0  0  0  0  0  0  0  0  0  0  0
  192.0690  176.6830  144.9580 C   0  0  0  0  0  2  0  0  0  0  0  0
  192.4510  174.3540  145.1480 O   0  0  0  0  0  0  0  0  0  0  0  0
  191.5660  175.2820  144.6450 C   0  0  0  0  0  3  0  0  0  0  0  0
  192.4750  174.6390  143.8390 O   0  0  0  0  0  0  0  0  0  0  0  0
  182.2600  178.9580  138.0460 C   0  0  0  0  0  2  0  0  0  0  0  0
  180.9250  178.8610  137.4580 N   0  0  0  0  0  0  0  0  0  0  0  0
  180.0790  178.3740  138.5430 C   0  0  2  0  0  0  0  0  0  0  0  0
  179.9020  179.7780  137.9940 C   0  0  2  0  0  0  0  0  0  0  0  0
  179.0930  179.2490  138.9850 O   0  0  0  0  0  0  0  0  0  0  0  0
  179.2830  177.2490  137.9060 C   0  0  0  0  0  2  0  0  0  0  0  0
  179.1960  174.9950  138.9260 C   0  0  0  0  0  1  0  0  0  0  0  0
  180.0120  175.9220  138.0490 C   0  0  1  0  0  3  0  0  0  0  0  0
  180.2310  175.2830  136.7170 C   0  0  0  0  0  0  0  0  0  0  0  0
  180.6830  175.9780  135.7650 O   0  0  0  0  0  0  0  0  0  0  0  0
  179.9640  173.9230  136.5430 O   0  0  0  0  0  0  0  0  0  0  0  0
  178.9330  173.4680  135.6800 C   0  0  0  0  0  1  0  0  0  0  0  0
  180.5670  180.9880  138.6700 C   0  0  0  0  0  2  0  0  0  0  0  0
  180.2690  182.2840  137.9230 C   0  0  1  0  0  3  0  0  0  0  0  0
  179.5370  183.1530  138.7340 O   0  0  0  0  0  1  0  0  0  0  0  0
  181.5540  182.9560  137.4650 C   0  0  0  0  0  2  0  0  0  0  0  0
  181.3900  184.4670  137.4750 C   0  0  0  0  0  2  0  0  0  0  0  0
  180.6550  183.9180  135.2750 F   0  0  0  0  0  0  0  0  0  0  0  0
  180.9590  184.9790  136.1090 C   0  0  0  0  0  3  0  0  0  0  0  0
  179.8650  185.8190  136.2250 F   0  0  0  0  0  0  0  0  0  0  0  0
  1 12  1  6  0  0  0
  2  3  1  0  0  0  0
  3  9  1  6  0  0  0
  3  8  1  0  0  0  0
  5  6  1  0  0  0  0
  6 18  1  0  0  0  0
  6  1  1  0  0  0  0
  7 45  1  6  0  0  0
  7 14  1  0  0  0  0
  7  9  1  0  0  0  0
  8 10  1  0  0  0  0
 10 19  1  1  0  0  0
 11 15  1  0  0  0  0
 12 14  1  0  0  0  0
 13  6  1  0  0  0  0
 14  4  1  1  0  0  0
 14  2  1  0  0  0  0
 15 16  1  0  0  0  0
 16 10  1  0  0  0  0
 17 11  2  0  0  0  0
 18  1  1  0  0  0  0
 18 17  1  1  0  0  0
 20 25  1  0  0  0  0
 21 31  1  1  0  0  0
 21 23  1  0  0  0  0
 22 19  1  6  0  0  0
 22 21  1  0  0  0  0
 22 28  1  0  0  0  0
 23 26  1  0  0  0  0
 26 25  1  0  0  0  0
 26 29  1  1  0  0  0
 27 26  1  0  0  0  0
 28 24  1  6  0  0  0
 28 30  1  0  0  0  0
 28 27  1  0  0  0  0
 30 24  1  1  0  0  0
 30 20  1  0  0  0  0
 32 34  1  6  0  0  0
 32 31  1  0  0  0  0
 32 36  1  0  0  0  0
 33 34  2  0  0  0  0
 34 35  1  0  0  0  0
 36 41  1  6  0  0  0
 36 37  1  0  0  0  0
 37 38  1  0  0  0  0
 38 40  2  0  0  0  0
 38 39  1  0  0  0  0
 43 41  1  0  0  0  0
 43 42  1  0  0  0  0
 44 43  1  0  0  0  0
 44 42  1  0  0  0  0
 46 48  1  0  0  0  0
 46 45  1  0  0  0  0
 46 47  1  0  0  0  0
 47 50  1  6  0  0  0
 47 49  1  0  0  0  0
 48 47  1  0  0  0  0
 48 57  1  1  0  0  0
 48 49  1  0  0  0  0
 50 52  1  0  0  0  0
 52 51  1  1  0  0  0
 53 52  1  0  0  0  0
 54 53  2  0  0  0  0
 55 53  1  0  0  0  0
 56 55  1  0  0  0  0
 58 57  1  0  0  0  0
 58 59  1  1  0  0  0
 60 61  1  0  0  0  0
 60 58  1  0  0  0  0
 62 63  1  0  0  0  0
 63 64  1  0  0  0  0
 63 61  1  0  0  0  0
M  END
>  <MODEL>
5

>  <REMARK>
 VINA RESULT:      -4.4      3.135     11.148
  Name = 
  21 active torsions:
  status: ('A' for Active; 'I' for Inactive)
    1  A    between atoms: C_2  and  O_14
    2  A    between atoms: C_5  and  C_44
    3  A    between atoms: C_5  and  C_51
    4  A    between atoms: C_6  and  C_39
    5  A    between atoms: C_6  and  C_51
    6  A    between atoms: C_7  and  O_11
    7  A    between atoms: C_9  and  C_37
    8  A    between atoms: C_9  and  C_54
    9  A    between atoms: C_10  and  C_26
   10  A    between atoms: O_11  and  C_21
   11  A    between atoms: O_14  and  C_38
   12  A    between atoms: O_16  and  C_61
   13  A    between atoms: C_21  and  C_38
   14  A    between atoms: C_21  and  C_47
   15  A    between atoms: C_23  and  C_35
   16  A    between atoms: C_26  and  C_33
   17  A    between atoms: N_32  and  C_35
   18  A    between atoms: C_38  and  C_55
   19  A    between atoms: C_42  and  C_44
   20  A    between atoms: C_52  and  C_55
   21  A    between atoms: C_54  and  C_61
                            x       y       z     vdW  Elec       q    Type
                         _______ _______ _______ _____ _____    ______ ____

>  <TORSDO>
F 21

$$$$
=
 OpenBabel11062417463D

 64 73  0  0  1  0  0  0  0  0999 V2000
  188.7470  177.4750  140.0180 C   0  0  1  0  0  3  0  0  0  0  0  0
  186.8010  179.0780  140.7140 O   0  0  0  0  0  0  0  0  0  0  0  0
  185.5870  178.5770  141.2270 C   0  0  1  0  0  3  0  0  0  0  0  0
  188.1250  180.1360  142.3760 C   0  0  0  0  0  1  0  0  0  0  0  0
  191.2140  177.3140  140.1840 F   0  0  0  0  0  0  0  0  0  0  0  0
  190.0670  176.9320  139.5130 C   0  0  0  0  0  0  0  0  0  0  0  0
  187.2230  177.8870  142.7510 C   0  0  2  0  0  0  0  0  0  0  0  0
  184.6950  178.0060  140.1310 C   0  0  0  0  0  2  0  0  0  0  0  0
  185.8980  177.4740  142.2040 C   0  0  0  0  0  2  0  0  0  0  0  0
  184.6620  178.8510  138.8520 C   0  0  1  0  0  3  0  0  0  0  0  0
  187.6500  177.2010  137.0600 C   0  0  0  0  0  3  0  0  0  0  0  0
  188.9990  178.3420  141.1080 O   0  0  0  0  0  0  0  0  0  0  0  0
  190.0070  175.6500  138.9830 F   0  0  0  0  0  0  0  0  0  0  0  0
  187.7960  178.8250  141.6860 C   0  0  1  0  0  0  0  0  0  0  0  0
  186.4550  177.3000  137.9470 C   0  0  0  0  0  2  0  0  0  0  0  0
  185.9430  178.7330  138.0160 C   0  0  0  0  0  2  0  0  0  0  0  0
  188.9020  177.5190  137.4160 C   0  0  0  0  0  3  0  0  0  0  0  0
  189.3870  178.0550  138.7450 C   0  0  1  0  0  3  0  0  0  0  0  0
  183.4110  178.5590  138.0230 C   0  0  0  0  0  2  0  0  0  0  0  0
  181.3810  175.8090  135.2500 O   0  0  0  0  0  0  0  0  0  0  0  0
  181.4370  177.1610  138.8410 C   0  0  2  0  0  3  0  0  0  0  0  0
  182.8580  177.1500  138.2530 C   0  0  1  0  0  3  0  0  0  0  0  0
  180.7390  175.4610  139.0370 S   0  0  0  0  0  0  0  0  0  0  0  0
  183.5280  176.5780  135.8170 O   0  0  0  0  0  0  0  0  0  0  0  0
  180.4690  175.3540  136.2300 C   0  0  0  0  0  2  0  0  0  0  0  0
  181.2430  174.7300  137.4170 C   0  0  1  0  0  0  0  0  0  0  0  0
  182.6340  174.8800  137.2240 O   0  0  0  0  0  0  0  0  0  0  0  0
  182.8830  176.2520  137.0230 C   0  0  1  0  0  0  0  0  0  0  0  0
  180.9230  173.2510  137.4520 C   0  0  0  0  0  1  0  0  0  0  0  0
  182.1330  176.8310  135.8630 C   0  0  2  0  0  3  0  0  0  0  0  0
  180.5690  177.9440  138.0690 O   0  0  0  0  0  0  0  0  0  0  0  0
  179.5970  178.4090  138.9620 C   0  0  1  0  0  3  0  0  0  0  0  0
  181.3140  179.0870  140.6440 O   0  0  0  0  0  0  0  0  0  0  0  0
  180.1550  178.3860  140.3480 C   0  0  0  0  0  0  0  0  0  0  0  0
  179.5440  177.7760  141.2630 O   0  0  0  0  0  1  0  0  0  0  0  0
  179.1850  179.8400  138.5950 C   0  0  1  0  0  3  0  0  0  0  0  0
  180.1560  180.7800  139.0390 O   0  0  0  0  0  0  0  0  0  0  0  0
  180.2340  182.0650  138.5030 C   0  0  0  0  0  0  0  0  0  0  0  0
  179.3760  182.9260  138.8230 O   0  0  0  0  0  1  0  0  0  0  0  0
  181.2440  182.3990  137.6060 O   0  0  0  0  0  0  0  0  0  0  0  0
  178.9400  179.9910  137.0920 C   0  0  0  0  0  2  0  0  0  0  0  0
  180.4850  179.8330  135.3050 O   0  0  0  0  0  0  0  0  0  0  0  0
  179.8620  179.0910  136.2830 C   0  0  0  0  0  3  0  0  0  0  0  0
  179.4400  179.0620  134.9750 O   0  0  0  0  0  0  0  0  0  0  0  0
  188.0830  176.6790  143.0970 C   0  0  0  0  0  2  0  0  0  0  0  0
  187.9710  176.4050  144.5290 N   0  0  1  0  0  0  0  0  0  0  0  0
  188.7710  177.4460  145.1670 C   0  0  2  0  0  0  0  0  0  0  0  0
  187.2630  177.4140  145.3390 C   0  0  2  0  0  0  0  0  0  0  0  0
  188.0740  178.3470  145.9640 O   0  0  0  0  0  0  0  0  0  0  0  0
  189.6240  176.6870  146.1680 C   0  0  0  0  0  2  0  0  0  0  0  0
  191.9470  176.0740  146.7620 C   0  0  0  0  0  1  0  0  0  0  0  0
  191.0830  177.0990  146.0580 C   0  0  1  0  0  3  0  0  0  0  0  0
  191.5050  177.2090  144.6280 C   0  0  0  0  0  0  0  0  0  0  0  0
  191.3240  176.2280  143.8540 O   0  0  0  0  0  0  0  0  0  0  0  0
  192.0650  178.3970  144.1550 O   0  0  0  0  0  0  0  0  0  0  0  0
  191.2920  179.5740  143.9860 C   0  0  0  0  0  1  0  0  0  0  0  0
  186.3420  178.2650  144.4510 C   0  0  2  0  0  3  0  0  0  0  0  0
  185.0030  178.5370  145.1280 C   0  0  1  0  0  3  0  0  0  0  0  0
  185.1080  178.3390  146.5060 O   0  0  0  0  0  1  0  0  0  0  0  0
  184.5250  179.9520  144.8400 C   0  0  0  0  0  2  0  0  0  0  0  0
  183.2950  179.9200  143.9450 C   0  0  0  0  0  2  0  0  0  0  0  0
  181.2260  178.8360  144.4180 F   0  0  0  0  0  0  0  0  0  0  0  0
  182.5490  178.6030  144.0900 C   0  0  0  0  0  3  0  0  0  0  0  0
  182.6260  177.8680  142.9200 F   0  0  0  0  0  0  0  0  0  0  0  0
  1 12  1  1  0  0  0
  2  3  1  0  0  0  0
  2 14  1  0  0  0  0
  3  8  1  6  0  0  0
  3  9  1  0  0  0  0
  6  1  1  0  0  0  0
  6  5  1  0  0  0  0
  7  9  1  6  0  0  0
  7 45  1  0  0  0  0
  7 57  1  0  0  0  0
 10 19  1  6  0  0  0
 10  8  1  0  0  0  0
 11 17  2  0  0  0  0
 11 15  1  0  0  0  0
 12 14  1  0  0  0  0
 13  6  1  0  0  0  0
 14  4  1  1  0  0  0
 14  7  1  0  0  0  0
 15 16  1  0  0  0  0
 16 10  1  0  0  0  0
 18 17  1  6  0  0  0
 18  6  1  0  0  0  0
 18  1  1  0  0  0  0
 20 25  1  0  0  0  0
 21 31  1  6  0  0  0
 21 23  1  0  0  0  0
 22 19  1  6  0  0  0
 22 21  1  0  0  0  0
 24 30  1  0  0  0  0
 25 26  1  0  0  0  0
 26 29  1  1  0  0  0
 26 23  1  0  0  0  0
 27 26  1  0  0  0  0
 28 24  1  6  0  0  0
 28 27  1  0  0  0  0
 28 22  1  0  0  0  0
 30 20  1  6  0  0  0
 30 28  1  0  0  0  0
 32 31  1  6  0  0  0
 32 34  1  0  0  0  0
 34 33  2  0  0  0  0
 34 35  1  0  0  0  0
 36 41  1  6  0  0  0
 36 32  1  0  0  0  0
 36 37  1  0  0  0  0
 38 39  1  0  0  0  0
 38 37  1  0  0  0  0
 40 38  2  0  0  0  0
 42 43  1  0  0  0  0
 43 41  1  0  0  0  0
 44 42  1  0  0  0  0
 44 43  1  0  0  0  0
 46 45  1  6  0  0  0
 46 47  1  0  0  0  0
 46 48  1  0  0  0  0
 47 48  1  0  0  0  0
 47 49  1  0  0  0  0
 47 50  1  1  0  0  0
 48 49  1  1  0  0  0
 52 50  1  0  0  0  0
 52 51  1  1  0  0  0
 53 52  1  0  0  0  0
 54 53  2  0  0  0  0
 55 53  1  0  0  0  0
 56 55  1  0  0  0  0
 57 58  1  6  0  0  0
 57 48  1  0  0  0  0
 58 59  1  1  0  0  0
 60 58  1  0  0  0  0
 61 63  1  0  0  0  0
 61 60  1  0  0  0  0
 63 62  1  0  0  0  0
 64 63  1  0  0  0  0
M  END
>  <MODEL>
6

>  <REMARK>
 VINA RESULT:      -4.2      1.559      2.091
  Name = 
  21 active torsions:
  status: ('A' for Active; 'I' for Inactive)
    1  A    between atoms: C_2  and  O_14
    2  A    between atoms: C_5  and  C_44
    3  A    between atoms: C_5  and  C_51
    4  A    between atoms: C_6  and  C_39
    5  A    between atoms: C_6  and  C_51
    6  A    between atoms: C_7  and  O_11
    7  A    between atoms: C_9  and  C_37
    8  A    between atoms: C_9  and  C_54
    9  A    between atoms: C_10  and  C_26
   10  A    between atoms: O_11  and  C_21
   11  A    between atoms: O_14  and  C_38
   12  A    between atoms: O_16  and  C_61
   13  A    between atoms: C_21  and  C_38
   14  A    between atoms: C_21  and  C_47
   15  A    between atoms: C_23  and  C_35
   16  A    between atoms: C_26  and  C_33
   17  A    between atoms: N_32  and  C_35
   18  A    between atoms: C_38  and  C_55
   19  A    between atoms: C_42  and  C_44
   20  A    between atoms: C_52  and  C_55
   21  A    between atoms: C_54  and  C_61
                            x       y       z     vdW  Elec       q    Type
                         _______ _______ _______ _____ _____    ______ ____

>  <TORSDO>
F 21

$$$$
=
 OpenBabel11062417463D

 64 72  0  0  1  0  0  0  0  0999 V2000
  188.5540  177.4210  139.7010 C   0  0  1  0  0  3  0  0  0  0  0  0
  186.9600  179.0500  140.9850 O   0  0  0  0  0  0  0  0  0  0  0  0
  185.9890  178.5670  141.8850 C   0  0  1  0  0  3  0  0  0  0  0  0
  188.7690  180.1230  142.0840 C   0  0  0  0  0  1  0  0  0  0  0  0
  190.9320  177.2430  139.0280 F   0  0  0  0  0  0  0  0  0  0  0  0
  189.6250  176.8600  138.7900 C   0  0  0  0  0  0  0  0  0  0  0  0
  188.0410  177.8870  142.7800 C   0  0  2  0  0  3  0  0  0  0  0  0
  184.7780  177.9860  141.1640 C   0  0  0  0  0  2  0  0  0  0  0  0
  186.6090  177.4760  142.7200 C   0  0  0  0  0  2  0  0  0  0  0  0
  184.3180  178.8110  139.9570 C   0  0  1  0  0  3  0  0  0  0  0  0
  186.5220  177.1100  137.2910 C   0  0  0  0  0  3  0  0  0  0  0  0
  189.1600  178.3030  140.6270 O   0  0  0  0  0  0  0  0  0  0  0  0
  189.3870  175.5700  138.3330 F   0  0  0  0  0  0  0  0  0  0  0  0
  188.2240  178.8040  141.5690 C   0  0  1  0  0  0  0  0  0  0  0  0
  185.6970  177.2330  138.5280 C   0  0  0  0  0  2  0  0  0  0  0  0
  185.2420  178.6710  138.7400 C   0  0  0  0  0  2  0  0  0  0  0  0
  187.8220  177.4240  137.1990 C   0  0  0  0  0  3  0  0  0  0  0  0
  188.7280  177.9760  138.2770 C   0  0  1  0  0  3  0  0  0  0  0  0
  182.8600  178.5170  139.6030 C   0  0  0  0  0  2  0  0  0  0  0  0
  179.1270  180.8360  139.3620 O   0  0  0  0  0  0  0  0  0  0  0  0
  181.5770  178.6310  137.3980 C   0  0  2  0  0  3  0  0  0  0  0  0
  182.3240  179.4180  138.4880 C   0  0  1  0  0  3  0  0  0  0  0  0
  180.8580  179.7290  136.0980 S   0  0  0  0  0  0  0  0  0  0  0  0
  181.2720  180.9190  140.3170 O   0  0  0  0  0  0  0  0  0  0  0  0
  178.9310  180.5450  137.9920 C   0  0  0  0  0  2  0  0  0  0  0  0
  180.1420  181.0520  137.1710 C   0  0  1  0  0  0  0  0  0  0  0  0
  181.1330  181.5720  138.0340 O   0  0  0  0  0  0  0  0  0  0  0  0
  181.4440  180.5640  138.9680 C   0  0  1  0  0  0  0  0  0  0  0  0
  179.6580  182.1700  136.2730 C   0  0  0  0  0  1  0  0  0  0  0  0
  180.2600  180.0970  139.7580 C   0  0  2  0  0  3  0  0  0  0  0  0
  180.5720  177.8240  137.9460 O   0  0  0  0  0  0  0  0  0  0  0  0
  180.5540  176.6670  137.1590 C   0  0  1  0  0  3  0  0  0  0  0  0
  182.4010  175.4570  138.3240 O   0  0  0  0  0  1  0  0  0  0  0  0
  181.9140  176.0480  137.1680 C   0  0  0  0  0  0  0  0  0  0  0  0
  182.5970  176.0110  136.1120 O   0  0  0  0  0  0  0  0  0  0  0  0
  179.5280  175.6690  137.7090 C   0  0  1  0  0  3  0  0  0  0  0  0
  180.0870  174.3650  137.8080 O   0  0  0  0  0  0  0  0  0  0  0  0
  179.7750  173.3610  136.8920 C   0  0  0  0  0  0  0  0  0  0  0  0
  180.0550  173.5170  135.6770 O   0  0  0  0  0  0  0  0  0  0  0  0
  179.1420  172.1930  137.3080 O   0  0  0  0  0  1  0  0  0  0  0  0
  178.9710  176.1180  139.0620 C   0  0  0  0  0  2  0  0  0  0  0  0
  179.1570  174.4500  140.7330 O   0  0  0  0  0  0  0  0  0  0  0  0
  179.7890  175.5590  140.2160 C   0  0  0  0  0  3  0  0  0  0  0  0
  179.0510  175.6220  141.3740 O   0  0  0  0  0  0  0  0  0  0  0  0
  188.9650  176.6790  142.8370 C   0  0  0  0  0  2  0  0  0  0  0  0
  189.4290  176.4920  144.2110 N   0  0  0  0  0  0  0  0  0  0  0  0
  190.1330  177.7300  144.5330 C   0  0  2  0  0  0  0  0  0  0  0  0
  188.8330  177.3750  145.2320 C   0  0  2  0  0  0  0  0  0  0  0  0
  189.5670  178.5090  145.5370 O   0  0  0  0  0  0  0  0  0  0  0  0
  191.4350  177.2560  145.1550 C   0  0  0  0  0  2  0  0  0  0  0  0
  192.3570  174.9630  145.0250 C   0  0  0  0  0  1  0  0  0  0  0  0
  191.3010  175.8340  145.6730 C   0  0  1  0  0  3  0  0  0  0  0  0
  191.4590  175.7850  147.1580 C   0  0  0  0  0  0  0  0  0  0  0  0
  190.8770  174.8760  147.8130 O   0  0  0  0  0  0  0  0  0  0  0  0
  192.2680  176.7230  147.8050 O   0  0  0  0  0  0  0  0  0  0  0  0
  193.2030  176.3440  148.8020 C   0  0  0  0  0  1  0  0  0  0  0  0
  187.4870  177.9310  144.7410 C   0  0  0  0  0  2  0  0  0  0  0  0
  186.4620  177.9990  145.8680 C   0  0  1  0  0  3  0  0  0  0  0  0
  186.3710  179.3030  146.3610 O   0  0  0  0  0  1  0  0  0  0  0  0
  185.0970  177.5260  145.3930 C   0  0  0  0  0  2  0  0  0  0  0  0
  184.0420  178.5810  145.6860 C   0  0  0  0  0  2  0  0  0  0  0  0
  182.3480  178.7790  144.0220 F   0  0  0  0  0  0  0  0  0  0  0  0
  183.5840  179.2640  144.4080 C   0  0  0  0  0  3  0  0  0  0  0  0
  183.5220  180.6360  144.5830 F   0  0  0  0  0  0  0  0  0  0  0  0
  1 12  1  1  0  0  0
  2 14  1  0  0  0  0
  2  3  1  0  0  0  0
  3  8  1  6  0  0  0
  3  9  1  0  0  0  0
  6  5  1  0  0  0  0
  6  1  1  0  0  0  0
  7 45  1  6  0  0  0
  9  7  1  0  0  0  0
 10 19  1  6  0  0  0
 10  8  1  0  0  0  0
 11 15  1  0  0  0  0
 12 14  1  0  0  0  0
 13  6  1  0  0  0  0
 14  4  1  1  0  0  0
 14  7  1  0  0  0  0
 15 16  1  0  0  0  0
 16 10  1  0  0  0  0
 17 11  2  0  0  0  0
 18 17  1  6  0  0  0
 18  6  1  0  0  0  0
 18  1  1  0  0  0  0
 21 31  1  1  0  0  0
 21 22  1  0  0  0  0
 22 28  1  0  0  0  0
 22 19  1  1  0  0  0
 23 26  1  0  0  0  0
 23 21  1  0  0  0  0
 25 20  1  0  0  0  0
 26 29  1  6  0  0  0
 26 25  1  0  0  0  0
 26 27  1  0  0  0  0
 28 27  1  6  0  0  0
 28 30  1  0  0  0  0
 28 24  1  0  0  0  0
 30 20  1  6  0  0  0
 30 24  1  0  0  0  0
 32 34  1  1  0  0  0
 32 36  1  0  0  0  0
 32 31  1  0  0  0  0
 34 33  1  0  0  0  0
 35 34  2  0  0  0  0
 36 37  1  0  0  0  0
 36 41  1  1  0  0  0
 38 40  1  0  0  0  0
 38 37  1  0  0  0  0
 39 38  2  0  0  0  0
 41 43  1  0  0  0  0
 42 44  1  0  0  0  0
 43 42  1  0  0  0  0
 43 44  1  0  0  0  0
 45 46  1  0  0  0  0
 46 47  1  0  0  0  0
 46 48  1  0  0  0  0
 47 50  1  1  0  0  0
 47 48  1  0  0  0  0
 47 49  1  0  0  0  0
 48 57  1  6  0  0  0
 48 49  1  0  0  0  0
 50 52  1  0  0  0  0
 52 51  1  6  0  0  0
 52 53  1  0  0  0  0
 53 55  1  0  0  0  0
 53 54  2  0  0  0  0
 55 56  1  0  0  0  0
 57 58  1  0  0  0  0
 58 59  1  6  0  0  0
 60 61  1  0  0  0  0
 60 58  1  0  0  0  0
 62 63  1  0  0  0  0
 63 64  1  0  0  0  0
 63 61  1  0  0  0  0
M  END
>  <MODEL>
7

>  <REMARK>
 VINA RESULT:      -4.1      1.498      4.158
  Name = 
  21 active torsions:
  status: ('A' for Active; 'I' for Inactive)
    1  A    between atoms: C_2  and  O_14
    2  A    between atoms: C_5  and  C_44
    3  A    between atoms: C_5  and  C_51
    4  A    between atoms: C_6  and  C_39
    5  A    between atoms: C_6  and  C_51
    6  A    between atoms: C_7  and  O_11
    7  A    between atoms: C_9  and  C_37
    8  A    between atoms: C_9  and  C_54
    9  A    between atoms: C_10  and  C_26
   10  A    between atoms: O_11  and  C_21
   11  A    between atoms: O_14  and  C_38
   12  A    between atoms: O_16  and  C_61
   13  A    between atoms: C_21  and  C_38
   14  A    between atoms: C_21  and  C_47
   15  A    between atoms: C_23  and  C_35
   16  A    between atoms: C_26  and  C_33
   17  A    between atoms: N_32  and  C_35
   18  A    between atoms: C_38  and  C_55
   19  A    between atoms: C_42  and  C_44
   20  A    between atoms: C_52  and  C_55
   21  A    between atoms: C_54  and  C_61
                            x       y       z     vdW  Elec       q    Type
                         _______ _______ _______ _____ _____    ______ ____

>  <TORSDO>
F 21

$$$$
=
 OpenBabel11062417463D

 64 72  0  0  1  0  0  0  0  0999 V2000
  188.6850  177.5630  139.8690 C   0  0  1  0  0  3  0  0  0  0  0  0
  186.7210  179.0760  140.7030 O   0  0  0  0  0  0  0  0  0  0  0  0
  185.6080  178.5290  141.3720 C   0  0  1  0  0  3  0  0  0  0  0  0
  188.1430  180.3040  142.1530 C   0  0  0  0  0  1  0  0  0  0  0  0
  191.1600  177.5650  139.7640 F   0  0  0  0  0  0  0  0  0  0  0  0
  189.9750  177.0760  139.2450 C   0  0  0  0  0  0  0  0  0  0  0  0
  187.4430  178.0270  142.7340 C   0  0  2  0  0  3  0  0  0  0  0  0
  184.6420  177.8450  140.4120 C   0  0  0  0  0  2  0  0  0  0  0  0
  186.0980  177.5020  142.3600 C   0  0  0  0  0  2  0  0  0  0  0  0
  184.4120  178.6140  139.1070 C   0  0  1  0  0  3  0  0  0  0  0  0
  187.2920  177.0600  137.0700 C   0  0  0  0  0  3  0  0  0  0  0  0
  188.9940  178.5020  140.8810 O   0  0  0  0  0  0  0  0  0  0  0  0
  189.9450  175.7660  138.7860 F   0  0  0  0  0  0  0  0  0  0  0  0
  187.8320  178.9390  141.5680 C   0  0  1  0  0  0  0  0  0  0  0  0
  186.1970  177.1320  138.0800 C   0  0  0  0  0  2  0  0  0  0  0  0
  185.5990  178.5320  138.1380 C   0  0  0  0  0  2  0  0  0  0  0  0
  188.5500  177.4740  137.2670 C   0  0  0  0  0  3  0  0  0  0  0  0
  189.1400  178.1110  138.5060 C   0  0  1  0  0  3  0  0  0  0  0  0
  183.1010  178.2010  138.4380 C   0  0  0  0  0  2  0  0  0  0  0  0
  179.6420  180.8370  139.1130 O   0  0  0  0  0  0  0  0  0  0  0  0
  181.5310  178.7550  136.5010 C   0  0  2  0  0  3  0  0  0  0  0  0
  182.5080  179.3030  137.5560 C   0  0  1  0  0  3  0  0  0  0  0  0
  180.7520  180.0950  135.4950 S   0  0  0  0  0  0  0  0  0  0  0  0
  181.8990  180.5930  139.7170 O   0  0  0  0  0  0  0  0  0  0  0  0
  179.2190  180.7750  137.7650 C   0  0  0  0  0  2  0  0  0  0  0  0
  180.3450  181.2950  136.8390 C   0  0  1  0  0  0  0  0  0  0  0  0
  181.5000  181.5930  137.5960 O   0  0  0  0  0  0  0  0  0  0  0  0
  181.8340  180.4330  138.3220 C   0  0  1  0  0  0  0  0  0  0  0  0
  179.8580  182.5730  136.1910 C   0  0  0  0  0  1  0  0  0  0  0  0
  180.7350  179.9540  139.2190 C   0  0  2  0  0  3  0  0  0  0  0  0
  180.5360  177.9630  137.0870 O   0  0  0  0  0  0  0  0  0  0  0  0
  181.1480  176.7310  137.3480 C   0  0  1  0  0  3  0  0  0  0  0  0
  180.6090  174.7770  138.8050 O   0  0  0  0  0  1  0  0  0  0  0  0
  180.1640  175.8280  138.0180 C   0  0  0  0  0  0  0  0  0  0  0  0
  178.9310  176.0520  137.9150 O   0  0  0  0  0  0  0  0  0  0  0  0
  181.6270  176.0930  136.0380 C   0  0  1  0  0  3  0  0  0  0  0  0
  182.9050  175.4890  136.2030 O   0  0  0  0  0  0  0  0  0  0  0  0
  183.9350  175.6870  135.2850 C   0  0  0  0  0  0  0  0  0  0  0  0
  184.3610  176.8500  135.0680 O   0  0  0  0  0  1  0  0  0  0  0  0
  184.4870  174.6120  134.5950 O   0  0  0  0  0  0  0  0  0  0  0  0
  180.6190  175.0740  135.5030 C   0  0  0  0  0  2  0  0  0  0  0  0
  180.3710  172.7210  135.4300 O   0  0  0  0  0  0  0  0  0  0  0  0
  181.2770  173.7350  135.2120 C   0  0  0  0  0  3  0  0  0  0  0  0
  181.3010  172.9780  136.3600 O   0  0  0  0  0  0  0  0  0  0  0  0
  188.4160  176.8960  143.0370 C   0  0  0  0  0  2  0  0  0  0  0  0
  188.3360  176.5630  144.4590 N   0  0  0  0  0  0  0  0  0  0  0  0
  188.9110  177.7180  145.1410 C   0  0  2  0  0  0  0  0  0  0  0  0
  187.4340  177.3930  145.2800 C   0  0  2  0  0  0  0  0  0  0  0  0
  188.0410  178.4450  145.9460 O   0  0  0  0  0  0  0  0  0  0  0  0
  189.8780  177.1060  146.1400 C   0  0  0  0  0  2  0  0  0  0  0  0
  191.7760  177.6950  144.6660 C   0  0  0  0  0  1  0  0  0  0  0  0
  191.1150  176.5720  145.4380 C   0  0  1  0  0  3  0  0  0  0  0  0
  192.0870  176.0030  146.4190 C   0  0  0  0  0  0  0  0  0  0  0  0
  192.6480  174.9010  146.1650 O   0  0  0  0  0  0  0  0  0  0  0  0
  192.3880  176.7030  147.5900 O   0  0  0  0  0  0  0  0  0  0  0  0
  192.9570  176.0620  148.7200 C   0  0  0  0  0  1  0  0  0  0  0  0
  186.3810  178.0780  144.3950 C   0  0  0  0  0  2  0  0  0  0  0  0
  185.0800  178.3170  145.1520 C   0  0  1  0  0  3  0  0  0  0  0  0
  185.3150  178.3220  146.5290 O   0  0  0  0  0  1  0  0  0  0  0  0
  184.4360  179.6280  144.7290 C   0  0  0  0  0  2  0  0  0  0  0  0
  182.9220  179.4910  144.7140 C   0  0  0  0  0  2  0  0  0  0  0  0
  182.9350  177.8480  142.9860 F   0  0  0  0  0  0  0  0  0  0  0  0
  182.4250  179.0850  143.3350 C   0  0  0  0  0  3  0  0  0  0  0  0
  181.0410  179.0520  143.3060 F   0  0  0  0  0  0  0  0  0  0  0  0
  1 12  1  1  0  0  0
  2  3  1  0  0  0  0
  2 14  1  0  0  0  0
  3  8  1  6  0  0  0
  3  9  1  0  0  0  0
  6  5  1  0  0  0  0
  6  1  1  0  0  0  0
  7 45  1  6  0  0  0
  9  7  1  0  0  0  0
 10 19  1  6  0  0  0
 10  8  1  0  0  0  0
 11 17  2  0  0  0  0
 11 15  1  0  0  0  0
 12 14  1  0  0  0  0
 13  6  1  0  0  0  0
 14  4  1  1  0  0  0
 14  7  1  0  0  0  0
 15 16  1  0  0  0  0
 16 10  1  0  0  0  0
 18 17  1  6  0  0  0
 18  6  1  0  0  0  0
 18  1  1  0  0  0  0
 21 31  1  1  0  0  0
 21 22  1  0  0  0  0
 22 28  1  0  0  0  0
 22 19  1  1  0  0  0
 23 21  1  0  0  0  0
 23 26  1  0  0  0  0
 25 20  1  0  0  0  0
 26 29  1  6  0  0  0
 26 27  1  0  0  0  0
 26 25  1  0  0  0  0
 28 27  1  6  0  0  0
 28 30  1  0  0  0  0
 28 24  1  0  0  0  0
 30 20  1  6  0  0  0
 30 24  1  0  0  0  0
 32 31  1  6  0  0  0
 32 34  1  0  0  0  0
 34 33  1  0  0  0  0
 35 34  2  0  0  0  0
 36 41  1  1  0  0  0
 36 37  1  0  0  0  0
 36 32  1  0  0  0  0
 38 37  1  0  0  0  0
 39 38  1  0  0  0  0
 40 38  2  0  0  0  0
 42 44  1  0  0  0  0
 43 42  1  0  0  0  0
 43 41  1  0  0  0  0
 43 44  1  0  0  0  0
 45 46  1  0  0  0  0
 46 47  1  0  0  0  0
 46 48  1  0  0  0  0
 47 48  1  0  0  0  0
 47 49  1  0  0  0  0
 47 50  1  1  0  0  0
 48 57  1  6  0  0  0
 48 49  1  0  0  0  0
 52 51  1  1  0  0  0
 52 50  1  0  0  0  0
 52 53  1  0  0  0  0
 53 55  1  0  0  0  0
 54 53  2  0  0  0  0
 55 56  1  0  0  0  0
 57 58  1  0  0  0  0
 58 59  1  1  0  0  0
 60 58  1  0  0  0  0
 61 60  1  0  0  0  0
 62 63  1  0  0  0  0
 63 61  1  0  0  0  0
 64 63  1  0  0  0  0
M  END
>  <MODEL>
8

>  <REMARK>
 VINA RESULT:      -3.9      1.693      3.951
  Name = 
  21 active torsions:
  status: ('A' for Active; 'I' for Inactive)
    1  A    between atoms: C_2  and  O_14
    2  A    between atoms: C_5  and  C_44
    3  A    between atoms: C_5  and  C_51
    4  A    between atoms: C_6  and  C_39
    5  A    between atoms: C_6  and  C_51
    6  A    between atoms: C_7  and  O_11
    7  A    between atoms: C_9  and  C_37
    8  A    between atoms: C_9  and  C_54
    9  A    between atoms: C_10  and  C_26
   10  A    between atoms: O_11  and  C_21
   11  A    between atoms: O_14  and  C_38
   12  A    between atoms: O_16  and  C_61
   13  A    between atoms: C_21  and  C_38
   14  A    between atoms: C_21  and  C_47
   15  A    between atoms: C_23  and  C_35
   16  A    between atoms: C_26  and  C_33
   17  A    between atoms: N_32  and  C_35
   18  A    between atoms: C_38  and  C_55
   19  A    between atoms: C_42  and  C_44
   20  A    between atoms: C_52  and  C_55
   21  A    between atoms: C_54  and  C_61
                            x       y       z     vdW  Elec       q    Type
                         _______ _______ _______ _____ _____    ______ ____

>  <TORSDO>
F 21

$$$$
=
 OpenBabel11062417463D

 64 73  0  0  1  0  0  0  0  0999 V2000
  188.0680  177.7710  139.8530 C   0  0  1  0  0  3  0  0  0  0  0  0
  186.0760  179.2330  140.7090 O   0  0  0  0  0  0  0  0  0  0  0  0
  184.9450  178.6490  141.3150 C   0  0  1  0  0  3  0  0  0  0  0  0
  187.4500  180.3840  142.2650 C   0  0  0  0  0  1  0  0  0  0  0  0
  190.5460  177.7840  139.8220 F   0  0  0  0  0  0  0  0  0  0  0  0
  189.3780  177.3220  139.2420 C   0  0  0  0  0  0  0  0  0  0  0  0
  186.7410  178.0780  142.7010 C   0  0  2  0  0  0  0  0  0  0  0  0
  184.0100  178.0150  140.2910 C   0  0  0  0  0  2  0  0  0  0  0  0
  185.4090  177.5720  142.2600 C   0  0  0  0  0  2  0  0  0  0  0  0
  183.8160  178.8540  139.0230 C   0  0  1  0  0  3  0  0  0  0  0  0
  186.7600  177.4160  136.9910 C   0  0  0  0  0  3  0  0  0  0  0  0
  188.3440  178.6550  140.9230 O   0  0  0  0  0  0  0  0  0  0  0  0
  189.3670  176.0370  138.7130 F   0  0  0  0  0  0  0  0  0  0  0  0
  187.1610  179.0530  141.5980 C   0  0  1  0  0  0  0  0  0  0  0  0
  185.6360  177.4320  137.9710 C   0  0  0  0  0  2  0  0  0  0  0  0
  185.0320  178.8260  138.0870 C   0  0  0  0  0  2  0  0  0  0  0  0
  188.0110  177.8220  137.2480 C   0  0  0  0  0  3  0  0  0  0  0  0
  188.5620  178.3930  138.5360 C   0  0  1  0  0  3  0  0  0  0  0  0
  182.5270  178.4740  138.2940 C   0  0  0  0  0  2  0  0  0  0  0  0
  179.5680  181.5390  139.4010 O   0  0  0  0  0  0  0  0  0  0  0  0
  180.7520  179.1930  136.6040 C   0  0  2  0  0  3  0  0  0  0  0  0
  181.9430  179.6290  137.4750 C   0  0  1  0  0  3  0  0  0  0  0  0
  179.9950  180.6050  135.6830 S   0  0  0  0  0  0  0  0  0  0  0  0
  181.8450  181.0190  139.6580 O   0  0  0  0  0  0  0  0  0  0  0  0
  178.9340  181.5090  138.1370 C   0  0  0  0  0  2  0  0  0  0  0  0
  179.9550  181.8680  137.0300 C   0  0  1  0  0  0  0  0  0  0  0  0
  181.2430  182.0290  137.5890 O   0  0  0  0  0  0  0  0  0  0  0  0
  181.5420  180.8470  138.2960 C   0  0  1  0  0  0  0  0  0  0  0  0
  179.5330  183.1870  136.4210 C   0  0  0  0  0  1  0  0  0  0  0  0
  180.5470  180.5250  139.3680 C   0  0  2  0  0  3  0  0  0  0  0  0
  179.7710  178.5420  137.3640 O   0  0  0  0  0  0  0  0  0  0  0  0
  179.7380  177.2300  136.8800 C   0  0  1  0  0  3  0  0  0  0  0  0
  181.2270  177.4870  134.8930 O   0  0  0  0  0  1  0  0  0  0  0  0
  179.9600  177.2470  135.4030 C   0  0  0  0  0  0  0  0  0  0  0  0
  179.0100  176.9890  134.6200 O   0  0  0  0  0  0  0  0  0  0  0  0
  180.8280  176.3900  137.5570 C   0  0  1  0  0  3  0  0  0  0  0  0
  180.2740  175.5500  138.5630 O   0  0  0  0  0  0  0  0  0  0  0  0
  179.8030  176.0640  139.7710 C   0  0  0  0  0  0  0  0  0  0  0  0
  180.1580  175.5330  140.8540 O   0  0  0  0  0  1  0  0  0  0  0  0
  178.9320  177.1490  139.7900 O   0  0  0  0  0  0  0  0  0  0  0  0
  181.6150  175.5600  136.5410 C   0  0  0  0  0  2  0  0  0  0  0  0
  182.1540  173.3330  135.9430 O   0  0  0  0  0  0  0  0  0  0  0  0
  181.7990  174.1250  137.0120 C   0  0  0  0  0  3  0  0  0  0  0  0
  180.8860  173.3150  136.3780 O   0  0  0  0  0  0  0  0  0  0  0  0
  187.7090  176.9340  142.9720 C   0  0  0  0  0  2  0  0  0  0  0  0
  187.6490  176.5810  144.3900 N   0  0  1  0  0  0  0  0  0  0  0  0
  188.4890  177.5730  145.0530 C   0  0  2  0  0  0  0  0  0  0  0  0
  186.9880  177.5510  145.2830 C   0  0  2  0  0  0  0  0  0  0  0  0
  187.8380  178.4360  145.9270 O   0  0  0  0  0  0  0  0  0  0  0  0
  189.3680  176.7470  145.9750 C   0  0  0  0  0  2  0  0  0  0  0  0
  191.7070  176.2130  146.5820 C   0  0  0  0  0  1  0  0  0  0  0  0
  190.8030  177.2480  145.9470 C   0  0  1  0  0  3  0  0  0  0  0  0
  191.2530  177.5110  144.5470 C   0  0  0  0  0  0  0  0  0  0  0  0
  191.3180  178.7020  144.1320 O   0  0  0  0  0  0  0  0  0  0  0  0
  191.6240  176.4470  143.7210 O   0  0  0  0  0  0  0  0  0  0  0  0
  190.9290  176.1550  142.5190 C   0  0  0  0  0  1  0  0  0  0  0  0
  186.0470  178.4640  144.4810 C   0  0  2  0  0  3  0  0  0  0  0  0
  184.6940  178.6180  145.1680 C   0  0  1  0  0  3  0  0  0  0  0  0
  184.8130  179.4370  146.2930 O   0  0  0  0  0  1  0  0  0  0  0  0
  183.6600  179.1920  144.2130 C   0  0  0  0  0  2  0  0  0  0  0  0
  182.2860  178.6140  144.5150 C   0  0  0  0  0  2  0  0  0  0  0  0
  180.2420  177.9990  143.4540 F   0  0  0  0  0  0  0  0  0  0  0  0
  181.3300  178.8480  143.3560 C   0  0  0  0  0  3  0  0  0  0  0  0
  180.9030  180.1650  143.3340 F   0  0  0  0  0  0  0  0  0  0  0  0
  1 12  1  1  0  0  0
  2  3  1  0  0  0  0
  2 14  1  0  0  0  0
  3  8  1  6  0  0  0
  3  9  1  0  0  0  0
  6  5  1  0  0  0  0
  6  1  1  0  0  0  0
  7  9  1  6  0  0  0
  7 45  1  0  0  0  0
  7 57  1  0  0  0  0
 10 19  1  6  0  0  0
 10  8  1  0  0  0  0
 11 17  2  0  0  0  0
 11 15  1  0  0  0  0
 12 14  1  0  0  0  0
 13  6  1  0  0  0  0
 14  4  1  1  0  0  0
 14  7  1  0  0  0  0
 15 16  1  0  0  0  0
 16 10  1  0  0  0  0
 18 17  1  6  0  0  0
 18  6  1  0  0  0  0
 18  1  1  0  0  0  0
 21 31  1  1  0  0  0
 21 22  1  0  0  0  0
 22 19  1  1  0  0  0
 22 28  1  0  0  0  0
 23 21  1  0  0  0  0
 23 26  1  0  0  0  0
 25 20  1  0  0  0  0
 26 29  1  6  0  0  0
 26 27  1  0  0  0  0
 26 25  1  0  0  0  0
 28 27  1  6  0  0  0
 28 30  1  0  0  0  0
 28 24  1  0  0  0  0
 30 20  1  6  0  0  0
 30 24  1  0  0  0  0
 32 34  1  6  0  0  0
 32 31  1  0  0  0  0
 32 36  1  0  0  0  0
 33 34  1  0  0  0  0
 35 34  2  0  0  0  0
 36 41  1  6  0  0  0
 36 37  1  0  0  0  0
 37 38  1  0  0  0  0
 38 40  2  0  0  0  0
 38 39  1  0  0  0  0
 41 43  1  0  0  0  0
 42 44  1  0  0  0  0
 42 43  1  0  0  0  0
 44 43  1  0  0  0  0
 46 45  1  6  0  0  0
 46 47  1  0  0  0  0
 46 48  1  0  0  0  0
 47 48  1  0  0  0  0
 47 49  1  0  0  0  0
 47 50  1  1  0  0  0
 48 49  1  1  0  0  0
 52 50  1  0  0  0  0
 52 51  1  6  0  0  0
 53 52  1  0  0  0  0
 54 53  2  0  0  0  0
 55 53  1  0  0  0  0
 56 55  1  0  0  0  0
 57 58  1  6  0  0  0
 57 48  1  0  0  0  0
 58 59  1  1  0  0  0
 60 61  1  0  0  0  0
 60 58  1  0  0  0  0
 63 62  1  0  0  0  0
 63 61  1  0  0  0  0
 64 63  1  0  0  0  0
M  END
>  <MODEL>
9

>  <REMARK>
 VINA RESULT:      -3.6      1.718      4.159
  Name = 
  21 active torsions:
  status: ('A' for Active; 'I' for Inactive)
    1  A    between atoms: C_2  and  O_14
    2  A    between atoms: C_5  and  C_44
    3  A    between atoms: C_5  and  C_51
    4  A    between atoms: C_6  and  C_39
    5  A    between atoms: C_6  and  C_51
    6  A    between atoms: C_7  and  O_11
    7  A    between atoms: C_9  and  C_37
    8  A    between atoms: C_9  and  C_54
    9  A    between atoms: C_10  and  C_26
   10  A    between atoms: O_11  and  C_21
   11  A    between atoms: O_14  and  C_38
   12  A    between atoms: O_16  and  C_61
   13  A    between atoms: C_21  and  C_38
   14  A    between atoms: C_21  and  C_47
   15  A    between atoms: C_23  and  C_35
   16  A    between atoms: C_26  and  C_33
   17  A    between atoms: N_32  and  C_35
   18  A    between atoms: C_38  and  C_55
   19  A    between atoms: C_42  and  C_44
   20  A    between atoms: C_52  and  C_55
   21  A    between atoms: C_54  and  C_61
                            x       y       z     vdW  Elec       q    Type
                         _______ _______ _______ _____ _____    ______ ____

>  <TORSDO>
F 21

$$$$
