=
 OpenBabel11062412543D

 50 52  0  0  1  0  0  0  0  0999 V2000
  189.4720  177.8400  136.1530 C   0  0  0  0  0  3  0  0  0  0  0  0
  187.0660  177.1720  136.7250 C   0  0  1  0  0  3  0  0  0  0  0  0
  190.3130  177.2950  139.6770 N   0  0  0  0  0  2  0  0  0  0  0  0
  190.2120  177.0200  137.1800 C   0  0  1  0  0  3  0  0  0  0  0  0
  187.5370  175.9790  137.5450 C   0  0  0  0  0  2  0  0  0  0  0  0
  188.3540  176.4260  138.6620 N   0  0  0  0  0  0  0  0  0  0  0  0
  189.5510  176.9180  138.5250 C   0  0  0  0  0  0  0  0  0  0  0  0
  189.7860  177.4590  140.9990 C   0  0  0  0  0  0  0  0  0  0  0  0
  188.1450  177.8740  135.9400 C   0  0  0  0  0  3  0  0  0  0  0  0
  188.5440  177.5050  141.1990 O   0  0  0  0  0  0  0  0  0  0  0  0
  183.9420  176.7320  137.6110 C   0  0  0  0  0  2  0  0  0  0  0  0
  185.9580  176.7590  135.8100 C   0  0  0  0  0  0  0  0  0  0  0  0
  181.6360  177.5210  136.9240 C   0  0  2  0  0  3  0  0  0  0  0  0
  182.5870  176.3390  137.1060 C   0  0  1  0  0  3  0  0  0  0  0  0
  182.7790  177.2550  134.8450 C   0  0  0  0  0  2  0  0  0  0  0  0
  184.6370  176.6030  136.3200 N   0  0  0  0  0  0  0  0  0  0  0  0
  183.3180  176.1960  135.8070 C   0  0  1  0  0  3  0  0  0  0  0  0
  186.1910  176.5330  134.5940 O   0  0  0  0  0  0  0  0  0  0  0  0
  182.0830  178.2920  135.6990 C   0  0  0  0  0  2  0  0  0  0  0  0
  181.3660  178.3500  138.1940 C   0  0  1  0  0  3  0  0  0  0  0  0
  181.2250  177.6430  139.4080 O   0  0  0  0  0  0  0  0  0  0  0  0
  179.9600  177.2870  139.5050 O   0  0  0  0  0  1  0  0  0  0  0  0
  182.0950  179.7010  138.2900 C   0  0  0  0  0  2  0  0  0  0  0  0
  183.1220  179.7560  139.3710 C   0  0  0  0  0  2  0  0  0  0  0  0
  184.2950  180.1230  139.1240 O   0  0  0  0  0  0  0  0  0  0  0  0
  184.4200  180.1680  139.0720 O   0  0  0  0  0 15  0  0  0  0  0  0
  181.0910  180.8270  138.4730 C   0  0  0  0  0  2  0  0  0  0  0  0
  179.4030  181.4990  136.9000 O   0  0  0  0  0  0  0  0  0  0  0  0
  179.9960  182.7180  137.2700 C   0  0  0  0  0  0  0  0  0  0  0  0
  179.9740  183.6360  136.2190 O   0  0  0  0  0  1  0  0  0  0  0  0
  179.5440  183.1550  138.5180 O   0  0  0  0  0  1  0  0  0  0  0  0
  180.8000  181.4810  137.1310 C   0  0  1  0  0  3  0  0  0  0  0  0
  190.7400  174.4300  137.6370 O   0  0  0  0  0  0  0  0  0  0  0  0
  192.4450  175.5530  135.9150 C   0  0  0  0  0  1  0  0  0  0  0  0
  189.8740  174.9940  135.4220 O   0  0  0  0  0  0  0  0  0  0  0  0
  190.7780  175.4470  136.5330 S   0  0  0  0  0  0  0  0  0  0  0  0
  190.7240  177.6260  142.1430 C   0  0  0  0  0  2  0  0  0  0  0  0
  190.0540  178.3390  143.2230 N   0  0  0  0  0  2  0  0  0  0  0  0
  189.2090  177.5900  146.7040 C   0  0  0  0  0  0  0  0  0  0  0  0
  189.5960  178.2240  145.5180 O   0  0  0  0  0  0  0  0  0  0  0  0
  190.1430  177.5100  144.4130 C   0  0  2  0  0  3  0  0  0  0  0  0
  191.5990  177.1450  144.6640 C   0  0  0  0  0  2  0  0  0  0  0  0
  190.0540  176.8930  147.4050 N   0  0  0  0  0  0  0  0  0  0  0  0
  191.7090  176.1010  145.7600 C   0  0  0  0  0  2  0  0  0  0  0  0
  191.4750  176.7530  147.1110 C   0  0  0  0  0  2  0  0  0  0  0  0
  187.6030  177.7650  148.4150 O   0  0  0  0  0  0  0  0  0  0  0  0
  187.8170  177.7760  147.1750 C   0  0  0  0  0  0  0  0  0  0  0  0
  186.7200  177.9360  146.3140 O   0  0  0  0  0  0  0  0  0  0  0  0
  184.5170  178.4470  146.7560 O   0  0  0  0  0  1  0  0  0  0  0  0
  185.7610  178.9800  146.4180 C   0  0  0  0  0  2  0  0  0  0  0  0
  1  4  1  0  0  0  0
  2 12  1  6  0  0  0
  2  5  1  0  0  0  0
  3  8  1  0  0  0  0
  4 36  1  6  0  0  0
  4  7  1  0  0  0  0
  5  6  1  0  0  0  0
  7  6  2  0  0  0  0
  7  3  1  0  0  0  0
  8 10  2  0  0  0  0
  8 37  1  0  0  0  0
  9  1  2  0  0  0  0
  9  2  1  0  0  0  0
 12 16  1  0  0  0  0
 13 14  1  0  0  0  0
 13 20  1  1  0  0  0
 14 11  1  1  0  0  0
 15 19  1  0  0  0  0
 16 11  1  0  0  0  0
 17 15  1  6  0  0  0
 17 16  1  0  0  0  0
 17 14  1  0  0  0  0
 18 12  2  0  0  0  0
 19 13  1  0  0  0  0
 20 23  1  1  0  0  0
 20 21  1  0  0  0  0
 21 22  1  0  0  0  0
 23 27  1  0  0  0  0
 25 24  2  0  0  0  0
 28 32  1  0  0  0  0
 28 29  1  0  0  0  0
 29 31  1  0  0  0  0
 30 29  1  0  0  0  0
 32 29  1  0  0  0  0
 32 27  1  1  0  0  0
 34 36  1  0  0  0  0
 35 36  2  0  0  0  0
 36 33  2  0  0  0  0
 37 38  1  0  0  0  0
 39 47  1  0  0  0  0
 39 43  2  0  0  0  0
 40 39  1  0  0  0  0
 41 38  1  6  0  0  0
 41 42  1  0  0  0  0
 41 40  1  0  0  0  0
 42 44  1  0  0  0  0
 44 45  1  0  0  0  0
 45 43  1  0  0  0  0
 47 46  2  0  0  0  0
 48 50  1  0  0  0  0
 48 47  1  0  0  0  0
 50 49  1  0  0  0  0
M  END
>  <MODEL>
1

>  <REMARK>
 VINA RESULT:      -8.2      0.000      0.000
  Name = 
  14 active torsions:
  status: ('A' for Active; 'I' for Inactive)
    1  A    between atoms: O_2  and  C_38
    2  A    between atoms: O_2  and  C_40
    3  A    between atoms: C_6  and  C_38
    4  A    between atoms: O_7  and  C_12
    5  A    between atoms: C_10  and  C_21
    6  A    between atoms: C_11  and  C_39
    7  A    between atoms: C_11  and  C_43
    8  A    between atoms: C_12  and  C_14
    9  A    between atoms: C_12  and  C_43
   10  A    between atoms: C_13  and  N_35
   11  A    between atoms: C_19  and  C_43
   12  A    between atoms: C_33  and  S_47
   13  A    between atoms: N_35  and  C_50
   14  A    between atoms: C_46  and  C_50
                            x       y       z     vdW  Elec       q    Type
                         _______ _______ _______ _____ _____    ______ ____

>  <TORSDO>
F 14

$$$$
=
 OpenBabel11062412543D

 50 52  0  0  1  0  0  0  0  0999 V2000
  189.0200  178.3030  136.2640 C   0  0  0  0  0  3  0  0  0  0  0  0
  186.6750  177.5240  136.9380 C   0  0  1  0  0  3  0  0  0  0  0  0
  190.1370  177.4030  139.6360 N   0  0  0  0  0  2  0  0  0  0  0  0
  189.8480  177.3950  137.1380 C   0  0  1  0  0  3  0  0  0  0  0  0
  187.2240  176.2610  137.5870 C   0  0  0  0  0  2  0  0  0  0  0  0
  188.1180  176.6040  138.6810 N   0  0  0  0  0  0  0  0  0  0  0  0
  189.2940  177.1340  138.5100 C   0  0  0  0  0  0  0  0  0  0  0  0
  189.7110  177.4120  141.0030 C   0  0  0  0  0  0  0  0  0  0  0  0
  187.6810  178.3300  136.1560 C   0  0  0  0  0  3  0  0  0  0  0  0
  188.4870  177.4090  141.2990 O   0  0  0  0  0  0  0  0  0  0  0  0
  183.6140  177.0190  137.9930 C   0  0  0  0  0  2  0  0  0  0  0  0
  185.5060  177.1870  136.0700 C   0  0  0  0  0  0  0  0  0  0  0  0
  181.2730  177.8640  137.5270 C   0  0  2  0  0  3  0  0  0  0  0  0
  182.2260  176.6690  137.5500 C   0  0  1  0  0  3  0  0  0  0  0  0
  182.2730  177.7630  135.3610 C   0  0  0  0  0  2  0  0  0  0  0  0
  184.2210  176.9920  136.6520 N   0  0  0  0  0  0  0  0  0  0  0  0
  182.8680  176.6300  136.1980 C   0  0  1  0  0  3  0  0  0  0  0  0
  185.6560  177.0580  134.8260 O   0  0  0  0  0  0  0  0  0  0  0  0
  181.6430  178.7290  136.3390 C   0  0  0  0  0  2  0  0  0  0  0  0
  181.0930  178.5890  138.8730 C   0  0  1  0  0  3  0  0  0  0  0  0
  180.4090  179.8240  138.8550 O   0  0  0  0  0  0  0  0  0  0  0  0
  181.2950  180.7620  139.1200 O   0  0  0  0  0  1  0  0  0  0  0  0
  180.8210  177.6930  140.0940 C   0  0  0  0  0  2  0  0  0  0  0  0
  179.3710  177.4940  140.3840 C   0  0  0  0  0  2  0  0  0  0  0  0
  179.0000  176.7240  141.3010 O   0  0  0  0  0  0  0  0  0  0  0  0
  178.9820  176.6330  141.4100 O   0  0  0  0  0 15  0  0  0  0  0  0
  181.5210  178.2510  141.3220 C   0  0  0  0  0  2  0  0  0  0  0  0
  183.6910  179.2830  141.2590 O   0  0  0  0  0  0  0  0  0  0  0  0
  183.7530  178.4810  142.4120 C   0  0  0  0  0  0  0  0  0  0  0  0
  185.0470  178.0090  142.6360 O   0  0  0  0  0  1  0  0  0  0  0  0
  183.0860  179.0710  143.4890 O   0  0  0  0  0  1  0  0  0  0  0  0
  183.0220  178.0360  141.2020 C   0  0  1  0  0  3  0  0  0  0  0  0
  191.7800  176.1320  135.7690 O   0  0  0  0  0  0  0  0  0  0  0  0
  189.3260  175.5290  134.9050 C   0  0  0  0  0  1  0  0  0  0  0  0
  190.3950  174.7480  137.2320 O   0  0  0  0  0  0  0  0  0  0  0  0
  190.3860  175.9130  136.2830 S   0  0  0  0  0  0  0  0  0  0  0  0
  190.7320  177.4770  142.0850 C   0  0  0  0  0  2  0  0  0  0  0  0
  190.1970  178.2240  143.2160 N   0  0  0  0  0  2  0  0  0  0  0  0
  189.3840  177.4030  146.6890 C   0  0  0  0  0  0  0  0  0  0  0  0
  189.7610  178.0620  145.5130 O   0  0  0  0  0  0  0  0  0  0  0  0
  190.2960  177.3700  144.3880 C   0  0  2  0  0  3  0  0  0  0  0  0
  191.7540  176.9970  144.6170 C   0  0  0  0  0  2  0  0  0  0  0  0
  190.2340  176.6900  147.3670 N   0  0  0  0  0  0  0  0  0  0  0  0
  191.8730  175.9310  145.6900 C   0  0  0  0  0  2  0  0  0  0  0  0
  191.6530  176.5550  147.0560 C   0  0  0  0  0  2  0  0  0  0  0  0
  187.7060  177.1360  148.3180 O   0  0  0  0  0  0  0  0  0  0  0  0
  187.9970  177.5810  147.1780 C   0  0  0  0  0  0  0  0  0  0  0  0
  186.9810  178.1950  146.4280 O   0  0  0  0  0  0  0  0  0  0  0  0
  185.6420  179.8260  147.3520 O   0  0  0  0  0  1  0  0  0  0  0  0
  185.6850  178.4980  146.9250 C   0  0  0  0  0  2  0  0  0  0  0  0
  1  4  1  0  0  0  0
  2 12  1  6  0  0  0
  2  5  1  0  0  0  0
  3  8  1  0  0  0  0
  4 36  1  6  0  0  0
  4  7  1  0  0  0  0
  5  6  1  0  0  0  0
  7  6  2  0  0  0  0
  7  3  1  0  0  0  0
  8 10  2  0  0  0  0
  8 37  1  0  0  0  0
  9  1  2  0  0  0  0
  9  2  1  0  0  0  0
 12 16  1  0  0  0  0
 13 14  1  0  0  0  0
 13 20  1  1  0  0  0
 14 11  1  1  0  0  0
 15 19  1  0  0  0  0
 16 11  1  0  0  0  0
 17 15  1  6  0  0  0
 17 16  1  0  0  0  0
 17 14  1  0  0  0  0
 18 12  2  0  0  0  0
 19 13  1  0  0  0  0
 20 23  1  1  0  0  0
 21 20  1  0  0  0  0
 21 22  1  0  0  0  0
 23 27  1  0  0  0  0
 24 25  2  0  0  0  0
 28 29  1  0  0  0  0
 29 30  1  0  0  0  0
 29 31  1  0  0  0  0
 32 28  1  0  0  0  0
 32 27  1  1  0  0  0
 32 29  1  0  0  0  0
 33 36  2  0  0  0  0
 34 36  1  0  0  0  0
 36 35  2  0  0  0  0
 37 38  1  0  0  0  0
 39 47  1  0  0  0  0
 39 43  2  0  0  0  0
 40 39  1  0  0  0  0
 41 38  1  6  0  0  0
 41 42  1  0  0  0  0
 41 40  1  0  0  0  0
 42 44  1  0  0  0  0
 44 45  1  0  0  0  0
 45 43  1  0  0  0  0
 47 46  2  0  0  0  0
 48 50  1  0  0  0  0
 48 47  1  0  0  0  0
 50 49  1  0  0  0  0
M  END
>  <MODEL>
2

>  <REMARK>
 VINA RESULT:      -7.6      1.591      3.090
  Name = 
  14 active torsions:
  status: ('A' for Active; 'I' for Inactive)
    1  A    between atoms: O_2  and  C_38
    2  A    between atoms: O_2  and  C_40
    3  A    between atoms: C_6  and  C_38
    4  A    between atoms: O_7  and  C_12
    5  A    between atoms: C_10  and  C_21
    6  A    between atoms: C_11  and  C_39
    7  A    between atoms: C_11  and  C_43
    8  A    between atoms: C_12  and  C_14
    9  A    between atoms: C_12  and  C_43
   10  A    between atoms: C_13  and  N_35
   11  A    between atoms: C_19  and  C_43
   12  A    between atoms: C_33  and  S_47
   13  A    between atoms: N_35  and  C_50
   14  A    between atoms: C_46  and  C_50
                            x       y       z     vdW  Elec       q    Type
                         _______ _______ _______ _____ _____    ______ ____

>  <TORSDO>
F 14

$$$$
=
 OpenBabel11062412543D

 50 52  0  0  1  0  0  0  0  0999 V2000
  188.1130  176.1430  137.9130 C   0  0  0  0  0  3  0  0  0  0  0  0
  188.6370  177.3670  140.1020 C   0  0  1  0  0  3  0  0  0  0  0  0
  184.7240  177.5230  138.1160 N   0  0  0  0  0  2  0  0  0  0  0  0
  187.0750  177.0790  137.3440 C   0  0  1  0  0  3  0  0  0  0  0  0
  187.9650  178.6410  139.6110 C   0  0  0  0  0  2  0  0  0  0  0  0
  186.5570  178.3970  139.3420 N   0  0  0  0  0  0  0  0  0  0  0  0
  186.1290  177.6810  138.3430 C   0  0  0  0  0  0  0  0  0  0  0  0
  183.6940  177.8450  139.0580 C   0  0  0  0  0  0  0  0  0  0  0  0
  188.7960  176.2870  139.0610 C   0  0  0  0  0  3  0  0  0  0  0  0
  183.9700  178.0810  140.2630 O   0  0  0  0  0  0  0  0  0  0  0  0
  189.1460  178.1430  143.2450 C   0  0  0  0  0  2  0  0  0  0  0  0
  189.9650  177.6890  140.7090 C   0  0  0  0  0  0  0  0  0  0  0  0
  190.5930  177.3950  145.1820 C   0  0  2  0  0  3  0  0  0  0  0  0
  190.1990  178.5300  144.2370 C   0  0  1  0  0  3  0  0  0  0  0  0
  192.0530  177.2380  143.3000 C   0  0  0  0  0  2  0  0  0  0  0  0
  190.0540  178.0110  142.0940 N   0  0  0  0  0  0  0  0  0  0  0  0
  191.1010  178.4070  143.0500 C   0  0  1  0  0  3  0  0  0  0  0  0
  191.0030  177.6930  139.9960 O   0  0  0  0  0  0  0  0  0  0  0  0
  191.4250  176.4040  144.3950 C   0  0  0  0  0  2  0  0  0  0  0  0
  189.4440  176.8090  146.0240 C   0  0  1  0  0  3  0  0  0  0  0  0
  189.7890  175.8760  147.0260 O   0  0  0  0  0  0  0  0  0  0  0  0
  191.0660  176.0530  147.2980 O   0  0  0  0  0  1  0  0  0  0  0  0
  188.3020  177.7770  146.3780 C   0  0  0  0  0  2  0  0  0  0  0  0
  188.0020  177.8460  147.8380 C   0  0  0  0  0  2  0  0  0  0  0  0
  188.6330  178.6300  148.5860 O   0  0  0  0  0  0  0  0  0  0  0  0
  188.7170  178.7260  148.6500 O   0  0  0  0  0 15  0  0  0  0  0  0
  187.0440  177.4080  145.6100 C   0  0  0  0  0  2  0  0  0  0  0  0
  185.8620  179.4850  145.8580 O   0  0  0  0  0  0  0  0  0  0  0  0
  184.9350  178.6700  145.1860 C   0  0  0  0  0  0  0  0  0  0  0  0
  183.6230  178.9930  145.5380 O   0  0  0  0  0  1  0  0  0  0  0  0
  185.2300  178.5660  143.8240 O   0  0  0  0  0  1  0  0  0  0  0  0
  185.8430  178.1160  146.2180 C   0  0  1  0  0  3  0  0  0  0  0  0
  187.5570  179.6510  136.7510 O   0  0  0  0  0  0  0  0  0  0  0  0
  187.0000  178.1710  134.5970 C   0  0  0  0  0  1  0  0  0  0  0  0
  189.2470  178.0320  136.0460 O   0  0  0  0  0  0  0  0  0  0  0  0
  187.7720  178.2700  136.1990 S   0  0  0  0  0  0  0  0  0  0  0  0
  182.2740  177.8500  138.6120 C   0  0  0  0  0  2  0  0  0  0  0  0
  182.0390  178.9990  137.7460 N   0  0  0  0  0  2  0  0  0  0  0  0
  179.9560  181.9870  138.0950 C   0  0  0  0  0  0  0  0  0  0  0  0
  181.0300  181.0910  138.0540 O   0  0  0  0  0  0  0  0  0  0  0  0
  180.8630  179.6890  138.2470 C   0  0  2  0  0  3  0  0  0  0  0  0
  180.6760  179.3580  139.7210 C   0  0  0  0  0  2  0  0  0  0  0  0
  179.2010  182.0900  139.1490 N   0  0  0  0  0  0  0  0  0  0  0  0
  179.3400  179.8760  140.2220 C   0  0  0  0  0  2  0  0  0  0  0  0
  179.4120  181.3810  140.4060 C   0  0  0  0  0  2  0  0  0  0  0  0
  179.3540  182.3270  135.8450 O   0  0  0  0  0  0  0  0  0  0  0  0
  179.7270  182.8610  136.9220 C   0  0  0  0  0  0  0  0  0  0  0  0
  179.9310  184.2500  136.9360 O   0  0  0  0  0  0  0  0  0  0  0  0
  182.1760  184.4250  137.4270 O   0  0  0  0  0  1  0  0  0  0  0  0
  181.1550  184.8880  136.5960 C   0  0  0  0  0  2  0  0  0  0  0  0
  1  9  2  0  0  0  0
  2 12  1  6  0  0  0
  3  7  1  0  0  0  0
  3  8  1  0  0  0  0
  4 36  1  1  0  0  0
  4  1  1  0  0  0  0
  4  7  1  0  0  0  0
  5  2  1  0  0  0  0
  6  5  1  0  0  0  0
  7  6  2  0  0  0  0
  8 10  2  0  0  0  0
  9  2  1  0  0  0  0
 12 16  1  0  0  0  0
 13 20  1  6  0  0  0
 14 11  1  6  0  0  0
 14 13  1  0  0  0  0
 15 19  1  0  0  0  0
 16 17  1  0  0  0  0
 16 11  1  0  0  0  0
 17 15  1  1  0  0  0
 17 14  1  0  0  0  0
 18 12  2  0  0  0  0
 19 13  1  0  0  0  0
 20 23  1  1  0  0  0
 20 21  1  0  0  0  0
 21 22  1  0  0  0  0
 24 25  2  0  0  0  0
 27 23  1  0  0  0  0
 28 32  1  0  0  0  0
 29 30  1  0  0  0  0
 29 28  1  0  0  0  0
 29 32  1  0  0  0  0
 31 29  1  0  0  0  0
 32 27  1  6  0  0  0
 34 36  1  0  0  0  0
 35 36  2  0  0  0  0
 36 33  2  0  0  0  0
 37  8  1  0  0  0  0
 38 37  1  0  0  0  0
 39 43  2  0  0  0  0
 40 39  1  0  0  0  0
 40 41  1  0  0  0  0
 41 38  1  1  0  0  0
 41 42  1  0  0  0  0
 42 44  1  0  0  0  0
 43 45  1  0  0  0  0
 44 45  1  0  0  0  0
 46 47  2  0  0  0  0
 47 48  1  0  0  0  0
 47 39  1  0  0  0  0
 50 48  1  0  0  0  0
 50 49  1  0  0  0  0
M  END
>  <MODEL>
3

>  <REMARK>
 VINA RESULT:      -7.4      2.400     10.022
  Name = 
  14 active torsions:
  status: ('A' for Active; 'I' for Inactive)
    1  A    between atoms: O_2  and  C_38
    2  A    between atoms: O_2  and  C_40
    3  A    between atoms: C_6  and  C_38
    4  A    between atoms: O_7  and  C_12
    5  A    between atoms: C_10  and  C_21
    6  A    between atoms: C_11  and  C_39
    7  A    between atoms: C_11  and  C_43
    8  A    between atoms: C_12  and  C_14
    9  A    between atoms: C_12  and  C_43
   10  A    between atoms: C_13  and  N_35
   11  A    between atoms: C_19  and  C_43
   12  A    between atoms: C_33  and  S_47
   13  A    between atoms: N_35  and  C_50
   14  A    between atoms: C_46  and  C_50
                            x       y       z     vdW  Elec       q    Type
                         _______ _______ _______ _____ _____    ______ ____

>  <TORSDO>
F 14

$$$$
=
 OpenBabel11062412543D

 50 52  0  0  1  0  0  0  0  0999 V2000
  187.9800  176.2860  137.8850 C   0  0  0  0  0  3  0  0  0  0  0  0
  188.5930  177.3390  140.1380 C   0  0  1  0  0  3  0  0  0  0  0  0
  184.6430  177.7510  138.2660 N   0  0  0  0  0  2  0  0  0  0  0  0
  186.9600  177.2890  137.4070 C   0  0  1  0  0  3  0  0  0  0  0  0
  187.9510  178.6650  139.7520 C   0  0  0  0  0  2  0  0  0  0  0  0
  186.5300  178.4820  139.5030 N   0  0  0  0  0  0  0  0  0  0  0  0
  186.0570  177.8500  138.4680 C   0  0  0  0  0  0  0  0  0  0  0  0
  183.6450  178.0380  139.2530 C   0  0  0  0  0  0  0  0  0  0  0  0
  188.6930  176.3300  139.0230 C   0  0  0  0  0  3  0  0  0  0  0  0
  183.9560  178.1830  140.4640 O   0  0  0  0  0  0  0  0  0  0  0  0
  189.1760  178.1240  143.2660 C   0  0  0  0  0  2  0  0  0  0  0  0
  189.9440  177.5790  140.7320 C   0  0  0  0  0  0  0  0  0  0  0  0
  190.5820  177.3060  145.2060 C   0  0  2  0  0  3  0  0  0  0  0  0
  190.2600  178.4510  144.2470 C   0  0  1  0  0  3  0  0  0  0  0  0
  192.0150  177.0220  143.3170 C   0  0  0  0  0  2  0  0  0  0  0  0
  190.0640  177.9130  142.1110 N   0  0  0  0  0  0  0  0  0  0  0  0
  191.1430  178.2500  143.0550 C   0  0  1  0  0  3  0  0  0  0  0  0
  190.9750  177.5010  140.0140 O   0  0  0  0  0  0  0  0  0  0  0  0
  191.3390  176.2500  144.4280 C   0  0  0  0  0  2  0  0  0  0  0  0
  189.4020  176.8130  146.0630 C   0  0  1  0  0  3  0  0  0  0  0  0
  189.6890  175.8750  147.0790 O   0  0  0  0  0  0  0  0  0  0  0  0
  190.9640  176.0130  147.3840 O   0  0  0  0  0  1  0  0  0  0  0  0
  188.3290  177.8600  146.4060 C   0  0  0  0  0  2  0  0  0  0  0  0
  188.2610  178.2000  147.8570 C   0  0  0  0  0  2  0  0  0  0  0  0
  189.2770  178.6050  148.4690 O   0  0  0  0  0  0  0  0  0  0  0  0
  189.4040  178.6500  148.5170 O   0  0  0  0  0 15  0  0  0  0  0  0
  186.9660  177.3950  145.9200 C   0  0  0  0  0  2  0  0  0  0  0  0
  185.2090  177.8770  144.3530 O   0  0  0  0  0  0  0  0  0  0  0  0
  185.1510  178.9660  145.2400 C   0  0  0  0  0  0  0  0  0  0  0  0
  184.7350  180.1300  144.5930 O   0  0  0  0  0  1  0  0  0  0  0  0
  184.5090  178.6260  146.4340 O   0  0  0  0  0  1  0  0  0  0  0  0
  186.4440  178.3510  144.8580 C   0  0  1  0  0  3  0  0  0  0  0  0
  187.3420  178.1810  134.9060 O   0  0  0  0  0  0  0  0  0  0  0  0
  189.4380  178.6240  136.5020 C   0  0  0  0  0  1  0  0  0  0  0  0
  187.0790  179.8810  136.6430 O   0  0  0  0  0  0  0  0  0  0  0  0
  187.6680  178.5350  136.3290 S   0  0  0  0  0  0  0  0  0  0  0  0
  182.2160  178.1180  138.8440 C   0  0  0  0  0  2  0  0  0  0  0  0
  182.0700  179.0880  137.7660 N   0  0  0  0  0  2  0  0  0  0  0  0
  179.8770  180.8070  140.1390 C   0  0  0  0  0  0  0  0  0  0  0  0
  180.4030  179.9360  139.1780 O   0  0  0  0  0  0  0  0  0  0  0  0
  181.4990  180.2940  138.3410 C   0  0  2  0  0  3  0  0  0  0  0  0
  181.0520  181.2220  137.2200 C   0  0  0  0  0  2  0  0  0  0  0  0
  179.4140  181.9760  139.8100 N   0  0  0  0  0  0  0  0  0  0  0  0
  180.6600  182.5800  137.7710 C   0  0  0  0  0  2  0  0  0  0  0  0
  179.3040  182.4840  138.4470 C   0  0  0  0  0  2  0  0  0  0  0  0
  179.2970  181.1070  142.4000 O   0  0  0  0  0  0  0  0  0  0  0  0
  179.8110  180.3420  141.5430 C   0  0  0  0  0  0  0  0  0  0  0  0
  180.3150  179.1050  141.9770 O   0  0  0  0  0  0  0  0  0  0  0  0
  181.9990  178.9260  143.5400 O   0  0  0  0  0  1  0  0  0  0  0  0
  180.6260  178.7920  143.3290 C   0  0  0  0  0  2  0  0  0  0  0  0
  1  9  2  0  0  0  0
  2 12  1  6  0  0  0
  3  7  1  0  0  0  0
  3  8  1  0  0  0  0
  4 36  1  1  0  0  0
  4  1  1  0  0  0  0
  4  7  1  0  0  0  0
  5  2  1  0  0  0  0
  6  5  1  0  0  0  0
  7  6  2  0  0  0  0
  8 10  2  0  0  0  0
  9  2  1  0  0  0  0
 12 16  1  0  0  0  0
 13 20  1  6  0  0  0
 14 11  1  6  0  0  0
 14 13  1  0  0  0  0
 15 19  1  0  0  0  0
 16 17  1  0  0  0  0
 16 11  1  0  0  0  0
 17 15  1  1  0  0  0
 17 14  1  0  0  0  0
 18 12  2  0  0  0  0
 19 13  1  0  0  0  0
 20 23  1  1  0  0  0
 20 21  1  0  0  0  0
 21 22  1  0  0  0  0
 24 25  2  0  0  0  0
 27 23  1  0  0  0  0
 28 32  1  0  0  0  0
 28 29  1  0  0  0  0
 29 31  1  0  0  0  0
 30 29  1  0  0  0  0
 32 29  1  0  0  0  0
 32 27  1  1  0  0  0
 33 36  2  0  0  0  0
 36 34  1  0  0  0  0
 36 35  2  0  0  0  0
 37  8  1  0  0  0  0
 38 37  1  0  0  0  0
 39 47  1  0  0  0  0
 40 39  1  0  0  0  0
 41 38  1  6  0  0  0
 41 40  1  0  0  0  0
 42 44  1  0  0  0  0
 42 41  1  0  0  0  0
 43 39  2  0  0  0  0
 44 45  1  0  0  0  0
 45 43  1  0  0  0  0
 47 48  1  0  0  0  0
 47 46  2  0  0  0  0
 48 50  1  0  0  0  0
 50 49  1  0  0  0  0
M  END
>  <MODEL>
4

>  <REMARK>
 VINA RESULT:      -7.2      2.530      9.461
  Name = 
  14 active torsions:
  status: ('A' for Active; 'I' for Inactive)
    1  A    between atoms: O_2  and  C_38
    2  A    between atoms: O_2  and  C_40
    3  A    between atoms: C_6  and  C_38
    4  A    between atoms: O_7  and  C_12
    5  A    between atoms: C_10  and  C_21
    6  A    between atoms: C_11  and  C_39
    7  A    between atoms: C_11  and  C_43
    8  A    between atoms: C_12  and  C_14
    9  A    between atoms: C_12  and  C_43
   10  A    between atoms: C_13  and  N_35
   11  A    between atoms: C_19  and  C_43
   12  A    between atoms: C_33  and  S_47
   13  A    between atoms: N_35  and  C_50
   14  A    between atoms: C_46  and  C_50
                            x       y       z     vdW  Elec       q    Type
                         _______ _______ _______ _____ _____    ______ ____

>  <TORSDO>
F 14

$$$$
=
 OpenBabel11062412543D

 50 52  0  0  1  0  0  0  0  0999 V2000
  188.7000  175.8800  143.5720 C   0  0  0  0  0  3  0  0  0  0  0  0
  186.8330  177.5290  142.9770 C   0  0  1  0  0  3  0  0  0  0  0  0
  190.0080  176.3550  140.1820 N   0  0  0  0  0  2  0  0  0  0  0  0
  189.7990  176.4140  142.6860 C   0  0  1  0  0  3  0  0  0  0  0  0
  187.8180  178.4930  142.3310 C   0  0  0  0  0  2  0  0  0  0  0  0
  188.4830  177.8550  141.2060 N   0  0  0  0  0  0  0  0  0  0  0  0
  189.3610  176.9040  141.3350 C   0  0  0  0  0  0  0  0  0  0  0  0
  189.5830  176.5470  138.8270 C   0  0  0  0  0  0  0  0  0  0  0  0
  187.4600  176.3750  143.7180 C   0  0  0  0  0  3  0  0  0  0  0  0
  188.4530  177.0350  138.5670 O   0  0  0  0  0  0  0  0  0  0  0  0
  184.0270  178.9560  142.0650 C   0  0  0  0  0  2  0  0  0  0  0  0
  185.9070  178.2750  143.8840 C   0  0  0  0  0  0  0  0  0  0  0  0
  181.5830  178.9500  142.7270 C   0  0  2  0  0  3  0  0  0  0  0  0
  182.8660  179.7630  142.5610 C   0  0  1  0  0  3  0  0  0  0  0  0
  182.7280  178.8270  144.8170 C   0  0  0  0  0  2  0  0  0  0  0  0
  184.7120  178.8500  143.3640 N   0  0  0  0  0  0  0  0  0  0  0  0
  183.5900  179.6580  143.8670 C   0  0  1  0  0  3  0  0  0  0  0  0
  186.1880  178.4100  145.1040 O   0  0  0  0  0  0  0  0  0  0  0  0
  181.7440  178.0730  143.9510 C   0  0  0  0  0  2  0  0  0  0  0  0
  181.0730  178.2570  141.4490 C   0  0  1  0  0  3  0  0  0  0  0  0
  179.8290  177.5930  141.5270 O   0  0  0  0  0  0  0  0  0  0  0  0
  180.0350  176.3410  141.1710 O   0  0  0  0  0  1  0  0  0  0  0  0
  181.3590  178.9830  140.1240 C   0  0  0  0  0  2  0  0  0  0  0  0
  180.2570  179.8860  139.6810 C   0  0  0  0  0  2  0  0  0  0  0  0
  180.2490  181.0960  140.0070 O   0  0  0  0  0  0  0  0  0  0  0  0
  180.2700  181.2290  140.0550 O   0  0  0  0  0 15  0  0  0  0  0  0
  181.6720  177.9760  139.0300 C   0  0  0  0  0  2  0  0  0  0  0  0
  184.0740  178.0350  138.9660 O   0  0  0  0  0  0  0  0  0  0  0  0
  183.7440  177.2740  137.8310 C   0  0  0  0  0  0  0  0  0  0  0  0
  184.6730  177.4570  136.8050 O   0  0  0  0  0  1  0  0  0  0  0  0
  183.4090  175.9600  138.1700 O   0  0  0  0  0  1  0  0  0  0  0  0
  182.9080  178.4190  138.2600 C   0  0  1  0  0  3  0  0  0  0  0  0
  191.9960  177.9520  142.6140 O   0  0  0  0  0  0  0  0  0  0  0  0
  191.6120  176.7940  144.9910 C   0  0  0  0  0  1  0  0  0  0  0  0
  190.1320  178.7740  143.9640 O   0  0  0  0  0  0  0  0  0  0  0  0
  190.8910  177.5460  143.5470 S   0  0  0  0  0  0  0  0  0  0  0  0
  190.4740  176.1160  137.7160 C   0  0  0  0  0  2  0  0  0  0  0  0
  191.1570  174.8830  138.0880 N   0  0  0  0  0  2  0  0  0  0  0  0
  194.8030  175.1690  137.9680 C   0  0  0  0  0  0  0  0  0  0  0  0
  193.4420  175.3850  138.2120 O   0  0  0  0  0  0  0  0  0  0  0  0
  192.4210  174.8520  137.3730 C   0  0  2  0  0  3  0  0  0  0  0  0
  192.2930  175.6570  136.0880 C   0  0  0  0  0  2  0  0  0  0  0  0
  195.3540  175.5300  136.8470 N   0  0  0  0  0  0  0  0  0  0  0  0
  193.5140  175.4630  135.2090 C   0  0  0  0  0  2  0  0  0  0  0  0
  194.6810  176.2530  135.7740 C   0  0  0  0  0  2  0  0  0  0  0  0
  195.7840  173.3150  139.0360 O   0  0  0  0  0  0  0  0  0  0  0  0
  195.6210  174.5630  139.0440 C   0  0  0  0  0  0  0  0  0  0  0  0
  196.2010  175.3000  140.0880 O   0  0  0  0  0  0  0  0  0  0  0  0
  198.3630  175.6930  139.3950 O   0  0  0  0  0  1  0  0  0  0  0  0
  197.5740  175.2380  140.4520 C   0  0  0  0  0  2  0  0  0  0  0  0
  1  9  2  0  0  0  0
  2  9  1  0  0  0  0
  2 12  1  1  0  0  0
  3  7  1  0  0  0  0
  4 36  1  1  0  0  0
  4  1  1  0  0  0  0
  5  2  1  0  0  0  0
  6  7  2  0  0  0  0
  6  5  1  0  0  0  0
  7  4  1  0  0  0  0
  8  3  1  0  0  0  0
 10  8  2  0  0  0  0
 11 16  1  0  0  0  0
 12 18  2  0  0  0  0
 13 20  1  6  0  0  0
 13 19  1  0  0  0  0
 14 11  1  6  0  0  0
 14 13  1  0  0  0  0
 14 17  1  0  0  0  0
 16 17  1  0  0  0  0
 16 12  1  0  0  0  0
 17 15  1  1  0  0  0
 19 15  1  0  0  0  0
 20 23  1  6  0  0  0
 20 21  1  0  0  0  0
 22 21  1  0  0  0  0
 24 25  2  0  0  0  0
 27 23  1  0  0  0  0
 29 31  1  0  0  0  0
 29 32  1  0  0  0  0
 29 28  1  0  0  0  0
 30 29  1  0  0  0  0
 32 28  1  0  0  0  0
 32 27  1  1  0  0  0
 33 36  2  0  0  0  0
 36 35  2  0  0  0  0
 36 34  1  0  0  0  0
 37 38  1  0  0  0  0
 37  8  1  0  0  0  0
 39 40  1  0  0  0  0
 39 47  1  0  0  0  0
 41 38  1  1  0  0  0
 41 40  1  0  0  0  0
 42 41  1  0  0  0  0
 43 39  2  0  0  0  0
 44 45  1  0  0  0  0
 44 42  1  0  0  0  0
 45 43  1  0  0  0  0
 46 47  2  0  0  0  0
 47 48  1  0  0  0  0
 48 50  1  0  0  0  0
 49 50  1  0  0  0  0
M  END
>  <MODEL>
5

>  <REMARK>
 VINA RESULT:      -7.1      3.393      7.851
  Name = 
  14 active torsions:
  status: ('A' for Active; 'I' for Inactive)
    1  A    between atoms: O_2  and  C_38
    2  A    between atoms: O_2  and  C_40
    3  A    between atoms: C_6  and  C_38
    4  A    between atoms: O_7  and  C_12
    5  A    between atoms: C_10  and  C_21
    6  A    between atoms: C_11  and  C_39
    7  A    between atoms: C_11  and  C_43
    8  A    between atoms: C_12  and  C_14
    9  A    between atoms: C_12  and  C_43
   10  A    between atoms: C_13  and  N_35
   11  A    between atoms: C_19  and  C_43
   12  A    between atoms: C_33  and  S_47
   13  A    between atoms: N_35  and  C_50
   14  A    between atoms: C_46  and  C_50
                            x       y       z     vdW  Elec       q    Type
                         _______ _______ _______ _____ _____    ______ ____

>  <TORSDO>
F 14

$$$$
=
 OpenBabel11062412543D

 50 52  0  0  1  0  0  0  0  0999 V2000
  189.0610  178.1810  136.0010 C   0  0  0  0  0  3  0  0  0  0  0  0
  186.7190  177.4300  136.7160 C   0  0  1  0  0  3  0  0  0  0  0  0
  190.2500  177.1560  139.3120 N   0  0  0  0  0  2  0  0  0  0  0  0
  189.8930  177.2290  136.8240 C   0  0  1  0  0  3  0  0  0  0  0  0
  187.2580  176.1370  137.3110 C   0  0  0  0  0  2  0  0  0  0  0  0
  188.1890  176.4280  138.3900 N   0  0  0  0  0  0  0  0  0  0  0  0
  189.3710  176.9390  138.2020 C   0  0  0  0  0  0  0  0  0  0  0  0
  189.8610  177.1320  140.6900 C   0  0  0  0  0  0  0  0  0  0  0  0
  187.7200  178.2390  135.9310 C   0  0  0  0  0  3  0  0  0  0  0  0
  188.6460  177.1450  141.0200 O   0  0  0  0  0  0  0  0  0  0  0  0
  183.7350  176.6870  137.8500 C   0  0  0  0  0  2  0  0  0  0  0  0
  185.5200  177.1440  135.8710 C   0  0  0  0  0  0  0  0  0  0  0  0
  181.3460  177.4820  137.5910 C   0  0  2  0  0  3  0  0  0  0  0  0
  182.3400  176.3330  137.4350 C   0  0  1  0  0  3  0  0  0  0  0  0
  182.2370  177.6630  135.3840 C   0  0  0  0  0  2  0  0  0  0  0  0
  184.2740  176.8340  136.4870 N   0  0  0  0  0  0  0  0  0  0  0  0
  182.9130  176.4700  136.0590 C   0  0  1  0  0  3  0  0  0  0  0  0
  185.6110  177.1610  134.6150 O   0  0  0  0  0  0  0  0  0  0  0  0
  181.6230  178.4880  136.4930 C   0  0  0  0  0  2  0  0  0  0  0  0
  181.2090  178.0450  139.0180 C   0  0  1  0  0  3  0  0  0  0  0  0
  181.2910  177.1250  140.0860 O   0  0  0  0  0  0  0  0  0  0  0  0
  180.2430  176.3310  139.9950 O   0  0  0  0  0  1  0  0  0  0  0  0
  181.8550  179.4180  139.2700 C   0  0  0  0  0  2  0  0  0  0  0  0
  181.4810  180.4540  138.2630 C   0  0  0  0  0  2  0  0  0  0  0  0
  181.1550  181.6100  138.6230 O   0  0  0  0  0  0  0  0  0  0  0  0
  181.1220  181.7340  138.6870 O   0  0  0  0  0 15  0  0  0  0  0  0
  183.3670  179.2840  139.3340 C   0  0  0  0  0  2  0  0  0  0  0  0
  184.3260  177.9650  141.1000 O   0  0  0  0  0  0  0  0  0  0  0  0
  185.2720  178.9880  140.9170 C   0  0  0  0  0  0  0  0  0  0  0  0
  185.9160  179.3080  142.1140 O   0  0  0  0  0  1  0  0  0  0  0  0
  186.0740  178.7560  139.7960 O   0  0  0  0  0  1  0  0  0  0  0  0
  183.8200  179.2500  140.7860 C   0  0  1  0  0  3  0  0  0  0  0  0
  190.3430  174.5840  136.8400 O   0  0  0  0  0  0  0  0  0  0  0  0
  192.0190  175.9160  135.2430 C   0  0  0  0  0  1  0  0  0  0  0  0
  189.4110  175.5220  134.7840 O   0  0  0  0  0  0  0  0  0  0  0  0
  190.3750  175.7640  135.9110 S   0  0  0  0  0  0  0  0  0  0  0  0
  190.9120  177.1420  141.7450 C   0  0  0  0  0  2  0  0  0  0  0  0
  190.5690  178.1250  142.7650 N   0  0  0  0  0  2  0  0  0  0  0  0
  188.6690  177.5360  145.8370 C   0  0  0  0  0  0  0  0  0  0  0  0
  189.3750  178.1240  144.7810 O   0  0  0  0  0  0  0  0  0  0  0  0
  190.3250  177.4030  144.0020 C   0  0  2  0  0  3  0  0  0  0  0  0
  191.6380  177.2360  144.7540 C   0  0  0  0  0  2  0  0  0  0  0  0
  189.2870  176.9990  146.8470 N   0  0  0  0  0  0  0  0  0  0  0  0
  191.4650  176.2970  145.9330 C   0  0  0  0  0  2  0  0  0  0  0  0
  190.7310  177.0120  147.0530 C   0  0  0  0  0  2  0  0  0  0  0  0
  186.5860  176.8090  145.0170 O   0  0  0  0  0  0  0  0  0  0  0  0
  187.1900  177.5850  145.8030 C   0  0  0  0  0  0  0  0  0  0  0  0
  186.4230  178.4680  146.5790 O   0  0  0  0  0  0  0  0  0  0  0  0
  184.4690  179.1570  145.5710 O   0  0  0  0  0  1  0  0  0  0  0  0
  185.0030  178.4530  146.6510 C   0  0  0  0  0  2  0  0  0  0  0  0
  1  4  1  0  0  0  0
  2 12  1  6  0  0  0
  2  5  1  0  0  0  0
  3  8  1  0  0  0  0
  4 36  1  6  0  0  0
  4  7  1  0  0  0  0
  5  6  1  0  0  0  0
  7  6  2  0  0  0  0
  7  3  1  0  0  0  0
  8 10  2  0  0  0  0
  8 37  1  0  0  0  0
  9  1  2  0  0  0  0
  9  2  1  0  0  0  0
 12 16  1  0  0  0  0
 13 20  1  1  0  0  0
 14 13  1  0  0  0  0
 14 11  1  1  0  0  0
 15 19  1  0  0  0  0
 16 11  1  0  0  0  0
 17 15  1  6  0  0  0
 17 16  1  0  0  0  0
 17 14  1  0  0  0  0
 18 12  2  0  0  0  0
 19 13  1  0  0  0  0
 20 23  1  1  0  0  0
 20 21  1  0  0  0  0
 22 21  1  0  0  0  0
 23 27  1  0  0  0  0
 24 25  2  0  0  0  0
 29 28  1  0  0  0  0
 29 30  1  0  0  0  0
 31 29  1  0  0  0  0
 32 27  1  6  0  0  0
 32 29  1  0  0  0  0
 32 28  1  0  0  0  0
 34 36  1  0  0  0  0
 35 36  2  0  0  0  0
 36 33  2  0  0  0  0
 37 38  1  0  0  0  0
 39 43  2  0  0  0  0
 40 39  1  0  0  0  0
 41 38  1  6  0  0  0
 41 42  1  0  0  0  0
 41 40  1  0  0  0  0
 42 44  1  0  0  0  0
 43 45  1  0  0  0  0
 44 45  1  0  0  0  0
 46 47  2  0  0  0  0
 47 39  1  0  0  0  0
 47 48  1  0  0  0  0
 48 50  1  0  0  0  0
 49 50  1  0  0  0  0
M  END
>  <MODEL>
6

>  <REMARK>
 VINA RESULT:      -7.1      1.199      2.699
  Name = 
  14 active torsions:
  status: ('A' for Active; 'I' for Inactive)
    1  A    between atoms: O_2  and  C_38
    2  A    between atoms: O_2  and  C_40
    3  A    between atoms: C_6  and  C_38
    4  A    between atoms: O_7  and  C_12
    5  A    between atoms: C_10  and  C_21
    6  A    between atoms: C_11  and  C_39
    7  A    between atoms: C_11  and  C_43
    8  A    between atoms: C_12  and  C_14
    9  A    between atoms: C_12  and  C_43
   10  A    between atoms: C_13  and  N_35
   11  A    between atoms: C_19  and  C_43
   12  A    between atoms: C_33  and  S_47
   13  A    between atoms: N_35  and  C_50
   14  A    between atoms: C_46  and  C_50
                            x       y       z     vdW  Elec       q    Type
                         _______ _______ _______ _____ _____    ______ ____

>  <TORSDO>
F 14

$$$$
=
 OpenBabel11062412543D

 50 52  0  0  1  0  0  0  0  0999 V2000
  189.7680  177.8850  136.6550 C   0  0  0  0  0  3  0  0  0  0  0  0
  187.5090  176.9070  137.3620 C   0  0  1  0  0  3  0  0  0  0  0  0
  191.0210  177.0400  139.9940 N   0  0  0  0  0  2  0  0  0  0  0  0
  190.6850  177.0380  137.5020 C   0  0  1  0  0  3  0  0  0  0  0  0
  188.1730  175.6860  137.9830 C   0  0  0  0  0  2  0  0  0  0  0  0
  189.0560  176.0890  139.0660 N   0  0  0  0  0  0  0  0  0  0  0  0
  190.1810  176.7160  138.8800 C   0  0  0  0  0  0  0  0  0  0  0  0
  190.6220  176.9970  141.3690 C   0  0  0  0  0  0  0  0  0  0  0  0
  188.4290  177.8030  136.5730 C   0  0  0  0  0  3  0  0  0  0  0  0
  189.4090  176.8900  141.6870 O   0  0  0  0  0  0  0  0  0  0  0  0
  184.3650  176.9240  138.2880 C   0  0  0  0  0  2  0  0  0  0  0  0
  186.3540  176.4850  136.5110 C   0  0  0  0  0  0  0  0  0  0  0  0
  182.1470  177.8420  137.4850 C   0  0  2  0  0  3  0  0  0  0  0  0
  182.9720  176.6060  137.8380 C   0  0  1  0  0  3  0  0  0  0  0  0
  183.2340  177.1650  135.4700 C   0  0  0  0  0  2  0  0  0  0  0  0
  185.0300  176.5410  137.0320 N   0  0  0  0  0  0  0  0  0  0  0  0
  183.6710  176.2050  136.5760 C   0  0  1  0  0  3  0  0  0  0  0  0
  186.5500  176.0650  135.3410 O   0  0  0  0  0  0  0  0  0  0  0  0
  182.6580  178.3790  136.1640 C   0  0  0  0  0  2  0  0  0  0  0  0
  181.9760  178.8670  138.6220 C   0  0  1  0  0  3  0  0  0  0  0  0
  182.7550  180.0430  138.5540 O   0  0  0  0  0  0  0  0  0  0  0  0
  183.6970  179.9370  139.4690 O   0  0  0  0  0  1  0  0  0  0  0  0
  180.5490  179.0440  139.1660 C   0  0  0  0  0  2  0  0  0  0  0  0
  179.6290  179.7500  138.2270 C   0  0  0  0  0  2  0  0  0  0  0  0
  178.9970  179.1160  137.3500 O   0  0  0  0  0  0  0  0  0  0  0  0
  178.9350  179.0230  137.2600 O   0  0  0  0  0 15  0  0  0  0  0  0
  180.5810  179.7700  140.5000 C   0  0  0  0  0  2  0  0  0  0  0  0
  179.9630  177.7170  141.5870 O   0  0  0  0  0  0  0  0  0  0  0  0
  180.3460  178.5410  142.6590 C   0  0  0  0  0  0  0  0  0  0  0  0
  179.6200  178.2470  143.8140 O   0  0  0  0  0  1  0  0  0  0  0  0
  181.7360  178.6250  142.7750 O   0  0  0  0  0  1  0  0  0  0  0  0
  179.6360  179.0910  141.4800 C   0  0  1  0  0  3  0  0  0  0  0  0
  191.4370  174.4630  137.5740 O   0  0  0  0  0  0  0  0  0  0  0  0
  192.9360  175.9410  135.9290 C   0  0  0  0  0  1  0  0  0  0  0  0
  190.3880  175.2370  135.5060 O   0  0  0  0  0  0  0  0  0  0  0  0
  191.3260  175.6160  136.6170 S   0  0  0  0  0  0  0  0  0  0  0  0
  191.6550  177.1330  142.4320 C   0  0  0  0  0  2  0  0  0  0  0  0
  191.2720  178.1980  143.3510 N   0  0  0  0  0  2  0  0  0  0  0  0
  188.2980  177.8680  145.4580 C   0  0  0  0  0  0  0  0  0  0  0  0
  189.3800  178.3660  144.7230 O   0  0  0  0  0  0  0  0  0  0  0  0
  190.5390  177.5850  144.4460 C   0  0  2  0  0  3  0  0  0  0  0  0
  191.4430  177.4950  145.6680 C   0  0  0  0  0  2  0  0  0  0  0  0
  188.4510  177.4270  146.6720 N   0  0  0  0  0  0  0  0  0  0  0  0
  190.7930  176.6630  146.7560 C   0  0  0  0  0  2  0  0  0  0  0  0
  189.6970  177.4690  147.4300 C   0  0  0  0  0  2  0  0  0  0  0  0
  186.6990  177.0760  143.9230 O   0  0  0  0  0  0  0  0  0  0  0  0
  186.9540  177.9030  144.8370 C   0  0  0  0  0  0  0  0  0  0  0  0
  185.9570  178.8250  145.1940 O   0  0  0  0  0  0  0  0  0  0  0  0
  183.7850  178.9860  145.9470 O   0  0  0  0  0  1  0  0  0  0  0  0
  184.5860  178.7050  144.8390 C   0  0  0  0  0  2  0  0  0  0  0  0
  1  4  1  0  0  0  0
  2 12  1  6  0  0  0
  2  5  1  0  0  0  0
  3  8  1  0  0  0  0
  4 36  1  6  0  0  0
  4  7  1  0  0  0  0
  5  6  1  0  0  0  0
  7  6  2  0  0  0  0
  7  3  1  0  0  0  0
  8 10  2  0  0  0  0
  8 37  1  0  0  0  0
  9  1  2  0  0  0  0
  9  2  1  0  0  0  0
 12 16  1  0  0  0  0
 13 14  1  0  0  0  0
 13 20  1  1  0  0  0
 14 11  1  1  0  0  0
 15 19  1  0  0  0  0
 16 11  1  0  0  0  0
 17 15  1  6  0  0  0
 17 16  1  0  0  0  0
 17 14  1  0  0  0  0
 18 12  2  0  0  0  0
 19 13  1  0  0  0  0
 20 23  1  6  0  0  0
 21 20  1  0  0  0  0
 21 22  1  0  0  0  0
 23 27  1  0  0  0  0
 25 24  2  0  0  0  0
 28 29  1  0  0  0  0
 29 31  1  0  0  0  0
 29 30  1  0  0  0  0
 32 27  1  6  0  0  0
 32 28  1  0  0  0  0
 32 29  1  0  0  0  0
 34 36  1  0  0  0  0
 35 36  2  0  0  0  0
 36 33  2  0  0  0  0
 37 38  1  0  0  0  0
 39 43  2  0  0  0  0
 40 39  1  0  0  0  0
 41 38  1  6  0  0  0
 41 40  1  0  0  0  0
 41 42  1  0  0  0  0
 42 44  1  0  0  0  0
 43 45  1  0  0  0  0
 44 45  1  0  0  0  0
 46 47  2  0  0  0  0
 47 48  1  0  0  0  0
 47 39  1  0  0  0  0
 50 48  1  0  0  0  0
 50 49  1  0  0  0  0
M  END
>  <MODEL>
7

>  <REMARK>
 VINA RESULT:      -6.7      1.701      2.921
  Name = 
  14 active torsions:
  status: ('A' for Active; 'I' for Inactive)
    1  A    between atoms: O_2  and  C_38
    2  A    between atoms: O_2  and  C_40
    3  A    between atoms: C_6  and  C_38
    4  A    between atoms: O_7  and  C_12
    5  A    between atoms: C_10  and  C_21
    6  A    between atoms: C_11  and  C_39
    7  A    between atoms: C_11  and  C_43
    8  A    between atoms: C_12  and  C_14
    9  A    between atoms: C_12  and  C_43
   10  A    between atoms: C_13  and  N_35
   11  A    between atoms: C_19  and  C_43
   12  A    between atoms: C_33  and  S_47
   13  A    between atoms: N_35  and  C_50
   14  A    between atoms: C_46  and  C_50
                            x       y       z     vdW  Elec       q    Type
                         _______ _______ _______ _____ _____    ______ ____

>  <TORSDO>
F 14

$$$$
=
 OpenBabel11062412543D

 50 52  0  0  1  0  0  0  0  0999 V2000
  189.4510  177.5230  136.2960 C   0  0  0  0  0  3  0  0  0  0  0  0
  187.5300  175.9310  136.8770 C   0  0  1  0  0  3  0  0  0  0  0  0
  190.5960  177.1810  139.7600 N   0  0  0  0  0  2  0  0  0  0  0  0
  190.4990  177.0120  137.2530 C   0  0  1  0  0  3  0  0  0  0  0  0
  188.4680  174.9820  137.6100 C   0  0  0  0  0  2  0  0  0  0  0  0
  189.0930  175.6600  138.7350 N   0  0  0  0  0  0  0  0  0  0  0  0
  189.9930  176.5910  138.6030 C   0  0  0  0  0  0  0  0  0  0  0  0
  190.1080  177.0580  141.1000 C   0  0  0  0  0  0  0  0  0  0  0  0
  188.2090  177.0400  136.1150 C   0  0  0  0  0  3  0  0  0  0  0  0
  188.9580  176.6000  141.3300 O   0  0  0  0  0  0  0  0  0  0  0  0
  184.4180  175.1210  137.5130 C   0  0  0  0  0  2  0  0  0  0  0  0
  186.6330  175.1590  135.9630 C   0  0  0  0  0  0  0  0  0  0  0  0
  182.1350  175.3410  136.4420 C   0  0  2  0  0  3  0  0  0  0  0  0
  183.2220  174.4040  136.9670 C   0  0  1  0  0  3  0  0  0  0  0  0
  183.5770  174.8870  134.5950 C   0  0  0  0  0  2  0  0  0  0  0  0
  185.2940  174.8720  136.3570 N   0  0  0  0  0  0  0  0  0  0  0  0
  184.1360  174.1470  135.8100 C   0  0  1  0  0  3  0  0  0  0  0  0
  187.0620  174.7480  134.8530 O   0  0  0  0  0  0  0  0  0  0  0  0
  182.6210  175.9280  135.1330 C   0  0  0  0  0  2  0  0  0  0  0  0
  181.5700  176.3370  137.4720 C   0  0  1  0  0  3  0  0  0  0  0  0
  180.4970  177.1560  137.0570 O   0  0  0  0  0  0  0  0  0  0  0  0
  181.0180  178.2850  136.6200 O   0  0  0  0  0  1  0  0  0  0  0  0
  181.5080  175.8450  138.9280 C   0  0  0  0  0  2  0  0  0  0  0  0
  180.2100  175.2070  139.2930 C   0  0  0  0  0  2  0  0  0  0  0  0
  179.8920  175.0400  140.4950 O   0  0  0  0  0  0  0  0  0  0  0  0
  179.8780  175.0330  140.6370 O   0  0  0  0  0 15  0  0  0  0  0  0
  181.8090  176.9870  139.8830 C   0  0  0  0  0  2  0  0  0  0  0  0
  182.6020  179.1650  139.2460 O   0  0  0  0  0  0  0  0  0  0  0  0
  183.4340  178.8270  140.3270 C   0  0  0  0  0  0  0  0  0  0  0  0
  184.7070  179.3810  140.1840 O   0  0  0  0  0  1  0  0  0  0  0  0
  182.7870  179.0060  141.5530 O   0  0  0  0  0  1  0  0  0  0  0  0
  182.9790  177.8040  139.3560 C   0  0  1  0  0  3  0  0  0  0  0  0
  191.8510  174.7050  137.4660 O   0  0  0  0  0  0  0  0  0  0  0  0
  193.1740  176.5630  136.0750 C   0  0  0  0  0  1  0  0  0  0  0  0
  190.9850  175.2630  135.2490 O   0  0  0  0  0  0  0  0  0  0  0  0
  191.6090  175.8250  136.4950 S   0  0  0  0  0  0  0  0  0  0  0  0
  190.9550  177.5260  142.2310 C   0  0  0  0  0  2  0  0  0  0  0  0
  191.4810  176.3750  142.9550 N   0  0  0  0  0  2  0  0  0  0  0  0
  188.8770  177.4880  145.2730 C   0  0  0  0  0  0  0  0  0  0  0  0
  189.9310  177.4390  144.3530 O   0  0  0  0  0  0  0  0  0  0  0  0
  190.7830  176.3040  144.2270 C   0  0  2  0  0  3  0  0  0  0  0  0
  191.8000  176.2540  145.3580 C   0  0  0  0  0  2  0  0  0  0  0  0
  189.0850  177.3380  146.5480 N   0  0  0  0  0  0  0  0  0  0  0  0
  191.1190  175.9530  146.6800 C   0  0  0  0  0  2  0  0  0  0  0  0
  190.3940  177.1920  147.1750 C   0  0  0  0  0  2  0  0  0  0  0  0
  187.1620  177.2300  143.6830 O   0  0  0  0  0  0  0  0  0  0  0  0
  187.5150  177.7680  144.7640 C   0  0  0  0  0  0  0  0  0  0  0  0
  186.6060  178.6230  145.4060 O   0  0  0  0  0  0  0  0  0  0  0  0
  185.5210  179.0840  147.3870 O   0  0  0  0  0  1  0  0  0  0  0  0
  185.6010  178.1930  146.3160 C   0  0  0  0  0  2  0  0  0  0  0  0
  1  4  1  0  0  0  0
  2 12  1  6  0  0  0
  2  5  1  0  0  0  0
  3  8  1  0  0  0  0
  4 36  1  6  0  0  0
  4  7  1  0  0  0  0
  5  6  1  0  0  0  0
  7  6  2  0  0  0  0
  7  3  1  0  0  0  0
  8 10  2  0  0  0  0
  8 37  1  0  0  0  0
  9  1  2  0  0  0  0
  9  2  1  0  0  0  0
 12 16  1  0  0  0  0
 13 14  1  0  0  0  0
 13 20  1  1  0  0  0
 14 11  1  1  0  0  0
 15 19  1  0  0  0  0
 16 11  1  0  0  0  0
 17 15  1  6  0  0  0
 17 16  1  0  0  0  0
 17 14  1  0  0  0  0
 18 12  2  0  0  0  0
 19 13  1  0  0  0  0
 20 23  1  1  0  0  0
 21 20  1  0  0  0  0
 22 21  1  0  0  0  0
 23 27  1  0  0  0  0
 24 25  2  0  0  0  0
 28 32  1  0  0  0  0
 28 29  1  0  0  0  0
 29 31  1  0  0  0  0
 30 29  1  0  0  0  0
 32 27  1  1  0  0  0
 32 29  1  0  0  0  0
 34 36  1  0  0  0  0
 35 36  2  0  0  0  0
 36 33  2  0  0  0  0
 37 38  1  0  0  0  0
 39 43  2  0  0  0  0
 40 39  1  0  0  0  0
 41 38  1  6  0  0  0
 41 40  1  0  0  0  0
 41 42  1  0  0  0  0
 42 44  1  0  0  0  0
 43 45  1  0  0  0  0
 44 45  1  0  0  0  0
 46 47  2  0  0  0  0
 47 39  1  0  0  0  0
 47 48  1  0  0  0  0
 48 50  1  0  0  0  0
 50 49  1  0  0  0  0
M  END
>  <MODEL>
8

>  <REMARK>
 VINA RESULT:      -5.8      2.168      3.023
  Name = 
  14 active torsions:
  status: ('A' for Active; 'I' for Inactive)
    1  A    between atoms: O_2  and  C_38
    2  A    between atoms: O_2  and  C_40
    3  A    between atoms: C_6  and  C_38
    4  A    between atoms: O_7  and  C_12
    5  A    between atoms: C_10  and  C_21
    6  A    between atoms: C_11  and  C_39
    7  A    between atoms: C_11  and  C_43
    8  A    between atoms: C_12  and  C_14
    9  A    between atoms: C_12  and  C_43
   10  A    between atoms: C_13  and  N_35
   11  A    between atoms: C_19  and  C_43
   12  A    between atoms: C_33  and  S_47
   13  A    between atoms: N_35  and  C_50
   14  A    between atoms: C_46  and  C_50
                            x       y       z     vdW  Elec       q    Type
                         _______ _______ _______ _____ _____    ______ ____

>  <TORSDO>
F 14

$$$$
=
 OpenBabel11062412543D

 50 52  0  0  1  0  0  0  0  0999 V2000
  190.1300  177.9960  136.7030 C   0  0  0  0  0  3  0  0  0  0  0  0
  187.7500  177.1670  137.1620 C   0  0  1  0  0  3  0  0  0  0  0  0
  191.0200  176.8800  140.0770 N   0  0  0  0  0  2  0  0  0  0  0  0
  190.9030  177.0350  137.5710 C   0  0  1  0  0  3  0  0  0  0  0  0
  188.2640  175.8660  137.7630 C   0  0  0  0  0  2  0  0  0  0  0  0
  189.0780  176.1390  138.9360 N   0  0  0  0  0  0  0  0  0  0  0  0
  190.2580  176.6830  138.8810 C   0  0  0  0  0  0  0  0  0  0  0  0
  190.5020  176.7970  141.4100 C   0  0  0  0  0  0  0  0  0  0  0  0
  188.8010  178.0260  136.5050 C   0  0  0  0  0  3  0  0  0  0  0  0
  189.2610  176.7710  141.6200 O   0  0  0  0  0  0  0  0  0  0  0  0
  184.6130  176.6620  137.9630 C   0  0  0  0  0  2  0  0  0  0  0  0
  186.6460  176.8840  136.1950 C   0  0  0  0  0  0  0  0  0  0  0  0
  182.3240  177.5600  137.3600 C   0  0  2  0  0  3  0  0  0  0  0  0
  183.2580  176.3520  137.4030 C   0  0  1  0  0  3  0  0  0  0  0  0
  183.4820  177.5360  135.2730 C   0  0  0  0  0  2  0  0  0  0  0  0
  185.3180  176.6830  136.6710 N   0  0  0  0  0  0  0  0  0  0  0  0
  183.9990  176.3610  136.1020 C   0  0  1  0  0  3  0  0  0  0  0  0
  186.8870  176.8060  134.9620 O   0  0  0  0  0  0  0  0  0  0  0  0
  182.7910  178.4690  136.2420 C   0  0  0  0  0  2  0  0  0  0  0  0
  182.0510  178.2300  138.7200 C   0  0  1  0  0  3  0  0  0  0  0  0
  182.9470  179.2410  139.1330 O   0  0  0  0  0  0  0  0  0  0  0  0
  183.4640  178.8550  140.2810 O   0  0  0  0  0  1  0  0  0  0  0  0
  180.5730  178.4620  139.0770 C   0  0  0  0  0  2  0  0  0  0  0  0
  179.8670  177.2340  139.5460 C   0  0  0  0  0  2  0  0  0  0  0  0
  180.2740  176.6030  140.5500 O   0  0  0  0  0  0  0  0  0  0  0  0
  180.3380  176.5490  140.6660 O   0  0  0  0  0 15  0  0  0  0  0  0
  179.8340  179.0630  137.8940 C   0  0  0  0  0  2  0  0  0  0  0  0
  179.8320  181.0270  139.2790 O   0  0  0  0  0  0  0  0  0  0  0  0
  179.7590  181.5550  137.9790 C   0  0  0  0  0  0  0  0  0  0  0  0
  179.0340  182.7480  137.9520 O   0  0  0  0  0  1  0  0  0  0  0  0
  181.0040  181.5420  137.3450 O   0  0  0  0  0  1  0  0  0  0  0  0
  179.0640  180.2960  138.3400 C   0  0  1  0  0  3  0  0  0  0  0  0
  191.6010  174.4440  137.5960 O   0  0  0  0  0  0  0  0  0  0  0  0
  193.1220  175.9170  135.9680 C   0  0  0  0  0  1  0  0  0  0  0  0
  190.5580  175.2740  135.5480 O   0  0  0  0  0  0  0  0  0  0  0  0
  191.5090  175.6150  136.6590 S   0  0  0  0  0  0  0  0  0  0  0  0
  191.4460  176.7940  142.5610 C   0  0  0  0  0  2  0  0  0  0  0  0
  191.1550  177.9250  143.4330 N   0  0  0  0  0  2  0  0  0  0  0  0
  188.0440  177.9830  145.3600 C   0  0  0  0  0  0  0  0  0  0  0  0
  189.2100  178.3390  144.6730 O   0  0  0  0  0  0  0  0  0  0  0  0
  190.3030  177.4400  144.5060 C   0  0  2  0  0  3  0  0  0  0  0  0
  191.1200  177.3270  145.7850 C   0  0  0  0  0  2  0  0  0  0  0  0
  188.0820  177.5910  146.5990 N   0  0  0  0  0  0  0  0  0  0  0  0
  190.3290  176.6150  146.8660 C   0  0  0  0  0  2  0  0  0  0  0  0
  189.2780  177.5540  147.4320 C   0  0  0  0  0  2  0  0  0  0  0  0
  186.5660  177.4290  143.6140 O   0  0  0  0  0  0  0  0  0  0  0  0
  186.7480  178.1130  144.6540 C   0  0  0  0  0  0  0  0  0  0  0  0
  185.7220  178.9780  145.0660 O   0  0  0  0  0  0  0  0  0  0  0  0
  183.5870  178.8740  145.9270 O   0  0  0  0  0  1  0  0  0  0  0  0
  184.3460  178.7980  144.7580 C   0  0  0  0  0  2  0  0  0  0  0  0
  1  4  1  0  0  0  0
  2 12  1  6  0  0  0
  2  5  1  0  0  0  0
  3  8  1  0  0  0  0
  4 36  1  6  0  0  0
  4  7  1  0  0  0  0
  5  6  1  0  0  0  0
  7  6  2  0  0  0  0
  7  3  1  0  0  0  0
  8 10  2  0  0  0  0
  8 37  1  0  0  0  0
  9  1  2  0  0  0  0
  9  2  1  0  0  0  0
 12 16  1  0  0  0  0
 13 14  1  0  0  0  0
 13 20  1  1  0  0  0
 14 11  1  1  0  0  0
 15 19  1  0  0  0  0
 16 11  1  0  0  0  0
 17 15  1  6  0  0  0
 17 16  1  0  0  0  0
 17 14  1  0  0  0  0
 18 12  2  0  0  0  0
 19 13  1  0  0  0  0
 20 23  1  6  0  0  0
 20 21  1  0  0  0  0
 21 22  1  0  0  0  0
 24 25  2  0  0  0  0
 27 23  1  0  0  0  0
 29 32  1  0  0  0  0
 29 28  1  0  0  0  0
 30 29  1  0  0  0  0
 31 29  1  0  0  0  0
 32 27  1  6  0  0  0
 32 28  1  0  0  0  0
 34 36  1  0  0  0  0
 35 36  2  0  0  0  0
 36 33  2  0  0  0  0
 37 38  1  0  0  0  0
 39 43  2  0  0  0  0
 40 39  1  0  0  0  0
 41 38  1  6  0  0  0
 41 40  1  0  0  0  0
 41 42  1  0  0  0  0
 42 44  1  0  0  0  0
 43 45  1  0  0  0  0
 44 45  1  0  0  0  0
 46 47  2  0  0  0  0
 47 48  1  0  0  0  0
 47 39  1  0  0  0  0
 50 48  1  0  0  0  0
 50 49  1  0  0  0  0
M  END
>  <MODEL>
9

>  <REMARK>
 VINA RESULT:      -5.8      1.347      2.081
  Name = 
  14 active torsions:
  status: ('A' for Active; 'I' for Inactive)
    1  A    between atoms: O_2  and  C_38
    2  A    between atoms: O_2  and  C_40
    3  A    between atoms: C_6  and  C_38
    4  A    between atoms: O_7  and  C_12
    5  A    between atoms: C_10  and  C_21
    6  A    between atoms: C_11  and  C_39
    7  A    between atoms: C_11  and  C_43
    8  A    between atoms: C_12  and  C_14
    9  A    between atoms: C_12  and  C_43
   10  A    between atoms: C_13  and  N_35
   11  A    between atoms: C_19  and  C_43
   12  A    between atoms: C_33  and  S_47
   13  A    between atoms: N_35  and  C_50
   14  A    between atoms: C_46  and  C_50
                            x       y       z     vdW  Elec       q    Type
                         _______ _______ _______ _____ _____    ______ ____

>  <TORSDO>
F 14

$$$$
