=
 OpenBabel11062415273D

 37 40  0  0  1  0  0  0  0  0999 V2000
  189.5290  178.6100  145.5980 F   0  0  0  0  0  0  0  0  0  0  0  0
  189.0240  176.4940  146.0530 F   0  0  0  0  0  0  0  0  0  0  0  0
  188.3260  177.3170  143.8730 C   0  0  1  0  0  0  0  0  0  0  0  0
  191.2620  176.9850  143.7690 F   0  0  0  0  0  0  0  0  0  0  0  0
  190.5190  176.1990  142.9020 C   0  0  0  0  0  0  0  0  0  0  0  0
  189.1450  177.0920  140.8810 C   0  0  2  0  0  3  0  0  0  0  0  0
  186.6490  178.9290  145.3150 C   0  0  0  0  0  2  0  0  0  0  0  0
  186.4550  175.8510  144.3290 F   0  0  0  0  0  0  0  0  0  0  0  0
  186.8190  177.0200  143.6790 C   0  0  1  0  0  3  0  0  0  0  0  0
  189.8950  179.1220  143.2090 F   0  0  0  0  0  0  0  0  0  0  0  0
  188.4670  178.3440  141.4520 C   0  0  0  0  0  2  0  0  0  0  0  0
  185.9410  178.1680  144.1940 C   0  0  0  0  0  2  0  0  0  0  0  0
  187.3840  178.0280  146.1040 O   0  0  0  0  0  0  0  0  0  0  0  0
  190.5400  176.7500  141.4510 C   0  0  1  0  0  3  0  0  0  0  0  0
  188.5620  177.6350  145.4130 C   0  0  0  0  0  0  0  0  0  0  0  0
  189.0960  176.0310  143.4570 C   0  0  0  0  0  2  0  0  0  0  0  0
  188.6620  178.5450  142.9620 C   0  0  1  0  0  3  0  0  0  0  0  0
  191.1040  174.9470  142.8710 F   0  0  0  0  0  0  0  0  0  0  0  0
  191.5790  177.8460  141.2190 C   0  0  0  0  0  2  0  0  0  0  0  0
  192.6800  177.3240  140.5380 O   0  0  0  0  0  1  0  0  0  0  0  0
  190.1470  176.4310  138.7820 O   0  0  0  0  0  1  0  0  0  0  0  0
  189.0000  176.9830  139.3590 C   0  0  2  0  0  3  0  0  0  0  0  0
  189.6040  178.7320  137.8060 O   0  0  0  0  0  1  0  0  0  0  0  0
  188.5930  178.2860  138.6660 C   0  0  1  0  0  3  0  0  0  0  0  0
  186.1050  177.4540  138.6720 C   0  0  2  0  0  3  0  0  0  0  0  0
  184.9250  175.9250  136.0580 C   0  0  1  0  0  3  0  0  0  0  0  0
  184.2990  178.0270  137.0430 O   0  0  0  0  0  0  0  0  0  0  0  0
  187.2610  178.1130  137.9270 C   0  0  2  0  0  0  0  0  0  0  0  0
  186.8780  176.6720  137.5750 C   0  0  2  0  0  3  0  0  0  0  0  0
  186.9210  179.0850  136.9770 O   0  0  0  0  0  1  0  0  0  0  0  0
  184.6830  178.0080  138.3880 C   0  0  2  0  0  3  0  0  0  0  0  0
  183.8510  176.7250  136.7880 C   0  0  0  0  0  2  0  0  0  0  0  0
  186.3070  176.5810  136.1500 C   0  0  0  0  0  2  0  0  0  0  0  0
  184.9470  179.6000  140.1100 O   0  0  0  0  0  0  0  0  0  0  0  0
  184.4910  179.3590  139.0030 C   0  0  0  0  0  3  0  0  0  0  0  0
  184.9400  174.5100  136.5450 C   0  0  0  0  0  3  0  0  0  0  0  0
  184.2930  174.1900  137.5290 O   0  0  0  0  0  0  0  0  0  0  0  0
  3 16  1  6  0  0  0
  3 15  1  0  0  0  0
  5 16  1  0  0  0  0
  5  4  1  0  0  0  0
  6 22  1  6  0  0  0
  6 14  1  0  0  0  0
  6 11  1  0  0  0  0
  7 13  1  0  0  0  0
  9  3  1  0  0  0  0
  9 12  1  0  0  0  0
  9  8  1  1  0  0  0
 11 17  1  0  0  0  0
 12  7  1  0  0  0  0
 14 19  1  1  0  0  0
 14  5  1  0  0  0  0
 15  1  1  0  0  0  0
 15  2  1  0  0  0  0
 15 13  1  0  0  0  0
 17 10  1  6  0  0  0
 17  3  1  0  0  0  0
 18  5  1  0  0  0  0
 20 19  1  0  0  0  0
 22 21  1  6  0  0  0
 24 23  1  6  0  0  0
 24 22  1  0  0  0  0
 26 33  1  0  0  0  0
 26 36  1  0  0  0  0
 26 32  1  0  0  0  0
 27 31  1  0  0  0  0
 28 24  1  0  0  0  0
 28 25  1  0  0  0  0
 29 28  1  0  0  0  0
 29 25  1  0  0  0  0
 30 28  1  0  0  0  0
 31 25  1  0  0  0  0
 31 35  1  0  0  0  0
 32 27  1  0  0  0  0
 33 29  1  0  0  0  0
 35 34  2  0  0  0  0
 36 37  2  0  0  0  0
M  END
>  <MODEL>
1

>  <REMARK>
 VINA RESULT:      -6.9      0.000      0.000
  Name = 
  6 active torsions:
  status: ('A' for Active; 'I' for Inactive)
    1  A    between atoms: C_4  and  C_25
    2  A    between atoms: C_5  and  C_28
    3  A    between atoms: C_8  and  C_33
    4  A    between atoms: C_12  and  C_31
    5  A    between atoms: C_21  and  C_32
    6  A    between atoms: C_31  and  C_33
                            x       y       z     vdW  Elec       q    Type
                         _______ _______ _______ _____ _____    ______ ____

>  <TORSDO>
F 6

$$$$
=
 OpenBabel11062415273D

 37 40  0  0  1  0  0  0  0  0999 V2000
  190.5560  176.6770  134.6460 F   0  0  0  0  0  0  0  0  0  0  0  0
  190.3330  174.5090  135.0780 F   0  0  0  0  0  0  0  0  0  0  0  0
  190.5940  175.9650  137.0090 C   0  0  1  0  0  0  0  0  0  0  0  0
  187.8690  176.4140  135.9520 F   0  0  0  0  0  0  0  0  0  0  0  0
  187.9580  175.9030  137.2370 C   0  0  0  0  0  0  0  0  0  0  0  0
  188.8840  177.1950  139.2970 C   0  0  2  0  0  3  0  0  0  0  0  0
  193.1090  176.3900  136.0160 C   0  0  0  0  0  2  0  0  0  0  0  0
  191.8120  174.0430  137.8320 F   0  0  0  0  0  0  0  0  0  0  0  0
  191.7390  175.4250  137.8990 C   0  0  1  0  0  3  0  0  0  0  0  0
  189.7040  178.1990  136.3950 F   0  0  0  0  0  0  0  0  0  0  0  0
  190.1240  177.8990  138.7330 C   0  0  0  0  0  2  0  0  0  0  0  0
  193.0980  176.0130  137.4970 C   0  0  0  0  0  2  0  0  0  0  0  0
  192.3640  175.4460  135.2870 O   0  0  0  0  0  0  0  0  0  0  0  0
  187.7080  176.9910  138.3160 C   0  0  1  0  0  3  0  0  0  0  0  0
  190.9750  175.6660  135.4950 C   0  0  0  0  0  0  0  0  0  0  0  0
  189.3070  175.1880  137.4110 C   0  0  0  0  0  2  0  0  0  0  0  0
  190.4880  177.5000  137.2950 C   0  0  1  0  0  3  0  0  0  0  0  0
  186.9630  174.9550  137.3760 F   0  0  0  0  0  0  0  0  0  0  0  0
  187.1440  178.2980  137.7600 C   0  0  0  0  0  2  0  0  0  0  0  0
  186.0170  178.6810  138.4900 O   0  0  0  0  0  1  0  0  0  0  0  0
  188.4360  179.0870  140.7350 O   0  0  0  0  0  1  0  0  0  0  0  0
  188.5070  177.6920  140.6970 C   0  0  2  0  0  3  0  0  0  0  0  0
  190.5040  177.9600  142.0300 O   0  0  0  0  0  1  0  0  0  0  0  0
  189.3870  177.1410  141.8240 C   0  0  1  0  0  3  0  0  0  0  0  0
  187.9680  178.2090  143.7540 C   0  0  2  0  0  3  0  0  0  0  0  0
  188.3820  177.1690  146.8060 C   0  0  1  0  0  3  0  0  0  0  0  0
  186.4600  177.0390  145.3680 O   0  0  0  0  0  0  0  0  0  0  0  0
  188.5710  176.9660  143.1100 C   0  0  2  0  0  0  0  0  0  0  0  0
  189.2110  177.5240  144.3850 C   0  0  2  0  0  3  0  0  0  0  0  0
  187.8540  175.7720  143.2590 O   0  0  0  0  0  1  0  0  0  0  0  0
  186.5680  178.0500  144.4070 C   0  0  2  0  0  3  0  0  0  0  0  0
  186.9500  177.6210  146.5440 C   0  0  0  0  0  2  0  0  0  0  0  0
  189.0380  176.5530  145.5650 C   0  0  0  0  0  2  0  0  0  0  0  0
  185.6220  178.4300  142.2780 O   0  0  0  0  0  0  0  0  0  0  0  0
  185.4980  177.8980  143.3710 C   0  0  0  0  0  3  0  0  0  0  0  0
  189.1900  178.2970  147.3660 C   0  0  0  0  0  3  0  0  0  0  0  0
  188.9740  178.7070  148.4960 O   0  0  0  0  0  0  0  0  0  0  0  0
  1 15  1  0  0  0  0
  2 15  1  0  0  0  0
  3 17  1  0  0  0  0
  3 16  1  1  0  0  0
  3  9  1  0  0  0  0
  4  5  1  0  0  0  0
  5 18  1  0  0  0  0
  5 16  1  0  0  0  0
  5 14  1  0  0  0  0
  6 22  1  1  0  0  0
  7 12  1  0  0  0  0
  9  8  1  6  0  0  0
 11  6  1  0  0  0  0
 12  9  1  0  0  0  0
 13 15  1  0  0  0  0
 13  7  1  0  0  0  0
 14 19  1  6  0  0  0
 14  6  1  0  0  0  0
 15  3  1  0  0  0  0
 17 10  1  6  0  0  0
 17 11  1  0  0  0  0
 19 20  1  0  0  0  0
 22 21  1  6  0  0  0
 22 24  1  0  0  0  0
 24 23  1  1  0  0  0
 24 28  1  0  0  0  0
 25 29  1  0  0  0  0
 25 31  1  0  0  0  0
 26 36  1  0  0  0  0
 27 32  1  0  0  0  0
 28 30  1  0  0  0  0
 28 25  1  0  0  0  0
 28 29  1  0  0  0  0
 29 33  1  0  0  0  0
 31 27  1  0  0  0  0
 32 26  1  0  0  0  0
 33 26  1  0  0  0  0
 34 35  2  0  0  0  0
 35 31  1  0  0  0  0
 36 37  2  0  0  0  0
M  END
>  <MODEL>
2

>  <REMARK>
 VINA RESULT:      -6.7      3.714      7.922
  Name = 
  6 active torsions:
  status: ('A' for Active; 'I' for Inactive)
    1  A    between atoms: C_4  and  C_25
    2  A    between atoms: C_5  and  C_28
    3  A    between atoms: C_8  and  C_33
    4  A    between atoms: C_12  and  C_31
    5  A    between atoms: C_21  and  C_32
    6  A    between atoms: C_31  and  C_33
                            x       y       z     vdW  Elec       q    Type
                         _______ _______ _______ _____ _____    ______ ____

>  <TORSDO>
F 6

$$$$
=
 OpenBabel11062415273D

 37 40  0  0  1  0  0  0  0  0999 V2000
  189.4780  178.5330  145.8400 F   0  0  0  0  0  0  0  0  0  0  0  0
  188.9100  176.4170  146.2110 F   0  0  0  0  0  0  0  0  0  0  0  0
  188.3210  177.3170  144.0300 C   0  0  1  0  0  0  0  0  0  0  0  0
  191.2520  176.9220  144.0360 F   0  0  0  0  0  0  0  0  0  0  0  0
  190.5290  176.1780  143.1170 C   0  0  0  0  0  0  0  0  0  0  0  0
  189.2600  177.1600  141.0680 C   0  0  2  0  0  3  0  0  0  0  0  0
  186.6200  178.9250  145.4480 C   0  0  0  0  0  2  0  0  0  0  0  0
  186.4020  175.8810  144.3640 F   0  0  0  0  0  0  0  0  0  0  0  0
  186.8190  177.0600  143.7650 C   0  0  1  0  0  3  0  0  0  0  0  0
  189.9540  179.1050  143.4850 F   0  0  0  0  0  0  0  0  0  0  0  0
  188.5860  178.4100  141.6480 C   0  0  0  0  0  2  0  0  0  0  0  0
  185.9440  178.2120  144.2770 C   0  0  0  0  0  2  0  0  0  0  0  0
  187.3020  177.9850  146.2400 O   0  0  0  0  0  0  0  0  0  0  0  0
  190.6220  176.7710  141.6850 C   0  0  1  0  0  3  0  0  0  0  0  0
  188.5000  177.5850  145.5870 C   0  0  0  0  0  0  0  0  0  0  0  0
  189.0810  176.0270  143.6070 C   0  0  0  0  0  2  0  0  0  0  0  0
  188.7220  178.5630  143.1700 C   0  0  1  0  0  3  0  0  0  0  0  0
  191.0880  174.9160  143.0730 F   0  0  0  0  0  0  0  0  0  0  0  0
  191.6930  177.8500  141.5280 C   0  0  0  0  0  2  0  0  0  0  0  0
  192.7270  177.3810  140.7160 O   0  0  0  0  0  1  0  0  0  0  0  0
  190.4460  177.1870  138.9610 O   0  0  0  0  0  1  0  0  0  0  0  0
  189.1770  177.0980  139.5400 C   0  0  2  0  0  3  0  0  0  0  0  0
  188.8870  179.2070  138.3980 O   0  0  0  0  0  1  0  0  0  0  0  0
  188.2020  178.1010  138.9160 C   0  0  1  0  0  3  0  0  0  0  0  0
  186.8080  178.2770  136.7010 C   0  0  2  0  0  3  0  0  0  0  0  0
  183.9740  176.7030  136.4670 C   0  0  1  0  0  3  0  0  0  0  0  0
  186.0190  176.4090  135.2400 O   0  0  0  0  0  0  0  0  0  0  0  0
  187.3370  177.4230  137.8480 C   0  0  2  0  0  0  0  0  0  0  0  0
  185.8570  177.8170  137.8400 C   0  0  2  0  0  3  0  0  0  0  0  0
  187.6140  176.0810  137.5530 O   0  0  0  0  0  1  0  0  0  0  0  0
  186.7390  177.6080  135.3030 C   0  0  2  0  0  3  0  0  0  0  0  0
  184.6830  176.8100  135.1220 C   0  0  0  0  0  2  0  0  0  0  0  0
  184.9550  176.5880  137.6390 C   0  0  0  0  0  2  0  0  0  0  0  0
  188.5750  176.3050  134.5940 O   0  0  0  0  0  0  0  0  0  0  0  0
  188.1050  177.4250  134.7190 C   0  0  0  0  0  3  0  0  0  0  0  0
  183.0190  177.8420  136.6440 C   0  0  0  0  0  3  0  0  0  0  0  0
  182.4330  177.9960  137.7040 O   0  0  0  0  0  0  0  0  0  0  0  0
  3 16  1  6  0  0  0
  3 15  1  0  0  0  0
  5 16  1  0  0  0  0
  5  4  1  0  0  0  0
  6 22  1  6  0  0  0
  6 11  1  0  0  0  0
  6 14  1  0  0  0  0
  7 13  1  0  0  0  0
  9  3  1  0  0  0  0
  9 12  1  0  0  0  0
  9  8  1  1  0  0  0
 11 17  1  0  0  0  0
 12  7  1  0  0  0  0
 14 19  1  1  0  0  0
 14  5  1  0  0  0  0
 15  1  1  0  0  0  0
 15  2  1  0  0  0  0
 15 13  1  0  0  0  0
 17 10  1  6  0  0  0
 17  3  1  0  0  0  0
 18  5  1  0  0  0  0
 20 19  1  0  0  0  0
 22 21  1  6  0  0  0
 24 23  1  6  0  0  0
 24 22  1  0  0  0  0
 25 29  1  0  0  0  0
 25 28  1  0  0  0  0
 26 36  1  0  0  0  0
 26 33  1  0  0  0  0
 27 31  1  0  0  0  0
 28 24  1  0  0  0  0
 29 28  1  0  0  0  0
 30 28  1  0  0  0  0
 31 25  1  0  0  0  0
 32 27  1  0  0  0  0
 32 26  1  0  0  0  0
 33 29  1  0  0  0  0
 34 35  2  0  0  0  0
 35 31  1  0  0  0  0
 36 37  2  0  0  0  0
M  END
>  <MODEL>
3

>  <REMARK>
 VINA RESULT:      -6.4      1.267      2.175
  Name = 
  6 active torsions:
  status: ('A' for Active; 'I' for Inactive)
    1  A    between atoms: C_4  and  C_25
    2  A    between atoms: C_5  and  C_28
    3  A    between atoms: C_8  and  C_33
    4  A    between atoms: C_12  and  C_31
    5  A    between atoms: C_21  and  C_32
    6  A    between atoms: C_31  and  C_33
                            x       y       z     vdW  Elec       q    Type
                         _______ _______ _______ _____ _____    ______ ____

>  <TORSDO>
F 6

$$$$
=
 OpenBabel11062415273D

 37 40  0  0  1  0  0  0  0  0999 V2000
  189.9180  176.2850  134.5940 F   0  0  0  0  0  0  0  0  0  0  0  0
  188.2610  174.8530  134.9700 F   0  0  0  0  0  0  0  0  0  0  0  0
  189.7240  175.3160  136.8570 C   0  0  1  0  0  0  0  0  0  0  0  0
  188.0520  177.7210  136.4510 F   0  0  0  0  0  0  0  0  0  0  0  0
  187.9040  177.0620  137.6610 C   0  0  0  0  0  0  0  0  0  0  0  0
  189.7210  176.9240  139.5190 C   0  0  2  0  0  3  0  0  0  0  0  0
  191.6270  174.0520  135.3500 C   0  0  0  0  0  2  0  0  0  0  0  0
  189.2780  172.9800  137.3040 F   0  0  0  0  0  0  0  0  0  0  0  0
  190.2290  173.9780  137.4460 C   0  0  1  0  0  3  0  0  0  0  0  0
  190.6450  177.6010  136.5540 F   0  0  0  0  0  0  0  0  0  0  0  0
  191.0050  176.6590  138.7250 C   0  0  0  0  0  2  0  0  0  0  0  0
  191.5330  173.5170  136.7790 C   0  0  0  0  0  2  0  0  0  0  0  0
  190.3500  174.0530  134.7640 O   0  0  0  0  0  0  0  0  0  0  0  0
  188.6490  177.7860  138.8150 C   0  0  1  0  0  3  0  0  0  0  0  0
  189.5820  175.1310  135.2840 C   0  0  0  0  0  0  0  0  0  0  0  0
  188.3350  175.5960  137.5000 C   0  0  0  0  0  2  0  0  0  0  0  0
  190.7900  176.4010  137.2260 C   0  0  1  0  0  3  0  0  0  0  0  0
  186.5590  177.0680  137.9760 F   0  0  0  0  0  0  0  0  0  0  0  0
  189.1340  179.1900  138.4550 C   0  0  0  0  0  2  0  0  0  0  0  0
  188.3370  179.7250  137.4410 O   0  0  0  0  0  1  0  0  0  0  0  0
  191.3620  177.2410  141.2660 O   0  0  0  0  0  1  0  0  0  0  0  0
  189.9930  177.2660  140.9880 C   0  0  2  0  0  3  0  0  0  0  0  0
  190.0300  175.5010  142.6370 O   0  0  0  0  0  1  0  0  0  0  0  0
  189.1990  176.4250  141.9920 C   0  0  1  0  0  3  0  0  0  0  0  0
  187.5710  176.6650  144.0340 C   0  0  2  0  0  3  0  0  0  0  0  0
  185.3650  179.0530  144.0480 C   0  0  1  0  0  3  0  0  0  0  0  0
  187.2420  178.6640  145.4980 O   0  0  0  0  0  0  0  0  0  0  0  0
  188.4710  177.3260  142.9960 C   0  0  2  0  0  0  0  0  0  0  0  0
  186.9520  177.4210  142.8260 C   0  0  2  0  0  3  0  0  0  0  0  0
  189.1170  178.5060  143.3880 O   0  0  0  0  0  1  0  0  0  0  0  0
  187.5520  177.3000  145.4510 C   0  0  2  0  0  3  0  0  0  0  0  0
  185.8430  178.7060  145.4540 C   0  0  0  0  0  2  0  0  0  0  0  0
  186.4630  178.8690  142.9950 C   0  0  0  0  0  2  0  0  0  0  0  0
  189.1070  177.6710  147.1870 O   0  0  0  0  0  0  0  0  0  0  0  0
  188.8290  177.0310  146.1850 C   0  0  0  0  0  3  0  0  0  0  0  0
  184.1290  178.2780  143.7130 C   0  0  0  0  0  3  0  0  0  0  0  0
  183.4460  178.5940  142.7520 O   0  0  0  0  0  0  0  0  0  0  0  0
  1 15  1  0  0  0  0
  2 15  1  0  0  0  0
  3 17  1  0  0  0  0
  3  9  1  0  0  0  0
  3 16  1  1  0  0  0
  4  5  1  0  0  0  0
  5 18  1  0  0  0  0
  5 14  1  0  0  0  0
  6 22  1  1  0  0  0
  7 12  1  0  0  0  0
  9  8  1  6  0  0  0
 11  6  1  0  0  0  0
 12  9  1  0  0  0  0
 13 15  1  0  0  0  0
 13  7  1  0  0  0  0
 14 19  1  6  0  0  0
 14  6  1  0  0  0  0
 15  3  1  0  0  0  0
 16  5  1  0  0  0  0
 17 10  1  6  0  0  0
 17 11  1  0  0  0  0
 20 19  1  0  0  0  0
 22 21  1  1  0  0  0
 22 24  1  0  0  0  0
 24 23  1  1  0  0  0
 24 28  1  0  0  0  0
 25 31  1  0  0  0  0
 26 32  1  0  0  0  0
 28 30  1  0  0  0  0
 28 25  1  0  0  0  0
 29 33  1  0  0  0  0
 29 28  1  0  0  0  0
 29 25  1  0  0  0  0
 31 27  1  0  0  0  0
 31 35  1  0  0  0  0
 32 27  1  0  0  0  0
 33 26  1  0  0  0  0
 35 34  2  0  0  0  0
 36 26  1  0  0  0  0
 37 36  2  0  0  0  0
M  END
>  <MODEL>
4

>  <REMARK>
 VINA RESULT:      -6.4      3.733      7.551
  Name = 
  6 active torsions:
  status: ('A' for Active; 'I' for Inactive)
    1  A    between atoms: C_4  and  C_25
    2  A    between atoms: C_5  and  C_28
    3  A    between atoms: C_8  and  C_33
    4  A    between atoms: C_12  and  C_31
    5  A    between atoms: C_21  and  C_32
    6  A    between atoms: C_31  and  C_33
                            x       y       z     vdW  Elec       q    Type
                         _______ _______ _______ _____ _____    ______ ____

>  <TORSDO>
F 6

$$$$
=
 OpenBabel11062415273D

 37 40  0  0  1  0  0  0  0  0999 V2000
  189.3890  178.3160  145.8900 F   0  0  0  0  0  0  0  0  0  0  0  0
  188.6230  176.2320  145.9900 F   0  0  0  0  0  0  0  0  0  0  0  0
  188.2630  177.4050  143.8900 C   0  0  1  0  0  0  0  0  0  0  0  0
  191.1430  176.7490  144.0300 F   0  0  0  0  0  0  0  0  0  0  0  0
  190.4270  176.1740  142.9920 C   0  0  0  0  0  0  0  0  0  0  0  0
  189.3890  177.4740  140.9920 C   0  0  2  0  0  3  0  0  0  0  0  0
  186.6070  179.0020  145.3720 C   0  0  0  0  0  2  0  0  0  0  0  0
  186.2130  176.1200  143.9490 F   0  0  0  0  0  0  0  0  0  0  0  0
  186.7660  177.3120  143.5090 C   0  0  1  0  0  3  0  0  0  0  0  0
  190.0730  179.0860  143.6450 F   0  0  0  0  0  0  0  0  0  0  0  0
  188.7820  178.7120  141.6640 C   0  0  0  0  0  2  0  0  0  0  0  0
  185.9570  178.4790  144.0910 C   0  0  0  0  0  2  0  0  0  0  0  0
  187.1520  177.9270  146.0950 O   0  0  0  0  0  0  0  0  0  0  0  0
  190.6680  176.9010  141.6420 C   0  0  1  0  0  3  0  0  0  0  0  0
  188.3550  177.4910  145.4750 C   0  0  0  0  0  0  0  0  0  0  0  0
  188.9410  176.1020  143.3750 C   0  0  0  0  0  2  0  0  0  0  0  0
  188.8240  178.6920  143.1990 C   0  0  1  0  0  3  0  0  0  0  0  0
  190.8810  174.8770  142.8430 F   0  0  0  0  0  0  0  0  0  0  0  0
  191.8330  177.8900  141.6700 C   0  0  0  0  0  2  0  0  0  0  0  0
  192.7600  177.5630  140.6780 O   0  0  0  0  0  1  0  0  0  0  0  0
  188.5900  178.6230  139.0190 O   0  0  0  0  0  1  0  0  0  0  0  0
  189.4070  177.5790  139.4630 C   0  0  2  0  0  3  0  0  0  0  0  0
  187.8160  176.3080  138.1640 O   0  0  0  0  0  1  0  0  0  0  0  0
  189.0950  176.2700  138.7330 C   0  0  1  0  0  3  0  0  0  0  0  0
  190.7420  174.5530  137.6290 C   0  0  2  0  0  3  0  0  0  0  0  0
  193.7490  175.5040  136.8410 C   0  0  1  0  0  3  0  0  0  0  0  0
  191.9360  174.7710  135.4440 O   0  0  0  0  0  0  0  0  0  0  0  0
  190.1700  175.9650  137.6830 C   0  0  2  0  0  0  0  0  0  0  0  0
  191.5800  175.7170  138.2270 C   0  0  2  0  0  3  0  0  0  0  0  0
  190.0970  176.6590  136.4680 O   0  0  0  0  0  1  0  0  0  0  0  0
  191.0770  173.9870  136.2230 C   0  0  2  0  0  3  0  0  0  0  0  0
  193.2190  174.4340  135.8920 C   0  0  0  0  0  2  0  0  0  0  0  0
  192.6400  176.4220  137.3660 C   0  0  0  0  0  2  0  0  0  0  0  0
  189.1990  172.6490  135.7160 O   0  0  0  0  0  0  0  0  0  0  0  0
  189.8330  173.6610  135.4570 C   0  0  0  0  0  3  0  0  0  0  0  0
  194.5290  174.8730  137.9520 C   0  0  0  0  0  3  0  0  0  0  0  0
  195.7490  174.8610  137.9180 O   0  0  0  0  0  0  0  0  0  0  0  0
  3 16  1  6  0  0  0
  3 15  1  0  0  0  0
  5 16  1  0  0  0  0
  5  4  1  0  0  0  0
  6 22  1  6  0  0  0
  6 14  1  0  0  0  0
  6 11  1  0  0  0  0
  7 13  1  0  0  0  0
  9  3  1  0  0  0  0
  9  8  1  1  0  0  0
  9 12  1  0  0  0  0
 11 17  1  0  0  0  0
 12  7  1  0  0  0  0
 14 19  1  1  0  0  0
 14  5  1  0  0  0  0
 15  1  1  0  0  0  0
 15  2  1  0  0  0  0
 15 13  1  0  0  0  0
 17 10  1  6  0  0  0
 17  3  1  0  0  0  0
 18  5  1  0  0  0  0
 20 19  1  0  0  0  0
 22 21  1  1  0  0  0
 24 23  1  6  0  0  0
 24 22  1  0  0  0  0
 25 28  1  0  0  0  0
 25 29  1  0  0  0  0
 26 33  1  0  0  0  0
 26 36  1  0  0  0  0
 27 32  1  0  0  0  0
 27 31  1  0  0  0  0
 28 29  1  0  0  0  0
 28 24  1  0  0  0  0
 30 28  1  0  0  0  0
 31 25  1  0  0  0  0
 32 26  1  0  0  0  0
 33 29  1  0  0  0  0
 35 34  2  0  0  0  0
 35 31  1  0  0  0  0
 37 36  2  0  0  0  0
M  END
>  <MODEL>
5

>  <REMARK>
 VINA RESULT:      -6.3      2.674      4.765
  Name = 
  6 active torsions:
  status: ('A' for Active; 'I' for Inactive)
    1  A    between atoms: C_4  and  C_25
    2  A    between atoms: C_5  and  C_28
    3  A    between atoms: C_8  and  C_33
    4  A    between atoms: C_12  and  C_31
    5  A    between atoms: C_21  and  C_32
    6  A    between atoms: C_31  and  C_33
                            x       y       z     vdW  Elec       q    Type
                         _______ _______ _______ _____ _____    ______ ____

>  <TORSDO>
F 6

$$$$
=
 OpenBabel11062415273D

 37 40  0  0  1  0  0  0  0  0999 V2000
  190.1370  176.8920  134.5940 F   0  0  0  0  0  0  0  0  0  0  0  0
  189.8840  174.7050  134.8920 F   0  0  0  0  0  0  0  0  0  0  0  0
  190.2890  176.0200  136.8980 C   0  0  1  0  0  0  0  0  0  0  0  0
  187.5220  176.5990  136.0310 F   0  0  0  0  0  0  0  0  0  0  0  0
  187.6690  176.0000  137.2730 C   0  0  0  0  0  0  0  0  0  0  0  0
  188.7410  177.1280  139.3580 C   0  0  2  0  0  3  0  0  0  0  0  0
  192.7540  176.4560  135.7930 C   0  0  0  0  0  2  0  0  0  0  0  0
  191.5020  174.0200  137.5190 F   0  0  0  0  0  0  0  0  0  0  0  0
  191.4670  175.3960  137.6830 C   0  0  1  0  0  3  0  0  0  0  0  0
  189.4240  178.3100  136.4870 F   0  0  0  0  0  0  0  0  0  0  0  0
  189.9650  177.8420  138.7710 C   0  0  0  0  0  2  0  0  0  0  0  0
  192.8170  175.9800  137.2440 C   0  0  0  0  0  2  0  0  0  0  0  0
  191.9460  175.5810  135.0460 O   0  0  0  0  0  0  0  0  0  0  0  0
  187.5080  177.0180  138.4340 C   0  0  1  0  0  3  0  0  0  0  0  0
  190.5770  175.8160  135.3480 C   0  0  0  0  0  0  0  0  0  0  0  0
  189.0060  175.2460  137.3210 C   0  0  0  0  0  2  0  0  0  0  0  0
  190.2390  177.5340  137.2920 C   0  0  1  0  0  3  0  0  0  0  0  0
  186.6590  175.0670  137.4050 F   0  0  0  0  0  0  0  0  0  0  0  0
  186.9470  178.3720  138.0000 C   0  0  0  0  0  2  0  0  0  0  0  0
  185.8610  178.7190  138.8050 O   0  0  0  0  0  1  0  0  0  0  0  0
  188.6240  178.9120  140.9860 O   0  0  0  0  0  1  0  0  0  0  0  0
  188.4560  177.5360  140.8070 C   0  0  2  0  0  3  0  0  0  0  0  0
  190.5770  176.6050  141.4940 O   0  0  0  0  0  1  0  0  0  0  0  0
  189.2300  176.7330  141.8560 C   0  0  1  0  0  3  0  0  0  0  0  0
  188.8470  176.4470  144.4360 C   0  0  2  0  0  3  0  0  0  0  0  0
  186.8730  178.5030  145.9960 C   0  0  1  0  0  3  0  0  0  0  0  0
  189.2360  178.1380  146.2340 O   0  0  0  0  0  0  0  0  0  0  0  0
  189.0790  177.3690  143.2440 C   0  0  2  0  0  0  0  0  0  0  0  0
  187.6790  177.2950  143.8610 C   0  0  2  0  0  3  0  0  0  0  0  0
  189.7950  178.5470  143.4930 O   0  0  0  0  0  1  0  0  0  0  0  0
  189.5250  176.8480  145.7730 C   0  0  2  0  0  3  0  0  0  0  0  0
  188.0050  178.0080  146.8890 C   0  0  0  0  0  2  0  0  0  0  0  0
  187.2950  178.6250  144.5280 C   0  0  0  0  0  2  0  0  0  0  0  0
  191.7280  177.1230  146.5750 O   0  0  0  0  0  0  0  0  0  0  0  0
  191.0050  176.6340  145.7200 C   0  0  0  0  0  3  0  0  0  0  0  0
  185.6630  177.6390  146.1630 C   0  0  0  0  0  3  0  0  0  0  0  0
  184.5540  178.1410  146.2490 O   0  0  0  0  0  0  0  0  0  0  0  0
  1 15  1  0  0  0  0
  2 15  1  0  0  0  0
  3 17  1  0  0  0  0
  3 16  1  1  0  0  0
  3  9  1  0  0  0  0
  4  5  1  0  0  0  0
  5 16  1  0  0  0  0
  5 18  1  0  0  0  0
  5 14  1  0  0  0  0
  6 22  1  1  0  0  0
  7 12  1  0  0  0  0
  9  8  1  6  0  0  0
 11  6  1  0  0  0  0
 12  9  1  0  0  0  0
 13 15  1  0  0  0  0
 13  7  1  0  0  0  0
 14 19  1  6  0  0  0
 14  6  1  0  0  0  0
 15  3  1  0  0  0  0
 17 10  1  6  0  0  0
 17 11  1  0  0  0  0
 19 20  1  0  0  0  0
 22 21  1  6  0  0  0
 22 24  1  0  0  0  0
 24 23  1  6  0  0  0
 24 28  1  0  0  0  0
 25 31  1  0  0  0  0
 26 36  1  0  0  0  0
 26 32  1  0  0  0  0
 27 32  1  0  0  0  0
 28 30  1  0  0  0  0
 28 29  1  0  0  0  0
 28 25  1  0  0  0  0
 29 25  1  0  0  0  0
 29 33  1  0  0  0  0
 31 27  1  0  0  0  0
 33 26  1  0  0  0  0
 35 31  1  0  0  0  0
 35 34  2  0  0  0  0
 36 37  2  0  0  0  0
M  END
>  <MODEL>
6

>  <REMARK>
 VINA RESULT:      -6.2      3.790      8.092
  Name = 
  6 active torsions:
  status: ('A' for Active; 'I' for Inactive)
    1  A    between atoms: C_4  and  C_25
    2  A    between atoms: C_5  and  C_28
    3  A    between atoms: C_8  and  C_33
    4  A    between atoms: C_12  and  C_31
    5  A    between atoms: C_21  and  C_32
    6  A    between atoms: C_31  and  C_33
                            x       y       z     vdW  Elec       q    Type
                         _______ _______ _______ _____ _____    ______ ____

>  <TORSDO>
F 6

$$$$
=
 OpenBabel11062415273D

 37 40  0  0  1  0  0  0  0  0999 V2000
  191.0420  178.4120  142.9960 F   0  0  0  0  0  0  0  0  0  0  0  0
  191.1070  176.2010  142.7900 F   0  0  0  0  0  0  0  0  0  0  0  0
  188.9600  177.2550  142.3480 C   0  0  1  0  0  0  0  0  0  0  0  0
  190.7220  177.8930  140.0600 F   0  0  0  0  0  0  0  0  0  0  0  0
  189.5900  177.1430  139.7800 C   0  0  0  0  0  0  0  0  0  0  0  0
  187.1430  178.0130  139.9400 C   0  0  2  0  0  3  0  0  0  0  0  0
  189.0140  177.8710  145.0140 C   0  0  0  0  0  2  0  0  0  0  0  0
  188.1620  175.2130  143.3730 F   0  0  0  0  0  0  0  0  0  0  0  0
  187.8690  176.5560  143.1940 C   0  0  1  0  0  3  0  0  0  0  0  0
  189.4030  179.5630  141.5510 F   0  0  0  0  0  0  0  0  0  0  0  0
  187.1490  178.8170  141.2460 C   0  0  0  0  0  2  0  0  0  0  0  0
  187.7060  177.2140  144.5710 C   0  0  0  0  0  2  0  0  0  0  0  0
  190.1000  177.0850  144.5930 O   0  0  0  0  0  0  0  0  0  0  0  0
  188.4650  178.0000  139.1400 C   0  0  1  0  0  3  0  0  0  0  0  0
  190.3050  177.2560  143.1960 C   0  0  0  0  0  0  0  0  0  0  0  0
  189.1340  176.4110  141.0520 C   0  0  0  0  0  2  0  0  0  0  0  0
  188.4460  178.7050  142.0610 C   0  0  1  0  0  3  0  0  0  0  0  0
  189.9480  176.1820  138.8530 F   0  0  0  0  0  0  0  0  0  0  0  0
  188.9220  179.3890  138.6930 C   0  0  0  0  0  2  0  0  0  0  0  0
  189.1090  179.4070  137.3100 O   0  0  0  0  0  1  0  0  0  0  0  0
  186.1680  178.6780  137.8290 O   0  0  0  0  0  1  0  0  0  0  0  0
  185.8680  178.2270  139.1180 C   0  0  2  0  0  3  0  0  0  0  0  0
  184.5600  180.2560  139.0250 O   0  0  0  0  0  1  0  0  0  0  0  0
  184.8200  179.1160  139.7940 C   0  0  1  0  0  3  0  0  0  0  0  0
  182.6020  178.0290  138.9090 C   0  0  2  0  0  3  0  0  0  0  0  0
  179.8800  178.2970  140.6630 C   0  0  1  0  0  3  0  0  0  0  0  0
  181.1560  176.3510  140.0650 O   0  0  0  0  0  0  0  0  0  0  0  0
  183.5380  178.3220  140.0760 C   0  0  2  0  0  0  0  0  0  0  0  0
  182.2290  179.1090  139.9620 C   0  0  2  0  0  3  0  0  0  0  0  0
  183.5880  177.3620  141.0960 O   0  0  0  0  0  1  0  0  0  0  0  0
  181.8900  176.6500  138.9110 C   0  0  2  0  0  3  0  0  0  0  0  0
  179.9270  176.9930  139.8740 C   0  0  0  0  0  2  0  0  0  0  0  0
  181.2700  178.7610  141.1120 C   0  0  0  0  0  2  0  0  0  0  0  0
  183.7800  175.7330  137.8360 O   0  0  0  0  0  0  0  0  0  0  0  0
  182.8470  175.5420  138.6010 C   0  0  0  0  0  3  0  0  0  0  0  0
  179.1600  179.3520  139.8830 C   0  0  0  0  0  3  0  0  0  0  0  0
  179.0960  179.2820  138.6660 O   0  0  0  0  0  0  0  0  0  0  0  0
  1 15  1  0  0  0  0
  2 15  1  0  0  0  0
  3 16  1  6  0  0  0
  3  9  1  0  0  0  0
  3 15  1  0  0  0  0
  5  4  1  0  0  0  0
  5 16  1  0  0  0  0
  6 22  1  6  0  0  0
  6 11  1  0  0  0  0
  9  8  1  1  0  0  0
  9 12  1  0  0  0  0
 11 17  1  0  0  0  0
 12  7  1  0  0  0  0
 13  7  1  0  0  0  0
 14 19  1  1  0  0  0
 14  5  1  0  0  0  0
 14  6  1  0  0  0  0
 15 13  1  0  0  0  0
 17 10  1  6  0  0  0
 17  3  1  0  0  0  0
 18  5  1  0  0  0  0
 20 19  1  0  0  0  0
 22 21  1  6  0  0  0
 22 24  1  0  0  0  0
 24 23  1  6  0  0  0
 24 28  1  0  0  0  0
 25 31  1  0  0  0  0
 25 29  1  0  0  0  0
 25 28  1  0  0  0  0
 26 33  1  0  0  0  0
 28 30  1  0  0  0  0
 29 28  1  0  0  0  0
 29 33  1  0  0  0  0
 31 27  1  0  0  0  0
 32 27  1  0  0  0  0
 32 26  1  0  0  0  0
 34 35  2  0  0  0  0
 35 31  1  0  0  0  0
 36 26  1  0  0  0  0
 37 36  2  0  0  0  0
M  END
>  <MODEL>
7

>  <REMARK>
 VINA RESULT:      -6.2      2.639      4.284
  Name = 
  6 active torsions:
  status: ('A' for Active; 'I' for Inactive)
    1  A    between atoms: C_4  and  C_25
    2  A    between atoms: C_5  and  C_28
    3  A    between atoms: C_8  and  C_33
    4  A    between atoms: C_12  and  C_31
    5  A    between atoms: C_21  and  C_32
    6  A    between atoms: C_31  and  C_33
                            x       y       z     vdW  Elec       q    Type
                         _______ _______ _______ _____ _____    ______ ____

>  <TORSDO>
F 6

$$$$
=
 OpenBabel11062415273D

 37 40  0  0  1  0  0  0  0  0999 V2000
  182.3160  173.6000  135.2930 F   0  0  0  0  0  0  0  0  0  0  0  0
  182.2280  172.5480  137.2480 F   0  0  0  0  0  0  0  0  0  0  0  0
  184.0400  174.1470  136.9730 C   0  0  1  0  0  0  0  0  0  0  0  0
  181.5500  175.7110  137.2800 F   0  0  0  0  0  0  0  0  0  0  0  0
  182.5160  175.8870  138.2590 C   0  0  0  0  0  0  0  0  0  0  0  0
  184.8320  177.0120  137.8870 C   0  0  2  0  0  3  0  0  0  0  0  0
  184.9540  172.3840  135.0890 C   0  0  0  0  0  2  0  0  0  0  0  0
  185.2030  172.5030  138.3150 F   0  0  0  0  0  0  0  0  0  0  0  0
  185.3810  173.4590  137.3280 C   0  0  1  0  0  3  0  0  0  0  0  0
  183.2870  175.8700  135.3540 F   0  0  0  0  0  0  0  0  0  0  0  0
  185.2870  176.4260  136.5450 C   0  0  0  0  0  2  0  0  0  0  0  0
  186.0220  172.7930  136.1030 C   0  0  0  0  0  2  0  0  0  0  0  0
  183.8060  171.9410  135.7690 O   0  0  0  0  0  0  0  0  0  0  0  0
  183.3090  177.2070  138.0650 C   0  0  1  0  0  3  0  0  0  0  0  0
  183.1000  173.0570  136.2980 C   0  0  0  0  0  0  0  0  0  0  0  0
  183.4220  174.6470  138.3100 C   0  0  0  0  0  2  0  0  0  0  0  0
  184.3820  175.3160  135.9900 C   0  0  1  0  0  3  0  0  0  0  0  0
  181.8640  175.9770  139.4740 F   0  0  0  0  0  0  0  0  0  0  0  0
  182.6910  178.1570  137.0400 C   0  0  0  0  0  2  0  0  0  0  0  0
  181.7530  178.9840  137.6620 O   0  0  0  0  0  1  0  0  0  0  0  0
  185.0110  179.3850  138.3180 O   0  0  0  0  0  1  0  0  0  0  0  0
  185.7120  178.1760  138.3540 C   0  0  2  0  0  3  0  0  0  0  0  0
  187.1070  179.4370  136.8360 O   0  0  0  0  0  1  0  0  0  0  0  0
  187.0570  178.2840  137.6290 C   0  0  1  0  0  3  0  0  0  0  0  0
  188.7290  176.8770  139.0800 C   0  0  2  0  0  3  0  0  0  0  0  0
  189.3860  177.8140  142.1220 C   0  0  1  0  0  3  0  0  0  0  0  0
  190.8200  177.6670  140.1990 O   0  0  0  0  0  0  0  0  0  0  0  0
  188.2170  178.2410  138.6320 C   0  0  2  0  0  0  0  0  0  0  0  0
  187.8640  177.7430  140.0370 C   0  0  2  0  0  3  0  0  0  0  0  0
  189.1600  179.2750  138.5690 O   0  0  0  0  0  1  0  0  0  0  0  0
  190.2590  176.7440  139.3090 C   0  0  2  0  0  3  0  0  0  0  0  0
  190.5760  177.1230  141.4660 C   0  0  0  0  0  2  0  0  0  0  0  0
  188.5400  178.6030  141.1170 C   0  0  0  0  0  2  0  0  0  0  0  0
  192.1790  176.4140  137.9770 O   0  0  0  0  0  0  0  0  0  0  0  0
  191.0060  176.7520  138.0120 C   0  0  0  0  0  3  0  0  0  0  0  0
  188.5680  176.8240  142.8910 C   0  0  0  0  0  3  0  0  0  0  0  0
  189.0480  175.7500  143.2170 O   0  0  0  0  0  0  0  0  0  0  0  0
  1 15  1  0  0  0  0
  3  9  1  0  0  0  0
  3 16  1  1  0  0  0
  4  5  1  0  0  0  0
  5 16  1  0  0  0  0
  5 18  1  0  0  0  0
  6 14  1  0  0  0  0
  6 22  1  6  0  0  0
  7 13  1  0  0  0  0
  7 12  1  0  0  0  0
  9  8  1  1  0  0  0
 11  6  1  0  0  0  0
 12  9  1  0  0  0  0
 13 15  1  0  0  0  0
 14 19  1  6  0  0  0
 14  5  1  0  0  0  0
 15  3  1  0  0  0  0
 15  2  1  0  0  0  0
 17 10  1  1  0  0  0
 17 11  1  0  0  0  0
 17  3  1  0  0  0  0
 19 20  1  0  0  0  0
 22 21  1  6  0  0  0
 24 23  1  1  0  0  0
 24 22  1  0  0  0  0
 24 28  1  0  0  0  0
 25 31  1  0  0  0  0
 25 29  1  0  0  0  0
 26 36  1  0  0  0  0
 27 32  1  0  0  0  0
 28 25  1  0  0  0  0
 28 29  1  0  0  0  0
 29 33  1  0  0  0  0
 30 28  1  0  0  0  0
 31 27  1  0  0  0  0
 32 26  1  0  0  0  0
 33 26  1  0  0  0  0
 34 35  2  0  0  0  0
 35 31  1  0  0  0  0
 36 37  2  0  0  0  0
M  END
>  <MODEL>
8

>  <REMARK>
 VINA RESULT:      -6.2      3.943      8.277
  Name = 
  6 active torsions:
  status: ('A' for Active; 'I' for Inactive)
    1  A    between atoms: C_4  and  C_25
    2  A    between atoms: C_5  and  C_28
    3  A    between atoms: C_8  and  C_33
    4  A    between atoms: C_12  and  C_31
    5  A    between atoms: C_21  and  C_32
    6  A    between atoms: C_31  and  C_33
                            x       y       z     vdW  Elec       q    Type
                         _______ _______ _______ _____ _____    ______ ____

>  <TORSDO>
F 6

$$$$
=
 OpenBabel11062415273D

 37 40  0  0  1  0  0  0  0  0999 V2000
  191.0520  178.8370  143.0880 F   0  0  0  0  0  0  0  0  0  0  0  0
  191.5630  176.6750  143.1360 F   0  0  0  0  0  0  0  0  0  0  0  0
  189.3420  177.2320  142.3150 C   0  0  1  0  0  0  0  0  0  0  0  0
  191.2640  178.0210  140.2100 F   0  0  0  0  0  0  0  0  0  0  0  0
  190.3480  177.0370  139.8740 C   0  0  0  0  0  0  0  0  0  0  0  0
  187.7830  177.4040  139.6290 C   0  0  2  0  0  3  0  0  0  0  0  0
  188.8920  178.0660  144.8820 C   0  0  0  0  0  2  0  0  0  0  0  0
  188.8050  175.1630  143.4500 F   0  0  0  0  0  0  0  0  0  0  0  0
  188.2920  176.3990  143.0890 C   0  0  1  0  0  3  0  0  0  0  0  0
  189.4510  179.5080  141.3310 F   0  0  0  0  0  0  0  0  0  0  0  0
  187.4480  178.2980  140.8290 C   0  0  0  0  0  2  0  0  0  0  0  0
  187.8110  177.1230  144.3530 C   0  0  0  0  0  2  0  0  0  0  0  0
  190.1570  177.4840  144.6900 O   0  0  0  0  0  0  0  0  0  0  0  0
  189.1850  177.5920  139.0080 C   0  0  1  0  0  3  0  0  0  0  0  0
  190.5250  177.5760  143.3200 C   0  0  0  0  0  0  0  0  0  0  0  0
  189.8590  176.3370  141.1510 C   0  0  0  0  0  2  0  0  0  0  0  0
  188.6100  178.5190  141.8080 C   0  0  1  0  0  3  0  0  0  0  0  0
  191.0110  176.0950  139.1110 F   0  0  0  0  0  0  0  0  0  0  0  0
  189.4300  179.0030  138.4720 C   0  0  0  0  0  2  0  0  0  0  0  0
  189.3670  179.0010  137.0770 O   0  0  0  0  0  1  0  0  0  0  0  0
  186.9750  176.4920  137.5400 O   0  0  0  0  0  1  0  0  0  0  0  0
  186.6230  177.2870  138.6350 C   0  0  2  0  0  3  0  0  0  0  0  0
  186.0260  178.7330  136.7940 O   0  0  0  0  0  1  0  0  0  0  0  0
  186.0320  178.6280  138.1900 C   0  0  1  0  0  3  0  0  0  0  0  0
  184.0500  177.7060  139.6400 C   0  0  2  0  0  3  0  0  0  0  0  0
  180.9930  178.1140  138.6140 C   0  0  1  0  0  3  0  0  0  0  0  0
  182.1070  178.9820  140.5580 O   0  0  0  0  0  0  0  0  0  0  0  0
  184.6270  178.8200  138.7750 C   0  0  2  0  0  0  0  0  0  0  0  0
  183.5340  177.9200  138.1910 C   0  0  2  0  0  3  0  0  0  0  0  0
  184.2380  180.1280  139.0940 O   0  0  0  0  0  1  0  0  0  0  0  0
  183.1850  178.1390  140.8540 C   0  0  2  0  0  3  0  0  0  0  0  0
  181.0910  178.1150  140.1350 C   0  0  0  0  0  2  0  0  0  0  0  0
  182.2370  178.7100  137.9460 C   0  0  0  0  0  2  0  0  0  0  0  0
  184.5550  178.0120  142.7720 O   0  0  0  0  0  0  0  0  0  0  0  0
  184.0270  178.7340  141.9390 C   0  0  0  0  0  3  0  0  0  0  0  0
  180.6920  176.7360  138.1130 C   0  0  0  0  0  3  0  0  0  0  0  0
  180.8040  175.7730  138.8550 O   0  0  0  0  0  0  0  0  0  0  0  0
  1 15  1  0  0  0  0
  2 15  1  0  0  0  0
  3 16  1  6  0  0  0
  3  9  1  0  0  0  0
  3 15  1  0  0  0  0
  5  4  1  0  0  0  0
  5 16  1  0  0  0  0
  6 22  1  6  0  0  0
  6 11  1  0  0  0  0
  9  8  1  1  0  0  0
  9 12  1  0  0  0  0
 11 17  1  0  0  0  0
 12  7  1  0  0  0  0
 13  7  1  0  0  0  0
 14 19  1  1  0  0  0
 14  6  1  0  0  0  0
 14  5  1  0  0  0  0
 15 13  1  0  0  0  0
 17 10  1  6  0  0  0
 17  3  1  0  0  0  0
 18  5  1  0  0  0  0
 20 19  1  0  0  0  0
 22 21  1  6  0  0  0
 24 23  1  6  0  0  0
 24 22  1  0  0  0  0
 24 28  1  0  0  0  0
 25 31  1  0  0  0  0
 26 32  1  0  0  0  0
 27 31  1  0  0  0  0
 28 30  1  0  0  0  0
 28 25  1  0  0  0  0
 29 28  1  0  0  0  0
 29 25  1  0  0  0  0
 31 35  1  0  0  0  0
 32 27  1  0  0  0  0
 33 29  1  0  0  0  0
 33 26  1  0  0  0  0
 35 34  2  0  0  0  0
 36 26  1  0  0  0  0
 36 37  2  0  0  0  0
M  END
>  <MODEL>
9

>  <REMARK>
 VINA RESULT:      -6.1      2.182      3.311
  Name = 
  6 active torsions:
  status: ('A' for Active; 'I' for Inactive)
    1  A    between atoms: C_4  and  C_25
    2  A    between atoms: C_5  and  C_28
    3  A    between atoms: C_8  and  C_33
    4  A    between atoms: C_12  and  C_31
    5  A    between atoms: C_21  and  C_32
    6  A    between atoms: C_31  and  C_33
                            x       y       z     vdW  Elec       q    Type
                         _______ _______ _______ _____ _____    ______ ____

>  <TORSDO>
F 6

$$$$
