=
 OpenBabel11062417053D

 47 52  0  0  1  0  0  0  0  0999 V2000
  188.5410  177.8060  138.3150 N   0  0  0  0  0  0  0  0  0  0  0  0
  191.2530  177.3620  141.3110 C   0  0  0  0  0  0  0  0  0  0  0  0
  188.7700  177.8610  140.8970 N   0  0  0  0  0  0  0  0  0  0  0  0
  192.2470  177.3560  142.0820 O   0  0  0  0  0  0  0  0  0  0  0  0
  186.2780  178.2500  138.5580 O   0  0  0  0  0  0  0  0  0  0  0  0
  191.4750  177.2010  139.8870 N   0  0  0  0  0  0  0  0  0  0  0  0
  187.2580  178.1460  137.7770 C   0  0  0  0  0  0  0  0  0  0  0  0
  189.8210  177.5770  141.9130 C   0  0  1  0  0  3  0  0  0  0  0  0
  190.4250  177.3830  139.1730 C   0  0  0  0  0  0  0  0  0  0  0  0
  189.8500  177.4390  137.8560 C   0  0  1  0  0  3  0  0  0  0  0  0
  189.1020  177.7210  139.6630 C   0  0  0  0  0  0  0  0  0  0  0  0
  190.9850  173.8410  136.0540 C   0  0  0  0  0  2  0  0  0  0  0  0
  190.6490  176.0820  135.8700 C   0  0  0  0  0  2  0  0  0  0  0  0
  189.8320  176.0610  137.1720 C   0  0  1  0  0  3  0  0  0  0  0  0
  190.3080  175.0420  138.0270 O   0  0  0  0  0  0  0  0  0  0  0  0
  190.5020  174.8510  135.1990 O   0  0  0  0  0  0  0  0  0  0  0  0
  190.1580  173.8170  137.3460 C   0  0  0  0  0  2  0  0  0  0  0  0
  187.5420  177.3880  135.3730 C   0  0  0  0  0  2  0  0  0  0  0  0
  187.0500  178.4660  136.3180 C   0  0  1  0  0  3  0  0  0  0  0  0
  186.0550  177.5200  135.6290 C   0  0  2  0  0  3  0  0  0  0  0  0
  185.6360  176.4760  136.4660 O   0  0  0  0  0  0  0  0  0  0  0  0
  183.9490  176.3950  136.2900 P   0  0  0  0  0  0  0  0  0  0  0  0
  183.3560  175.0000  137.0420 O   0  0  0  0  0  1  0  0  0  0  0  0
  183.5820  176.3750  134.8230 O   0  0  0  0  0  0  0  0  0  0  0  0
  183.2530  177.7530  137.0180 O   0  0  0  0  0  1  0  0  0  0  0  0
  189.3950  176.3910  142.8000 C   0  0  1  0  0  3  0  0  0  0  0  0
  190.3010  175.3360  142.6420 O   0  0  0  0  0  1  0  0  0  0  0  0
  189.3190  176.7800  144.2840 C   0  0  1  0  0  3  0  0  0  0  0  0
  190.8470  176.6600  146.3020 C   0  0  0  0  0  0  0  0  0  0  0  0
  190.6440  176.7350  144.8900 N   0  0  0  0  0  2  0  0  0  0  0  0
  192.0190  176.6400  146.7570 O   0  0  0  0  0  0  0  0  0  0  0  0
  189.6910  176.5880  147.2460 C   0  0  0  0  0  2  0  0  0  0  0  0
  189.5690  177.8860  148.0180 C   0  0  0  0  0  2  0  0  0  0  0  0
  188.2730  177.9130  148.7500 C   0  0  0  0  0  3  0  0  0  0  0  0
  187.2720  178.6580  148.2950 C   0  0  0  0  0  2  0  0  0  0  0  0
  188.7580  178.1880  144.4480 C   0  0  0  0  0  2  0  0  0  0  0  0
  186.5710  178.7360  143.5020 N   0  0  0  0  0  0  0  0  0  0  0  0
  187.3050  178.1570  144.4350 N   0  0  0  0  0  0  0  0  0  0  0  0
  185.2980  178.4590  143.8360 C   0  0  0  0  0  0  0  0  0  0  0  0
  186.5730  177.5300  145.3420 N   0  0  0  0  0  0  0  0  0  0  0  0
  185.2820  177.7060  144.9950 C   0  0  0  0  0  3  0  0  0  0  0  0
  181.4860  178.4630  141.8450 C   0  0  0  0  0  2  0  0  0  0  0  0
  184.0990  178.9350  143.0890 C   0  0  0  0  0  3  0  0  0  0  0  0
  181.6100  179.2290  143.1590 C   0  0  0  0  0  2  0  0  0  0  0  0
  182.8360  178.7520  143.9320 C   0  0  0  0  0  2  0  0  0  0  0  0
  183.9720  178.1830  141.7650 C   0  0  0  0  0  2  0  0  0  0  0  0
  182.7410  178.6620  141.0000 C   0  0  0  0  0  2  0  0  0  0  0  0
  1 11  1  0  0  0  0
  2  8  1  0  0  0  0
  2  4  2  0  0  0  0
  3  8  1  0  0  0  0
  6  2  1  0  0  0  0
  7  1  1  0  0  0  0
  7  5  2  0  0  0  0
  8 26  1  6  0  0  0
  9 11  1  0  0  0  0
  9  6  2  0  0  0  0
 10  1  1  0  0  0  0
 10  9  1  1  0  0  0
 11  3  2  0  0  0  0
 12 17  1  0  0  0  0
 14 13  1  6  0  0  0
 14 10  1  0  0  0  0
 14 15  1  0  0  0  0
 16 13  1  0  0  0  0
 16 12  1  0  0  0  0
 17 15  1  0  0  0  0
 18 20  1  0  0  0  0
 18 19  1  0  0  0  0
 19  7  1  1  0  0  0
 20 19  1  0  0  0  0
 20 21  1  1  0  0  0
 22 21  1  0  0  0  0
 22 25  1  0  0  0  0
 22 23  1  0  0  0  0
 24 22  2  0  0  0  0
 26 27  1  1  0  0  0
 26 28  1  0  0  0  0
 28 36  1  6  0  0  0
 28 30  1  0  0  0  0
 29 31  2  0  0  0  0
 29 32  1  0  0  0  0
 30 29  1  0  0  0  0
 32 33  1  0  0  0  0
 33 34  1  0  0  0  0
 35 34  2  0  0  0  0
 37 39  2  0  0  0  0
 37 38  1  0  0  0  0
 38 36  1  0  0  0  0
 38 40  1  0  0  0  0
 39 41  1  0  0  0  0
 41 40  2  0  0  0  0
 42 44  1  0  0  0  0
 43 39  1  0  0  0  0
 43 45  1  0  0  0  0
 44 45  1  0  0  0  0
 46 43  1  0  0  0  0
 47 46  1  0  0  0  0
 47 42  1  0  0  0  0
M  END
>  <MODEL>
1

>  <REMARK>
 VINA RESULT:      -8.5      0.000      0.000
  Name = 
  13 active torsions:
  status: ('A' for Active; 'I' for Inactive)
    1  A    between atoms: C_2  and  C_13
    2  A    between atoms: C_2  and  C_17
    3  A    between atoms: C_2  and  N_36
    4  A    between atoms: C_4  and  C_44
    5  A    between atoms: P_7  and  O_33
    6  A    between atoms: N_10  and  C_13
    7  A    between atoms: C_12  and  C_34
    8  A    between atoms: C_14  and  C_43
    9  A    between atoms: C_17  and  C_39
   10  A    between atoms: C_21  and  C_38
   11  A    between atoms: C_23  and  C_41
   12  A    between atoms: C_25  and  O_33
   13  A    between atoms: C_43  and  C_44
                            x       y       z     vdW  Elec       q    Type
                         _______ _______ _______ _____ _____    ______ ____

>  <TORSDO>
F 13

$$$$
=
 OpenBabel11062417053D

 47 52  0  0  1  0  0  0  0  0999 V2000
  184.0170  177.0240  138.2460 N   0  0  0  0  0  0  0  0  0  0  0  0
  186.9640  177.9120  135.5910 C   0  0  0  0  0  0  0  0  0  0  0  0
  186.0580  178.5830  137.8960 N   0  0  0  0  0  0  0  0  0  0  0  0
  187.6910  178.1580  134.5940 O   0  0  0  0  0  0  0  0  0  0  0  0
  183.6910  178.0040  140.3230 O   0  0  0  0  0  0  0  0  0  0  0  0
  185.9540  176.8760  135.4780 N   0  0  0  0  0  0  0  0  0  0  0  0
  183.2430  177.2380  139.4320 C   0  0  0  0  0  0  0  0  0  0  0  0
  187.1520  178.7530  136.9000 C   0  0  1  0  0  3  0  0  0  0  0  0
  185.1610  176.8110  136.4840 C   0  0  0  0  0  0  0  0  0  0  0  0
  184.0180  176.1800  137.0860 C   0  0  1  0  0  3  0  0  0  0  0  0
  185.2000  177.6550  137.6630 C   0  0  0  0  0  0  0  0  0  0  0  0
  184.6500  172.0500  136.9400 C   0  0  0  0  0  2  0  0  0  0  0  0
  183.1870  173.7910  136.9430 C   0  0  0  0  0  2  0  0  0  0  0  0
  184.2970  174.7160  137.4660 C   0  0  1  0  0  3  0  0  0  0  0  0
  185.5550  174.2790  136.9940 O   0  0  0  0  0  0  0  0  0  0  0  0
  183.3980  172.4810  137.4200 O   0  0  0  0  0  0  0  0  0  0  0  0
  185.7540  172.9700  137.4760 C   0  0  0  0  0  2  0  0  0  0  0  0
  180.9010  177.5450  140.3590 C   0  0  0  0  0  2  0  0  0  0  0  0
  181.8700  176.6420  139.6230 C   0  0  1  0  0  3  0  0  0  0  0  0
  180.7730  177.3950  138.8570 C   0  0  2  0  0  3  0  0  0  0  0  0
  181.2500  178.5570  138.2350 O   0  0  0  0  0  0  0  0  0  0  0  0
  180.5350  178.5820  136.6960 P   0  0  0  0  0  0  0  0  0  0  0  0
  179.4630  177.2830  136.5340 O   0  0  0  0  0  1  0  0  0  0  0  0
  181.6020  178.4950  135.6280 O   0  0  0  0  0  0  0  0  0  0  0  0
  179.6800  180.0290  136.5080 O   0  0  0  0  0  1  0  0  0  0  0  0
  188.5180  178.4770  137.5600 C   0  0  1  0  0  3  0  0  0  0  0  0
  189.1230  179.6880  137.9150 O   0  0  0  0  0  1  0  0  0  0  0  0
  188.3870  177.5860  138.8050 C   0  0  1  0  0  3  0  0  0  0  0  0
  189.8590  175.7420  137.8810 C   0  0  0  0  0  0  0  0  0  0  0  0
  188.6330  176.1920  138.4600 N   0  0  0  0  0  2  0  0  0  0  0  0
  189.9970  174.5260  137.5930 O   0  0  0  0  0  0  0  0  0  0  0  0
  190.9840  176.6910  137.6240 C   0  0  0  0  0  2  0  0  0  0  0  0
  192.2360  176.2170  138.3350 C   0  0  0  0  0  2  0  0  0  0  0  0
  193.2620  175.8210  137.3310 C   0  0  0  0  0  3  0  0  0  0  0  0
  193.9650  174.7080  137.5090 C   0  0  0  0  0  2  0  0  0  0  0  0
  189.3850  178.0040  139.8790 C   0  0  0  0  0  2  0  0  0  0  0  0
  187.8740  177.9300  141.7990 N   0  0  0  0  0  0  0  0  0  0  0  0
  188.9620  177.5110  141.1790 N   0  0  0  0  0  0  0  0  0  0  0  0
  187.8290  177.2230  142.9430 C   0  0  0  0  0  0  0  0  0  0  0  0
  189.6110  176.5810  141.8610 N   0  0  0  0  0  0  0  0  0  0  0  0
  188.9180  176.3730  142.9990 C   0  0  0  0  0  3  0  0  0  0  0  0
  185.3420  178.9850  145.9760 C   0  0  0  0  0  2  0  0  0  0  0  0
  186.7860  177.3750  143.9980 C   0  0  0  0  0  3  0  0  0  0  0  0
  184.6870  178.5720  144.6620 C   0  0  0  0  0  2  0  0  0  0  0  0
  185.7450  178.4110  143.5750 C   0  0  0  0  0  2  0  0  0  0  0  0
  187.4340  177.7760  145.3230 C   0  0  0  0  0  2  0  0  0  0  0  0
  186.3690  177.9400  146.4030 C   0  0  0  0  0  2  0  0  0  0  0  0
  1  7  1  0  0  0  0
  2  8  1  0  0  0  0
  4  2  2  0  0  0  0
  6  2  1  0  0  0  0
  6  9  2  0  0  0  0
  7  5  2  0  0  0  0
  8 26  1  1  0  0  0
  8  3  1  0  0  0  0
  9 11  1  0  0  0  0
 10  9  1  6  0  0  0
 10 14  1  0  0  0  0
 10  1  1  0  0  0  0
 11  3  2  0  0  0  0
 11  1  1  0  0  0  0
 12 16  1  0  0  0  0
 12 17  1  0  0  0  0
 13 16  1  0  0  0  0
 14 13  1  6  0  0  0
 15 14  1  0  0  0  0
 15 17  1  0  0  0  0
 19  7  1  6  0  0  0
 19 18  1  0  0  0  0
 20 21  1  6  0  0  0
 20 19  1  0  0  0  0
 20 18  1  0  0  0  0
 22 21  1  0  0  0  0
 23 22  1  0  0  0  0
 24 22  2  0  0  0  0
 25 22  1  0  0  0  0
 26 27  1  1  0  0  0
 26 28  1  0  0  0  0
 28 36  1  1  0  0  0
 29 30  1  0  0  0  0
 30 28  1  0  0  0  0
 31 29  2  0  0  0  0
 32 29  1  0  0  0  0
 32 33  1  0  0  0  0
 34 35  2  0  0  0  0
 34 33  1  0  0  0  0
 36 38  1  0  0  0  0
 37 39  2  0  0  0  0
 38 37  1  0  0  0  0
 38 40  1  0  0  0  0
 39 41  1  0  0  0  0
 39 43  1  0  0  0  0
 40 41  2  0  0  0  0
 42 47  1  0  0  0  0
 43 46  1  0  0  0  0
 44 42  1  0  0  0  0
 45 43  1  0  0  0  0
 45 44  1  0  0  0  0
 46 47  1  0  0  0  0
M  END
>  <MODEL>
2

>  <REMARK>
 VINA RESULT:      -8.2      2.841      6.405
  Name = 
  13 active torsions:
  status: ('A' for Active; 'I' for Inactive)
    1  A    between atoms: C_2  and  C_13
    2  A    between atoms: C_2  and  C_17
    3  A    between atoms: C_2  and  N_36
    4  A    between atoms: C_4  and  C_44
    5  A    between atoms: P_7  and  O_33
    6  A    between atoms: N_10  and  C_13
    7  A    between atoms: C_12  and  C_34
    8  A    between atoms: C_14  and  C_43
    9  A    between atoms: C_17  and  C_39
   10  A    between atoms: C_21  and  C_38
   11  A    between atoms: C_23  and  C_41
   12  A    between atoms: C_25  and  O_33
   13  A    between atoms: C_43  and  C_44
                            x       y       z     vdW  Elec       q    Type
                         _______ _______ _______ _____ _____    ______ ____

>  <TORSDO>
F 13

$$$$
=
 OpenBabel11062417053D

 47 52  0  0  1  0  0  0  0  0999 V2000
  183.5990  177.1380  137.6490 N   0  0  0  0  0  0  0  0  0  0  0  0
  187.3150  177.5860  136.0620 C   0  0  0  0  0  0  0  0  0  0  0  0
  186.0310  177.7790  138.2760 N   0  0  0  0  0  0  0  0  0  0  0  0
  188.3400  177.8300  135.3740 O   0  0  0  0  0  0  0  0  0  0  0  0
  183.0020  177.4400  139.8690 O   0  0  0  0  0  0  0  0  0  0  0  0
  186.1130  177.1330  135.3860 N   0  0  0  0  0  0  0  0  0  0  0  0
  182.6190  177.2470  138.6870 C   0  0  0  0  0  0  0  0  0  0  0  0
  187.3640  177.8110  137.6130 C   0  0  1  0  0  3  0  0  0  0  0  0
  185.0820  177.0680  136.1460 C   0  0  0  0  0  0  0  0  0  0  0  0
  183.6770  176.7860  136.2600 C   0  0  1  0  0  3  0  0  0  0  0  0
  185.0350  177.3980  137.5580 C   0  0  0  0  0  0  0  0  0  0  0  0
  182.3470  172.8550  136.7660 C   0  0  0  0  0  2  0  0  0  0  0  0
  183.9080  174.4480  137.2090 C   0  0  0  0  0  2  0  0  0  0  0  0
  183.3660  175.2950  136.0470 C   0  0  1  0  0  3  0  0  0  0  0  0
  181.9820  175.0640  135.8820 O   0  0  0  0  0  0  0  0  0  0  0  0
  183.7290  173.0800  136.9210 O   0  0  0  0  0  0  0  0  0  0  0  0
  181.8140  173.6940  135.5980 C   0  0  0  0  0  2  0  0  0  0  0  0
  180.2880  177.7930  139.5260 C   0  0  0  0  0  2  0  0  0  0  0  0
  181.1370  177.2190  138.4090 C   0  0  1  0  0  3  0  0  0  0  0  0
  180.5200  178.6190  138.2780 C   0  0  2  0  0  3  0  0  0  0  0  0
  181.4370  179.6410  138.5630 O   0  0  0  0  0  0  0  0  0  0  0  0
  180.5250  181.0720  138.6310 P   0  0  0  0  0  0  0  0  0  0  0  0
  180.0560  181.3830  140.2270 O   0  0  0  0  0  1  0  0  0  0  0  0
  179.2980  180.9450  137.7570 O   0  0  0  0  0  0  0  0  0  0  0  0
  181.4730  182.3560  138.0740 O   0  0  0  0  0  1  0  0  0  0  0  0
  188.3230  176.8190  138.2990 C   0  0  1  0  0  3  0  0  0  0  0  0
  189.3790  176.5100  137.4350 O   0  0  0  0  0  1  0  0  0  0  0  0
  188.8870  177.3790  139.6140 C   0  0  1  0  0  3  0  0  0  0  0  0
  191.2230  177.2100  140.5850 C   0  0  0  0  0  0  0  0  0  0  0  0
  190.3320  177.5440  139.5180 N   0  0  0  0  0  2  0  0  0  0  0  0
  192.4580  177.3940  140.4380 O   0  0  0  0  0  0  0  0  0  0  0  0
  190.7110  176.6340  141.8640 C   0  0  0  0  0  2  0  0  0  0  0  0
  191.3690  177.3220  143.0440 C   0  0  0  0  0  2  0  0  0  0  0  0
  191.2900  176.4430  144.2430 C   0  0  0  0  0  3  0  0  0  0  0  0
  191.5370  176.9450  145.4470 C   0  0  0  0  0  2  0  0  0  0  0  0
  188.2650  178.7330  139.9380 C   0  0  0  0  0  2  0  0  0  0  0  0
  187.7290  178.1440  142.2500 N   0  0  0  0  0  0  0  0  0  0  0  0
  187.3620  178.6140  141.0710 N   0  0  0  0  0  0  0  0  0  0  0  0
  186.6260  178.2190  143.0150 C   0  0  0  0  0  0  0  0  0  0  0  0
  186.0920  178.9820  141.0440 N   0  0  0  0  0  0  0  0  0  0  0  0
  185.5850  178.7400  142.2700 C   0  0  0  0  0  3  0  0  0  0  0  0
  186.8500  178.2410  147.3100 C   0  0  0  0  0  2  0  0  0  0  0  0
  186.5410  177.7660  144.4330 C   0  0  0  0  0  3  0  0  0  0  0  0
  185.4700  178.1670  146.6640 C   0  0  0  0  0  2  0  0  0  0  0  0
  185.5440  178.6270  145.2110 C   0  0  0  0  0  2  0  0  0  0  0  0
  187.9220  177.8240  145.0870 C   0  0  0  0  0  2  0  0  0  0  0  0
  187.8380  177.3690  146.5410 C   0  0  0  0  0  2  0  0  0  0  0  0
  1  7  1  0  0  0  0
  2  8  1  0  0  0  0
  4  2  2  0  0  0  0
  6  2  1  0  0  0  0
  6  9  2  0  0  0  0
  7  5  2  0  0  0  0
  8  3  1  0  0  0  0
  8 26  1  1  0  0  0
  9 11  1  0  0  0  0
 10  9  1  1  0  0  0
 10  1  1  0  0  0  0
 11  1  1  0  0  0  0
 11  3  2  0  0  0  0
 12 16  1  0  0  0  0
 14 10  1  0  0  0  0
 14 13  1  1  0  0  0
 15 14  1  0  0  0  0
 16 13  1  0  0  0  0
 17 15  1  0  0  0  0
 17 12  1  0  0  0  0
 19  7  1  1  0  0  0
 19 18  1  0  0  0  0
 20 19  1  0  0  0  0
 20 21  1  1  0  0  0
 20 18  1  0  0  0  0
 21 22  1  0  0  0  0
 22 23  1  0  0  0  0
 24 22  2  0  0  0  0
 25 22  1  0  0  0  0
 26 27  1  6  0  0  0
 26 28  1  0  0  0  0
 28 36  1  6  0  0  0
 29 32  1  0  0  0  0
 30 28  1  0  0  0  0
 30 29  1  0  0  0  0
 31 29  2  0  0  0  0
 32 33  1  0  0  0  0
 33 34  1  0  0  0  0
 34 35  2  0  0  0  0
 36 38  1  0  0  0  0
 37 39  2  0  0  0  0
 38 37  1  0  0  0  0
 39 43  1  0  0  0  0
 40 38  1  0  0  0  0
 40 41  2  0  0  0  0
 41 39  1  0  0  0  0
 43 46  1  0  0  0  0
 43 45  1  0  0  0  0
 44 42  1  0  0  0  0
 45 44  1  0  0  0  0
 46 47  1  0  0  0  0
 47 42  1  0  0  0  0
M  END
>  <MODEL>
3

>  <REMARK>
 VINA RESULT:      -7.9      2.949      5.891
  Name = 
  13 active torsions:
  status: ('A' for Active; 'I' for Inactive)
    1  A    between atoms: C_2  and  C_13
    2  A    between atoms: C_2  and  C_17
    3  A    between atoms: C_2  and  N_36
    4  A    between atoms: C_4  and  C_44
    5  A    between atoms: P_7  and  O_33
    6  A    between atoms: N_10  and  C_13
    7  A    between atoms: C_12  and  C_34
    8  A    between atoms: C_14  and  C_43
    9  A    between atoms: C_17  and  C_39
   10  A    between atoms: C_21  and  C_38
   11  A    between atoms: C_23  and  C_41
   12  A    between atoms: C_25  and  O_33
   13  A    between atoms: C_43  and  C_44
                            x       y       z     vdW  Elec       q    Type
                         _______ _______ _______ _____ _____    ______ ____

>  <TORSDO>
F 13

$$$$
=
 OpenBabel11062417053D

 47 52  0  0  1  0  0  0  0  0999 V2000
  185.4390  178.3250  137.8580 N   0  0  0  0  0  0  0  0  0  0  0  0
  188.9940  176.9400  136.4520 C   0  0  0  0  0  0  0  0  0  0  0  0
  187.9350  178.0600  138.5050 N   0  0  0  0  0  0  0  0  0  0  0  0
  190.0180  176.6170  135.7970 O   0  0  0  0  0  0  0  0  0  0  0  0
  185.0540  179.2720  139.9400 O   0  0  0  0  0  0  0  0  0  0  0  0
  187.6990  176.8760  135.8000 N   0  0  0  0  0  0  0  0  0  0  0  0
  184.6040  179.0160  138.7930 C   0  0  0  0  0  0  0  0  0  0  0  0
  189.1570  177.4300  137.9330 C   0  0  1  0  0  3  0  0  0  0  0  0
  186.7430  177.3770  136.4920 C   0  0  0  0  0  0  0  0  0  0  0  0
  185.3450  177.7030  136.5680 C   0  0  1  0  0  3  0  0  0  0  0  0
  186.8570  177.9710  137.8100 C   0  0  0  0  0  0  0  0  0  0  0  0
  183.6360  173.9650  135.8020 C   0  0  0  0  0  2  0  0  0  0  0  0
  183.8250  176.1630  135.2490 C   0  0  0  0  0  2  0  0  0  0  0  0
  184.4580  176.4480  136.6200 C   0  0  1  0  0  3  0  0  0  0  0  0
  185.1740  175.3150  137.0690 O   0  0  0  0  0  0  0  0  0  0  0  0
  182.9150  175.0920  135.3610 O   0  0  0  0  0  0  0  0  0  0  0  0
  184.2550  174.2520  137.1760 C   0  0  0  0  0  2  0  0  0  0  0  0
  182.1600  178.4510  138.4170 C   0  0  0  0  0  2  0  0  0  0  0  0
  183.2300  179.5230  138.4330 C   0  0  1  0  0  3  0  0  0  0  0  0
  182.2230  179.4110  139.5860 C   0  0  2  0  0  3  0  0  0  0  0  0
  182.7530  178.7470  140.7020 O   0  0  0  0  0  0  0  0  0  0  0  0
  181.5080  178.7210  141.8560 P   0  0  0  0  0  0  0  0  0  0  0  0
  182.1630  178.5960  143.4110 O   0  0  0  0  0  1  0  0  0  0  0  0
  180.5880  177.5480  141.5970 O   0  0  0  0  0  0  0  0  0  0  0  0
  180.6220  180.1560  141.7450 O   0  0  0  0  0  1  0  0  0  0  0  0
  189.6510  176.2950  138.8530 C   0  0  1  0  0  3  0  0  0  0  0  0
  189.6840  175.0920  138.1410 O   0  0  0  0  0  1  0  0  0  0  0  0
  191.0450  176.5870  139.4290 C   0  0  1  0  0  3  0  0  0  0  0  0
  192.8910  176.3560  137.7080 C   0  0  0  0  0  0  0  0  0  0  0  0
  191.9150  177.1390  138.3990 N   0  0  0  0  0  2  0  0  0  0  0  0
  193.6190  176.9010  136.8400 O   0  0  0  0  0  0  0  0  0  0  0  0
  193.0480  174.8970  137.9890 C   0  0  0  0  0  2  0  0  0  0  0  0
  194.5080  174.5030  137.8840 C   0  0  0  0  0  2  0  0  0  0  0  0
  194.6480  173.3430  136.9600 C   0  0  0  0  0  3  0  0  0  0  0  0
  193.7050  173.1010  136.0570 C   0  0  0  0  0  2  0  0  0  0  0  0
  190.9600  177.5850  140.5780 C   0  0  0  0  0  2  0  0  0  0  0  0
  189.1040  177.6310  142.1690 N   0  0  0  0  0  0  0  0  0  0  0  0
  190.1700  177.0340  141.6670 N   0  0  0  0  0  0  0  0  0  0  0  0
  188.6560  176.8000  143.1260 C   0  0  0  0  0  0  0  0  0  0  0  0
  190.4250  175.8740  142.2500 N   0  0  0  0  0  0  0  0  0  0  0  0
  189.4800  175.6920  143.1930 C   0  0  0  0  0  3  0  0  0  0  0  0
  185.8020  178.8790  145.5810 C   0  0  0  0  0  2  0  0  0  0  0  0
  187.4790  177.0650  144.0020 C   0  0  0  0  0  3  0  0  0  0  0  0
  185.3300  178.3340  144.2370 C   0  0  0  0  0  2  0  0  0  0  0  0
  186.5260  178.0560  143.3320 C   0  0  0  0  0  2  0  0  0  0  0  0
  187.9420  177.6000  145.3570 C   0  0  0  0  0  2  0  0  0  0  0  0
  186.7400  177.8800  146.2540 C   0  0  0  0  0  2  0  0  0  0  0  0
  1  7  1  0  0  0  0
  2  8  1  0  0  0  0
  4  2  2  0  0  0  0
  6  2  1  0  0  0  0
  6  9  2  0  0  0  0
  7  5  2  0  0  0  0
  8  3  1  0  0  0  0
  8 26  1  1  0  0  0
  9 11  1  0  0  0  0
 10  9  1  1  0  0  0
 10 14  1  0  0  0  0
 10  1  1  0  0  0  0
 11  1  1  0  0  0  0
 11  3  2  0  0  0  0
 12 17  1  0  0  0  0
 13 16  1  0  0  0  0
 14 13  1  6  0  0  0
 14 15  1  0  0  0  0
 15 17  1  0  0  0  0
 16 12  1  0  0  0  0
 18 19  1  0  0  0  0
 18 20  1  0  0  0  0
 19  7  1  1  0  0  0
 19 20  1  0  0  0  0
 20 21  1  1  0  0  0
 21 22  1  0  0  0  0
 22 23  1  0  0  0  0
 24 22  2  0  0  0  0
 25 22  1  0  0  0  0
 26 27  1  6  0  0  0
 26 28  1  0  0  0  0
 28 36  1  1  0  0  0
 29 32  1  0  0  0  0
 29 30  1  0  0  0  0
 30 28  1  0  0  0  0
 31 29  2  0  0  0  0
 33 32  1  0  0  0  0
 34 33  1  0  0  0  0
 35 34  2  0  0  0  0
 36 38  1  0  0  0  0
 37 39  2  0  0  0  0
 38 37  1  0  0  0  0
 38 40  1  0  0  0  0
 39 41  1  0  0  0  0
 39 43  1  0  0  0  0
 40 41  2  0  0  0  0
 42 47  1  0  0  0  0
 43 46  1  0  0  0  0
 44 42  1  0  0  0  0
 45 43  1  0  0  0  0
 45 44  1  0  0  0  0
 46 47  1  0  0  0  0
M  END
>  <MODEL>
4

>  <REMARK>
 VINA RESULT:      -7.5      2.825      6.488
  Name = 
  13 active torsions:
  status: ('A' for Active; 'I' for Inactive)
    1  A    between atoms: C_2  and  C_13
    2  A    between atoms: C_2  and  C_17
    3  A    between atoms: C_2  and  N_36
    4  A    between atoms: C_4  and  C_44
    5  A    between atoms: P_7  and  O_33
    6  A    between atoms: N_10  and  C_13
    7  A    between atoms: C_12  and  C_34
    8  A    between atoms: C_14  and  C_43
    9  A    between atoms: C_17  and  C_39
   10  A    between atoms: C_21  and  C_38
   11  A    between atoms: C_23  and  C_41
   12  A    between atoms: C_25  and  O_33
   13  A    between atoms: C_43  and  C_44
                            x       y       z     vdW  Elec       q    Type
                         _______ _______ _______ _____ _____    ______ ____

>  <TORSDO>
F 13

$$$$
=
 OpenBabel11062417053D

 47 52  0  0  1  0  0  0  0  0999 V2000
  182.9670  178.0940  138.7980 N   0  0  0  0  0  0  0  0  0  0  0  0
  182.2600  178.6360  142.7650 C   0  0  0  0  0  0  0  0  0  0  0  0
  184.1000  177.9240  141.1240 N   0  0  0  0  0  0  0  0  0  0  0  0
  181.8140  178.6970  143.9400 O   0  0  0  0  0  0  0  0  0  0  0  0
  184.9660  177.4230  137.8330 O   0  0  0  0  0  0  0  0  0  0  0  0
  181.3530  178.8930  141.6610 N   0  0  0  0  0  0  0  0  0  0  0  0
  183.7420  177.6610  137.6740 C   0  0  0  0  0  0  0  0  0  0  0  0
  183.7630  178.2530  142.5360 C   0  0  1  0  0  3  0  0  0  0  0  0
  181.8560  178.6490  140.5070 C   0  0  0  0  0  0  0  0  0  0  0  0
  181.6580  178.6090  139.0840 C   0  0  1  0  0  3  0  0  0  0  0  0
  183.1960  178.1600  140.2410 C   0  0  0  0  0  0  0  0  0  0  0  0
  180.0280  182.0330  137.3240 C   0  0  0  0  0  2  0  0  0  0  0  0
  180.8610  179.9320  137.0750 C   0  0  0  0  0  2  0  0  0  0  0  0
  181.4710  180.0120  138.4830 C   0  0  1  0  0  3  0  0  0  0  0  0
  180.6760  180.8370  139.3100 O   0  0  0  0  0  0  0  0  0  0  0  0
  180.8280  181.2180  136.4990 O   0  0  0  0  0  0  0  0  0  0  0  0
  180.6480  182.1190  138.7240 C   0  0  0  0  0  2  0  0  0  0  0  0
  183.7450  176.2310  135.5790 C   0  0  0  0  0  2  0  0  0  0  0  0
  183.1300  177.4010  136.3200 C   0  0  1  0  0  3  0  0  0  0  0  0
  182.3930  176.0570  136.2380 C   0  0  2  0  0  3  0  0  0  0  0  0
  182.5410  175.2890  137.4020 O   0  0  0  0  0  0  0  0  0  0  0  0
  180.9670  174.8770  137.8860 P   0  0  0  0  0  0  0  0  0  0  0  0
  180.7010  173.2240  137.6450 O   0  0  0  0  0  1  0  0  0  0  0  0
  179.9560  175.6750  137.0920 O   0  0  0  0  0  0  0  0  0  0  0  0
  180.7850  175.2320  139.5290 O   0  0  0  0  0  1  0  0  0  0  0  0
  184.7130  179.3450  143.0680 C   0  0  1  0  0  3  0  0  0  0  0  0
  183.9650  180.4040  143.5940 O   0  0  0  0  0  1  0  0  0  0  0  0
  185.6630  178.8050  144.1490 C   0  0  1  0  0  3  0  0  0  0  0  0
  185.6320  178.5270  146.6680 C   0  0  0  0  0  0  0  0  0  0  0  0
  184.9560  178.6500  145.4140 N   0  0  0  0  0  2  0  0  0  0  0  0
  184.9590  178.3800  147.7200 O   0  0  0  0  0  0  0  0  0  0  0  0
  187.1220  178.5860  146.7500 C   0  0  0  0  0  2  0  0  0  0  0  0
  187.5860  178.1230  148.1170 C   0  0  0  0  0  2  0  0  0  0  0  0
  189.0550  177.8800  148.0900 C   0  0  0  0  0  3  0  0  0  0  0  0
  189.5820  177.1240  147.1340 C   0  0  0  0  0  2  0  0  0  0  0  0
  186.2330  177.4510  143.7420 C   0  0  0  0  0  2  0  0  0  0  0  0
  187.5940  177.7170  141.7290 N   0  0  0  0  0  0  0  0  0  0  0  0
  187.4960  177.6260  143.0430 N   0  0  0  0  0  0  0  0  0  0  0  0
  188.9060  177.8920  141.4890 C   0  0  0  0  0  0  0  0  0  0  0  0
  188.6660  177.7320  143.6500 N   0  0  0  0  0  0  0  0  0  0  0  0
  189.5950  177.8980  142.6870 C   0  0  0  0  0  3  0  0  0  0  0  0
  189.8430  177.0970  137.3670 C   0  0  0  0  0  2  0  0  0  0  0  0
  189.5150  178.0130  140.1330 C   0  0  0  0  0  3  0  0  0  0  0  0
  189.0580  178.3640  137.6930 C   0  0  0  0  0  2  0  0  0  0  0  0
  188.4320  178.2520  139.0800 C   0  0  0  0  0  2  0  0  0  0  0  0
  190.3150  176.7540  139.8010 C   0  0  0  0  0  2  0  0  0  0  0  0
  190.9330  176.8710  138.4110 C   0  0  0  0  0  2  0  0  0  0  0  0
  1 10  1  0  0  0  0
  1 11  1  0  0  0  0
  2  4  2  0  0  0  0
  3  8  1  0  0  0  0
  6  2  1  0  0  0  0
  7  5  2  0  0  0  0
  7  1  1  0  0  0  0
  8  2  1  0  0  0  0
  8 26  1  6  0  0  0
  9  6  2  0  0  0  0
 10  9  1  1  0  0  0
 11  9  1  0  0  0  0
 11  3  2  0  0  0  0
 12 17  1  0  0  0  0
 14 13  1  6  0  0  0
 14 10  1  0  0  0  0
 14 15  1  0  0  0  0
 16 13  1  0  0  0  0
 16 12  1  0  0  0  0
 17 15  1  0  0  0  0
 18 20  1  0  0  0  0
 18 19  1  0  0  0  0
 19  7  1  1  0  0  0
 20 19  1  0  0  0  0
 20 21  1  1  0  0  0
 21 22  1  0  0  0  0
 22 25  1  0  0  0  0
 23 22  1  0  0  0  0
 24 22  2  0  0  0  0
 26 27  1  1  0  0  0
 26 28  1  0  0  0  0
 28 36  1  6  0  0  0
 28 30  1  0  0  0  0
 29 32  1  0  0  0  0
 29 31  2  0  0  0  0
 30 29  1  0  0  0  0
 32 33  1  0  0  0  0
 34 33  1  0  0  0  0
 35 34  2  0  0  0  0
 37 38  1  0  0  0  0
 38 40  1  0  0  0  0
 38 36  1  0  0  0  0
 39 37  2  0  0  0  0
 39 41  1  0  0  0  0
 41 40  2  0  0  0  0
 42 44  1  0  0  0  0
 42 47  1  0  0  0  0
 43 39  1  0  0  0  0
 44 45  1  0  0  0  0
 45 43  1  0  0  0  0
 46 43  1  0  0  0  0
 47 46  1  0  0  0  0
M  END
>  <MODEL>
5

>  <REMARK>
 VINA RESULT:      -7.5      3.153      6.921
  Name = 
  13 active torsions:
  status: ('A' for Active; 'I' for Inactive)
    1  A    between atoms: C_2  and  C_13
    2  A    between atoms: C_2  and  C_17
    3  A    between atoms: C_2  and  N_36
    4  A    between atoms: C_4  and  C_44
    5  A    between atoms: P_7  and  O_33
    6  A    between atoms: N_10  and  C_13
    7  A    between atoms: C_12  and  C_34
    8  A    between atoms: C_14  and  C_43
    9  A    between atoms: C_17  and  C_39
   10  A    between atoms: C_21  and  C_38
   11  A    between atoms: C_23  and  C_41
   12  A    between atoms: C_25  and  O_33
   13  A    between atoms: C_43  and  C_44
                            x       y       z     vdW  Elec       q    Type
                         _______ _______ _______ _____ _____    ______ ____

>  <TORSDO>
F 13

$$$$
=
 OpenBabel11062417053D

 47 52  0  0  1  0  0  0  0  0999 V2000
  183.2010  177.3400  138.2690 N   0  0  0  0  0  0  0  0  0  0  0  0
  186.3310  177.3060  135.6750 C   0  0  0  0  0  0  0  0  0  0  0  0
  185.7910  177.4140  138.1810 N   0  0  0  0  0  0  0  0  0  0  0  0
  187.1510  177.4500  134.7320 O   0  0  0  0  0  0  0  0  0  0  0  0
  183.3280  177.4230  140.5830 O   0  0  0  0  0  0  0  0  0  0  0  0
  184.9200  177.1900  135.3590 N   0  0  0  0  0  0  0  0  0  0  0  0
  182.5980  177.4790  139.5600 C   0  0  0  0  0  0  0  0  0  0  0  0
  186.8590  177.2910  137.1510 C   0  0  1  0  0  3  0  0  0  0  0  0
  184.1530  177.2110  136.3870 C   0  0  0  0  0  0  0  0  0  0  0  0
  182.8090  177.1840  136.8970 C   0  0  1  0  0  3  0  0  0  0  0  0
  184.5750  177.3350  137.7700 C   0  0  0  0  0  0  0  0  0  0  0  0
  180.3580  174.1230  135.4490 C   0  0  0  0  0  2  0  0  0  0  0  0
  180.6000  175.9480  136.7830 C   0  0  0  0  0  2  0  0  0  0  0  0
  182.1280  175.8250  136.6650 C   0  0  1  0  0  3  0  0  0  0  0  0
  182.4740  175.2680  135.4140 O   0  0  0  0  0  0  0  0  0  0  0  0
  180.0140  174.6680  136.7010 O   0  0  0  0  0  0  0  0  0  0  0  0
  181.8830  173.9910  135.3420 C   0  0  0  0  0  2  0  0  0  0  0  0
  180.8260  178.7250  140.8800 C   0  0  0  0  0  2  0  0  0  0  0  0
  181.1300  177.7700  139.7420 C   0  0  1  0  0  3  0  0  0  0  0  0
  180.7640  179.2340  139.4540 C   0  0  2  0  0  3  0  0  0  0  0  0
  181.8890  180.0300  139.1990 O   0  0  0  0  0  0  0  0  0  0  0  0
  181.3120  181.3860  138.3570 P   0  0  0  0  0  0  0  0  0  0  0  0
  182.4790  182.6120  138.3630 O   0  0  0  0  0  1  0  0  0  0  0  0
  180.0410  181.8930  139.0020 O   0  0  0  0  0  1  0  0  0  0  0  0
  180.9840  180.9450  136.7580 O   0  0  0  0  0  0  0  0  0  0  0  0
  187.7260  176.0470  137.4310 C   0  0  1  0  0  3  0  0  0  0  0  0
  187.6920  175.1920  136.3240 O   0  0  0  0  0  1  0  0  0  0  0  0
  189.1830  176.4200  137.7440 C   0  0  1  0  0  3  0  0  0  0  0  0
  191.2540  175.9810  136.3500 C   0  0  0  0  0  0  0  0  0  0  0  0
  189.9510  176.5450  136.5110 N   0  0  0  0  0  2  0  0  0  0  0  0
  191.8670  176.1420  135.2640 O   0  0  0  0  0  0  0  0  0  0  0  0
  191.8940  175.1910  137.4450 C   0  0  0  0  0  2  0  0  0  0  0  0
  193.1570  175.8840  137.9160 C   0  0  0  0  0  2  0  0  0  0  0  0
  194.3030  174.9360  137.8460 C   0  0  0  0  0  3  0  0  0  0  0  0
  194.8820  174.6850  136.6770 C   0  0  0  0  0  2  0  0  0  0  0  0
  189.2550  177.7420  138.4980 C   0  0  0  0  0  2  0  0  0  0  0  0
  188.5970  177.3490  140.8190 N   0  0  0  0  0  0  0  0  0  0  0  0
  189.5370  177.5060  139.9040 N   0  0  0  0  0  0  0  0  0  0  0  0
  189.2610  177.1340  141.9680 C   0  0  0  0  0  0  0  0  0  0  0  0
  190.7570  177.4050  140.4050 N   0  0  0  0  0  0  0  0  0  0  0  0
  190.6210  177.1720  141.7260 C   0  0  0  0  0  3  0  0  0  0  0  0
  187.4590  177.9770  145.7810 C   0  0  0  0  0  2  0  0  0  0  0  0
  188.6180  176.9330  143.2990 C   0  0  0  0  0  3  0  0  0  0  0  0
  186.5800  177.3750  144.6890 C   0  0  0  0  0  2  0  0  0  0  0  0
  187.2290  177.5720  143.3230 C   0  0  0  0  0  2  0  0  0  0  0  0
  189.4980  177.5220  144.4010 C   0  0  0  0  0  2  0  0  0  0  0  0
  188.8390  177.3250  145.7640 C   0  0  0  0  0  2  0  0  0  0  0  0
  1  7  1  0  0  0  0
  2  8  1  0  0  0  0
  4  2  2  0  0  0  0
  6  2  1  0  0  0  0
  6  9  2  0  0  0  0
  7  5  2  0  0  0  0
  8 26  1  1  0  0  0
  8  3  1  0  0  0  0
  9 11  1  0  0  0  0
 10  9  1  6  0  0  0
 10  1  1  0  0  0  0
 11  3  2  0  0  0  0
 11  1  1  0  0  0  0
 12 16  1  0  0  0  0
 14 13  1  6  0  0  0
 14 10  1  0  0  0  0
 15 14  1  0  0  0  0
 16 13  1  0  0  0  0
 17 15  1  0  0  0  0
 17 12  1  0  0  0  0
 19  7  1  1  0  0  0
 19 18  1  0  0  0  0
 20 21  1  1  0  0  0
 20 19  1  0  0  0  0
 20 18  1  0  0  0  0
 22 23  1  0  0  0  0
 22 24  1  0  0  0  0
 22 21  1  0  0  0  0
 25 22  2  0  0  0  0
 26 27  1  6  0  0  0
 26 28  1  0  0  0  0
 28 36  1  6  0  0  0
 29 30  1  0  0  0  0
 29 32  1  0  0  0  0
 30 28  1  0  0  0  0
 31 29  2  0  0  0  0
 32 33  1  0  0  0  0
 34 33  1  0  0  0  0
 35 34  2  0  0  0  0
 36 38  1  0  0  0  0
 37 39  2  0  0  0  0
 38 40  1  0  0  0  0
 38 37  1  0  0  0  0
 39 43  1  0  0  0  0
 40 41  2  0  0  0  0
 41 39  1  0  0  0  0
 43 45  1  0  0  0  0
 43 46  1  0  0  0  0
 44 42  1  0  0  0  0
 45 44  1  0  0  0  0
 46 47  1  0  0  0  0
 47 42  1  0  0  0  0
M  END
>  <MODEL>
6

>  <REMARK>
 VINA RESULT:      -7.5      3.179      7.669
  Name = 
  13 active torsions:
  status: ('A' for Active; 'I' for Inactive)
    1  A    between atoms: C_2  and  C_13
    2  A    between atoms: C_2  and  C_17
    3  A    between atoms: C_2  and  N_36
    4  A    between atoms: C_4  and  C_44
    5  A    between atoms: P_7  and  O_33
    6  A    between atoms: N_10  and  C_13
    7  A    between atoms: C_12  and  C_34
    8  A    between atoms: C_14  and  C_43
    9  A    between atoms: C_17  and  C_39
   10  A    between atoms: C_21  and  C_38
   11  A    between atoms: C_23  and  C_41
   12  A    between atoms: C_25  and  O_33
   13  A    between atoms: C_43  and  C_44
                            x       y       z     vdW  Elec       q    Type
                         _______ _______ _______ _____ _____    ______ ____

>  <TORSDO>
F 13

$$$$
=
 OpenBabel11062417053D

 47 52  0  0  1  0  0  0  0  0999 V2000
  184.9520  176.9630  136.8780 N   0  0  0  0  0  0  0  0  0  0  0  0
  188.9490  176.5070  136.2950 C   0  0  0  0  0  0  0  0  0  0  0  0
  187.2540  177.5330  137.9250 N   0  0  0  0  0  0  0  0  0  0  0  0
  190.1290  176.4130  135.8690 O   0  0  0  0  0  0  0  0  0  0  0  0
  183.9320  178.0280  138.6690 O   0  0  0  0  0  0  0  0  0  0  0  0
  187.8710  175.9780  135.4810 N   0  0  0  0  0  0  0  0  0  0  0  0
  183.7980  177.4980  137.5360 C   0  0  0  0  0  0  0  0  0  0  0  0
  188.6860  177.2190  137.6670 C   0  0  1  0  0  3  0  0  0  0  0  0
  186.7000  176.2640  135.9200 C   0  0  0  0  0  0  0  0  0  0  0  0
  185.2780  176.1720  135.7260 C   0  0  1  0  0  3  0  0  0  0  0  0
  186.3940  177.0380  137.1080 C   0  0  0  0  0  0  0  0  0  0  0  0
  185.0440  172.0370  136.2900 C   0  0  0  0  0  2  0  0  0  0  0  0
  185.4810  173.7840  134.9030 C   0  0  0  0  0  2  0  0  0  0  0  0
  184.7640  174.7310  135.8780 C   0  0  1  0  0  3  0  0  0  0  0  0
  184.9020  174.2590  137.2030 O   0  0  0  0  0  0  0  0  0  0  0  0
  184.8960  172.5040  134.9700 O   0  0  0  0  0  0  0  0  0  0  0  0
  184.3160  172.9790  137.2570 C   0  0  0  0  0  2  0  0  0  0  0  0
  181.7320  176.1840  136.8720 C   0  0  0  0  0  2  0  0  0  0  0  0
  182.4360  177.5260  136.8890 C   0  0  1  0  0  3  0  0  0  0  0  0
  181.2930  177.2330  137.8720 C   0  0  2  0  0  3  0  0  0  0  0  0
  181.7570  176.8790  139.1470 O   0  0  0  0  0  0  0  0  0  0  0  0
  180.7940  177.7450  140.2440 P   0  0  0  0  0  0  0  0  0  0  0  0
  180.0080  179.0150  139.4480 O   0  0  0  0  0  0  0  0  0  0  0  0
  181.6520  178.3000  141.3590 O   0  0  0  0  0  1  0  0  0  0  0  0
  179.6350  176.7050  140.9020 O   0  0  0  0  0  1  0  0  0  0  0  0
  189.2740  176.4150  138.8440 C   0  0  1  0  0  3  0  0  0  0  0  0
  190.5870  176.0350  138.5450 O   0  0  0  0  0  1  0  0  0  0  0  0
  189.2600  177.2190  140.1540 C   0  0  1  0  0  3  0  0  0  0  0  0
  191.1600  177.1560  141.8310 C   0  0  0  0  0  0  0  0  0  0  0  0
  190.6200  177.5430  140.5650 N   0  0  0  0  0  2  0  0  0  0  0  0
  192.3370  177.4840  142.1260 O   0  0  0  0  0  0  0  0  0  0  0  0
  190.3530  176.3570  142.8010 C   0  0  0  0  0  2  0  0  0  0  0  0
  190.4150  176.9930  144.1760 C   0  0  0  0  0  2  0  0  0  0  0  0
  191.5150  176.3710  144.9640 C   0  0  0  0  0  3  0  0  0  0  0  0
  191.7230  176.7510  146.2200 C   0  0  0  0  0  2  0  0  0  0  0  0
  188.4810  178.5180  139.9840 C   0  0  0  0  0  2  0  0  0  0  0  0
  187.4800  178.1100  142.1760 N   0  0  0  0  0  0  0  0  0  0  0  0
  187.3940  178.5830  140.9470 N   0  0  0  0  0  0  0  0  0  0  0  0
  186.2890  178.3820  142.7400 C   0  0  0  0  0  0  0  0  0  0  0  0
  186.2190  179.1390  140.6960 N   0  0  0  0  0  0  0  0  0  0  0  0
  185.4830  179.0250  141.8190 C   0  0  0  0  0  3  0  0  0  0  0  0
  185.7940  178.5370  147.0090 C   0  0  0  0  0  2  0  0  0  0  0  0
  185.8970  178.0040  144.1280 C   0  0  0  0  0  3  0  0  0  0  0  0
  184.5470  178.6550  146.1370 C   0  0  0  0  0  2  0  0  0  0  0  0
  184.9360  179.0390  144.7130 C   0  0  0  0  0  2  0  0  0  0  0  0
  187.1400  177.8710  145.0070 C   0  0  0  0  0  2  0  0  0  0  0  0
  186.7430  177.4910  146.4300 C   0  0  0  0  0  2  0  0  0  0  0  0
  1 11  1  0  0  0  0
  1  7  1  0  0  0  0
  2  8  1  0  0  0  0
  4  2  2  0  0  0  0
  6  9  2  0  0  0  0
  6  2  1  0  0  0  0
  7  5  2  0  0  0  0
  8  3  1  0  0  0  0
  8 26  1  1  0  0  0
  9 11  1  0  0  0  0
 10 14  1  0  0  0  0
 10  9  1  1  0  0  0
 10  1  1  0  0  0  0
 11  3  2  0  0  0  0
 12 17  1  0  0  0  0
 13 16  1  0  0  0  0
 14 13  1  6  0  0  0
 14 15  1  0  0  0  0
 15 17  1  0  0  0  0
 16 12  1  0  0  0  0
 18 19  1  0  0  0  0
 18 20  1  0  0  0  0
 19  7  1  1  0  0  0
 19 20  1  0  0  0  0
 20 21  1  1  0  0  0
 21 22  1  0  0  0  0
 22 25  1  0  0  0  0
 22 24  1  0  0  0  0
 23 22  2  0  0  0  0
 26 27  1  6  0  0  0
 26 28  1  0  0  0  0
 28 36  1  6  0  0  0
 28 30  1  0  0  0  0
 29 31  2  0  0  0  0
 29 32  1  0  0  0  0
 30 29  1  0  0  0  0
 32 33  1  0  0  0  0
 33 34  1  0  0  0  0
 34 35  2  0  0  0  0
 36 38  1  0  0  0  0
 37 39  2  0  0  0  0
 38 37  1  0  0  0  0
 39 43  1  0  0  0  0
 40 38  1  0  0  0  0
 40 41  2  0  0  0  0
 41 39  1  0  0  0  0
 43 45  1  0  0  0  0
 43 46  1  0  0  0  0
 44 42  1  0  0  0  0
 45 44  1  0  0  0  0
 46 47  1  0  0  0  0
 47 42  1  0  0  0  0
M  END
>  <MODEL>
7

>  <REMARK>
 VINA RESULT:      -7.4      2.740      4.864
  Name = 
  13 active torsions:
  status: ('A' for Active; 'I' for Inactive)
    1  A    between atoms: C_2  and  C_13
    2  A    between atoms: C_2  and  C_17
    3  A    between atoms: C_2  and  N_36
    4  A    between atoms: C_4  and  C_44
    5  A    between atoms: P_7  and  O_33
    6  A    between atoms: N_10  and  C_13
    7  A    between atoms: C_12  and  C_34
    8  A    between atoms: C_14  and  C_43
    9  A    between atoms: C_17  and  C_39
   10  A    between atoms: C_21  and  C_38
   11  A    between atoms: C_23  and  C_41
   12  A    between atoms: C_25  and  O_33
   13  A    between atoms: C_43  and  C_44
                            x       y       z     vdW  Elec       q    Type
                         _______ _______ _______ _____ _____    ______ ____

>  <TORSDO>
F 13

$$$$
=
 OpenBabel11062417053D

 47 52  0  0  1  0  0  0  0  0999 V2000
  183.1780  178.3140  137.9340 N   0  0  0  0  0  0  0  0  0  0  0  0
  186.1540  176.6730  135.7030 C   0  0  0  0  0  0  0  0  0  0  0  0
  185.7470  177.9740  137.8780 N   0  0  0  0  0  0  0  0  0  0  0  0
  186.9430  176.2600  134.8150 O   0  0  0  0  0  0  0  0  0  0  0  0
  183.4200  179.4120  139.9630 O   0  0  0  0  0  0  0  0  0  0  0  0
  184.7280  176.6290  135.4440 N   0  0  0  0  0  0  0  0  0  0  0  0
  182.6590  179.1030  139.0100 C   0  0  0  0  0  0  0  0  0  0  0  0
  186.7420  177.2500  137.0380 C   0  0  1  0  0  3  0  0  0  0  0  0
  184.0180  177.2180  136.3360 C   0  0  0  0  0  0  0  0  0  0  0  0
  182.7070  177.6140  136.7730 C   0  0  1  0  0  3  0  0  0  0  0  0
  184.5150  177.8910  137.5210 C   0  0  0  0  0  0  0  0  0  0  0  0
  180.5910  174.0090  136.7200 C   0  0  0  0  0  2  0  0  0  0  0  0
  180.6840  176.2130  136.1700 C   0  0  0  0  0  2  0  0  0  0  0  0
  181.8380  176.4080  137.1660 C   0  0  1  0  0  3  0  0  0  0  0  0
  182.5970  175.2220  137.2680 O   0  0  0  0  0  0  0  0  0  0  0  0
  179.8300  175.1900  136.6290 O   0  0  0  0  0  0  0  0  0  0  0  0
  181.7340  174.2060  137.7260 C   0  0  0  0  0  2  0  0  0  0  0  0
  180.1760  178.5860  139.0350 C   0  0  0  0  0  2  0  0  0  0  0  0
  181.2530  179.6510  139.0100 C   0  0  1  0  0  3  0  0  0  0  0  0
  180.4870  179.3480  140.3060 C   0  0  2  0  0  3  0  0  0  0  0  0
  181.2080  178.5200  141.1780 O   0  0  0  0  0  0  0  0  0  0  0  0
  180.7530  178.9920  142.7430 P   0  0  0  0  0  0  0  0  0  0  0  0
  180.0650  180.5380  142.7050 O   0  0  0  0  0  0  0  0  0  0  0  0
  181.9600  178.9970  143.6540 O   0  0  0  0  0  1  0  0  0  0  0  0
  179.6130  177.8960  143.3400 O   0  0  0  0  0  1  0  0  0  0  0  0
  187.4430  176.1570  137.8680 C   0  0  1  0  0  3  0  0  0  0  0  0
  187.3470  174.9290  137.2040 O   0  0  0  0  0  1  0  0  0  0  0  0
  188.9220  176.4860  138.1210 C   0  0  1  0  0  3  0  0  0  0  0  0
  190.8890  176.1290  136.5630 C   0  0  0  0  0  0  0  0  0  0  0  0
  189.6160  176.7080  136.8590 N   0  0  0  0  0  2  0  0  0  0  0  0
  191.4390  176.3770  135.4600 O   0  0  0  0  0  0  0  0  0  0  0  0
  191.5700  175.2240  137.5380 C   0  0  0  0  0  2  0  0  0  0  0  0
  192.8890  175.8300  137.9760 C   0  0  0  0  0  2  0  0  0  0  0  0
  194.0000  174.8910  137.6590 C   0  0  0  0  0  3  0  0  0  0  0  0
  193.9150  174.1020  136.5940 C   0  0  0  0  0  2  0  0  0  0  0  0
  189.0600  177.7400  138.9780 C   0  0  0  0  0  2  0  0  0  0  0  0
  188.5240  177.3360  141.3280 N   0  0  0  0  0  0  0  0  0  0  0  0
  189.4030  177.3820  140.3440 N   0  0  0  0  0  0  0  0  0  0  0  0
  189.2270  176.9470  142.4070 C   0  0  0  0  0  0  0  0  0  0  0  0
  190.6220  177.0470  140.7340 N   0  0  0  0  0  0  0  0  0  0  0  0
  190.5500  176.7670  142.0510 C   0  0  0  0  0  3  0  0  0  0  0  0
  187.6840  177.8990  146.3070 C   0  0  0  0  0  2  0  0  0  0  0  0
  188.6640  176.7850  143.7780 C   0  0  0  0  0  3  0  0  0  0  0  0
  186.7260  177.2980  145.2830 C   0  0  0  0  0  2  0  0  0  0  0  0
  187.2930  177.4560  143.8760 C   0  0  0  0  0  2  0  0  0  0  0  0
  189.6230  177.3720  144.8130 C   0  0  0  0  0  2  0  0  0  0  0  0
  189.0460  177.2150  146.2170 C   0  0  0  0  0  2  0  0  0  0  0  0
  1  7  1  0  0  0  0
  2  8  1  0  0  0  0
  4  2  2  0  0  0  0
  6  2  1  0  0  0  0
  6  9  2  0  0  0  0
  7  5  2  0  0  0  0
  8 26  1  1  0  0  0
  8  3  1  0  0  0  0
  9 11  1  0  0  0  0
 10  9  1  1  0  0  0
 10 14  1  0  0  0  0
 10  1  1  0  0  0  0
 11  3  2  0  0  0  0
 11  1  1  0  0  0  0
 12 17  1  0  0  0  0
 13 16  1  0  0  0  0
 14 13  1  6  0  0  0
 14 15  1  0  0  0  0
 15 17  1  0  0  0  0
 16 12  1  0  0  0  0
 18 20  1  0  0  0  0
 19  7  1  1  0  0  0
 19 18  1  0  0  0  0
 19 20  1  0  0  0  0
 20 21  1  1  0  0  0
 21 22  1  0  0  0  0
 22 25  1  0  0  0  0
 22 24  1  0  0  0  0
 23 22  2  0  0  0  0
 26 27  1  6  0  0  0
 26 28  1  0  0  0  0
 28 36  1  1  0  0  0
 29 30  1  0  0  0  0
 29 32  1  0  0  0  0
 30 28  1  0  0  0  0
 31 29  2  0  0  0  0
 32 33  1  0  0  0  0
 34 33  1  0  0  0  0
 35 34  2  0  0  0  0
 36 38  1  0  0  0  0
 37 39  2  0  0  0  0
 38 40  1  0  0  0  0
 38 37  1  0  0  0  0
 39 43  1  0  0  0  0
 40 41  2  0  0  0  0
 41 39  1  0  0  0  0
 43 45  1  0  0  0  0
 43 46  1  0  0  0  0
 44 42  1  0  0  0  0
 45 44  1  0  0  0  0
 46 47  1  0  0  0  0
 47 42  1  0  0  0  0
M  END
>  <MODEL>
8

>  <REMARK>
 VINA RESULT:      -7.3      3.484      7.772
  Name = 
  13 active torsions:
  status: ('A' for Active; 'I' for Inactive)
    1  A    between atoms: C_2  and  C_13
    2  A    between atoms: C_2  and  C_17
    3  A    between atoms: C_2  and  N_36
    4  A    between atoms: C_4  and  C_44
    5  A    between atoms: P_7  and  O_33
    6  A    between atoms: N_10  and  C_13
    7  A    between atoms: C_12  and  C_34
    8  A    between atoms: C_14  and  C_43
    9  A    between atoms: C_17  and  C_39
   10  A    between atoms: C_21  and  C_38
   11  A    between atoms: C_23  and  C_41
   12  A    between atoms: C_25  and  O_33
   13  A    between atoms: C_43  and  C_44
                            x       y       z     vdW  Elec       q    Type
                         _______ _______ _______ _____ _____    ______ ____

>  <TORSDO>
F 13

$$$$
=
 OpenBabel11062417053D

 47 52  0  0  1  0  0  0  0  0999 V2000
  186.7860  177.0250  136.9850 N   0  0  0  0  0  0  0  0  0  0  0  0
  190.4750  176.8490  138.6830 C   0  0  0  0  0  0  0  0  0  0  0  0
  188.1070  177.7450  139.0960 N   0  0  0  0  0  0  0  0  0  0  0  0
  191.7000  176.8390  138.9700 O   0  0  0  0  0  0  0  0  0  0  0  0
  184.8930  178.0050  137.9000 O   0  0  0  0  0  0  0  0  0  0  0  0
  190.0480  176.2520  137.4310 N   0  0  0  0  0  0  0  0  0  0  0  0
  185.4290  177.4760  136.8930 C   0  0  0  0  0  0  0  0  0  0  0  0
  189.4650  177.5320  139.6680 C   0  0  1  0  0  3  0  0  0  0  0  0
  188.8120  176.4550  137.1530 C   0  0  0  0  0  0  0  0  0  0  0  0
  187.7340  176.2670  136.2210 C   0  0  1  0  0  3  0  0  0  0  0  0
  187.8630  177.1980  137.9590 C   0  0  0  0  0  0  0  0  0  0  0  0
  187.5600  172.1060  136.5960 C   0  0  0  0  0  2  0  0  0  0  0  0
  188.4550  173.9270  135.5690 C   0  0  0  0  0  2  0  0  0  0  0  0
  187.3090  174.7920  136.1150 C   0  0  1  0  0  3  0  0  0  0  0  0
  186.8640  174.2820  137.3550 O   0  0  0  0  0  0  0  0  0  0  0  0
  187.9950  172.6110  135.3550 O   0  0  0  0  0  0  0  0  0  0  0  0
  186.4090  172.9670  137.1310 C   0  0  0  0  0  2  0  0  0  0  0  0
  184.8740  176.1540  134.8000 C   0  0  0  0  0  2  0  0  0  0  0  0
  184.6400  177.4140  135.6090 C   0  0  1  0  0  3  0  0  0  0  0  0
  183.5930  176.2900  135.5970 C   0  0  2  0  0  3  0  0  0  0  0  0
  183.6660  175.4730  136.7340 O   0  0  0  0  0  0  0  0  0  0  0  0
  182.1300  174.7680  136.8940 P   0  0  0  0  0  0  0  0  0  0  0  0
  181.1470  175.2220  135.5950 O   0  0  0  0  0  0  0  0  0  0  0  0
  181.4920  175.2100  138.1920 O   0  0  0  0  0  1  0  0  0  0  0  0
  182.2940  173.0860  136.9010 O   0  0  0  0  0  1  0  0  0  0  0  0
  189.3660  176.7620  141.0010 C   0  0  1  0  0  3  0  0  0  0  0  0
  190.6040  176.1860  141.3050 O   0  0  0  0  0  1  0  0  0  0  0  0
  188.9270  177.6720  142.1590 C   0  0  1  0  0  3  0  0  0  0  0  0
  190.4070  177.9780  144.1930 C   0  0  0  0  0  0  0  0  0  0  0  0
  190.0910  178.2430  142.8250 N   0  0  0  0  0  2  0  0  0  0  0  0
  191.4190  178.5180  144.7090 O   0  0  0  0  0  0  0  0  0  0  0  0
  189.5640  177.0600  145.0160 C   0  0  0  0  0  2  0  0  0  0  0  0
  188.7600  177.8560  146.0240 C   0  0  0  0  0  2  0  0  0  0  0  0
  188.9710  177.2950  147.3870 C   0  0  0  0  0  3  0  0  0  0  0  0
  188.5020  177.9410  148.4480 C   0  0  0  0  0  2  0  0  0  0  0  0
  188.0500  178.8110  141.6520 C   0  0  0  0  0  2  0  0  0  0  0  0
  185.6250  179.0760  141.4990 N   0  0  0  0  0  0  0  0  0  0  0  0
  186.6950  178.6670  142.1570 N   0  0  0  0  0  0  0  0  0  0  0  0
  184.5840  178.7430  142.2830 C   0  0  0  0  0  0  0  0  0  0  0  0
  186.3950  178.0960  143.3120 N   0  0  0  0  0  0  0  0  0  0  0  0
  185.0520  178.1300  143.4300 C   0  0  0  0  0  3  0  0  0  0  0  0
  180.3250  178.2740  141.9180 C   0  0  0  0  0  2  0  0  0  0  0  0
  183.1550  179.0360  141.9730 C   0  0  0  0  0  3  0  0  0  0  0  0
  180.8510  179.2940  142.9240 C   0  0  0  0  0  2  0  0  0  0  0  0
  182.3130  179.0060  143.2490 C   0  0  0  0  0  2  0  0  0  0  0  0
  182.6220  178.0270  140.9550 C   0  0  0  0  0  2  0  0  0  0  0  0
  181.1570  178.3190  140.6400 C   0  0  0  0  0  2  0  0  0  0  0  0
  1 11  1  0  0  0  0
  2  4  2  0  0  0  0
  2  8  1  0  0  0  0
  3  8  1  0  0  0  0
  6  2  1  0  0  0  0
  7  1  1  0  0  0  0
  7  5  2  0  0  0  0
  8 26  1  1  0  0  0
  9  6  2  0  0  0  0
  9 11  1  0  0  0  0
 10  1  1  0  0  0  0
 10  9  1  1  0  0  0
 11  3  2  0  0  0  0
 12 17  1  0  0  0  0
 14 13  1  1  0  0  0
 14 10  1  0  0  0  0
 14 15  1  0  0  0  0
 16 13  1  0  0  0  0
 16 12  1  0  0  0  0
 17 15  1  0  0  0  0
 18 20  1  0  0  0  0
 18 19  1  0  0  0  0
 19  7  1  1  0  0  0
 20 19  1  0  0  0  0
 20 21  1  1  0  0  0
 21 22  1  0  0  0  0
 22 25  1  0  0  0  0
 22 24  1  0  0  0  0
 23 22  2  0  0  0  0
 26 27  1  1  0  0  0
 26 28  1  0  0  0  0
 28 36  1  6  0  0  0
 28 30  1  0  0  0  0
 29 31  2  0  0  0  0
 29 32  1  0  0  0  0
 30 29  1  0  0  0  0
 32 33  1  0  0  0  0
 33 34  1  0  0  0  0
 34 35  2  0  0  0  0
 36 38  1  0  0  0  0
 37 38  1  0  0  0  0
 37 39  2  0  0  0  0
 38 40  1  0  0  0  0
 39 41  1  0  0  0  0
 40 41  2  0  0  0  0
 42 44  1  0  0  0  0
 43 39  1  0  0  0  0
 43 45  1  0  0  0  0
 44 45  1  0  0  0  0
 46 43  1  0  0  0  0
 47 46  1  0  0  0  0
 47 42  1  0  0  0  0
M  END
>  <MODEL>
9

>  <REMARK>
 VINA RESULT:      -7.3      1.881      2.573
  Name = 
  13 active torsions:
  status: ('A' for Active; 'I' for Inactive)
    1  A    between atoms: C_2  and  C_13
    2  A    between atoms: C_2  and  C_17
    3  A    between atoms: C_2  and  N_36
    4  A    between atoms: C_4  and  C_44
    5  A    between atoms: P_7  and  O_33
    6  A    between atoms: N_10  and  C_13
    7  A    between atoms: C_12  and  C_34
    8  A    between atoms: C_14  and  C_43
    9  A    between atoms: C_17  and  C_39
   10  A    between atoms: C_21  and  C_38
   11  A    between atoms: C_23  and  C_41
   12  A    between atoms: C_25  and  O_33
   13  A    between atoms: C_43  and  C_44
                            x       y       z     vdW  Elec       q    Type
                         _______ _______ _______ _____ _____    ______ ____

>  <TORSDO>
F 13

$$$$
