=
 OpenBabel11062418103D

 25 29  0  0  1  0  0  0  0  0999 V2000
  187.8180  177.2890  144.7410 C   0  0  0  0  0  2  0  0  0  0  0  0
  186.0930  178.4080  142.3210 C   0  0  0  0  0  0  0  0  0  0  0  0
  185.8080  178.6230  139.7600 C   0  0  0  0  0  0  0  0  0  0  0  0
  184.7520  178.6850  138.6910 C   0  0  0  0  0  2  0  0  0  0  0  0
  185.1580  178.4240  143.3440 C   0  0  1  0  0  3  0  0  0  0  0  0
  183.4730  179.3850  139.1960 C   0  0  0  0  0  2  0  0  0  0  0  0
  182.9430  178.8100  140.5270 C   0  0  2  0  0  3  0  0  0  0  0  0
  183.9030  178.5720  142.8610 N   0  0  0  0  0  0  0  0  0  0  0  0
  186.3890  177.1120  145.2500 C   0  0  0  0  0  2  0  0  0  0  0  0
  187.5750  178.2590  142.4590 C   0  0  0  0  0  2  0  0  0  0  0  0
  185.7810  179.4650  145.4230 O   0  0  0  0  0  0  0  0  0  0  0  0
  184.0560  178.6670  141.5240 C   0  0  0  0  0  0  0  0  0  0  0  0
  185.4800  178.2460  144.7920 C   0  0  1  0  0  0  0  0  0  0  0  0
  187.0270  178.5670  139.4500 O   0  0  0  0  0  0  0  0  0  0  0  0
  187.9270  176.9910  143.2410 C   0  0  1  0  0  3  0  0  0  0  0  0
  185.3740  178.5630  141.1600 C   0  0  0  0  0  0  0  0  0  0  0  0
  184.5710  178.8390  145.7930 C   0  0  0  0  0  2  0  0  0  0  0  0
  189.7930  177.4120  141.9120 N   0  0  0  0  0  2  0  0  0  0  0  0
  189.2850  176.5490  142.9040 N   0  0  1  0  0  0  0  0  0  0  0  0
  190.1380  176.7440  144.0720 C   0  0  0  0  0  2  0  0  0  0  0  0
  191.4850  177.1770  143.5620 C   0  0  0  0  0  2  0  0  0  0  0  0
  191.2320  177.4790  142.1130 C   0  0  0  0  0  2  0  0  0  0  0  0
  180.8620  177.4380  140.5320 O   0  0  0  0  0  1  0  0  0  0  0  0
  182.8580  176.4860  139.9340 O   0  0  0  0  0  0  0  0  0  0  0  0
  182.2300  177.5110  140.3160 C   0  0  0  0  0  0  0  0  0  0  0  0
  1  9  1  0  0  0  0
  2 10  1  0  0  0  0
  3 16  1  0  0  0  0
  4  6  1  0  0  0  0
  4  3  1  0  0  0  0
  5  2  1  6  0  0  0
  5 13  1  0  0  0  0
  6  7  1  0  0  0  0
  7 25  1  6  0  0  0
  7 12  1  0  0  0  0
  8  5  1  0  0  0  0
 11 17  1  0  0  0  0
 12  8  2  0  0  0  0
 13  9  1  1  0  0  0
 13 11  1  0  0  0  0
 13 17  1  0  0  0  0
 14  3  2  0  0  0  0
 15 10  1  6  0  0  0
 15  1  1  0  0  0  0
 16 12  1  0  0  0  0
 16  2  2  0  0  0  0
 18 22  1  0  0  0  0
 18 19  1  0  0  0  0
 19 15  1  0  0  0  0
 19 20  1  1  0  0  0
 21 20  1  0  0  0  0
 22 21  1  0  0  0  0
 24 25  2  0  0  0  0
 25 23  1  0  0  0  0
M  END
>  <MODEL>
1

>  <REMARK>
 VINA RESULT:      -8.1      0.000      0.000
  Name = 
  2 active torsions:
  status: ('A' for Active; 'I' for Inactive)
    1  A    between atoms: N_7  and  C_23
    2  A    between atoms: C_12  and  C_16
                            x       y       z     vdW  Elec       q    Type
                         _______ _______ _______ _____ _____    ______ ____

>  <TORSDO>
F 2

$$$$
=
 OpenBabel11062418103D

 25 29  0  0  1  0  0  0  0  0999 V2000
  184.4560  178.9970  143.9260 C   0  0  0  0  0  2  0  0  0  0  0  0
  187.3550  177.8180  143.3890 C   0  0  0  0  0  0  0  0  0  0  0  0
  189.2310  177.3350  141.6760 C   0  0  0  0  0  0  0  0  0  0  0  0
  190.7290  177.2770  141.5510 C   0  0  0  0  0  2  0  0  0  0  0  0
  187.4080  178.0410  144.7550 C   0  0  1  0  0  3  0  0  0  0  0  0
  191.3900  176.8060  142.8640 C   0  0  0  0  0  2  0  0  0  0  0  0
  190.9250  177.5980  144.1040 C   0  0  2  0  0  3  0  0  0  0  0  0
  188.6800  177.9940  145.2140 N   0  0  0  0  0  0  0  0  0  0  0  0
  185.2130  179.4090  145.1860 C   0  0  0  0  0  2  0  0  0  0  0  0
  186.1320  177.7980  142.5270 C   0  0  0  0  0  2  0  0  0  0  0  0
  185.6070  177.1880  146.1060 O   0  0  0  0  0  0  0  0  0  0  0  0
  189.4290  177.7200  144.1250 C   0  0  0  0  0  0  0  0  0  0  0  0
  186.2230  178.3510  145.6120 C   0  0  1  0  0  0  0  0  0  0  0  0
  188.5010  177.2020  140.6600 O   0  0  0  0  0  0  0  0  0  0  0  0
  185.3370  179.0970  142.6750 C   0  0  1  0  0  3  0  0  0  0  0  0
  188.6570  177.6160  142.9960 C   0  0  0  0  0  0  0  0  0  0  0  0
  186.2800  177.9990  147.0450 C   0  0  0  0  0  2  0  0  0  0  0  0
  185.3610  179.3450  140.3580 N   0  0  0  0  0  2  0  0  0  0  0  0
  184.5110  179.3240  141.4830 N   0  0  1  0  0  0  0  0  0  0  0  0
  183.6390  178.1680  141.2980 C   0  0  0  0  0  2  0  0  0  0  0  0
  183.5230  177.9410  139.8160 C   0  0  0  0  0  2  0  0  0  0  0  0
  184.5850  178.8330  139.2390 C   0  0  0  0  0  2  0  0  0  0  0  0
  190.8390  180.0810  143.9060 O   0  0  0  0  0  0  0  0  0  0  0  0
  192.7990  179.0470  144.4870 O   0  0  0  0  0  1  0  0  0  0  0  0
  191.5820  178.9410  144.1750 C   0  0  0  0  0  0  0  0  0  0  0  0
  1  9  1  0  0  0  0
  3 16  1  0  0  0  0
  4  3  1  0  0  0  0
  4  6  1  0  0  0  0
  5  2  1  6  0  0  0
  5  8  1  0  0  0  0
  5 13  1  0  0  0  0
  6  7  1  0  0  0  0
  7 12  1  0  0  0  0
  7 25  1  6  0  0  0
 10  2  1  0  0  0  0
 11 17  1  0  0  0  0
 12  8  2  0  0  0  0
 13  9  1  6  0  0  0
 13 11  1  0  0  0  0
 13 17  1  0  0  0  0
 14  3  2  0  0  0  0
 15 10  1  6  0  0  0
 15  1  1  0  0  0  0
 16  2  2  0  0  0  0
 16 12  1  0  0  0  0
 18 19  1  0  0  0  0
 19 20  1  6  0  0  0
 19 15  1  0  0  0  0
 21 20  1  0  0  0  0
 22 21  1  0  0  0  0
 22 18  1  0  0  0  0
 23 25  2  0  0  0  0
 25 24  1  0  0  0  0
M  END
>  <MODEL>
2

>  <REMARK>
 VINA RESULT:      -7.8      2.383      6.191
  Name = 
  2 active torsions:
  status: ('A' for Active; 'I' for Inactive)
    1  A    between atoms: N_7  and  C_23
    2  A    between atoms: C_12  and  C_16
                            x       y       z     vdW  Elec       q    Type
                         _______ _______ _______ _____ _____    ______ ____

>  <TORSDO>
F 2

$$$$
=
 OpenBabel11062418103D

 25 29  0  0  1  0  0  0  0  0999 V2000
  185.4490  178.5360  146.9710 C   0  0  0  0  0  2  0  0  0  0  0  0
  187.9330  177.1940  145.5190 C   0  0  0  0  0  0  0  0  0  0  0  0
  188.9070  176.1850  143.3460 C   0  0  0  0  0  0  0  0  0  0  0  0
  190.1910  176.0630  142.5730 C   0  0  0  0  0  2  0  0  0  0  0  0
  188.5550  177.8150  146.5900 C   0  0  1  0  0  3  0  0  0  0  0  0
  191.4150  175.9940  143.5120 C   0  0  0  0  0  2  0  0  0  0  0  0
  191.4510  177.1300  144.5570 C   0  0  2  0  0  3  0  0  0  0  0  0
  189.8950  177.8830  146.4100 N   0  0  0  0  0  0  0  0  0  0  0  0
  186.6280  179.2910  147.5790 C   0  0  0  0  0  2  0  0  0  0  0  0
  186.4690  176.9400  145.3530 C   0  0  0  0  0  2  0  0  0  0  0  0
  187.6510  177.4400  148.7890 O   0  0  0  0  0  0  0  0  0  0  0  0
  190.1150  177.2820  145.2230 C   0  0  0  0  0  0  0  0  0  0  0  0
  187.8410  178.3900  147.7700 C   0  0  1  0  0  0  0  0  0  0  0  0
  187.8260  175.7670  142.8550 O   0  0  0  0  0  0  0  0  0  0  0  0
  185.6700  178.2390  145.4830 C   0  0  1  0  0  3  0  0  0  0  0  0
  188.9430  176.8590  144.6480 C   0  0  0  0  0  0  0  0  0  0  0  0
  188.5660  178.4830  149.0530 C   0  0  0  0  0  2  0  0  0  0  0  0
  183.6080  179.2520  145.0950 N   0  0  0  0  0  2  0  0  0  0  0  0
  184.3830  178.1140  144.7890 N   0  0  1  0  0  0  0  0  0  0  0  0
  184.6240  178.1760  143.3510 C   0  0  0  0  0  2  0  0  0  0  0  0
  183.4710  178.9280  142.7460 C   0  0  0  0  0  2  0  0  0  0  0  0
  182.7630  179.5050  143.9380 C   0  0  0  0  0  2  0  0  0  0  0  0
  191.7690  178.6160  142.5800 O   0  0  0  0  0  0  0  0  0  0  0  0
  192.3980  179.3330  144.6640 O   0  0  0  0  0  1  0  0  0  0  0  0
  191.9050  178.4200  143.9470 C   0  0  0  0  0  0  0  0  0  0  0  0
  1  9  1  0  0  0  0
  3 16  1  0  0  0  0
  4  3  1  0  0  0  0
  4  6  1  0  0  0  0
  5  2  1  6  0  0  0
  5 13  1  0  0  0  0
  6  7  1  0  0  0  0
  7 25  1  6  0  0  0
  7 12  1  0  0  0  0
  8  5  1  0  0  0  0
 10  2  1  0  0  0  0
 11 17  1  0  0  0  0
 12  8  2  0  0  0  0
 13  9  1  6  0  0  0
 13 11  1  0  0  0  0
 13 17  1  0  0  0  0
 14  3  2  0  0  0  0
 15 10  1  1  0  0  0
 15  1  1  0  0  0  0
 16 12  1  0  0  0  0
 16  2  2  0  0  0  0
 19 20  1  6  0  0  0
 19 18  1  0  0  0  0
 19 15  1  0  0  0  0
 21 20  1  0  0  0  0
 21 22  1  0  0  0  0
 22 18  1  0  0  0  0
 23 25  2  0  0  0  0
 25 24  1  0  0  0  0
M  END
>  <MODEL>
3

>  <REMARK>
 VINA RESULT:      -7.8      3.205      6.848
  Name = 
  2 active torsions:
  status: ('A' for Active; 'I' for Inactive)
    1  A    between atoms: N_7  and  C_23
    2  A    between atoms: C_12  and  C_16
                            x       y       z     vdW  Elec       q    Type
                         _______ _______ _______ _____ _____    ______ ____

>  <TORSDO>
F 2

$$$$
=
 OpenBabel11062418103D

 25 29  0  0  1  0  0  0  0  0999 V2000
  187.1350  177.6490  143.8210 C   0  0  0  0  0  2  0  0  0  0  0  0
  188.1050  178.1500  140.8390 C   0  0  0  0  0  0  0  0  0  0  0  0
  189.9200  177.7580  139.0400 C   0  0  0  0  0  0  0  0  0  0  0  0
  190.0910  177.5540  137.5600 C   0  0  0  0  0  2  0  0  0  0  0  0
  186.7450  178.3890  140.7200 C   0  0  1  0  0  3  0  0  0  0  0  0
  189.0310  178.3340  136.7540 C   0  0  0  0  0  2  0  0  0  0  0  0
  187.5860  178.0770  137.2290 C   0  0  2  0  0  3  0  0  0  0  0  0
  186.3580  178.4020  139.4230 N   0  0  0  0  0  0  0  0  0  0  0  0
  185.8270  177.5750  143.0370 C   0  0  0  0  0  2  0  0  0  0  0  0
  188.8940  178.0590  142.1060 C   0  0  0  0  0  2  0  0  0  0  0  0
  185.7240  179.8950  142.2980 O   0  0  0  0  0  0  0  0  0  0  0  0
  187.4910  178.1860  138.7240 C   0  0  0  0  0  0  0  0  0  0  0  0
  185.8080  178.5580  141.8720 C   0  0  1  0  0  0  0  0  0  0  0  0
  190.9060  177.6500  139.8170 O   0  0  0  0  0  0  0  0  0  0  0  0
  188.2960  177.0120  143.0490 C   0  0  1  0  0  3  0  0  0  0  0  0
  188.5710  178.0190  139.5530 C   0  0  0  0  0  0  0  0  0  0  0  0
  184.5810  179.3540  141.6700 C   0  0  0  0  0  2  0  0  0  0  0  0
  190.4060  176.0380  143.2200 N   0  0  0  0  0  2  0  0  0  0  0  0
  189.3220  176.5240  143.9790 N   0  0  1  0  0  0  0  0  0  0  0  0
  189.8450  177.6610  144.7300 C   0  0  0  0  0  2  0  0  0  0  0  0
  191.3150  177.4160  144.9270 C   0  0  0  0  0  2  0  0  0  0  0  0
  191.6050  176.2600  144.0130 C   0  0  0  0  0  2  0  0  0  0  0  0
  187.3100  175.6140  137.5050 O   0  0  0  0  0  1  0  0  0  0  0  0
  186.4330  176.6660  135.6670 O   0  0  0  0  0  0  0  0  0  0  0  0
  187.0780  176.7540  136.7470 C   0  0  0  0  0  0  0  0  0  0  0  0
  2 10  1  0  0  0  0
  3 16  1  0  0  0  0
  3 14  2  0  0  0  0
  4  3  1  0  0  0  0
  5  8  1  1  0  0  0
  5  2  1  0  0  0  0
  5 13  1  0  0  0  0
  6  7  1  0  0  0  0
  6  4  1  0  0  0  0
  7 25  1  1  0  0  0
  7 12  1  0  0  0  0
  9  1  1  0  0  0  0
 12  8  2  0  0  0  0
 12 16  1  0  0  0  0
 13 17  1  6  0  0  0
 13 11  1  0  0  0  0
 13  9  1  0  0  0  0
 15 10  1  6  0  0  0
 15  1  1  0  0  0  0
 15 19  1  0  0  0  0
 16  2  2  0  0  0  0
 17 11  1  0  0  0  0
 18 19  1  0  0  0  0
 18 22  1  0  0  0  0
 19 20  1  1  0  0  0
 20 21  1  0  0  0  0
 22 21  1  0  0  0  0
 24 25  2  0  0  0  0
 25 23  1  0  0  0  0
M  END
>  <MODEL>
4

>  <REMARK>
 VINA RESULT:      -7.7      2.684      3.915
  Name = 
  2 active torsions:
  status: ('A' for Active; 'I' for Inactive)
    1  A    between atoms: N_7  and  C_23
    2  A    between atoms: C_12  and  C_16
                            x       y       z     vdW  Elec       q    Type
                         _______ _______ _______ _____ _____    ______ ____

>  <TORSDO>
F 2

$$$$
=
 OpenBabel11062418103D

 25 29  0  0  1  0  0  0  0  0999 V2000
  184.1250  178.5130  142.3180 C   0  0  0  0  0  2  0  0  0  0  0  0
  187.0020  178.4300  140.9780 C   0  0  0  0  0  0  0  0  0  0  0  0
  189.5150  177.8780  141.2380 C   0  0  0  0  0  0  0  0  0  0  0  0
  190.6960  177.3580  140.4640 C   0  0  0  0  0  2  0  0  0  0  0  0
  186.1870  178.4480  139.8570 C   0  0  0  0  0  0  0  0  0  0  0  0
  190.6310  177.7770  138.9800 C   0  0  0  0  0  2  0  0  0  0  0  0
  189.2830  177.4450  138.3070 C   0  0  2  0  0  3  0  0  0  0  0  0
  186.8740  178.1050  138.7430 N   0  0  0  0  0  0  0  0  0  0  0  0
  183.8060  178.0820  140.8890 C   0  0  0  0  0  2  0  0  0  0  0  0
  186.6040  178.7450  142.3850 C   0  0  0  0  0  2  0  0  0  0  0  0
  184.4670  180.1280  139.7440 O   0  0  0  0  0  0  0  0  0  0  0  0
  188.1350  177.8870  139.1680 C   0  0  0  0  0  0  0  0  0  0  0  0
  184.7250  178.7530  139.8760 C   0  0  1  0  0  0  0  0  0  0  0  0
  189.6070  178.0880  142.4750 O   0  0  0  0  0  0  0  0  0  0  0  0
  185.4240  177.8770  142.8270 C   0  0  1  0  0  3  0  0  0  0  0  0
  188.2480  178.0660  140.5240 C   0  0  2  0  0  3  0  0  0  0  0  0
  184.1060  179.3060  138.6540 C   0  0  0  0  0  2  0  0  0  0  0  0
  186.7280  177.6360  144.7420 N   0  0  0  0  0  2  0  0  0  0  0  0
  185.3990  177.7630  144.2910 N   0  0  1  0  0  0  0  0  0  0  0  0
  184.9130  179.0230  144.8440 C   0  0  0  0  0  2  0  0  0  0  0  0
  185.6810  179.2680  146.1130 C   0  0  0  0  0  2  0  0  0  0  0  0
  186.7820  178.2480  146.0610 C   0  0  0  0  0  2  0  0  0  0  0  0
  190.2910  175.1710  138.1360 O   0  0  0  0  0  1  0  0  0  0  0  0
  188.0990  175.4980  137.5520 O   0  0  0  0  0  0  0  0  0  0  0  0
  189.1820  175.9890  137.9710 C   0  0  0  0  0  0  0  0  0  0  0  0
  2 10  1  0  0  0  0
  3 14  2  0  0  0  0
  4  3  1  0  0  0  0
  5 13  1  0  0  0  0
  5  2  2  0  0  0  0
  6  4  1  0  0  0  0
  7 25  1  1  0  0  0
  7  6  1  0  0  0  0
  7 12  1  0  0  0  0
  8 12  2  0  0  0  0
  8  5  1  0  0  0  0
  9  1  1  0  0  0  0
 10 15  1  0  0  0  0
 11 13  1  0  0  0  0
 13 17  1  6  0  0  0
 13  9  1  0  0  0  0
 15  1  1  1  0  0  0
 15 19  1  0  0  0  0
 16 12  1  6  0  0  0
 16  2  1  0  0  0  0
 16  3  1  0  0  0  0
 17 11  1  0  0  0  0
 18 22  1  0  0  0  0
 19 18  1  0  0  0  0
 19 20  1  1  0  0  0
 20 21  1  0  0  0  0
 22 21  1  0  0  0  0
 24 25  2  0  0  0  0
 25 23  1  0  0  0  0
M  END
>  <MODEL>
5

>  <REMARK>
 VINA RESULT:      -7.3      2.644      5.491
  Name = 
  2 active torsions:
  status: ('A' for Active; 'I' for Inactive)
    1  A    between atoms: N_7  and  C_23
    2  A    between atoms: C_12  and  C_16
                            x       y       z     vdW  Elec       q    Type
                         _______ _______ _______ _____ _____    ______ ____

>  <TORSDO>
F 2

$$$$
=
 OpenBabel11062418103D

 25 29  0  0  1  0  0  0  0  0999 V2000
  186.1680  177.9260  143.8160 C   0  0  0  0  0  2  0  0  0  0  0  0
  188.3520  177.9420  141.5110 C   0  0  0  0  0  0  0  0  0  0  0  0
  190.7120  177.2220  140.7360 C   0  0  0  0  0  0  0  0  0  0  0  0
  191.4730  176.7940  139.5120 C   0  0  0  0  0  2  0  0  0  0  0  0
  187.2010  178.2080  140.7880 C   0  0  1  0  0  3  0  0  0  0  0  0
  190.9350  177.4810  138.2390 C   0  0  0  0  0  2  0  0  0  0  0  0
  189.4060  177.3490  138.0700 C   0  0  2  0  0  3  0  0  0  0  0  0
  187.4030  178.0410  139.4600 N   0  0  0  0  0  0  0  0  0  0  0  0
  185.3150  177.7820  142.5580 C   0  0  0  0  0  2  0  0  0  0  0  0
  188.5190  178.0130  142.9960 C   0  0  0  0  0  2  0  0  0  0  0  0
  185.7580  179.9670  141.5760 O   0  0  0  0  0  0  0  0  0  0  0  0
  188.6990  177.6830  139.3510 C   0  0  0  0  0  0  0  0  0  0  0  0
  185.8850  178.5790  141.3920 C   0  0  1  0  0  0  0  0  0  0  0  0
  191.2610  177.1960  141.8690 O   0  0  0  0  0  0  0  0  0  0  0  0
  187.4800  177.1410  143.7050 C   0  0  1  0  0  3  0  0  0  0  0  0
  189.3050  177.6040  140.5790 C   0  0  0  0  0  0  0  0  0  0  0  0
  184.9420  179.3790  140.5850 C   0  0  0  0  0  2  0  0  0  0  0  0
  189.3550  176.9850  145.0800 N   0  0  0  0  0  2  0  0  0  0  0  0
  187.9640  176.7610  145.0380 N   0  0  1  0  0  0  0  0  0  0  0  0
  187.3870  177.6770  146.0180 C   0  0  0  0  0  2  0  0  0  0  0  0
  188.4400  177.9200  147.0630 C   0  0  0  0  0  2  0  0  0  0  0  0
  189.6810  177.3320  146.4540 C   0  0  0  0  0  2  0  0  0  0  0  0
  187.9780  175.8520  136.6780 O   0  0  0  0  0  0  0  0  0  0  0  0
  189.6550  174.9640  137.9620 O   0  0  0  0  0  1  0  0  0  0  0  0
  189.0260  175.9870  137.5780 C   0  0  0  0  0  0  0  0  0  0  0  0
  2 10  1  0  0  0  0
  3 14  2  0  0  0  0
  4  3  1  0  0  0  0
  5  8  1  1  0  0  0
  5 13  1  0  0  0  0
  5  2  1  0  0  0  0
  6  4  1  0  0  0  0
  7 25  1  1  0  0  0
  7  6  1  0  0  0  0
  7 12  1  0  0  0  0
  9  1  1  0  0  0  0
 12  8  2  0  0  0  0
 12 16  1  0  0  0  0
 13 17  1  6  0  0  0
 13 11  1  0  0  0  0
 13  9  1  0  0  0  0
 15 10  1  1  0  0  0
 15  1  1  0  0  0  0
 15 19  1  0  0  0  0
 16  3  1  0  0  0  0
 16  2  2  0  0  0  0
 17 11  1  0  0  0  0
 18 22  1  0  0  0  0
 19 18  1  0  0  0  0
 19 20  1  1  0  0  0
 20 21  1  0  0  0  0
 22 21  1  0  0  0  0
 23 25  2  0  0  0  0
 25 24  1  0  0  0  0
M  END
>  <MODEL>
6

>  <REMARK>
 VINA RESULT:      -7.1      2.824      4.959
  Name = 
  2 active torsions:
  status: ('A' for Active; 'I' for Inactive)
    1  A    between atoms: N_7  and  C_23
    2  A    between atoms: C_12  and  C_16
                            x       y       z     vdW  Elec       q    Type
                         _______ _______ _______ _____ _____    ______ ____

>  <TORSDO>
F 2

$$$$
=
 OpenBabel11062418103D

 25 29  0  0  1  0  0  0  0  0999 V2000
  189.6000  177.7290  142.4800 C   0  0  0  0  0  2  0  0  0  0  0  0
  191.0980  177.1500  139.7410 C   0  0  0  0  0  0  0  0  0  0  0  0
  193.2420  176.3170  138.5600 C   0  0  0  0  0  0  0  0  0  0  0  0
  193.7040  175.5780  137.3340 C   0  0  0  0  0  2  0  0  0  0  0  0
  189.7760  177.1570  139.3250 C   0  0  1  0  0  3  0  0  0  0  0  0
  192.7810  175.8490  136.1270 C   0  0  0  0  0  2  0  0  0  0  0  0
  191.2860  175.6220  136.4340 C   0  0  2  0  0  3  0  0  0  0  0  0
  189.6450  176.6190  138.0900 N   0  0  0  0  0  0  0  0  0  0  0  0
  188.4720  177.1980  141.5980 C   0  0  0  0  0  2  0  0  0  0  0  0
  191.6340  177.6540  141.0430 C   0  0  0  0  0  2  0  0  0  0  0  0
  188.3990  179.0190  139.9810 O   0  0  0  0  0  0  0  0  0  0  0  0
  190.9010  176.2890  137.7230 C   0  0  0  0  0  0  0  0  0  0  0  0
  188.6280  177.6420  140.1490 C   0  0  1  0  0  0  0  0  0  0  0  0
  194.0640  176.6390  139.4570 O   0  0  0  0  0  0  0  0  0  0  0  0
  190.9180  176.9900  142.2220 C   0  0  1  0  0  3  0  0  0  0  0  0
  191.8090  176.5890  138.7060 C   0  0  0  0  0  0  0  0  0  0  0  0
  187.4250  178.1420  139.4540 C   0  0  0  0  0  2  0  0  0  0  0  0
  191.1670  177.8920  144.3560 N   0  0  0  0  0  2  0  0  0  0  0  0
  191.7690  177.0300  143.4180 N   0  0  1  0  0  0  0  0  0  0  0  0
  191.7610  175.7070  144.0350 C   0  0  0  0  0  2  0  0  0  0  0  0
  191.7880  175.9200  145.5240 C   0  0  0  0  0  2  0  0  0  0  0  0
  191.5220  177.3900  145.6740 C   0  0  0  0  0  2  0  0  0  0  0  0
  191.3200  173.3600  135.3860 O   0  0  0  0  0  0  0  0  0  0  0  0
  190.3360  173.6570  137.4340 O   0  0  0  0  0  1  0  0  0  0  0  0
  190.9460  174.1640  136.4540 C   0  0  0  0  0  0  0  0  0  0  0  0
  2 10  1  0  0  0  0
  3 16  1  0  0  0  0
  3 14  2  0  0  0  0
  4  3  1  0  0  0  0
  5  8  1  1  0  0  0
  5  2  1  0  0  0  0
  5 13  1  0  0  0  0
  6  7  1  0  0  0  0
  6  4  1  0  0  0  0
  7 25  1  1  0  0  0
  7 12  1  0  0  0  0
  9  1  1  0  0  0  0
 11 13  1  0  0  0  0
 12  8  2  0  0  0  0
 12 16  1  0  0  0  0
 13 17  1  6  0  0  0
 13  9  1  0  0  0  0
 15 10  1  6  0  0  0
 15  1  1  0  0  0  0
 15 19  1  0  0  0  0
 16  2  2  0  0  0  0
 17 11  1  0  0  0  0
 18 22  1  0  0  0  0
 19 20  1  1  0  0  0
 19 18  1  0  0  0  0
 20 21  1  0  0  0  0
 21 22  1  0  0  0  0
 23 25  2  0  0  0  0
 25 24  1  0  0  0  0
M  END
>  <MODEL>
7

>  <REMARK>
 VINA RESULT:      -7.1      4.170      6.917
  Name = 
  2 active torsions:
  status: ('A' for Active; 'I' for Inactive)
    1  A    between atoms: N_7  and  C_23
    2  A    between atoms: C_12  and  C_16
                            x       y       z     vdW  Elec       q    Type
                         _______ _______ _______ _____ _____    ______ ____

>  <TORSDO>
F 2

$$$$
=
 OpenBabel11062418103D

 25 29  0  0  1  0  0  0  0  0999 V2000
  186.6400  178.7430  140.6770 C   0  0  0  0  0  2  0  0  0  0  0  0
  187.2620  177.5990  143.5720 C   0  0  0  0  0  0  0  0  0  0  0  0
  189.0480  176.8610  145.2900 C   0  0  0  0  0  0  0  0  0  0  0  0
  189.3270  176.8400  146.7680 C   0  0  0  0  0  2  0  0  0  0  0  0
  185.9790  178.0910  143.7510 C   0  0  0  0  0  0  0  0  0  0  0  0
  188.0310  176.6660  147.5880 C   0  0  0  0  0  2  0  0  0  0  0  0
  186.9230  177.6700  147.2030 C   0  0  2  0  0  3  0  0  0  0  0  0
  185.6660  178.1870  145.0640 N   0  0  0  0  0  0  0  0  0  0  0  0
  185.5770  179.4280  141.5320 C   0  0  0  0  0  2  0  0  0  0  0  0
  187.9600  177.3580  142.2720 C   0  0  0  0  0  2  0  0  0  0  0  0
  184.2950  177.4510  142.1540 O   0  0  0  0  0  0  0  0  0  0  0  0
  186.7580  177.7330  145.7130 C   0  0  0  0  0  0  0  0  0  0  0  0
  185.0700  178.5170  142.6430 C   0  0  1  0  0  0  0  0  0  0  0  0
  189.9310  176.4990  144.4690 O   0  0  0  0  0  0  0  0  0  0  0  0
  187.9780  178.6280  141.4170 C   0  0  1  0  0  3  0  0  0  0  0  0
  187.7520  177.3750  144.8370 C   0  0  2  0  0  3  0  0  0  0  0  0
  183.6120  178.4600  142.8680 C   0  0  0  0  0  2  0  0  0  0  0  0
  189.9160  177.4890  140.8050 N   0  0  0  0  0  2  0  0  0  0  0  0
  189.0900  178.5790  140.4610 N   0  0  1  0  0  0  0  0  0  0  0  0
  188.5520  178.2650  139.1410 C   0  0  0  0  0  2  0  0  0  0  0  0
  189.5550  177.3750  138.4600 C   0  0  0  0  0  2  0  0  0  0  0  0
  190.5000  177.0000  139.5660 C   0  0  0  0  0  2  0  0  0  0  0  0
  186.2080  180.0050  147.7040 O   0  0  0  0  0  0  0  0  0  0  0  0
  188.2860  179.2830  148.3440 O   0  0  0  0  0  1  0  0  0  0  0  0
  187.1880  179.0260  147.7800 C   0  0  0  0  0  0  0  0  0  0  0  0
  1  9  1  0  0  0  0
  2  5  2  0  0  0  0
  3  4  1  0  0  0  0
  4  6  1  0  0  0  0
  5  8  1  0  0  0  0
  7  6  1  0  0  0  0
  7 25  1  6  0  0  0
  8 12  2  0  0  0  0
 10  2  1  0  0  0  0
 11 13  1  0  0  0  0
 11 17  1  0  0  0  0
 12  7  1  0  0  0  0
 13  9  1  6  0  0  0
 13 17  1  0  0  0  0
 13  5  1  0  0  0  0
 14  3  2  0  0  0  0
 15  1  1  6  0  0  0
 15 10  1  0  0  0  0
 16  2  1  6  0  0  0
 16  3  1  0  0  0  0
 16 12  1  0  0  0  0
 19 20  1  6  0  0  0
 19 18  1  0  0  0  0
 19 15  1  0  0  0  0
 21 20  1  0  0  0  0
 21 22  1  0  0  0  0
 22 18  1  0  0  0  0
 23 25  2  0  0  0  0
 25 24  1  0  0  0  0
M  END
>  <MODEL>
8

>  <REMARK>
 VINA RESULT:      -7.0      2.385      5.741
  Name = 
  2 active torsions:
  status: ('A' for Active; 'I' for Inactive)
    1  A    between atoms: N_7  and  C_23
    2  A    between atoms: C_12  and  C_16
                            x       y       z     vdW  Elec       q    Type
                         _______ _______ _______ _____ _____    ______ ____

>  <TORSDO>
F 2

$$$$
=
 OpenBabel11062418103D

 25 29  0  0  1  0  0  0  0  0999 V2000
  183.5480  179.0120  144.4570 C   0  0  0  0  0  2  0  0  0  0  0  0
  183.5470  178.7480  141.2930 C   0  0  0  0  0  0  0  0  0  0  0  0
  184.9040  178.2880  139.1400 C   0  0  0  0  0  0  0  0  0  0  0  0
  184.7810  177.6640  137.7780 C   0  0  0  0  0  2  0  0  0  0  0  0
  182.2020  178.5640  141.5750 C   0  0  1  0  0  3  0  0  0  0  0  0
  183.3560  177.8250  137.2060 C   0  0  0  0  0  2  0  0  0  0  0  0
  182.2500  177.3620  138.1780 C   0  0  2  0  0  3  0  0  0  0  0  0
  181.5410  178.0480  140.5130 N   0  0  0  0  0  0  0  0  0  0  0  0
  182.2040  178.3400  144.1870 C   0  0  0  0  0  2  0  0  0  0  0  0
  184.5930  179.2900  142.2130 C   0  0  0  0  0  2  0  0  0  0  0  0
  181.1220  180.1740  143.0020 O   0  0  0  0  0  0  0  0  0  0  0  0
  182.4780  177.9250  139.5500 C   0  0  0  0  0  0  0  0  0  0  0  0
  181.5670  178.8450  142.8980 C   0  0  1  0  0  0  0  0  0  0  0  0
  186.0180  178.7060  139.5520 O   0  0  0  0  0  0  0  0  0  0  0  0
  184.6420  178.4910  143.5170 C   0  0  1  0  0  3  0  0  0  0  0  0
  183.7120  178.3330  139.9920 C   0  0  0  0  0  0  0  0  0  0  0  0
  180.1280  179.1740  142.9310 C   0  0  0  0  0  2  0  0  0  0  0  0
  185.8300  178.3170  145.5140 N   0  0  0  0  0  2  0  0  0  0  0  0
  185.9620  178.6260  144.1450 N   0  0  1  0  0  0  0  0  0  0  0  0
  186.8440  177.6020  143.5920 C   0  0  0  0  0  2  0  0  0  0  0  0
  187.7300  177.1360  144.7140 C   0  0  0  0  0  2  0  0  0  0  0  0
  187.0970  177.7390  145.9360 C   0  0  0  0  0  2  0  0  0  0  0  0
  181.0280  175.2520  137.6600 O   0  0  0  0  0  0  0  0  0  0  0  0
  183.0540  175.1690  138.7280 O   0  0  0  0  0  1  0  0  0  0  0  0
  182.1410  175.8700  138.2130 C   0  0  0  0  0  0  0  0  0  0  0  0
  2  5  1  0  0  0  0
  2 10  1  0  0  0  0
  3 14  2  0  0  0  0
  3 16  1  0  0  0  0
  4  3  1  0  0  0  0
  5  8  1  1  0  0  0
  5 13  1  0  0  0  0
  6  4  1  0  0  0  0
  6  7  1  0  0  0  0
  7 25  1  1  0  0  0
  7 12  1  0  0  0  0
  9  1  1  0  0  0  0
 12 16  1  0  0  0  0
 12  8  2  0  0  0  0
 13 17  1  6  0  0  0
 13 11  1  0  0  0  0
 13  9  1  0  0  0  0
 15 10  1  6  0  0  0
 15 19  1  0  0  0  0
 15  1  1  0  0  0  0
 16  2  2  0  0  0  0
 17 11  1  0  0  0  0
 18 22  1  0  0  0  0
 19 20  1  6  0  0  0
 19 18  1  0  0  0  0
 20 21  1  0  0  0  0
 21 22  1  0  0  0  0
 23 25  2  0  0  0  0
 25 24  1  0  0  0  0
M  END
>  <MODEL>
9

>  <REMARK>
 VINA RESULT:      -6.6      2.464      3.631
  Name = 
  2 active torsions:
  status: ('A' for Active; 'I' for Inactive)
    1  A    between atoms: N_7  and  C_23
    2  A    between atoms: C_12  and  C_16
                            x       y       z     vdW  Elec       q    Type
                         _______ _______ _______ _____ _____    ______ ____

>  <TORSDO>
F 2

$$$$
