=
 OpenBabel11062418153D

 59 65  0  0  1  0  0  0  0  0999 V2000
  183.1560  178.6220  141.8090 C   0  0  1  0  0  3  0  0  0  0  0  0
  183.4200  179.6410  143.9710 N   0  0  0  0  0  2  0  0  0  0  0  0
  184.1550  179.2180  142.7780 C   0  0  1  0  0  3  0  0  0  0  0  0
  181.8440  179.0730  142.3810 C   0  0  1  0  0  3  0  0  0  0  0  0
  180.8380  178.0410  142.1880 N   0  0  0  0  0  1  0  0  0  0  0  0
  182.0640  179.2960  143.8040 N   0  0  0  0  0  2  0  0  0  0  0  0
  187.5290  177.2780  142.2380 C   0  0  0  0  0  2  0  0  0  0  0  0
  186.5020  178.3910  142.0650 C   0  0  0  0  0  2  0  0  0  0  0  0
  187.9560  176.9460  144.7190 C   0  0  0  0  0  2  0  0  0  0  0  0
  188.4370  177.6170  143.4180 C   0  0  1  0  0  3  0  0  0  0  0  0
  185.3780  178.3260  143.1110 C   0  0  1  0  0  3  0  0  0  0  0  0
  186.4650  177.1400  145.0180 C   0  0  0  0  0  2  0  0  0  0  0  0
  185.9100  178.4770  144.5420 C   0  0  0  0  0  2  0  0  0  0  0  0
  191.9770  178.3230  145.0660 O   0  0  0  0  0  0  0  0  0  0  0  0
  190.1920  176.8210  145.5090 O   0  0  0  0  0  0  0  0  0  0  0  0
  189.9360  177.3890  143.1350 C   0  0  1  0  0  0  0  0  0  0  0  0
  190.6560  178.7480  143.1260 C   0  0  0  0  0  2  0  0  0  0  0  0
  191.5360  176.9710  145.1350 C   0  0  2  0  0  0  0  0  0  0  0  0
  192.3530  176.0760  145.7890 F   0  0  0  0  0  0  0  0  0  0  0  0
  190.5270  176.4130  144.1860 C   0  0  1  0  0  3  0  0  0  0  0  0
  190.9900  179.1720  144.5430 C   0  0  0  0  0  2  0  0  0  0  0  0
  190.1180  176.7610  141.7510 C   0  0  0  0  0  2  0  0  0  0  0  0
  190.2630  177.7490  140.7730 O   0  0  0  0  0  0  0  0  0  0  0  0
  190.5890  177.0710  139.5870 C   0  0  1  0  0  3  0  0  0  0  0  0
  189.3560  176.3130  139.1100 C   0  0  0  0  0  2  0  0  0  0  0  0
  189.7540  177.5890  138.4150 C   0  0  1  0  0  0  0  0  0  0  0  0
  187.4640  178.2970  138.5390 O   0  0  0  0  0  1  0  0  0  0  0  0
  189.0140  179.7390  137.6770 O   0  0  0  0  0  1  0  0  0  0  0  0
  188.7850  178.7450  138.6340 C   0  0  0  0  0  3  0  0  0  0  0  0
  190.2310  177.3750  137.0370 N   0  0  0  0  0  2  0  0  0  0  0  0
  190.3630  175.9700  136.6670 C   0  0  0  0  0  2  0  0  0  0  0  0
  190.9450  175.8490  135.2720 C   0  0  0  0  0  1  0  0  0  0  0  0
  183.4020  179.1140  140.4040 C   0  0  0  0  0  0  0  0  0  0  0  0
  184.5500  179.2720  140.0370 O   0  0  0  0  0  0  0  0  0  0  0  0
  179.7930  178.6300  138.6850 S   0  0  0  0  0  0  0  0  0  0  0  0
  182.2720  179.3600  139.4400 C   0  0  2  0  0  3  0  0  0  0  0  0
  180.1570  180.3420  139.1840 C   0  0  1  0  0  3  0  0  0  0  0  0
  181.3830  180.3890  139.9650 N   0  0  0  0  0  2  0  0  0  0  0  0
  181.4700  178.0970  139.1340 C   0  0  2  0  0  3  0  0  0  0  0  0
  182.1170  177.2580  138.0100 C   0  0  1  0  0  3  0  0  0  0  0  0
  183.2680  177.8900  137.5340 O   0  0  0  0  0  1  0  0  0  0  0  0
  182.4700  175.7560  139.8470 O   0  0  0  0  0  1  0  0  0  0  0  0
  182.4700  175.8250  138.4490 C   0  0  0  0  0  0  0  0  0  0  0  0
  181.5190  174.9300  137.9460 O   0  0  0  0  0  1  0  0  0  0  0  0
  183.7960  175.4720  137.9520 N   0  0  0  0  0  2  0  0  0  0  0  0
  183.6620  174.5140  136.9360 N   0  0  0  0  0  2  0  0  0  0  0  0
  184.7260  174.2410  136.0230 C   0  0  0  0  0  0  0  0  0  0  0  0
  185.0180  175.2550  134.7620 S   0  0  0  0  0  0  0  0  0  0  0  0
  184.6610  171.7770  135.3190 C   0  0  2  0  0  3  0  0  0  0  0  0
  184.5680  171.8810  136.8290 C   0  0  0  0  0  2  0  0  0  0  0  0
  185.3980  172.8990  136.0720 C   0  0  2  0  0  3  0  0  0  0  0  0
  183.0370  172.1970  134.5940 S   0  0  0  0  0  1  0  0  0  0  0  0
  180.6180  180.7400  136.5130 S   0  0  0  0  0  0  0  0  0  0  0  0
  180.2220  181.2770  138.0060 C   0  0  0  0  0  0  0  0  0  0  0  0
  179.8990  182.6550  138.1740 N   0  0  0  0  0  2  0  0  0  0  0  0
  179.4330  183.4860  137.0790 C   0  0  0  0  0  2  0  0  0  0  0  0
  181.4960  184.8210  137.2160 C   0  0  0  0  0  1  0  0  0  0  0  0
  179.9870  184.8880  137.2260 C   0  0  2  0  0  3  0  0  0  0  0  0
  179.5420  185.4570  138.4270 O   0  0  0  0  0  1  0  0  0  0  0  0
  1 33  1  6  0  0  0
  1  4  1  0  0  0  0
  1  3  1  0  0  0  0
  3 11  1  0  0  0  0
  3  2  1  1  0  0  0
  4  5  1  1  0  0  0
  4  6  1  0  0  0  0
  6  2  1  0  0  0  0
  8  7  1  0  0  0  0
  9 12  1  0  0  0  0
 10  7  1  6  0  0  0
 10  9  1  0  0  0  0
 11  8  1  6  0  0  0
 11 13  1  0  0  0  0
 13 12  1  0  0  0  0
 14 18  1  0  0  0  0
 16 22  1  6  0  0  0
 16 10  1  0  0  0  0
 16 20  1  0  0  0  0
 17 16  1  0  0  0  0
 17 21  1  0  0  0  0
 18 15  1  0  0  0  0
 18 19  1  1  0  0  0
 20 18  1  0  0  0  0
 20 15  1  1  0  0  0
 21 14  1  0  0  0  0
 23 22  1  0  0  0  0
 24 23  1  1  0  0  0
 25 24  1  0  0  0  0
 26 30  1  6  0  0  0
 26 29  1  0  0  0  0
 26 25  1  0  0  0  0
 26 24  1  0  0  0  0
 27 29  1  0  0  0  0
 28 29  1  0  0  0  0
 31 30  1  0  0  0  0
 32 31  1  0  0  0  0
 34 33  2  0  0  0  0
 35 39  1  0  0  0  0
 35 37  1  0  0  0  0
 36 38  1  0  0  0  0
 36 33  1  1  0  0  0
 37 54  1  6  0  0  0
 37 38  1  0  0  0  0
 39 40  1  6  0  0  0
 39 36  1  0  0  0  0
 40 41  1  1  0  0  0
 40 43  1  0  0  0  0
 43 42  1  0  0  0  0
 44 43  1  0  0  0  0
 45 43  1  0  0  0  0
 46 45  1  0  0  0  0
 47 46  1  0  0  0  0
 48 47  2  0  0  0  0
 49 52  1  6  0  0  0
 49 51  1  0  0  0  0
 49 50  1  0  0  0  0
 51 47  1  6  0  0  0
 51 50  1  0  0  0  0
 53 54  2  0  0  0  0
 54 55  1  0  0  0  0
 56 58  1  0  0  0  0
 56 55  1  0  0  0  0
 58 57  1  1  0  0  0
 58 59  1  0  0  0  0
M  END
>  <MODEL>
1

>  <REMARK>
 VINA RESULT:      -7.3      0.000      0.000
  Name = 
  20 active torsions:
  status: ('A' for Active; 'I' for Inactive)
    1  A    between atoms: C_1  and  O_29
    2  A    between atoms: C_3  and  C_6
    3  A    between atoms: C_3  and  C_38
    4  A    between atoms: C_8  and  C_27
    5  A    between atoms: C_8  and  C_57
    6  A    between atoms: C_10  and  N_37
    7  A    between atoms: C_10  and  C_50
    8  A    between atoms: C_13  and  C_18
    9  A    between atoms: C_13  and  N_53
   10  A    between atoms: N_14  and  C_23
   11  A    between atoms: N_14  and  N_53
   12  A    between atoms: C_17  and  C_44
   13  A    between atoms: N_22  and  C_39
   14  A    between atoms: N_22  and  C_44
   15  A    between atoms: C_23  and  C_32
   16  A    between atoms: O_29  and  C_57
   17  A    between atoms: C_30  and  C_39
   18  A    between atoms: C_32  and  C_40
   19  A    between atoms: C_34  and  C_47
   20  A    between atoms: N_37  and  C_41
                            x       y       z     vdW  Elec       q    Type
                         _______ _______ _______ _____ _____    ______ ____

>  <TORSDO>
F 20

$$$$
=
 OpenBabel11062418153D

 59 65  0  0  1  0  0  0  0  0999 V2000
  189.3620  177.9880  142.5410 C   0  0  1  0  0  3  0  0  0  0  0  0
  188.3650  177.8750  144.7260 N   0  0  0  0  0  2  0  0  0  0  0  0
  188.1270  177.5770  143.3130 C   0  0  1  0  0  3  0  0  0  0  0  0
  190.3770  178.1720  143.6320 C   0  0  1  0  0  3  0  0  0  0  0  0
  191.2660  179.2740  143.3010 N   0  0  0  0  0  1  0  0  0  0  0  0
  189.6320  178.4790  144.8460 N   0  0  0  0  0  2  0  0  0  0  0  0
  185.3320  178.6150  140.7540 C   0  0  0  0  0  2  0  0  0  0  0  0
  186.4610  177.7770  141.3420 C   0  0  0  0  0  2  0  0  0  0  0  0
  183.5560  178.9500  142.5370 C   0  0  0  0  0  2  0  0  0  0  0  0
  184.0000  178.1210  141.3170 C   0  0  1  0  0  3  0  0  0  0  0  0
  186.7880  178.1610  142.7920 C   0  0  1  0  0  3  0  0  0  0  0  0
  184.6410  179.1370  143.6050 C   0  0  0  0  0  2  0  0  0  0  0  0
  185.5920  177.9530  143.7310 C   0  0  0  0  0  2  0  0  0  0  0  0
  180.9620  180.1580  139.7800 O   0  0  0  0  0  0  0  0  0  0  0  0
  183.3260  180.2960  139.6140 O   0  0  0  0  0  0  0  0  0  0  0  0
  182.8950  177.9660  140.2530 C   0  0  1  0  0  0  0  0  0  0  0  0
  181.5230  178.1430  140.9260 C   0  0  0  0  0  2  0  0  0  0  0  0
  182.1130  180.0680  138.9470 C   0  0  2  0  0  0  0  0  0  0  0  0
  182.0640  180.7190  137.7350 F   0  0  0  0  0  0  0  0  0  0  0  0
  183.1260  178.9820  139.1030 C   0  0  1  0  0  3  0  0  0  0  0  0
  181.1900  179.6170  141.0550 C   0  0  0  0  0  2  0  0  0  0  0  0
  182.9370  176.5570  139.6550 C   0  0  0  0  0  2  0  0  0  0  0  0
  181.9330  176.3960  138.6950 O   0  0  0  0  0  0  0  0  0  0  0  0
  181.3650  175.1340  138.9430 C   0  0  1  0  0  3  0  0  0  0  0  0
  179.8760  175.2050  138.6260 C   0  0  0  0  0  2  0  0  0  0  0  0
  180.8070  174.5250  137.6570 C   0  0  1  0  0  0  0  0  0  0  0  0
  179.7670  175.8400  135.9380 O   0  0  0  0  0  1  0  0  0  0  0  0
  181.4240  174.3790  135.3520 O   0  0  0  0  0  1  0  0  0  0  0  0
  180.9790  175.2670  136.3360 C   0  0  0  0  0  3  0  0  0  0  0  0
  180.6010  173.0690  137.5770 N   0  0  0  0  0  2  0  0  0  0  0  0
  179.1970  172.6710  137.5300 C   0  0  0  0  0  2  0  0  0  0  0  0
  179.0270  171.4520  136.6440 C   0  0  0  0  0  1  0  0  0  0  0  0
  189.7480  176.9340  141.5320 C   0  0  0  0  0  0  0  0  0  0  0  0
  190.0980  175.8430  141.9380 O   0  0  0  0  0  0  0  0  0  0  0  0
  190.0720  176.1610  137.5930 S   0  0  0  0  0  0  0  0  0  0  0  0
  189.6600  177.1840  140.0500 C   0  0  2  0  0  3  0  0  0  0  0  0
  188.4240  176.7390  138.1070 C   0  0  1  0  0  3  0  0  0  0  0  0
  188.3420  176.8030  139.5580 N   0  0  0  0  0  2  0  0  0  0  0  0
  190.7360  176.4410  139.2610 C   0  0  2  0  0  3  0  0  0  0  0  0
  192.0660  177.2270  139.2150 C   0  0  1  0  0  3  0  0  0  0  0  0
  192.4330  177.6360  140.4990 O   0  0  0  0  0  1  0  0  0  0  0  0
  193.6620  177.0780  137.4300 O   0  0  0  0  0  1  0  0  0  0  0  0
  193.2220  176.4250  138.5870 C   0  0  0  0  0  0  0  0  0  0  0  0
  194.2820  176.3360  139.4960 O   0  0  0  0  0  1  0  0  0  0  0  0
  192.7560  175.0880  138.2340 N   0  0  0  0  0  2  0  0  0  0  0  0
  193.8020  174.3910  137.6100 N   0  0  0  0  0  2  0  0  0  0  0  0
  193.5500  173.2700  136.7630 C   0  0  0  0  0  0  0  0  0  0  0  0
  192.1380  173.1610  135.9280 S   0  0  0  0  0  0  0  0  0  0  0  0
  195.6580  172.1120  135.8750 C   0  0  2  0  0  3  0  0  0  0  0  0
  194.4390  171.2650  135.5640 C   0  0  0  0  0  2  0  0  0  0  0  0
  194.4610  172.0790  136.8440 C   0  0  2  0  0  3  0  0  0  0  0  0
  195.7290  173.5070  134.6980 S   0  0  0  0  0  1  0  0  0  0  0  0
  189.1140  179.3090  137.4570 S   0  0  0  0  0  0  0  0  0  0  0  0
  188.0610  178.0570  137.4780 C   0  0  0  0  0  0  0  0  0  0  0  0
  186.7910  178.2210  136.8530 N   0  0  0  0  0  2  0  0  0  0  0  0
  186.5740  177.9460  135.4440 C   0  0  0  0  0  2  0  0  0  0  0  0
  184.3950  177.0640  136.1760 C   0  0  0  0  0  1  0  0  0  0  0  0
  185.5910  176.8040  135.2890 C   0  0  2  0  0  3  0  0  0  0  0  0
  186.1980  175.5940  135.6500 O   0  0  0  0  0  1  0  0  0  0  0  0
  1 33  1  6  0  0  0
  1  3  1  0  0  0  0
  1  4  1  0  0  0  0
  2  6  1  0  0  0  0
  3  2  1  1  0  0  0
  4  5  1  6  0  0  0
  4  6  1  0  0  0  0
  7  8  1  0  0  0  0
  9 12  1  0  0  0  0
 10  7  1  6  0  0  0
 10  9  1  0  0  0  0
 11  8  1  6  0  0  0
 11  3  1  0  0  0  0
 11 13  1  0  0  0  0
 12 13  1  0  0  0  0
 14 21  1  0  0  0  0
 16 22  1  6  0  0  0
 16 17  1  0  0  0  0
 16 10  1  0  0  0  0
 17 21  1  0  0  0  0
 18 19  1  6  0  0  0
 18 20  1  0  0  0  0
 18 15  1  0  0  0  0
 18 14  1  0  0  0  0
 20 15  1  1  0  0  0
 20 16  1  0  0  0  0
 23 22  1  0  0  0  0
 24 23  1  6  0  0  0
 25 24  1  0  0  0  0
 26 29  1  6  0  0  0
 26 25  1  0  0  0  0
 26 24  1  0  0  0  0
 27 29  1  0  0  0  0
 28 29  1  0  0  0  0
 30 26  1  0  0  0  0
 31 30  1  0  0  0  0
 32 31  1  0  0  0  0
 33 34  2  0  0  0  0
 35 37  1  0  0  0  0
 35 39  1  0  0  0  0
 36 33  1  1  0  0  0
 37 54  1  6  0  0  0
 37 38  1  0  0  0  0
 38 36  1  0  0  0  0
 39 40  1  6  0  0  0
 39 36  1  0  0  0  0
 40 41  1  1  0  0  0
 42 43  1  0  0  0  0
 43 40  1  0  0  0  0
 43 44  1  0  0  0  0
 45 43  1  0  0  0  0
 46 45  1  0  0  0  0
 47 46  1  0  0  0  0
 48 47  2  0  0  0  0
 49 52  1  6  0  0  0
 49 51  1  0  0  0  0
 50 49  1  0  0  0  0
 50 51  1  0  0  0  0
 51 47  1  6  0  0  0
 53 54  2  0  0  0  0
 55 54  1  0  0  0  0
 56 55  1  0  0  0  0
 58 56  1  0  0  0  0
 58 59  1  0  0  0  0
 58 57  1  1  0  0  0
M  END
>  <MODEL>
2

>  <REMARK>
 VINA RESULT:      -6.3      4.285      9.107
  Name = 
  20 active torsions:
  status: ('A' for Active; 'I' for Inactive)
    1  A    between atoms: C_1  and  O_29
    2  A    between atoms: C_3  and  C_6
    3  A    between atoms: C_3  and  C_38
    4  A    between atoms: C_8  and  C_27
    5  A    between atoms: C_8  and  C_57
    6  A    between atoms: C_10  and  N_37
    7  A    between atoms: C_10  and  C_50
    8  A    between atoms: C_13  and  C_18
    9  A    between atoms: C_13  and  N_53
   10  A    between atoms: N_14  and  C_23
   11  A    between atoms: N_14  and  N_53
   12  A    between atoms: C_17  and  C_44
   13  A    between atoms: N_22  and  C_39
   14  A    between atoms: N_22  and  C_44
   15  A    between atoms: C_23  and  C_32
   16  A    between atoms: O_29  and  C_57
   17  A    between atoms: C_30  and  C_39
   18  A    between atoms: C_32  and  C_40
   19  A    between atoms: C_34  and  C_47
   20  A    between atoms: N_37  and  C_41
                            x       y       z     vdW  Elec       q    Type
                         _______ _______ _______ _____ _____    ______ ____

>  <TORSDO>
F 20

$$$$
=
 OpenBabel11062418153D

 59 66  0  0  1  0  0  0  0  0999 V2000
  187.5960  176.7090  136.3650 C   0  0  1  0  0  3  0  0  0  0  0  0
  189.8370  176.8080  135.4990 N   0  0  0  0  0  2  0  0  0  0  0  0
  189.0400  176.3440  136.6350 C   0  0  1  0  0  3  0  0  0  0  0  0
  187.6180  177.0520  134.9040 C   0  0  1  0  0  3  0  0  0  0  0  0
  186.6930  178.1410  134.6360 N   0  0  0  0  0  1  0  0  0  0  0  0
  188.9800  177.4660  134.5940 N   0  0  0  0  0  2  0  0  0  0  0  0
  189.0700  177.8370  140.2700 C   0  0  0  0  0  2  0  0  0  0  0  0
  188.5320  177.0710  139.0670 C   0  0  0  0  0  2  0  0  0  0  0  0
  191.3930  176.9680  140.8130 C   0  0  0  0  0  2  0  0  0  0  0  0
  189.8900  176.8870  141.1400 C   0  0  1  0  0  3  0  0  0  0  0  0
  189.6060  176.8180  137.9990 C   0  0  1  0  0  3  0  0  0  0  0  0
  191.7220  176.8680  139.3190 C   0  0  0  0  0  2  0  0  0  0  0  0
  190.7690  175.9730  138.5360 C   0  0  0  0  0  2  0  0  0  0  0  0
  191.7900  176.8790  144.6230 O   0  0  0  0  0  0  0  0  0  0  0  0
  191.5880  178.4190  142.8280 O   0  0  0  0  0  0  0  0  0  0  0  0
  189.5880  177.0090  142.6480 C   0  0  1  0  0  0  0  0  0  0  0  0
  190.1060  175.7510  143.3650 C   0  0  0  0  0  2  0  0  0  0  0  0
  191.3380  178.1550  144.1830 C   0  0  2  0  0  0  0  0  0  0  0  0
  191.6380  179.2370  144.9800 F   0  0  0  0  0  0  0  0  0  0  0  0
  190.2200  178.3110  143.2060 C   0  0  1  0  0  3  0  0  0  0  0  0
  191.5890  175.8860  143.6520 C   0  0  0  0  0  2  0  0  0  0  0  0
  188.0760  177.0810  142.8760 C   0  0  0  0  0  2  0  0  0  0  0  0
  187.7180  178.3090  143.4400 O   0  0  0  0  0  0  0  0  0  0  0  0
  186.4080  178.5650  143.0020 C   0  0  1  0  0  3  0  0  0  0  0  0
  185.5120  177.4210  143.4630 C   0  0  0  0  0  2  0  0  0  0  0  0
  185.4600  178.7390  144.1900 C   0  0  1  0  0  0  0  0  0  0  0  0
  186.0840  177.3660  146.0570 O   0  0  0  0  0  1  0  0  0  0  0  0
  185.1910  179.4310  146.4620 O   0  0  0  0  0  1  0  0  0  0  0  0
  186.0140  178.6890  145.6090 C   0  0  0  0  0  3  0  0  0  0  0  0
  184.1880  179.4570  144.0000 N   0  0  0  0  0  2  0  0  0  0  0  0
  183.0220  178.5840  143.9150 C   0  0  0  0  0  2  0  0  0  0  0  0
  181.7770  179.3990  143.6210 C   0  0  0  0  0  1  0  0  0  0  0  0
  186.6740  175.5630  136.7010 C   0  0  0  0  0  0  0  0  0  0  0  0
  187.1610  174.4720  136.9230 O   0  0  0  0  0  0  0  0  0  0  0  0
  183.0860  177.3290  136.2220 S   0  0  2  0  0  3  0  0  0  0  0  0
  185.1840  175.7510  136.8190 C   0  0  2  0  0  3  0  0  0  0  0  0
  183.1420  175.5930  135.6780 C   0  0  1  0  0  3  0  0  0  0  0  0
  184.5100  175.1000  135.7030 N   0  0  0  0  0  2  0  0  0  0  0  0
  184.7770  177.2210  136.8780 C   0  0  2  0  0  3  0  0  0  0  0  0
  184.8630  177.7890  138.3130 C   0  0  1  0  0  3  0  0  0  0  0  0
  185.5840  178.9850  138.3190 O   0  0  0  0  0  1  0  0  0  0  0  0
  183.0080  176.8160  139.4820 O   0  0  0  0  0  1  0  0  0  0  0  0
  183.4840  178.0230  138.9560 C   0  0  0  0  0  0  0  0  0  0  0  0
  183.5970  178.9600  139.9870 O   0  0  0  0  0  1  0  0  0  0  0  0
  182.5480  178.5060  137.9450 N   0  0  0  0  0  0  0  0  0  0  0  0
  181.4540  179.1070  138.5880 N   0  0  0  0  0  2  0  0  0  0  0  0
  180.4860  179.8640  137.8610 C   0  0  0  0  0  0  0  0  0  0  0  0
  179.2620  179.1050  137.0690 S   0  0  0  0  0  0  0  0  0  0  0  0
  180.1680  182.2740  138.6750 C   0  0  2  0  0  3  0  0  0  0  0  0
  179.4600  182.0840  137.3480 C   0  0  0  0  0  2  0  0  0  0  0  0
  180.7440  181.3220  137.6110 C   0  0  2  0  0  3  0  0  0  0  0  0
  179.1600  181.5190  139.9990 S   0  0  0  0  0  1  0  0  0  0  0  0
  180.9380  175.3280  137.2830 S   0  0  0  0  0  0  0  0  0  0  0  0
  182.2270  174.7130  136.4860 C   0  0  0  0  0  0  0  0  0  0  0  0
  182.4570  173.3070  136.5390 N   0  0  0  0  0  2  0  0  0  0  0  0
  181.4160  172.3600  136.8960 C   0  0  0  0  0  2  0  0  0  0  0  0
  179.9690  172.2950  134.9050 C   0  0  0  0  0  1  0  0  0  0  0  0
  181.0260  171.5430  135.6800 C   0  0  2  0  0  3  0  0  0  0  0  0
  180.5280  170.2960  136.0800 O   0  0  0  0  0  1  0  0  0  0  0  0
  1  3  1  0  0  0  0
  1 33  1  6  0  0  0
  3  2  1  6  0  0  0
  3 11  1  0  0  0  0
  4  5  1  1  0  0  0
  4  1  1  0  0  0  0
  6  4  1  0  0  0  0
  6  2  1  0  0  0  0
  8  7  1  0  0  0  0
  9 10  1  0  0  0  0
 10  7  1  6  0  0  0
 10 16  1  0  0  0  0
 11 13  1  1  0  0  0
 11  8  1  0  0  0  0
 12  9  1  0  0  0  0
 13 12  1  0  0  0  0
 15 18  1  0  0  0  0
 16 22  1  1  0  0  0
 16 20  1  0  0  0  0
 16 17  1  0  0  0  0
 17 21  1  0  0  0  0
 18 14  1  0  0  0  0
 18 19  1  1  0  0  0
 20 15  1  6  0  0  0
 20 18  1  0  0  0  0
 21 14  1  0  0  0  0
 22 23  1  0  0  0  0
 24 23  1  1  0  0  0
 24 25  1  0  0  0  0
 24 26  1  0  0  0  0
 25 26  1  0  0  0  0
 26 30  1  6  0  0  0
 26 29  1  0  0  0  0
 29 27  1  0  0  0  0
 29 28  1  0  0  0  0
 31 30  1  0  0  0  0
 32 31  1  0  0  0  0
 33 34  2  0  0  0  0
 35 39  1  0  0  0  0
 35 45  1  1  0  0  0
 36 33  1  6  0  0  0
 36 39  1  0  0  0  0
 37 38  1  0  0  0  0
 37 35  1  0  0  0  0
 37 54  1  1  0  0  0
 38 36  1  0  0  0  0
 39 40  1  0  0  0  0
 40 41  1  0  0  0  0
 40 43  1  0  0  0  0
 43 42  1  0  0  0  0
 43 44  1  0  0  0  0
 45 46  1  0  0  0  0
 45 43  1  0  0  0  0
 47 46  1  0  0  0  0
 48 47  2  0  0  0  0
 49 52  1  0  0  0  0
 50 51  1  0  0  0  0
 50 49  1  0  0  0  0
 51 47  1  0  0  0  0
 51 49  1  0  0  0  0
 54 55  1  0  0  0  0
 54 53  2  0  0  0  0
 55 56  1  0  0  0  0
 57 58  1  0  0  0  0
 58 59  1  0  0  0  0
 58 56  1  0  0  0  0
M  END
>  <MODEL>
3

>  <REMARK>
 VINA RESULT:      -6.1      2.453      7.569
  Name = 
  20 active torsions:
  status: ('A' for Active; 'I' for Inactive)
    1  A    between atoms: C_1  and  O_29
    2  A    between atoms: C_3  and  C_6
    3  A    between atoms: C_3  and  C_38
    4  A    between atoms: C_8  and  C_27
    5  A    between atoms: C_8  and  C_57
    6  A    between atoms: C_10  and  N_37
    7  A    between atoms: C_10  and  C_50
    8  A    between atoms: C_13  and  C_18
    9  A    between atoms: C_13  and  N_53
   10  A    between atoms: N_14  and  C_23
   11  A    between atoms: N_14  and  N_53
   12  A    between atoms: C_17  and  C_44
   13  A    between atoms: N_22  and  C_39
   14  A    between atoms: N_22  and  C_44
   15  A    between atoms: C_23  and  C_32
   16  A    between atoms: O_29  and  C_57
   17  A    between atoms: C_30  and  C_39
   18  A    between atoms: C_32  and  C_40
   19  A    between atoms: C_34  and  C_47
   20  A    between atoms: N_37  and  C_41
                            x       y       z     vdW  Elec       q    Type
                         _______ _______ _______ _____ _____    ______ ____

>  <TORSDO>
F 20

$$$$
=
 OpenBabel11062418153D

 59 66  0  0  1  0  0  0  0  0999 V2000
  189.0590  177.5750  139.9300 C   0  0  1  0  0  3  0  0  0  0  0  0
  190.1690  177.5700  137.7970 N   0  0  0  0  0  2  0  0  0  0  0  0
  188.9670  178.0340  138.4910 C   0  0  1  0  0  3  0  0  0  0  0  0
  190.5000  177.1720  140.0480 C   0  0  1  0  0  3  0  0  0  0  0  0
  190.6230  176.0210  140.9280 N   0  0  0  0  0  1  0  0  0  0  0  0
  190.9470  176.8250  138.7060 N   0  0  0  0  0  2  0  0  0  0  0  0
  186.6180  176.2890  135.8690 C   0  0  0  0  0  2  0  0  0  0  0  0
  187.8000  176.4380  136.8200 C   0  0  0  0  0  2  0  0  0  0  0  0
  184.4840  176.8330  137.1330 C   0  0  0  0  0  2  0  0  0  0  0  0
  185.4280  175.7200  136.6390 C   0  0  1  0  0  3  0  0  0  0  0  0
  187.6600  177.6530  137.7490 C   0  0  1  0  0  3  0  0  0  0  0  0
  185.1900  177.9850  137.8590 C   0  0  0  0  0  2  0  0  0  0  0  0
  186.4200  177.5550  138.6480 C   0  0  0  0  0  2  0  0  0  0  0  0
  185.5280  171.7700  136.2780 O   0  0  0  0  0  0  0  0  0  0  0  0
  184.8310  173.2800  137.9720 O   0  0  0  0  0  0  0  0  0  0  0  0
  184.6930  174.5840  135.8980 C   0  0  1  0  0  0  0  0  0  0  0  0
  185.7070  173.8040  135.0450 C   0  0  0  0  0  2  0  0  0  0  0  0
  184.4560  172.2780  137.0640 C   0  0  2  0  0  0  0  0  0  0  0  0
  183.6060  171.3590  137.6380 F   0  0  0  0  0  0  0  0  0  0  0  0
  183.9570  173.6790  136.9210 C   0  0  1  0  0  3  0  0  0  0  0  0
  186.4280  172.7780  135.8990 C   0  0  0  0  0  2  0  0  0  0  0  0
  183.6450  175.1710  134.9470 C   0  0  0  0  0  2  0  0  0  0  0  0
  182.3740  174.6700  135.2410 O   0  0  0  0  0  0  0  0  0  0  0  0
  181.4690  175.6790  134.8700 C   0  0  1  0  0  3  0  0  0  0  0  0
  180.1150  175.0350  134.5940 C   0  0  0  0  0  2  0  0  0  0  0  0
  180.3280  175.7860  135.8820 C   0  0  1  0  0  0  0  0  0  0  0  0
  179.5460  173.7670  136.9180 O   0  0  0  0  0  1  0  0  0  0  0  0
  179.8470  175.6220  138.2180 O   0  0  0  0  0  1  0  0  0  0  0  0
  180.3360  174.9020  137.1240 C   0  0  0  0  0  3  0  0  0  0  0  0
  179.5480  177.0340  135.9630 N   0  0  0  0  0  2  0  0  0  0  0  0
  180.2150  178.1890  135.3710 C   0  0  0  0  0  2  0  0  0  0  0  0
  181.3590  178.6430  136.2560 C   0  0  0  0  0  1  0  0  0  0  0  0
  188.6620  178.6780  140.8800 C   0  0  0  0  0  0  0  0  0  0  0  0
  188.6860  179.8260  140.4780 O   0  0  0  0  0  0  0  0  0  0  0  0
  186.4980  176.9580  143.8080 S   0  0  2  0  0  3  0  0  0  0  0  0
  188.1910  178.3900  142.2800 C   0  0  2  0  0  3  0  0  0  0  0  0
  188.2990  176.8620  144.0560 C   0  0  1  0  0  3  0  0  0  0  0  0
  188.9970  177.3280  142.8680 N   0  0  0  0  0  2  0  0  0  0  0  0
  186.7140  178.0060  142.3400 C   0  0  2  0  0  3  0  0  0  0  0  0
  185.7950  179.2480  142.3910 C   0  0  1  0  0  3  0  0  0  0  0  0
  185.4010  179.6130  141.1030 O   0  0  0  0  0  1  0  0  0  0  0  0
  184.7770  177.9900  144.1620 O   0  0  0  0  0  0  0  0  0  0  0  0
  184.5450  179.0400  143.2660 C   0  0  1  0  0  0  0  0  0  0  0  0
  184.2750  180.2070  143.9870 O   0  0  0  0  0  1  0  0  0  0  0  0
  183.4050  178.7030  142.4190 N   0  0  0  0  0  2  0  0  0  0  0  0
  182.2270  179.1380  143.0480 N   0  0  0  0  0  2  0  0  0  0  0  0
  180.9690  179.1120  142.3730 C   0  0  0  0  0  0  0  0  0  0  0  0
  179.7250  180.0480  142.9000 S   0  0  0  0  0  0  0  0  0  0  0  0
  180.8900  178.4870  139.8880 C   0  0  2  0  0  3  0  0  0  0  0  0
  179.5060  178.3580  140.4930 C   0  0  0  0  0  2  0  0  0  0  0  0
  180.7150  178.0410  141.3510 C   0  0  2  0  0  3  0  0  0  0  0  0
  181.2500  180.2550  139.6010 S   0  0  0  0  0  1  0  0  0  0  0  0
  187.7050  177.9510  146.4990 S   0  0  0  0  0  0  0  0  0  0  0  0
  188.7450  177.6110  145.2830 C   0  0  0  0  0  0  0  0  0  0  0  0
  190.1080  178.0070  145.4180 N   0  0  0  0  0  2  0  0  0  0  0  0
  191.1970  177.0490  145.4620 C   0  0  0  0  0  2  0  0  0  0  0  0
  192.3570  175.4740  146.9580 C   0  0  0  0  0  1  0  0  0  0  0  0
  191.5770  176.7680  146.9020 C   0  0  2  0  0  3  0  0  0  0  0  0
  190.4240  176.6640  147.6910 O   0  0  0  0  0  1  0  0  0  0  0  0
  1  4  1  0  0  0  0
  1 33  1  1  0  0  0
  2  6  1  0  0  0  0
  3  2  1  6  0  0  0
  3  1  1  0  0  0  0
  4  5  1  1  0  0  0
  6  4  1  0  0  0  0
  7  8  1  0  0  0  0
  9 12  1  0  0  0  0
 10  7  1  6  0  0  0
 10  9  1  0  0  0  0
 11  8  1  1  0  0  0
 11  3  1  0  0  0  0
 11 13  1  0  0  0  0
 12 13  1  0  0  0  0
 14 18  1  0  0  0  0
 16 22  1  6  0  0  0
 16 10  1  0  0  0  0
 16 20  1  0  0  0  0
 17 16  1  0  0  0  0
 17 21  1  0  0  0  0
 18 19  1  1  0  0  0
 18 15  1  0  0  0  0
 20 18  1  0  0  0  0
 20 15  1  1  0  0  0
 21 14  1  0  0  0  0
 22 23  1  0  0  0  0
 24 23  1  1  0  0  0
 24 26  1  0  0  0  0
 25 24  1  0  0  0  0
 25 26  1  0  0  0  0
 26 30  1  1  0  0  0
 26 29  1  0  0  0  0
 27 29  1  0  0  0  0
 29 28  1  0  0  0  0
 31 30  1  0  0  0  0
 31 32  1  0  0  0  0
 34 33  2  0  0  0  0
 35 37  1  0  0  0  0
 35 42  1  1  0  0  0
 36 33  1  6  0  0  0
 36 39  1  0  0  0  0
 36 38  1  0  0  0  0
 37 54  1  1  0  0  0
 38 37  1  0  0  0  0
 39 40  1  0  0  0  0
 39 35  1  0  0  0  0
 40 43  1  0  0  0  0
 41 40  1  0  0  0  0
 43 44  1  0  0  0  0
 43 42  1  0  0  0  0
 45 46  1  0  0  0  0
 45 43  1  0  0  0  0
 47 48  2  0  0  0  0
 47 46  1  0  0  0  0
 49 50  1  0  0  0  0
 49 51  1  0  0  0  0
 50 51  1  0  0  0  0
 51 47  1  0  0  0  0
 52 49  1  0  0  0  0
 54 55  1  0  0  0  0
 54 53  2  0  0  0  0
 55 56  1  0  0  0  0
 56 58  1  0  0  0  0
 58 57  1  0  0  0  0
 58 59  1  0  0  0  0
M  END
>  <MODEL>
4

>  <REMARK>
 VINA RESULT:      -5.8      3.691      9.828
  Name = 
  20 active torsions:
  status: ('A' for Active; 'I' for Inactive)
    1  A    between atoms: C_1  and  O_29
    2  A    between atoms: C_3  and  C_6
    3  A    between atoms: C_3  and  C_38
    4  A    between atoms: C_8  and  C_27
    5  A    between atoms: C_8  and  C_57
    6  A    between atoms: C_10  and  N_37
    7  A    between atoms: C_10  and  C_50
    8  A    between atoms: C_13  and  C_18
    9  A    between atoms: C_13  and  N_53
   10  A    between atoms: N_14  and  C_23
   11  A    between atoms: N_14  and  N_53
   12  A    between atoms: C_17  and  C_44
   13  A    between atoms: N_22  and  C_39
   14  A    between atoms: N_22  and  C_44
   15  A    between atoms: C_23  and  C_32
   16  A    between atoms: O_29  and  C_57
   17  A    between atoms: C_30  and  C_39
   18  A    between atoms: C_32  and  C_40
   19  A    between atoms: C_34  and  C_47
   20  A    between atoms: N_37  and  C_41
                            x       y       z     vdW  Elec       q    Type
                         _______ _______ _______ _____ _____    ______ ____

>  <TORSDO>
F 20

$$$$
=
 OpenBabel11062418153D

 59 65  0  0  1  0  0  0  0  0999 V2000
  187.0530  177.9550  136.3830 C   0  0  1  0  0  3  0  0  0  0  0  0
  189.0690  176.9610  135.5300 N   0  0  0  0  0  2  0  0  0  0  0  0
  188.1620  176.9670  136.6770 C   0  0  1  0  0  3  0  0  0  0  0  0
  187.2150  178.1920  134.9100 C   0  0  1  0  0  3  0  0  0  0  0  0
  186.9030  179.5770  134.5940 N   0  0  0  0  0  1  0  0  0  0  0  0
  188.6090  177.9090  134.5940 N   0  0  0  0  0  2  0  0  0  0  0  0
  188.7930  178.1830  140.3600 C   0  0  0  0  0  2  0  0  0  0  0  0
  187.9980  177.6820  139.1600 C   0  0  0  0  0  2  0  0  0  0  0  0
  190.7560  176.6190  140.7420 C   0  0  0  0  0  2  0  0  0  0  0  0
  189.3150  176.9820  141.1470 C   0  0  1  0  0  3  0  0  0  0  0  0
  188.8990  177.1720  138.0260 C   0  0  1  0  0  3  0  0  0  0  0  0
  190.9790  176.5040  139.2300 C   0  0  0  0  0  2  0  0  0  0  0  0
  189.7670  175.9850  138.4660 C   0  0  0  0  0  2  0  0  0  0  0  0
  191.4790  177.3680  144.4500 O   0  0  0  0  0  0  0  0  0  0  0  0
  190.9030  178.8020  142.6480 O   0  0  0  0  0  0  0  0  0  0  0  0
  189.1260  177.1090  142.6730 C   0  0  1  0  0  0  0  0  0  0  0  0
  189.8820  175.9650  143.3680 C   0  0  0  0  0  2  0  0  0  0  0  0
  190.8090  178.5500  144.0250 C   0  0  2  0  0  0  0  0  0  0  0  0
  191.0110  179.6900  144.7700 F   0  0  0  0  0  0  0  0  0  0  0  0
  189.6010  178.5080  143.1460 C   0  0  1  0  0  3  0  0  0  0  0  0
  191.3470  176.3240  143.5210 C   0  0  0  0  0  2  0  0  0  0  0  0
  187.6430  176.9680  143.0300 C   0  0  0  0  0  2  0  0  0  0  0  0
  186.9190  178.0790  142.5870 O   0  0  0  0  0  0  0  0  0  0  0  0
  185.8120  178.1820  143.4460 C   0  0  1  0  0  3  0  0  0  0  0  0
  185.2140  179.5760  143.2990 C   0  0  0  0  0  2  0  0  0  0  0  0
  184.5240  178.4030  142.6520 C   0  0  1  0  0  0  0  0  0  0  0  0
  185.0240  179.6560  140.6670 O   0  0  0  0  0  1  0  0  0  0  0  0
  183.2960  178.1610  140.6160 O   0  0  0  0  0  1  0  0  0  0  0  0
  184.5720  178.4160  141.1280 C   0  0  0  0  0  3  0  0  0  0  0  0
  183.2270  178.0790  143.2720 N   0  0  0  0  0  2  0  0  0  0  0  0
  182.5200  179.2370  143.8080 C   0  0  0  0  0  2  0  0  0  0  0  0
  181.0510  179.1720  143.4380 C   0  0  0  0  0  1  0  0  0  0  0  0
  185.7050  177.3870  136.7570 C   0  0  0  0  0  0  0  0  0  0  0  0
  184.9330  178.0880  137.3820 O   0  0  0  0  0  0  0  0  0  0  0  0
  183.6890  174.5740  134.6990 S   0  0  0  0  0  0  0  0  0  0  0  0
  185.2790  176.0070  136.3320 C   0  0  2  0  0  3  0  0  0  0  0  0
  185.4980  174.3660  134.6710 C   0  0  1  0  0  3  0  0  0  0  0  0
  186.1470  175.5230  135.2660 N   0  0  0  0  0  2  0  0  0  0  0  0
  183.8240  175.9530  135.8730 C   0  0  2  0  0  3  0  0  0  0  0  0
  182.8490  175.7830  137.0590 C   0  0  1  0  0  3  0  0  0  0  0  0
  183.5140  175.9920  138.2690 O   0  0  0  0  0  1  0  0  0  0  0  0
  181.1860  176.7930  135.6560 O   0  0  0  0  0  1  0  0  0  0  0  0
  181.6300  176.7210  136.9810 C   0  0  0  0  0  0  0  0  0  0  0  0
  180.5990  176.2230  137.7840 O   0  0  0  0  0  1  0  0  0  0  0  0
  182.0100  178.0560  137.4310 N   0  0  0  0  0  2  0  0  0  0  0  0
  181.3890  179.0080  136.6070 N   0  0  0  0  0  2  0  0  0  0  0  0
  180.1290  179.5850  136.9530 C   0  0  0  0  0  0  0  0  0  0  0  0
  179.0300  179.9420  135.7830 S   0  0  0  0  0  0  0  0  0  0  0  0
  180.1160  181.6180  138.5150 C   0  0  2  0  0  3  0  0  0  0  0  0
  181.2070  180.6530  138.9380 C   0  0  0  0  0  2  0  0  0  0  0  0
  179.9240  180.0990  138.3490 C   0  0  2  0  0  3  0  0  0  0  0  0
  180.6800  182.5440  137.0460 S   0  0  0  0  0  1  0  0  0  0  0  0
  187.4000  172.9610  136.0540 S   0  0  0  0  0  0  0  0  0  0  0  0
  185.9350  173.0890  135.3380 C   0  0  0  0  0  0  0  0  0  0  0  0
  185.0500  171.9720  135.3840 N   0  0  0  0  0  2  0  0  0  0  0  0
  184.4170  171.5300  136.6130 C   0  0  0  0  0  2  0  0  0  0  0  0
  183.7750  169.6430  135.1690 C   0  0  0  0  0  1  0  0  0  0  0  0
  183.3160  170.5390  136.2960 C   0  0  2  0  0  3  0  0  0  0  0  0
  182.1500  171.2200  135.9190 O   0  0  0  0  0  1  0  0  0  0  0  0
  1  3  1  0  0  0  0
  1 33  1  6  0  0  0
  3  2  1  6  0  0  0
  3 11  1  0  0  0  0
  4  5  1  1  0  0  0
  4  1  1  0  0  0  0
  6  4  1  0  0  0  0
  6  2  1  0  0  0  0
  8  7  1  0  0  0  0
  9 10  1  0  0  0  0
 10  7  1  6  0  0  0
 10 16  1  0  0  0  0
 11 13  1  1  0  0  0
 11  8  1  0  0  0  0
 12  9  1  0  0  0  0
 13 12  1  0  0  0  0
 15 18  1  0  0  0  0
 16 22  1  1  0  0  0
 16 20  1  0  0  0  0
 16 17  1  0  0  0  0
 17 21  1  0  0  0  0
 18 14  1  0  0  0  0
 18 19  1  1  0  0  0
 20 15  1  6  0  0  0
 20 18  1  0  0  0  0
 21 14  1  0  0  0  0
 23 22  1  0  0  0  0
 24 23  1  6  0  0  0
 25 24  1  0  0  0  0
 26 29  1  6  0  0  0
 26 30  1  0  0  0  0
 26 25  1  0  0  0  0
 26 24  1  0  0  0  0
 27 29  1  0  0  0  0
 28 29  1  0  0  0  0
 30 31  1  0  0  0  0
 32 31  1  0  0  0  0
 33 34  2  0  0  0  0
 35 39  1  0  0  0  0
 36 33  1  6  0  0  0
 37 35  1  0  0  0  0
 37 38  1  0  0  0  0
 37 54  1  1  0  0  0
 38 36  1  0  0  0  0
 39 36  1  0  0  0  0
 39 40  1  1  0  0  0
 40 41  1  1  0  0  0
 42 43  1  0  0  0  0
 43 40  1  0  0  0  0
 43 45  1  0  0  0  0
 43 44  1  0  0  0  0
 46 47  1  0  0  0  0
 46 45  1  0  0  0  0
 48 47  2  0  0  0  0
 49 52  1  6  0  0  0
 49 50  1  0  0  0  0
 51 47  1  6  0  0  0
 51 49  1  0  0  0  0
 51 50  1  0  0  0  0
 54 55  1  0  0  0  0
 54 53  2  0  0  0  0
 55 56  1  0  0  0  0
 58 57  1  6  0  0  0
 58 56  1  0  0  0  0
 59 58  1  0  0  0  0
M  END
>  <MODEL>
5

>  <REMARK>
 VINA RESULT:      -5.0      2.329      7.696
  Name = 
  20 active torsions:
  status: ('A' for Active; 'I' for Inactive)
    1  A    between atoms: C_1  and  O_29
    2  A    between atoms: C_3  and  C_6
    3  A    between atoms: C_3  and  C_38
    4  A    between atoms: C_8  and  C_27
    5  A    between atoms: C_8  and  C_57
    6  A    between atoms: C_10  and  N_37
    7  A    between atoms: C_10  and  C_50
    8  A    between atoms: C_13  and  C_18
    9  A    between atoms: C_13  and  N_53
   10  A    between atoms: N_14  and  C_23
   11  A    between atoms: N_14  and  N_53
   12  A    between atoms: C_17  and  C_44
   13  A    between atoms: N_22  and  C_39
   14  A    between atoms: N_22  and  C_44
   15  A    between atoms: C_23  and  C_32
   16  A    between atoms: O_29  and  C_57
   17  A    between atoms: C_30  and  C_39
   18  A    between atoms: C_32  and  C_40
   19  A    between atoms: C_34  and  C_47
   20  A    between atoms: N_37  and  C_41
                            x       y       z     vdW  Elec       q    Type
                         _______ _______ _______ _____ _____    ______ ____

>  <TORSDO>
F 20

$$$$
=
 OpenBabel11062418153D

 59 65  0  0  1  0  0  0  0  0999 V2000
  180.4320  176.1980  139.2600 C   0  0  1  0  0  3  0  0  0  0  0  0
  179.4830  177.2820  141.1850 N   0  0  0  0  0  2  0  0  0  0  0  0
  180.3820  177.4880  140.0490 C   0  0  1  0  0  3  0  0  0  0  0  0
  179.2620  175.4360  139.8130 C   0  0  1  0  0  3  0  0  0  0  0  0
  179.5740  174.0170  139.8650 N   0  0  0  0  0  1  0  0  0  0  0  0
  179.0320  175.9470  141.1580 N   0  0  0  0  0  2  0  0  0  0  0  0
  183.1540  179.0350  142.3650 C   0  0  0  0  0  2  0  0  0  0  0  0
  181.9560  178.1710  141.9870 C   0  0  0  0  0  2  0  0  0  0  0  0
  185.0470  178.5510  140.7450 C   0  0  0  0  0  2  0  0  0  0  0  0
  184.4360  178.2410  142.1240 C   0  0  1  0  0  3  0  0  0  0  0  0
  181.7570  178.0700  140.4680 C   0  0  1  0  0  3  0  0  0  0  0  0
  184.0520  178.4760  139.5800 C   0  0  0  0  0  2  0  0  0  0  0  0
  182.9620  177.4280  139.7670 C   0  0  0  0  0  2  0  0  0  0  0  0
  184.9480  180.1570  145.5610 O   0  0  0  0  0  0  0  0  0  0  0  0
  183.5480  178.3880  144.8210 O   0  0  0  0  0  0  0  0  0  0  0  0
  185.4550  178.3420  143.2780 C   0  0  1  0  0  0  0  0  0  0  0  0
  185.9180  179.8020  143.4100 C   0  0  0  0  0  2  0  0  0  0  0  0
  184.5830  178.7860  145.6810 C   0  0  2  0  0  0  0  0  0  0  0  0
  184.4110  178.2910  146.9540 F   0  0  0  0  0  0  0  0  0  0  0  0
  184.8230  177.7990  144.5870 C   0  0  1  0  0  3  0  0  0  0  0  0
  184.9170  180.5950  144.2280 C   0  0  0  0  0  2  0  0  0  0  0  0
  186.6900  177.4930  142.9610 C   0  0  0  0  0  2  0  0  0  0  0  0
  187.7690  178.3040  142.5980 O   0  0  0  0  0  0  0  0  0  0  0  0
  188.3670  177.6750  141.4930 C   0  0  1  0  0  3  0  0  0  0  0  0
  189.4690  178.5820  140.9580 C   0  0  0  0  0  2  0  0  0  0  0  0
  189.8390  177.3690  141.7710 C   0  0  1  0  0  0  0  0  0  0  0  0
  191.6890  178.2870  142.9950 O   0  0  0  0  0  1  0  0  0  0  0  0
  190.5480  176.5200  143.8900 O   0  0  0  0  0  1  0  0  0  0  0  0
  190.4310  177.6930  143.1380 C   0  0  0  0  0  3  0  0  0  0  0  0
  190.5230  176.3290  140.9830 N   0  0  0  0  0  2  0  0  0  0  0  0
  191.2700  176.8450  139.8410 C   0  0  0  0  0  2  0  0  0  0  0  0
  190.7070  176.2850  138.5490 C   0  0  0  0  0  1  0  0  0  0  0  0
  180.3300  176.4620  137.7780 C   0  0  0  0  0  0  0  0  0  0  0  0
  179.9910  175.5510  137.0470 O   0  0  0  0  0  0  0  0  0  0  0  0
  180.6950  179.2990  134.9430 S   0  0  0  0  0  0  0  0  0  0  0  0
  180.5850  177.8270  137.1950 C   0  0  2  0  0  3  0  0  0  0  0  0
  179.5710  179.7440  136.3030 C   0  0  1  0  0  3  0  0  0  0  0  0
  179.3480  178.5970  137.1690 N   0  0  0  0  0  2  0  0  0  0  0  0
  181.1810  177.7670  135.7900 C   0  0  2  0  0  3  0  0  0  0  0  0
  182.7170  177.6010  135.8200 C   0  0  1  0  0  3  0  0  0  0  0  0
  183.2240  177.9950  137.0600 O   0  0  0  0  0  1  0  0  0  0  0  0
  183.1700  175.4160  136.7000 O   0  0  0  0  0  1  0  0  0  0  0  0
  183.1770  176.1630  135.5170 C   0  0  0  0  0  0  0  0  0  0  0  0
  182.3040  175.5730  134.5960 O   0  0  0  0  0  1  0  0  0  0  0  0
  184.5320  176.1860  134.9740 N   0  0  0  0  0  2  0  0  0  0  0  0
  185.2460  175.0920  135.4870 N   0  0  0  0  0  2  0  0  0  0  0  0
  186.3340  175.2720  136.3950 C   0  0  0  0  0  0  0  0  0  0  0  0
  186.5990  176.7360  137.0940 S   0  0  0  0  0  0  0  0  0  0  0  0
  188.6610  174.4560  135.6950 C   0  0  2  0  0  3  0  0  0  0  0  0
  187.6050  173.5010  135.1740 C   0  0  0  0  0  2  0  0  0  0  0  0
  187.3760  174.1960  136.5020 C   0  0  2  0  0  3  0  0  0  0  0  0
  188.6860  175.9470  134.6410 S   0  0  0  0  0  1  0  0  0  0  0  0
  181.2240  180.7800  138.2270 S   0  0  0  0  0  0  0  0  0  0  0  0
  180.0630  180.9330  137.0840 C   0  0  0  0  0  0  0  0  0  0  0  0
  179.5420  182.2310  136.8080 N   0  0  0  0  0  2  0  0  0  0  0  0
  180.1520  183.4420  137.3240 C   0  0  0  0  0  2  0  0  0  0  0  0
  180.1500  183.8000  134.8880 C   0  0  0  0  0  1  0  0  0  0  0  0
  180.2200  184.4890  136.2310 C   0  0  2  0  0  3  0  0  0  0  0  0
  181.4140  185.2150  136.3340 O   0  0  0  0  0  1  0  0  0  0  0  0
  1 33  1  6  0  0  0
  1  4  1  0  0  0  0
  1  3  1  0  0  0  0
  3 11  1  0  0  0  0
  3  2  1  1  0  0  0
  4  5  1  1  0  0  0
  4  6  1  0  0  0  0
  6  2  1  0  0  0  0
  8  7  1  0  0  0  0
 10  9  1  6  0  0  0
 10  7  1  0  0  0  0
 10 16  1  0  0  0  0
 11 13  1  1  0  0  0
 11  8  1  0  0  0  0
 12 13  1  0  0  0  0
 12  9  1  0  0  0  0
 14 18  1  0  0  0  0
 15 18  1  0  0  0  0
 16 22  1  6  0  0  0
 16 17  1  0  0  0  0
 16 20  1  0  0  0  0
 17 21  1  0  0  0  0
 18 19  1  1  0  0  0
 20 15  1  6  0  0  0
 20 18  1  0  0  0  0
 21 14  1  0  0  0  0
 23 22  1  0  0  0  0
 24 26  1  0  0  0  0
 24 23  1  1  0  0  0
 25 24  1  0  0  0  0
 25 26  1  0  0  0  0
 26 30  1  6  0  0  0
 26 29  1  0  0  0  0
 27 29  1  0  0  0  0
 29 28  1  0  0  0  0
 31 30  1  0  0  0  0
 32 31  1  0  0  0  0
 34 33  2  0  0  0  0
 35 39  1  0  0  0  0
 35 37  1  0  0  0  0
 36 33  1  6  0  0  0
 37 54  1  1  0  0  0
 37 38  1  0  0  0  0
 38 36  1  0  0  0  0
 39 40  1  1  0  0  0
 39 36  1  0  0  0  0
 40 41  1  1  0  0  0
 43 40  1  0  0  0  0
 43 42  1  0  0  0  0
 44 43  1  0  0  0  0
 45 46  1  0  0  0  0
 45 43  1  0  0  0  0
 46 47  1  0  0  0  0
 47 48  2  0  0  0  0
 49 52  1  6  0  0  0
 49 51  1  0  0  0  0
 50 49  1  0  0  0  0
 50 51  1  0  0  0  0
 51 47  1  6  0  0  0
 54 53  2  0  0  0  0
 55 54  1  0  0  0  0
 55 56  1  0  0  0  0
 58 57  1  6  0  0  0
 58 59  1  0  0  0  0
 58 56  1  0  0  0  0
M  END
>  <MODEL>
6

>  <REMARK>
 VINA RESULT:      -4.6      2.713      4.474
  Name = 
  20 active torsions:
  status: ('A' for Active; 'I' for Inactive)
    1  A    between atoms: C_1  and  O_29
    2  A    between atoms: C_3  and  C_6
    3  A    between atoms: C_3  and  C_38
    4  A    between atoms: C_8  and  C_27
    5  A    between atoms: C_8  and  C_57
    6  A    between atoms: C_10  and  N_37
    7  A    between atoms: C_10  and  C_50
    8  A    between atoms: C_13  and  C_18
    9  A    between atoms: C_13  and  N_53
   10  A    between atoms: N_14  and  C_23
   11  A    between atoms: N_14  and  N_53
   12  A    between atoms: C_17  and  C_44
   13  A    between atoms: N_22  and  C_39
   14  A    between atoms: N_22  and  C_44
   15  A    between atoms: C_23  and  C_32
   16  A    between atoms: O_29  and  C_57
   17  A    between atoms: C_30  and  C_39
   18  A    between atoms: C_32  and  C_40
   19  A    between atoms: C_34  and  C_47
   20  A    between atoms: N_37  and  C_41
                            x       y       z     vdW  Elec       q    Type
                         _______ _______ _______ _____ _____    ______ ____

>  <TORSDO>
F 20

$$$$
=
 OpenBabel11062418153D

 59 65  0  0  1  0  0  0  0  0999 V2000
  186.9850  177.2760  136.5100 C   0  0  1  0  0  3  0  0  0  0  0  0
  189.1050  176.5920  135.6050 N   0  0  0  0  0  2  0  0  0  0  0  0
  188.2740  176.5390  136.8070 C   0  0  1  0  0  3  0  0  0  0  0  0
  187.0230  177.4000  135.0150 C   0  0  1  0  0  3  0  0  0  0  0  0
  186.4400  178.6680  134.6080 N   0  0  0  0  0  1  0  0  0  0  0  0
  188.4270  177.3480  134.6280 N   0  0  0  0  0  2  0  0  0  0  0  0
  188.8220  177.9850  140.4200 C   0  0  0  0  0  2  0  0  0  0  0  0
  188.1200  177.2290  139.2980 C   0  0  0  0  0  2  0  0  0  0  0  0
  191.2060  177.1310  140.6060 C   0  0  0  0  0  2  0  0  0  0  0  0
  189.7670  177.0310  141.1470 C   0  0  1  0  0  3  0  0  0  0  0  0
  189.0290  177.0000  138.0810 C   0  0  1  0  0  3  0  0  0  0  0  0
  191.3150  177.0540  139.0780 C   0  0  0  0  0  2  0  0  0  0  0  0
  190.2640  176.1600  138.4300 C   0  0  0  0  0  2  0  0  0  0  0  0
  192.1310  177.6570  144.2720 O   0  0  0  0  0  0  0  0  0  0  0  0
  191.2480  179.0200  142.5390 O   0  0  0  0  0  0  0  0  0  0  0  0
  189.6880  177.1300  142.6850 C   0  0  1  0  0  0  0  0  0  0  0  0
  190.6270  176.0800  143.3030 C   0  0  0  0  0  2  0  0  0  0  0  0
  191.2950  178.7540  143.9160 C   0  0  2  0  0  0  0  0  0  0  0  0
  191.4220  179.9070  144.6570 F   0  0  0  0  0  0  0  0  0  0  0  0
  190.0340  178.5740  143.1360 C   0  0  1  0  0  3  0  0  0  0  0  0
  192.0470  176.6080  143.3440 C   0  0  0  0  0  2  0  0  0  0  0  0
  188.2660  176.8150  143.1580 C   0  0  0  0  0  2  0  0  0  0  0  0
  188.2210  176.7010  144.5500 O   0  0  0  0  0  0  0  0  0  0  0  0
  187.2500  177.6220  144.9790 C   0  0  1  0  0  3  0  0  0  0  0  0
  186.2610  176.8950  145.8830 C   0  0  0  0  0  2  0  0  0  0  0  0
  187.2980  177.7980  146.4970 C   0  0  1  0  0  0  0  0  0  0  0  0
  188.0040  177.0290  148.6590 O   0  0  0  0  0  1  0  0  0  0  0  0
  189.5920  177.7130  147.1640 O   0  0  0  0  0  1  0  0  0  0  0  0
  188.3610  177.0650  147.3070 C   0  0  0  0  0  3  0  0  0  0  0  0
  186.7240  179.0130  147.1020 N   0  0  0  0  0  2  0  0  0  0  0  0
  185.2700  179.0890  147.0130 C   0  0  0  0  0  2  0  0  0  0  0  0
  184.8560  179.6480  145.6660 C   0  0  0  0  0  1  0  0  0  0  0  0
  185.7900  176.5080  137.0200 C   0  0  0  0  0  0  0  0  0  0  0  0
  185.0360  177.0590  137.7990 O   0  0  0  0  0  0  0  0  0  0  0  0
  184.2310  173.6080  134.7020 S   0  0  0  0  0  0  0  0  0  0  0  0
  185.4840  175.1100  136.5520 C   0  0  2  0  0  3  0  0  0  0  0  0
  186.0250  173.4630  134.9730 C   0  0  1  0  0  3  0  0  0  0  0  0
  186.5300  174.6470  135.6490 N   0  0  0  0  0  2  0  0  0  0  0  0
  184.1260  175.0030  135.8620 C   0  0  2  0  0  3  0  0  0  0  0  0
  182.9760  174.8100  136.8750 C   0  0  1  0  0  3  0  0  0  0  0  0
  183.4600  174.9010  138.1820 O   0  0  0  0  0  1  0  0  0  0  0  0
  181.7310  176.1630  135.3340 O   0  0  0  0  0  1  0  0  0  0  0  0
  181.8270  175.8190  136.6870 C   0  0  0  0  0  0  0  0  0  0  0  0
  180.6220  175.2430  137.1020 O   0  0  0  0  0  1  0  0  0  0  0  0
  182.0990  177.0210  137.4680 N   0  0  0  0  0  2  0  0  0  0  0  0
  181.0100  177.2660  138.3200 N   0  0  0  0  0  2  0  0  0  0  0  0
  181.2000  177.5960  139.6970 C   0  0  0  0  0  0  0  0  0  0  0  0
  182.6590  177.3500  140.4150 S   0  0  0  0  0  0  0  0  0  0  0  0
  179.5290  179.3820  140.4640 C   0  0  2  0  0  3  0  0  0  0  0  0
  180.3370  178.8920  141.6500 C   0  0  0  0  0  2  0  0  0  0  0  0
  180.0000  177.9180  140.5380 C   0  0  2  0  0  3  0  0  0  0  0  0
  180.5560  180.5290  139.4800 S   0  0  0  0  0  1  0  0  0  0  0  0
  187.9450  171.8420  136.0650 S   0  0  0  0  0  0  0  0  0  0  0  0
  186.3880  172.2080  135.7210 C   0  0  0  0  0  0  0  0  0  0  0  0
  185.3620  171.3290  136.1770 N   0  0  0  0  0  2  0  0  0  0  0  0
  184.6800  170.4030  135.2920 C   0  0  0  0  0  2  0  0  0  0  0  0
  182.2340  170.6080  135.0970 C   0  0  0  0  0  1  0  0  0  0  0  0
  183.3550  169.9920  135.9020 C   0  0  2  0  0  3  0  0  0  0  0  0
  183.2820  170.4280  137.2320 O   0  0  0  0  0  1  0  0  0  0  0  0
  1  3  1  0  0  0  0
  1 33  1  6  0  0  0
  3  2  1  6  0  0  0
  3 11  1  0  0  0  0
  4  5  1  1  0  0  0
  4  1  1  0  0  0  0
  6  4  1  0  0  0  0
  6  2  1  0  0  0  0
  8  7  1  0  0  0  0
  9 10  1  0  0  0  0
 10  7  1  6  0  0  0
 10 16  1  0  0  0  0
 11 13  1  1  0  0  0
 11  8  1  0  0  0  0
 12  9  1  0  0  0  0
 13 12  1  0  0  0  0
 15 18  1  0  0  0  0
 16 20  1  0  0  0  0
 16 22  1  1  0  0  0
 16 17  1  0  0  0  0
 17 21  1  0  0  0  0
 18 14  1  0  0  0  0
 18 19  1  1  0  0  0
 20 15  1  6  0  0  0
 20 18  1  0  0  0  0
 21 14  1  0  0  0  0
 22 23  1  0  0  0  0
 24 23  1  1  0  0  0
 24 25  1  0  0  0  0
 24 26  1  0  0  0  0
 25 26  1  0  0  0  0
 26 30  1  1  0  0  0
 26 29  1  0  0  0  0
 28 29  1  0  0  0  0
 29 27  1  0  0  0  0
 31 30  1  0  0  0  0
 32 31  1  0  0  0  0
 33 34  2  0  0  0  0
 35 37  1  0  0  0  0
 35 39  1  0  0  0  0
 36 33  1  6  0  0  0
 37 38  1  0  0  0  0
 37 54  1  1  0  0  0
 38 36  1  0  0  0  0
 39 36  1  0  0  0  0
 39 40  1  1  0  0  0
 40 41  1  1  0  0  0
 42 43  1  0  0  0  0
 43 40  1  0  0  0  0
 43 44  1  0  0  0  0
 43 45  1  0  0  0  0
 45 46  1  0  0  0  0
 46 47  1  0  0  0  0
 47 48  2  0  0  0  0
 49 52  1  6  0  0  0
 49 51  1  0  0  0  0
 49 50  1  0  0  0  0
 51 47  1  6  0  0  0
 51 50  1  0  0  0  0
 54 53  2  0  0  0  0
 54 55  1  0  0  0  0
 56 58  1  0  0  0  0
 56 55  1  0  0  0  0
 58 57  1  6  0  0  0
 58 59  1  0  0  0  0
M  END
>  <MODEL>
7

>  <REMARK>
 VINA RESULT:      -4.4      3.061      8.068
  Name = 
  20 active torsions:
  status: ('A' for Active; 'I' for Inactive)
    1  A    between atoms: C_1  and  O_29
    2  A    between atoms: C_3  and  C_6
    3  A    between atoms: C_3  and  C_38
    4  A    between atoms: C_8  and  C_27
    5  A    between atoms: C_8  and  C_57
    6  A    between atoms: C_10  and  N_37
    7  A    between atoms: C_10  and  C_50
    8  A    between atoms: C_13  and  C_18
    9  A    between atoms: C_13  and  N_53
   10  A    between atoms: N_14  and  C_23
   11  A    between atoms: N_14  and  N_53
   12  A    between atoms: C_17  and  C_44
   13  A    between atoms: N_22  and  C_39
   14  A    between atoms: N_22  and  C_44
   15  A    between atoms: C_23  and  C_32
   16  A    between atoms: O_29  and  C_57
   17  A    between atoms: C_30  and  C_39
   18  A    between atoms: C_32  and  C_40
   19  A    between atoms: C_34  and  C_47
   20  A    between atoms: N_37  and  C_41
                            x       y       z     vdW  Elec       q    Type
                         _______ _______ _______ _____ _____    ______ ____

>  <TORSDO>
F 20

$$$$
