=
 OpenBabel11062413183D

 30 37  0  0  1  0  0  0  0  0999 V2000
  186.7490  177.5480  143.0060 C   0  0  1  0  0  3  0  0  0  0  0  0
  187.8240  178.5700  140.5410 C   0  0  0  0  0  3  0  0  0  0  0  0
  185.6900  179.7420  142.3440 N   0  0  0  0  0  2  0  0  0  0  0  0
  185.7850  178.3330  141.9500 C   0  0  2  0  0  0  0  0  0  0  0  0
  184.3300  177.7810  142.1010 C   0  0  1  0  0  3  0  0  0  0  0  0
  181.4680  178.8610  141.8230 C   0  0  0  0  0  2  0  0  0  0  0  0
  183.7340  178.5960  143.2690 C   0  0  1  0  0  3  0  0  0  0  0  0
  186.3890  178.1470  140.5080 C   0  0  1  0  0  3  0  0  0  0  0  0
  184.6990  179.7640  143.4420 C   0  0  0  0  0  2  0  0  0  0  0  0
  188.0730  177.0100  142.3950 C   0  0  0  0  0  2  0  0  0  0  0  0
  183.4410  177.9130  140.8360 C   0  0  0  0  0  2  0  0  0  0  0  0
  181.9860  177.6270  141.1420 C   0  0  0  0  0  2  0  0  0  0  0  0
  182.2390  179.0740  143.1590 C   0  0  2  0  0  3  0  0  0  0  0  0
  188.6420  178.0370  141.4650 C   0  0  0  0  0  3  0  0  0  0  0  0
  184.1850  175.9890  136.3850 C   0  0  1  0  0  3  0  0  0  0  0  0
  183.2860  176.8480  137.2120 C   0  0  2  0  0  3  0  0  0  0  0  0
  186.2570  176.7510  137.7730 C   0  0  0  0  0  2  0  0  0  0  0  0
  185.6260  178.8910  139.3760 C   0  0  2  0  0  3  0  0  0  0  0  0
  185.4220  177.9570  138.2240 C   0  0  1  0  0  0  0  0  0  0  0  0
  186.2480  179.0890  138.1090 O   0  0  0  0  0  0  0  0  0  0  0  0
  183.9940  178.1370  137.6620 C   0  0  0  0  0  2  0  0  0  0  0  0
  185.7040  176.3540  136.3600 C   0  0  0  0  0  2  0  0  0  0  0  0
  183.8150  175.6240  137.7060 O   0  0  0  0  0  0  0  0  0  0  0  0
  186.2630  177.4850  145.5760 C   0  0  1  0  0  3  0  0  0  0  0  0
  187.7580  177.2850  145.3900 C   0  0  2  0  0  3  0  0  0  0  0  0
  186.6580  178.1930  146.8480 C   0  0  0  0  0  2  0  0  0  0  0  0
  188.0980  178.0320  146.6020 N   0  0  0  0  0  2  0  0  0  0  0  0
  186.9650  178.1840  144.4130 C   0  0  1  0  0  3  0  0  0  0  0  0
  181.4260  178.7820  144.3080 O   0  0  0  0  0  0  0  0  0  0  0  0
  180.1280  178.7790  143.8450 N   0  0  0  0  0  1  0  0  0  0  0  0
  1 10  1  6  0  0  0
  2 14  2  0  0  0  0
  3  9  1  0  0  0  0
  4  5  1  0  0  0  0
  4  3  1  1  0  0  0
  4  1  1  0  0  0  0
  5 11  1  6  0  0  0
  5  7  1  0  0  0  0
  6 13  1  0  0  0  0
  7  9  1  6  0  0  0
  8  2  1  1  0  0  0
  8  4  1  0  0  0  0
 11 12  1  0  0  0  0
 12  6  1  0  0  0  0
 13  7  1  0  0  0  0
 13 29  1  1  0  0  0
 14 10  1  0  0  0  0
 15 22  1  1  0  0  0
 15 16  1  0  0  0  0
 15 23  1  0  0  0  0
 16 21  1  1  0  0  0
 16 23  1  0  0  0  0
 17 19  1  0  0  0  0
 18 20  1  6  0  0  0
 18  8  1  0  0  0  0
 19 21  1  6  0  0  0
 19 18  1  0  0  0  0
 20 19  1  0  0  0  0
 22 17  1  0  0  0  0
 24 26  1  1  0  0  0
 25 24  1  0  0  0  0
 25 27  1  1  0  0  0
 27 26  1  0  0  0  0
 28  1  1  6  0  0  0
 28 25  1  0  0  0  0
 28 24  1  0  0  0  0
 30 29  1  0  0  0  0
M  END
>  <MODEL>
1

>  <REMARK>
 VINA RESULT:      -6.9      0.000      0.000
  Name = 
  3 active torsions:
  status: ('A' for Active; 'I' for Inactive)
    1  A    between atoms: C_2  and  C_16
    2  A    between atoms: O_14  and  C_25
    3  A    between atoms: C_17  and  C_18
                            x       y       z     vdW  Elec       q    Type
                         _______ _______ _______ _____ _____    ______ ____

>  <TORSDO>
F 3

$$$$
=
 OpenBabel11062413183D

 30 37  0  0  1  0  0  0  0  0999 V2000
  186.6920  177.5910  143.3500 C   0  0  1  0  0  3  0  0  0  0  0  0
  188.3920  178.3680  141.1620 C   0  0  0  0  0  3  0  0  0  0  0  0
  185.9120  179.7270  142.2510 N   0  0  0  0  0  2  0  0  0  0  0  0
  186.0550  178.2870  142.0180 C   0  0  2  0  0  0  0  0  0  0  0  0
  184.5910  177.7670  141.8400 C   0  0  1  0  0  3  0  0  0  0  0  0
  181.9330  178.8510  140.7480 C   0  0  0  0  0  2  0  0  0  0  0  0
  183.7470  178.6940  142.7420 C   0  0  1  0  0  3  0  0  0  0  0  0
  186.9970  177.9600  140.8010 C   0  0  1  0  0  3  0  0  0  0  0  0
  184.6770  179.8620  143.0530 C   0  0  0  0  0  2  0  0  0  0  0  0
  188.1080  176.9830  143.1460 C   0  0  0  0  0  2  0  0  0  0  0  0
  184.0560  177.7920  140.3840 C   0  0  0  0  0  2  0  0  0  0  0  0
  182.5620  177.5530  140.3310 C   0  0  0  0  0  2  0  0  0  0  0  0
  182.3470  179.1770  142.2130 C   0  0  2  0  0  3  0  0  0  0  0  0
  188.9290  177.9130  142.3070 C   0  0  0  0  0  3  0  0  0  0  0  0
  186.8460  175.6210  136.2160 C   0  0  1  0  0  3  0  0  0  0  0  0
  185.5720  176.2750  136.6410 C   0  0  2  0  0  3  0  0  0  0  0  0
  188.1090  176.6770  138.2390 C   0  0  0  0  0  2  0  0  0  0  0  0
  186.5730  178.6060  139.4510 C   0  0  2  0  0  3  0  0  0  0  0  0
  186.9670  177.6990  138.3270 C   0  0  1  0  0  0  0  0  0  0  0  0
  187.5640  178.9610  138.4890 O   0  0  0  0  0  0  0  0  0  0  0  0
  185.8290  177.6480  137.2830 C   0  0  0  0  0  2  0  0  0  0  0  0
  188.1810  176.2480  136.7320 C   0  0  0  0  0  2  0  0  0  0  0  0
  186.0980  175.1430  137.3230 O   0  0  0  0  0  0  0  0  0  0  0  0
  185.5380  177.7980  145.6880 C   0  0  1  0  0  3  0  0  0  0  0  0
  187.0120  177.5220  145.9310 C   0  0  2  0  0  3  0  0  0  0  0  0
  185.6250  178.6100  146.9570 C   0  0  0  0  0  2  0  0  0  0  0  0
  187.0650  178.3700  147.1230 N   0  0  0  0  0  2  0  0  0  0  0  0
  186.5670  178.3530  144.7050 C   0  0  1  0  0  3  0  0  0  0  0  0
  181.2590  179.0030  143.1370 O   0  0  0  0  0  0  0  0  0  0  0  0
  180.4010  180.0530  142.8910 N   0  0  0  0  0  1  0  0  0  0  0  0
  1 10  1  6  0  0  0
  2 14  2  0  0  0  0
  3  9  1  0  0  0  0
  4  3  1  1  0  0  0
  4  1  1  0  0  0  0
  5 11  1  6  0  0  0
  5  4  1  0  0  0  0
  5  7  1  0  0  0  0
  6 13  1  0  0  0  0
  7  9  1  6  0  0  0
  8  2  1  1  0  0  0
  8  4  1  0  0  0  0
 12 11  1  0  0  0  0
 12  6  1  0  0  0  0
 13  7  1  0  0  0  0
 13 29  1  1  0  0  0
 14 10  1  0  0  0  0
 15 16  1  0  0  0  0
 15 22  1  1  0  0  0
 15 23  1  0  0  0  0
 16 21  1  1  0  0  0
 16 23  1  0  0  0  0
 17 19  1  0  0  0  0
 18 20  1  6  0  0  0
 18  8  1  0  0  0  0
 19 21  1  6  0  0  0
 19 20  1  0  0  0  0
 19 18  1  0  0  0  0
 22 17  1  0  0  0  0
 24 25  1  0  0  0  0
 24 26  1  1  0  0  0
 25 27  1  1  0  0  0
 26 27  1  0  0  0  0
 28  1  1  6  0  0  0
 28 24  1  0  0  0  0
 28 25  1  0  0  0  0
 30 29  1  0  0  0  0
M  END
>  <MODEL>
2

>  <REMARK>
 VINA RESULT:      -6.8      1.121      1.337
  Name = 
  3 active torsions:
  status: ('A' for Active; 'I' for Inactive)
    1  A    between atoms: C_2  and  C_16
    2  A    between atoms: O_14  and  C_25
    3  A    between atoms: C_17  and  C_18
                            x       y       z     vdW  Elec       q    Type
                         _______ _______ _______ _____ _____    ______ ____

>  <TORSDO>
F 3

$$$$
=
 OpenBabel11062413183D

 30 37  0  0  1  0  0  0  0  0999 V2000
  190.6470  176.3390  144.1560 C   0  0  1  0  0  3  0  0  0  0  0  0
  191.1940  177.4770  141.5700 C   0  0  0  0  0  3  0  0  0  0  0  0
  189.8410  178.7260  143.9760 N   0  0  0  0  0  2  0  0  0  0  0  0
  189.5870  177.3730  143.4700 C   0  0  2  0  0  0  0  0  0  0  0  0
  188.1510  177.0220  143.9780 C   0  0  1  0  0  3  0  0  0  0  0  0
  185.5450  178.5290  144.5860 C   0  0  0  0  0  2  0  0  0  0  0  0
  188.0310  177.7730  145.3220 C   0  0  1  0  0  3  0  0  0  0  0  0
  189.7510  177.2710  141.9070 C   0  0  1  0  0  3  0  0  0  0  0  0
  189.1920  178.7610  145.3050 C   0  0  0  0  0  2  0  0  0  0  0  0
  191.6510  175.6910  143.1630 C   0  0  0  0  0  2  0  0  0  0  0  0
  186.9970  177.4280  143.0230 C   0  0  0  0  0  2  0  0  0  0  0  0
  185.6470  177.3210  143.7000 C   0  0  0  0  0  2  0  0  0  0  0  0
  186.6640  178.4710  145.6670 C   0  0  2  0  0  3  0  0  0  0  0  0
  192.1230  176.7270  142.1900 C   0  0  0  0  0  3  0  0  0  0  0  0
  188.4240  176.7630  136.9580 C   0  0  1  0  0  3  0  0  0  0  0  0
  187.2850  176.9170  137.9110 C   0  0  2  0  0  3  0  0  0  0  0  0
  190.1340  177.2780  138.8580 C   0  0  0  0  0  2  0  0  0  0  0  0
  188.8560  178.2450  141.0890 C   0  0  2  0  0  3  0  0  0  0  0  0
  188.9730  177.9150  139.6330 C   0  0  1  0  0  0  0  0  0  0  0  0
  189.4490  179.1350  140.1460 O   0  0  0  0  0  0  0  0  0  0  0  0
  187.5780  177.9880  138.9740 C   0  0  0  0  0  2  0  0  0  0  0  0
  189.7770  177.4460  137.3400 C   0  0  0  0  0  2  0  0  0  0  0  0
  188.1180  175.7650  137.9180 O   0  0  0  0  0  0  0  0  0  0  0  0
  190.6630  176.2710  146.7710 C   0  0  1  0  0  3  0  0  0  0  0  0
  191.9350  175.5910  146.2890 C   0  0  2  0  0  3  0  0  0  0  0  0
  191.5100  176.7170  147.9370 C   0  0  0  0  0  2  0  0  0  0  0  0
  192.7330  176.0970  147.4070 N   0  0  0  0  0  2  0  0  0  0  0  0
  191.3300  176.7690  145.4900 C   0  0  1  0  0  3  0  0  0  0  0  0
  186.1440  178.1670  146.9730 O   0  0  0  0  0  0  0  0  0  0  0  0
  184.8160  178.5350  146.9300 N   0  0  0  0  0  1  0  0  0  0  0  0
  1 10  1  6  0  0  0
  2 14  2  0  0  0  0
  3  9  1  0  0  0  0
  4  3  1  1  0  0  0
  4  5  1  0  0  0  0
  4  1  1  0  0  0  0
  5 11  1  6  0  0  0
  5  7  1  0  0  0  0
  6 13  1  0  0  0  0
  7  9  1  6  0  0  0
  7 13  1  0  0  0  0
  8  2  1  1  0  0  0
  8  4  1  0  0  0  0
 11 12  1  0  0  0  0
 12  6  1  0  0  0  0
 13 29  1  1  0  0  0
 14 10  1  0  0  0  0
 15 22  1  1  0  0  0
 15 16  1  0  0  0  0
 15 23  1  0  0  0  0
 16 23  1  0  0  0  0
 16 21  1  1  0  0  0
 18 20  1  6  0  0  0
 18  8  1  0  0  0  0
 19 17  1  6  0  0  0
 19 20  1  0  0  0  0
 19 18  1  0  0  0  0
 21 19  1  0  0  0  0
 22 17  1  0  0  0  0
 24 26  1  1  0  0  0
 25 24  1  0  0  0  0
 25 27  1  1  0  0  0
 27 26  1  0  0  0  0
 28  1  1  6  0  0  0
 28 25  1  0  0  0  0
 28 24  1  0  0  0  0
 30 29  1  0  0  0  0
M  END
>  <MODEL>
3

>  <REMARK>
 VINA RESULT:      -6.2      3.064      4.453
  Name = 
  3 active torsions:
  status: ('A' for Active; 'I' for Inactive)
    1  A    between atoms: C_2  and  C_16
    2  A    between atoms: O_14  and  C_25
    3  A    between atoms: C_17  and  C_18
                            x       y       z     vdW  Elec       q    Type
                         _______ _______ _______ _____ _____    ______ ____

>  <TORSDO>
F 3

$$$$
=
 OpenBabel11062413183D

 30 37  0  0  1  0  0  0  0  0999 V2000
  186.3000  178.7320  144.7460 C   0  0  1  0  0  3  0  0  0  0  0  0
  183.7560  178.2760  143.4820 C   0  0  0  0  0  3  0  0  0  0  0  0
  186.2950  176.6290  143.3480 N   0  0  0  0  0  2  0  0  0  0  0  0
  186.2280  178.0900  143.2480 C   0  0  2  0  0  0  0  0  0  0  0  0
  187.5240  178.4940  142.4720 C   0  0  1  0  0  3  0  0  0  0  0  0
  189.3250  177.2740  140.3040 C   0  0  0  0  0  2  0  0  0  0  0  0
  188.5620  177.4300  142.8900 C   0  0  1  0  0  3  0  0  0  0  0  0
  184.8990  178.5900  142.5680 C   0  0  1  0  0  3  0  0  0  0  0  0
  187.7310  176.3270  143.5340 C   0  0  0  0  0  2  0  0  0  0  0  0
  185.0100  179.4730  145.1940 C   0  0  0  0  0  2  0  0  0  0  0  0
  187.3800  178.5370  140.9280 C   0  0  0  0  0  2  0  0  0  0  0  0
  188.7260  178.6500  140.2430 C   0  0  0  0  0  2  0  0  0  0  0  0
  189.5410  176.8710  141.7920 C   0  0  2  0  0  3  0  0  0  0  0  0
  183.8120  178.6850  144.7620 C   0  0  0  0  0  3  0  0  0  0  0  0
  181.3550  180.2540  139.2240 C   0  0  1  0  0  3  0  0  0  0  0  0
  182.7540  180.2160  138.7040 C   0  0  2  0  0  3  0  0  0  0  0  0
  182.0880  179.0210  141.4020 C   0  0  0  0  0  2  0  0  0  0  0  0
  184.6330  178.0170  141.1480 C   0  0  2  0  0  3  0  0  0  0  0  0
  183.3340  178.5570  140.6350 C   0  0  1  0  0  0  0  0  0  0  0  0
  183.4960  177.1890  140.9140 O   0  0  0  0  0  0  0  0  0  0  0  0
  183.4860  178.9380  139.1450 C   0  0  0  0  0  2  0  0  0  0  0  0
  180.9680  179.2100  140.3210 C   0  0  0  0  0  2  0  0  0  0  0  0
  182.3610  181.1140  139.7340 O   0  0  0  0  0  0  0  0  0  0  0  0
  188.3390  178.1940  146.2940 C   0  0  1  0  0  3  0  0  0  0  0  0
  187.1960  178.6460  147.1880 C   0  0  2  0  0  3  0  0  0  0  0  0
  188.7110  177.3070  147.4560 C   0  0  0  0  0  2  0  0  0  0  0  0
  187.5570  177.7240  148.2660 N   0  0  0  0  0  2  0  0  0  0  0  0
  186.9060  177.8590  145.8880 C   0  0  1  0  0  3  0  0  0  0  0  0
  190.9300  176.8790  142.1610 O   0  0  0  0  0  0  0  0  0  0  0  0
  191.0550  177.8920  143.0880 N   0  0  0  0  0  1  0  0  0  0  0  0
  1 10  1  1  0  0  0
  2 14  2  0  0  0  0
  3  9  1  0  0  0  0
  4  3  1  1  0  0  0
  4  1  1  0  0  0  0
  5 11  1  6  0  0  0
  5  7  1  0  0  0  0
  5  4  1  0  0  0  0
  6 13  1  0  0  0  0
  7  9  1  6  0  0  0
  8  4  1  0  0  0  0
  8  2  1  1  0  0  0
 12  6  1  0  0  0  0
 12 11  1  0  0  0  0
 13 29  1  1  0  0  0
 13  7  1  0  0  0  0
 14 10  1  0  0  0  0
 15 23  1  0  0  0  0
 15 22  1  1  0  0  0
 16 21  1  1  0  0  0
 16 15  1  0  0  0  0
 16 23  1  0  0  0  0
 18 20  1  1  0  0  0
 18  8  1  0  0  0  0
 19 21  1  6  0  0  0
 19 20  1  0  0  0  0
 19 18  1  0  0  0  0
 19 17  1  0  0  0  0
 22 17  1  0  0  0  0
 24 25  1  0  0  0  0
 24 26  1  1  0  0  0
 25 27  1  1  0  0  0
 26 27  1  0  0  0  0
 28  1  1  6  0  0  0
 28 24  1  0  0  0  0
 28 25  1  0  0  0  0
 29 30  1  0  0  0  0
M  END
>  <MODEL>
4

>  <REMARK>
 VINA RESULT:      -5.7      2.571      5.160
  Name = 
  3 active torsions:
  status: ('A' for Active; 'I' for Inactive)
    1  A    between atoms: C_2  and  C_16
    2  A    between atoms: O_14  and  C_25
    3  A    between atoms: C_17  and  C_18
                            x       y       z     vdW  Elec       q    Type
                         _______ _______ _______ _____ _____    ______ ____

>  <TORSDO>
F 3

$$$$
=
 OpenBabel11062413183D

 30 37  0  0  1  0  0  0  0  0999 V2000
  186.5600  179.0150  143.4750 C   0  0  1  0  0  3  0  0  0  0  0  0
  186.4350  178.2530  140.7030 C   0  0  0  0  0  3  0  0  0  0  0  0
  187.5260  176.7150  143.0750 N   0  0  0  0  0  2  0  0  0  0  0  0
  187.7630  178.1370  142.8070 C   0  0  2  0  0  0  0  0  0  0  0  0
  189.0940  178.4660  143.5580 C   0  0  1  0  0  3  0  0  0  0  0  0
  191.6810  176.9910  144.3110 C   0  0  0  0  0  2  0  0  0  0  0  0
  189.0770  177.5290  144.7860 C   0  0  1  0  0  3  0  0  0  0  0  0
  187.8060  178.4630  141.2680 C   0  0  1  0  0  3  0  0  0  0  0  0
  187.9910  176.5090  144.4640 C   0  0  0  0  0  2  0  0  0  0  0  0
  185.6620  179.7620  142.4520 C   0  0  0  0  0  2  0  0  0  0  0  0
  190.3880  178.2530  142.7300 C   0  0  0  0  0  2  0  0  0  0  0  0
  191.6260  178.3110  143.6000 C   0  0  0  0  0  2  0  0  0  0  0  0
  190.4250  176.8430  145.2200 C   0  0  2  0  0  3  0  0  0  0  0  0
  185.3880  178.8650  141.2850 C   0  0  0  0  0  3  0  0  0  0  0  0
  188.1890  178.2530  136.1370 C   0  0  1  0  0  3  0  0  0  0  0  0
  189.4300  178.6720  136.8520 C   0  0  2  0  0  3  0  0  0  0  0  0
  187.0350  177.6670  138.4010 C   0  0  0  0  0  2  0  0  0  0  0  0
  188.8590  177.6580  140.4550 C   0  0  2  0  0  3  0  0  0  0  0  0
  188.4380  177.6070  139.0190 C   0  0  1  0  0  0  0  0  0  0  0  0
  188.4840  176.4440  139.8080 O   0  0  0  0  0  0  0  0  0  0  0  0
  189.6700  177.8250  138.1130 C   0  0  0  0  0  2  0  0  0  0  0  0
  187.2180  177.2880  136.8900 C   0  0  0  0  0  2  0  0  0  0  0  0
  188.2620  179.4830  136.8410 O   0  0  0  0  0  0  0  0  0  0  0  0
  185.9550  178.9460  146.0190 C   0  0  1  0  0  3  0  0  0  0  0  0
  184.6920  179.3170  145.2600 C   0  0  2  0  0  3  0  0  0  0  0  0
  185.0120  178.2490  146.9680 C   0  0  0  0  0  2  0  0  0  0  0  0
  183.8190  178.5760  146.1730 N   0  0  0  0  0  2  0  0  0  0  0  0
  185.7310  178.3650  144.6250 C   0  0  1  0  0  3  0  0  0  0  0  0
  190.7450  176.9690  146.6150 O   0  0  0  0  0  0  0  0  0  0  0  0
  192.0240  176.4700  146.7420 N   0  0  0  0  0  1  0  0  0  0  0  0
  1 10  1  6  0  0  0
  2 14  2  0  0  0  0
  3  9  1  0  0  0  0
  4  3  1  1  0  0  0
  4  1  1  0  0  0  0
  4  5  1  0  0  0  0
  5 11  1  6  0  0  0
  5  7  1  0  0  0  0
  6 13  1  0  0  0  0
  7  9  1  6  0  0  0
  7 13  1  0  0  0  0
  8  2  1  6  0  0  0
  8  4  1  0  0  0  0
 11 12  1  0  0  0  0
 12  6  1  0  0  0  0
 13 29  1  1  0  0  0
 14 10  1  0  0  0  0
 15 23  1  0  0  0  0
 15 16  1  0  0  0  0
 15 22  1  1  0  0  0
 16 21  1  1  0  0  0
 17 19  1  0  0  0  0
 18 20  1  1  0  0  0
 18  8  1  0  0  0  0
 19 21  1  6  0  0  0
 19 20  1  0  0  0  0
 19 18  1  0  0  0  0
 22 17  1  0  0  0  0
 23 16  1  0  0  0  0
 24 26  1  1  0  0  0
 25 24  1  0  0  0  0
 25 27  1  1  0  0  0
 27 26  1  0  0  0  0
 28  1  1  6  0  0  0
 28 25  1  0  0  0  0
 28 24  1  0  0  0  0
 29 30  1  0  0  0  0
M  END
>  <MODEL>
5

>  <REMARK>
 VINA RESULT:      -5.5      3.023      5.580
  Name = 
  3 active torsions:
  status: ('A' for Active; 'I' for Inactive)
    1  A    between atoms: C_2  and  C_16
    2  A    between atoms: O_14  and  C_25
    3  A    between atoms: C_17  and  C_18
                            x       y       z     vdW  Elec       q    Type
                         _______ _______ _______ _____ _____    ______ ____

>  <TORSDO>
F 3

$$$$
=
 OpenBabel11062413183D

 30 37  0  0  1  0  0  0  0  0999 V2000
  189.1980  176.7180  142.1850 C   0  0  1  0  0  3  0  0  0  0  0  0
  191.8410  177.1740  141.1440 C   0  0  0  0  0  3  0  0  0  0  0  0
  189.3160  178.8060  140.7700 N   0  0  0  0  0  2  0  0  0  0  0  0
  189.3980  177.3450  140.6920 C   0  0  2  0  0  0  0  0  0  0  0  0
  188.1780  176.9250  139.8100 C   0  0  1  0  0  3  0  0  0  0  0  0
  186.5680  178.1110  137.4790 C   0  0  0  0  0  2  0  0  0  0  0  0
  187.1010  177.9870  140.1230 C   0  0  1  0  0  3  0  0  0  0  0  0
  190.7840  176.8450  140.1370 C   0  0  1  0  0  3  0  0  0  0  0  0
  187.8680  179.1020  140.8250 C   0  0  0  0  0  2  0  0  0  0  0  0
  190.4480  175.9890  142.7530 C   0  0  0  0  0  2  0  0  0  0  0  0
  188.4560  176.8660  138.2850 C   0  0  0  0  0  2  0  0  0  0  0  0
  187.1760  176.7390  137.4870 C   0  0  0  0  0  2  0  0  0  0  0  0
  186.2200  178.5290  138.9380 C   0  0  2  0  0  3  0  0  0  0  0  0
  191.6760  176.7790  142.4190 C   0  0  0  0  0  3  0  0  0  0  0  0
  191.4680  174.0950  135.8370 C   0  0  1  0  0  3  0  0  0  0  0  0
  190.4800  175.2100  135.7310 C   0  0  2  0  0  3  0  0  0  0  0  0
  192.1890  174.9070  138.2080 C   0  0  0  0  0  2  0  0  0  0  0  0
  191.1710  177.4040  138.7390 C   0  0  2  0  0  3  0  0  0  0  0  0
  191.5770  176.2690  137.8500 C   0  0  1  0  0  0  0  0  0  0  0  0
  192.5020  177.2480  138.2520 O   0  0  0  0  0  0  0  0  0  0  0  0
  190.9810  176.4780  136.4410 C   0  0  0  0  0  2  0  0  0  0  0  0
  192.6460  174.2750  136.8480 C   0  0  0  0  0  2  0  0  0  0  0  0
  190.2410  174.0720  136.5500 O   0  0  0  0  0  0  0  0  0  0  0  0
  187.1970  177.0320  143.8410 C   0  0  1  0  0  3  0  0  0  0  0  0
  188.4690  176.9660  144.6710 C   0  0  2  0  0  3  0  0  0  0  0  0
  186.7150  177.9800  144.9110 C   0  0  0  0  0  2  0  0  0  0  0  0
  187.9840  177.9370  145.6530 N   0  0  0  0  0  2  0  0  0  0  0  0
  188.4910  177.5990  143.2600 C   0  0  1  0  0  3  0  0  0  0  0  0
  184.8040  178.5170  139.1840 O   0  0  0  0  0  0  0  0  0  0  0  0
  184.4720  179.8260  139.4630 N   0  0  0  0  0  1  0  0  0  0  0  0
  1 10  1  1  0  0  0
  2 14  2  0  0  0  0
  3  9  1  0  0  0  0
  4  3  1  1  0  0  0
  4  1  1  0  0  0  0
  5 11  1  6  0  0  0
  5  7  1  0  0  0  0
  5  4  1  0  0  0  0
  6 12  1  0  0  0  0
  6 13  1  0  0  0  0
  7  9  1  6  0  0  0
  8  4  1  0  0  0  0
  8  2  1  1  0  0  0
 12 11  1  0  0  0  0
 13 29  1  1  0  0  0
 13  7  1  0  0  0  0
 14 10  1  0  0  0  0
 15 23  1  0  0  0  0
 15 22  1  1  0  0  0
 16 15  1  0  0  0  0
 16 21  1  1  0  0  0
 16 23  1  0  0  0  0
 18 20  1  1  0  0  0
 18  8  1  0  0  0  0
 19 21  1  6  0  0  0
 19 17  1  0  0  0  0
 19 20  1  0  0  0  0
 19 18  1  0  0  0  0
 22 17  1  0  0  0  0
 24 25  1  0  0  0  0
 24 26  1  1  0  0  0
 25 27  1  1  0  0  0
 26 27  1  0  0  0  0
 28  1  1  6  0  0  0
 28 24  1  0  0  0  0
 28 25  1  0  0  0  0
 29 30  1  0  0  0  0
M  END
>  <MODEL>
6

>  <REMARK>
 VINA RESULT:      -5.3      3.561      5.232
  Name = 
  3 active torsions:
  status: ('A' for Active; 'I' for Inactive)
    1  A    between atoms: C_2  and  C_16
    2  A    between atoms: O_14  and  C_25
    3  A    between atoms: C_17  and  C_18
                            x       y       z     vdW  Elec       q    Type
                         _______ _______ _______ _____ _____    ______ ____

>  <TORSDO>
F 3

$$$$
=
 OpenBabel11062413183D

 30 37  0  0  1  0  0  0  0  0999 V2000
  183.0740  178.1430  140.5790 C   0  0  1  0  0  3  0  0  0  0  0  0
  185.7780  179.0310  140.1580 C   0  0  0  0  0  3  0  0  0  0  0  0
  183.2490  179.7930  138.6750 N   0  0  0  0  0  2  0  0  0  0  0  0
  183.6210  178.4310  139.0690 C   0  0  2  0  0  0  0  0  0  0  0  0
  182.8460  177.5050  138.0760 C   0  0  1  0  0  3  0  0  0  0  0  0
  181.8740  177.6350  135.1650 C   0  0  0  0  0  2  0  0  0  0  0  0
  181.5490  178.2830  137.7660 C   0  0  1  0  0  3  0  0  0  0  0  0
  185.1790  178.2040  139.0650 C   0  0  1  0  0  3  0  0  0  0  0  0
  181.8300  179.6950  138.2670 C   0  0  0  0  0  2  0  0  0  0  0  0
  184.1890  177.9290  141.6400 C   0  0  0  0  0  2  0  0  0  0  0  0
  183.6030  177.1660  136.7650 C   0  0  0  0  0  2  0  0  0  0  0  0
  182.6920  176.5170  135.7440 C   0  0  0  0  0  2  0  0  0  0  0  0
  181.0080  178.2750  136.2890 C   0  0  2  0  0  3  0  0  0  0  0  0
  185.2900  178.9170  141.4060 C   0  0  0  0  0  3  0  0  0  0  0  0
  188.8020  175.3200  136.8130 C   0  0  1  0  0  3  0  0  0  0  0  0
  187.6060  175.6130  135.9700 C   0  0  2  0  0  3  0  0  0  0  0  0
  187.9640  176.9740  138.6470 C   0  0  0  0  0  2  0  0  0  0  0  0
  185.8810  178.5000  137.7100 C   0  0  2  0  0  3  0  0  0  0  0  0
  187.0750  177.6070  137.5690 C   0  0  1  0  0  0  0  0  0  0  0  0
  187.2160  179.0010  137.6940 O   0  0  0  0  0  0  0  0  0  0  0  0
  187.1520  177.0750  136.1210 C   0  0  0  0  0  2  0  0  0  0  0  0
  189.2020  176.3840  137.8860 C   0  0  0  0  0  2  0  0  0  0  0  0
  187.5230  174.7960  137.1310 O   0  0  0  0  0  0  0  0  0  0  0  0
  180.5970  178.3050  141.4050 C   0  0  1  0  0  3  0  0  0  0  0  0
  181.4920  178.6980  142.5690 C   0  0  2  0  0  3  0  0  0  0  0  0
  179.6330  179.3070  141.9900 C   0  0  0  0  0  2  0  0  0  0  0  0
  180.5520  179.7040  143.0660 N   0  0  0  0  0  2  0  0  0  0  0  0
  181.9100  179.0300  141.1180 C   0  0  1  0  0  3  0  0  0  0  0  0
  179.6150  177.9440  136.1570 O   0  0  0  0  0  0  0  0  0  0  0  0
  179.3410  177.0990  137.2120 N   0  0  0  0  0  1  0  0  0  0  0  0
  1 10  1  1  0  0  0
  2 14  2  0  0  0  0
  4  3  1  6  0  0  0
  4  1  1  0  0  0  0
  5 11  1  6  0  0  0
  5  4  1  0  0  0  0
  6 12  1  0  0  0  0
  6 13  1  0  0  0  0
  7  5  1  0  0  0  0
  7  9  1  6  0  0  0
  8  4  1  0  0  0  0
  8  2  1  1  0  0  0
  9  3  1  0  0  0  0
 12 11  1  0  0  0  0
 13 29  1  1  0  0  0
 13  7  1  0  0  0  0
 14 10  1  0  0  0  0
 15 23  1  0  0  0  0
 15 22  1  1  0  0  0
 16 21  1  1  0  0  0
 16 15  1  0  0  0  0
 16 23  1  0  0  0  0
 18 20  1  1  0  0  0
 18  8  1  0  0  0  0
 19 21  1  6  0  0  0
 19 20  1  0  0  0  0
 19 18  1  0  0  0  0
 19 17  1  0  0  0  0
 22 17  1  0  0  0  0
 24 26  1  1  0  0  0
 24 25  1  0  0  0  0
 25 27  1  1  0  0  0
 26 27  1  0  0  0  0
 28  1  1  6  0  0  0
 28 24  1  0  0  0  0
 28 25  1  0  0  0  0
 29 30  1  0  0  0  0
M  END
>  <MODEL>
7

>  <REMARK>
 VINA RESULT:      -5.3      3.296      5.226
  Name = 
  3 active torsions:
  status: ('A' for Active; 'I' for Inactive)
    1  A    between atoms: C_2  and  C_16
    2  A    between atoms: O_14  and  C_25
    3  A    between atoms: C_17  and  C_18
                            x       y       z     vdW  Elec       q    Type
                         _______ _______ _______ _____ _____    ______ ____

>  <TORSDO>
F 3

$$$$
=
 OpenBabel11062413183D

 30 37  0  0  1  0  0  0  0  0999 V2000
  182.8490  176.7280  139.2870 C   0  0  1  0  0  3  0  0  0  0  0  0
  184.6030  178.9690  138.8690 C   0  0  0  0  0  3  0  0  0  0  0  0
  183.0530  177.3340  136.8440 N   0  0  0  0  0  2  0  0  0  0  0  0
  183.8120  176.7850  137.9710 C   0  0  2  0  0  0  0  0  0  0  0  0
  184.1560  175.3220  137.5420 C   0  0  1  0  0  3  0  0  0  0  0  0
  184.7270  173.8140  134.9290 C   0  0  0  0  0  2  0  0  0  0  0  0
  182.9610  174.8950  136.6620 C   0  0  1  0  0  3  0  0  0  0  0  0
  185.0750  177.6540  138.3310 C   0  0  1  0  0  3  0  0  0  0  0  0
  182.2440  176.2020  136.3440 C   0  0  0  0  0  2  0  0  0  0  0  0
  183.2830  177.6640  140.4470 C   0  0  0  0  0  2  0  0  0  0  0  0
  185.4890  175.1580  136.7660 C   0  0  0  0  0  2  0  0  0  0  0  0
  185.6090  173.7840  136.1430 C   0  0  0  0  0  2  0  0  0  0  0  0
  183.2520  174.0480  135.3690 C   0  0  2  0  0  3  0  0  0  0  0  0
  183.7200  178.9810  139.8830 C   0  0  0  0  0  3  0  0  0  0  0  0
  190.1460  176.7740  138.4590 C   0  0  1  0  0  3  0  0  0  0  0  0
  189.4060  176.0810  137.3630 C   0  0  2  0  0  3  0  0  0  0  0  0
  188.0130  178.1330  139.0930 C   0  0  0  0  0  2  0  0  0  0  0  0
  186.0760  177.8720  137.1620 C   0  0  2  0  0  3  0  0  0  0  0  0
  187.4750  177.8050  137.6940 C   0  0  1  0  0  0  0  0  0  0  0  0
  186.9480  179.0000  137.1720 O   0  0  0  0  0  0  0  0  0  0  0  0
  188.3610  177.0040  136.7150 C   0  0  0  0  0  2  0  0  0  0  0  0
  189.5760  178.1400  138.9580 C   0  0  0  0  0  2  0  0  0  0  0  0
  189.2040  175.7480  138.7310 O   0  0  0  0  0  0  0  0  0  0  0  0
  180.5620  175.4690  139.4710 C   0  0  1  0  0  3  0  0  0  0  0  0
  180.4850  176.6890  140.3750 C   0  0  2  0  0  3  0  0  0  0  0  0
  179.0880  175.7070  139.2600 C   0  0  0  0  0  2  0  0  0  0  0  0
  179.0670  176.9180  140.0930 N   0  0  0  0  0  2  0  0  0  0  0  0
  181.3050  176.7400  139.0650 C   0  0  1  0  0  3  0  0  0  0  0  0
  182.4490  172.8640  135.2280 O   0  0  0  0  0  0  0  0  0  0  0  0
  182.1930  172.4430  136.5160 N   0  0  0  0  0  1  0  0  0  0  0  0
  1 10  1  1  0  0  0
  2 14  2  0  0  0  0
  4  3  1  6  0  0  0
  4  8  1  0  0  0  0
  4  1  1  0  0  0  0
  5 11  1  6  0  0  0
  5  4  1  0  0  0  0
  6 13  1  0  0  0  0
  6 12  1  0  0  0  0
  7  9  1  6  0  0  0
  7  5  1  0  0  0  0
  8  2  1  6  0  0  0
  9  3  1  0  0  0  0
 12 11  1  0  0  0  0
 13 29  1  1  0  0  0
 13  7  1  0  0  0  0
 14 10  1  0  0  0  0
 15 23  1  0  0  0  0
 15 22  1  1  0  0  0
 16 21  1  1  0  0  0
 16 15  1  0  0  0  0
 16 23  1  0  0  0  0
 18 20  1  1  0  0  0
 18 19  1  0  0  0  0
 18  8  1  0  0  0  0
 19 21  1  6  0  0  0
 19 17  1  0  0  0  0
 20 19  1  0  0  0  0
 22 17  1  0  0  0  0
 24 26  1  6  0  0  0
 24 25  1  0  0  0  0
 25 27  1  6  0  0  0
 26 27  1  0  0  0  0
 28  1  1  1  0  0  0
 28 24  1  0  0  0  0
 28 25  1  0  0  0  0
 29 30  1  0  0  0  0
M  END
>  <MODEL>
8

>  <REMARK>
 VINA RESULT:      -5.3      4.267      6.896
  Name = 
  3 active torsions:
  status: ('A' for Active; 'I' for Inactive)
    1  A    between atoms: C_2  and  C_16
    2  A    between atoms: O_14  and  C_25
    3  A    between atoms: C_17  and  C_18
                            x       y       z     vdW  Elec       q    Type
                         _______ _______ _______ _____ _____    ______ ____

>  <TORSDO>
F 3

$$$$
=
 OpenBabel11062413183D

 30 37  0  0  1  0  0  0  0  0999 V2000
  186.9160  177.5780  138.0590 C   0  0  1  0  0  3  0  0  0  0  0  0
  189.3510  178.2450  136.6790 C   0  0  0  0  0  3  0  0  0  0  0  0
  186.6300  177.5340  135.5500 N   0  0  0  0  0  2  0  0  0  0  0  0
  187.2960  176.8380  136.6550 C   0  0  2  0  0  0  0  0  0  0  0  0
  186.6640  175.4080  136.6610 C   0  0  1  0  0  3  0  0  0  0  0  0
  185.5050  173.4480  134.6000 C   0  0  0  0  0  2  0  0  0  0  0  0
  185.2190  175.6300  136.1650 C   0  0  1  0  0  3  0  0  0  0  0  0
  188.8640  176.8390  136.5150 C   0  0  1  0  0  3  0  0  0  0  0  0
  185.2380  177.0340  135.5700 C   0  0  0  0  0  2  0  0  0  0  0  0
  188.1150  178.2530  138.7790 C   0  0  0  0  0  2  0  0  0  0  0  0
  187.3900  174.3640  135.7720 C   0  0  0  0  0  2  0  0  0  0  0  0
  186.5670  173.1040  135.6030 C   0  0  0  0  0  2  0  0  0  0  0  0
  184.5990  174.5760  135.1750 C   0  0  2  0  0  3  0  0  0  0  0  0
  188.9760  178.9430  137.7660 C   0  0  0  0  0  3  0  0  0  0  0  0
  192.9190  173.7010  136.0400 C   0  0  1  0  0  3  0  0  0  0  0  0
  191.6420  173.1850  135.4630 C   0  0  2  0  0  3  0  0  0  0  0  0
  191.8290  176.0310  136.4690 C   0  0  0  0  0  2  0  0  0  0  0  0
  189.4040  176.2270  135.1920 C   0  0  2  0  0  3  0  0  0  0  0  0
  190.7600  175.6410  135.4380 C   0  0  1  0  0  0  0  0  0  0  0  0
  190.5870  176.7530  134.5940 O   0  0  0  0  0  0  0  0  0  0  0  0
  190.8770  174.2850  134.7090 C   0  0  0  0  0  2  0  0  0  0  0  0
  193.1240  175.2500  136.0550 C   0  0  0  0  0  2  0  0  0  0  0  0
  191.8110  173.3700  136.8630 O   0  0  0  0  0  0  0  0  0  0  0  0
  184.4450  177.8840  138.8640 C   0  0  1  0  0  3  0  0  0  0  0  0
  185.2730  178.9840  139.5070 C   0  0  2  0  0  3  0  0  0  0  0  0
  183.3410  178.9120  138.8550 C   0  0  0  0  0  2  0  0  0  0  0  0
  184.1930  179.9680  139.4220 N   0  0  0  0  0  2  0  0  0  0  0  0
  185.6320  178.4620  138.0960 C   0  0  1  0  0  3  0  0  0  0  0  0
  183.2970  174.0920  135.5470 O   0  0  0  0  0  0  0  0  0  0  0  0
  183.1580  174.4100  136.8810 N   0  0  0  0  0  1  0  0  0  0  0  0
  1 10  1  6  0  0  0
  2 14  2  0  0  0  0
  3  9  1  0  0  0  0
  4  3  1  6  0  0  0
  4  5  1  0  0  0  0
  4  1  1  0  0  0  0
  5 11  1  6  0  0  0
  6 13  1  0  0  0  0
  6 12  1  0  0  0  0
  7  9  1  6  0  0  0
  7  5  1  0  0  0  0
  8  4  1  0  0  0  0
  8  2  1  6  0  0  0
 12 11  1  0  0  0  0
 13 29  1  1  0  0  0
 13  7  1  0  0  0  0
 14 10  1  0  0  0  0
 15 22  1  6  0  0  0
 15 23  1  0  0  0  0
 16 21  1  6  0  0  0
 16 15  1  0  0  0  0
 16 23  1  0  0  0  0
 18 20  1  6  0  0  0
 18 19  1  0  0  0  0
 18  8  1  0  0  0  0
 19 21  1  6  0  0  0
 19 17  1  0  0  0  0
 20 19  1  0  0  0  0
 22 17  1  0  0  0  0
 24 26  1  6  0  0  0
 24 25  1  0  0  0  0
 25 27  1  6  0  0  0
 26 27  1  0  0  0  0
 28  1  1  1  0  0  0
 28 24  1  0  0  0  0
 28 25  1  0  0  0  0
 29 30  1  0  0  0  0
M  END
>  <MODEL>
9

>  <REMARK>
 VINA RESULT:      -5.2      4.408      7.391
  Name = 
  3 active torsions:
  status: ('A' for Active; 'I' for Inactive)
    1  A    between atoms: C_2  and  C_16
    2  A    between atoms: O_14  and  C_25
    3  A    between atoms: C_17  and  C_18
                            x       y       z     vdW  Elec       q    Type
                         _______ _______ _______ _____ _____    ______ ____

>  <TORSDO>
F 3

$$$$
