=
 OpenBabel11062417233D

 45 48  0  0  1  0  0  0  0  0999 V2000
  182.2180  176.8040  139.9890 N   0  0  0  0  0  0  0  0  0  0  0  0
  181.6180  177.9990  137.9130 C   0  0  0  0  0  2  0  0  0  0  0  0
  183.7250  177.6100  141.5970 N   0  0  0  0  0  2  0  0  0  0  0  0
  181.2670  176.8660  138.8760 C   0  0  1  0  0  3  0  0  0  0  0  0
  181.7880  179.2940  138.6970 C   0  0  1  0  0  3  0  0  0  0  0  0
  182.9000  177.8140  140.4450 C   0  0  0  0  0  0  0  0  0  0  0  0
  184.2440  179.3900  139.0710 C   0  0  0  0  0  1  0  0  0  0  0  0
  180.5890  179.6470  139.3200 O   0  0  0  0  0  1  0  0  0  0  0  0
  182.8990  179.1550  139.7380 C   0  0  1  0  0  3  0  0  0  0  0  0
  181.8440  175.6180  136.7630 C   0  0  1  0  0  3  0  0  0  0  0  0
  179.5280  174.9660  136.5150 N   0  0  0  0  0  2  0  0  0  0  0  0
  180.7300  175.2860  135.8500 C   0  0  0  0  0  0  0  0  0  0  0  0
  181.2000  175.5200  138.1520 C   0  0  2  0  0  3  0  0  0  0  0  0
  179.5050  173.7400  138.6050 C   0  0  0  0  0  1  0  0  0  0  0  0
  180.8250  175.2970  134.5940 O   0  0  0  0  0  0  0  0  0  0  0  0
  179.7370  175.0850  137.9450 C   0  0  2  0  0  3  0  0  0  0  0  0
  182.9530  174.5830  136.6560 C   0  0  0  0  0  2  0  0  0  0  0  0
  186.1580  175.2250  136.9970 N   0  0  0  0  0  0  0  0  0  0  0  0
  186.6280  177.5560  136.7870 C   0  0  0  0  0  2  0  0  0  0  0  0
  188.2400  176.8830  137.3200 S   0  0  0  0  0  0  0  0  0  0  0  0
  185.3700  174.3280  136.1730 C   0  0  0  0  0  2  0  0  0  0  0  0
  185.5610  176.5270  137.1510 C   0  0  1  0  0  3  0  0  0  0  0  0
  184.4070  176.5610  136.1680 C   0  0  0  0  0  2  0  0  0  0  0  0
  188.4780  174.1530  136.2070 S   0  0  0  0  0  0  0  0  0  0  0  0
  184.1120  175.1020  135.8170 C   0  0  2  0  0  3  0  0  0  0  0  0
  187.5810  175.2540  137.0200 C   0  0  0  0  0  0  0  0  0  0  0  0
  184.4240  178.6900  142.2880 C   0  0  1  0  0  3  0  0  0  0  0  0
  182.3600  179.3520  143.3100 O   0  0  0  0  0  0  0  0  0  0  0  0
  183.6120  179.2390  143.4230 C   0  0  0  0  0  0  0  0  0  0  0  0
  184.2510  179.5600  144.6210 O   0  0  0  0  0  0  0  0  0  0  0  0
  184.0870  178.7720  145.7900 C   0  0  0  0  0  2  0  0  0  0  0  0
  186.1580  177.4500  146.2210 O   0  0  0  0  0  0  0  0  0  0  0  0
  185.8190  179.4610  147.2720 O   0  0  0  0  0  1  0  0  0  0  0  0
  185.4050  178.5940  146.4570 C   0  0  0  0  0  0  0  0  0  0  0  0
  185.8010  178.2280  142.7590 C   0  0  0  0  0  2  0  0  0  0  0  0
  186.8990  178.5490  141.7440 C   0  0  0  0  0  2  0  0  0  0  0  0
  188.8110  177.3660  140.8960 O   0  0  0  0  0  1  0  0  0  0  0  0
  188.2090  177.8290  142.0660 C   0  0  2  0  0  3  0  0  0  0  0  0
  188.0000  176.6700  143.0310 C   0  0  0  0  0  2  0  0  0  0  0  0
  189.1240  176.5730  143.9480 N   0  0  0  0  0  2  0  0  0  0  0  0
  189.2220  177.8590  144.6180 C   0  0  0  0  0  2  0  0  0  0  0  0
  190.2140  177.7720  145.7700 C   0  0  2  0  0  3  0  0  0  0  0  0
  191.4130  177.1950  145.3410 O   0  0  0  0  0  1  0  0  0  0  0  0
  189.0820  177.8920  148.0270 C   0  0  0  0  0  1  0  0  0  0  0  0
  189.6280  176.9810  146.9370 C   0  0  0  0  0  2  0  0  0  0  0  0
  1  6  2  0  0  0  0
  2  5  1  0  0  0  0
  3 27  1  0  0  0  0
  4  2  1  6  0  0  0
  4  1  1  0  0  0  0
  5  8  1  1  0  0  0
  5  9  1  0  0  0  0
  6  3  1  0  0  0  0
  9  7  1  6  0  0  0
  9  6  1  0  0  0  0
 10 17  1  1  0  0  0
 10 13  1  0  0  0  0
 11 16  1  0  0  0  0
 12 11  1  0  0  0  0
 12 10  1  0  0  0  0
 13  4  1  6  0  0  0
 15 12  2  0  0  0  0
 16 13  1  0  0  0  0
 16 14  1  1  0  0  0
 18 26  1  0  0  0  0
 18 22  1  0  0  0  0
 19 22  1  0  0  0  0
 19 20  1  0  0  0  0
 21 18  1  0  0  0  0
 22 23  1  6  0  0  0
 24 26  2  0  0  0  0
 25 23  1  0  0  0  0
 25 21  1  0  0  0  0
 25 17  1  1  0  0  0
 26 20  1  0  0  0  0
 27 35  1  1  0  0  0
 27 29  1  0  0  0  0
 28 29  2  0  0  0  0
 29 30  1  0  0  0  0
 30 31  1  0  0  0  0
 31 34  1  0  0  0  0
 32 34  2  0  0  0  0
 34 33  1  0  0  0  0
 36 38  1  0  0  0  0
 36 35  1  0  0  0  0
 38 37  1  6  0  0  0
 38 39  1  0  0  0  0
 39 40  1  0  0  0  0
 40 41  1  0  0  0  0
 41 42  1  0  0  0  0
 42 43  1  6  0  0  0
 42 45  1  0  0  0  0
 45 44  1  0  0  0  0
M  END
>  <MODEL>
1

>  <REMARK>
 VINA RESULT:      -6.6      0.000      0.000
  Name = 
  16 active torsions:
  status: ('A' for Active; 'I' for Inactive)
    1  A    between atoms: C_1  and  C_9
    2  A    between atoms: C_2  and  C_19
    3  A    between atoms: C_2  and  C_38
    4  A    between atoms: C_6  and  C_28
    5  A    between atoms: C_6  and  N_41
    6  A    between atoms: C_9  and  C_32
    7  A    between atoms: N_12  and  C_43
    8  A    between atoms: C_14  and  C_37
    9  A    between atoms: C_15  and  C_28
   10  A    between atoms: C_15  and  C_35
   11  A    between atoms: O_17  and  C_39
   12  A    between atoms: O_17  and  C_40
   13  A    between atoms: C_34  and  C_40
   14  A    between atoms: C_35  and  C_43
   15  A    between atoms: C_38  and  N_41
   16  A    between atoms: C_39  and  C_43
                            x       y       z     vdW  Elec       q    Type
                         _______ _______ _______ _____ _____    ______ ____

>  <TORSDO>
F 16

$$$$
=
 OpenBabel11062417233D

 45 48  0  0  1  0  0  0  0  0999 V2000
  187.4670  175.6640  137.0580 N   0  0  0  0  0  0  0  0  0  0  0  0
  188.7010  177.8020  137.1440 C   0  0  0  0  0  2  0  0  0  0  0  0
  185.1490  175.4570  137.3530 N   0  0  0  0  0  2  0  0  0  0  0  0
  188.7360  176.3270  136.7470 C   0  0  1  0  0  3  0  0  0  0  0  0
  187.4620  178.4560  136.5470 C   0  0  1  0  0  3  0  0  0  0  0  0
  186.3120  176.2590  137.1240 C   0  0  0  0  0  0  0  0  0  0  0  0
  185.8210  178.3280  138.4110 C   0  0  0  0  0  1  0  0  0  0  0  0
  187.5120  178.4120  135.1520 O   0  0  0  0  0  1  0  0  0  0  0  0
  186.1910  177.7680  137.0480 C   0  0  1  0  0  3  0  0  0  0  0  0
  190.8070  176.5880  138.1620 C   0  0  1  0  0  3  0  0  0  0  0  0
  192.1060  175.4450  136.4720 N   0  0  0  0  0  2  0  0  0  0  0  0
  192.1110  176.4270  137.4860 C   0  0  0  0  0  0  0  0  0  0  0  0
  189.9010  175.5980  137.4190 C   0  0  2  0  0  3  0  0  0  0  0  0
  190.8250  173.3980  136.6750 C   0  0  0  0  0  1  0  0  0  0  0  0
  193.1360  177.1020  137.7660 O   0  0  0  0  0  0  0  0  0  0  0  0
  190.7730  174.8820  136.3700 C   0  0  2  0  0  3  0  0  0  0  0  0
  190.9040  176.1730  139.6220 C   0  0  0  0  0  2  0  0  0  0  0  0
  190.0930  176.7020  142.7630 N   0  0  0  0  0  0  0  0  0  0  0  0
  187.9100  177.6440  142.9740 C   0  0  0  0  0  2  0  0  0  0  0  0
  188.3500  177.2930  144.7130 S   0  0  0  0  0  0  0  0  0  0  0  0
  191.2140  177.0610  141.9140 C   0  0  0  0  0  2  0  0  0  0  0  0
  188.8210  176.7940  142.0920 C   0  0  1  0  0  3  0  0  0  0  0  0
  189.1080  177.4840  140.7740 C   0  0  0  0  0  2  0  0  0  0  0  0
  191.2780  177.6290  144.9750 S   0  0  0  0  0  0  0  0  0  0  0  0
  190.6150  177.3460  140.5480 C   0  0  2  0  0  3  0  0  0  0  0  0
  190.0160  176.9850  144.1560 C   0  0  0  0  0  0  0  0  0  0  0  0
  183.7860  175.9810  137.3060 C   0  0  1  0  0  3  0  0  0  0  0  0
  183.2440  175.9430  134.9720 O   0  0  0  0  0  0  0  0  0  0  0  0
  183.0330  175.4600  136.1190 C   0  0  0  0  0  0  0  0  0  0  0  0
  182.1480  174.3950  136.2910 O   0  0  0  0  0  0  0  0  0  0  0  0
  182.2940  173.1780  135.5760 C   0  0  0  0  0  2  0  0  0  0  0  0
  183.7250  172.0010  137.2460 O   0  0  0  0  0  1  0  0  0  0  0  0
  184.5320  172.4830  135.1530 O   0  0  0  0  0  0  0  0  0  0  0  0
  183.5720  172.5230  135.9670 C   0  0  0  0  0  0  0  0  0  0  0  0
  183.0480  175.6850  138.6100 C   0  0  0  0  0  2  0  0  0  0  0  0
  182.6710  176.9610  139.3650 C   0  0  0  0  0  2  0  0  0  0  0  0
  180.4400  177.4630  138.6310 O   0  0  0  0  0  1  0  0  0  0  0  0
  181.1840  177.0030  139.7170 C   0  0  2  0  0  3  0  0  0  0  0  0
  180.9100  177.8750  140.9350 C   0  0  0  0  0  2  0  0  0  0  0  0
  181.9400  178.8920  141.0640 N   0  0  0  0  0  2  0  0  0  0  0  0
  182.4310  178.8120  142.4290 C   0  0  0  0  0  2  0  0  0  0  0  0
  183.9440  178.9820  142.4490 C   0  0  2  0  0  3  0  0  0  0  0  0
  184.5750  177.7950  142.0660 O   0  0  0  0  0  1  0  0  0  0  0  0
  183.4910  178.9610  144.9360 C   0  0  0  0  0  1  0  0  0  0  0  0
  184.4270  179.4230  143.8290 C   0  0  0  0  0  2  0  0  0  0  0  0
  1  6  2  0  0  0  0
  4  1  1  0  0  0  0
  4  2  1  1  0  0  0
  5  8  1  6  0  0  0
  5  9  1  0  0  0  0
  5  2  1  0  0  0  0
  6  3  1  0  0  0  0
  9  6  1  0  0  0  0
  9  7  1  1  0  0  0
 10 17  1  1  0  0  0
 11 12  1  0  0  0  0
 12 15  2  0  0  0  0
 12 10  1  0  0  0  0
 13  4  1  6  0  0  0
 13 10  1  0  0  0  0
 16 11  1  0  0  0  0
 16 14  1  1  0  0  0
 16 13  1  0  0  0  0
 18 26  1  0  0  0  0
 19 20  1  0  0  0  0
 21 18  1  0  0  0  0
 22 23  1  6  0  0  0
 22 18  1  0  0  0  0
 22 19  1  0  0  0  0
 25 17  1  6  0  0  0
 25 23  1  0  0  0  0
 25 21  1  0  0  0  0
 26 20  1  0  0  0  0
 26 24  2  0  0  0  0
 27  3  1  0  0  0  0
 27 35  1  1  0  0  0
 28 29  2  0  0  0  0
 29 30  1  0  0  0  0
 29 27  1  0  0  0  0
 31 34  1  0  0  0  0
 31 30  1  0  0  0  0
 33 34  2  0  0  0  0
 34 32  1  0  0  0  0
 35 36  1  0  0  0  0
 36 38  1  0  0  0  0
 38 37  1  6  0  0  0
 38 39  1  0  0  0  0
 39 40  1  0  0  0  0
 40 41  1  0  0  0  0
 41 42  1  0  0  0  0
 42 43  1  1  0  0  0
 42 45  1  0  0  0  0
 45 44  1  0  0  0  0
M  END
>  <MODEL>
2

>  <REMARK>
 VINA RESULT:      -6.0      3.197      8.487
  Name = 
  16 active torsions:
  status: ('A' for Active; 'I' for Inactive)
    1  A    between atoms: C_1  and  C_9
    2  A    between atoms: C_2  and  C_19
    3  A    between atoms: C_2  and  C_38
    4  A    between atoms: C_6  and  C_28
    5  A    between atoms: C_6  and  N_41
    6  A    between atoms: C_9  and  C_32
    7  A    between atoms: N_12  and  C_43
    8  A    between atoms: C_14  and  C_37
    9  A    between atoms: C_15  and  C_28
   10  A    between atoms: C_15  and  C_35
   11  A    between atoms: O_17  and  C_39
   12  A    between atoms: O_17  and  C_40
   13  A    between atoms: C_34  and  C_40
   14  A    between atoms: C_35  and  C_43
   15  A    between atoms: C_38  and  N_41
   16  A    between atoms: C_39  and  C_43
                            x       y       z     vdW  Elec       q    Type
                         _______ _______ _______ _____ _____    ______ ____

>  <TORSDO>
F 16

$$$$
=
 OpenBabel11062417233D

 45 48  0  0  1  0  0  0  0  0999 V2000
  186.4210  175.9760  137.3490 N   0  0  0  0  0  0  0  0  0  0  0  0
  187.1580  174.5180  135.4970 C   0  0  0  0  0  2  0  0  0  0  0  0
  184.2100  176.6880  137.6790 N   0  0  0  0  0  2  0  0  0  0  0  0
  187.5090  175.1290  136.8530 C   0  0  1  0  0  3  0  0  0  0  0  0
  185.7960  173.8420  135.5860 C   0  0  1  0  0  3  0  0  0  0  0  0
  185.1650  175.8330  137.0430 C   0  0  0  0  0  0  0  0  0  0  0  0
  184.2550  175.6010  134.7410 C   0  0  0  0  0  1  0  0  0  0  0  0
  185.8310  172.7940  136.5080 O   0  0  0  0  0  1  0  0  0  0  0  0
  184.7160  174.8500  135.9790 C   0  0  1  0  0  3  0  0  0  0  0  0
  188.8140  177.0630  137.8090 C   0  0  1  0  0  3  0  0  0  0  0  0
  189.0640  177.9930  135.5910 N   0  0  0  0  0  2  0  0  0  0  0  0
  188.9440  178.2710  136.9690 C   0  0  0  0  0  0  0  0  0  0  0  0
  188.8170  175.9210  136.7850 C   0  0  2  0  0  3  0  0  0  0  0  0
  190.2900  176.0700  134.7710 C   0  0  0  0  0  1  0  0  0  0  0  0
  188.9370  179.4460  137.4210 O   0  0  0  0  0  0  0  0  0  0  0  0
  188.9960  176.5570  135.3940 C   0  0  2  0  0  3  0  0  0  0  0  0
  190.0210  176.9120  138.7230 C   0  0  0  0  0  2  0  0  0  0  0  0
  190.0270  176.8160  142.0080 N   0  0  0  0  0  0  0  0  0  0  0  0
  187.9460  177.5400  142.9250 C   0  0  0  0  0  2  0  0  0  0  0  0
  188.8260  176.9220  144.4030 S   0  0  0  0  0  0  0  0  0  0  0  0
  190.8840  177.4010  140.9930 C   0  0  0  0  0  2  0  0  0  0  0  0
  188.6240  176.9290  141.7020 C   0  0  1  0  0  3  0  0  0  0  0  0
  188.5450  177.8610  140.5080 C   0  0  0  0  0  2  0  0  0  0  0  0
  191.7130  177.4240  143.9940 S   0  0  0  0  0  0  0  0  0  0  0  0
  189.9470  177.8780  139.8960 C   0  0  2  0  0  3  0  0  0  0  0  0
  190.3010  176.8420  143.4050 C   0  0  0  0  0  0  0  0  0  0  0  0
  182.7650  176.5340  137.5310 C   0  0  1  0  0  3  0  0  0  0  0  0
  182.1840  175.4760  139.6010 O   0  0  0  0  0  0  0  0  0  0  0  0
  182.2440  175.3870  138.3430 C   0  0  0  0  0  0  0  0  0  0  0  0
  181.7680  174.2510  137.6870 O   0  0  0  0  0  0  0  0  0  0  0  0
  180.4450  174.1800  137.1790 C   0  0  0  0  0  2  0  0  0  0  0  0
  178.9870  175.9420  138.1740 O   0  0  0  0  0  0  0  0  0  0  0  0
  179.1700  173.8820  139.1670 O   0  0  0  0  0  1  0  0  0  0  0  0
  179.4890  174.6470  138.2190 C   0  0  0  0  0  0  0  0  0  0  0  0
  182.0440  177.8350  137.8750 C   0  0  0  0  0  2  0  0  0  0  0  0
  182.9620  179.0540  137.7650 C   0  0  0  0  0  2  0  0  0  0  0  0
  184.6000  179.8150  139.3490 O   0  0  0  0  0  1  0  0  0  0  0  0
  183.2280  179.6980  139.1260 C   0  0  2  0  0  3  0  0  0  0  0  0
  182.5870  178.9150  140.2630 C   0  0  0  0  0  2  0  0  0  0  0  0
  183.6110  178.4010  141.1560 N   0  0  0  0  0  2  0  0  0  0  0  0
  183.1640  178.6920  142.5080 C   0  0  0  0  0  2  0  0  0  0  0  0
  184.2920  179.3410  143.3000 C   0  0  2  0  0  3  0  0  0  0  0  0
  185.3140  179.7610  142.4430 O   0  0  0  0  0  1  0  0  0  0  0  0
  185.3220  179.1190  145.5980 C   0  0  0  0  0  1  0  0  0  0  0  0
  184.8390  178.3840  144.3560 C   0  0  0  0  0  2  0  0  0  0  0  0
  2  5  1  0  0  0  0
  4  2  1  6  0  0  0
  4  1  1  0  0  0  0
  5  9  1  0  0  0  0
  5  8  1  1  0  0  0
  6  1  2  0  0  0  0
  6  3  1  0  0  0  0
  9  7  1  6  0  0  0
  9  6  1  0  0  0  0
 10 17  1  1  0  0  0
 11 12  1  0  0  0  0
 12 15  2  0  0  0  0
 12 10  1  0  0  0  0
 13  4  1  6  0  0  0
 13 10  1  0  0  0  0
 16 14  1  1  0  0  0
 16 11  1  0  0  0  0
 16 13  1  0  0  0  0
 18 26  1  0  0  0  0
 19 20  1  0  0  0  0
 21 18  1  0  0  0  0
 22 23  1  6  0  0  0
 22 18  1  0  0  0  0
 22 19  1  0  0  0  0
 25 17  1  6  0  0  0
 25 23  1  0  0  0  0
 25 21  1  0  0  0  0
 26 24  2  0  0  0  0
 26 20  1  0  0  0  0
 27  3  1  0  0  0  0
 27 35  1  1  0  0  0
 27 29  1  0  0  0  0
 29 28  2  0  0  0  0
 30 29  1  0  0  0  0
 31 30  1  0  0  0  0
 31 34  1  0  0  0  0
 32 34  2  0  0  0  0
 34 33  1  0  0  0  0
 36 35  1  0  0  0  0
 36 38  1  0  0  0  0
 38 37  1  1  0  0  0
 38 39  1  0  0  0  0
 39 40  1  0  0  0  0
 40 41  1  0  0  0  0
 41 42  1  0  0  0  0
 42 43  1  6  0  0  0
 42 45  1  0  0  0  0
 45 44  1  0  0  0  0
M  END
>  <MODEL>
3

>  <REMARK>
 VINA RESULT:      -6.0      3.003      7.554
  Name = 
  16 active torsions:
  status: ('A' for Active; 'I' for Inactive)
    1  A    between atoms: C_1  and  C_9
    2  A    between atoms: C_2  and  C_19
    3  A    between atoms: C_2  and  C_38
    4  A    between atoms: C_6  and  C_28
    5  A    between atoms: C_6  and  N_41
    6  A    between atoms: C_9  and  C_32
    7  A    between atoms: N_12  and  C_43
    8  A    between atoms: C_14  and  C_37
    9  A    between atoms: C_15  and  C_28
   10  A    between atoms: C_15  and  C_35
   11  A    between atoms: O_17  and  C_39
   12  A    between atoms: O_17  and  C_40
   13  A    between atoms: C_34  and  C_40
   14  A    between atoms: C_35  and  C_43
   15  A    between atoms: C_38  and  N_41
   16  A    between atoms: C_39  and  C_43
                            x       y       z     vdW  Elec       q    Type
                         _______ _______ _______ _____ _____    ______ ____

>  <TORSDO>
F 16

$$$$
=
 OpenBabel11062417233D

 45 48  0  0  1  0  0  0  0  0999 V2000
  188.4480  177.2580  144.2770 N   0  0  0  0  0  0  0  0  0  0  0  0
  189.9620  177.8030  146.1510 C   0  0  0  0  0  2  0  0  0  0  0  0
  188.8350  177.8530  142.0410 N   0  0  0  0  0  2  0  0  0  0  0  0
  188.7770  176.9640  145.6750 C   0  0  1  0  0  3  0  0  0  0  0  0
  191.1140  177.6540  145.1650 C   0  0  1  0  0  3  0  0  0  0  0  0
  189.2910  177.6970  143.3890 C   0  0  0  0  0  0  0  0  0  0  0  0
  190.8260  179.6300  143.6830 C   0  0  0  0  0  1  0  0  0  0  0  0
  191.5480  176.3280  145.1190 O   0  0  0  0  0  1  0  0  0  0  0  0
  190.6960  178.1180  143.7700 C   0  0  1  0  0  3  0  0  0  0  0  0
  186.8290  178.4730  146.2070 C   0  0  1  0  0  3  0  0  0  0  0  0
  187.5440  178.5840  148.5140 N   0  0  0  0  0  2  0  0  0  0  0  0
  186.9070  179.2620  147.4530 C   0  0  0  0  0  0  0  0  0  0  0  0
  187.5530  177.1700  146.5690 C   0  0  2  0  0  3  0  0  0  0  0  0
  187.2780  176.1990  148.8560 C   0  0  0  0  0  1  0  0  0  0  0  0
  186.4650  180.4350  147.5720 O   0  0  0  0  0  0  0  0  0  0  0  0
  187.9720  177.2790  148.0480 C   0  0  2  0  0  3  0  0  0  0  0  0
  185.3820  178.1570  145.8610 C   0  0  0  0  0  2  0  0  0  0  0  0
  183.2070  178.3430  143.4040 N   0  0  0  0  0  0  0  0  0  0  0  0
  184.2470  178.9220  141.3350 C   0  0  0  0  0  2  0  0  0  0  0  0
  182.5400  178.5280  140.8140 S   0  0  0  0  0  0  0  0  0  0  0  0
  183.3170  178.9260  144.7290 C   0  0  0  0  0  2  0  0  0  0  0  0
  184.4640  178.2830  142.7040 C   0  0  1  0  0  3  0  0  0  0  0  0
  185.4320  179.0960  143.5410 C   0  0  0  0  0  2  0  0  0  0  0  0
  180.7340  179.2910  143.0290 S   0  0  0  0  0  0  0  0  0  0  0  0
  184.7960  179.2070  144.9280 C   0  0  2  0  0  3  0  0  0  0  0  0
  182.0900  178.5170  142.5390 C   0  0  0  0  0  0  0  0  0  0  0  0
  189.7140  178.1990  140.9280 C   0  0  1  0  0  3  0  0  0  0  0  0
  190.5020  175.9450  141.1360 O   0  0  0  0  0  0  0  0  0  0  0  0
  190.6390  177.0710  140.5810 C   0  0  0  0  0  0  0  0  0  0  0  0
  191.6060  177.2660  139.5940 O   0  0  0  0  0  0  0  0  0  0  0  0
  192.0260  176.2120  138.7410 C   0  0  0  0  0  2  0  0  0  0  0  0
  190.6180  176.7990  136.7670 O   0  0  0  0  0  0  0  0  0  0  0  0
  190.2830  174.8290  137.8950 O   0  0  0  0  0  1  0  0  0  0  0  0
  190.9410  175.8960  137.7730 C   0  0  0  0  0  0  0  0  0  0  0  0
  188.9010  178.6480  139.7150 C   0  0  0  0  0  2  0  0  0  0  0  0
  187.9760  177.5460  139.1970 C   0  0  0  0  0  2  0  0  0  0  0  0
  186.2820  178.6630  137.9120 O   0  0  0  0  0  1  0  0  0  0  0  0
  187.4220  177.8650  137.8090 C   0  0  2  0  0  3  0  0  0  0  0  0
  187.0980  176.6040  137.0200 C   0  0  0  0  0  2  0  0  0  0  0  0
  185.7340  176.6620  136.5220 N   0  0  0  0  0  2  0  0  0  0  0  0
  185.3730  175.3050  136.1450 C   0  0  0  0  0  2  0  0  0  0  0  0
  184.2390  174.8030  137.0280 C   0  0  2  0  0  3  0  0  0  0  0  0
  183.9040  175.7640  137.9880 O   0  0  0  0  0  1  0  0  0  0  0  0
  186.0570  173.0920  137.4250 C   0  0  0  0  0  1  0  0  0  0  0  0
  184.6120  173.4840  137.7000 C   0  0  0  0  0  2  0  0  0  0  0  0
  1  4  1  0  0  0  0
  3  6  1  0  0  0  0
  4  2  1  1  0  0  0
  5  8  1  6  0  0  0
  5  2  1  0  0  0  0
  6  9  1  0  0  0  0
  6  1  2  0  0  0  0
  9  7  1  1  0  0  0
  9  5  1  0  0  0  0
 10 17  1  1  0  0  0
 10 13  1  0  0  0  0
 10 12  1  0  0  0  0
 12 15  2  0  0  0  0
 12 11  1  0  0  0  0
 13  4  1  6  0  0  0
 13 16  1  0  0  0  0
 16 11  1  0  0  0  0
 16 14  1  1  0  0  0
 18 21  1  0  0  0  0
 20 19  1  0  0  0  0
 20 26  1  0  0  0  0
 21 25  1  0  0  0  0
 22 19  1  6  0  0  0
 22 18  1  0  0  0  0
 22 23  1  0  0  0  0
 23 25  1  0  0  0  0
 25 17  1  1  0  0  0
 26 24  2  0  0  0  0
 26 18  1  0  0  0  0
 27 35  1  6  0  0  0
 27  3  1  0  0  0  0
 29 27  1  0  0  0  0
 29 28  2  0  0  0  0
 30 29  1  0  0  0  0
 31 30  1  0  0  0  0
 32 34  2  0  0  0  0
 34 33  1  0  0  0  0
 34 31  1  0  0  0  0
 36 35  1  0  0  0  0
 38 37  1  1  0  0  0
 38 36  1  0  0  0  0
 39 38  1  0  0  0  0
 40 39  1  0  0  0  0
 41 40  1  0  0  0  0
 41 42  1  0  0  0  0
 42 45  1  0  0  0  0
 42 43  1  1  0  0  0
 44 45  1  0  0  0  0
M  END
>  <MODEL>
4

>  <REMARK>
 VINA RESULT:      -5.9      3.262      9.732
  Name = 
  16 active torsions:
  status: ('A' for Active; 'I' for Inactive)
    1  A    between atoms: C_1  and  C_9
    2  A    between atoms: C_2  and  C_19
    3  A    between atoms: C_2  and  C_38
    4  A    between atoms: C_6  and  C_28
    5  A    between atoms: C_6  and  N_41
    6  A    between atoms: C_9  and  C_32
    7  A    between atoms: N_12  and  C_43
    8  A    between atoms: C_14  and  C_37
    9  A    between atoms: C_15  and  C_28
   10  A    between atoms: C_15  and  C_35
   11  A    between atoms: O_17  and  C_39
   12  A    between atoms: O_17  and  C_40
   13  A    between atoms: C_34  and  C_40
   14  A    between atoms: C_35  and  C_43
   15  A    between atoms: C_38  and  N_41
   16  A    between atoms: C_39  and  C_43
                            x       y       z     vdW  Elec       q    Type
                         _______ _______ _______ _____ _____    ______ ____

>  <TORSDO>
F 16

$$$$
=
 OpenBabel11062417233D

 45 48  0  0  1  0  0  0  0  0999 V2000
  186.3240  176.6940  137.7800 N   0  0  0  0  0  0  0  0  0  0  0  0
  187.3680  174.9860  136.3330 C   0  0  0  0  0  2  0  0  0  0  0  0
  184.0990  177.4130  137.5920 N   0  0  0  0  0  2  0  0  0  0  0  0
  187.4740  175.7990  137.6220 C   0  0  1  0  0  3  0  0  0  0  0  0
  186.0040  174.3110  136.2730 C   0  0  1  0  0  3  0  0  0  0  0  0
  185.1430  176.4870  137.2750 C   0  0  0  0  0  0  0  0  0  0  0  0
  184.6640  175.8990  134.9080 C   0  0  0  0  0  1  0  0  0  0  0  0
  185.8580  173.4130  137.3320 O   0  0  0  0  0  1  0  0  0  0  0  0
  184.8830  175.3490  136.3070 C   0  0  1  0  0  3  0  0  0  0  0  0
  188.5510  177.9800  138.2830 C   0  0  1  0  0  3  0  0  0  0  0  0
  189.4140  178.2350  136.0390 N   0  0  0  0  0  2  0  0  0  0  0  0
  188.9440  178.8970  137.1930 C   0  0  0  0  0  0  0  0  0  0  0  0
  188.7820  176.5910  137.6750 C   0  0  2  0  0  3  0  0  0  0  0  0
  190.7410  176.2110  136.1700 C   0  0  0  0  0  1  0  0  0  0  0  0
  188.8620  180.1510  137.2650 O   0  0  0  0  0  0  0  0  0  0  0  0
  189.3480  176.8030  136.2580 C   0  0  2  0  0  3  0  0  0  0  0  0
  189.4660  178.1530  139.4870 C   0  0  0  0  0  2  0  0  0  0  0  0
  189.3480  177.8540  142.7580 N   0  0  0  0  0  0  0  0  0  0  0  0
  191.1000  176.4620  143.5890 C   0  0  0  0  0  2  0  0  0  0  0  0
  190.3680  177.1240  145.1270 S   0  0  0  0  0  0  0  0  0  0  0  0
  188.4050  177.6620  141.6710 C   0  0  0  0  0  2  0  0  0  0  0  0
  190.6740  177.3820  142.4480 C   0  0  1  0  0  3  0  0  0  0  0  0
  190.5370  176.6160  141.1470 C   0  0  0  0  0  2  0  0  0  0  0  0
  187.4770  177.5190  144.6400 S   0  0  0  0  0  0  0  0  0  0  0  0
  189.2140  177.0730  140.5290 C   0  0  2  0  0  3  0  0  0  0  0  0
  189.0190  177.7400  144.1380 C   0  0  0  0  0  0  0  0  0  0  0  0
  182.7030  177.2160  137.2080 C   0  0  1  0  0  3  0  0  0  0  0  0
  182.5760  175.8230  139.1540 O   0  0  0  0  0  0  0  0  0  0  0  0
  182.0240  176.2090  138.0860 C   0  0  0  0  0  0  0  0  0  0  0  0
  180.7500  175.7550  137.7390 O   0  0  0  0  0  0  0  0  0  0  0  0
  180.1100  174.7090  138.4520 C   0  0  0  0  0  2  0  0  0  0  0  0
  180.3270  172.2460  138.1180 O   0  0  0  0  0  1  0  0  0  0  0  0
  179.7420  173.6130  136.3710 O   0  0  0  0  0  0  0  0  0  0  0  0
  180.0320  173.4980  137.5910 C   0  0  0  0  0  0  0  0  0  0  0  0
  181.9520  178.5460  137.1990 C   0  0  0  0  0  2  0  0  0  0  0  0
  181.9360  179.2120  138.5760 C   0  0  0  0  0  2  0  0  0  0  0  0
  180.6410  180.9400  139.6290 O   0  0  0  0  0  1  0  0  0  0  0  0
  180.5450  179.7260  138.9490 C   0  0  2  0  0  3  0  0  0  0  0  0
  179.7750  178.7220  139.7960 C   0  0  0  0  0  2  0  0  0  0  0  0
  180.6420  178.1570  140.8160 N   0  0  0  0  0  2  0  0  0  0  0  0
  179.9140  178.2420  142.0710 C   0  0  0  0  0  2  0  0  0  0  0  0
  180.6830  179.1060  143.0620 C   0  0  2  0  0  3  0  0  0  0  0  0
  180.3250  180.4500  142.9210 O   0  0  0  0  0  1  0  0  0  0  0  0
  182.9260  178.9290  144.2150 C   0  0  0  0  0  1  0  0  0  0  0  0
  182.1890  178.9320  142.8830 C   0  0  0  0  0  2  0  0  0  0  0  0
  4  2  1  6  0  0  0
  4  1  1  0  0  0  0
  5  9  1  0  0  0  0
  5  2  1  0  0  0  0
  5  8  1  1  0  0  0
  6  3  1  0  0  0  0
  6  1  2  0  0  0  0
  9  7  1  6  0  0  0
  9  6  1  0  0  0  0
 10 17  1  1  0  0  0
 11 16  1  0  0  0  0
 11 12  1  0  0  0  0
 12 15  2  0  0  0  0
 12 10  1  0  0  0  0
 13  4  1  6  0  0  0
 13 10  1  0  0  0  0
 16 14  1  1  0  0  0
 16 13  1  0  0  0  0
 18 26  1  0  0  0  0
 19 20  1  0  0  0  0
 21 18  1  0  0  0  0
 22 23  1  6  0  0  0
 22 18  1  0  0  0  0
 22 19  1  0  0  0  0
 25 17  1  6  0  0  0
 25 23  1  0  0  0  0
 25 21  1  0  0  0  0
 26 24  2  0  0  0  0
 26 20  1  0  0  0  0
 27 35  1  1  0  0  0
 27  3  1  0  0  0  0
 27 29  1  0  0  0  0
 29 28  2  0  0  0  0
 30 29  1  0  0  0  0
 30 31  1  0  0  0  0
 33 34  2  0  0  0  0
 34 32  1  0  0  0  0
 34 31  1  0  0  0  0
 35 36  1  0  0  0  0
 36 38  1  0  0  0  0
 38 37  1  1  0  0  0
 38 39  1  0  0  0  0
 39 40  1  0  0  0  0
 40 41  1  0  0  0  0
 41 42  1  0  0  0  0
 42 43  1  6  0  0  0
 45 42  1  0  0  0  0
 45 44  1  0  0  0  0
M  END
>  <MODEL>
5

>  <REMARK>
 VINA RESULT:      -5.8      3.437      8.349
  Name = 
  16 active torsions:
  status: ('A' for Active; 'I' for Inactive)
    1  A    between atoms: C_1  and  C_9
    2  A    between atoms: C_2  and  C_19
    3  A    between atoms: C_2  and  C_38
    4  A    between atoms: C_6  and  C_28
    5  A    between atoms: C_6  and  N_41
    6  A    between atoms: C_9  and  C_32
    7  A    between atoms: N_12  and  C_43
    8  A    between atoms: C_14  and  C_37
    9  A    between atoms: C_15  and  C_28
   10  A    between atoms: C_15  and  C_35
   11  A    between atoms: O_17  and  C_39
   12  A    between atoms: O_17  and  C_40
   13  A    between atoms: C_34  and  C_40
   14  A    between atoms: C_35  and  C_43
   15  A    between atoms: C_38  and  N_41
   16  A    between atoms: C_39  and  C_43
                            x       y       z     vdW  Elec       q    Type
                         _______ _______ _______ _____ _____    ______ ____

>  <TORSDO>
F 16

$$$$
=
 OpenBabel11062417233D

 45 48  0  0  1  0  0  0  0  0999 V2000
  183.8980  177.9080  141.7710 N   0  0  0  0  0  0  0  0  0  0  0  0
  182.3830  179.2760  143.1610 C   0  0  0  0  0  2  0  0  0  0  0  0
  186.2360  177.9100  141.9580 N   0  0  0  0  0  2  0  0  0  0  0  0
  182.5070  178.1020  142.1910 C   0  0  1  0  0  3  0  0  0  0  0  0
  183.3870  179.1040  144.2930 C   0  0  1  0  0  3  0  0  0  0  0  0
  184.9420  178.2460  142.4690 C   0  0  0  0  0  0  0  0  0  0  0  0
  185.3200  180.4650  143.5230 C   0  0  0  0  0  1  0  0  0  0  0  0
  183.1080  177.9450  145.0200 O   0  0  0  0  0  1  0  0  0  0  0  0
  184.8150  179.0500  143.7480 C   0  0  1  0  0  3  0  0  0  0  0  0
  182.4180  178.7020  139.7440 C   0  0  1  0  0  3  0  0  0  0  0  0
  180.7880  180.4230  140.2250 N   0  0  0  0  0  2  0  0  0  0  0  0
  181.8550  180.0220  139.3930 C   0  0  0  0  0  0  0  0  0  0  0  0
  181.6000  178.2870  140.9740 C   0  0  2  0  0  3  0  0  0  0  0  0
  179.1640  178.8400  141.0820 C   0  0  0  0  0  1  0  0  0  0  0  0
  182.2830  180.7420  138.4520 O   0  0  0  0  0  0  0  0  0  0  0  0
  180.5660  179.4000  141.2290 C   0  0  2  0  0  3  0  0  0  0  0  0
  182.1750  177.7000  138.6250 C   0  0  0  0  0  2  0  0  0  0  0  0
  182.3500  174.6430  137.4300 N   0  0  0  0  0  0  0  0  0  0  0  0
  180.3810  173.3830  137.9150 C   0  0  0  0  0  2  0  0  0  0  0  0
  181.2900  172.2660  136.7900 S   0  0  0  0  0  0  0  0  0  0  0  0
  183.1930  175.4680  138.2760 C   0  0  0  0  0  2  0  0  0  0  0  0
  180.9450  174.7880  137.7160 C   0  0  1  0  0  3  0  0  0  0  0  0
  180.8730  175.5950  138.9970 C   0  0  0  0  0  2  0  0  0  0  0  0
  184.1800  172.7020  137.2440 S   0  0  0  0  0  0  0  0  0  0  0  0
  182.2380  176.2710  139.1440 C   0  0  2  0  0  3  0  0  0  0  0  0
  182.6990  173.3420  136.9710 C   0  0  0  0  0  0  0  0  0  0  0  0
  187.4740  178.1050  142.7080 C   0  0  1  0  0  3  0  0  0  0  0  0
  188.1400  175.8580  143.2090 O   0  0  0  0  0  0  0  0  0  0  0  0
  187.7360  176.9690  143.6510 C   0  0  0  0  0  0  0  0  0  0  0  0
  187.5880  177.1780  145.0230 O   0  0  0  0  0  0  0  0  0  0  0  0
  188.5390  177.9170  145.7730 C   0  0  0  0  0  2  0  0  0  0  0  0
  187.8500  177.6040  148.1500 O   0  0  0  0  0  1  0  0  0  0  0  0
  189.6750  176.4970  147.3100 O   0  0  0  0  0  0  0  0  0  0  0  0
  188.7140  177.2860  147.1090 C   0  0  0  0  0  0  0  0  0  0  0  0
  188.6520  178.3270  141.7610 C   0  0  0  0  0  2  0  0  0  0  0  0
  188.3420  177.8710  140.3340 C   0  0  0  0  0  2  0  0  0  0  0  0
  189.0420  179.3500  138.5750 O   0  0  0  0  0  1  0  0  0  0  0  0
  189.4460  178.2640  139.3530 C   0  0  2  0  0  3  0  0  0  0  0  0
  189.8470  177.1050  138.4500 C   0  0  0  0  0  2  0  0  0  0  0  0
  188.6820  176.2990  138.1240 N   0  0  0  0  0  2  0  0  0  0  0  0
  188.6180  176.2340  136.6740 C   0  0  0  0  0  2  0  0  0  0  0  0
  187.3680  176.9450  136.1750 C   0  0  2  0  0  3  0  0  0  0  0  0
  187.6580  178.2730  135.8480 O   0  0  0  0  0  1  0  0  0  0  0  0
  185.7520  178.2670  137.6010 C   0  0  0  0  0  1  0  0  0  0  0  0
  186.2520  176.8820  137.2150 C   0  0  0  0  0  2  0  0  0  0  0  0
  1  4  1  0  0  0  0
  1  6  2  0  0  0  0
  2  5  1  0  0  0  0
  3  6  1  0  0  0  0
  3 27  1  0  0  0  0
  4  2  1  1  0  0  0
  5  8  1  6  0  0  0
  6  9  1  0  0  0  0
  9  7  1  6  0  0  0
  9  5  1  0  0  0  0
 10 17  1  6  0  0  0
 10 13  1  0  0  0  0
 11 16  1  0  0  0  0
 12 10  1  0  0  0  0
 12 11  1  0  0  0  0
 13 16  1  0  0  0  0
 13  4  1  1  0  0  0
 15 12  2  0  0  0  0
 16 14  1  6  0  0  0
 18 22  1  0  0  0  0
 18 21  1  0  0  0  0
 20 26  1  0  0  0  0
 20 19  1  0  0  0  0
 21 25  1  0  0  0  0
 22 19  1  1  0  0  0
 22 23  1  0  0  0  0
 23 25  1  0  0  0  0
 25 17  1  6  0  0  0
 26 24  2  0  0  0  0
 26 18  1  0  0  0  0
 27 35  1  6  0  0  0
 27 29  1  0  0  0  0
 28 29  2  0  0  0  0
 29 30  1  0  0  0  0
 30 31  1  0  0  0  0
 31 34  1  0  0  0  0
 34 33  2  0  0  0  0
 34 32  1  0  0  0  0
 36 35  1  0  0  0  0
 38 37  1  6  0  0  0
 38 36  1  0  0  0  0
 39 38  1  0  0  0  0
 40 39  1  0  0  0  0
 41 40  1  0  0  0  0
 42 43  1  1  0  0  0
 42 41  1  0  0  0  0
 42 45  1  0  0  0  0
 45 44  1  0  0  0  0
M  END
>  <MODEL>
6

>  <REMARK>
 VINA RESULT:      -5.8      2.444      5.646
  Name = 
  16 active torsions:
  status: ('A' for Active; 'I' for Inactive)
    1  A    between atoms: C_1  and  C_9
    2  A    between atoms: C_2  and  C_19
    3  A    between atoms: C_2  and  C_38
    4  A    between atoms: C_6  and  C_28
    5  A    between atoms: C_6  and  N_41
    6  A    between atoms: C_9  and  C_32
    7  A    between atoms: N_12  and  C_43
    8  A    between atoms: C_14  and  C_37
    9  A    between atoms: C_15  and  C_28
   10  A    between atoms: C_15  and  C_35
   11  A    between atoms: O_17  and  C_39
   12  A    between atoms: O_17  and  C_40
   13  A    between atoms: C_34  and  C_40
   14  A    between atoms: C_35  and  C_43
   15  A    between atoms: C_38  and  N_41
   16  A    between atoms: C_39  and  C_43
                            x       y       z     vdW  Elec       q    Type
                         _______ _______ _______ _____ _____    ______ ____

>  <TORSDO>
F 16

$$$$
=
 OpenBabel11062417233D

 45 48  0  0  1  0  0  0  0  0999 V2000
  183.9960  177.9620  141.6230 N   0  0  0  0  0  0  0  0  0  0  0  0
  182.3520  179.4300  142.7390 C   0  0  0  0  0  2  0  0  0  0  0  0
  186.2770  177.8730  142.1620 N   0  0  0  0  0  2  0  0  0  0  0  0
  182.5680  178.2250  141.8230 C   0  0  1  0  0  3  0  0  0  0  0  0
  183.1670  179.2480  144.0130 C   0  0  1  0  0  3  0  0  0  0  0  0
  184.9370  178.2760  142.4630 C   0  0  0  0  0  0  0  0  0  0  0  0
  185.2530  180.5060  143.5160 C   0  0  0  0  0  1  0  0  0  0  0  0
  182.7300  178.1220  144.7140 O   0  0  0  0  0  1  0  0  0  0  0  0
  184.6560  179.1200  143.6910 C   0  0  1  0  0  3  0  0  0  0  0  0
  182.7660  179.1650  139.4930 C   0  0  1  0  0  3  0  0  0  0  0  0
  180.7390  180.4390  139.8330 N   0  0  0  0  0  2  0  0  0  0  0  0
  181.9940  180.3870  139.1900 C   0  0  0  0  0  0  0  0  0  0  0  0
  181.8630  178.4140  140.4790 C   0  0  2  0  0  3  0  0  0  0  0  0
  179.3840  178.4580  140.1630 C   0  0  0  0  0  1  0  0  0  0  0  0
  182.4070  181.3120  138.4410 O   0  0  0  0  0  0  0  0  0  0  0  0
  180.5810  179.2510  140.6500 C   0  0  2  0  0  3  0  0  0  0  0  0
  182.9450  178.3180  138.2410 C   0  0  0  0  0  2  0  0  0  0  0  0
  185.9850  178.0320  137.0250 N   0  0  0  0  0  0  0  0  0  0  0  0
  186.2270  176.0750  135.6810 C   0  0  0  0  0  2  0  0  0  0  0  0
  187.8130  176.9370  135.3980 S   0  0  0  0  0  0  0  0  0  0  0  0
  185.4180  178.2240  138.3470 C   0  0  0  0  0  2  0  0  0  0  0  0
  185.2360  177.1060  136.2150 C   0  0  1  0  0  3  0  0  0  0  0  0
  184.2330  176.4670  137.1550 C   0  0  0  0  0  2  0  0  0  0  0  0
  188.4930  178.3900  137.8840 S   0  0  0  0  0  0  0  0  0  0  0  0
  184.1470  177.3930  138.3690 C   0  0  2  0  0  3  0  0  0  0  0  0
  187.3790  178.0280  136.7400 C   0  0  0  0  0  0  0  0  0  0  0  0
  187.3960  178.0370  143.0860 C   0  0  1  0  0  3  0  0  0  0  0  0
  187.5620  175.6730  143.4400 O   0  0  0  0  0  0  0  0  0  0  0  0
  187.5820  176.8270  143.9510 C   0  0  0  0  0  0  0  0  0  0  0  0
  187.8400  176.9990  145.3120 O   0  0  0  0  0  0  0  0  0  0  0  0
  187.1790  177.9930  146.0790 C   0  0  0  0  0  2  0  0  0  0  0  0
  188.2810  176.7510  147.9390 O   0  0  0  0  0  0  0  0  0  0  0  0
  187.2700  178.7730  148.3260 O   0  0  0  0  0  1  0  0  0  0  0  0
  187.5890  177.8750  147.5040 C   0  0  0  0  0  0  0  0  0  0  0  0
  188.6760  178.3850  142.3300 C   0  0  0  0  0  2  0  0  0  0  0  0
  189.1940  177.2120  141.4960 C   0  0  0  0  0  2  0  0  0  0  0  0
  190.9480  176.6740  139.9440 O   0  0  0  0  0  1  0  0  0  0  0  0
  190.6630  177.3850  141.1100 C   0  0  2  0  0  3  0  0  0  0  0  0
  191.6020  176.9440  142.2240 C   0  0  0  0  0  2  0  0  0  0  0  0
  190.9260  176.0080  143.1070 N   0  0  0  0  0  2  0  0  0  0  0  0
  191.6760  175.9990  144.3520 C   0  0  0  0  0  2  0  0  0  0  0  0
  191.2050  177.1340  145.2510 C   0  0  2  0  0  3  0  0  0  0  0  0
  191.9610  178.2880  145.0200 O   0  0  0  0  0  1  0  0  0  0  0  0
  192.2990  175.6300  146.9630 C   0  0  0  0  0  1  0  0  0  0  0  0
  191.2790  176.7330  146.7220 C   0  0  0  0  0  2  0  0  0  0  0  0
  1  4  1  0  0  0  0
  1  6  2  0  0  0  0
  2  5  1  0  0  0  0
  3  6  1  0  0  0  0
  3 27  1  0  0  0  0
  4  2  1  1  0  0  0
  5  8  1  6  0  0  0
  6  9  1  0  0  0  0
  9  7  1  6  0  0  0
  9  5  1  0  0  0  0
 10 17  1  6  0  0  0
 10 13  1  0  0  0  0
 11 16  1  0  0  0  0
 12 10  1  0  0  0  0
 12 11  1  0  0  0  0
 13 16  1  0  0  0  0
 13  4  1  1  0  0  0
 15 12  2  0  0  0  0
 16 14  1  6  0  0  0
 18 21  1  0  0  0  0
 20 19  1  0  0  0  0
 20 26  1  0  0  0  0
 21 25  1  0  0  0  0
 22 19  1  1  0  0  0
 22 18  1  0  0  0  0
 22 23  1  0  0  0  0
 23 25  1  0  0  0  0
 25 17  1  6  0  0  0
 26 18  1  0  0  0  0
 26 24  2  0  0  0  0
 27 35  1  6  0  0  0
 27 29  1  0  0  0  0
 28 29  2  0  0  0  0
 29 30  1  0  0  0  0
 30 31  1  0  0  0  0
 31 34  1  0  0  0  0
 34 32  2  0  0  0  0
 34 33  1  0  0  0  0
 36 35  1  0  0  0  0
 38 37  1  6  0  0  0
 38 36  1  0  0  0  0
 38 39  1  0  0  0  0
 39 40  1  0  0  0  0
 40 41  1  0  0  0  0
 41 42  1  0  0  0  0
 42 43  1  1  0  0  0
 42 45  1  0  0  0  0
 45 44  1  0  0  0  0
M  END
>  <MODEL>
7

>  <REMARK>
 VINA RESULT:      -5.8      2.534      3.891
  Name = 
  16 active torsions:
  status: ('A' for Active; 'I' for Inactive)
    1  A    between atoms: C_1  and  C_9
    2  A    between atoms: C_2  and  C_19
    3  A    between atoms: C_2  and  C_38
    4  A    between atoms: C_6  and  C_28
    5  A    between atoms: C_6  and  N_41
    6  A    between atoms: C_9  and  C_32
    7  A    between atoms: N_12  and  C_43
    8  A    between atoms: C_14  and  C_37
    9  A    between atoms: C_15  and  C_28
   10  A    between atoms: C_15  and  C_35
   11  A    between atoms: O_17  and  C_39
   12  A    between atoms: O_17  and  C_40
   13  A    between atoms: C_34  and  C_40
   14  A    between atoms: C_35  and  C_43
   15  A    between atoms: C_38  and  N_41
   16  A    between atoms: C_39  and  C_43
                            x       y       z     vdW  Elec       q    Type
                         _______ _______ _______ _____ _____    ______ ____

>  <TORSDO>
F 16

$$$$
=
 OpenBabel11062417233D

 45 48  0  0  1  0  0  0  0  0999 V2000
  183.7680  177.9530  141.7010 N   0  0  0  0  0  0  0  0  0  0  0  0
  182.1720  179.3740  142.9400 C   0  0  0  0  0  2  0  0  0  0  0  0
  186.0820  177.9080  142.0870 N   0  0  0  0  0  2  0  0  0  0  0  0
  182.3520  178.1830  141.9990 C   0  0  1  0  0  3  0  0  0  0  0  0
  183.0720  179.1960  144.1560 C   0  0  1  0  0  3  0  0  0  0  0  0
  184.7570  178.2790  142.4810 C   0  0  0  0  0  0  0  0  0  0  0  0
  185.0940  180.5040  143.5360 C   0  0  0  0  0  1  0  0  0  0  0  0
  182.7070  178.0550  144.8710 O   0  0  0  0  0  1  0  0  0  0  0  0
  184.5390  179.1040  143.7350 C   0  0  1  0  0  3  0  0  0  0  0  0
  182.4390  178.9690  139.6050 C   0  0  1  0  0  3  0  0  0  0  0  0
  180.5830  180.4610  140.0270 N   0  0  0  0  0  2  0  0  0  0  0  0
  181.7660  180.2460  139.2890 C   0  0  0  0  0  0  0  0  0  0  0  0
  181.5550  178.3700  140.7070 C   0  0  2  0  0  3  0  0  0  0  0  0
  179.0740  178.6510  140.5890 C   0  0  0  0  0  1  0  0  0  0  0  0
  182.2020  181.0810  138.4530 O   0  0  0  0  0  0  0  0  0  0  0  0
  180.3800  179.3420  140.9270 C   0  0  2  0  0  3  0  0  0  0  0  0
  182.4250  178.0410  138.3990 C   0  0  0  0  0  2  0  0  0  0  0  0
  182.9440  175.0310  137.1870 N   0  0  0  0  0  0  0  0  0  0  0  0
  180.9000  173.8500  136.8270 C   0  0  0  0  0  2  0  0  0  0  0  0
  182.1310  172.7360  136.0640 S   0  0  0  0  0  0  0  0  0  0  0  0
  183.4310  175.7780  138.3320 C   0  0  0  0  0  2  0  0  0  0  0  0
  181.5400  175.2330  136.9330 C   0  0  1  0  0  3  0  0  0  0  0  0
  181.0160  175.9890  138.1370 C   0  0  0  0  0  2  0  0  0  0  0  0
  184.6500  173.0110  137.5920 S   0  0  0  0  0  0  0  0  0  0  0  0
  182.2440  176.5910  138.8220 C   0  0  2  0  0  3  0  0  0  0  0  0
  183.4010  173.7340  136.8200 C   0  0  0  0  0  0  0  0  0  0  0  0
  187.2560  178.0870  142.9370 C   0  0  1  0  0  3  0  0  0  0  0  0
  188.0170  175.8320  143.2210 O   0  0  0  0  0  0  0  0  0  0  0  0
  187.5340  176.8660  143.7610 C   0  0  0  0  0  0  0  0  0  0  0  0
  187.3140  176.9130  145.1390 O   0  0  0  0  0  0  0  0  0  0  0  0
  187.9340  177.8880  145.9630 C   0  0  0  0  0  2  0  0  0  0  0  0
  185.8720  178.7250  147.0890 O   0  0  0  0  0  0  0  0  0  0  0  0
  187.5560  177.7560  148.3090 O   0  0  0  0  0  1  0  0  0  0  0  0
  187.1100  178.1010  147.1830 C   0  0  0  0  0  0  0  0  0  0  0  0
  188.4710  178.4880  142.1040 C   0  0  0  0  0  2  0  0  0  0  0  0
  188.3100  178.1190  140.6280 C   0  0  0  0  0  2  0  0  0  0  0  0
  189.3150  176.7550  138.9250 O   0  0  0  0  0  1  0  0  0  0  0  0
  189.5990  177.5540  140.0330 C   0  0  2  0  0  3  0  0  0  0  0  0
  190.3970  176.7540  141.0540 C   0  0  0  0  0  2  0  0  0  0  0  0
  191.5160  177.5400  141.5420 N   0  0  0  0  0  2  0  0  0  0  0  0
  191.8010  177.0650  142.8860 C   0  0  0  0  0  2  0  0  0  0  0  0
  191.1760  177.9990  143.9120 C   0  0  2  0  0  3  0  0  0  0  0  0
  191.6650  179.3000  143.7530 O   0  0  0  0  0  1  0  0  0  0  0  0
  191.6810  176.0010  145.3760 C   0  0  0  0  0  1  0  0  0  0  0  0
  191.4330  177.5020  145.3320 C   0  0  0  0  0  2  0  0  0  0  0  0
  1  4  1  0  0  0  0
  1  6  2  0  0  0  0
  2  5  1  0  0  0  0
  3  6  1  0  0  0  0
  3 27  1  0  0  0  0
  4  2  1  1  0  0  0
  5  8  1  6  0  0  0
  6  9  1  0  0  0  0
  9  7  1  6  0  0  0
  9  5  1  0  0  0  0
 10 17  1  6  0  0  0
 10 13  1  0  0  0  0
 11 16  1  0  0  0  0
 12 10  1  0  0  0  0
 12 11  1  0  0  0  0
 13 16  1  0  0  0  0
 13  4  1  1  0  0  0
 15 12  2  0  0  0  0
 16 14  1  6  0  0  0
 18 21  1  0  0  0  0
 20 26  1  0  0  0  0
 20 19  1  0  0  0  0
 21 25  1  0  0  0  0
 22 19  1  1  0  0  0
 22 18  1  0  0  0  0
 22 23  1  0  0  0  0
 23 25  1  0  0  0  0
 25 17  1  6  0  0  0
 26 18  1  0  0  0  0
 26 24  2  0  0  0  0
 27 35  1  6  0  0  0
 27 29  1  0  0  0  0
 28 29  2  0  0  0  0
 29 30  1  0  0  0  0
 30 31  1  0  0  0  0
 31 34  1  0  0  0  0
 32 34  2  0  0  0  0
 34 33  1  0  0  0  0
 36 35  1  0  0  0  0
 38 37  1  6  0  0  0
 38 36  1  0  0  0  0
 38 39  1  0  0  0  0
 39 40  1  0  0  0  0
 40 41  1  0  0  0  0
 41 42  1  0  0  0  0
 42 43  1  1  0  0  0
 42 45  1  0  0  0  0
 45 44  1  0  0  0  0
M  END
>  <MODEL>
8

>  <REMARK>
 VINA RESULT:      -5.7      2.447      4.283
  Name = 
  16 active torsions:
  status: ('A' for Active; 'I' for Inactive)
    1  A    between atoms: C_1  and  C_9
    2  A    between atoms: C_2  and  C_19
    3  A    between atoms: C_2  and  C_38
    4  A    between atoms: C_6  and  C_28
    5  A    between atoms: C_6  and  N_41
    6  A    between atoms: C_9  and  C_32
    7  A    between atoms: N_12  and  C_43
    8  A    between atoms: C_14  and  C_37
    9  A    between atoms: C_15  and  C_28
   10  A    between atoms: C_15  and  C_35
   11  A    between atoms: O_17  and  C_39
   12  A    between atoms: O_17  and  C_40
   13  A    between atoms: C_34  and  C_40
   14  A    between atoms: C_35  and  C_43
   15  A    between atoms: C_38  and  N_41
   16  A    between atoms: C_39  and  C_43
                            x       y       z     vdW  Elec       q    Type
                         _______ _______ _______ _____ _____    ______ ____

>  <TORSDO>
F 16

$$$$
=
 OpenBabel11062417233D

 45 48  0  0  1  0  0  0  0  0999 V2000
  184.7830  178.0250  137.5550 N   0  0  0  0  0  0  0  0  0  0  0  0
  184.3240  176.3260  135.8220 C   0  0  0  0  0  2  0  0  0  0  0  0
  186.7330  178.0980  138.8580 N   0  0  0  0  0  2  0  0  0  0  0  0
  183.9330  177.6800  136.4120 C   0  0  1  0  0  3  0  0  0  0  0  0
  185.8220  176.3100  135.5470 C   0  0  1  0  0  3  0  0  0  0  0  0
  186.0000  177.6010  137.7330 C   0  0  0  0  0  0  0  0  0  0  0  0
  186.7430  175.2330  137.5900 C   0  0  0  0  0  1  0  0  0  0  0  0
  186.1540  177.2780  134.5970 O   0  0  0  0  0  1  0  0  0  0  0  0
  186.6120  176.5450  136.8340 C   0  0  1  0  0  3  0  0  0  0  0  0
  182.0160  176.3400  137.3540 C   0  0  1  0  0  3  0  0  0  0  0  0
  180.6770  176.8930  135.4180 N   0  0  0  0  0  2  0  0  0  0  0  0
  180.9520  175.9330  136.4140 C   0  0  0  0  0  0  0  0  0  0  0  0
  182.4570  177.7070  136.8150 C   0  0  2  0  0  3  0  0  0  0  0  0
  180.7510  179.2730  135.8750 C   0  0  0  0  0  1  0  0  0  0  0  0
  180.3450  174.8300  136.4730 O   0  0  0  0  0  0  0  0  0  0  0  0
  181.5670  178.0250  135.5990 C   0  0  2  0  0  3  0  0  0  0  0  0
  181.4560  176.5170  138.7570 C   0  0  0  0  0  2  0  0  0  0  0  0
  181.0850  178.2390  141.5320 N   0  0  0  0  0  0  0  0  0  0  0  0
  179.4040  179.9200  141.3190 C   0  0  0  0  0  2  0  0  0  0  0  0
  179.7950  179.9870  143.1030 S   0  0  0  0  0  0  0  0  0  0  0  0
  182.2060  177.8900  140.6780 C   0  0  0  0  0  2  0  0  0  0  0  0
  179.8930  178.5720  140.7950 C   0  0  1  0  0  3  0  0  0  0  0  0
  180.3270  178.6720  139.3460 C   0  0  0  0  0  2  0  0  0  0  0  0
  182.6580  179.3080  143.4130 S   0  0  0  0  0  0  0  0  0  0  0  0
  181.6660  177.9380  139.2590 C   0  0  2  0  0  3  0  0  0  0  0  0
  181.2000  178.9440  142.7630 C   0  0  0  0  0  0  0  0  0  0  0  0
  188.1470  177.8130  139.0890 C   0  0  1  0  0  3  0  0  0  0  0  0
  188.8950  179.6940  137.8060 O   0  0  0  0  0  0  0  0  0  0  0  0
  189.0180  178.4620  138.0570 C   0  0  0  0  0  0  0  0  0  0  0  0
  190.0060  177.7030  137.4280 O   0  0  0  0  0  0  0  0  0  0  0  0
  190.3650  176.4110  137.8930 C   0  0  0  0  0  2  0  0  0  0  0  0
  191.7920  177.1340  139.8070 O   0  0  0  0  0  1  0  0  0  0  0  0
  192.7030  175.9880  138.0410 O   0  0  0  0  0  0  0  0  0  0  0  0
  191.6800  176.4810  138.5850 C   0  0  0  0  0  0  0  0  0  0  0  0
  188.5570  178.2200  140.5030 C   0  0  0  0  0  2  0  0  0  0  0  0
  187.3600  178.6500  141.3530 C   0  0  0  0  0  2  0  0  0  0  0  0
  185.9860  178.0650  143.2340 O   0  0  0  0  0  1  0  0  0  0  0  0
  187.1870  177.7680  142.5890 C   0  0  2  0  0  3  0  0  0  0  0  0
  188.3460  177.9190  143.5650 C   0  0  0  0  0  2  0  0  0  0  0  0
  188.3000  176.8640  144.5630 N   0  0  0  0  0  2  0  0  0  0  0  0
  188.7340  177.4610  145.8150 C   0  0  0  0  0  2  0  0  0  0  0  0
  187.6300  177.3460  146.8570 C   0  0  2  0  0  3  0  0  0  0  0  0
  186.3930  177.6810  146.2990 O   0  0  0  0  0  1  0  0  0  0  0  0
  189.4090  178.2480  148.4110 C   0  0  0  0  0  1  0  0  0  0  0  0
  187.9270  178.2280  148.0680 C   0  0  0  0  0  2  0  0  0  0  0  0
  1  6  2  0  0  0  0
  3 27  1  0  0  0  0
  4  2  1  1  0  0  0
  4  1  1  0  0  0  0
  5  8  1  6  0  0  0
  5  2  1  0  0  0  0
  5  9  1  0  0  0  0
  6  3  1  0  0  0  0
  9  7  1  1  0  0  0
  9  6  1  0  0  0  0
 10 17  1  1  0  0  0
 11 16  1  0  0  0  0
 11 12  1  0  0  0  0
 12 15  2  0  0  0  0
 12 10  1  0  0  0  0
 13  4  1  6  0  0  0
 13 10  1  0  0  0  0
 16 14  1  1  0  0  0
 16 13  1  0  0  0  0
 18 26  1  0  0  0  0
 19 20  1  0  0  0  0
 21 18  1  0  0  0  0
 22 23  1  6  0  0  0
 22 19  1  0  0  0  0
 22 18  1  0  0  0  0
 25 17  1  1  0  0  0
 25 23  1  0  0  0  0
 25 21  1  0  0  0  0
 26 20  1  0  0  0  0
 26 24  2  0  0  0  0
 27 35  1  1  0  0  0
 28 29  2  0  0  0  0
 29 27  1  0  0  0  0
 30 31  1  0  0  0  0
 30 29  1  0  0  0  0
 31 34  1  0  0  0  0
 33 34  2  0  0  0  0
 34 32  1  0  0  0  0
 35 36  1  0  0  0  0
 36 38  1  0  0  0  0
 38 37  1  1  0  0  0
 38 39  1  0  0  0  0
 39 40  1  0  0  0  0
 40 41  1  0  0  0  0
 41 42  1  0  0  0  0
 42 43  1  6  0  0  0
 42 45  1  0  0  0  0
 45 44  1  0  0  0  0
M  END
>  <MODEL>
9

>  <REMARK>
 VINA RESULT:      -5.7      3.153      6.072
  Name = 
  16 active torsions:
  status: ('A' for Active; 'I' for Inactive)
    1  A    between atoms: C_1  and  C_9
    2  A    between atoms: C_2  and  C_19
    3  A    between atoms: C_2  and  C_38
    4  A    between atoms: C_6  and  C_28
    5  A    between atoms: C_6  and  N_41
    6  A    between atoms: C_9  and  C_32
    7  A    between atoms: N_12  and  C_43
    8  A    between atoms: C_14  and  C_37
    9  A    between atoms: C_15  and  C_28
   10  A    between atoms: C_15  and  C_35
   11  A    between atoms: O_17  and  C_39
   12  A    between atoms: O_17  and  C_40
   13  A    between atoms: C_34  and  C_40
   14  A    between atoms: C_35  and  C_43
   15  A    between atoms: C_38  and  N_41
   16  A    between atoms: C_39  and  C_43
                            x       y       z     vdW  Elec       q    Type
                         _______ _______ _______ _____ _____    ______ ____

>  <TORSDO>
F 16

$$$$
