=
 OpenBabel11062416523D

 34 36  0  0  1  0  0  0  0  0999 V2000
  189.9780  176.6350  136.9430 C   0  0  2  0  0  3  0  0  0  0  0  0
  190.2210  177.7640  137.8850 C   0  0  0  0  0  2  0  0  0  0  0  0
  189.5380  177.3210  139.1660 C   0  0  1  0  0  0  0  0  0  0  0  0
  189.8040  177.1120  135.6420 O   0  0  0  0  0  1  0  0  0  0  0  0
  188.7310  175.9740  137.5020 C   0  0  1  0  0  3  0  0  0  0  0  0
  188.6260  176.2810  138.8740 O   0  0  0  0  0  0  0  0  0  0  0  0
  191.5730  177.7570  140.4080 O   0  0  0  0  0  1  0  0  0  0  0  0
  190.5870  176.7960  140.1700 C   0  0  1  0  0  3  0  0  0  0  0  0
  188.6200  177.0600  141.8070 C   0  0  2  0  0  3  0  0  0  0  0  0
  188.7600  178.5170  139.7460 C   0  0  0  0  0  2  0  0  0  0  0  0
  189.9580  176.3730  141.5100 C   0  0  0  0  0  2  0  0  0  0  0  0
  188.6160  178.4910  141.2740 C   0  0  0  0  0  2  0  0  0  0  0  0
  187.4330  176.3400  136.7680 C   0  0  2  0  0  3  0  0  0  0  0  0
  186.5800  177.0920  137.5880 O   0  0  0  0  0  1  0  0  0  0  0  0
  185.3530  171.4080  135.8620 O   0  0  0  0  0  1  0  0  0  0  0  0
  187.5630  174.0520  136.5080 O   0  0  0  0  0  0  0  0  0  0  0  0
  186.7670  175.1350  136.2680 N   0  0  0  0  0  0  0  0  0  0  0  0
  185.5090  174.9750  137.0110 C   0  0  0  0  0  2  0  0  0  0  0  0
  185.6080  172.7780  135.7770 C   0  0  1  0  0  3  0  0  0  0  0  0
  185.3750  172.8880  138.1690 O   0  0  0  0  0  1  0  0  0  0  0  0
  185.0130  173.5210  136.9780 C   0  0  1  0  0  3  0  0  0  0  0  0
  187.1190  173.0330  135.6380 C   0  0  0  0  0  2  0  0  0  0  0  0
  188.3640  177.0450  143.3010 C   0  0  0  0  0  2  0  0  0  0  0  0
  186.6910  177.6730  143.6560 S   0  0  0  0  0  0  0  0  0  0  0  0
  186.8170  177.5030  145.4720 C   0  0  1  0  0  3  0  0  0  0  0  0
  188.2330  177.7830  145.9710 C   0  0  0  0  0  2  0  0  0  0  0  0
  188.4570  177.2050  147.3600 C   0  0  0  0  0  2  0  0  0  0  0  0
  189.8580  177.5270  147.8530 C   0  0  0  0  0  2  0  0  0  0  0  0
  190.8630  176.5850  147.2150 C   0  0  0  0  0  2  0  0  0  0  0  0
  191.6350  176.4260  145.1540 C   0  0  0  0  0  1  0  0  0  0  0  0
  191.6210  177.2700  146.2640 O   0  0  0  0  0  0  0  0  0  0  0  0
  185.7990  178.3970  146.1690 C   0  0  0  0  0  2  0  0  0  0  0  0
  183.5870  179.1590  145.6750 O   0  0  0  0  0  1  0  0  0  0  0  0
  184.8820  179.0750  145.1620 C   0  0  0  0  0  2  0  0  0  0  0  0
  1  4  1  6  0  0  0
  1  5  1  0  0  0  0
  1  2  1  0  0  0  0
  3  2  1  6  0  0  0
  3 10  1  0  0  0  0
  3  8  1  0  0  0  0
  5 13  1  6  0  0  0
  5  6  1  0  0  0  0
  6  3  1  0  0  0  0
  8  7  1  1  0  0  0
  8 11  1  0  0  0  0
  9 23  1  1  0  0  0
 10 12  1  0  0  0  0
 11  9  1  0  0  0  0
 12  9  1  0  0  0  0
 13 14  1  1  0  0  0
 17 16  1  0  0  0  0
 17 13  1  0  0  0  0
 17 18  1  0  0  0  0
 19 15  1  1  0  0  0
 19 21  1  0  0  0  0
 21 18  1  0  0  0  0
 21 20  1  1  0  0  0
 22 19  1  0  0  0  0
 22 16  1  0  0  0  0
 23 24  1  0  0  0  0
 24 25  1  0  0  0  0
 25 26  1  1  0  0  0
 25 32  1  0  0  0  0
 26 27  1  0  0  0  0
 27 28  1  0  0  0  0
 29 28  1  0  0  0  0
 30 31  1  0  0  0  0
 31 29  1  0  0  0  0
 34 33  1  0  0  0  0
 34 32  1  0  0  0  0
M  END
>  <MODEL>
1

>  <REMARK>
 VINA RESULT:      -6.9      0.000      0.000
  Name = 
  12 active torsions:
  status: ('A' for Active; 'I' for Inactive)
    1  A    between atoms: C_2  and  C_10
    2  A    between atoms: C_2  and  C_27
    3  A    between atoms: C_4  and  C_13
    4  A    between atoms: C_4  and  N_19
    5  A    between atoms: C_8  and  S_9
    6  A    between atoms: C_8  and  C_24
    7  A    between atoms: S_9  and  C_10
    8  A    between atoms: C_10  and  C_22
    9  A    between atoms: C_15  and  C_22
   10  A    between atoms: C_23  and  O_33
   11  A    between atoms: C_23  and  C_34
   12  A    between atoms: C_27  and  C_34
                            x       y       z     vdW  Elec       q    Type
                         _______ _______ _______ _____ _____    ______ ____

>  <TORSDO>
F 12

$$$$
=
 OpenBabel11062416523D

 34 36  0  0  1  0  0  0  0  0999 V2000
  189.2380  177.4250  137.3430 C   0  0  2  0  0  3  0  0  0  0  0  0
  189.8370  178.2370  138.4420 C   0  0  0  0  0  2  0  0  0  0  0  0
  189.1440  177.7250  139.6910 C   0  0  1  0  0  0  0  0  0  0  0  0
  189.1160  178.1890  136.1810 O   0  0  0  0  0  1  0  0  0  0  0  0
  187.8980  176.9980  137.9140 C   0  0  1  0  0  3  0  0  0  0  0  0
  187.9680  177.0310  139.3220 O   0  0  0  0  0  0  0  0  0  0  0  0
  191.2960  177.3690  140.7460 O   0  0  0  0  0  1  0  0  0  0  0  0
  190.0750  176.7570  140.4530 C   0  0  1  0  0  3  0  0  0  0  0  0
  188.3610  177.1630  142.3280 C   0  0  2  0  0  3  0  0  0  0  0  0
  188.7550  178.9320  140.5660 C   0  0  0  0  0  2  0  0  0  0  0  0
  189.4420  176.2390  141.7570 C   0  0  0  0  0  2  0  0  0  0  0  0
  188.7070  178.6280  142.0690 C   0  0  0  0  0  2  0  0  0  0  0  0
  186.7020  177.8210  137.4160 C   0  0  2  0  0  3  0  0  0  0  0  0
  187.0880  179.1260  137.0780 O   0  0  0  0  0  1  0  0  0  0  0  0
  182.3980  178.7720  140.5840 O   0  0  0  0  0  1  0  0  0  0  0  0
  185.4310  179.0980  138.8560 O   0  0  0  0  0  0  0  0  0  0  0  0
  185.6270  177.8220  138.4100 N   0  0  0  0  0  0  0  0  0  0  0  0
  184.4000  177.3570  137.7460 C   0  0  0  0  0  2  0  0  0  0  0  0
  183.4710  178.1370  139.9570 C   0  0  1  0  0  3  0  0  0  0  0  0
  182.6240  178.9520  137.8570 O   0  0  0  0  0  1  0  0  0  0  0  0
  183.1410  177.8210  138.4930 C   0  0  1  0  0  3  0  0  0  0  0  0
  184.7460  178.9870  140.0840 C   0  0  0  0  0  2  0  0  0  0  0  0
  188.2060  176.9040  143.8130 C   0  0  0  0  0  2  0  0  0  0  0  0
  189.8110  177.0920  144.6540 S   0  0  0  0  0  0  0  0  0  0  0  0
  189.1110  177.5870  146.2690 C   0  0  1  0  0  3  0  0  0  0  0  0
  187.5860  177.5060  146.2760 C   0  0  0  0  0  2  0  0  0  0  0  0
  186.9970  178.2470  147.4650 C   0  0  0  0  0  2  0  0  0  0  0  0
  185.8980  179.1950  147.0130 C   0  0  0  0  0  2  0  0  0  0  0  0
  185.2440  178.6680  145.7490 C   0  0  0  0  0  2  0  0  0  0  0  0
  183.5340  179.0920  144.4190 C   0  0  0  0  0  1  0  0  0  0  0  0
  183.8780  178.9560  145.7640 O   0  0  0  0  0  0  0  0  0  0  0  0
  189.7140  176.7550  147.3950 C   0  0  0  0  0  2  0  0  0  0  0  0
  191.7540  175.5140  147.5060 O   0  0  0  0  0  1  0  0  0  0  0  0
  191.2340  176.8000  147.3600 C   0  0  0  0  0  2  0  0  0  0  0  0
  1  4  1  6  0  0  0
  1  5  1  0  0  0  0
  1  2  1  0  0  0  0
  3  2  1  6  0  0  0
  3  8  1  0  0  0  0
  3 10  1  0  0  0  0
  5 13  1  6  0  0  0
  5  6  1  0  0  0  0
  6  3  1  0  0  0  0
  8  7  1  1  0  0  0
  8 11  1  0  0  0  0
  9 23  1  1  0  0  0
 10 12  1  0  0  0  0
 11  9  1  0  0  0  0
 12  9  1  0  0  0  0
 13 14  1  1  0  0  0
 13 17  1  0  0  0  0
 16 22  1  0  0  0  0
 17 16  1  0  0  0  0
 18 17  1  0  0  0  0
 18 21  1  0  0  0  0
 19 22  1  0  0  0  0
 19 15  1  6  0  0  0
 21 20  1  6  0  0  0
 21 19  1  0  0  0  0
 23 24  1  0  0  0  0
 24 25  1  0  0  0  0
 25 26  1  6  0  0  0
 25 32  1  0  0  0  0
 26 27  1  0  0  0  0
 28 27  1  0  0  0  0
 29 31  1  0  0  0  0
 29 28  1  0  0  0  0
 30 31  1  0  0  0  0
 34 32  1  0  0  0  0
 34 33  1  0  0  0  0
M  END
>  <MODEL>
2

>  <REMARK>
 VINA RESULT:      -6.8      2.549      4.563
  Name = 
  12 active torsions:
  status: ('A' for Active; 'I' for Inactive)
    1  A    between atoms: C_2  and  C_10
    2  A    between atoms: C_2  and  C_27
    3  A    between atoms: C_4  and  C_13
    4  A    between atoms: C_4  and  N_19
    5  A    between atoms: C_8  and  S_9
    6  A    between atoms: C_8  and  C_24
    7  A    between atoms: S_9  and  C_10
    8  A    between atoms: C_10  and  C_22
    9  A    between atoms: C_15  and  C_22
   10  A    between atoms: C_23  and  O_33
   11  A    between atoms: C_23  and  C_34
   12  A    between atoms: C_27  and  C_34
                            x       y       z     vdW  Elec       q    Type
                         _______ _______ _______ _____ _____    ______ ____

>  <TORSDO>
F 12

$$$$
=
 OpenBabel11062416523D

 34 36  0  0  1  0  0  0  0  0999 V2000
  189.8080  176.2600  136.4750 C   0  0  2  0  0  3  0  0  0  0  0  0
  190.1870  177.4670  137.2640 C   0  0  0  0  0  2  0  0  0  0  0  0
  189.5780  177.2140  138.6310 C   0  0  1  0  0  0  0  0  0  0  0  0
  189.5650  176.6020  135.1430 O   0  0  0  0  0  1  0  0  0  0  0  0
  188.5710  175.7480  137.1910 C   0  0  1  0  0  3  0  0  0  0  0  0
  188.5880  176.2100  138.5220 O   0  0  0  0  0  0  0  0  0  0  0  0
  191.7230  177.6480  139.6720 O   0  0  0  0  0  1  0  0  0  0  0  0
  190.6680  176.7340  139.6140 C   0  0  1  0  0  3  0  0  0  0  0  0
  188.8480  177.3060  141.3400 C   0  0  2  0  0  3  0  0  0  0  0  0
  188.9160  178.5150  139.1220 C   0  0  0  0  0  2  0  0  0  0  0  0
  190.1180  176.5030  141.0330 C   0  0  0  0  0  2  0  0  0  0  0  0
  188.8860  178.6670  140.6480 C   0  0  0  0  0  2  0  0  0  0  0  0
  187.2440  176.1160  136.5100 C   0  0  2  0  0  3  0  0  0  0  0  0
  186.4340  176.8860  137.3570 O   0  0  0  0  0  1  0  0  0  0  0  0
  185.0280  171.2130  135.7930 O   0  0  0  0  0  1  0  0  0  0  0  0
  187.3090  173.8170  136.3470 O   0  0  0  0  0  0  0  0  0  0  0  0
  186.5470  174.9110  136.0550 N   0  0  0  0  0  0  0  0  0  0  0  0
  185.2800  174.8190  136.7940 C   0  0  0  0  0  2  0  0  0  0  0  0
  185.3240  172.5700  135.6530 C   0  0  1  0  0  3  0  0  0  0  0  0
  185.0770  172.7870  138.0370 O   0  0  0  0  0  1  0  0  0  0  0  0
  184.7420  173.3800  136.8170 C   0  0  1  0  0  3  0  0  0  0  0  0
  186.8420  172.7760  135.5160 C   0  0  0  0  0  2  0  0  0  0  0  0
  188.7050  177.4720  142.8400 C   0  0  0  0  0  2  0  0  0  0  0  0
  190.1460  178.3590  143.5140 S   0  0  0  0  0  0  0  0  0  0  0  0
  189.9520  177.7430  145.2250 C   0  0  1  0  0  3  0  0  0  0  0  0
  188.6100  177.0410  145.4260 C   0  0  0  0  0  2  0  0  0  0  0  0
  187.7100  177.8230  146.3690 C   0  0  0  0  0  2  0  0  0  0  0  0
  186.2890  177.8730  145.8340 C   0  0  0  0  0  2  0  0  0  0  0  0
  185.3710  178.5220  146.8530 C   0  0  0  0  0  2  0  0  0  0  0  0
  184.4500  178.8180  144.8700 C   0  0  0  0  0  1  0  0  0  0  0  0
  184.1920  178.9400  146.2350 O   0  0  0  0  0  0  0  0  0  0  0  0
  191.1140  176.8340  145.6060 C   0  0  0  0  0  2  0  0  0  0  0  0
  191.7090  175.4980  147.4970 O   0  0  0  0  0  1  0  0  0  0  0  0
  191.2950  176.7750  147.1150 C   0  0  0  0  0  2  0  0  0  0  0  0
  1  4  1  6  0  0  0
  1  5  1  0  0  0  0
  1  2  1  0  0  0  0
  3  2  1  6  0  0  0
  3 10  1  0  0  0  0
  3  8  1  0  0  0  0
  5 13  1  6  0  0  0
  5  6  1  0  0  0  0
  6  3  1  0  0  0  0
  8  7  1  1  0  0  0
  8 11  1  0  0  0  0
  9 23  1  1  0  0  0
 10 12  1  0  0  0  0
 11  9  1  0  0  0  0
 12  9  1  0  0  0  0
 13 14  1  1  0  0  0
 17 16  1  0  0  0  0
 17 13  1  0  0  0  0
 17 18  1  0  0  0  0
 18 21  1  0  0  0  0
 19 15  1  1  0  0  0
 19 21  1  0  0  0  0
 21 20  1  1  0  0  0
 22 19  1  0  0  0  0
 22 16  1  0  0  0  0
 23 24  1  0  0  0  0
 24 25  1  0  0  0  0
 25 26  1  6  0  0  0
 25 32  1  0  0  0  0
 26 27  1  0  0  0  0
 28 27  1  0  0  0  0
 28 29  1  0  0  0  0
 30 31  1  0  0  0  0
 31 29  1  0  0  0  0
 32 34  1  0  0  0  0
 34 33  1  0  0  0  0
M  END
>  <MODEL>
3

>  <REMARK>
 VINA RESULT:      -6.6      0.971      3.263
  Name = 
  12 active torsions:
  status: ('A' for Active; 'I' for Inactive)
    1  A    between atoms: C_2  and  C_10
    2  A    between atoms: C_2  and  C_27
    3  A    between atoms: C_4  and  C_13
    4  A    between atoms: C_4  and  N_19
    5  A    between atoms: C_8  and  S_9
    6  A    between atoms: C_8  and  C_24
    7  A    between atoms: S_9  and  C_10
    8  A    between atoms: C_10  and  C_22
    9  A    between atoms: C_15  and  C_22
   10  A    between atoms: C_23  and  O_33
   11  A    between atoms: C_23  and  C_34
   12  A    between atoms: C_27  and  C_34
                            x       y       z     vdW  Elec       q    Type
                         _______ _______ _______ _____ _____    ______ ____

>  <TORSDO>
F 12

$$$$
=
 OpenBabel11062416523D

 34 36  0  0  1  0  0  0  0  0999 V2000
  189.3060  177.5080  137.2020 C   0  0  2  0  0  3  0  0  0  0  0  0
  189.7630  178.3870  138.3160 C   0  0  0  0  0  2  0  0  0  0  0  0
  189.2420  177.6930  139.5620 C   0  0  1  0  0  0  0  0  0  0  0  0
  188.9800  178.2720  136.0790 O   0  0  0  0  0  1  0  0  0  0  0  0
  188.1090  176.7860  137.7930 C   0  0  1  0  0  3  0  0  0  0  0  0
  188.2260  176.7800  139.1980 O   0  0  0  0  0  0  0  0  0  0  0  0
  191.4610  177.7620  140.5330 O   0  0  0  0  0  1  0  0  0  0  0  0
  190.3850  176.9170  140.2510 C   0  0  1  0  0  3  0  0  0  0  0  0
  188.6990  176.8800  142.1940 C   0  0  2  0  0  3  0  0  0  0  0  0
  188.6430  178.7570  140.5010 C   0  0  0  0  0  2  0  0  0  0  0  0
  189.9280  176.2280  141.5490 C   0  0  0  0  0  2  0  0  0  0  0  0
  188.7200  178.3940  141.9900 C   0  0  0  0  0  2  0  0  0  0  0  0
  186.7480  177.3550  137.3690 C   0  0  2  0  0  3  0  0  0  0  0  0
  186.0650  177.9100  138.4600 O   0  0  0  0  0  1  0  0  0  0  0  0
  183.6670  173.1220  135.9360 O   0  0  0  0  0  1  0  0  0  0  0  0
  186.2470  175.1080  137.2350 O   0  0  0  0  0  0  0  0  0  0  0  0
  185.9450  176.3280  136.7020 N   0  0  0  0  0  0  0  0  0  0  0  0
  184.5290  176.6230  136.9650 C   0  0  0  0  0  2  0  0  0  0  0  0
  184.3440  174.3420  135.9060 C   0  0  1  0  0  3  0  0  0  0  0  0
  183.3950  174.8290  138.0630 O   0  0  0  0  0  1  0  0  0  0  0  0
  183.6500  175.3740  136.8030 C   0  0  1  0  0  3  0  0  0  0  0  0
  185.8190  174.1470  136.2950 C   0  0  0  0  0  2  0  0  0  0  0  0
  188.6610  176.5390  143.6700 C   0  0  0  0  0  2  0  0  0  0  0  0
  189.4610  177.8580  144.6390 S   0  0  0  0  0  0  0  0  0  0  0  0
  188.1990  177.9000  145.9620 C   0  0  1  0  0  3  0  0  0  0  0  0
  186.8440  177.3950  145.4690 C   0  0  0  0  0  2  0  0  0  0  0  0
  185.8800  178.5460  145.2220 C   0  0  0  0  0  2  0  0  0  0  0  0
  185.3840  178.5270  143.7860 C   0  0  0  0  0  2  0  0  0  0  0  0
  184.0780  179.2940  143.6770 C   0  0  0  0  0  2  0  0  0  0  0  0
  181.8820  179.1580  143.5010 C   0  0  0  0  0  1  0  0  0  0  0  0
  183.0020  178.4370  143.9150 O   0  0  0  0  0  0  0  0  0  0  0  0
  188.6700  177.1180  147.1820 C   0  0  0  0  0  2  0  0  0  0  0  0
  188.0390  178.2340  149.1990 O   0  0  0  0  0  1  0  0  0  0  0  0
  189.0940  178.0520  148.3050 C   0  0  0  0  0  2  0  0  0  0  0  0
  1  4  1  6  0  0  0
  1  5  1  0  0  0  0
  1  2  1  0  0  0  0
  3  2  1  6  0  0  0
  3  8  1  0  0  0  0
  3 10  1  0  0  0  0
  5 13  1  1  0  0  0
  5  6  1  0  0  0  0
  6  3  1  0  0  0  0
  8  7  1  1  0  0  0
  8 11  1  0  0  0  0
  9 23  1  1  0  0  0
 10 12  1  0  0  0  0
 11  9  1  0  0  0  0
 12  9  1  0  0  0  0
 13 14  1  1  0  0  0
 17 18  1  0  0  0  0
 17 16  1  0  0  0  0
 17 13  1  0  0  0  0
 19 15  1  1  0  0  0
 19 22  1  0  0  0  0
 19 21  1  0  0  0  0
 21 18  1  0  0  0  0
 21 20  1  1  0  0  0
 22 16  1  0  0  0  0
 23 24  1  0  0  0  0
 24 25  1  0  0  0  0
 25 26  1  6  0  0  0
 25 32  1  0  0  0  0
 27 26  1  0  0  0  0
 28 27  1  0  0  0  0
 29 28  1  0  0  0  0
 29 31  1  0  0  0  0
 30 31  1  0  0  0  0
 32 34  1  0  0  0  0
 34 33  1  0  0  0  0
M  END
>  <MODEL>
4

>  <REMARK>
 VINA RESULT:      -6.5      1.681      3.582
  Name = 
  12 active torsions:
  status: ('A' for Active; 'I' for Inactive)
    1  A    between atoms: C_2  and  C_10
    2  A    between atoms: C_2  and  C_27
    3  A    between atoms: C_4  and  C_13
    4  A    between atoms: C_4  and  N_19
    5  A    between atoms: C_8  and  S_9
    6  A    between atoms: C_8  and  C_24
    7  A    between atoms: S_9  and  C_10
    8  A    between atoms: C_10  and  C_22
    9  A    between atoms: C_15  and  C_22
   10  A    between atoms: C_23  and  O_33
   11  A    between atoms: C_23  and  C_34
   12  A    between atoms: C_27  and  C_34
                            x       y       z     vdW  Elec       q    Type
                         _______ _______ _______ _____ _____    ______ ____

>  <TORSDO>
F 12

$$$$
=
 OpenBabel11062416523D

 34 36  0  0  1  0  0  0  0  0999 V2000
  182.8170  177.6540  136.7450 C   0  0  2  0  0  3  0  0  0  0  0  0
  182.5270  178.7850  137.6730 C   0  0  0  0  0  2  0  0  0  0  0  0
  183.1110  178.3270  138.9970 C   0  0  1  0  0  0  0  0  0  0  0  0
  181.7820  177.5020  135.8210 O   0  0  0  0  0  1  0  0  0  0  0  0
  182.9580  176.4640  137.6770 C   0  0  1  0  0  3  0  0  0  0  0  0
  183.3070  176.9270  138.9620 O   0  0  0  0  0  0  0  0  0  0  0  0
  184.3450  180.4050  139.1770 O   0  0  0  0  0  1  0  0  0  0  0  0
  184.4720  179.0140  139.2410 C   0  0  1  0  0  3  0  0  0  0  0  0
  184.0670  178.1550  141.6310 C   0  0  2  0  0  3  0  0  0  0  0  0
  182.1070  178.6610  140.1170 C   0  0  0  0  0  2  0  0  0  0  0  0
  185.0930  178.6240  140.5930 C   0  0  0  0  0  2  0  0  0  0  0  0
  182.7560  178.9240  141.4830 C   0  0  0  0  0  2  0  0  0  0  0  0
  181.7180  175.5610  137.7490 C   0  0  2  0  0  3  0  0  0  0  0  0
  181.4260  175.2020  139.0720 O   0  0  0  0  0  1  0  0  0  0  0  0
  182.3160  170.6220  135.5790 O   0  0  0  0  0  1  0  0  0  0  0  0
  182.7550  173.5150  137.5090 O   0  0  0  0  0  0  0  0  0  0  0  0
  181.8910  174.3800  136.9000 N   0  0  0  0  0  0  0  0  0  0  0  0
  180.5810  173.7270  136.7670 C   0  0  0  0  0  2  0  0  0  0  0  0
  182.0810  171.9900  135.7210 C   0  0  1  0  0  3  0  0  0  0  0  0
  180.5900  171.4640  137.5350 O   0  0  0  0  0  1  0  0  0  0  0  0
  180.7230  172.2460  136.3860 C   0  0  1  0  0  3  0  0  0  0  0  0
  183.2310  172.6540  136.4970 C   0  0  0  0  0  2  0  0  0  0  0  0
  184.6370  178.3340  143.0240 C   0  0  0  0  0  2  0  0  0  0  0  0
  186.3960  177.8590  143.0470 S   0  0  0  0  0  0  0  0  0  0  0  0
  186.4910  177.6130  144.8570 C   0  0  1  0  0  3  0  0  0  0  0  0
  187.8970  177.8780  145.3920 C   0  0  0  0  0  2  0  0  0  0  0  0
  188.9340  177.0320  144.6690 C   0  0  0  0  0  2  0  0  0  0  0  0
  190.3120  177.2430  145.2750 C   0  0  0  0  0  2  0  0  0  0  0  0
  190.2870  176.9040  146.7540 C   0  0  0  0  0  2  0  0  0  0  0  0
  192.1160  175.7510  147.1960 C   0  0  0  0  0  1  0  0  0  0  0  0
  191.5680  177.0300  147.2930 O   0  0  0  0  0  0  0  0  0  0  0  0
  185.4570  178.4730  145.5730 C   0  0  0  0  0  2  0  0  0  0  0  0
  185.8160  179.8000  147.5290 O   0  0  0  0  0  1  0  0  0  0  0  0
  185.6960  178.4860  147.0750 C   0  0  0  0  0  2  0  0  0  0  0  0
  1  4  1  6  0  0  0
  1  2  1  0  0  0  0
  1  5  1  0  0  0  0
  3  2  1  6  0  0  0
  3  8  1  0  0  0  0
  3 10  1  0  0  0  0
  5 13  1  1  0  0  0
  5  6  1  0  0  0  0
  6  3  1  0  0  0  0
  8  7  1  1  0  0  0
  8 11  1  0  0  0  0
  9 23  1  1  0  0  0
 10 12  1  0  0  0  0
 11  9  1  0  0  0  0
 12  9  1  0  0  0  0
 13 14  1  1  0  0  0
 17 16  1  0  0  0  0
 17 13  1  0  0  0  0
 18 17  1  0  0  0  0
 19 15  1  1  0  0  0
 19 21  1  0  0  0  0
 19 22  1  0  0  0  0
 21 18  1  0  0  0  0
 21 20  1  1  0  0  0
 22 16  1  0  0  0  0
 23 24  1  0  0  0  0
 24 25  1  0  0  0  0
 25 26  1  1  0  0  0
 25 32  1  0  0  0  0
 27 28  1  0  0  0  0
 27 26  1  0  0  0  0
 28 29  1  0  0  0  0
 29 31  1  0  0  0  0
 30 31  1  0  0  0  0
 32 34  1  0  0  0  0
 34 33  1  0  0  0  0
M  END
>  <MODEL>
5

>  <REMARK>
 VINA RESULT:      -6.4      3.788      4.835
  Name = 
  12 active torsions:
  status: ('A' for Active; 'I' for Inactive)
    1  A    between atoms: C_2  and  C_10
    2  A    between atoms: C_2  and  C_27
    3  A    between atoms: C_4  and  C_13
    4  A    between atoms: C_4  and  N_19
    5  A    between atoms: C_8  and  S_9
    6  A    between atoms: C_8  and  C_24
    7  A    between atoms: S_9  and  C_10
    8  A    between atoms: C_10  and  C_22
    9  A    between atoms: C_15  and  C_22
   10  A    between atoms: C_23  and  O_33
   11  A    between atoms: C_23  and  C_34
   12  A    between atoms: C_27  and  C_34
                            x       y       z     vdW  Elec       q    Type
                         _______ _______ _______ _____ _____    ______ ____

>  <TORSDO>
F 12

$$$$
=
 OpenBabel11062416523D

 34 36  0  0  1  0  0  0  0  0999 V2000
  182.8800  178.6270  142.8960 C   0  0  2  0  0  3  0  0  0  0  0  0
  182.0280  179.0160  141.7350 C   0  0  0  0  0  2  0  0  0  0  0  0
  182.5990  178.2140  140.5800 C   0  0  1  0  0  0  0  0  0  0  0  0
  183.0620  179.7130  143.7550 O   0  0  0  0  0  1  0  0  0  0  0  0
  184.1710  178.1670  142.2430 C   0  0  1  0  0  3  0  0  0  0  0  0
  183.8980  177.7680  140.9190 O   0  0  0  0  0  0  0  0  0  0  0  0
  180.3870  177.3710  140.0640 O   0  0  0  0  0  1  0  0  0  0  0  0
  181.7090  176.9840  140.2980 C   0  0  1  0  0  3  0  0  0  0  0  0
  183.0680  176.9560  138.1150 C   0  0  2  0  0  3  0  0  0  0  0  0
  182.6930  179.1310  139.3460 C   0  0  0  0  0  2  0  0  0  0  0  0
  182.2140  176.1550  139.1050 C   0  0  0  0  0  2  0  0  0  0  0  0
  182.5680  178.3940  138.0060 C   0  0  0  0  0  2  0  0  0  0  0  0
  185.3030  179.2030  142.2710 C   0  0  2  0  0  3  0  0  0  0  0  0
  185.8620  179.3810  140.9970 O   0  0  0  0  0  1  0  0  0  0  0  0
  188.6960  176.7640  145.7350 O   0  0  0  0  0  1  0  0  0  0  0  0
  185.8090  177.8790  144.0900 O   0  0  0  0  0  0  0  0  0  0  0  0
  186.3230  178.8260  143.2530 N   0  0  0  0  0  0  0  0  0  0  0  0
  187.4590  178.2470  142.5210 C   0  0  0  0  0  2  0  0  0  0  0  0
  188.1100  177.7140  144.8980 C   0  0  1  0  0  3  0  0  0  0  0  0
  187.9600  176.0120  143.2030 O   0  0  0  0  0  1  0  0  0  0  0  0
  188.3130  177.3460  143.4240 C   0  0  1  0  0  3  0  0  0  0  0  0
  186.6210  177.8870  145.2430 C   0  0  0  0  0  2  0  0  0  0  0  0
  183.0450  176.2760  136.7600 C   0  0  0  0  0  2  0  0  0  0  0  0
  184.2060  177.1020  135.6250 S   0  0  0  0  0  0  0  0  0  0  0  0
  185.5380  175.8610  135.7980 C   0  0  1  0  0  3  0  0  0  0  0  0
  186.6270  176.3290  136.7620 C   0  0  0  0  0  2  0  0  0  0  0  0
  187.6160  177.2560  136.0730 C   0  0  0  0  0  2  0  0  0  0  0  0
  187.6400  178.6140  136.7560 C   0  0  0  0  0  2  0  0  0  0  0  0
  189.0490  178.9390  137.2160 C   0  0  0  0  0  2  0  0  0  0  0  0
  189.3930  178.2440  139.2820 C   0  0  0  0  0  1  0  0  0  0  0  0
  189.0290  179.3690  138.5440 O   0  0  0  0  0  0  0  0  0  0  0  0
  184.9670  174.5130  136.2210 C   0  0  0  0  0  2  0  0  0  0  0  0
  185.1290  172.8430  137.9240 O   0  0  0  0  0  1  0  0  0  0  0  0
  185.8420  173.8510  137.2750 C   0  0  0  0  0  2  0  0  0  0  0  0
  1  4  1  1  0  0  0
  2  1  1  0  0  0  0
  3 10  1  6  0  0  0
  3  6  1  0  0  0  0
  3  2  1  0  0  0  0
  5 13  1  6  0  0  0
  5  1  1  0  0  0  0
  6  5  1  0  0  0  0
  8  7  1  6  0  0  0
  8  3  1  0  0  0  0
  9 23  1  6  0  0  0
  9 11  1  0  0  0  0
 11  8  1  0  0  0  0
 12  9  1  0  0  0  0
 12 10  1  0  0  0  0
 13 14  1  6  0  0  0
 13 17  1  0  0  0  0
 16 22  1  0  0  0  0
 17 16  1  0  0  0  0
 18 17  1  0  0  0  0
 18 21  1  0  0  0  0
 19 22  1  0  0  0  0
 19 15  1  1  0  0  0
 21 20  1  1  0  0  0
 21 19  1  0  0  0  0
 24 25  1  0  0  0  0
 24 23  1  0  0  0  0
 25 32  1  1  0  0  0
 25 26  1  0  0  0  0
 27 28  1  0  0  0  0
 27 26  1  0  0  0  0
 28 29  1  0  0  0  0
 29 31  1  0  0  0  0
 31 30  1  0  0  0  0
 32 34  1  0  0  0  0
 34 33  1  0  0  0  0
M  END
>  <MODEL>
6

>  <REMARK>
 VINA RESULT:      -6.1      3.746      8.836
  Name = 
  12 active torsions:
  status: ('A' for Active; 'I' for Inactive)
    1  A    between atoms: C_2  and  C_10
    2  A    between atoms: C_2  and  C_27
    3  A    between atoms: C_4  and  C_13
    4  A    between atoms: C_4  and  N_19
    5  A    between atoms: C_8  and  S_9
    6  A    between atoms: C_8  and  C_24
    7  A    between atoms: S_9  and  C_10
    8  A    between atoms: C_10  and  C_22
    9  A    between atoms: C_15  and  C_22
   10  A    between atoms: C_23  and  O_33
   11  A    between atoms: C_23  and  C_34
   12  A    between atoms: C_27  and  C_34
                            x       y       z     vdW  Elec       q    Type
                         _______ _______ _______ _____ _____    ______ ____

>  <TORSDO>
F 12

$$$$
=
 OpenBabel11062416523D

 34 36  0  0  1  0  0  0  0  0999 V2000
  182.1110  178.4860  142.0010 C   0  0  2  0  0  3  0  0  0  0  0  0
  182.0410  179.0680  140.6300 C   0  0  0  0  0  2  0  0  0  0  0  0
  183.1990  178.4150  139.8990 C   0  0  1  0  0  0  0  0  0  0  0  0
  181.7280  179.4320  142.9540 O   0  0  0  0  0  1  0  0  0  0  0  0
  183.5650  178.0700  142.1310 C   0  0  1  0  0  3  0  0  0  0  0  0
  184.1020  177.8740  140.8430 O   0  0  0  0  0  0  0  0  0  0  0  0
  181.7010  177.7430  138.1160 O   0  0  0  0  0  1  0  0  0  0  0  0
  182.6790  177.2740  138.9970 C   0  0  1  0  0  3  0  0  0  0  0  0
  185.0300  177.4980  137.9780 C   0  0  2  0  0  3  0  0  0  0  0  0
  183.9270  179.4910  139.0730 C   0  0  0  0  0  2  0  0  0  0  0  0
  183.8050  176.6010  138.1930 C   0  0  0  0  0  2  0  0  0  0  0  0
  184.6110  178.9560  137.8070 C   0  0  0  0  0  2  0  0  0  0  0  0
  184.4370  179.0460  142.9340 C   0  0  2  0  0  3  0  0  0  0  0  0
  185.3690  179.6920  142.1110 O   0  0  0  0  0  1  0  0  0  0  0  0
  187.2830  177.5040  147.2920 O   0  0  0  0  0  1  0  0  0  0  0  0
  186.3660  178.8330  144.1800 O   0  0  0  0  0  0  0  0  0  0  0  0
  185.0950  178.3540  144.0450 N   0  0  0  0  0  0  0  0  0  0  0  0
  184.3410  178.6550  145.2710 C   0  0  0  0  0  2  0  0  0  0  0  0
  186.3700  177.5100  146.2360 C   0  0  1  0  0  3  0  0  0  0  0  0
  185.6810  179.7020  146.9500 O   0  0  0  0  0  1  0  0  0  0  0  0
  185.2030  178.4600  146.5270 C   0  0  1  0  0  3  0  0  0  0  0  0
  187.0780  177.8630  144.9170 C   0  0  0  0  0  2  0  0  0  0  0  0
  185.8030  177.0180  136.7650 C   0  0  0  0  0  2  0  0  0  0  0  0
  187.2580  176.0560  137.2900 S   0  0  0  0  0  0  0  0  0  0  0  0
  188.4360  177.4540  137.2090 C   0  0  1  0  0  3  0  0  0  0  0  0
  188.4190  178.2850  138.4900 C   0  0  0  0  0  2  0  0  0  0  0  0
  188.9610  177.4950  139.6710 C   0  0  0  0  0  2  0  0  0  0  0  0
  188.4340  178.0600  140.9790 C   0  0  0  0  0  2  0  0  0  0  0  0
  189.4340  177.8120  142.0940 C   0  0  0  0  0  2  0  0  0  0  0  0
  190.2570  176.0030  143.0510 C   0  0  0  0  0  1  0  0  0  0  0  0
  190.1710  176.6580  141.8240 O   0  0  0  0  0  0  0  0  0  0  0  0
  189.8400  176.9570  136.8910 C   0  0  0  0  0  2  0  0  0  0  0  0
  190.5350  174.9370  137.9650 O   0  0  0  0  0  1  0  0  0  0  0  0
  189.8870  175.4370  136.8350 C   0  0  0  0  0  2  0  0  0  0  0  0
  1  5  1  0  0  0  0
  1  4  1  1  0  0  0
  2  1  1  0  0  0  0
  3 10  1  6  0  0  0
  3  2  1  0  0  0  0
  3  6  1  0  0  0  0
  5 13  1  6  0  0  0
  6  5  1  0  0  0  0
  8  7  1  6  0  0  0
  8  3  1  0  0  0  0
  9 23  1  6  0  0  0
  9 11  1  0  0  0  0
 11  8  1  0  0  0  0
 12  9  1  0  0  0  0
 12 10  1  0  0  0  0
 13 14  1  6  0  0  0
 13 17  1  0  0  0  0
 16 22  1  0  0  0  0
 17 16  1  0  0  0  0
 17 18  1  0  0  0  0
 18 21  1  0  0  0  0
 19 21  1  0  0  0  0
 19 15  1  1  0  0  0
 21 20  1  6  0  0  0
 22 19  1  0  0  0  0
 23 24  1  0  0  0  0
 25 32  1  1  0  0  0
 25 24  1  0  0  0  0
 25 26  1  0  0  0  0
 26 27  1  0  0  0  0
 27 28  1  0  0  0  0
 28 29  1  0  0  0  0
 31 29  1  0  0  0  0
 31 30  1  0  0  0  0
 34 32  1  0  0  0  0
 34 33  1  0  0  0  0
M  END
>  <MODEL>
7

>  <REMARK>
 VINA RESULT:      -6.0      3.474      8.418
  Name = 
  12 active torsions:
  status: ('A' for Active; 'I' for Inactive)
    1  A    between atoms: C_2  and  C_10
    2  A    between atoms: C_2  and  C_27
    3  A    between atoms: C_4  and  C_13
    4  A    between atoms: C_4  and  N_19
    5  A    between atoms: C_8  and  S_9
    6  A    between atoms: C_8  and  C_24
    7  A    between atoms: S_9  and  C_10
    8  A    between atoms: C_10  and  C_22
    9  A    between atoms: C_15  and  C_22
   10  A    between atoms: C_23  and  O_33
   11  A    between atoms: C_23  and  C_34
   12  A    between atoms: C_27  and  C_34
                            x       y       z     vdW  Elec       q    Type
                         _______ _______ _______ _____ _____    ______ ____

>  <TORSDO>
F 12

$$$$
=
 OpenBabel11062416523D

 34 36  0  0  1  0  0  0  0  0999 V2000
  186.1850  176.6610  135.4180 C   0  0  2  0  0  3  0  0  0  0  0  0
  187.3760  177.5580  135.4700 C   0  0  0  0  0  2  0  0  0  0  0  0
  187.9410  177.3320  136.8600 C   0  0  1  0  0  0  0  0  0  0  0  0
  185.1660  177.2440  134.6630 O   0  0  0  0  0  1  0  0  0  0  0  0
  185.8140  176.4880  136.8800 C   0  0  1  0  0  3  0  0  0  0  0  0
  186.9530  176.7310  137.6740 O   0  0  0  0  0  0  0  0  0  0  0  0
  190.1250  176.8950  135.9050 O   0  0  0  0  0  1  0  0  0  0  0  0
  189.1640  176.3920  136.7860 C   0  0  1  0  0  3  0  0  0  0  0  0
  189.5350  177.2830  139.1700 C   0  0  2  0  0  3  0  0  0  0  0  0
  188.3210  178.6970  137.4630 C   0  0  0  0  0  2  0  0  0  0  0  0
  189.8110  176.1610  138.1630 C   0  0  0  0  0  2  0  0  0  0  0  0
  189.4780  178.6390  138.4690 C   0  0  0  0  0  2  0  0  0  0  0  0
  184.6380  177.3590  137.3460 C   0  0  2  0  0  3  0  0  0  0  0  0
  185.0560  178.3280  138.2680 O   0  0  0  0  0  1  0  0  0  0  0  0
  180.1450  175.2540  139.5480 O   0  0  0  0  0  1  0  0  0  0  0  0
  183.0590  177.1280  139.0100 O   0  0  0  0  0  0  0  0  0  0  0  0
  183.5670  176.5250  137.8960 N   0  0  0  0  0  0  0  0  0  0  0  0
  182.5060  176.4310  136.8820 C   0  0  0  0  0  2  0  0  0  0  0  0
  181.3560  175.3800  138.8650 C   0  0  1  0  0  3  0  0  0  0  0  0
  180.3970  177.2340  137.6690 O   0  0  0  0  0  1  0  0  0  0  0  0
  181.1520  176.0700  137.5110 C   0  0  1  0  0  3  0  0  0  0  0  0
  182.3870  176.1200  139.7340 C   0  0  0  0  0  2  0  0  0  0  0  0
  190.6090  177.2790  140.2400 C   0  0  0  0  0  2  0  0  0  0  0  0
  189.9870  176.4710  141.7500 S   0  0  0  0  0  0  0  0  0  0  0  0
  189.2730  177.9870  142.4830 C   0  0  1  0  0  3  0  0  0  0  0  0
  187.7530  177.8970  142.6050 C   0  0  0  0  0  2  0  0  0  0  0  0
  187.0620  178.5530  141.4200 C   0  0  0  0  0  2  0  0  0  0  0  0
  185.7770  179.2350  141.8620 C   0  0  0  0  0  2  0  0  0  0  0  0
  184.6800  178.2040  142.0510 C   0  0  0  0  0  2  0  0  0  0  0  0
  184.3530  179.5040  143.8030 C   0  0  0  0  0  1  0  0  0  0  0  0
  184.2780  178.1760  143.3870 O   0  0  0  0  0  0  0  0  0  0  0  0
  189.9180  178.2890  143.8300 C   0  0  0  0  0  2  0  0  0  0  0  0
  190.3840  177.0630  145.8290 O   0  0  0  0  0  1  0  0  0  0  0  0
  189.3740  177.3760  144.9180 C   0  0  0  0  0  2  0  0  0  0  0  0
  1  4  1  6  0  0  0
  1  2  1  0  0  0  0
  1  5  1  0  0  0  0
  3  2  1  6  0  0  0
  3 10  1  0  0  0  0
  3  6  1  0  0  0  0
  5 13  1  1  0  0  0
  5  6  1  0  0  0  0
  8  7  1  6  0  0  0
  8  3  1  0  0  0  0
  8 11  1  0  0  0  0
  9 23  1  1  0  0  0
 10 12  1  0  0  0  0
 11  9  1  0  0  0  0
 12  9  1  0  0  0  0
 13 17  1  0  0  0  0
 13 14  1  1  0  0  0
 16 22  1  0  0  0  0
 17 16  1  0  0  0  0
 18 21  1  0  0  0  0
 18 17  1  0  0  0  0
 19 15  1  1  0  0  0
 19 22  1  0  0  0  0
 21 20  1  1  0  0  0
 21 19  1  0  0  0  0
 23 24  1  0  0  0  0
 24 25  1  0  0  0  0
 25 26  1  1  0  0  0
 25 32  1  0  0  0  0
 27 28  1  0  0  0  0
 27 26  1  0  0  0  0
 28 29  1  0  0  0  0
 29 31  1  0  0  0  0
 31 30  1  0  0  0  0
 32 34  1  0  0  0  0
 34 33  1  0  0  0  0
M  END
>  <MODEL>
8

>  <REMARK>
 VINA RESULT:      -5.9      2.832      5.050
  Name = 
  12 active torsions:
  status: ('A' for Active; 'I' for Inactive)
    1  A    between atoms: C_2  and  C_10
    2  A    between atoms: C_2  and  C_27
    3  A    between atoms: C_4  and  C_13
    4  A    between atoms: C_4  and  N_19
    5  A    between atoms: C_8  and  S_9
    6  A    between atoms: C_8  and  C_24
    7  A    between atoms: S_9  and  C_10
    8  A    between atoms: C_10  and  C_22
    9  A    between atoms: C_15  and  C_22
   10  A    between atoms: C_23  and  O_33
   11  A    between atoms: C_23  and  C_34
   12  A    between atoms: C_27  and  C_34
                            x       y       z     vdW  Elec       q    Type
                         _______ _______ _______ _____ _____    ______ ____

>  <TORSDO>
F 12

$$$$
=
 OpenBabel11062416523D

 34 36  0  0  1  0  0  0  0  0999 V2000
  188.3120  176.2650  135.8340 C   0  0  2  0  0  3  0  0  0  0  0  0
  189.2560  177.2770  136.3900 C   0  0  0  0  0  2  0  0  0  0  0  0
  189.0090  177.2220  137.8860 C   0  0  1  0  0  0  0  0  0  0  0  0
  187.8240  176.6800  134.5940 O   0  0  0  0  0  1  0  0  0  0  0  0
  187.2310  176.1750  136.8960 C   0  0  1  0  0  3  0  0  0  0  0  0
  187.7660  176.5930  138.1310 O   0  0  0  0  0  0  0  0  0  0  0  0
  191.3830  176.9290  138.2720 O   0  0  0  0  0  1  0  0  0  0  0  0
  190.1240  176.4060  138.5760 C   0  0  1  0  0  3  0  0  0  0  0  0
  189.1380  177.5190  140.6750 C   0  0  2  0  0  3  0  0  0  0  0  0
  188.9540  178.6620  138.4280 C   0  0  0  0  0  2  0  0  0  0  0  0
  189.9520  176.3520  140.1040 C   0  0  0  0  0  2  0  0  0  0  0  0
  189.4040  178.8010  139.8890 C   0  0  0  0  0  2  0  0  0  0  0  0
  185.9520  176.9580  136.5700 C   0  0  2  0  0  3  0  0  0  0  0  0
  186.2460  178.1710  135.9320 O   0  0  0  0  0  1  0  0  0  0  0  0
  182.6590  178.6790  140.5280 O   0  0  0  0  0  1  0  0  0  0  0  0
  185.1990  178.4930  138.1190 O   0  0  0  0  0  0  0  0  0  0  0  0
  185.1550  177.1710  137.7810 N   0  0  0  0  0  0  0  0  0  0  0  0
  183.7650  176.8040  137.4740 C   0  0  0  0  0  2  0  0  0  0  0  0
  183.4810  177.8690  139.7420 C   0  0  1  0  0  3  0  0  0  0  0  0
  182.2330  178.6050  137.8210 O   0  0  0  0  0  1  0  0  0  0  0  0
  182.7770  177.4760  138.4390 C   0  0  1  0  0  3  0  0  0  0  0  0
  184.8260  178.5670  139.4770 C   0  0  0  0  0  2  0  0  0  0  0  0
  189.4820  177.7080  142.1390 C   0  0  0  0  0  2  0  0  0  0  0  0
  189.1080  176.1880  143.0720 S   0  0  0  0  0  0  0  0  0  0  0  0
  188.0330  176.9980  144.3110 C   0  0  1  0  0  3  0  0  0  0  0  0
  188.8380  177.8550  145.2860 C   0  0  0  0  0  2  0  0  0  0  0  0
  188.7690  177.2990  146.6990 C   0  0  0  0  0  2  0  0  0  0  0  0
  190.1630  176.9870  147.2190 C   0  0  0  0  0  2  0  0  0  0  0  0
  191.1750  177.0980  146.0920 C   0  0  0  0  0  2  0  0  0  0  0  0
  192.1080  175.7010  147.5220 C   0  0  0  0  0  1  0  0  0  0  0  0
  192.0930  176.0510  146.1730 O   0  0  0  0  0  0  0  0  0  0  0  0
  186.9430  177.8140  143.6270 C   0  0  0  0  0  2  0  0  0  0  0  0
  184.5930  178.2260  143.7640 O   0  0  0  0  0  1  0  0  0  0  0  0
  185.7320  177.9820  144.5310 C   0  0  0  0  0  2  0  0  0  0  0  0
  1  4  1  6  0  0  0
  1  2  1  0  0  0  0
  1  5  1  0  0  0  0
  3  2  1  6  0  0  0
  3  6  1  0  0  0  0
  3 10  1  0  0  0  0
  3  8  1  0  0  0  0
  5 13  1  6  0  0  0
  5  6  1  0  0  0  0
  8  7  1  1  0  0  0
  8 11  1  0  0  0  0
  9 23  1  1  0  0  0
 10 12  1  0  0  0  0
 11  9  1  0  0  0  0
 12  9  1  0  0  0  0
 13 14  1  1  0  0  0
 13 17  1  0  0  0  0
 16 22  1  0  0  0  0
 17 16  1  0  0  0  0
 18 17  1  0  0  0  0
 18 21  1  0  0  0  0
 19 15  1  6  0  0  0
 21 20  1  6  0  0  0
 21 19  1  0  0  0  0
 22 19  1  0  0  0  0
 23 24  1  0  0  0  0
 24 25  1  0  0  0  0
 25 32  1  6  0  0  0
 25 26  1  0  0  0  0
 26 27  1  0  0  0  0
 27 28  1  0  0  0  0
 29 31  1  0  0  0  0
 29 28  1  0  0  0  0
 31 30  1  0  0  0  0
 32 34  1  0  0  0  0
 33 34  1  0  0  0  0
M  END
>  <MODEL>
9

>  <REMARK>
 VINA RESULT:      -5.9      2.283      3.307
  Name = 
  12 active torsions:
  status: ('A' for Active; 'I' for Inactive)
    1  A    between atoms: C_2  and  C_10
    2  A    between atoms: C_2  and  C_27
    3  A    between atoms: C_4  and  C_13
    4  A    between atoms: C_4  and  N_19
    5  A    between atoms: C_8  and  S_9
    6  A    between atoms: C_8  and  C_24
    7  A    between atoms: S_9  and  C_10
    8  A    between atoms: C_10  and  C_22
    9  A    between atoms: C_15  and  C_22
   10  A    between atoms: C_23  and  O_33
   11  A    between atoms: C_23  and  C_34
   12  A    between atoms: C_27  and  C_34
                            x       y       z     vdW  Elec       q    Type
                         _______ _______ _______ _____ _____    ______ ____

>  <TORSDO>
F 12

$$$$
