=
 OpenBabel11062413393D

 42 46  0  0  1  0  0  0  0  0999 V2000
  188.0860  178.3640  140.1020 C   0  0  1  0  0  3  0  0  0  0  0  0
  184.5730  179.0200  141.2610 C   0  0  0  0  0  3  0  0  0  0  0  0
  191.4760  176.4680  146.4340 C   0  0  0  0  0  0  0  0  0  0  0  0
  191.2270  178.9460  142.8510 O   0  0  0  0  0  0  0  0  0  0  0  0
  189.3000  177.6270  146.2330 C   0  0  1  0  0  3  0  0  0  0  0  0
  188.6590  177.0170  140.1420 N   0  0  0  0  0  2  0  0  0  0  0  0
  188.1490  177.4750  143.0130 N   0  0  0  0  0  0  0  0  0  0  0  0
  191.5660  175.9900  144.3050 C   0  0  0  0  0  3  0  0  0  0  0  0
  191.6680  176.3690  147.8410 N   0  0  0  0  0  1  0  0  0  0  0  0
  186.9270  178.4630  141.0340 C   0  0  0  0  0  0  0  0  0  0  0  0
  185.7550  178.0070  143.1040 C   0  0  0  0  0  3  0  0  0  0  0  0
  189.7160  176.8690  141.1410 C   0  0  0  0  0  2  0  0  0  0  0  0
  184.5770  178.5250  142.5680 C   0  0  0  0  0  0  0  0  0  0  0  0
  189.0340  179.3680  140.3320 O   0  0  0  0  0  1  0  0  0  0  0  0
  190.9380  177.1540  144.3540 C   0  0  0  0  0  0  0  0  0  0  0  0
  191.8970  175.5610  145.6170 N   0  0  0  0  0  0  0  0  0  0  0  0
  188.0530  176.9400  144.2650 O   0  0  0  0  0  0  0  0  0  0  0  0
  188.2320  178.0010  145.1760 C   0  0  1  0  0  3  0  0  0  0  0  0
  190.7750  177.6050  145.7660 C   0  0  2  0  0  3  0  0  0  0  0  0
  185.7410  178.9820  140.5010 C   0  0  0  0  0  3  0  0  0  0  0  0
  189.4190  177.5520  142.4000 N   0  0  0  0  0  0  0  0  0  0  0  0
  190.5540  177.9330  143.1780 C   0  0  0  0  0  0  0  0  0  0  0  0
  186.9500  177.9760  142.3670 C   0  0  0  0  0  0  0  0  0  0  0  0
  188.5060  177.4520  148.3730 C   0  0  0  0  0  1  0  0  0  0  0  0
  189.1440  178.3080  147.4620 O   0  0  0  0  0  0  0  0  0  0  0  0
  183.3430  178.5360  143.4110 C   0  0  1  0  0  3  0  0  0  0  0  0
  183.6890  178.5530  144.8890 C   0  0  0  0  0  1  0  0  0  0  0  0
  181.2850  179.5680  142.3300 C   0  0  0  0  0  0  0  0  0  0  0  0
  180.4690  180.5290  142.3560 O   0  0  0  0  0  0  0  0  0  0  0  0
  182.5040  179.6780  143.0710 N   0  0  0  0  0  2  0  0  0  0  0  0
  181.3710  176.9260  139.6440 C   0  0  0  0  0  3  0  0  0  0  0  0
  179.2400  177.6780  143.1700 O   0  0  0  0  0  1  0  0  0  0  0  0
  179.9340  177.4640  141.9850 C   0  0  0  0  0  0  0  0  0  0  0  0
  180.3490  176.0580  140.0450 C   0  0  0  0  0  0  0  0  0  0  0  0
  181.6670  178.0630  140.3990 C   0  0  0  0  0  3  0  0  0  0  0  0
  180.9430  178.3540  141.5620 C   0  0  0  0  0  0  0  0  0  0  0  0
  179.6390  176.3310  141.2210 C   0  0  0  0  0  3  0  0  0  0  0  0
  179.6480  173.8030  139.8020 O   0  0  0  0  0  1  0  0  0  0  0  0
  180.0360  174.8640  139.2430 C   0  0  0  0  0  0  0  0  0  0  0  0
  180.1630  174.8970  137.8590 O   0  0  0  0  0  0  0  0  0  0  0  0
  186.3280  177.1790  146.1460 O   0  0  0  0  0  1  0  0  0  0  0  0
  186.9580  178.3340  145.8150 N   0  0  0  0  0  2  0  0  0  0  0  0
  1  6  1  0  0  0  0
  1 14  1  1  0  0  0
  1 10  1  0  0  0  0
  2 13  1  0  0  0  0
  3  9  1  0  0  0  0
  4 22  2  0  0  0  0
  5 25  1  1  0  0  0
  6 12  1  0  0  0  0
  7 17  1  0  0  0  0
  8 15  2  0  0  0  0
  8 16  1  0  0  0  0
 10 23  2  0  0  0  0
 12 21  1  0  0  0  0
 13 11  2  0  0  0  0
 13 26  1  0  0  0  0
 16  3  2  0  0  0  0
 17 18  1  0  0  0  0
 18 42  1  1  0  0  0
 18  5  1  0  0  0  0
 19 15  1  6  0  0  0
 19  5  1  0  0  0  0
 19  3  1  0  0  0  0
 20 10  1  0  0  0  0
 20  2  2  0  0  0  0
 21  7  1  0  0  0  0
 21 22  1  0  0  0  0
 22 15  1  0  0  0  0
 23  7  1  0  0  0  0
 23 11  1  0  0  0  0
 25 24  1  0  0  0  0
 26 27  1  1  0  0  0
 28 29  2  0  0  0  0
 28 30  1  0  0  0  0
 30 26  1  0  0  0  0
 31 34  2  0  0  0  0
 31 35  1  0  0  0  0
 33 32  1  0  0  0  0
 34 37  1  0  0  0  0
 35 36  2  0  0  0  0
 36 33  1  0  0  0  0
 36 28  1  0  0  0  0
 37 33  2  0  0  0  0
 39 38  1  0  0  0  0
 39 34  1  0  0  0  0
 40 39  2  0  0  0  0
 42 41  1  0  0  0  0
M  END
>  <MODEL>
1

>  <REMARK>
 VINA RESULT:      -9.2      0.000      0.000
  Name = 
  6 active torsions:
  status: ('A' for Active; 'I' for Inactive)
    1  A    between atoms: C_4  and  C_37
    2  A    between atoms: C_6  and  O_24
    3  A    between atoms: C_18  and  C_25
    4  A    between atoms: C_20  and  C_36
    5  A    between atoms: C_25  and  N_27
    6  A    between atoms: N_30  and  C_31
                            x       y       z     vdW  Elec       q    Type
                         _______ _______ _______ _____ _____    ______ ____

>  <TORSDO>
F 6

$$$$
=
 OpenBabel11062413393D

 42 46  0  0  1  0  0  0  0  0999 V2000
  180.9670  179.3160  143.5000 C   0  0  1  0  0  3  0  0  0  0  0  0
  184.4800  179.0180  144.7990 C   0  0  0  0  0  3  0  0  0  0  0  0
  181.7530  177.2140  136.4190 C   0  0  0  0  0  0  0  0  0  0  0  0
  180.4270  180.1130  139.3970 O   0  0  0  0  0  0  0  0  0  0  0  0
  183.5720  177.8990  137.9480 C   0  0  1  0  0  3  0  0  0  0  0  0
  180.2050  178.1330  143.0960 N   0  0  0  0  0  2  0  0  0  0  0  0
  182.4460  178.0140  141.1800 N   0  0  0  0  0  0  0  0  0  0  0  0
  180.2700  177.1070  138.0190 C   0  0  0  0  0  3  0  0  0  0  0  0
  182.4330  176.9380  135.2000 N   0  0  0  0  0  1  0  0  0  0  0  0
  182.4280  179.0180  143.4990 C   0  0  0  0  0  0  0  0  0  0  0  0
  184.4400  178.0030  142.6110 C   0  0  0  0  0  3  0  0  0  0  0  0
  179.9760  178.0580  141.6540 C   0  0  0  0  0  2  0  0  0  0  0  0
  185.1370  178.3360  143.7710 C   0  0  0  0  0  0  0  0  0  0  0  0
  180.6600  180.4500  142.7390 O   0  0  0  0  0  1  0  0  0  0  0  0
  181.0790  178.0880  138.3860 C   0  0  0  0  0  0  0  0  0  0  0  0
  180.7020  176.5580  136.7830 N   0  0  0  0  0  0  0  0  0  0  0  0
  183.1350  177.2820  140.2570 O   0  0  0  0  0  0  0  0  0  0  0  0
  183.8320  178.1990  139.4450 C   0  0  1  0  0  3  0  0  0  0  0  0
  182.1760  178.2660  137.3910 C   0  0  2  0  0  3  0  0  0  0  0  0
  183.1330  179.3490  144.6620 C   0  0  0  0  0  3  0  0  0  0  0  0
  181.1420  178.4560  140.8650 N   0  0  0  0  0  0  0  0  0  0  0  0
  180.8610  178.9420  139.5520 C   0  0  0  0  0  0  0  0  0  0  0  0
  183.0880  178.3430  142.4390 C   0  0  0  0  0  0  0  0  0  0  0  0
  185.4010  177.2200  136.7520 C   0  0  0  0  0  1  0  0  0  0  0  0
  184.6120  178.3300  137.0950 O   0  0  0  0  0  0  0  0  0  0  0  0
  186.5760  177.9510  143.8850 C   0  0  1  0  0  3  0  0  0  0  0  0
  186.7300  176.4490  144.0510 C   0  0  0  0  0  1  0  0  0  0  0  0
  188.7010  178.1070  142.4960 C   0  0  0  0  0  0  0  0  0  0  0  0
  189.1770  178.2620  141.3390 O   0  0  0  0  0  0  0  0  0  0  0  0
  187.3210  178.4130  142.7210 N   0  0  0  0  0  2  0  0  0  0  0  0
  190.4060  177.7950  145.8420 C   0  0  0  0  0  3  0  0  0  0  0  0
  190.3140  175.7020  142.2160 O   0  0  0  0  0  1  0  0  0  0  0  0
  190.3570  176.4300  143.3990 C   0  0  0  0  0  0  0  0  0  0  0  0
  191.2090  176.6620  145.6650 C   0  0  0  0  0  0  0  0  0  0  0  0
  189.5920  178.2520  144.8040 C   0  0  0  0  0  3  0  0  0  0  0  0
  189.5720  177.5890  143.5700 C   0  0  0  0  0  0  0  0  0  0  0  0
  191.1740  175.9810  144.4410 C   0  0  0  0  0  3  0  0  0  0  0  0
  192.7420  175.1290  146.6300 O   0  0  0  0  0  0  0  0  0  0  0  0
  192.0700  176.1880  146.7590 C   0  0  0  0  0  0  0  0  0  0  0  0
  192.1520  176.9040  147.9480 O   0  0  0  0  0  1  0  0  0  0  0  0
  185.6910  179.4070  140.0190 O   0  0  0  0  0  1  0  0  0  0  0  0
  185.2640  178.1480  139.7470 N   0  0  0  0  0  2  0  0  0  0  0  0
  1 14  1  6  0  0  0
  3 16  2  0  0  0  0
  4 22  2  0  0  0  0
  5 25  1  6  0  0  0
  5 18  1  0  0  0  0
  6  1  1  0  0  0  0
  7 23  1  0  0  0  0
  8 15  2  0  0  0  0
  9  3  1  0  0  0  0
 10  1  1  0  0  0  0
 10 20  2  0  0  0  0
 11 13  1  0  0  0  0
 12  6  1  0  0  0  0
 13 26  1  0  0  0  0
 13  2  2  0  0  0  0
 15 22  1  0  0  0  0
 16  8  1  0  0  0  0
 17  7  1  0  0  0  0
 18 42  1  6  0  0  0
 18 17  1  0  0  0  0
 19  3  1  6  0  0  0
 19  5  1  0  0  0  0
 19 15  1  0  0  0  0
 20  2  1  0  0  0  0
 21  7  1  0  0  0  0
 21 12  1  0  0  0  0
 22 21  1  0  0  0  0
 23 11  2  0  0  0  0
 23 10  1  0  0  0  0
 24 25  1  0  0  0  0
 26 27  1  6  0  0  0
 28 30  1  0  0  0  0
 28 36  1  0  0  0  0
 29 28  2  0  0  0  0
 30 26  1  0  0  0  0
 32 33  1  0  0  0  0
 33 36  2  0  0  0  0
 33 37  1  0  0  0  0
 34 31  1  0  0  0  0
 34 39  1  0  0  0  0
 35 31  2  0  0  0  0
 36 35  1  0  0  0  0
 37 34  2  0  0  0  0
 38 39  2  0  0  0  0
 39 40  1  0  0  0  0
 42 41  1  0  0  0  0
M  END
>  <MODEL>
2

>  <REMARK>
 VINA RESULT:      -8.6      2.897      9.837
  Name = 
  6 active torsions:
  status: ('A' for Active; 'I' for Inactive)
    1  A    between atoms: C_4  and  C_37
    2  A    between atoms: C_6  and  O_24
    3  A    between atoms: C_18  and  C_25
    4  A    between atoms: C_20  and  C_36
    5  A    between atoms: C_25  and  N_27
    6  A    between atoms: N_30  and  C_31
                            x       y       z     vdW  Elec       q    Type
                         _______ _______ _______ _____ _____    ______ ____

>  <TORSDO>
F 6

$$$$
=
 OpenBabel11062413393D

 42 46  0  0  1  0  0  0  0  0999 V2000
  179.4160  178.3700  141.5910 C   0  0  1  0  0  3  0  0  0  0  0  0
  182.1520  179.3590  143.9680 C   0  0  0  0  0  3  0  0  0  0  0  0
  183.2650  176.0030  135.6960 C   0  0  0  0  0  0  0  0  0  0  0  0
  180.2060  178.5680  137.4570 O   0  0  0  0  0  0  0  0  0  0  0  0
  184.1400  177.3820  137.5530 C   0  0  1  0  0  3  0  0  0  0  0  0
  179.2090  176.9710  141.2130 N   0  0  0  0  0  2  0  0  0  0  0  0
  181.9330  177.4180  140.1700 N   0  0  0  0  0  0  0  0  0  0  0  0
  181.3920  175.5630  136.7320 C   0  0  0  0  0  3  0  0  0  0  0  0
  184.3900  175.8540  134.8370 N   0  0  0  0  0  1  0  0  0  0  0  0
  180.7980  178.5680  142.1120 C   0  0  0  0  0  0  0  0  0  0  0  0
  183.1910  178.1910  142.1290 C   0  0  0  0  0  3  0  0  0  0  0  0
  179.5500  176.6940  139.8180 C   0  0  0  0  0  2  0  0  0  0  0  0
  183.2990  178.8390  143.3600 C   0  0  0  0  0  0  0  0  0  0  0  0
  179.1070  179.2670  140.5620 O   0  0  0  0  0  1  0  0  0  0  0  0
  181.7110  176.7840  137.1320 C   0  0  0  0  0  0  0  0  0  0  0  0
  182.3780  175.0740  135.8330 N   0  0  0  0  0  0  0  0  0  0  0  0
  183.0820  176.8700  139.6780 O   0  0  0  0  0  0  0  0  0  0  0  0
  183.7460  177.8870  138.9630 C   0  0  1  0  0  3  0  0  0  0  0  0
  183.0000  177.2190  136.5200 C   0  0  2  0  0  3  0  0  0  0  0  0
  180.9130  179.2170  143.3470 C   0  0  0  0  0  3  0  0  0  0  0  0
  180.7650  177.3770  139.3760 N   0  0  0  0  0  0  0  0  0  0  0  0
  180.8580  177.6220  137.9730 C   0  0  0  0  0  0  0  0  0  0  0  0
  181.9570  178.0530  141.4740 C   0  0  0  0  0  0  0  0  0  0  0  0
  186.3860  177.2240  137.1390 C   0  0  0  0  0  1  0  0  0  0  0  0
  185.2590  178.0500  137.0040 O   0  0  0  0  0  0  0  0  0  0  0  0
  184.6440  178.9580  143.9980 C   0  0  1  0  0  3  0  0  0  0  0  0
  185.2090  180.3580  143.8300 C   0  0  0  0  0  1  0  0  0  0  0  0
  185.6940  178.1460  146.1680 C   0  0  0  0  0  0  0  0  0  0  0  0
  185.6310  178.1720  147.4260 O   0  0  0  0  0  0  0  0  0  0  0  0
  184.5700  178.6060  145.4100 N   0  0  0  0  0  2  0  0  0  0  0  0
  188.0070  176.6890  143.5740 C   0  0  0  0  0  3  0  0  0  0  0  0
  188.3150  178.3250  147.4160 O   0  0  0  0  0  1  0  0  0  0  0  0
  188.1880  177.7530  146.1560 C   0  0  0  0  0  0  0  0  0  0  0  0
  189.2490  176.7430  144.2160 C   0  0  0  0  0  0  0  0  0  0  0  0
  186.8590  177.1520  144.2190 C   0  0  0  0  0  3  0  0  0  0  0  0
  186.9320  177.6700  145.5180 C   0  0  0  0  0  0  0  0  0  0  0  0
  189.3320  177.2830  145.5060 C   0  0  0  0  0  3  0  0  0  0  0  0
  190.3950  175.2410  142.7780 O   0  0  0  0  0  0  0  0  0  0  0  0
  190.4560  176.2470  143.5340 C   0  0  0  0  0  0  0  0  0  0  0  0
  191.6770  176.8870  143.7180 O   0  0  0  0  0  1  0  0  0  0  0  0
  184.9120  179.6910  139.7560 O   0  0  0  0  0  1  0  0  0  0  0  0
  184.9250  178.3350  139.7060 N   0  0  0  0  0  2  0  0  0  0  0  0
  1 14  1  6  0  0  0
  1 10  1  0  0  0  0
  3 16  2  0  0  0  0
  4 22  2  0  0  0  0
  5 25  1  6  0  0  0
  5 18  1  0  0  0  0
  6  1  1  0  0  0  0
  7 23  1  0  0  0  0
  8 15  2  0  0  0  0
  9  3  1  0  0  0  0
 10 20  1  0  0  0  0
 11 13  2  0  0  0  0
 12  6  1  0  0  0  0
 13  2  1  0  0  0  0
 13 26  1  0  0  0  0
 15 22  1  0  0  0  0
 16  8  1  0  0  0  0
 17  7  1  0  0  0  0
 18 17  1  0  0  0  0
 18 42  1  1  0  0  0
 19  3  1  6  0  0  0
 19 15  1  0  0  0  0
 19  5  1  0  0  0  0
 20  2  2  0  0  0  0
 21 12  1  0  0  0  0
 21  7  1  0  0  0  0
 22 21  1  0  0  0  0
 23 10  2  0  0  0  0
 23 11  1  0  0  0  0
 25 24  1  0  0  0  0
 26 27  1  1  0  0  0
 26 30  1  0  0  0  0
 28 29  2  0  0  0  0
 30 28  1  0  0  0  0
 31 34  2  0  0  0  0
 31 35  1  0  0  0  0
 33 32  1  0  0  0  0
 34 37  1  0  0  0  0
 35 36  2  0  0  0  0
 36 33  1  0  0  0  0
 36 28  1  0  0  0  0
 37 33  2  0  0  0  0
 38 39  2  0  0  0  0
 39 40  1  0  0  0  0
 39 34  1  0  0  0  0
 42 41  1  0  0  0  0
M  END
>  <MODEL>
3

>  <REMARK>
 VINA RESULT:      -8.6      3.124      9.223
  Name = 
  6 active torsions:
  status: ('A' for Active; 'I' for Inactive)
    1  A    between atoms: C_4  and  C_37
    2  A    between atoms: C_6  and  O_24
    3  A    between atoms: C_18  and  C_25
    4  A    between atoms: C_20  and  C_36
    5  A    between atoms: C_25  and  N_27
    6  A    between atoms: N_30  and  C_31
                            x       y       z     vdW  Elec       q    Type
                         _______ _______ _______ _____ _____    ______ ____

>  <TORSDO>
F 6

$$$$
=
 OpenBabel11062413393D

 42 46  0  0  1  0  0  0  0  0999 V2000
  187.2340  177.7190  144.3140 C   0  0  1  0  0  3  0  0  0  0  0  0
  184.1470  178.6130  142.3680 C   0  0  0  0  0  3  0  0  0  0  0  0
  192.2880  176.9450  138.9260 C   0  0  0  0  0  0  0  0  0  0  0  0
  190.1760  175.3800  142.4080 O   0  0  0  0  0  0  0  0  0  0  0  0
  189.8330  176.9660  138.6320 C   0  0  1  0  0  3  0  0  0  0  0  0
  188.3800  178.6270  144.3780 N   0  0  0  0  0  2  0  0  0  0  0  0
  188.2890  178.0710  141.4810 N   0  0  0  0  0  0  0  0  0  0  0  0
  192.1770  177.6120  141.0030 C   0  0  0  0  0  3  0  0  0  0  0  0
  192.7780  176.7510  137.6040 N   0  0  0  0  0  1  0  0  0  0  0  0
  186.3800  178.0410  143.1360 C   0  0  0  0  0  0  0  0  0  0  0  0
  186.0070  178.7010  140.8350 C   0  0  0  0  0  3  0  0  0  0  0  0
  189.5510  178.1320  143.6560 C   0  0  0  0  0  2  0  0  0  0  0  0
  184.6460  178.8660  141.0880 C   0  0  0  0  0  0  0  0  0  0  0  0
  187.6040  176.3690  144.3420 O   0  0  0  0  0  1  0  0  0  0  0  0
  191.0890  176.8770  140.8350 C   0  0  0  0  0  0  0  0  0  0  0  0
  192.9250  177.6560  139.7970 N   0  0  0  0  0  0  0  0  0  0  0  0
  188.7120  178.4130  140.2290 O   0  0  0  0  0  0  0  0  0  0  0  0
  188.5330  177.2770  139.4140 C   0  0  1  0  0  3  0  0  0  0  0  0
  191.0100  176.3660  139.4370 C   0  0  2  0  0  3  0  0  0  0  0  0
  185.0120  178.2090  143.3830 C   0  0  0  0  0  3  0  0  0  0  0  0
  189.2150  177.4990  142.3810 N   0  0  0  0  0  0  0  0  0  0  0  0
  190.1540  176.5340  141.9050 C   0  0  0  0  0  0  0  0  0  0  0  0
  186.8970  178.2760  141.8350 C   0  0  0  0  0  0  0  0  0  0  0  0
  189.7650  174.8970  137.6540 C   0  0  0  0  0  1  0  0  0  0  0  0
  189.6130  176.2730  137.4190 O   0  0  0  0  0  0  0  0  0  0  0  0
  183.7540  179.3140  139.9760 C   0  0  1  0  0  3  0  0  0  0  0  0
  184.5580  179.6850  138.7430 C   0  0  0  0  0  1  0  0  0  0  0  0
  181.6030  178.5160  138.8770 C   0  0  0  0  0  0  0  0  0  0  0  0
  180.9940  177.5310  138.3800 O   0  0  0  0  0  0  0  0  0  0  0  0
  182.7810  178.2780  139.6560 N   0  0  0  0  0  2  0  0  0  0  0  0
  180.8090  181.7210  137.0610 C   0  0  0  0  0  3  0  0  0  0  0  0
  180.1770  180.0890  140.8660 O   0  0  0  0  0  1  0  0  0  0  0  0
  180.4280  180.6260  139.6080 C   0  0  0  0  0  0  0  0  0  0  0  0
  180.1690  182.4750  138.0510 C   0  0  0  0  0  0  0  0  0  0  0  0
  181.2680  180.4330  137.3430 C   0  0  0  0  0  3  0  0  0  0  0  0
  181.1000  179.8800  138.6190 C   0  0  0  0  0  0  0  0  0  0  0  0
  179.9760  181.9180  139.3210 C   0  0  0  0  0  3  0  0  0  0  0  0
  179.9700  184.3810  136.6500 O   0  0  0  0  0  0  0  0  0  0  0  0
  179.6930  183.8350  137.7520 C   0  0  0  0  0  0  0  0  0  0  0  0
  178.9310  184.5310  138.6830 O   0  0  0  0  0  1  0  0  0  0  0  0
  187.6210  178.6440  137.8190 O   0  0  0  0  0  1  0  0  0  0  0  0
  187.4100  177.4880  138.4980 N   0  0  0  0  0  2  0  0  0  0  0  0
  1 14  1  6  0  0  0
  1  6  1  0  0  0  0
  2 20  1  0  0  0  0
  3 16  2  0  0  0  0
  5 25  1  6  0  0  0
  5 18  1  0  0  0  0
  5 19  1  0  0  0  0
  7 23  1  0  0  0  0
  7 21  1  0  0  0  0
  9  3  1  0  0  0  0
 10 20  2  0  0  0  0
 10  1  1  0  0  0  0
 11 13  1  0  0  0  0
 11 23  2  0  0  0  0
 12  6  1  0  0  0  0
 13  2  2  0  0  0  0
 15  8  2  0  0  0  0
 15 22  1  0  0  0  0
 16  8  1  0  0  0  0
 17  7  1  0  0  0  0
 18 42  1  6  0  0  0
 18 17  1  0  0  0  0
 19  3  1  6  0  0  0
 19 15  1  0  0  0  0
 21 12  1  0  0  0  0
 22 21  1  0  0  0  0
 22  4  2  0  0  0  0
 23 10  1  0  0  0  0
 25 24  1  0  0  0  0
 26 27  1  6  0  0  0
 26 13  1  0  0  0  0
 28 30  1  0  0  0  0
 29 28  2  0  0  0  0
 30 26  1  0  0  0  0
 31 35  2  0  0  0  0
 31 34  1  0  0  0  0
 33 32  1  0  0  0  0
 34 37  2  0  0  0  0
 35 36  1  0  0  0  0
 36 28  1  0  0  0  0
 36 33  2  0  0  0  0
 37 33  1  0  0  0  0
 38 39  2  0  0  0  0
 39 34  1  0  0  0  0
 39 40  1  0  0  0  0
 41 42  1  0  0  0  0
M  END
>  <MODEL>
4

>  <REMARK>
 VINA RESULT:      -8.6      3.091      5.826
  Name = 
  6 active torsions:
  status: ('A' for Active; 'I' for Inactive)
    1  A    between atoms: C_4  and  C_37
    2  A    between atoms: C_6  and  O_24
    3  A    between atoms: C_18  and  C_25
    4  A    between atoms: C_20  and  C_36
    5  A    between atoms: C_25  and  N_27
    6  A    between atoms: N_30  and  C_31
                            x       y       z     vdW  Elec       q    Type
                         _______ _______ _______ _____ _____    ______ ____

>  <TORSDO>
F 6

$$$$
=
 OpenBabel11062413393D

 42 46  0  0  1  0  0  0  0  0999 V2000
  191.8680  177.1100  142.2270 C   0  0  1  0  0  3  0  0  0  0  0  0
  190.3400  177.2230  138.7960 C   0  0  0  0  0  3  0  0  0  0  0  0
  185.9170  177.9240  146.5980 C   0  0  0  0  0  0  0  0  0  0  0  0
  189.9090  179.1620  145.3430 O   0  0  0  0  0  0  0  0  0  0  0  0
  186.0340  178.4350  144.1810 C   0  0  1  0  0  3  0  0  0  0  0  0
  191.5920  176.0030  143.1440 N   0  0  0  0  0  2  0  0  0  0  0  0
  188.8800  177.1170  142.8080 N   0  0  0  0  0  0  0  0  0  0  0  0
  187.8470  176.9010  146.6090 C   0  0  0  0  0  3  0  0  0  0  0  0
  184.5820  178.2730  146.9450 N   0  0  0  0  0  1  0  0  0  0  0  0
  190.8100  177.1930  141.1800 C   0  0  0  0  0  0  0  0  0  0  0  0
  188.5260  177.0760  140.3810 C   0  0  0  0  0  3  0  0  0  0  0  0
  190.7770  176.3930  144.2930 C   0  0  0  0  0  2  0  0  0  0  0  0
  188.9700  177.1310  139.0600 C   0  0  0  0  0  0  0  0  0  0  0  0
  192.0540  178.3310  142.8850 O   0  0  0  0  0  1  0  0  0  0  0  0
  187.9830  177.8500  145.6960 C   0  0  0  0  0  0  0  0  0  0  0  0
  186.5430  176.9490  147.1680 N   0  0  0  0  0  0  0  0  0  0  0  0
  187.5370  176.9500  142.9830 O   0  0  0  0  0  0  0  0  0  0  0  0
  186.9580  178.2350  142.9550 C   0  0  1  0  0  3  0  0  0  0  0  0
  186.7190  178.6290  145.5540 C   0  0  2  0  0  3  0  0  0  0  0  0
  191.2500  177.2470  139.8520 C   0  0  0  0  0  3  0  0  0  0  0  0
  189.6950  177.3140  143.9450 N   0  0  0  0  0  0  0  0  0  0  0  0
  189.2350  178.1530  145.0050 C   0  0  0  0  0  0  0  0  0  0  0  0
  189.4210  177.1200  141.4620 C   0  0  0  0  0  0  0  0  0  0  0  0
  183.8110  178.6880  143.6980 C   0  0  0  0  0  1  0  0  0  0  0  0
  185.0040  179.3780  143.9660 O   0  0  0  0  0  0  0  0  0  0  0  0
  187.9640  177.0890  137.9570 C   0  0  1  0  0  3  0  0  0  0  0  0
  187.6860  178.4790  137.4140 C   0  0  0  0  0  1  0  0  0  0  0  0
  187.5300  175.4050  136.1000 C   0  0  0  0  0  0  0  0  0  0  0  0
  187.9490  174.9300  135.0110 O   0  0  0  0  0  0  0  0  0  0  0  0
  188.4160  176.2070  136.8890 N   0  0  0  0  0  2  0  0  0  0  0  0
  183.8150  175.8600  136.5380 C   0  0  0  0  0  3  0  0  0  0  0  0
  186.7140  173.0030  137.5220 O   0  0  0  0  0  1  0  0  0  0  0  0
  185.7730  173.9790  137.2170 C   0  0  0  0  0  0  0  0  0  0  0  0
  183.4570  174.7190  137.2630 C   0  0  0  0  0  0  0  0  0  0  0  0
  185.1430  176.0700  136.1620 C   0  0  0  0  0  3  0  0  0  0  0  0
  186.1360  175.1450  136.5120 C   0  0  0  0  0  0  0  0  0  0  0  0
  184.4410  173.7790  137.5940 C   0  0  0  0  0  3  0  0  0  0  0  0
  181.3480  173.6450  137.0730 O   0  0  0  0  0  0  0  0  0  0  0  0
  182.0560  174.5050  137.6630 C   0  0  0  0  0  0  0  0  0  0  0  0
  181.5010  175.2500  138.6960 O   0  0  0  0  0  1  0  0  0  0  0  0
  186.3560  179.7180  141.3180 O   0  0  0  0  0  1  0  0  0  0  0  0
  186.2190  178.4260  141.7060 N   0  0  0  0  0  2  0  0  0  0  0  0
  1 14  1  1  0  0  0
  1  6  1  0  0  0  0
  2 13  2  0  0  0  0
  2 20  1  0  0  0  0
  3  9  1  0  0  0  0
  3 16  2  0  0  0  0
  5 25  1  6  0  0  0
  5 19  1  0  0  0  0
  6 12  1  0  0  0  0
  7 17  1  0  0  0  0
  7 21  1  0  0  0  0
  8 16  1  0  0  0  0
 10 23  1  0  0  0  0
 10  1  1  0  0  0  0
 11 23  2  0  0  0  0
 13 11  1  0  0  0  0
 15  8  2  0  0  0  0
 18 42  1  6  0  0  0
 18 17  1  0  0  0  0
 18  5  1  0  0  0  0
 19 15  1  6  0  0  0
 19  3  1  0  0  0  0
 20 10  2  0  0  0  0
 21 12  1  0  0  0  0
 21 22  1  0  0  0  0
 22  4  2  0  0  0  0
 22 15  1  0  0  0  0
 23  7  1  0  0  0  0
 24 25  1  0  0  0  0
 26 27  1  6  0  0  0
 26 13  1  0  0  0  0
 28 36  1  0  0  0  0
 28 30  1  0  0  0  0
 29 28  2  0  0  0  0
 30 26  1  0  0  0  0
 31 34  1  0  0  0  0
 33 32  1  0  0  0  0
 33 37  1  0  0  0  0
 34 37  2  0  0  0  0
 34 39  1  0  0  0  0
 35 36  1  0  0  0  0
 35 31  2  0  0  0  0
 36 33  2  0  0  0  0
 38 39  2  0  0  0  0
 39 40  1  0  0  0  0
 41 42  1  0  0  0  0
M  END
>  <MODEL>
5

>  <REMARK>
 VINA RESULT:      -7.8      3.061      5.712
  Name = 
  6 active torsions:
  status: ('A' for Active; 'I' for Inactive)
    1  A    between atoms: C_4  and  C_37
    2  A    between atoms: C_6  and  O_24
    3  A    between atoms: C_18  and  C_25
    4  A    between atoms: C_20  and  C_36
    5  A    between atoms: C_25  and  N_27
    6  A    between atoms: N_30  and  C_31
                            x       y       z     vdW  Elec       q    Type
                         _______ _______ _______ _____ _____    ______ ____

>  <TORSDO>
F 6

$$$$
=
 OpenBabel11062413393D

 42 46  0  0  1  0  0  0  0  0999 V2000
  189.1340  177.7070  145.5790 C   0  0  1  0  0  3  0  0  0  0  0  0
  185.5390  178.1460  144.5840 C   0  0  0  0  0  3  0  0  0  0  0  0
  192.4950  177.0460  138.9870 C   0  0  0  0  0  0  0  0  0  0  0  0
  191.6600  175.5380  142.9960 O   0  0  0  0  0  0  0  0  0  0  0  0
  190.0720  176.8020  139.4220 C   0  0  1  0  0  3  0  0  0  0  0  0
  190.1380  178.7260  145.2680 N   0  0  0  0  0  2  0  0  0  0  0  0
  189.2890  177.9540  142.5490 N   0  0  0  0  0  0  0  0  0  0  0  0
  192.9040  177.8490  140.9770 C   0  0  0  0  0  3  0  0  0  0  0  0
  192.6050  176.8050  137.5890 N   0  0  0  0  0  1  0  0  0  0  0  0
  187.9480  177.8560  144.6890 C   0  0  0  0  0  0  0  0  0  0  0  0
  186.8600  178.3060  142.5720 C   0  0  0  0  0  3  0  0  0  0  0  0
  191.1030  178.2980  144.2570 C   0  0  0  0  0  2  0  0  0  0  0  0
  185.6180  178.3540  143.2030 C   0  0  0  0  0  0  0  0  0  0  0  0
  189.6510  176.4060  145.5540 O   0  0  0  0  0  1  0  0  0  0  0  0
  191.9060  176.9990  141.1640 C   0  0  0  0  0  0  0  0  0  0  0  0
  193.2660  177.8780  139.6040 N   0  0  0  0  0  0  0  0  0  0  0  0
  189.2940  178.2430  141.2150 O   0  0  0  0  0  0  0  0  0  0  0  0
  189.0230  177.0390  140.5350 C   0  0  1  0  0  3  0  0  0  0  0  0
  191.4920  176.3820  139.8720 C   0  0  2  0  0  3  0  0  0  0  0  0
  186.6980  177.9060  145.3170 C   0  0  0  0  0  3  0  0  0  0  0  0
  190.4930  177.5430  143.1620 N   0  0  0  0  0  0  0  0  0  0  0  0
  191.3630  176.6440  142.4740 C   0  0  0  0  0  0  0  0  0  0  0  0
  188.0410  178.0450  143.2850 C   0  0  0  0  0  0  0  0  0  0  0  0
  189.3940  176.8270  137.2360 C   0  0  0  0  0  1  0  0  0  0  0  0
  189.5970  176.0040  138.3560 O   0  0  0  0  0  0  0  0  0  0  0  0
  184.4010  178.6280  142.3830 C   0  0  1  0  0  3  0  0  0  0  0  0
  183.3540  179.3780  143.1890 C   0  0  0  0  0  1  0  0  0  0  0  0
  184.0130  179.3010  139.9610 C   0  0  0  0  0  0  0  0  0  0  0  0
  184.1780  180.2000  139.0930 O   0  0  0  0  0  0  0  0  0  0  0  0
  184.7520  179.3780  141.1840 N   0  0  0  0  0  2  0  0  0  0  0  0
  182.6300  175.9400  138.9660 C   0  0  0  0  0  3  0  0  0  0  0  0
  181.1620  179.5580  140.4790 O   0  0  0  0  0  1  0  0  0  0  0  0
  181.6640  178.3770  139.9440 C   0  0  0  0  0  0  0  0  0  0  0  0
  181.2570  176.1060  139.1790 C   0  0  0  0  0  0  0  0  0  0  0  0
  183.5160  176.9860  139.2280 C   0  0  0  0  0  3  0  0  0  0  0  0
  183.0440  178.2180  139.7000 C   0  0  0  0  0  0  0  0  0  0  0  0
  180.7820  177.3270  139.6740 C   0  0  0  0  0  3  0  0  0  0  0  0
  180.0660  174.6750  137.7060 O   0  0  0  0  0  0  0  0  0  0  0  0
  180.3260  175.0020  138.8950 C   0  0  0  0  0  0  0  0  0  0  0  0
  179.7240  174.3070  139.9380 O   0  0  0  0  0  1  0  0  0  0  0  0
  187.4530  178.2980  139.4420 O   0  0  0  0  0  1  0  0  0  0  0  0
  187.6690  177.0710  139.9790 N   0  0  0  0  0  2  0  0  0  0  0  0
  1 14  1  6  0  0  0
  2 20  1  0  0  0  0
  3 16  2  0  0  0  0
  5 25  1  6  0  0  0
  5 19  1  0  0  0  0
  5 18  1  0  0  0  0
  6  1  1  0  0  0  0
  7 21  1  0  0  0  0
  7 23  1  0  0  0  0
  8 15  2  0  0  0  0
  9  3  1  0  0  0  0
 10 20  2  0  0  0  0
 10  1  1  0  0  0  0
 11 13  1  0  0  0  0
 11 23  2  0  0  0  0
 12  6  1  0  0  0  0
 13  2  2  0  0  0  0
 15 22  1  0  0  0  0
 16  8  1  0  0  0  0
 17  7  1  0  0  0  0
 18 42  1  6  0  0  0
 18 17  1  0  0  0  0
 19  3  1  6  0  0  0
 19 15  1  0  0  0  0
 21 12  1  0  0  0  0
 22  4  2  0  0  0  0
 22 21  1  0  0  0  0
 23 10  1  0  0  0  0
 24 25  1  0  0  0  0
 26 27  1  1  0  0  0
 26 13  1  0  0  0  0
 28 30  1  0  0  0  0
 29 28  2  0  0  0  0
 30 26  1  0  0  0  0
 31 34  2  0  0  0  0
 31 35  1  0  0  0  0
 33 32  1  0  0  0  0
 34 37  1  0  0  0  0
 35 36  2  0  0  0  0
 36 33  1  0  0  0  0
 36 28  1  0  0  0  0
 37 33  2  0  0  0  0
 38 39  2  0  0  0  0
 39 34  1  0  0  0  0
 39 40  1  0  0  0  0
 41 42  1  0  0  0  0
M  END
>  <MODEL>
6

>  <REMARK>
 VINA RESULT:      -7.7      2.237      4.752
  Name = 
  6 active torsions:
  status: ('A' for Active; 'I' for Inactive)
    1  A    between atoms: C_4  and  C_37
    2  A    between atoms: C_6  and  O_24
    3  A    between atoms: C_18  and  C_25
    4  A    between atoms: C_20  and  C_36
    5  A    between atoms: C_25  and  N_27
    6  A    between atoms: N_30  and  C_31
                            x       y       z     vdW  Elec       q    Type
                         _______ _______ _______ _____ _____    ______ ____

>  <TORSDO>
F 6

$$$$
=
 OpenBabel11062413393D

 42 46  0  0  1  0  0  0  0  0999 V2000
  187.2030  177.8540  143.8390 C   0  0  1  0  0  3  0  0  0  0  0  0
  184.2140  178.5770  141.6810 C   0  0  0  0  0  3  0  0  0  0  0  0
  192.5330  176.7540  138.7830 C   0  0  0  0  0  0  0  0  0  0  0  0
  190.2550  175.4160  142.2560 O   0  0  0  0  0  0  0  0  0  0  0  0
  190.0960  176.7280  138.3640 C   0  0  1  0  0  3  0  0  0  0  0  0
  188.3380  178.7760  143.8960 N   0  0  0  0  0  2  0  0  0  0  0  0
  188.4000  178.0160  141.0460 N   0  0  0  0  0  0  0  0  0  0  0  0
  192.3100  177.5650  140.8000 C   0  0  0  0  0  3  0  0  0  0  0  0
  193.0910  176.4720  137.5050 N   0  0  0  0  0  1  0  0  0  0  0  0
  186.4090  178.0840  142.5990 C   0  0  0  0  0  0  0  0  0  0  0  0
  186.1500  178.5760  140.2420 C   0  0  0  0  0  3  0  0  0  0  0  0
  189.5480  178.2430  143.2720 C   0  0  0  0  0  2  0  0  0  0  0  0
  184.7770  178.7440  140.4120 C   0  0  0  0  0  0  0  0  0  0  0  0
  187.5800  176.5130  143.9820 O   0  0  0  0  0  1  0  0  0  0  0  0
  191.2370  176.8080  140.6290 C   0  0  0  0  0  0  0  0  0  0  0  0
  193.1190  177.5300  139.6330 N   0  0  0  0  0  0  0  0  0  0  0  0
  188.8850  178.2730  139.7960 O   0  0  0  0  0  0  0  0  0  0  0  0
  188.7550  177.0800  139.0550 C   0  0  1  0  0  3  0  0  0  0  0  0
  191.2340  176.1990  139.2680 C   0  0  2  0  0  3  0  0  0  0  0  0
  185.0290  178.2550  142.7650 C   0  0  0  0  0  3  0  0  0  0  0  0
  189.2830  177.5180  142.0300 N   0  0  0  0  0  0  0  0  0  0  0  0
  190.2510  176.5320  141.6720 C   0  0  0  0  0  0  0  0  0  0  0  0
  186.9900  178.2310  141.3130 C   0  0  0  0  0  0  0  0  0  0  0  0
  189.9350  174.5930  137.5560 C   0  0  0  0  0  1  0  0  0  0  0  0
  189.9430  175.9500  137.1940 O   0  0  0  0  0  0  0  0  0  0  0  0
  183.9400  179.1030  139.2290 C   0  0  1  0  0  3  0  0  0  0  0  0
  183.7980  180.6090  139.0930 C   0  0  0  0  0  1  0  0  0  0  0  0
  183.8660  177.5110  137.2460 C   0  0  0  0  0  0  0  0  0  0  0  0
  184.2500  177.3060  136.0630 O   0  0  0  0  0  0  0  0  0  0  0  0
  184.5080  178.5350  138.0120 N   0  0  0  0  0  2  0  0  0  0  0  0
  181.9470  175.1500  139.4700 C   0  0  0  0  0  3  0  0  0  0  0  0
  181.1800  177.5580  136.1310 O   0  0  0  0  0  1  0  0  0  0  0  0
  181.4630  176.7380  137.2180 C   0  0  0  0  0  0  0  0  0  0  0  0
  180.6760  175.1540  138.8850 C   0  0  0  0  0  0  0  0  0  0  0  0
  182.9750  175.9240  138.9290 C   0  0  0  0  0  3  0  0  0  0  0  0
  182.7520  176.7100  137.7910 C   0  0  0  0  0  0  0  0  0  0  0  0
  180.4400  175.9570  137.7620 C   0  0  0  0  0  3  0  0  0  0  0  0
  178.9310  173.5540  138.7210 O   0  0  0  0  0  0  0  0  0  0  0  0
  179.5970  174.3310  139.4560 C   0  0  0  0  0  0  0  0  0  0  0  0
  179.3040  174.4030  140.8120 O   0  0  0  0  0  1  0  0  0  0  0  0
  187.8790  178.3590  137.3690 O   0  0  0  0  0  1  0  0  0  0  0  0
  187.6800  177.2150  138.0710 N   0  0  0  0  0  2  0  0  0  0  0  0
  1  6  1  0  0  0  0
  1 14  1  6  0  0  0
  2 20  1  0  0  0  0
  3 16  2  0  0  0  0
  5 25  1  6  0  0  0
  5 18  1  0  0  0  0
  5 19  1  0  0  0  0
  7 23  1  0  0  0  0
  7 21  1  0  0  0  0
  9  3  1  0  0  0  0
 10 20  2  0  0  0  0
 10  1  1  0  0  0  0
 11 13  1  0  0  0  0
 11 23  2  0  0  0  0
 12  6  1  0  0  0  0
 13  2  2  0  0  0  0
 15  8  2  0  0  0  0
 15 22  1  0  0  0  0
 16  8  1  0  0  0  0
 17  7  1  0  0  0  0
 18 42  1  6  0  0  0
 18 17  1  0  0  0  0
 19  3  1  6  0  0  0
 19 15  1  0  0  0  0
 21 12  1  0  0  0  0
 22 21  1  0  0  0  0
 22  4  2  0  0  0  0
 23 10  1  0  0  0  0
 25 24  1  0  0  0  0
 26 27  1  6  0  0  0
 26 13  1  0  0  0  0
 28 36  1  0  0  0  0
 28 30  1  0  0  0  0
 29 28  2  0  0  0  0
 30 26  1  0  0  0  0
 32 33  1  0  0  0  0
 33 37  2  0  0  0  0
 33 36  1  0  0  0  0
 34 39  1  0  0  0  0
 34 31  2  0  0  0  0
 35 31  1  0  0  0  0
 36 35  2  0  0  0  0
 37 34  1  0  0  0  0
 38 39  2  0  0  0  0
 39 40  1  0  0  0  0
 41 42  1  0  0  0  0
M  END
>  <MODEL>
7

>  <REMARK>
 VINA RESULT:      -7.3      2.874      5.399
  Name = 
  6 active torsions:
  status: ('A' for Active; 'I' for Inactive)
    1  A    between atoms: C_4  and  C_37
    2  A    between atoms: C_6  and  O_24
    3  A    between atoms: C_18  and  C_25
    4  A    between atoms: C_20  and  C_36
    5  A    between atoms: C_25  and  N_27
    6  A    between atoms: N_30  and  C_31
                            x       y       z     vdW  Elec       q    Type
                         _______ _______ _______ _____ _____    ______ ____

>  <TORSDO>
F 6

$$$$
=
 OpenBabel11062413393D

 42 46  0  0  1  0  0  0  0  0999 V2000
  187.1900  177.6630  144.1810 C   0  0  1  0  0  3  0  0  0  0  0  0
  184.1840  178.6950  142.1770 C   0  0  0  0  0  3  0  0  0  0  0  0
  192.3760  176.9170  138.9160 C   0  0  0  0  0  0  0  0  0  0  0  0
  190.1250  175.3060  142.2890 O   0  0  0  0  0  0  0  0  0  0  0  0
  189.9320  177.0110  138.5540 C   0  0  1  0  0  3  0  0  0  0  0  0
  188.3560  178.5390  144.3040 N   0  0  0  0  0  2  0  0  0  0  0  0
  188.3350  178.0710  141.3910 N   0  0  0  0  0  0  0  0  0  0  0  0
  192.2220  177.5260  141.0090 C   0  0  0  0  0  3  0  0  0  0  0  0
  192.8990  176.7500  137.6030 N   0  0  0  0  0  1  0  0  0  0  0  0
  186.3780  178.0430  142.9900 C   0  0  0  0  0  0  0  0  0  0  0  0
  186.0890  178.7790  140.7000 C   0  0  0  0  0  3  0  0  0  0  0  0
  189.5340  178.0350  143.6010 C   0  0  0  0  0  2  0  0  0  0  0  0
  184.7250  178.9720  140.9190 C   0  0  0  0  0  0  0  0  0  0  0  0
  187.5240  176.3040  144.1790 O   0  0  0  0  0  1  0  0  0  0  0  0
  191.1210  176.8240  140.7880 C   0  0  0  0  0  0  0  0  0  0  0  0
  193.0050  177.5850  139.8260 N   0  0  0  0  0  0  0  0  0  0  0  0
  188.8020  178.4390  140.1620 O   0  0  0  0  0  0  0  0  0  0  0  0
  188.6180  177.3320  139.3080 C   0  0  1  0  0  3  0  0  0  0  0  0
  191.0700  176.3570  139.3730 C   0  0  2  0  0  3  0  0  0  0  0  0
  185.0090  178.2390  143.2030 C   0  0  0  0  0  3  0  0  0  0  0  0
  189.2200  177.4490  142.2980 N   0  0  0  0  0  0  0  0  0  0  0  0
  190.1480  176.4740  141.8210 C   0  0  0  0  0  0  0  0  0  0  0  0
  186.9380  178.3020  141.7110 C   0  0  0  0  0  0  0  0  0  0  0  0
  189.7040  174.9730  137.5360 C   0  0  0  0  0  1  0  0  0  0  0  0
  189.7300  176.3600  137.3160 O   0  0  0  0  0  0  0  0  0  0  0  0
  183.8770  179.4750  139.7970 C   0  0  1  0  0  3  0  0  0  0  0  0
  184.1860  178.7400  138.5050 C   0  0  0  0  0  1  0  0  0  0  0  0
  181.6790  178.1960  139.8050 C   0  0  0  0  0  0  0  0  0  0  0  0
  180.5790  178.0250  140.3960 O   0  0  0  0  0  0  0  0  0  0  0  0
  182.4640  179.3480  140.1300 N   0  0  0  0  0  2  0  0  0  0  0  0
  183.2870  175.1020  138.3770 C   0  0  0  0  0  3  0  0  0  0  0  0
  181.0930  178.3760  136.9620 O   0  0  0  0  0  1  0  0  0  0  0  0
  181.8490  177.3150  137.4460 C   0  0  0  0  0  0  0  0  0  0  0  0
  183.0330  175.2370  137.0070 C   0  0  0  0  0  0  0  0  0  0  0  0
  182.8380  176.0700  139.2770 C   0  0  0  0  0  3  0  0  0  0  0  0
  182.1330  177.1920  138.8220 C   0  0  0  0  0  0  0  0  0  0  0  0
  182.3070  176.3450  136.5500 C   0  0  0  0  0  3  0  0  0  0  0  0
  183.9110  174.5490  134.9130 O   0  0  0  0  0  0  0  0  0  0  0  0
  183.5140  174.2170  136.0610 C   0  0  0  0  0  0  0  0  0  0  0  0
  183.5360  172.8770  136.4280 O   0  0  0  0  0  1  0  0  0  0  0  0
  187.7580  178.7970  137.7720 O   0  0  0  0  0  1  0  0  0  0  0  0
  187.5280  177.6000  138.3680 N   0  0  0  0  0  2  0  0  0  0  0  0
  1 14  1  6  0  0  0
  1  6  1  0  0  0  0
  2 20  1  0  0  0  0
  3 16  2  0  0  0  0
  5 25  1  6  0  0  0
  5 18  1  0  0  0  0
  5 19  1  0  0  0  0
  7 23  1  0  0  0  0
  7 21  1  0  0  0  0
  9  3  1  0  0  0  0
 10 20  2  0  0  0  0
 10  1  1  0  0  0  0
 11 13  1  0  0  0  0
 11 23  2  0  0  0  0
 12  6  1  0  0  0  0
 13  2  2  0  0  0  0
 15  8  2  0  0  0  0
 15 22  1  0  0  0  0
 16  8  1  0  0  0  0
 17  7  1  0  0  0  0
 18 42  1  6  0  0  0
 18 17  1  0  0  0  0
 19  3  1  6  0  0  0
 19 15  1  0  0  0  0
 21 12  1  0  0  0  0
 22  4  2  0  0  0  0
 22 21  1  0  0  0  0
 23 10  1  0  0  0  0
 25 24  1  0  0  0  0
 26 27  1  6  0  0  0
 26 30  1  0  0  0  0
 26 13  1  0  0  0  0
 28 30  1  0  0  0  0
 28 29  2  0  0  0  0
 31 35  1  0  0  0  0
 32 33  1  0  0  0  0
 33 36  1  0  0  0  0
 34 31  2  0  0  0  0
 36 35  2  0  0  0  0
 36 28  1  0  0  0  0
 37 34  1  0  0  0  0
 37 33  2  0  0  0  0
 38 39  2  0  0  0  0
 39 40  1  0  0  0  0
 39 34  1  0  0  0  0
 41 42  1  0  0  0  0
M  END
>  <MODEL>
8

>  <REMARK>
 VINA RESULT:      -7.3      2.663      5.279
  Name = 
  6 active torsions:
  status: ('A' for Active; 'I' for Inactive)
    1  A    between atoms: C_4  and  C_37
    2  A    between atoms: C_6  and  O_24
    3  A    between atoms: C_18  and  C_25
    4  A    between atoms: C_20  and  C_36
    5  A    between atoms: C_25  and  N_27
    6  A    between atoms: N_30  and  C_31
                            x       y       z     vdW  Elec       q    Type
                         _______ _______ _______ _____ _____    ______ ____

>  <TORSDO>
F 6

$$$$
=
 OpenBabel11062413393D

 42 46  0  0  1  0  0  0  0  0999 V2000
  191.1640  176.9770  141.2120 C   0  0  1  0  0  3  0  0  0  0  0  0
  189.3100  177.5360  137.9920 C   0  0  0  0  0  3  0  0  0  0  0  0
  185.8600  178.1550  146.2770 C   0  0  0  0  0  0  0  0  0  0  0  0
  189.8210  179.0010  144.6560 O   0  0  0  0  0  0  0  0  0  0  0  0
  185.7850  178.8340  143.9000 C   0  0  1  0  0  3  0  0  0  0  0  0
  190.8480  175.8430  142.0820 N   0  0  0  0  0  2  0  0  0  0  0  0
  188.2790  177.2950  142.1300 N   0  0  0  0  0  0  0  0  0  0  0  0
  187.6340  176.9110  146.0020 C   0  0  0  0  0  3  0  0  0  0  0  0
  184.6230  178.6330  146.7960 N   0  0  0  0  0  1  0  0  0  0  0  0
  190.0210  177.2660  140.2990 C   0  0  0  0  0  0  0  0  0  0  0  0
  187.6690  177.4850  139.7610 C   0  0  0  0  0  3  0  0  0  0  0  0
  190.2150  176.2380  143.3390 C   0  0  0  0  0  2  0  0  0  0  0  0
  187.9750  177.5890  138.4040 C   0  0  0  0  0  0  0  0  0  0  0  0
  191.5720  178.1130  141.9200 O   0  0  0  0  0  1  0  0  0  0  0  0
  187.7930  177.9050  145.1420 C   0  0  0  0  0  0  0  0  0  0  0  0
  186.4130  177.0710  146.7090 N   0  0  0  0  0  0  0  0  0  0  0  0
  186.9510  177.2770  142.4460 O   0  0  0  0  0  0  0  0  0  0  0  0
  186.5420  178.6200  142.5660 C   0  0  1  0  0  3  0  0  0  0  0  0
  186.6300  178.8380  145.1950 C   0  0  2  0  0  3  0  0  0  0  0  0
  190.3210  177.3700  138.9360 C   0  0  0  0  0  3  0  0  0  0  0  0
  189.2280  177.3050  143.1760 N   0  0  0  0  0  0  0  0  0  0  0  0
  188.9930  178.1090  144.3330 C   0  0  0  0  0  0  0  0  0  0  0  0
  188.6710  177.3380  140.7340 C   0  0  0  0  0  0  0  0  0  0  0  0
  183.5650  179.3890  143.9630 C   0  0  0  0  0  1  0  0  0  0  0  0
  184.8660  179.9070  143.8640 O   0  0  0  0  0  0  0  0  0  0  0  0
  186.8610  177.7520  137.4230 C   0  0  1  0  0  3  0  0  0  0  0  0
  187.1570  178.8690  136.4380 C   0  0  0  0  0  1  0  0  0  0  0  0
  185.3090  176.0200  136.3900 C   0  0  0  0  0  0  0  0  0  0  0  0
  185.1920  175.1210  135.5160 O   0  0  0  0  0  0  0  0  0  0  0  0
  186.6180  176.5020  136.7150 N   0  0  0  0  0  2  0  0  0  0  0  0
  182.6750  176.7180  138.9940 C   0  0  0  0  0  3  0  0  0  0  0  0
  183.5060  177.8700  135.0540 O   0  0  0  0  0  1  0  0  0  0  0  0
  183.2290  177.4490  136.3500 C   0  0  0  0  0  0  0  0  0  0  0  0
  181.7980  177.5690  138.3120 C   0  0  0  0  0  0  0  0  0  0  0  0
  183.8160  176.2240  138.3580 C   0  0  0  0  0  3  0  0  0  0  0  0
  184.0950  176.5670  137.0290 C   0  0  0  0  0  0  0  0  0  0  0  0
  182.0860  177.9350  136.9910 C   0  0  0  0  0  3  0  0  0  0  0  0
  180.4670  179.3140  139.2140 O   0  0  0  0  0  0  0  0  0  0  0  0
  180.5940  178.0820  138.9840 C   0  0  0  0  0  0  0  0  0  0  0  0
  179.5820  177.2100  139.3710 O   0  0  0  0  0  1  0  0  0  0  0  0
  184.7600  178.0360  141.2520 O   0  0  0  0  0  1  0  0  0  0  0  0
  185.7050  178.9940  141.4240 N   0  0  0  0  0  2  0  0  0  0  0  0
  1 14  1  1  0  0  0
  1  6  1  0  0  0  0
  2 13  2  0  0  0  0
  2 20  1  0  0  0  0
  3 16  2  0  0  0  0
  3  9  1  0  0  0  0
  5 25  1  6  0  0  0
  5 19  1  0  0  0  0
  6 12  1  0  0  0  0
  7 17  1  0  0  0  0
  7 21  1  0  0  0  0
  8 16  1  0  0  0  0
 10 23  1  0  0  0  0
 10  1  1  0  0  0  0
 11 23  2  0  0  0  0
 13 11  1  0  0  0  0
 15  8  2  0  0  0  0
 17 18  1  0  0  0  0
 18 42  1  6  0  0  0
 18  5  1  0  0  0  0
 19 15  1  6  0  0  0
 19  3  1  0  0  0  0
 20 10  2  0  0  0  0
 21 12  1  0  0  0  0
 21 22  1  0  0  0  0
 22  4  2  0  0  0  0
 22 15  1  0  0  0  0
 23  7  1  0  0  0  0
 25 24  1  0  0  0  0
 26 27  1  6  0  0  0
 26 13  1  0  0  0  0
 28 30  1  0  0  0  0
 28 36  1  0  0  0  0
 29 28  2  0  0  0  0
 30 26  1  0  0  0  0
 32 33  1  0  0  0  0
 33 37  2  0  0  0  0
 33 36  1  0  0  0  0
 34 39  1  0  0  0  0
 34 31  2  0  0  0  0
 35 31  1  0  0  0  0
 36 35  2  0  0  0  0
 37 34  1  0  0  0  0
 39 38  2  0  0  0  0
 39 40  1  0  0  0  0
 41 42  1  0  0  0  0
M  END
>  <MODEL>
9

>  <REMARK>
 VINA RESULT:      -7.1      2.719      5.189
  Name = 
  6 active torsions:
  status: ('A' for Active; 'I' for Inactive)
    1  A    between atoms: C_4  and  C_37
    2  A    between atoms: C_6  and  O_24
    3  A    between atoms: C_18  and  C_25
    4  A    between atoms: C_20  and  C_36
    5  A    between atoms: C_25  and  N_27
    6  A    between atoms: N_30  and  C_31
                            x       y       z     vdW  Elec       q    Type
                         _______ _______ _______ _____ _____    ______ ____

>  <TORSDO>
F 6

$$$$
