=
 OpenBabel11062416333D

 29 32  0  0  1  0  0  0  0  0999 V2000
  178.9310  179.6180  143.0410 N   0  0  0  0  0  2  0  0  0  0  0  0
  182.5220  177.5030  139.7830 C   0  0  0  0  0  2  0  0  0  0  0  0
  181.4360  179.3210  142.9710 C   0  0  2  0  0  3  0  0  0  0  0  0
  181.1860  180.2510  139.3920 O   0  0  0  0  0  0  0  0  0  0  0  0
  183.9000  177.3440  140.2270 N   0  0  0  0  0  2  0  0  0  0  0  0
  184.8730  178.6420  139.6000 S   0  0  0  0  0  0  0  0  0  0  0  0
  182.4720  178.6910  143.7990 N   0  0  0  0  0  0  0  0  0  0  0  0
  184.0360  179.8270  139.2080 O   0  0  0  0  0  0  0  0  0  0  0  0
  180.0740  178.8460  143.3860 C   0  0  0  0  0  0  0  0  0  0  0  0
  186.0150  179.1250  140.8450 C   0  0  0  0  0  3  0  0  0  0  0  0
  185.6140  179.3490  142.0930 C   0  0  0  0  0  3  0  0  0  0  0  0
  181.6070  177.7050  140.9850 C   0  0  0  0  0  2  0  0  0  0  0  0
  185.6320  178.1500  138.4010 O   0  0  0  0  0  0  0  0  0  0  0  0
  179.9260  177.7460  143.9820 O   0  0  0  0  0  0  0  0  0  0  0  0
  179.0850  180.8770  142.3350 C   0  0  0  0  0  2  0  0  0  0  0  0
  179.5510  180.6440  140.9730 N   0  0  0  0  0  2  0  0  0  0  0  0
  184.2580  179.2930  142.4140 O   0  0  0  0  0  0  0  0  0  0  0  0
  180.8000  180.0560  140.5730 C   0  0  0  0  0  0  0  0  0  0  0  0
  181.6470  179.1570  141.4540 C   0  0  1  0  0  3  0  0  0  0  0  0
  183.7540  178.7250  143.5900 C   0  0  0  0  0  0  0  0  0  0  0  0
  184.9140  178.9760  145.7870 C   0  0  0  0  0  3  0  0  0  0  0  0
  186.9130  177.5990  146.2570 C   0  0  1  0  0  3  0  0  0  0  0  0
  188.3490  177.1090  144.3460 C   0  0  0  0  0  2  0  0  0  0  0  0
  188.2840  177.8860  146.6570 N   0  0  0  0  0  2  0  0  0  0  0  0
  185.9370  177.5930  143.9820 C   0  0  0  0  0  3  0  0  0  0  0  0
  185.9940  178.7590  146.5620 C   0  0  0  0  0  3  0  0  0  0  0  0
  186.9720  177.3450  144.7950 C   0  0  0  0  0  0  0  0  0  0  0  0
  184.6440  178.0690  144.6040 C   0  0  2  0  0  3  0  0  0  0  0  0
  189.1410  177.2610  145.6410 C   0  0  0  0  0  2  0  0  0  0  0  0
  1  9  1  0  0  0  0
  2  5  1  0  0  0  0
  2 12  1  0  0  0  0
  3  9  1  1  0  0  0
  3  7  1  0  0  0  0
  4 18  2  0  0  0  0
  6  5  1  0  0  0  0
  6 10  1  0  0  0  0
  8  6  2  0  0  0  0
  9 14  2  0  0  0  0
 10 11  2  0  0  0  0
 11 17  1  0  0  0  0
 13  6  2  0  0  0  0
 15  1  1  0  0  0  0
 16 15  1  0  0  0  0
 17 20  1  0  0  0  0
 18 16  1  0  0  0  0
 18 19  1  0  0  0  0
 19 12  1  6  0  0  0
 19  3  1  0  0  0  0
 20  7  2  0  0  0  0
 21 26  2  0  0  0  0
 22 26  1  6  0  0  0
 22 24  1  0  0  0  0
 23 27  1  0  0  0  0
 23 29  1  0  0  0  0
 25 28  1  0  0  0  0
 25 27  2  0  0  0  0
 27 22  1  0  0  0  0
 28 20  1  6  0  0  0
 28 21  1  0  0  0  0
 29 24  1  0  0  0  0
M  END
>  <MODEL>
1

>  <REMARK>
 VINA RESULT:      -9.2      0.000      0.000
  Name = 
  1 active torsions:
  status: ('A' for Active; 'I' for Inactive)
    1  A    between atoms: C_21  and  C_29
                            x       y       z     vdW  Elec       q    Type
                         _______ _______ _______ _____ _____    ______ ____

>  <TORSDO>
F 1

$$$$
=
 OpenBabel11062416333D

 29 32  0  0  1  0  0  0  0  0999 V2000
  186.1950  177.7150  136.0010 N   0  0  0  0  0  2  0  0  0  0  0  0
  190.2500  174.5130  137.1390 C   0  0  0  0  0  2  0  0  0  0  0  0
  188.1130  177.6490  137.6400 C   0  0  2  0  0  3  0  0  0  0  0  0
  190.1740  176.4960  134.7820 O   0  0  0  0  0  0  0  0  0  0  0  0
  191.0360  174.7390  138.3430 N   0  0  0  0  0  2  0  0  0  0  0  0
  192.5030  175.5800  137.9390 S   0  0  0  0  0  0  0  0  0  0  0  0
  188.2890  177.6540  139.0980 N   0  0  0  0  0  0  0  0  0  0  0  0
  192.3910  176.2930  136.6210 O   0  0  0  0  0  0  0  0  0  0  0  0
  186.6860  177.3510  137.2860 C   0  0  0  0  0  0  0  0  0  0  0  0
  192.8330  176.7530  139.2060 C   0  0  0  0  0  3  0  0  0  0  0  0
  191.8820  177.5720  139.6450 C   0  0  0  0  0  3  0  0  0  0  0  0
  188.9160  175.2440  137.2430 C   0  0  0  0  0  2  0  0  0  0  0  0
  193.6330  174.5930  137.8770 O   0  0  0  0  0  0  0  0  0  0  0  0
  185.9360  176.7320  138.0870 O   0  0  0  0  0  0  0  0  0  0  0  0
  187.0550  178.4100  135.0610 C   0  0  0  0  0  2  0  0  0  0  0  0
  188.1170  177.5280  134.5940 N   0  0  0  0  0  2  0  0  0  0  0  0
  190.6260  177.5770  139.0390 O   0  0  0  0  0  0  0  0  0  0  0  0
  189.1580  176.9290  135.3840 C   0  0  0  0  0  0  0  0  0  0  0  0
  189.0830  176.7200  136.8850 C   0  0  1  0  0  3  0  0  0  0  0  0
  189.4190  177.6840  139.7400 C   0  0  0  0  0  0  0  0  0  0  0  0
  189.6870  176.4150  141.8730 C   0  0  0  0  0  3  0  0  0  0  0  0
  188.5340  177.2200  143.9060 C   0  0  1  0  0  3  0  0  0  0  0  0
  186.3590  178.2670  143.5590 C   0  0  0  0  0  2  0  0  0  0  0  0
  187.6090  176.6270  144.8610 N   0  0  0  0  0  2  0  0  0  0  0  0
  188.0360  178.2770  141.7230 C   0  0  0  0  0  3  0  0  0  0  0  0
  189.2840  176.1600  143.1320 C   0  0  0  0  0  3  0  0  0  0  0  0
  187.6940  178.0400  142.9970 C   0  0  0  0  0  0  0  0  0  0  0  0
  189.3680  177.7520  141.2370 C   0  0  2  0  0  3  0  0  0  0  0  0
  186.4280  177.5020  144.8770 C   0  0  0  0  0  2  0  0  0  0  0  0
  1  9  1  0  0  0  0
  2 12  1  0  0  0  0
  2  5  1  0  0  0  0
  3  9  1  1  0  0  0
  3  7  1  0  0  0  0
  4 18  2  0  0  0  0
  6  5  1  0  0  0  0
  6 10  1  0  0  0  0
  7 20  2  0  0  0  0
  8  6  2  0  0  0  0
  9 14  2  0  0  0  0
 10 11  2  0  0  0  0
 13  6  2  0  0  0  0
 15  1  1  0  0  0  0
 16 15  1  0  0  0  0
 16 18  1  0  0  0  0
 17 11  1  0  0  0  0
 17 20  1  0  0  0  0
 18 19  1  0  0  0  0
 19 12  1  6  0  0  0
 19  3  1  0  0  0  0
 21 26  2  0  0  0  0
 22 26  1  6  0  0  0
 22 24  1  0  0  0  0
 23 29  1  0  0  0  0
 24 29  1  0  0  0  0
 25 27  2  0  0  0  0
 27 23  1  0  0  0  0
 27 22  1  0  0  0  0
 28 20  1  6  0  0  0
 28 25  1  0  0  0  0
 28 21  1  0  0  0  0
M  END
>  <MODEL>
2

>  <REMARK>
 VINA RESULT:      -7.9      5.206      7.762
  Name = 
  1 active torsions:
  status: ('A' for Active; 'I' for Inactive)
    1  A    between atoms: C_21  and  C_29
                            x       y       z     vdW  Elec       q    Type
                         _______ _______ _______ _____ _____    ______ ____

>  <TORSDO>
F 1

$$$$
=
 OpenBabel11062416333D

 29 32  0  0  1  0  0  0  0  0999 V2000
  191.2600  176.4670  148.1420 N   0  0  0  0  0  2  0  0  0  0  0  0
  191.4020  178.4510  143.2400 C   0  0  0  0  0  2  0  0  0  0  0  0
  189.6320  176.9130  146.2650 C   0  0  2  0  0  3  0  0  0  0  0  0
  192.2680  175.5980  144.0150 O   0  0  0  0  0  0  0  0  0  0  0  0
  190.1600  178.7430  142.5390 N   0  0  0  0  0  2  0  0  0  0  0  0
  189.7900  177.4510  141.4360 S   0  0  0  0  0  0  0  0  0  0  0  0
  188.4030  177.6910  146.0640 N   0  0  0  0  0  0  0  0  0  0  0  0
  190.5020  176.1800  141.8060 O   0  0  0  0  0  0  0  0  0  0  0  0
  190.3220  177.3420  147.5270 C   0  0  0  0  0  0  0  0  0  0  0  0
  188.0550  177.1740  141.4720 C   0  0  0  0  0  3  0  0  0  0  0  0
  187.4040  177.0580  142.6260 C   0  0  0  0  0  3  0  0  0  0  0  0
  191.1390  178.3200  144.7350 C   0  0  0  0  0  2  0  0  0  0  0  0
  190.1930  177.8610  140.0480 O   0  0  0  0  0  0  0  0  0  0  0  0
  190.1260  178.4880  148.0150 O   0  0  0  0  0  0  0  0  0  0  0  0
  191.5110  175.1530  147.5780 C   0  0  0  0  0  2  0  0  0  0  0  0
  192.2000  175.2700  146.2990 N   0  0  0  0  0  2  0  0  0  0  0  0
  188.1070  177.0620  143.8310 O   0  0  0  0  0  0  0  0  0  0  0  0
  191.7050  175.8910  145.1000 C   0  0  0  0  0  0  0  0  0  0  0  0
  190.5990  176.9300  145.0660 C   0  0  1  0  0  3  0  0  0  0  0  0
  187.6730  177.7170  144.9890 C   0  0  0  0  0  0  0  0  0  0  0  0
  185.4690  178.0650  146.1090 C   0  0  0  0  0  3  0  0  0  0  0  0
  183.6450  179.1710  144.8600 C   0  0  1  0  0  3  0  0  0  0  0  0
  183.5600  178.7180  142.4650 C   0  0  0  0  0  2  0  0  0  0  0  0
  182.2700  178.8210  144.5310 N   0  0  0  0  0  2  0  0  0  0  0  0
  185.7250  178.5400  143.6750 C   0  0  0  0  0  3  0  0  0  0  0  0
  184.1580  178.3590  146.0270 C   0  0  0  0  0  3  0  0  0  0  0  0
  184.4310  178.8830  143.6330 C   0  0  0  0  0  0  0  0  0  0  0  0
  186.4140  178.5310  145.0210 C   0  0  2  0  0  3  0  0  0  0  0  0
  182.1710  178.9010  143.0680 C   0  0  0  0  0  2  0  0  0  0  0  0
  2 12  1  0  0  0  0
  3  7  1  6  0  0  0
  3  9  1  0  0  0  0
  4 18  2  0  0  0  0
  5  2  1  0  0  0  0
  6 10  1  0  0  0  0
  6  8  2  0  0  0  0
  6  5  1  0  0  0  0
  9 14  2  0  0  0  0
  9  1  1  0  0  0  0
 10 11  2  0  0  0  0
 11 17  1  0  0  0  0
 13  6  2  0  0  0  0
 15  1  1  0  0  0  0
 16 15  1  0  0  0  0
 17 20  1  0  0  0  0
 18 16  1  0  0  0  0
 19 12  1  1  0  0  0
 19 18  1  0  0  0  0
 19  3  1  0  0  0  0
 20  7  2  0  0  0  0
 22 26  1  1  0  0  0
 23 29  1  0  0  0  0
 23 27  1  0  0  0  0
 24 22  1  0  0  0  0
 25 28  1  0  0  0  0
 26 21  2  0  0  0  0
 27 25  2  0  0  0  0
 27 22  1  0  0  0  0
 28 20  1  6  0  0  0
 28 21  1  0  0  0  0
 29 24  1  0  0  0  0
M  END
>  <MODEL>
3

>  <REMARK>
 VINA RESULT:      -7.8      3.680      8.283
  Name = 
  1 active torsions:
  status: ('A' for Active; 'I' for Inactive)
    1  A    between atoms: C_21  and  C_29
                            x       y       z     vdW  Elec       q    Type
                         _______ _______ _______ _____ _____    ______ ____

>  <TORSDO>
F 1

$$$$
=
 OpenBabel11062416333D

 29 32  0  0  1  0  0  0  0  0999 V2000
  182.1630  179.0830  140.2350 N   0  0  0  0  0  2  0  0  0  0  0  0
  184.7670  175.6380  137.1790 C   0  0  0  0  0  2  0  0  0  0  0  0
  184.5110  178.7710  139.3640 C   0  0  2  0  0  3  0  0  0  0  0  0
  182.9160  177.8710  136.1400 O   0  0  0  0  0  0  0  0  0  0  0  0
  186.2180  175.7010  137.0890 N   0  0  0  0  0  2  0  0  0  0  0  0
  186.6820  176.5320  135.6330 S   0  0  0  0  0  0  0  0  0  0  0  0
  185.8580  178.6080  139.9240 N   0  0  0  0  0  0  0  0  0  0  0  0
  185.5670  177.3900  135.1030 O   0  0  0  0  0  0  0  0  0  0  0  0
  183.4730  178.5630  140.4270 C   0  0  0  0  0  0  0  0  0  0  0  0
  188.0710  177.5450  135.9950 C   0  0  0  0  0  3  0  0  0  0  0  0
  188.0790  178.3430  137.0580 C   0  0  0  0  0  3  0  0  0  0  0  0
  184.2870  176.3980  138.4100 C   0  0  0  0  0  2  0  0  0  0  0  0
  187.0680  175.5190  134.5940 O   0  0  0  0  0  0  0  0  0  0  0  0
  183.7290  177.8850  141.4580 O   0  0  0  0  0  0  0  0  0  0  0  0
  181.8490  179.8480  139.0420 C   0  0  0  0  0  2  0  0  0  0  0  0
  181.8640  178.9870  137.8650 N   0  0  0  0  0  2  0  0  0  0  0  0
  186.9410  178.4570  137.8570 O   0  0  0  0  0  0  0  0  0  0  0  0
  182.9890  178.2690  137.3310 C   0  0  0  0  0  0  0  0  0  0  0  0
  184.2270  177.8980  138.1260 C   0  0  1  0  0  3  0  0  0  0  0  0
  186.9690  178.5270  139.2550 C   0  0  0  0  0  0  0  0  0  0  0  0
  189.0890  177.2520  139.5910 C   0  0  0  0  0  3  0  0  0  0  0  0
  190.2380  177.3810  141.7760 C   0  0  1  0  0  3  0  0  0  0  0  0
  188.7960  177.5820  143.7330 C   0  0  0  0  0  2  0  0  0  0  0  0
  190.6920  176.4020  142.7540 N   0  0  0  0  0  2  0  0  0  0  0  0
  187.9870  178.3810  141.5210 C   0  0  0  0  0  3  0  0  0  0  0  0
  190.0240  176.7500  140.4200 C   0  0  0  0  0  3  0  0  0  0  0  0
  188.9620  177.9170  142.3150 C   0  0  0  0  0  0  0  0  0  0  0  0
  188.2470  178.4310  140.0330 C   0  0  2  0  0  3  0  0  0  0  0  0
  190.0580  176.7760  144.0250 C   0  0  0  0  0  2  0  0  0  0  0  0
  1  9  1  0  0  0  0
  2 12  1  0  0  0  0
  3  7  1  1  0  0  0
  3  9  1  0  0  0  0
  4 18  2  0  0  0  0
  5  2  1  0  0  0  0
  6 10  1  0  0  0  0
  6  5  1  0  0  0  0
  8  6  2  0  0  0  0
  9 14  2  0  0  0  0
 10 11  2  0  0  0  0
 11 17  1  0  0  0  0
 13  6  2  0  0  0  0
 15  1  1  0  0  0  0
 16 15  1  0  0  0  0
 17 20  1  0  0  0  0
 18 16  1  0  0  0  0
 18 19  1  0  0  0  0
 19 12  1  1  0  0  0
 19  3  1  0  0  0  0
 20  7  2  0  0  0  0
 21 28  1  0  0  0  0
 21 26  2  0  0  0  0
 22 26  1  6  0  0  0
 22 27  1  0  0  0  0
 22 24  1  0  0  0  0
 23 29  1  0  0  0  0
 24 29  1  0  0  0  0
 25 27  2  0  0  0  0
 27 23  1  0  0  0  0
 28 20  1  6  0  0  0
 28 25  1  0  0  0  0
M  END
>  <MODEL>
4

>  <REMARK>
 VINA RESULT:      -7.4      3.301      4.828
  Name = 
  1 active torsions:
  status: ('A' for Active; 'I' for Inactive)
    1  A    between atoms: C_21  and  C_29
                            x       y       z     vdW  Elec       q    Type
                         _______ _______ _______ _____ _____    ______ ____

>  <TORSDO>
F 1

$$$$
=
 OpenBabel11062416333D

 29 32  0  0  1  0  0  0  0  0999 V2000
  183.3420  175.4860  137.3900 N   0  0  0  0  0  2  0  0  0  0  0  0
  181.0030  180.0690  138.6190 C   0  0  0  0  0  2  0  0  0  0  0  0
  182.9650  176.8900  139.4530 C   0  0  2  0  0  3  0  0  0  0  0  0
  179.5290  177.4030  138.1600 O   0  0  0  0  0  0  0  0  0  0  0  0
  181.1990  180.6520  139.9390 N   0  0  0  0  0  2  0  0  0  0  0  0
  179.8320  180.2930  140.9510 S   0  0  0  0  0  0  0  0  0  0  0  0
  183.7880  177.5500  140.4750 N   0  0  0  0  0  0  0  0  0  0  0  0
  179.0570  179.1100  140.4400 O   0  0  0  0  0  0  0  0  0  0  0  0
  183.8100  176.4940  138.2780 C   0  0  0  0  0  0  0  0  0  0  0  0
  180.4200  179.9460  142.5700 C   0  0  0  0  0  3  0  0  0  0  0  0
  181.4310  179.1050  142.7650 C   0  0  0  0  0  3  0  0  0  0  0  0
  182.0830  179.0300  138.3430 C   0  0  0  0  0  2  0  0  0  0  0  0
  178.9310  181.4930  141.0020 O   0  0  0  0  0  0  0  0  0  0  0  0
  184.8970  177.0830  138.0340 O   0  0  0  0  0  0  0  0  0  0  0  0
  182.0800  174.8150  137.6470 C   0  0  0  0  0  2  0  0  0  0  0  0
  180.9660  175.7370  137.4610 N   0  0  0  0  0  2  0  0  0  0  0  0
  181.9830  178.4100  141.6890 O   0  0  0  0  0  0  0  0  0  0  0  0
  180.6930  176.9310  138.2140 C   0  0  0  0  0  0  0  0  0  0  0  0
  181.7330  177.7010  139.0080 C   0  0  1  0  0  3  0  0  0  0  0  0
  183.3550  178.1860  141.5230 C   0  0  0  0  0  0  0  0  0  0  0  0
  185.7260  178.0700  142.2950 C   0  0  0  0  0  3  0  0  0  0  0  0
  186.2800  178.7970  144.5920 C   0  0  1  0  0  3  0  0  0  0  0  0
  184.5860  178.3590  146.2920 C   0  0  0  0  0  2  0  0  0  0  0  0
  186.9510  178.1800  145.7280 N   0  0  0  0  0  2  0  0  0  0  0  0
  183.9070  178.6110  143.9130 C   0  0  0  0  0  3  0  0  0  0  0  0
  186.6230  178.0950  143.2990 C   0  0  0  0  0  3  0  0  0  0  0  0
  184.8280  178.6860  144.8830 C   0  0  0  0  0  0  0  0  0  0  0  0
  184.3740  178.7290  142.4790 C   0  0  2  0  0  3  0  0  0  0  0  0
  186.0020  178.2520  146.8470 C   0  0  0  0  0  2  0  0  0  0  0  0
  1 15  1  0  0  0  0
  1  9  1  0  0  0  0
  2  5  1  0  0  0  0
  3  9  1  6  0  0  0
  3  7  1  0  0  0  0
  4 18  2  0  0  0  0
  5  6  1  0  0  0  0
  6 13  2  0  0  0  0
  6 10  1  0  0  0  0
  7 20  2  0  0  0  0
  8  6  2  0  0  0  0
 10 11  2  0  0  0  0
 12  2  1  0  0  0  0
 14  9  2  0  0  0  0
 16 15  1  0  0  0  0
 16 18  1  0  0  0  0
 17 11  1  0  0  0  0
 18 19  1  0  0  0  0
 19 12  1  6  0  0  0
 19  3  1  0  0  0  0
 20 17  1  0  0  0  0
 21 28  1  0  0  0  0
 21 26  2  0  0  0  0
 22 26  1  6  0  0  0
 22 27  1  0  0  0  0
 22 24  1  0  0  0  0
 23 29  1  0  0  0  0
 24 29  1  0  0  0  0
 25 27  2  0  0  0  0
 27 23  1  0  0  0  0
 28 20  1  6  0  0  0
 28 25  1  0  0  0  0
M  END
>  <MODEL>
5

>  <REMARK>
 VINA RESULT:      -7.3      2.281      4.747
  Name = 
  1 active torsions:
  status: ('A' for Active; 'I' for Inactive)
    1  A    between atoms: C_21  and  C_29
                            x       y       z     vdW  Elec       q    Type
                         _______ _______ _______ _____ _____    ______ ____

>  <TORSDO>
F 1

$$$$
=
 OpenBabel11062416333D

 29 32  0  0  1  0  0  0  0  0999 V2000
  191.1030  177.3920  141.9870 N   0  0  0  0  0  2  0  0  0  0  0  0
  186.9790  176.5480  145.1900 C   0  0  0  0  0  2  0  0  0  0  0  0
  188.7490  178.2580  142.2580 C   0  0  2  0  0  3  0  0  0  0  0  0
  189.4450  178.2530  145.9000 O   0  0  0  0  0  0  0  0  0  0  0  0
  185.6810  177.1230  144.8670 N   0  0  0  0  0  2  0  0  0  0  0  0
  185.4300  178.5700  145.7980 S   0  0  0  0  0  0  0  0  0  0  0  0
  187.5290  178.3430  141.4460 N   0  0  0  0  0  0  0  0  0  0  0  0
  186.7270  179.1430  146.2970 O   0  0  0  0  0  0  0  0  0  0  0  0
  189.7280  177.3080  141.6340 C   0  0  0  0  0  0  0  0  0  0  0  0
  184.6300  179.7530  144.7740 C   0  0  0  0  0  3  0  0  0  0  0  0
  185.0740  180.0090  143.5480 C   0  0  0  0  0  3  0  0  0  0  0  0
  187.8680  176.5430  143.9520 C   0  0  0  0  0  2  0  0  0  0  0  0
  184.5440  178.2530  146.9680 O   0  0  0  0  0  0  0  0  0  0  0  0
  189.3390  176.4010  140.8500 O   0  0  0  0  0  0  0  0  0  0  0  0
  191.5610  178.4180  142.9050 C   0  0  0  0  0  2  0  0  0  0  0  0
  191.0560  178.1610  144.2490 N   0  0  0  0  0  2  0  0  0  0  0  0
  186.2440  179.4070  143.0860 O   0  0  0  0  0  0  0  0  0  0  0  0
  189.6820  178.1390  144.6700 C   0  0  0  0  0  0  0  0  0  0  0  0
  188.5030  177.9150  143.7400 C   0  0  1  0  0  3  0  0  0  0  0  0
  186.4120  178.9140  141.7860 C   0  0  0  0  0  0  0  0  0  0  0  0
  184.1670  178.0250  141.1530 C   0  0  0  0  0  3  0  0  0  0  0  0
  183.4920  178.0430  138.7750 C   0  0  1  0  0  3  0  0  0  0  0  0
  185.2770  177.6760  137.1530 C   0  0  0  0  0  2  0  0  0  0  0  0
  183.0260  177.0330  137.8350 N   0  0  0  0  0  2  0  0  0  0  0  0
  185.8190  178.6280  139.3860 C   0  0  0  0  0  3  0  0  0  0  0  0
  183.3140  177.5910  140.2050 C   0  0  0  0  0  3  0  0  0  0  0  0
  184.9300  178.2430  138.4600 C   0  0  0  0  0  0  0  0  0  0  0  0
  185.3080  178.9470  140.7720 C   0  0  2  0  0  3  0  0  0  0  0  0
  183.9470  177.0880  136.6920 C   0  0  0  0  0  2  0  0  0  0  0  0
  1 15  1  0  0  0  0
  3  7  1  6  0  0  0
  3 19  1  0  0  0  0
  5  2  1  0  0  0  0
  5  6  1  0  0  0  0
  6  8  2  0  0  0  0
  6 13  2  0  0  0  0
  7 20  2  0  0  0  0
  9  1  1  0  0  0  0
  9  3  1  0  0  0  0
 10  6  1  0  0  0  0
 11 10  2  0  0  0  0
 12  2  1  0  0  0  0
 14  9  2  0  0  0  0
 15 16  1  0  0  0  0
 16 18  1  0  0  0  0
 17 11  1  0  0  0  0
 18  4  2  0  0  0  0
 19 12  1  6  0  0  0
 19 18  1  0  0  0  0
 20 17  1  0  0  0  0
 22 26  1  1  0  0  0
 23 27  1  0  0  0  0
 24 22  1  0  0  0  0
 25 28  1  0  0  0  0
 26 21  2  0  0  0  0
 27 22  1  0  0  0  0
 27 25  2  0  0  0  0
 28 21  1  0  0  0  0
 28 20  1  1  0  0  0
 29 23  1  0  0  0  0
 29 24  1  0  0  0  0
M  END
>  <MODEL>
6

>  <REMARK>
 VINA RESULT:      -7.2      3.664      7.980
  Name = 
  1 active torsions:
  status: ('A' for Active; 'I' for Inactive)
    1  A    between atoms: C_21  and  C_29
                            x       y       z     vdW  Elec       q    Type
                         _______ _______ _______ _____ _____    ______ ____

>  <TORSDO>
F 1

$$$$
=
 OpenBabel11062416333D

 29 32  0  0  1  0  0  0  0  0999 V2000
  189.0650  178.9910  138.5470 N   0  0  0  0  0  2  0  0  0  0  0  0
  188.7510  174.9740  135.1190 C   0  0  0  0  0  2  0  0  0  0  0  0
  187.3560  177.2720  137.8450 C   0  0  2  0  0  3  0  0  0  0  0  0
  190.1680  174.8550  137.8530 O   0  0  0  0  0  0  0  0  0  0  0  0
  187.4660  174.3400  134.8620 N   0  0  0  0  0  2  0  0  0  0  0  0
  187.3410  172.8690  135.7810 S   0  0  0  0  0  0  0  0  0  0  0  0
  185.9960  177.2640  137.2910 N   0  0  0  0  0  0  0  0  0  0  0  0
  188.2920  172.8570  136.9450 O   0  0  0  0  0  0  0  0  0  0  0  0
  187.9660  178.6370  137.7160 C   0  0  0  0  0  0  0  0  0  0  0  0
  185.6940  172.7310  136.3780 C   0  0  0  0  0  3  0  0  0  0  0  0
  185.0940  173.7560  136.9760 C   0  0  0  0  0  3  0  0  0  0  0  0
  188.5380  176.3370  135.7670 C   0  0  0  0  0  2  0  0  0  0  0  0
  187.6370  171.7020  134.8830 O   0  0  0  0  0  0  0  0  0  0  0  0
  187.5560  179.4490  136.8440 O   0  0  0  0  0  0  0  0  0  0  0  0
  189.5600  178.0570  139.5410 C   0  0  0  0  0  2  0  0  0  0  0  0
  190.1960  176.9150  138.8950 N   0  0  0  0  0  2  0  0  0  0  0  0
  185.7990  174.9340  137.2220 O   0  0  0  0  0  0  0  0  0  0  0  0
  189.5730  175.9490  138.0320 C   0  0  0  0  0  0  0  0  0  0  0  0
  188.2850  176.1870  137.2650 C   0  0  1  0  0  3  0  0  0  0  0  0
  185.2610  176.2170  137.0640 C   0  0  0  0  0  0  0  0  0  0  0  0
  183.8590  176.8540  135.0980 C   0  0  0  0  0  3  0  0  0  0  0  0
  181.6040  177.7910  135.4810 C   0  0  1  0  0  3  0  0  0  0  0  0
  181.3460  179.1840  137.4670 C   0  0  0  0  0  2  0  0  0  0  0  0
  180.9170  179.0080  135.0730 N   0  0  0  0  0  2  0  0  0  0  0  0
  183.1220  177.4440  137.4060 C   0  0  0  0  0  3  0  0  0  0  0  0
  182.7910  177.5010  134.5940 C   0  0  0  0  0  3  0  0  0  0  0  0
  182.0380  178.0310  136.8810 C   0  0  0  0  0  0  0  0  0  0  0  0
  183.8680  176.4400  136.5560 C   0  0  2  0  0  3  0  0  0  0  0  0
  180.4660  179.6540  136.3130 C   0  0  0  0  0  2  0  0  0  0  0  0
  1 15  1  0  0  0  0
  2 12  1  0  0  0  0
  3  7  1  6  0  0  0
  4 18  2  0  0  0  0
  5  2  1  0  0  0  0
  5  6  1  0  0  0  0
  6 10  1  0  0  0  0
  6  8  2  0  0  0  0
  9  3  1  0  0  0  0
  9  1  1  0  0  0  0
 10 11  2  0  0  0  0
 11 17  1  0  0  0  0
 13  6  2  0  0  0  0
 14  9  2  0  0  0  0
 16 15  1  0  0  0  0
 18 16  1  0  0  0  0
 19 12  1  6  0  0  0
 19  3  1  0  0  0  0
 19 18  1  0  0  0  0
 20 17  1  0  0  0  0
 20  7  2  0  0  0  0
 21 28  1  0  0  0  0
 22 26  1  6  0  0  0
 22 27  1  0  0  0  0
 24 22  1  0  0  0  0
 24 29  1  0  0  0  0
 26 21  2  0  0  0  0
 27 25  2  0  0  0  0
 27 23  1  0  0  0  0
 28 20  1  1  0  0  0
 28 25  1  0  0  0  0
 29 23  1  0  0  0  0
M  END
>  <MODEL>
7

>  <REMARK>
 VINA RESULT:      -7.1      6.105      9.601
  Name = 
  1 active torsions:
  status: ('A' for Active; 'I' for Inactive)
    1  A    between atoms: C_21  and  C_29
                            x       y       z     vdW  Elec       q    Type
                         _______ _______ _______ _____ _____    ______ ____

>  <TORSDO>
F 1

$$$$
=
 OpenBabel11062416333D

 29 32  0  0  1  0  0  0  0  0999 V2000
  188.0690  178.6280  139.5450 N   0  0  0  0  0  2  0  0  0  0  0  0
  190.7840  176.3760  135.6020 C   0  0  0  0  0  2  0  0  0  0  0  0
  187.9460  176.5170  138.1670 C   0  0  2  0  0  3  0  0  0  0  0  0
  191.6280  176.3540  138.5650 O   0  0  0  0  0  0  0  0  0  0  0  0
  190.2400  175.2100  134.9210 N   0  0  0  0  0  2  0  0  0  0  0  0
  190.9790  173.7660  135.5460 S   0  0  0  0  0  0  0  0  0  0  0  0
  186.9790  175.8640  137.2770 N   0  0  0  0  0  0  0  0  0  0  0  0
  191.5800  173.9910  136.9060 O   0  0  0  0  0  0  0  0  0  0  0  0
  187.5530  177.9450  138.4090 C   0  0  0  0  0  0  0  0  0  0  0  0
  189.7460  172.5190  135.6570 C   0  0  0  0  0  3  0  0  0  0  0  0
  188.5670  172.7700  136.2180 C   0  0  0  0  0  3  0  0  0  0  0  0
  189.6780  177.0980  136.3640 C   0  0  0  0  0  2  0  0  0  0  0  0
  192.0520  173.3140  134.5970 O   0  0  0  0  0  0  0  0  0  0  0  0
  186.8220  178.5630  137.5890 O   0  0  0  0  0  0  0  0  0  0  0  0
  188.9300  177.9350  140.4850 C   0  0  0  0  0  2  0  0  0  0  0  0
  190.2170  177.6310  139.8700 N   0  0  0  0  0  2  0  0  0  0  0  0
  188.3240  174.0070  136.8140 O   0  0  0  0  0  0  0  0  0  0  0  0
  190.4570  176.7770  138.7390 C   0  0  0  0  0  0  0  0  0  0  0  0
  189.4110  176.4120  137.7020 C   0  0  1  0  0  3  0  0  0  0  0  0
  187.1130  174.7020  136.7100 C   0  0  0  0  0  0  0  0  0  0  0  0
  184.9800  175.2890  135.5540 C   0  0  0  0  0  3  0  0  0  0  0  0
  183.3000  173.5190  135.1550 C   0  0  1  0  0  3  0  0  0  0  0  0
  183.1400  171.7900  136.8690 C   0  0  0  0  0  2  0  0  0  0  0  0
  181.8890  173.3540  135.4770 N   0  0  0  0  0  2  0  0  0  0  0  0
  185.2750  173.0300  136.5670 C   0  0  0  0  0  3  0  0  0  0  0  0
  183.7150  174.9710  135.2160 C   0  0  0  0  0  3  0  0  0  0  0  0
  184.0340  172.7180  136.1680 C   0  0  0  0  0  0  0  0  0  0  0  0
  185.9670  174.1900  135.8890 C   0  0  2  0  0  3  0  0  0  0  0  0
  181.7900  172.0950  136.2270 C   0  0  0  0  0  2  0  0  0  0  0  0
  1 15  1  0  0  0  0
  2 12  1  0  0  0  0
  3  7  1  6  0  0  0
  3  9  1  0  0  0  0
  4 18  2  0  0  0  0
  5  6  1  0  0  0  0
  5  2  1  0  0  0  0
  6 10  1  0  0  0  0
  6  8  2  0  0  0  0
  9  1  1  0  0  0  0
 10 11  2  0  0  0  0
 11 17  1  0  0  0  0
 13  6  2  0  0  0  0
 14  9  2  0  0  0  0
 16 15  1  0  0  0  0
 18 16  1  0  0  0  0
 19 12  1  6  0  0  0
 19  3  1  0  0  0  0
 19 18  1  0  0  0  0
 20 17  1  0  0  0  0
 20  7  2  0  0  0  0
 21 28  1  0  0  0  0
 22 26  1  1  0  0  0
 22 24  1  0  0  0  0
 22 27  1  0  0  0  0
 24 29  1  0  0  0  0
 26 21  2  0  0  0  0
 27 25  2  0  0  0  0
 27 23  1  0  0  0  0
 28 25  1  0  0  0  0
 28 20  1  1  0  0  0
 29 23  1  0  0  0  0
M  END
>  <MODEL>
8

>  <REMARK>
 VINA RESULT:      -6.7      6.602     10.069
  Name = 
  1 active torsions:
  status: ('A' for Active; 'I' for Inactive)
    1  A    between atoms: C_21  and  C_29
                            x       y       z     vdW  Elec       q    Type
                         _______ _______ _______ _____ _____    ______ ____

>  <TORSDO>
F 1

$$$$
=
 OpenBabel11062416333D

 29 32  0  0  1  0  0  0  0  0999 V2000
  181.8360  179.0030  141.7060 N   0  0  0  0  0  2  0  0  0  0  0  0
  181.4640  174.8780  138.4140 C   0  0  0  0  0  2  0  0  0  0  0  0
  182.8230  178.2890  139.4950 C   0  0  2  0  0  3  0  0  0  0  0  0
  179.4010  177.1560  138.6290 O   0  0  0  0  0  0  0  0  0  0  0  0
  182.3960  174.7510  137.3030 N   0  0  0  0  0  2  0  0  0  0  0  0
  181.6440  175.3100  135.8380 S   0  0  0  0  0  0  0  0  0  0  0  0
  184.1590  178.0410  138.9390 N   0  0  0  0  0  0  0  0  0  0  0  0
  180.4790  176.2170  136.1210 O   0  0  0  0  0  0  0  0  0  0  0  0
  182.8850  178.3580  140.9930 C   0  0  0  0  0  0  0  0  0  0  0  0
  182.8460  176.1860  134.9010 C   0  0  0  0  0  3  0  0  0  0  0  0
  183.6100  177.1160  135.4670 C   0  0  0  0  0  3  0  0  0  0  0  0
  182.0160  175.8530  139.4480 C   0  0  0  0  0  2  0  0  0  0  0  0
  181.1720  174.1250  135.0460 O   0  0  0  0  0  0  0  0  0  0  0  0
  183.8200  177.8020  141.6290 O   0  0  0  0  0  0  0  0  0  0  0  0
  180.7410  179.6290  140.9860 C   0  0  0  0  0  2  0  0  0  0  0  0
  179.9120  178.6190  140.3400 N   0  0  0  0  0  2  0  0  0  0  0  0
  183.4060  177.4770  136.7980 O   0  0  0  0  0  0  0  0  0  0  0  0
  180.3090  177.7030  139.3060 C   0  0  0  0  0  0  0  0  0  0  0  0
  181.7440  177.2950  139.0250 C   0  0  1  0  0  3  0  0  0  0  0  0
  184.4380  177.7350  137.7070 C   0  0  0  0  0  0  0  0  0  0  0  0
  186.2710  176.1410  137.1300 C   0  0  0  0  0  3  0  0  0  0  0  0
  188.6190  176.8210  137.5020 C   0  0  1  0  0  3  0  0  0  0  0  0
  189.0250  178.2530  139.4350 C   0  0  0  0  0  2  0  0  0  0  0  0
  189.7450  176.2570  138.2340 N   0  0  0  0  0  2  0  0  0  0  0  0
  186.7860  178.2530  138.3520 C   0  0  0  0  0  3  0  0  0  0  0  0
  187.5650  175.7760  137.2190 C   0  0  0  0  0  3  0  0  0  0  0  0
  188.0770  177.8930  138.3750 C   0  0  0  0  0  0  0  0  0  0  0  0
  185.8840  177.5920  137.3350 C   0  0  2  0  0  3  0  0  0  0  0  0
  190.1870  177.3030  139.1650 C   0  0  0  0  0  2  0  0  0  0  0  0
  2 12  1  0  0  0  0
  3  7  1  1  0  0  0
  3  9  1  0  0  0  0
  4 18  2  0  0  0  0
  5  2  1  0  0  0  0
  6  8  2  0  0  0  0
  6  5  1  0  0  0  0
  9 14  2  0  0  0  0
  9  1  1  0  0  0  0
 10 11  2  0  0  0  0
 10  6  1  0  0  0  0
 11 17  1  0  0  0  0
 13  6  2  0  0  0  0
 15  1  1  0  0  0  0
 16 15  1  0  0  0  0
 17 20  1  0  0  0  0
 18 16  1  0  0  0  0
 19 18  1  0  0  0  0
 19 12  1  1  0  0  0
 19  3  1  0  0  0  0
 20  7  2  0  0  0  0
 21 26  2  0  0  0  0
 21 28  1  0  0  0  0
 22 26  1  1  0  0  0
 22 24  1  0  0  0  0
 22 27  1  0  0  0  0
 24 29  1  0  0  0  0
 25 27  2  0  0  0  0
 27 23  1  0  0  0  0
 28 20  1  1  0  0  0
 28 25  1  0  0  0  0
 29 23  1  0  0  0  0
M  END
>  <MODEL>
9

>  <REMARK>
 VINA RESULT:      -6.6      4.031      5.862
  Name = 
  1 active torsions:
  status: ('A' for Active; 'I' for Inactive)
    1  A    between atoms: C_21  and  C_29
                            x       y       z     vdW  Elec       q    Type
                         _______ _______ _______ _____ _____    ______ ____

>  <TORSDO>
F 1

$$$$
