=
 OpenBabel11062412243D

 37 41  0  0  1  0  0  0  0  0999 V2000
  189.0660  178.0360  141.1160 C   0  0  1  0  0  3  0  0  0  0  0  0
  188.8310  176.4750  143.1150 N   0  0  0  0  0  0  0  0  0  0  0  0
  188.6080  176.7920  141.8740 C   0  0  0  0  0  3  0  0  0  0  0  0
  189.7000  177.1460  144.0810 C   0  0  1  0  0  0  0  0  0  0  0  0
  191.7750  175.9850  144.6510 C   0  0  0  0  0  2  0  0  0  0  0  0
  191.7540  178.3280  143.8510 C   0  0  0  0  0  2  0  0  0  0  0  0
  190.7660  179.2940  144.0550 O   0  0  0  0  0  0  0  0  0  0  0  0
  190.9520  176.0320  145.9240 C   0  0  2  0  0  3  0  0  0  0  0  0
  189.5240  178.6510  144.0180 C   0  0  0  0  0  2  0  0  0  0  0  0
  189.5800  176.5320  145.4730 C   0  0  1  0  0  3  0  0  0  0  0  0
  191.6970  176.9320  146.9100 C   0  0  0  0  0  1  0  0  0  0  0  0
  191.1460  176.9610  143.6690 C   0  0  2  0  0  3  0  0  0  0  0  0
  187.4170  177.6550  146.2800 C   0  0  0  0  0  3  0  0  0  0  0  0
  185.4070  178.8460  146.9740 O   0  0  0  0  0  1  0  0  0  0  0  0
  188.7320  177.2080  146.5340 C   0  0  0  0  0  0  0  0  0  0  0  0
  186.6920  178.3920  147.2400 C   0  0  0  0  0  0  0  0  0  0  0  0
  189.3140  177.5300  147.7670 C   0  0  0  0  0  3  0  0  0  0  0  0
  187.2840  178.6960  148.4740 C   0  0  0  0  0  3  0  0  0  0  0  0
  188.5890  178.2570  148.7270 C   0  0  0  0  0  3  0  0  0  0  0  0
  189.3640  177.6650  139.6520 C   0  0  0  0  0  2  0  0  0  0  0  0
  191.1690  176.7540  138.1310 N   0  0  0  0  0  0  0  0  0  0  0  0
  190.8480  177.2930  139.3440 C   0  0  0  0  0  0  0  0  0  0  0  0
  192.4630  176.4530  137.8220 C   0  0  0  0  0  3  0  0  0  0  0  0
  193.1710  177.2040  139.9510 C   0  0  0  0  0  3  0  0  0  0  0  0
  193.4640  176.6710  138.7310 N   0  0  0  0  0  0  0  0  0  0  0  0
  191.8350  177.5300  140.2830 C   0  0  0  0  0  3  0  0  0  0  0  0
  187.7810  178.8660  141.0100 C   0  0  0  0  0  2  0  0  0  0  0  0
  186.6010  178.2440  141.7560 C   0  0  1  0  0  3  0  0  0  0  0  0
  185.2970  179.4740  140.0890 O   0  0  0  0  0  1  0  0  0  0  0  0
  185.8430  179.3920  142.4070 C   0  0  1  0  0  3  0  0  0  0  0  0
  185.2130  178.6630  141.2370 C   0  0  2  0  0  3  0  0  0  0  0  0
  185.2530  178.9550  143.5910 O   0  0  0  0  0  0  0  0  0  0  0  0
  184.0340  178.4230  143.1920 C   0  0  0  0  0  2  0  0  0  0  0  0
  182.9130  178.9930  144.0510 C   0  0  0  0  0  2  0  0  0  0  0  0
  180.4430  178.5110  143.9790 C   0  0  0  0  0  1  0  0  0  0  0  0
  181.6050  179.1910  143.2960 C   0  0  2  0  0  3  0  0  0  0  0  0
  181.7140  178.7550  141.9740 O   0  0  0  0  0  1  0  0  0  0  0  0
  1 20  1  6  0  0  0
  1  3  1  0  0  0  0
  3  2  2  0  0  0  0
  4  2  1  6  0  0  0
  4 10  1  0  0  0  0
  5  8  1  0  0  0  0
  6  7  1  0  0  0  0
  8 11  1  1  0  0  0
  9  7  1  0  0  0  0
  9  4  1  0  0  0  0
 10  8  1  0  0  0  0
 10 15  1  1  0  0  0
 12  6  1  1  0  0  0
 12  4  1  0  0  0  0
 12  5  1  0  0  0  0
 13 15  2  0  0  0  0
 13 16  1  0  0  0  0
 14 16  1  0  0  0  0
 15 17  1  0  0  0  0
 16 18  2  0  0  0  0
 17 19  2  0  0  0  0
 18 19  1  0  0  0  0
 21 22  1  0  0  0  0
 22 20  1  0  0  0  0
 22 26  2  0  0  0  0
 23 21  2  0  0  0  0
 23 25  1  0  0  0  0
 24 26  1  0  0  0  0
 25 24  2  0  0  0  0
 27  1  1  0  0  0  0
 28 27  1  6  0  0  0
 28 30  1  0  0  0  0
 30 32  1  1  0  0  0
 31 29  1  6  0  0  0
 31 28  1  0  0  0  0
 31 30  1  0  0  0  0
 33 32  1  0  0  0  0
 33 34  1  0  0  0  0
 36 35  1  1  0  0  0
 36 34  1  0  0  0  0
 37 36  1  0  0  0  0
M  END
>  <MODEL>
1

>  <REMARK>
 VINA RESULT:      -8.7      0.000      0.000
  Name = 
  11 active torsions:
  status: ('A' for Active; 'I' for Inactive)
    1  A    between atoms: N_1  and  C_9
    2  A    between atoms: C_3  and  C_16
    3  A    between atoms: C_4  and  C_6
    4  A    between atoms: C_4  and  O_25
    5  A    between atoms: C_6  and  C_12
    6  A    between atoms: C_7  and  C_15
    7  A    between atoms: C_7  and  C_18
    8  A    between atoms: C_16  and  C_18
    9  A    between atoms: C_17  and  O_25
   10  A    between atoms: C_18  and  C_21
   11  A    between atoms: C_19  and  C_33
                            x       y       z     vdW  Elec       q    Type
                         _______ _______ _______ _____ _____    ______ ____

>  <TORSDO>
F 11

$$$$
=
 OpenBabel11062412243D

 37 41  0  0  1  0  0  0  0  0999 V2000
  191.1260  177.5030  140.4240 C   0  0  1  0  0  3  0  0  0  0  0  0
  189.8490  176.2490  142.2370 N   0  0  0  0  0  0  0  0  0  0  0  0
  190.4030  176.3190  141.0620 C   0  0  0  0  0  3  0  0  0  0  0  0
  189.8930  177.2290  143.3210 C   0  0  1  0  0  0  0  0  0  0  0  0
  191.1300  176.5650  145.3230 C   0  0  0  0  0  2  0  0  0  0  0  0
  191.6090  178.6740  144.1180 C   0  0  0  0  0  2  0  0  0  0  0  0
  190.7130  179.4800  143.4130 O   0  0  0  0  0  0  0  0  0  0  0  0
  189.6820  176.7150  145.7490 C   0  0  2  0  0  3  0  0  0  0  0  0
  189.7880  178.6430  142.7820 C   0  0  0  0  0  2  0  0  0  0  0  0
  188.9130  176.8820  144.4390 C   0  0  1  0  0  3  0  0  0  0  0  0
  189.6170  177.9000  146.7140 C   0  0  0  0  0  1  0  0  0  0  0  0
  191.2690  177.2150  143.9550 C   0  0  2  0  0  3  0  0  0  0  0  0
  187.0380  178.0330  145.7610 C   0  0  0  0  0  3  0  0  0  0  0  0
  185.2090  178.9890  147.0570 O   0  0  0  0  0  1  0  0  0  0  0  0
  187.5780  177.5960  144.5320 C   0  0  0  0  0  0  0  0  0  0  0  0
  185.7400  178.5800  145.8410 C   0  0  0  0  0  0  0  0  0  0  0  0
  186.7820  177.7020  143.3840 C   0  0  0  0  0  3  0  0  0  0  0  0
  184.9610  178.6930  144.6810 C   0  0  0  0  0  3  0  0  0  0  0  0
  185.4930  178.2570  143.4620 C   0  0  0  0  0  3  0  0  0  0  0  0
  192.4840  177.0360  139.8680 C   0  0  0  0  0  2  0  0  0  0  0  0
  191.6480  175.1050  138.4630 N   0  0  0  0  0  0  0  0  0  0  0  0
  192.4200  176.2300  138.5340 C   0  0  0  0  0  0  0  0  0  0  0  0
  191.5450  174.4020  137.2990 C   0  0  0  0  0  3  0  0  0  0  0  0
  193.0070  175.9200  136.2240 C   0  0  0  0  0  3  0  0  0  0  0  0
  192.2280  174.8030  136.1820 N   0  0  0  0  0  0  0  0  0  0  0  0
  193.1170  176.6650  137.4220 C   0  0  0  0  0  3  0  0  0  0  0  0
  190.3030  177.7660  139.1580 C   0  0  0  0  0  2  0  0  0  0  0  0
  188.8460  177.3210  139.2840 C   0  0  1  0  0  3  0  0  0  0  0  0
  189.1220  176.8010  136.9080 O   0  0  0  0  0  1  0  0  0  0  0  0
  188.0240  178.2720  138.4280 C   0  0  1  0  0  3  0  0  0  0  0  0
  188.2010  176.8370  137.9720 C   0  0  2  0  0  3  0  0  0  0  0  0
  186.7540  178.4240  138.9800 O   0  0  0  0  0  0  0  0  0  0  0  0
  185.8930  177.9520  137.9980 C   0  0  0  0  0  2  0  0  0  0  0  0
  184.4480  178.1590  138.4320 C   0  0  0  0  0  2  0  0  0  0  0  0
  183.1450  178.7930  140.4900 C   0  0  0  0  0  1  0  0  0  0  0  0
  184.2900  179.1530  139.5750 C   0  0  2  0  0  3  0  0  0  0  0  0
  184.1360  180.4550  139.0950 O   0  0  0  0  0  1  0  0  0  0  0  0
  1 27  1  6  0  0  0
  1  3  1  0  0  0  0
  3  2  2  0  0  0  0
  4  2  1  6  0  0  0
  4 12  1  0  0  0  0
  4 10  1  0  0  0  0
  5  8  1  0  0  0  0
  7  6  1  0  0  0  0
  8 11  1  1  0  0  0
  9  4  1  0  0  0  0
  9  7  1  0  0  0  0
 10 15  1  1  0  0  0
 10  8  1  0  0  0  0
 12  6  1  1  0  0  0
 12  5  1  0  0  0  0
 13 16  1  0  0  0  0
 15 13  2  0  0  0  0
 16 14  1  0  0  0  0
 17 19  2  0  0  0  0
 17 15  1  0  0  0  0
 18 16  2  0  0  0  0
 19 18  1  0  0  0  0
 20  1  1  0  0  0  0
 21 22  1  0  0  0  0
 22 20  1  0  0  0  0
 23 21  2  0  0  0  0
 24 26  1  0  0  0  0
 25 24  2  0  0  0  0
 25 23  1  0  0  0  0
 26 22  2  0  0  0  0
 28 27  1  6  0  0  0
 30 32  1  1  0  0  0
 30 28  1  0  0  0  0
 31 29  1  6  0  0  0
 31 30  1  0  0  0  0
 31 28  1  0  0  0  0
 33 34  1  0  0  0  0
 33 32  1  0  0  0  0
 34 36  1  0  0  0  0
 36 35  1  6  0  0  0
 37 36  1  0  0  0  0
M  END
>  <MODEL>
2

>  <REMARK>
 VINA RESULT:      -8.4      1.895      3.381
  Name = 
  11 active torsions:
  status: ('A' for Active; 'I' for Inactive)
    1  A    between atoms: N_1  and  C_9
    2  A    between atoms: C_3  and  C_16
    3  A    between atoms: C_4  and  C_6
    4  A    between atoms: C_4  and  O_25
    5  A    between atoms: C_6  and  C_12
    6  A    between atoms: C_7  and  C_15
    7  A    between atoms: C_7  and  C_18
    8  A    between atoms: C_16  and  C_18
    9  A    between atoms: C_17  and  O_25
   10  A    between atoms: C_18  and  C_21
   11  A    between atoms: C_19  and  C_33
                            x       y       z     vdW  Elec       q    Type
                         _______ _______ _______ _____ _____    ______ ____

>  <TORSDO>
F 11

$$$$
=
 OpenBabel11062412243D

 37 41  0  0  1  0  0  0  0  0999 V2000
  188.9620  178.1840  141.0980 C   0  0  1  0  0  3  0  0  0  0  0  0
  188.8720  176.5000  143.0090 N   0  0  0  0  0  0  0  0  0  0  0  0
  188.5990  176.8730  141.7930 C   0  0  0  0  0  3  0  0  0  0  0  0
  189.7220  177.1680  143.9930 C   0  0  1  0  0  0  0  0  0  0  0  0
  191.7890  176.0100  144.5950 C   0  0  0  0  0  2  0  0  0  0  0  0
  191.7760  178.3560  143.8070 C   0  0  0  0  0  2  0  0  0  0  0  0
  190.7830  179.3180  143.9980 O   0  0  0  0  0  0  0  0  0  0  0  0
  190.9420  176.0480  145.8530 C   0  0  2  0  0  3  0  0  0  0  0  0
  189.5440  178.6730  143.9350 C   0  0  0  0  0  2  0  0  0  0  0  0
  189.5770  176.5480  145.3800 C   0  0  1  0  0  3  0  0  0  0  0  0
  191.6680  176.9450  146.8570 C   0  0  0  0  0  1  0  0  0  0  0  0
  191.1750  176.9890  143.6070 C   0  0  2  0  0  3  0  0  0  0  0  0
  187.3830  177.6250  146.1660 C   0  0  0  0  0  3  0  0  0  0  0  0
  185.3420  178.7720  146.8370 O   0  0  0  0  0  1  0  0  0  0  0  0
  188.7090  177.2160  146.4290 C   0  0  0  0  0  0  0  0  0  0  0  0
  186.6370  178.3560  147.1130 C   0  0  0  0  0  0  0  0  0  0  0  0
  189.2800  177.5720  147.6580 C   0  0  0  0  0  3  0  0  0  0  0  0
  187.2170  178.6930  148.3440 C   0  0  0  0  0  3  0  0  0  0  0  0
  188.5330  178.2930  148.6060 C   0  0  0  0  0  3  0  0  0  0  0  0
  189.6950  177.8800  139.7790 C   0  0  0  0  0  2  0  0  0  0  0  0
  188.5550  178.9490  137.7890 N   0  0  0  0  0  0  0  0  0  0  0  0
  188.7890  177.8130  138.5100 C   0  0  0  0  0  0  0  0  0  0  0  0
  187.7970  178.9120  136.6550 C   0  0  0  0  0  3  0  0  0  0  0  0
  187.4560  176.5870  136.9300 C   0  0  0  0  0  3  0  0  0  0  0  0
  187.2410  177.7360  136.2290 N   0  0  0  0  0  0  0  0  0  0  0  0
  188.2470  176.6080  138.1030 C   0  0  0  0  0  3  0  0  0  0  0  0
  187.6020  178.7110  140.6290 C   0  0  0  0  0  2  0  0  0  0  0  0
  186.4370  178.2220  141.4890 C   0  0  1  0  0  3  0  0  0  0  0  0
  185.1160  179.5370  139.9030 O   0  0  0  0  0  1  0  0  0  0  0  0
  185.8510  179.4500  142.1680 C   0  0  1  0  0  3  0  0  0  0  0  0
  185.0550  178.7620  141.0770 C   0  0  2  0  0  3  0  0  0  0  0  0
  185.3260  179.0960  143.4090 O   0  0  0  0  0  0  0  0  0  0  0  0
  184.1580  178.4100  143.1070 C   0  0  0  0  0  2  0  0  0  0  0  0
  183.0330  178.8690  144.0260 C   0  0  0  0  0  2  0  0  0  0  0  0
  180.5360  178.5510  144.0220 C   0  0  0  0  0  1  0  0  0  0  0  0
  181.7230  179.1410  143.2990 C   0  0  2  0  0  3  0  0  0  0  0  0
  181.7690  178.6750  141.9830 O   0  0  0  0  0  1  0  0  0  0  0  0
  1 20  1  6  0  0  0
  1  3  1  0  0  0  0
  3  2  2  0  0  0  0
  4  2  1  6  0  0  0
  4 10  1  0  0  0  0
  5  8  1  0  0  0  0
  6  7  1  0  0  0  0
  8 11  1  1  0  0  0
  9  4  1  0  0  0  0
  9  7  1  0  0  0  0
 10  8  1  0  0  0  0
 10 15  1  1  0  0  0
 12  6  1  1  0  0  0
 12  4  1  0  0  0  0
 12  5  1  0  0  0  0
 13 15  2  0  0  0  0
 13 16  1  0  0  0  0
 14 16  1  0  0  0  0
 15 17  1  0  0  0  0
 16 18  2  0  0  0  0
 17 19  2  0  0  0  0
 18 19  1  0  0  0  0
 21 22  1  0  0  0  0
 22 20  1  0  0  0  0
 23 21  2  0  0  0  0
 24 26  1  0  0  0  0
 25 23  1  0  0  0  0
 25 24  2  0  0  0  0
 26 22  2  0  0  0  0
 27  1  1  0  0  0  0
 28 27  1  6  0  0  0
 28 30  1  0  0  0  0
 30 32  1  1  0  0  0
 31 29  1  6  0  0  0
 31 28  1  0  0  0  0
 31 30  1  0  0  0  0
 33 32  1  0  0  0  0
 33 34  1  0  0  0  0
 36 35  1  1  0  0  0
 36 34  1  0  0  0  0
 37 36  1  0  0  0  0
M  END
>  <MODEL>
3

>  <REMARK>
 VINA RESULT:      -8.4      1.433      2.040
  Name = 
  11 active torsions:
  status: ('A' for Active; 'I' for Inactive)
    1  A    between atoms: N_1  and  C_9
    2  A    between atoms: C_3  and  C_16
    3  A    between atoms: C_4  and  C_6
    4  A    between atoms: C_4  and  O_25
    5  A    between atoms: C_6  and  C_12
    6  A    between atoms: C_7  and  C_15
    7  A    between atoms: C_7  and  C_18
    8  A    between atoms: C_16  and  C_18
    9  A    between atoms: C_17  and  O_25
   10  A    between atoms: C_18  and  C_21
   11  A    between atoms: C_19  and  C_33
                            x       y       z     vdW  Elec       q    Type
                         _______ _______ _______ _____ _____    ______ ____

>  <TORSDO>
F 11

$$$$
=
 OpenBabel11062412243D

 37 41  0  0  1  0  0  0  0  0999 V2000
  188.2800  178.1230  141.8060 C   0  0  1  0  0  3  0  0  0  0  0  0
  189.4510  176.3360  143.1930 N   0  0  0  0  0  0  0  0  0  0  0  0
  188.8050  176.7270  142.1350 C   0  0  0  0  0  3  0  0  0  0  0  0
  189.9800  177.1500  144.2870 C   0  0  1  0  0  0  0  0  0  0  0  0
  191.8310  176.1800  145.5550 C   0  0  0  0  0  2  0  0  0  0  0  0
  191.9750  178.4260  144.5260 C   0  0  0  0  0  2  0  0  0  0  0  0
  190.9430  179.3460  144.3270 O   0  0  0  0  0  0  0  0  0  0  0  0
  190.6700  176.3020  146.5240 C   0  0  2  0  0  3  0  0  0  0  0  0
  189.7860  178.6280  144.0070 C   0  0  0  0  0  2  0  0  0  0  0  0
  189.4750  176.6710  145.6450 C   0  0  1  0  0  3  0  0  0  0  0  0
  191.0680  177.3390  147.5760 C   0  0  0  0  0  1  0  0  0  0  0  0
  191.4870  177.0140  144.3310 C   0  0  2  0  0  3  0  0  0  0  0  0
  187.1770  177.8160  145.6440 C   0  0  0  0  0  3  0  0  0  0  0  0
  185.0620  179.0230  145.5820 O   0  0  0  0  0  1  0  0  0  0  0  0
  188.3350  177.3960  146.3350 C   0  0  0  0  0  0  0  0  0  0  0  0
  186.1870  178.5970  146.2750 C   0  0  0  0  0  0  0  0  0  0  0  0
  188.4890  177.7910  147.6700 C   0  0  0  0  0  3  0  0  0  0  0  0
  186.3490  178.9730  147.6160 C   0  0  0  0  0  3  0  0  0  0  0  0
  187.4970  178.5620  148.3020 C   0  0  0  0  0  3  0  0  0  0  0  0
  188.3820  178.3660  140.2890 C   0  0  0  0  0  2  0  0  0  0  0  0
  188.9500  176.6000  138.5680 N   0  0  0  0  0  0  0  0  0  0  0  0
  189.4000  177.4560  139.5330 C   0  0  0  0  0  0  0  0  0  0  0  0
  189.8210  175.8210  137.8660 C   0  0  0  0  0  3  0  0  0  0  0  0
  191.6410  176.7130  139.0860 C   0  0  0  0  0  3  0  0  0  0  0  0
  191.1650  175.8700  138.1270 N   0  0  0  0  0  0  0  0  0  0  0  0
  190.7510  177.5340  139.8170 C   0  0  0  0  0  3  0  0  0  0  0  0
  186.7710  177.9860  142.0360 C   0  0  0  0  0  2  0  0  0  0  0  0
  185.9760  179.2000  141.5540 C   0  0  1  0  0  3  0  0  0  0  0  0
  184.1500  178.0910  142.7490 O   0  0  0  0  0  1  0  0  0  0  0  0
  184.9340  178.6790  140.5760 C   0  0  1  0  0  3  0  0  0  0  0  0
  184.4830  179.1880  141.9310 C   0  0  2  0  0  3  0  0  0  0  0  0
  184.6680  179.6480  139.6110 O   0  0  0  0  0  0  0  0  0  0  0  0
  184.3590  178.9200  138.4700 C   0  0  0  0  0  2  0  0  0  0  0  0
  185.5150  177.9940  138.1150 C   0  0  0  0  0  2  0  0  0  0  0  0
  186.5590  177.0890  136.0110 C   0  0  0  0  0  1  0  0  0  0  0  0
  186.1790  178.3280  136.7860 C   0  0  2  0  0  3  0  0  0  0  0  0
  187.2950  179.1450  136.9700 O   0  0  0  0  0  1  0  0  0  0  0  0
  1 20  1  6  0  0  0
  1 27  1  0  0  0  0
  1  3  1  0  0  0  0
  3  2  2  0  0  0  0
  4  2  1  6  0  0  0
  4 12  1  0  0  0  0
  4 10  1  0  0  0  0
  5  8  1  0  0  0  0
  7  6  1  0  0  0  0
  8 11  1  1  0  0  0
  9  4  1  0  0  0  0
  9  7  1  0  0  0  0
 10 15  1  1  0  0  0
 10  8  1  0  0  0  0
 12  6  1  1  0  0  0
 12  5  1  0  0  0  0
 13 16  2  0  0  0  0
 13 15  1  0  0  0  0
 14 16  1  0  0  0  0
 15 17  2  0  0  0  0
 16 18  1  0  0  0  0
 17 19  1  0  0  0  0
 18 19  2  0  0  0  0
 21 22  1  0  0  0  0
 22 26  2  0  0  0  0
 22 20  1  0  0  0  0
 23 25  1  0  0  0  0
 23 21  2  0  0  0  0
 24 26  1  0  0  0  0
 25 24  2  0  0  0  0
 28 31  1  0  0  0  0
 28 27  1  1  0  0  0
 30 32  1  6  0  0  0
 30 28  1  0  0  0  0
 30 31  1  0  0  0  0
 31 29  1  1  0  0  0
 33 32  1  0  0  0  0
 34 33  1  0  0  0  0
 36 35  1  1  0  0  0
 36 37  1  0  0  0  0
 36 34  1  0  0  0  0
M  END
>  <MODEL>
4

>  <REMARK>
 VINA RESULT:      -8.1      1.674      3.149
  Name = 
  11 active torsions:
  status: ('A' for Active; 'I' for Inactive)
    1  A    between atoms: N_1  and  C_9
    2  A    between atoms: C_3  and  C_16
    3  A    between atoms: C_4  and  C_6
    4  A    between atoms: C_4  and  O_25
    5  A    between atoms: C_6  and  C_12
    6  A    between atoms: C_7  and  C_15
    7  A    between atoms: C_7  and  C_18
    8  A    between atoms: C_16  and  C_18
    9  A    between atoms: C_17  and  O_25
   10  A    between atoms: C_18  and  C_21
   11  A    between atoms: C_19  and  C_33
                            x       y       z     vdW  Elec       q    Type
                         _______ _______ _______ _____ _____    ______ ____

>  <TORSDO>
F 11

$$$$
=
 OpenBabel11062412243D

 37 41  0  0  1  0  0  0  0  0999 V2000
  188.2950  178.1710  141.6200 C   0  0  1  0  0  3  0  0  0  0  0  0
  189.4910  176.3990  143.0060 N   0  0  0  0  0  0  0  0  0  0  0  0
  188.8580  176.7870  141.9380 C   0  0  0  0  0  3  0  0  0  0  0  0
  189.9660  177.2110  144.1250 C   0  0  1  0  0  0  0  0  0  0  0  0
  191.7820  176.2570  145.4540 C   0  0  0  0  0  2  0  0  0  0  0  0
  191.9310  178.5150  144.4500 C   0  0  0  0  0  2  0  0  0  0  0  0
  190.8930  179.4210  144.2210 O   0  0  0  0  0  0  0  0  0  0  0  0
  190.5840  176.3530  146.3800 C   0  0  2  0  0  3  0  0  0  0  0  0
  189.7600  178.6890  143.8510 C   0  0  0  0  0  2  0  0  0  0  0  0
  189.4180  176.7130  145.4590 C   0  0  1  0  0  3  0  0  0  0  0  0
  190.9260  177.3860  147.4540 C   0  0  0  0  0  1  0  0  0  0  0  0
  191.4720  177.0970  144.2250 C   0  0  2  0  0  3  0  0  0  0  0  0
  187.1190  177.8520  145.3750 C   0  0  0  0  0  3  0  0  0  0  0  0
  185.0050  179.0570  145.2420 O   0  0  0  0  0  1  0  0  0  0  0  0
  188.2410  177.4130  146.1110 C   0  0  0  0  0  0  0  0  0  0  0  0
  186.0950  178.6120  145.9780 C   0  0  0  0  0  0  0  0  0  0  0  0
  188.3250  177.7680  147.4640 C   0  0  0  0  0  3  0  0  0  0  0  0
  186.1860  178.9480  147.3360 C   0  0  0  0  0  3  0  0  0  0  0  0
  187.3000  178.5180  148.0670 C   0  0  0  0  0  3  0  0  0  0  0  0
  188.3970  178.4310  140.1060 C   0  0  0  0  0  2  0  0  0  0  0  0
  188.7790  176.6150  138.3860 N   0  0  0  0  0  0  0  0  0  0  0  0
  189.3230  177.4510  139.3190 C   0  0  0  0  0  0  0  0  0  0  0  0
  189.5690  175.7750  137.6580 C   0  0  0  0  0  3  0  0  0  0  0  0
  191.4920  176.5640  138.7890 C   0  0  0  0  0  3  0  0  0  0  0  0
  190.9230  175.7420  137.8620 N   0  0  0  0  0  0  0  0  0  0  0  0
  190.6860  177.4470  139.5450 C   0  0  0  0  0  3  0  0  0  0  0  0
  186.7890  177.9880  141.8410 C   0  0  0  0  0  2  0  0  0  0  0  0
  185.9710  179.2240  141.4670 C   0  0  1  0  0  3  0  0  0  0  0  0
  184.1240  177.8950  142.3670 O   0  0  0  0  0  1  0  0  0  0  0  0
  185.0240  178.8010  140.3550 C   0  0  1  0  0  3  0  0  0  0  0  0
  184.4580  179.1040  141.7280 C   0  0  2  0  0  3  0  0  0  0  0  0
  184.7780  179.8810  139.5100 O   0  0  0  0  0  0  0  0  0  0  0  0
  183.4760  179.6830  139.0690 C   0  0  0  0  0  2  0  0  0  0  0  0
  183.3690  178.3450  138.3500 C   0  0  0  0  0  2  0  0  0  0  0  0
  182.6430  176.1230  139.2860 C   0  0  0  0  0  1  0  0  0  0  0  0
  182.1990  177.4910  138.8230 C   0  0  2  0  0  3  0  0  0  0  0  0
  181.2250  177.3740  137.8300 O   0  0  0  0  0  1  0  0  0  0  0  0
  1 20  1  6  0  0  0
  1 27  1  0  0  0  0
  1  3  1  0  0  0  0
  3  2  2  0  0  0  0
  4  2  1  6  0  0  0
  4 12  1  0  0  0  0
  4 10  1  0  0  0  0
  5  8  1  0  0  0  0
  7  6  1  0  0  0  0
  8 11  1  1  0  0  0
  9  4  1  0  0  0  0
  9  7  1  0  0  0  0
 10 15  1  1  0  0  0
 10  8  1  0  0  0  0
 12  6  1  1  0  0  0
 12  5  1  0  0  0  0
 13 16  2  0  0  0  0
 13 15  1  0  0  0  0
 14 16  1  0  0  0  0
 15 17  2  0  0  0  0
 16 18  1  0  0  0  0
 17 19  1  0  0  0  0
 18 19  2  0  0  0  0
 21 22  1  0  0  0  0
 22 26  2  0  0  0  0
 22 20  1  0  0  0  0
 23 25  1  0  0  0  0
 23 21  2  0  0  0  0
 24 26  1  0  0  0  0
 25 24  2  0  0  0  0
 28 31  1  0  0  0  0
 28 27  1  1  0  0  0
 30 32  1  6  0  0  0
 30 28  1  0  0  0  0
 30 31  1  0  0  0  0
 31 29  1  1  0  0  0
 33 32  1  0  0  0  0
 34 36  1  0  0  0  0
 34 33  1  0  0  0  0
 36 35  1  6  0  0  0
 37 36  1  0  0  0  0
M  END
>  <MODEL>
5

>  <REMARK>
 VINA RESULT:      -8.0      1.725      2.408
  Name = 
  11 active torsions:
  status: ('A' for Active; 'I' for Inactive)
    1  A    between atoms: N_1  and  C_9
    2  A    between atoms: C_3  and  C_16
    3  A    between atoms: C_4  and  C_6
    4  A    between atoms: C_4  and  O_25
    5  A    between atoms: C_6  and  C_12
    6  A    between atoms: C_7  and  C_15
    7  A    between atoms: C_7  and  C_18
    8  A    between atoms: C_16  and  C_18
    9  A    between atoms: C_17  and  O_25
   10  A    between atoms: C_18  and  C_21
   11  A    between atoms: C_19  and  C_33
                            x       y       z     vdW  Elec       q    Type
                         _______ _______ _______ _____ _____    ______ ____

>  <TORSDO>
F 11

$$$$
=
 OpenBabel11062412243D

 37 41  0  0  1  0  0  0  0  0999 V2000
  185.1800  177.6810  138.3080 C   0  0  1  0  0  3  0  0  0  0  0  0
  183.2890  179.2530  138.9730 N   0  0  0  0  0  0  0  0  0  0  0  0
  184.3180  178.9400  138.2420 C   0  0  0  0  0  3  0  0  0  0  0  0
  182.5880  178.4270  139.9550 C   0  0  1  0  0  0  0  0  0  0  0  0
  180.2670  179.0400  140.4170 C   0  0  0  0  0  2  0  0  0  0  0  0
  180.9150  176.7470  139.7460 C   0  0  0  0  0  2  0  0  0  0  0  0
  182.1090  176.0790  140.0230 O   0  0  0  0  0  0  0  0  0  0  0  0
  181.0310  179.2670  141.7080 C   0  0  2  0  0  3  0  0  0  0  0  0
  183.1460  177.0170  139.9780 C   0  0  0  0  0  2  0  0  0  0  0  0
  182.5000  179.1160  141.3140 C   0  0  1  0  0  3  0  0  0  0  0  0
  180.5070  178.2520  142.7250 C   0  0  0  0  0  1  0  0  0  0  0  0
  181.1580  178.2140  139.5030 C   0  0  2  0  0  3  0  0  0  0  0  0
  183.1660  178.9700  143.7900 C   0  0  0  0  0  3  0  0  0  0  0  0
  183.8330  178.9770  146.1330 O   0  0  0  0  0  1  0  0  0  0  0  0
  183.4550  178.7320  142.4280 C   0  0  0  0  0  0  0  0  0  0  0  0
  184.1190  178.7210  144.7990 C   0  0  0  0  0  0  0  0  0  0  0  0
  184.7300  178.2550  142.0960 C   0  0  0  0  0  3  0  0  0  0  0  0
  185.3860  178.2310  144.4520 C   0  0  0  0  0  3  0  0  0  0  0  0
  185.6770  177.9980  143.1030 C   0  0  0  0  0  3  0  0  0  0  0  0
  184.9320  176.8220  137.0550 C   0  0  0  0  0  2  0  0  0  0  0  0
  186.6280  174.9530  136.8790 N   0  0  0  0  0  0  0  0  0  0  0  0
  185.3480  175.3230  137.1780 C   0  0  0  0  0  0  0  0  0  0  0  0
  187.0290  173.6560  137.0130 C   0  0  0  0  0  3  0  0  0  0  0  0
  184.8630  173.0360  137.7360 C   0  0  0  0  0  3  0  0  0  0  0  0
  186.1470  172.6960  137.4340 N   0  0  0  0  0  0  0  0  0  0  0  0
  184.4350  174.3790  137.6110 C   0  0  0  0  0  3  0  0  0  0  0  0
  186.5970  178.2230  138.0840 C   0  0  0  0  0  2  0  0  0  0  0  0
  187.4760  178.1410  139.3320 C   0  0  1  0  0  3  0  0  0  0  0  0
  189.0260  179.4340  137.9470 O   0  0  0  0  0  1  0  0  0  0  0  0
  188.6880  177.3020  138.9560 C   0  0  1  0  0  3  0  0  0  0  0  0
  188.8660  178.7890  139.1880 C   0  0  2  0  0  3  0  0  0  0  0  0
  189.1440  176.6060  140.0730 O   0  0  0  0  0  0  0  0  0  0  0  0
  188.8650  177.4480  141.1410 C   0  0  0  0  0  2  0  0  0  0  0  0
  188.8990  176.6620  142.4450 C   0  0  0  0  0  2  0  0  0  0  0  0
  188.9870  177.3990  144.8510 C   0  0  0  0  0  1  0  0  0  0  0  0
  189.7280  177.3270  143.5370 C   0  0  2  0  0  3  0  0  0  0  0  0
  190.1490  178.5990  143.1470 O   0  0  0  0  0  1  0  0  0  0  0  0
  1 20  1  6  0  0  0
  3  1  1  0  0  0  0
  3  2  2  0  0  0  0
  4  2  1  6  0  0  0
  4  9  1  0  0  0  0
  4 10  1  0  0  0  0
  5  8  1  0  0  0  0
  6  7  1  0  0  0  0
  8 11  1  1  0  0  0
  9  7  1  0  0  0  0
 10  8  1  0  0  0  0
 10 15  1  1  0  0  0
 12  6  1  1  0  0  0
 12  4  1  0  0  0  0
 12  5  1  0  0  0  0
 13 16  1  0  0  0  0
 15 13  2  0  0  0  0
 16 14  1  0  0  0  0
 17 15  1  0  0  0  0
 17 19  2  0  0  0  0
 18 16  2  0  0  0  0
 19 18  1  0  0  0  0
 20 22  1  0  0  0  0
 21 23  2  0  0  0  0
 21 22  1  0  0  0  0
 22 26  2  0  0  0  0
 23 25  1  0  0  0  0
 25 24  2  0  0  0  0
 26 24  1  0  0  0  0
 27  1  1  0  0  0  0
 28 27  1  6  0  0  0
 30 31  1  0  0  0  0
 30 28  1  0  0  0  0
 30 32  1  1  0  0  0
 31 29  1  6  0  0  0
 31 28  1  0  0  0  0
 32 33  1  0  0  0  0
 33 34  1  0  0  0  0
 34 36  1  0  0  0  0
 36 35  1  1  0  0  0
 37 36  1  0  0  0  0
M  END
>  <MODEL>
6

>  <REMARK>
 VINA RESULT:      -7.3      3.501      7.483
  Name = 
  11 active torsions:
  status: ('A' for Active; 'I' for Inactive)
    1  A    between atoms: N_1  and  C_9
    2  A    between atoms: C_3  and  C_16
    3  A    between atoms: C_4  and  C_6
    4  A    between atoms: C_4  and  O_25
    5  A    between atoms: C_6  and  C_12
    6  A    between atoms: C_7  and  C_15
    7  A    between atoms: C_7  and  C_18
    8  A    between atoms: C_16  and  C_18
    9  A    between atoms: C_17  and  O_25
   10  A    between atoms: C_18  and  C_21
   11  A    between atoms: C_19  and  C_33
                            x       y       z     vdW  Elec       q    Type
                         _______ _______ _______ _____ _____    ______ ____

>  <TORSDO>
F 11

$$$$
=
 OpenBabel11062412243D

 37 41  0  0  1  0  0  0  0  0999 V2000
  188.6730  178.4630  140.5800 C   0  0  1  0  0  3  0  0  0  0  0  0
  188.6960  176.6420  142.3620 N   0  0  0  0  0  0  0  0  0  0  0  0
  188.3360  177.1100  141.2030 C   0  0  0  0  0  3  0  0  0  0  0  0
  189.6370  177.2190  143.3210 C   0  0  1  0  0  0  0  0  0  0  0  0
  191.6420  175.9000  143.7880 C   0  0  0  0  0  2  0  0  0  0  0  0
  191.7600  178.2650  143.0650 C   0  0  0  0  0  2  0  0  0  0  0  0
  190.8480  179.2880  143.3300 O   0  0  0  0  0  0  0  0  0  0  0  0
  190.8610  175.9600  145.0870 C   0  0  2  0  0  3  0  0  0  0  0  0
  189.5640  178.7340  143.3120 C   0  0  0  0  0  2  0  0  0  0  0  0
  189.5150  176.5680  144.6960 C   0  0  1  0  0  3  0  0  0  0  0  0
  191.6960  176.7730  146.0780 C   0  0  0  0  0  1  0  0  0  0  0  0
  191.0540  176.9500  142.8580 C   0  0  2  0  0  3  0  0  0  0  0  0
  189.3300  177.5660  147.0540 C   0  0  0  0  0  3  0  0  0  0  0  0
  189.1430  178.3730  149.3450 O   0  0  0  0  0  1  0  0  0  0  0  0
  188.7470  177.2640  145.8040 C   0  0  0  0  0  0  0  0  0  0  0  0
  188.5660  178.0980  148.1130 C   0  0  0  0  0  0  0  0  0  0  0  0
  187.3740  177.4890  145.6420 C   0  0  0  0  0  3  0  0  0  0  0  0
  187.1950  178.3310  147.9320 C   0  0  0  0  0  3  0  0  0  0  0  0
  186.6140  178.0290  146.6950 C   0  0  0  0  0  3  0  0  0  0  0  0
  188.9300  178.2850  139.0730 C   0  0  0  0  0  2  0  0  0  0  0  0
  189.3200  176.0760  137.9020 N   0  0  0  0  0  0  0  0  0  0  0  0
  189.8310  177.0720  138.6860 C   0  0  0  0  0  0  0  0  0  0  0  0
  190.0970  175.0230  137.5190 C   0  0  0  0  0  3  0  0  0  0  0  0
  191.9360  175.9130  138.7110 C   0  0  0  0  0  3  0  0  0  0  0  0
  191.4010  174.9350  137.9270 N   0  0  0  0  0  0  0  0  0  0  0  0
  191.1460  177.0170  139.1100 C   0  0  0  0  0  3  0  0  0  0  0  0
  187.3310  179.2030  140.6200 C   0  0  0  0  0  2  0  0  0  0  0  0
  186.1250  178.2640  140.5970 C   0  0  1  0  0  3  0  0  0  0  0  0
  185.9650  179.0270  138.2770 O   0  0  0  0  0  1  0  0  0  0  0  0
  184.8960  179.1380  140.4040 C   0  0  1  0  0  3  0  0  0  0  0  0
  185.3470  178.2410  139.2690 C   0  0  2  0  0  3  0  0  0  0  0  0
  183.8000  178.5570  141.0390 O   0  0  0  0  0  0  0  0  0  0  0  0
  184.2990  178.1250  142.2610 C   0  0  0  0  0  2  0  0  0  0  0  0
  183.2810  178.3940  143.3610 C   0  0  0  0  0  2  0  0  0  0  0  0
  185.0720  180.0370  144.0180 C   0  0  0  0  0  1  0  0  0  0  0  0
  183.6760  179.5320  144.2930 C   0  0  2  0  0  3  0  0  0  0  0  0
  183.5510  179.1560  145.6310 O   0  0  0  0  0  1  0  0  0  0  0  0
  1 20  1  6  0  0  0
  1 27  1  0  0  0  0
  1  3  1  0  0  0  0
  3  2  2  0  0  0  0
  4  2  1  6  0  0  0
  4 10  1  0  0  0  0
  5  8  1  0  0  0  0
  6  7  1  0  0  0  0
  8 11  1  1  0  0  0
  9  4  1  0  0  0  0
  9  7  1  0  0  0  0
 10  8  1  0  0  0  0
 10 15  1  1  0  0  0
 12  6  1  1  0  0  0
 12  4  1  0  0  0  0
 12  5  1  0  0  0  0
 13 16  1  0  0  0  0
 15 13  2  0  0  0  0
 16 14  1  0  0  0  0
 17 15  1  0  0  0  0
 17 19  2  0  0  0  0
 18 16  2  0  0  0  0
 19 18  1  0  0  0  0
 21 22  1  0  0  0  0
 22 20  1  0  0  0  0
 22 26  2  0  0  0  0
 23 21  2  0  0  0  0
 23 25  1  0  0  0  0
 24 26  1  0  0  0  0
 25 24  2  0  0  0  0
 28 27  1  6  0  0  0
 30 28  1  0  0  0  0
 30 32  1  1  0  0  0
 31 29  1  6  0  0  0
 31 30  1  0  0  0  0
 31 28  1  0  0  0  0
 32 33  1  0  0  0  0
 33 34  1  0  0  0  0
 34 36  1  0  0  0  0
 36 35  1  6  0  0  0
 36 37  1  0  0  0  0
M  END
>  <MODEL>
7

>  <REMARK>
 VINA RESULT:      -7.3      1.429      2.040
  Name = 
  11 active torsions:
  status: ('A' for Active; 'I' for Inactive)
    1  A    between atoms: N_1  and  C_9
    2  A    between atoms: C_3  and  C_16
    3  A    between atoms: C_4  and  C_6
    4  A    between atoms: C_4  and  O_25
    5  A    between atoms: C_6  and  C_12
    6  A    between atoms: C_7  and  C_15
    7  A    between atoms: C_7  and  C_18
    8  A    between atoms: C_16  and  C_18
    9  A    between atoms: C_17  and  O_25
   10  A    between atoms: C_18  and  C_21
   11  A    between atoms: C_19  and  C_33
                            x       y       z     vdW  Elec       q    Type
                         _______ _______ _______ _____ _____    ______ ____

>  <TORSDO>
F 11

$$$$
=
 OpenBabel11062412243D

 37 41  0  0  1  0  0  0  0  0999 V2000
  189.6770  177.6000  140.2610 C   0  0  1  0  0  3  0  0  0  0  0  0
  188.4090  177.3640  142.4580 N   0  0  0  0  0  0  0  0  0  0  0  0
  188.4830  177.2900  141.1610 C   0  0  0  0  0  3  0  0  0  0  0  0
  189.4830  177.6210  143.4150 C   0  0  1  0  0  0  0  0  0  0  0  0
  191.3440  176.0350  143.3980 C   0  0  0  0  0  2  0  0  0  0  0  0
  191.6920  178.4750  143.1680 C   0  0  0  0  0  2  0  0  0  0  0  0
  190.9340  179.5050  143.7280 O   0  0  0  0  0  0  0  0  0  0  0  0
  190.6770  175.8930  144.7530 C   0  0  2  0  0  3  0  0  0  0  0  0
  189.5940  179.1020  143.7250 C   0  0  0  0  0  2  0  0  0  0  0  0
  189.3880  176.7060  144.6330 C   0  0  1  0  0  3  0  0  0  0  0  0
  191.6780  176.3830  145.8010 C   0  0  0  0  0  1  0  0  0  0  0  0
  190.8180  177.3150  142.7680 C   0  0  2  0  0  3  0  0  0  0  0  0
  187.4600  177.6640  146.0310 C   0  0  0  0  0  3  0  0  0  0  0  0
  185.6580  178.7070  147.2950 O   0  0  0  0  0  1  0  0  0  0  0  0
  188.7980  177.2210  145.9310 C   0  0  0  0  0  0  0  0  0  0  0  0
  186.9680  178.2560  147.2130 C   0  0  0  0  0  0  0  0  0  0  0  0
  189.6390  177.4000  147.0370 C   0  0  0  0  0  3  0  0  0  0  0  0
  187.8180  178.4160  148.3160 C   0  0  0  0  0  3  0  0  0  0  0  0
  189.1450  177.9820  148.2180 C   0  0  0  0  0  3  0  0  0  0  0  0
  190.0840  176.3290  139.4920 C   0  0  0  0  0  2  0  0  0  0  0  0
  191.6110  175.9850  137.5050 N   0  0  0  0  0  0  0  0  0  0  0  0
  191.4840  176.3810  138.8060 C   0  0  0  0  0  0  0  0  0  0  0  0
  192.8160  176.0550  136.8690 C   0  0  0  0  0  3  0  0  0  0  0  0
  193.8290  176.9050  138.8310 C   0  0  0  0  0  3  0  0  0  0  0  0
  193.9270  176.5070  137.5310 N   0  0  0  0  0  0  0  0  0  0  0  0
  192.5840  176.8480  139.5010 C   0  0  0  0  0  3  0  0  0  0  0  0
  189.0640  178.4850  139.1700 C   0  0  0  0  0  2  0  0  0  0  0  0
  188.2110  177.7050  138.1700 C   0  0  1  0  0  3  0  0  0  0  0  0
  188.4400  179.7520  136.8480 O   0  0  0  0  0  1  0  0  0  0  0  0
  186.8790  178.4320  138.0730 C   0  0  1  0  0  3  0  0  0  0  0  0
  187.8320  178.4830  136.8960 C   0  0  2  0  0  3  0  0  0  0  0  0
  185.8620  177.5190  137.8010 O   0  0  0  0  0  0  0  0  0  0  0  0
  184.9270  177.7350  138.8050 C   0  0  0  0  0  2  0  0  0  0  0  0
  183.6500  178.3120  138.2090 C   0  0  0  0  0  2  0  0  0  0  0  0
  181.9300  180.1500  138.2670 C   0  0  0  0  0  1  0  0  0  0  0  0
  183.1350  179.5430  138.9450 C   0  0  2  0  0  3  0  0  0  0  0  0
  184.1400  180.4990  139.0960 O   0  0  0  0  0  1  0  0  0  0  0  0
  1 27  1  6  0  0  0
  1  3  1  0  0  0  0
  3  2  2  0  0  0  0
  4  2  1  6  0  0  0
  4  9  1  0  0  0  0
  4 10  1  0  0  0  0
  5  8  1  0  0  0  0
  6  7  1  0  0  0  0
  8 11  1  1  0  0  0
  9  7  1  0  0  0  0
 10  8  1  0  0  0  0
 10 15  1  1  0  0  0
 12  6  1  1  0  0  0
 12  5  1  0  0  0  0
 12  4  1  0  0  0  0
 13 16  1  0  0  0  0
 15 13  2  0  0  0  0
 15 17  1  0  0  0  0
 16 14  1  0  0  0  0
 16 18  2  0  0  0  0
 17 19  2  0  0  0  0
 19 18  1  0  0  0  0
 20  1  1  0  0  0  0
 21 22  1  0  0  0  0
 22 20  1  0  0  0  0
 22 26  2  0  0  0  0
 23 21  2  0  0  0  0
 23 25  1  0  0  0  0
 24 26  1  0  0  0  0
 25 24  2  0  0  0  0
 28 27  1  1  0  0  0
 30 32  1  6  0  0  0
 30 28  1  0  0  0  0
 31 29  1  1  0  0  0
 31 30  1  0  0  0  0
 31 28  1  0  0  0  0
 32 33  1  0  0  0  0
 34 33  1  0  0  0  0
 34 36  1  0  0  0  0
 36 35  1  6  0  0  0
 36 37  1  0  0  0  0
M  END
>  <MODEL>
8

>  <REMARK>
 VINA RESULT:      -7.2      2.230      2.756
  Name = 
  11 active torsions:
  status: ('A' for Active; 'I' for Inactive)
    1  A    between atoms: N_1  and  C_9
    2  A    between atoms: C_3  and  C_16
    3  A    between atoms: C_4  and  C_6
    4  A    between atoms: C_4  and  O_25
    5  A    between atoms: C_6  and  C_12
    6  A    between atoms: C_7  and  C_15
    7  A    between atoms: C_7  and  C_18
    8  A    between atoms: C_16  and  C_18
    9  A    between atoms: C_17  and  O_25
   10  A    between atoms: C_18  and  C_21
   11  A    between atoms: C_19  and  C_33
                            x       y       z     vdW  Elec       q    Type
                         _______ _______ _______ _____ _____    ______ ____

>  <TORSDO>
F 11

$$$$
=
 OpenBabel11062412243D

 37 41  0  0  1  0  0  0  0  0999 V2000
  184.5970  178.6560  140.6730 C   0  0  1  0  0  3  0  0  0  0  0  0
  183.2370  179.5860  138.7300 N   0  0  0  0  0  0  0  0  0  0  0  0
  184.1830  179.6800  139.6170 C   0  0  0  0  0  3  0  0  0  0  0  0
  182.4110  178.4250  138.4020 C   0  0  1  0  0  0  0  0  0  0  0  0
  181.0920  177.4900  140.2360 C   0  0  0  0  0  2  0  0  0  0  0  0
  180.0670  178.1540  138.0830 C   0  0  0  0  0  2  0  0  0  0  0  0
  180.6440  178.1140  136.8120 O   0  0  0  0  0  0  0  0  0  0  0  0
  182.0930  176.4190  139.8440 C   0  0  2  0  0  3  0  0  0  0  0  0
  181.9960  178.4460  136.9440 C   0  0  0  0  0  2  0  0  0  0  0  0
  183.0480  177.1230  138.8800 C   0  0  1  0  0  3  0  0  0  0  0  0
  181.2970  175.2520  139.2560 C   0  0  0  0  0  1  0  0  0  0  0  0
  181.0860  178.5310  139.1280 C   0  0  2  0  0  3  0  0  0  0  0  0
  183.7330  174.8230  137.9690 C   0  0  0  0  0  3  0  0  0  0  0  0
  184.4810  172.6300  137.2170 O   0  0  0  0  0  1  0  0  0  0  0  0
  183.7910  176.2330  137.9030 C   0  0  0  0  0  0  0  0  0  0  0  0
  184.5290  174.0150  137.1310 C   0  0  0  0  0  0  0  0  0  0  0  0
  184.6780  176.8170  136.9890 C   0  0  0  0  0  3  0  0  0  0  0  0
  185.4020  174.6140  136.2130 C   0  0  0  0  0  3  0  0  0  0  0  0
  185.4650  176.0110  136.1480 C   0  0  0  0  0  3  0  0  0  0  0  0
  186.0000  179.0030  141.2020 C   0  0  0  0  0  2  0  0  0  0  0  0
  187.0990  178.2530  139.0500 N   0  0  0  0  0  0  0  0  0  0  0  0
  187.1890  178.3770  140.4070 C   0  0  0  0  0  0  0  0  0  0  0  0
  188.1370  177.7430  138.3260 C   0  0  0  0  0  3  0  0  0  0  0  0
  189.3990  177.4400  140.3050 C   0  0  0  0  0  3  0  0  0  0  0  0
  189.2840  177.3300  138.9510 N   0  0  0  0  0  0  0  0  0  0  0  0
  188.3340  177.9750  141.0680 C   0  0  0  0  0  3  0  0  0  0  0  0
  183.6850  178.9970  141.8570 C   0  0  0  0  0  2  0  0  0  0  0  0
  184.2480  178.5370  143.2020 C   0  0  1  0  0  3  0  0  0  0  0  0
  181.9770  179.0290  143.9720 O   0  0  0  0  0  1  0  0  0  0  0  0
  184.2430  179.7530  144.1160 C   0  0  1  0  0  3  0  0  0  0  0  0
  183.2630  178.6280  144.3820 C   0  0  2  0  0  3  0  0  0  0  0  0
  185.2980  179.6660  145.0210 O   0  0  0  0  0  0  0  0  0  0  0  0
  185.0230  178.5230  145.7610 C   0  0  0  0  0  2  0  0  0  0  0  0
  186.3050  177.9880  146.3840 C   0  0  0  0  0  2  0  0  0  0  0  0
  187.2190  176.8270  144.3460 C   0  0  0  0  0  1  0  0  0  0  0  0
  187.4630  177.8800  145.4000 C   0  0  2  0  0  3  0  0  0  0  0  0
  188.6670  177.6320  146.0620 O   0  0  0  0  0  1  0  0  0  0  0  0
  1  3  1  6  0  0  0
  1 20  1  0  0  0  0
  1 27  1  0  0  0  0
  2  3  2  0  0  0  0
  4  2  1  1  0  0  0
  4 10  1  0  0  0  0
  4 12  1  0  0  0  0
  7  9  1  0  0  0  0
  7  6  1  0  0  0  0
  8 11  1  6  0  0  0
  8  5  1  0  0  0  0
  9  4  1  0  0  0  0
 10 15  1  6  0  0  0
 10  8  1  0  0  0  0
 12  6  1  6  0  0  0
 12  5  1  0  0  0  0
 15 13  1  0  0  0  0
 16 14  1  0  0  0  0
 16 13  2  0  0  0  0
 17 15  2  0  0  0  0
 18 16  1  0  0  0  0
 19 18  2  0  0  0  0
 19 17  1  0  0  0  0
 21 22  1  0  0  0  0
 22 26  2  0  0  0  0
 22 20  1  0  0  0  0
 23 25  1  0  0  0  0
 23 21  2  0  0  0  0
 24 26  1  0  0  0  0
 25 24  2  0  0  0  0
 28 27  1  6  0  0  0
 28 30  1  0  0  0  0
 28 31  1  0  0  0  0
 30 31  1  0  0  0  0
 30 32  1  1  0  0  0
 31 29  1  6  0  0  0
 32 33  1  0  0  0  0
 33 34  1  0  0  0  0
 36 35  1  6  0  0  0
 36 37  1  0  0  0  0
 36 34  1  0  0  0  0
M  END
>  <MODEL>
9

>  <REMARK>
 VINA RESULT:      -7.0      3.871      8.335
  Name = 
  11 active torsions:
  status: ('A' for Active; 'I' for Inactive)
    1  A    between atoms: N_1  and  C_9
    2  A    between atoms: C_3  and  C_16
    3  A    between atoms: C_4  and  C_6
    4  A    between atoms: C_4  and  O_25
    5  A    between atoms: C_6  and  C_12
    6  A    between atoms: C_7  and  C_15
    7  A    between atoms: C_7  and  C_18
    8  A    between atoms: C_16  and  C_18
    9  A    between atoms: C_17  and  O_25
   10  A    between atoms: C_18  and  C_21
   11  A    between atoms: C_19  and  C_33
                            x       y       z     vdW  Elec       q    Type
                         _______ _______ _______ _____ _____    ______ ____

>  <TORSDO>
F 11

$$$$
