=
 OpenBabel11062416273D

 46 48  0  0  1  0  0  0  0  0999 V2000
  191.9020  178.4460  143.5470 O   0  0  0  0  0  1  0  0  0  0  0  0
  191.0380  177.3910  143.2480 C   0  0  2  0  0  0  0  0  0  0  0  0
  190.2530  178.0610  141.0900 C   0  0  2  0  0  3  0  0  0  0  0  0
  191.0230  177.0340  141.8190 N   0  0  2  0  0  0  0  0  0  0  0  0
  189.8450  177.7000  142.4630 C   0  0  1  0  0  0  0  0  0  0  0  0
  188.1990  177.7140  139.8860 O   0  0  0  0  0  0  0  0  0  0  0  0
  190.0620  176.5640  139.0680 N   0  0  0  0  0  2  0  0  0  0  0  0
  189.4260  177.4530  139.9910 C   0  0  0  0  0  0  0  0  0  0  0  0
  189.3840  175.9760  137.9190 C   0  0  1  0  0  3  0  0  0  0  0  0
  189.1450  177.0570  136.8650 C   0  0  1  0  0  3  0  0  0  0  0  0
  190.0610  176.9330  135.8160 O   0  0  0  0  0  1  0  0  0  0  0  0
  187.2650  178.3620  135.9590 N   0  0  0  0  0  1  0  0  0  0  0  0
  187.7030  177.0290  136.3360 C   0  0  1  0  0  3  0  0  0  0  0  0
  187.4630  176.0100  135.2130 C   0  0  0  0  0  2  0  0  0  0  0  0
  185.2590  175.2950  135.9680 N   0  0  0  0  0  1  0  0  0  0  0  0
  186.5880  174.8310  135.6230 C   0  0  0  0  0  2  0  0  0  0  0  0
  190.2450  174.8630  137.3370 C   0  0  0  0  0  2  0  0  0  0  0  0
  191.4910  174.7560  138.0950 N   0  0  0  0  0  2  0  0  0  0  0  0
  193.7170  173.8800  137.4690 C   0  0  0  0  0  1  0  0  0  0  0  0
  192.6520  174.9340  137.2150 C   0  0  2  0  0  3  0  0  0  0  0  0
  193.4550  176.6890  138.6320 O   0  0  0  0  0  1  0  0  0  0  0  0
  193.2390  176.3390  137.2970 C   0  0  0  0  0  2  0  0  0  0  0  0
  191.2480  176.7680  145.3170 O   0  0  0  0  0  1  0  0  0  0  0  0
  191.0330  176.2820  144.1100 O   0  0  0  0  0  0  0  0  0  0  0  0
  188.7280  176.6590  142.6030 C   0  0  0  0  0  2  0  0  0  0  0  0
  186.3160  177.5060  145.4360 C   0  0  0  0  0  3  0  0  0  0  0  0
  185.8450  178.2040  144.2530 N   0  0  0  0  0  0  0  0  0  0  0  0
  187.5910  176.7990  144.9750 C   0  0  0  0  0  3  0  0  0  0  0  0
  186.6870  177.9350  143.1490 C   0  0  0  0  0  3  0  0  0  0  0  0
  187.6680  177.1460  143.5240 C   0  0  0  0  0  0  0  0  0  0  0  0
  184.6810  180.5380  143.8100 O   0  0  0  0  0  0  0  0  0  0  0  0
  183.7030  179.0840  145.5150 O   0  0  0  0  0  0  0  0  0  0  0  0
  184.3720  179.1100  144.1650 S   0  0  0  0  0  0  0  0  0  0  0  0
  181.9120  178.9960  142.9960 C   0  0  0  0  0  1  0  0  0  0  0  0
  183.2910  178.3670  142.9390 C   0  0  1  0  0  3  0  0  0  0  0  0
  183.8430  178.5210  141.5260 C   0  0  0  0  0  2  0  0  0  0  0  0
  182.7390  178.6900  140.4760 C   0  0  1  0  0  3  0  0  0  0  0  0
  183.1920  179.4830  139.2430 C   0  0  0  0  0  3  0  0  0  0  0  0
  182.2630  180.4760  138.9270 O   0  0  0  0  0  1  0  0  0  0  0  0
  184.4500  180.0590  139.4400 O   0  0  0  0  0  1  0  0  0  0  0  0
  182.1570  177.3600  140.0570 C   0  0  0  0  0  0  0  0  0  0  0  0
  183.0060  176.3570  139.0720 S   0  0  0  0  0  0  0  0  0  0  0  0
  180.8420  176.9960  140.3840 O   0  0  0  0  0  0  0  0  0  0  0  0
  179.1610  178.3250  139.5620 O   0  0  0  0  0  0  0  0  0  0  0  0
  179.2620  176.1850  138.6790 N   0  0  0  0  0  1  0  0  0  0  0  0
  179.7220  177.1980  139.5690 C   0  0  0  0  0  0  0  0  0  0  0  0
  2  1  1  1  0  0  0
  2 24  1  0  0  0  0
  3  8  1  6  0  0  0
  3  4  1  0  0  0  0
  3  5  1  0  0  0  0
  4  5  1  0  0  0  0
  4  2  1  0  0  0  0
  5 25  1  0  0  0  0
  5  2  1  0  0  0  0
  6  8  2  0  0  0  0
  7  8  1  0  0  0  0
  9  7  1  0  0  0  0
 10  9  1  0  0  0  0
 11 10  1  0  0  0  0
 12 13  1  0  0  0  0
 13 10  1  0  0  0  0
 14 16  1  0  0  0  0
 14 13  1  0  0  0  0
 16 15  1  0  0  0  0
 17  9  1  0  0  0  0
 17 18  1  0  0  0  0
 20 22  1  0  0  0  0
 20 19  1  0  0  0  0
 20 18  1  0  0  0  0
 22 21  1  0  0  0  0
 24 23  1  0  0  0  0
 25 30  1  0  0  0  0
 27 26  1  0  0  0  0
 28 26  2  0  0  0  0
 29 30  2  0  0  0  0
 29 27  1  0  0  0  0
 30 28  1  0  0  0  0
 31 33  2  0  0  0  0
 33 27  1  0  0  0  0
 33 32  2  0  0  0  0
 35 34  1  0  0  0  0
 35 33  1  0  0  0  0
 36 35  1  0  0  0  0
 37 36  1  0  0  0  0
 38 40  1  0  0  0  0
 38 37  1  0  0  0  0
 39 38  1  0  0  0  0
 41 43  1  0  0  0  0
 41 37  1  0  0  0  0
 42 41  2  0  0  0  0
 44 46  2  0  0  0  0
 45 46  1  0  0  0  0
 46 43  1  0  0  0  0
M  END
>  <MODEL>
1

>  <REMARK>
 VINA RESULT:      -6.3      0.000      0.000
  Name = 
  21 active torsions:
  status: ('A' for Active; 'I' for Inactive)
    1  A    between atoms: C_1  and  C_29
    2  A    between atoms: C_1  and  O_36
    3  A    between atoms: C_2  and  C_39
    4  A    between atoms: C_2  and  C_46
    5  A    between atoms: C_10  and  C_21
    6  A    between atoms: C_10  and  C_45
    7  A    between atoms: C_14  and  O_27
    8  A    between atoms: C_16  and  N_19
    9  A    between atoms: C_16  and  C_44
   10  A    between atoms: C_17  and  C_18
   11  A    between atoms: C_17  and  S_31
   12  A    between atoms: C_18  and  C_29
   13  A    between atoms: N_19  and  CA_38
   14  A    between atoms: C_21  and  C_44
   15  A    between atoms: C_22  and  C_40
   16  A    between atoms: N_23  and  S_31
   17  A    between atoms: C_24  and  C_29
   18  A    between atoms: C_25  and  O_36
   19  A    between atoms: N_26  and  C_44
   20  A    between atoms: C_33  and  CA_38
   21  A    between atoms: C_41  and  C_45
                            x       y       z     vdW  Elec       q    Type
                         _______ _______ _______ _____ _____    ______ ____

>  <TORSDO>
F 21

$$$$
=
 OpenBabel11062416273D

 46 48  0  0  1  0  0  0  0  0999 V2000
  192.1540  178.7040  144.3250 O   0  0  0  0  0  1  0  0  0  0  0  0
  191.4740  177.5370  143.9740 C   0  0  2  0  0  0  0  0  0  0  0  0
  191.1250  177.9150  141.6380 C   0  0  2  0  0  3  0  0  0  0  0  0
  191.8050  177.0510  142.6230 N   0  0  2  0  0  0  0  0  0  0  0  0
  190.4600  177.6380  142.9280 C   0  0  1  0  0  0  0  0  0  0  0  0
  190.9550  175.9180  140.3080 O   0  0  0  0  0  0  0  0  0  0  0  0
  189.7460  177.7620  139.5310 N   0  0  0  0  0  2  0  0  0  0  0  0
  190.6170  177.1210  140.4670 C   0  0  0  0  0  0  0  0  0  0  0  0
  189.1300  177.0730  138.4030 C   0  0  1  0  0  3  0  0  0  0  0  0
  187.7090  177.6000  138.2030 C   0  0  1  0  0  3  0  0  0  0  0  0
  187.7260  178.9750  137.9480 O   0  0  0  0  0  1  0  0  0  0  0  0
  186.9200  175.4230  137.3680 N   0  0  0  0  0  1  0  0  0  0  0  0
  186.9750  176.8470  137.0830 C   0  0  1  0  0  3  0  0  0  0  0  0
  185.5900  177.4150  136.7440 C   0  0  0  0  0  2  0  0  0  0  0  0
  184.1600  178.6170  138.3110 N   0  0  0  0  0  1  0  0  0  0  0  0
  184.5780  177.2970  137.8780 C   0  0  0  0  0  2  0  0  0  0  0  0
  189.9570  177.3150  137.1480 C   0  0  0  0  0  2  0  0  0  0  0  0
  190.1880  176.0470  136.4570 N   0  0  0  0  0  2  0  0  0  0  0  0
  192.5030  176.4320  137.2370 C   0  0  0  0  0  1  0  0  0  0  0  0
  191.4200  175.4090  136.9370 C   0  0  2  0  0  3  0  0  0  0  0  0
  191.9200  173.0880  136.6250 O   0  0  0  0  0  1  0  0  0  0  0  0
  191.9300  174.3310  135.9870 C   0  0  0  0  0  2  0  0  0  0  0  0
  191.8980  177.0200  146.0400 O   0  0  0  0  0  1  0  0  0  0  0  0
  191.3790  176.5170  144.9360 O   0  0  0  0  0  0  0  0  0  0  0  0
  189.4370  176.4960  142.9490 C   0  0  0  0  0  2  0  0  0  0  0  0
  186.1980  177.5360  144.6790 C   0  0  0  0  0  3  0  0  0  0  0  0
  186.0570  177.8740  143.2740 N   0  0  0  0  0  0  0  0  0  0  0  0
  187.6120  176.9630  144.7900 C   0  0  0  0  0  3  0  0  0  0  0  0
  187.2210  177.5110  142.5560 C   0  0  0  0  0  3  0  0  0  0  0  0
  188.1040  176.9930  143.3810 C   0  0  0  0  0  0  0  0  0  0  0  0
  184.1800  177.5740  141.4350 O   0  0  0  0  0  0  0  0  0  0  0  0
  184.8920  179.8490  141.9730 O   0  0  0  0  0  0  0  0  0  0  0  0
  184.6090  178.4870  142.5490 S   0  0  0  0  0  0  0  0  0  0  0  0
  183.8680  179.2860  145.0480 C   0  0  0  0  0  1  0  0  0  0  0  0
  183.3270  178.6130  143.8010 C   0  0  1  0  0  3  0  0  0  0  0  0
  182.1210  179.4000  143.3020 C   0  0  0  0  0  2  0  0  0  0  0  0
  181.0790  178.5110  142.6140 C   0  0  1  0  0  3  0  0  0  0  0  0
  179.7250  178.4970  143.3340 C   0  0  0  0  0  3  0  0  0  0  0  0
  179.6330  177.3990  144.1910 O   0  0  0  0  0  1  0  0  0  0  0  0
  179.5180  179.6760  144.0550 O   0  0  0  0  0  1  0  0  0  0  0  0
  180.8930  178.8860  141.1620 C   0  0  0  0  0  0  0  0  0  0  0  0
  180.0520  180.2370  140.7550 S   0  0  0  0  0  0  0  0  0  0  0  0
  181.3160  178.0410  140.1240 O   0  0  0  0  0  0  0  0  0  0  0  0
  179.6920  176.4210  140.0920 O   0  0  0  0  0  0  0  0  0  0  0  0
  181.8200  175.7110  139.5090 N   0  0  0  0  0  1  0  0  0  0  0  0
  180.9070  176.7150  139.9460 C   0  0  0  0  0  0  0  0  0  0  0  0
  2  1  1  1  0  0  0
  2 24  1  0  0  0  0
  3  8  1  6  0  0  0
  3  4  1  0  0  0  0
  3  5  1  0  0  0  0
  4  5  1  0  0  0  0
  4  2  1  0  0  0  0
  5 25  1  0  0  0  0
  5  2  1  0  0  0  0
  6  8  2  0  0  0  0
  7  8  1  0  0  0  0
  9  7  1  0  0  0  0
 10  9  1  0  0  0  0
 11 10  1  0  0  0  0
 13 12  1  0  0  0  0
 13 10  1  0  0  0  0
 14 13  1  0  0  0  0
 14 16  1  0  0  0  0
 16 15  1  0  0  0  0
 17  9  1  0  0  0  0
 18 20  1  0  0  0  0
 18 17  1  0  0  0  0
 20 19  1  0  0  0  0
 22 21  1  0  0  0  0
 22 20  1  0  0  0  0
 24 23  1  0  0  0  0
 25 30  1  0  0  0  0
 26 28  2  0  0  0  0
 27 26  1  0  0  0  0
 29 27  1  0  0  0  0
 29 30  2  0  0  0  0
 30 28  1  0  0  0  0
 31 33  2  0  0  0  0
 32 33  2  0  0  0  0
 33 27  1  0  0  0  0
 33 35  1  0  0  0  0
 35 34  1  0  0  0  0
 36 35  1  0  0  0  0
 37 36  1  0  0  0  0
 37 38  1  0  0  0  0
 38 40  1  0  0  0  0
 38 39  1  0  0  0  0
 41 37  1  0  0  0  0
 42 41  2  0  0  0  0
 43 41  1  0  0  0  0
 45 46  1  0  0  0  0
 46 44  2  0  0  0  0
 46 43  1  0  0  0  0
M  END
>  <MODEL>
2

>  <REMARK>
 VINA RESULT:      -6.1      2.120      2.825
  Name = 
  21 active torsions:
  status: ('A' for Active; 'I' for Inactive)
    1  A    between atoms: C_1  and  C_29
    2  A    between atoms: C_1  and  O_36
    3  A    between atoms: C_2  and  C_39
    4  A    between atoms: C_2  and  C_46
    5  A    between atoms: C_10  and  C_21
    6  A    between atoms: C_10  and  C_45
    7  A    between atoms: C_14  and  O_27
    8  A    between atoms: C_16  and  N_19
    9  A    between atoms: C_16  and  C_44
   10  A    between atoms: C_17  and  C_18
   11  A    between atoms: C_17  and  S_31
   12  A    between atoms: C_18  and  C_29
   13  A    between atoms: N_19  and  CA_38
   14  A    between atoms: C_21  and  C_44
   15  A    between atoms: C_22  and  C_40
   16  A    between atoms: N_23  and  S_31
   17  A    between atoms: C_24  and  C_29
   18  A    between atoms: C_25  and  O_36
   19  A    between atoms: N_26  and  C_44
   20  A    between atoms: C_33  and  CA_38
   21  A    between atoms: C_41  and  C_45
                            x       y       z     vdW  Elec       q    Type
                         _______ _______ _______ _____ _____    ______ ____

>  <TORSDO>
F 21

$$$$
=
 OpenBabel11062416273D

 46 48  0  0  1  0  0  0  0  0999 V2000
  190.3930  178.6450  145.8090 O   0  0  0  0  0  1  0  0  0  0  0  0
  189.6740  177.6190  145.1940 C   0  0  2  0  0  0  0  0  0  0  0  0
  190.3700  177.8930  142.9220 C   0  0  2  0  0  3  0  0  0  0  0  0
  190.4000  176.9810  144.0820 N   0  0  2  0  0  0  0  0  0  0  0  0
  189.2050  177.8500  143.8300 C   0  0  1  0  0  0  0  0  0  0  0  0
  190.4310  175.8990  141.5770 O   0  0  0  0  0  0  0  0  0  0  0  0
  189.8060  177.8570  140.4620 N   0  0  0  0  0  2  0  0  0  0  0  0
  190.2090  177.1380  141.6310 C   0  0  0  0  0  0  0  0  0  0  0  0
  189.5430  177.2200  139.1770 C   0  0  1  0  0  3  0  0  0  0  0  0
  188.6950  178.1540  138.3140 C   0  0  1  0  0  3  0  0  0  0  0  0
  189.3920  178.5260  137.1600 O   0  0  0  0  0  1  0  0  0  0  0  0
  186.2550  178.4580  138.2020 N   0  0  0  0  0  1  0  0  0  0  0  0
  187.3410  177.5240  137.9540 C   0  0  1  0  0  3  0  0  0  0  0  0
  187.2750  176.9350  136.5380 C   0  0  0  0  0  2  0  0  0  0  0  0
  186.8530  174.6220  137.1790 N   0  0  0  0  0  1  0  0  0  0  0  0
  187.7530  175.4900  136.4450 C   0  0  0  0  0  2  0  0  0  0  0  0
  190.8630  176.9220  138.4800 C   0  0  0  0  0  2  0  0  0  0  0  0
  190.9530  175.4930  138.1840 N   0  0  0  0  0  2  0  0  0  0  0  0
  192.1880  173.7400  136.9510 C   0  0  0  0  0  1  0  0  0  0  0  0
  192.1140  175.2100  137.3300 C   0  0  2  0  0  3  0  0  0  0  0  0
  194.3370  176.0090  136.9410 O   0  0  0  0  0  1  0  0  0  0  0  0
  193.4240  175.6860  137.9480 C   0  0  0  0  0  2  0  0  0  0  0  0
  188.8240  177.3320  147.1710 O   0  0  0  0  0  1  0  0  0  0  0  0
  188.9870  176.7120  146.0180 O   0  0  0  0  0  0  0  0  0  0  0  0
  188.0380  176.9460  143.4170 C   0  0  0  0  0  2  0  0  0  0  0  0
  185.3040  179.2000  141.9990 C   0  0  0  0  0  3  0  0  0  0  0  0
  184.8370  178.7250  143.2900 N   0  0  0  0  0  0  0  0  0  0  0  0
  186.6620  178.5200  141.8150 C   0  0  0  0  0  3  0  0  0  0  0  0
  185.8030  177.8830  143.8880 C   0  0  0  0  0  3  0  0  0  0  0  0
  186.8370  177.7570  143.0860 C   0  0  0  0  0  0  0  0  0  0  0  0
  183.2460  180.7350  143.9410 O   0  0  0  0  0  0  0  0  0  0  0  0
  183.4390  178.8790  145.5200 O   0  0  0  0  0  0  0  0  0  0  0  0
  183.3750  179.2420  144.0590 S   0  0  0  0  0  0  0  0  0  0  0  0
  180.7390  178.5540  144.1560 C   0  0  0  0  0  1  0  0  0  0  0  0
  181.9770  178.4170  143.2910 C   0  0  1  0  0  3  0  0  0  0  0  0
  181.6740  178.9830  141.9080 C   0  0  0  0  0  2  0  0  0  0  0  0
  181.6090  177.8970  140.8270 C   0  0  1  0  0  3  0  0  0  0  0  0
  180.2130  177.7360  140.2130 C   0  0  0  0  0  3  0  0  0  0  0  0
  179.2400  178.2810  141.0510 O   0  0  0  0  0  1  0  0  0  0  0  0
  180.1380  178.3340  138.9510 O   0  0  0  0  0  1  0  0  0  0  0  0
  182.6340  178.1290  139.7400 C   0  0  0  0  0  0  0  0  0  0  0  0
  182.8150  179.6200  139.0740 S   0  0  0  0  0  0  0  0  0  0  0  0
  183.3660  177.0690  139.1810 O   0  0  0  0  0  0  0  0  0  0  0  0
  181.8930  175.6530  138.1370 O   0  0  0  0  0  0  0  0  0  0  0  0
  183.7010  176.3320  136.8560 N   0  0  0  0  0  1  0  0  0  0  0  0
  182.9670  176.3070  138.0770 C   0  0  0  0  0  0  0  0  0  0  0  0
  2  1  1  1  0  0  0
  2 24  1  0  0  0  0
  3  8  1  6  0  0  0
  3  5  1  0  0  0  0
  3  4  1  0  0  0  0
  4  2  1  0  0  0  0
  5  4  1  0  0  0  0
  5  2  1  0  0  0  0
  6  8  2  0  0  0  0
  7  8  1  0  0  0  0
  9  7  1  0  0  0  0
 10  9  1  0  0  0  0
 11 10  1  0  0  0  0
 13 12  1  0  0  0  0
 13 10  1  0  0  0  0
 14 13  1  0  0  0  0
 16 14  1  0  0  0  0
 16 15  1  0  0  0  0
 17  9  1  0  0  0  0
 18 17  1  0  0  0  0
 19 20  1  0  0  0  0
 20 22  1  0  0  0  0
 20 18  1  0  0  0  0
 21 22  1  0  0  0  0
 24 23  1  0  0  0  0
 25  5  1  0  0  0  0
 26 27  1  0  0  0  0
 27 29  1  0  0  0  0
 27 33  1  0  0  0  0
 28 26  2  0  0  0  0
 28 30  1  0  0  0  0
 30 25  1  0  0  0  0
 30 29  2  0  0  0  0
 31 33  2  0  0  0  0
 33 32  2  0  0  0  0
 35 33  1  0  0  0  0
 35 34  1  0  0  0  0
 36 35  1  0  0  0  0
 37 36  1  0  0  0  0
 38 37  1  0  0  0  0
 38 39  1  0  0  0  0
 40 38  1  0  0  0  0
 41 37  1  0  0  0  0
 42 41  2  0  0  0  0
 43 41  1  0  0  0  0
 45 46  1  0  0  0  0
 46 44  2  0  0  0  0
 46 43  1  0  0  0  0
M  END
>  <MODEL>
3

>  <REMARK>
 VINA RESULT:      -5.9      1.856      2.474
  Name = 
  21 active torsions:
  status: ('A' for Active; 'I' for Inactive)
    1  A    between atoms: C_1  and  C_29
    2  A    between atoms: C_1  and  O_36
    3  A    between atoms: C_2  and  C_39
    4  A    between atoms: C_2  and  C_46
    5  A    between atoms: C_10  and  C_21
    6  A    between atoms: C_10  and  C_45
    7  A    between atoms: C_14  and  O_27
    8  A    between atoms: C_16  and  N_19
    9  A    between atoms: C_16  and  C_44
   10  A    between atoms: C_17  and  C_18
   11  A    between atoms: C_17  and  S_31
   12  A    between atoms: C_18  and  C_29
   13  A    between atoms: N_19  and  CA_38
   14  A    between atoms: C_21  and  C_44
   15  A    between atoms: C_22  and  C_40
   16  A    between atoms: N_23  and  S_31
   17  A    between atoms: C_24  and  C_29
   18  A    between atoms: C_25  and  O_36
   19  A    between atoms: N_26  and  C_44
   20  A    between atoms: C_33  and  CA_38
   21  A    between atoms: C_41  and  C_45
                            x       y       z     vdW  Elec       q    Type
                         _______ _______ _______ _____ _____    ______ ____

>  <TORSDO>
F 21

$$$$
=
 OpenBabel11062416273D

 46 48  0  0  1  0  0  0  0  0999 V2000
  190.5420  178.6360  145.6610 O   0  0  0  0  0  1  0  0  0  0  0  0
  189.7840  177.6090  145.0970 C   0  0  2  0  0  0  0  0  0  0  0  0
  190.3470  177.8620  142.7860 C   0  0  2  0  0  3  0  0  0  0  0  0
  190.4410  176.9590  143.9500 N   0  0  2  0  0  0  0  0  0  0  0  0
  189.2370  177.8320  143.7620 C   0  0  1  0  0  0  0  0  0  0  0  0
  190.3130  175.8560  141.4590 O   0  0  0  0  0  0  0  0  0  0  0  0
  189.6500  177.8110  140.3620 N   0  0  0  0  0  2  0  0  0  0  0  0
  190.1080  177.0970  141.5140 C   0  0  0  0  0  0  0  0  0  0  0  0
  189.3100  177.1660  139.0990 C   0  0  1  0  0  3  0  0  0  0  0  0
  188.3350  178.0530  138.3240 C   0  0  1  0  0  3  0  0  0  0  0  0
  188.9990  179.1550  137.7770 O   0  0  0  0  0  1  0  0  0  0  0  0
  187.6010  175.8430  137.5260 N   0  0  0  0  0  1  0  0  0  0  0  0
  187.5930  177.2660  137.2330 C   0  0  1  0  0  3  0  0  0  0  0  0
  186.1780  177.7800  136.9360 C   0  0  0  0  0  2  0  0  0  0  0  0
  184.9240  179.2020  138.4690 N   0  0  0  0  0  1  0  0  0  0  0  0
  185.2680  177.8280  138.1580 C   0  0  0  0  0  2  0  0  0  0  0  0
  190.5770  176.9500  138.2830 C   0  0  0  0  0  2  0  0  0  0  0  0
  190.9740  175.5440  138.3520 N   0  0  0  0  0  2  0  0  0  0  0  0
  192.6280  174.4050  136.9090 C   0  0  0  0  0  1  0  0  0  0  0  0
  191.2390  175.0120  137.0090 C   0  0  2  0  0  3  0  0  0  0  0  0
  190.0270  175.6000  135.0300 O   0  0  0  0  0  1  0  0  0  0  0  0
  191.0110  176.0470  135.9140 C   0  0  0  0  0  2  0  0  0  0  0  0
  188.4940  177.4620  146.8370 O   0  0  0  0  0  1  0  0  0  0  0  0
  189.1430  176.7110  145.9680 O   0  0  0  0  0  0  0  0  0  0  0  0
  188.0440  176.9300  143.4250 C   0  0  0  0  0  2  0  0  0  0  0  0
  185.3160  179.2030  142.0270 C   0  0  0  0  0  3  0  0  0  0  0  0
  184.8440  178.7110  143.3090 N   0  0  0  0  0  0  0  0  0  0  0  0
  186.6740  178.5260  141.8380 C   0  0  0  0  0  3  0  0  0  0  0  0
  185.8080  177.8610  143.9000 C   0  0  0  0  0  3  0  0  0  0  0  0
  186.8440  177.7450  143.1000 C   0  0  0  0  0  0  0  0  0  0  0  0
  183.2590  180.7150  143.9950 O   0  0  0  0  0  0  0  0  0  0  0  0
  183.4300  178.8230  145.5320 O   0  0  0  0  0  0  0  0  0  0  0  0
  183.3790  179.2190  144.0800 S   0  0  0  0  0  0  0  0  0  0  0  0
  180.7110  178.6590  144.0750 C   0  0  0  0  0  1  0  0  0  0  0  0
  181.9820  178.4200  143.2820 C   0  0  1  0  0  3  0  0  0  0  0  0
  181.7760  178.9240  141.8590 C   0  0  0  0  0  2  0  0  0  0  0  0
  180.4310  178.4870  141.2660 C   0  0  1  0  0  3  0  0  0  0  0  0
  179.7560  179.5770  140.4250 C   0  0  0  0  0  3  0  0  0  0  0  0
  180.7110  180.4190  139.8510 O   0  0  0  0  0  1  0  0  0  0  0  0
  178.9520  179.0250  139.4230 O   0  0  0  0  0  1  0  0  0  0  0  0
  180.5610  177.2130  140.4630 C   0  0  0  0  0  0  0  0  0  0  0  0
  179.5080  175.9740  140.6970 S   0  0  0  0  0  0  0  0  0  0  0  0
  181.6430  176.9980  139.5960 O   0  0  0  0  0  0  0  0  0  0  0  0
  180.9100  177.0820  137.4230 O   0  0  0  0  0  0  0  0  0  0  0  0
  182.2450  175.2640  137.9560 N   0  0  0  0  0  1  0  0  0  0  0  0
  181.5510  176.4570  138.3080 C   0  0  0  0  0  0  0  0  0  0  0  0
  2  1  1  1  0  0  0
  2 24  1  0  0  0  0
  3  8  1  6  0  0  0
  3  5  1  0  0  0  0
  3  4  1  0  0  0  0
  4  2  1  0  0  0  0
  5  4  1  0  0  0  0
  5  2  1  0  0  0  0
  6  8  2  0  0  0  0
  7  8  1  0  0  0  0
  9  7  1  0  0  0  0
 10  9  1  0  0  0  0
 11 10  1  0  0  0  0
 13 12  1  0  0  0  0
 13 10  1  0  0  0  0
 14 13  1  0  0  0  0
 14 16  1  0  0  0  0
 16 15  1  0  0  0  0
 17 18  1  0  0  0  0
 17  9  1  0  0  0  0
 19 20  1  0  0  0  0
 20 18  1  0  0  0  0
 21 22  1  0  0  0  0
 22 20  1  0  0  0  0
 24 23  1  0  0  0  0
 25  5  1  0  0  0  0
 26 27  1  0  0  0  0
 27 29  1  0  0  0  0
 27 33  1  0  0  0  0
 28 26  2  0  0  0  0
 28 30  1  0  0  0  0
 30 25  1  0  0  0  0
 30 29  2  0  0  0  0
 31 33  2  0  0  0  0
 33 32  2  0  0  0  0
 35 34  1  0  0  0  0
 35 33  1  0  0  0  0
 36 35  1  0  0  0  0
 37 36  1  0  0  0  0
 38 37  1  0  0  0  0
 39 38  1  0  0  0  0
 40 38  1  0  0  0  0
 41 42  2  0  0  0  0
 41 37  1  0  0  0  0
 43 41  1  0  0  0  0
 44 46  2  0  0  0  0
 45 46  1  0  0  0  0
 46 43  1  0  0  0  0
M  END
>  <MODEL>
4

>  <REMARK>
 VINA RESULT:      -5.9      1.980      2.623
  Name = 
  21 active torsions:
  status: ('A' for Active; 'I' for Inactive)
    1  A    between atoms: C_1  and  C_29
    2  A    between atoms: C_1  and  O_36
    3  A    between atoms: C_2  and  C_39
    4  A    between atoms: C_2  and  C_46
    5  A    between atoms: C_10  and  C_21
    6  A    between atoms: C_10  and  C_45
    7  A    between atoms: C_14  and  O_27
    8  A    between atoms: C_16  and  N_19
    9  A    between atoms: C_16  and  C_44
   10  A    between atoms: C_17  and  C_18
   11  A    between atoms: C_17  and  S_31
   12  A    between atoms: C_18  and  C_29
   13  A    between atoms: N_19  and  CA_38
   14  A    between atoms: C_21  and  C_44
   15  A    between atoms: C_22  and  C_40
   16  A    between atoms: N_23  and  S_31
   17  A    between atoms: C_24  and  C_29
   18  A    between atoms: C_25  and  O_36
   19  A    between atoms: N_26  and  C_44
   20  A    between atoms: C_33  and  CA_38
   21  A    between atoms: C_41  and  C_45
                            x       y       z     vdW  Elec       q    Type
                         _______ _______ _______ _____ _____    ______ ____

>  <TORSDO>
F 21

$$$$
=
 OpenBabel11062416273D

 46 48  0  0  1  0  0  0  0  0999 V2000
  192.0270  177.6510  142.9220 O   0  0  0  0  0  1  0  0  0  0  0  0
  190.9520  176.8370  142.5590 C   0  0  2  0  0  0  0  0  0  0  0  0
  190.1340  178.0140  140.6440 C   0  0  2  0  0  3  0  0  0  0  0  0
  190.7480  176.7530  141.1030 N   0  0  2  0  0  0  0  0  0  0  0  0
  189.7810  177.4880  141.9790 C   0  0  1  0  0  0  0  0  0  0  0  0
  188.0420  178.4270  139.5290 O   0  0  0  0  0  0  0  0  0  0  0  0
  189.3880  176.7690  138.5800 N   0  0  0  0  0  2  0  0  0  0  0  0
  189.1160  177.7700  139.5640 C   0  0  0  0  0  0  0  0  0  0  0  0
  188.5150  176.4980  137.4440 C   0  0  1  0  0  3  0  0  0  0  0  0
  189.3670  176.2230  136.2050 C   0  0  1  0  0  3  0  0  0  0  0  0
  189.7450  177.4220  135.5920 O   0  0  0  0  0  1  0  0  0  0  0  0
  190.4110  173.9970  136.0930 N   0  0  0  0  0  1  0  0  0  0  0  0
  190.5980  175.3680  136.5380 C   0  0  1  0  0  3  0  0  0  0  0  0
  191.9270  175.9540  136.0400 C   0  0  0  0  0  2  0  0  0  0  0  0
  193.5600  176.5100  137.7620 N   0  0  0  0  0  1  0  0  0  0  0  0
  193.1450  175.4830  136.8260 C   0  0  0  0  0  2  0  0  0  0  0  0
  187.6410  175.2910  137.7540 C   0  0  0  0  0  2  0  0  0  0  0  0
  186.6540  175.1100  136.6900 N   0  0  0  0  0  2  0  0  0  0  0  0
  186.9850  173.7440  134.6550 C   0  0  0  0  0  1  0  0  0  0  0  0
  186.7150  173.7460  136.1500 C   0  0  2  0  0  3  0  0  0  0  0  0
  185.3850  172.7360  137.8660 O   0  0  0  0  0  1  0  0  0  0  0  0
  185.4730  172.9280  136.4850 C   0  0  0  0  0  2  0  0  0  0  0  0
  191.8640  175.4960  144.0020 O   0  0  0  0  0  1  0  0  0  0  0  0
  190.8040  175.6100  143.2250 O   0  0  0  0  0  0  0  0  0  0  0  0
  188.4980  176.6540  142.0770 C   0  0  0  0  0  2  0  0  0  0  0  0
  186.6410  177.6210  145.2680 C   0  0  0  0  0  3  0  0  0  0  0  0
  185.9250  178.2270  144.1590 N   0  0  0  0  0  0  0  0  0  0  0  0
  187.8310  176.9190  144.6120 C   0  0  0  0  0  3  0  0  0  0  0  0
  186.5510  177.9070  142.9310 C   0  0  0  0  0  3  0  0  0  0  0  0
  187.6160  177.1720  143.1560 C   0  0  0  0  0  0  0  0  0  0  0  0
  184.6470  180.5350  143.9750 O   0  0  0  0  0  0  0  0  0  0  0  0
  183.9440  178.9820  145.7260 O   0  0  0  0  0  0  0  0  0  0  0  0
  184.4290  179.0850  144.3040 S   0  0  0  0  0  0  0  0  0  0  0  0
  181.9180  179.1360  143.2420 C   0  0  0  0  0  1  0  0  0  0  0  0
  183.2170  178.3540  143.1970 C   0  0  1  0  0  3  0  0  0  0  0  0
  183.7150  178.3130  141.7570 C   0  0  0  0  0  2  0  0  0  0  0  0
  182.6580  178.7880  140.7520 C   0  0  1  0  0  3  0  0  0  0  0  0
  183.1880  179.8340  139.7640 C   0  0  0  0  0  3  0  0  0  0  0  0
  184.5620  179.6790  139.5720 O   0  0  0  0  0  1  0  0  0  0  0  0
  182.5280  179.7550  138.5340 O   0  0  0  0  0  1  0  0  0  0  0  0
  182.0380  177.6300  140.0050 C   0  0  0  0  0  0  0  0  0  0  0  0
  180.4090  177.4190  140.0070 S   0  0  0  0  0  0  0  0  0  0  0  0
  182.8260  176.6390  139.3990 O   0  0  0  0  0  0  0  0  0  0  0  0
  182.5790  176.9630  137.1400 O   0  0  0  0  0  0  0  0  0  0  0  0
  182.6430  174.7510  137.8290 N   0  0  0  0  0  1  0  0  0  0  0  0
  182.6490  176.1500  138.0990 C   0  0  0  0  0  0  0  0  0  0  0  0
  2  1  1  1  0  0  0
  2 24  1  0  0  0  0
  3  8  1  6  0  0  0
  3  4  1  0  0  0  0
  3  5  1  0  0  0  0
  4  5  1  0  0  0  0
  4  2  1  0  0  0  0
  5 25  1  0  0  0  0
  5  2  1  0  0  0  0
  6  8  2  0  0  0  0
  7  8  1  0  0  0  0
  9 17  1  0  0  0  0
  9  7  1  0  0  0  0
 10 13  1  0  0  0  0
 10  9  1  0  0  0  0
 11 10  1  0  0  0  0
 12 13  1  0  0  0  0
 14 13  1  0  0  0  0
 14 16  1  0  0  0  0
 16 15  1  0  0  0  0
 18 17  1  0  0  0  0
 19 20  1  0  0  0  0
 20 22  1  0  0  0  0
 20 18  1  0  0  0  0
 22 21  1  0  0  0  0
 24 23  1  0  0  0  0
 25 30  1  0  0  0  0
 27 33  1  0  0  0  0
 27 26  1  0  0  0  0
 28 26  2  0  0  0  0
 29 30  2  0  0  0  0
 29 27  1  0  0  0  0
 30 28  1  0  0  0  0
 31 33  2  0  0  0  0
 33 32  2  0  0  0  0
 35 34  1  0  0  0  0
 35 33  1  0  0  0  0
 36 35  1  0  0  0  0
 37 36  1  0  0  0  0
 38 37  1  0  0  0  0
 39 38  1  0  0  0  0
 40 38  1  0  0  0  0
 41 42  2  0  0  0  0
 41 37  1  0  0  0  0
 43 41  1  0  0  0  0
 44 46  2  0  0  0  0
 45 46  1  0  0  0  0
 46 43  1  0  0  0  0
M  END
>  <MODEL>
5

>  <REMARK>
 VINA RESULT:      -5.8      1.657      3.431
  Name = 
  21 active torsions:
  status: ('A' for Active; 'I' for Inactive)
    1  A    between atoms: C_1  and  C_29
    2  A    between atoms: C_1  and  O_36
    3  A    between atoms: C_2  and  C_39
    4  A    between atoms: C_2  and  C_46
    5  A    between atoms: C_10  and  C_21
    6  A    between atoms: C_10  and  C_45
    7  A    between atoms: C_14  and  O_27
    8  A    between atoms: C_16  and  N_19
    9  A    between atoms: C_16  and  C_44
   10  A    between atoms: C_17  and  C_18
   11  A    between atoms: C_17  and  S_31
   12  A    between atoms: C_18  and  C_29
   13  A    between atoms: N_19  and  CA_38
   14  A    between atoms: C_21  and  C_44
   15  A    between atoms: C_22  and  C_40
   16  A    between atoms: N_23  and  S_31
   17  A    between atoms: C_24  and  C_29
   18  A    between atoms: C_25  and  O_36
   19  A    between atoms: N_26  and  C_44
   20  A    between atoms: C_33  and  CA_38
   21  A    between atoms: C_41  and  C_45
                            x       y       z     vdW  Elec       q    Type
                         _______ _______ _______ _____ _____    ______ ____

>  <TORSDO>
F 21

$$$$
=
 OpenBabel11062416273D

 46 48  0  0  1  0  0  0  0  0999 V2000
  190.1680  175.8270  143.1930 O   0  0  0  0  0  1  0  0  0  0  0  0
  189.8520  177.0870  142.6830 C   0  0  2  0  0  0  0  0  0  0  0  0
  187.4650  177.0340  142.8290 C   0  0  2  0  0  3  0  0  0  0  0  0
  188.6810  177.7020  143.3310 N   0  0  2  0  0  0  0  0  0  0  0  0
  188.6140  177.2100  141.9170 C   0  0  1  0  0  0  0  0  0  0  0  0
  186.1510  178.9480  143.4620 O   0  0  0  0  0  0  0  0  0  0  0  0
  185.4740  177.8520  141.5120 N   0  0  0  0  0  2  0  0  0  0  0  0
  186.3370  178.0110  142.6410 C   0  0  0  0  0  0  0  0  0  0  0  0
  184.3980  178.7800  141.1840 C   0  0  1  0  0  3  0  0  0  0  0  0
  184.4460  179.1040  139.6910 C   0  0  1  0  0  3  0  0  0  0  0  0
  185.7400  178.9290  139.1910 O   0  0  0  0  0  1  0  0  0  0  0  0
  182.5030  179.1220  138.1800 N   0  0  0  0  0  1  0  0  0  0  0  0
  183.4360  178.2650  138.8930 C   0  0  1  0  0  3  0  0  0  0  0  0
  184.0740  177.2200  137.9680 C   0  0  0  0  0  2  0  0  0  0  0  0
  183.8770  176.0440  135.8420 N   0  0  0  0  0  1  0  0  0  0  0  0
  183.5830  177.2880  136.5260 C   0  0  0  0  0  2  0  0  0  0  0  0
  183.0580  178.1490  141.5370 C   0  0  0  0  0  2  0  0  0  0  0  0
  182.3190  179.0310  142.4390 N   0  0  0  0  0  2  0  0  0  0  0  0
  180.4840  179.9580  141.0640 C   0  0  0  0  0  1  0  0  0  0  0  0
  180.8800  178.9770  142.1560 C   0  0  2  0  0  3  0  0  0  0  0  0
  180.0500  178.0160  144.1860 O   0  0  0  0  0  1  0  0  0  0  0  0
  180.0300  179.1750  143.4060 C   0  0  0  0  0  2  0  0  0  0  0  0
  191.9140  177.2430  142.0220 O   0  0  0  0  0  1  0  0  0  0  0  0
  190.9070  177.9830  142.4450 O   0  0  0  0  0  0  0  0  0  0  0  0
  188.5820  178.4310  140.9900 C   0  0  0  0  0  2  0  0  0  0  0  0
  189.5130  178.0980  137.3040 C   0  0  0  0  0  3  0  0  0  0  0  0
  189.9640  176.8880  137.9670 N   0  0  0  0  0  0  0  0  0  0  0  0
  188.9170  178.9470  138.4280 C   0  0  0  0  0  3  0  0  0  0  0  0
  189.6480  176.9300  139.3460 C   0  0  0  0  0  3  0  0  0  0  0  0
  189.0560  178.0680  139.6280 C   0  0  0  0  0  0  0  0  0  0  0  0
  190.1140  175.4440  135.7560 O   0  0  0  0  0  0  0  0  0  0  0  0
  190.2460  174.2670  137.8950 O   0  0  0  0  0  0  0  0  0  0  0  0
  190.6490  175.5190  137.1590 S   0  0  0  0  0  0  0  0  0  0  0  0
  192.8870  176.7230  138.1470 C   0  0  0  0  0  1  0  0  0  0  0  0
  192.4390  175.6680  137.1530 C   0  0  1  0  0  3  0  0  0  0  0  0
  193.1200  174.3480  137.4980 C   0  0  0  0  0  2  0  0  0  0  0  0
  194.6490  174.4640  137.5330 C   0  0  1  0  0  3  0  0  0  0  0  0
  195.2740  173.8540  138.7940 C   0  0  0  0  0  3  0  0  0  0  0  0
  196.0740  172.7580  138.4670 O   0  0  0  0  0  1  0  0  0  0  0  0
  196.0300  174.7970  139.4960 O   0  0  0  0  0  1  0  0  0  0  0  0
  195.2830  173.8710  136.2960 C   0  0  0  0  0  0  0  0  0  0  0  0
  194.5730  172.6060  135.5250 S   0  0  0  0  0  0  0  0  0  0  0  0
  196.5450  174.2880  135.8440 O   0  0  0  0  0  0  0  0  0  0  0  0
  198.0620  175.5670  136.9970 O   0  0  0  0  0  0  0  0  0  0  0  0
  196.7950  176.7000  135.4220 N   0  0  0  0  0  1  0  0  0  0  0  0
  197.1420  175.5190  136.1390 C   0  0  0  0  0  0  0  0  0  0  0  0
  2  1  1  1  0  0  0
  2  4  1  0  0  0  0
  3  8  1  6  0  0  0
  3  4  1  0  0  0  0
  5  2  1  0  0  0  0
  5  3  1  0  0  0  0
  5  4  1  0  0  0  0
  7  8  1  0  0  0  0
  8  6  2  0  0  0  0
  9  7  1  0  0  0  0
  9 17  1  0  0  0  0
 10  9  1  0  0  0  0
 11 10  1  0  0  0  0
 12 13  1  0  0  0  0
 13 10  1  0  0  0  0
 14 13  1  0  0  0  0
 15 16  1  0  0  0  0
 16 14  1  0  0  0  0
 17 18  1  0  0  0  0
 19 20  1  0  0  0  0
 20 18  1  0  0  0  0
 20 22  1  0  0  0  0
 22 21  1  0  0  0  0
 23 24  1  0  0  0  0
 24  2  1  0  0  0  0
 25  5  1  0  0  0  0
 26 27  1  0  0  0  0
 26 28  2  0  0  0  0
 27 29  1  0  0  0  0
 28 30  1  0  0  0  0
 29 30  2  0  0  0  0
 30 25  1  0  0  0  0
 31 33  2  0  0  0  0
 33 32  2  0  0  0  0
 33 27  1  0  0  0  0
 35 33  1  0  0  0  0
 35 36  1  0  0  0  0
 35 34  1  0  0  0  0
 36 37  1  0  0  0  0
 37 38  1  0  0  0  0
 38 40  1  0  0  0  0
 39 38  1  0  0  0  0
 41 37  1  0  0  0  0
 42 41  2  0  0  0  0
 43 46  1  0  0  0  0
 43 41  1  0  0  0  0
 45 46  1  0  0  0  0
 46 44  2  0  0  0  0
M  END
>  <MODEL>
6

>  <REMARK>
 VINA RESULT:      -5.7      3.369     10.139
  Name = 
  21 active torsions:
  status: ('A' for Active; 'I' for Inactive)
    1  A    between atoms: C_1  and  C_29
    2  A    between atoms: C_1  and  O_36
    3  A    between atoms: C_2  and  C_39
    4  A    between atoms: C_2  and  C_46
    5  A    between atoms: C_10  and  C_21
    6  A    between atoms: C_10  and  C_45
    7  A    between atoms: C_14  and  O_27
    8  A    between atoms: C_16  and  N_19
    9  A    between atoms: C_16  and  C_44
   10  A    between atoms: C_17  and  C_18
   11  A    between atoms: C_17  and  S_31
   12  A    between atoms: C_18  and  C_29
   13  A    between atoms: N_19  and  CA_38
   14  A    between atoms: C_21  and  C_44
   15  A    between atoms: C_22  and  C_40
   16  A    between atoms: N_23  and  S_31
   17  A    between atoms: C_24  and  C_29
   18  A    between atoms: C_25  and  O_36
   19  A    between atoms: N_26  and  C_44
   20  A    between atoms: C_33  and  CA_38
   21  A    between atoms: C_41  and  C_45
                            x       y       z     vdW  Elec       q    Type
                         _______ _______ _______ _____ _____    ______ ____

>  <TORSDO>
F 21

$$$$
=
 OpenBabel11062416273D

 46 48  0  0  1  0  0  0  0  0999 V2000
  190.1090  177.5110  134.5990 O   0  0  0  0  0  1  0  0  0  0  0  0
  189.5760  176.6690  135.5770 C   0  0  2  0  0  0  0  0  0  0  0  0
  187.8370  178.0580  136.4540 C   0  0  2  0  0  3  0  0  0  0  0  0
  188.1180  176.8020  135.7310 N   0  0  2  0  0  0  0  0  0  0  0  0
  189.0560  177.2940  136.7900 C   0  0  1  0  0  0  0  0  0  0  0  0
  186.7370  178.4010  138.5660 O   0  0  0  0  0  0  0  0  0  0  0  0
  185.5450  177.1510  136.9910 N   0  0  0  0  0  2  0  0  0  0  0  0
  186.6900  177.8970  137.4130 C   0  0  0  0  0  0  0  0  0  0  0  0
  184.3430  176.9940  137.8020 C   0  0  1  0  0  3  0  0  0  0  0  0
  183.4700  178.2410  137.6600 C   0  0  1  0  0  3  0  0  0  0  0  0
  182.2300  177.9130  137.1040 O   0  0  0  0  0  1  0  0  0  0  0  0
  184.1830  180.1110  139.0930 N   0  0  0  0  0  1  0  0  0  0  0  0
  183.2910  178.9670  139.0020 C   0  0  1  0  0  3  0  0  0  0  0  0
  181.8390  179.3470  139.3250 C   0  0  0  0  0  2  0  0  0  0  0  0
  180.2970  181.2220  139.5470 N   0  0  0  0  0  1  0  0  0  0  0  0
  181.4230  180.7130  138.7900 C   0  0  0  0  0  2  0  0  0  0  0  0
  183.5750  175.7650  137.3370 C   0  0  0  0  0  2  0  0  0  0  0  0
  183.9320  174.6160  138.1680 N   0  0  0  0  0  2  0  0  0  0  0  0
  185.9730  173.6750  137.1380 C   0  0  0  0  0  1  0  0  0  0  0  0
  184.4750  173.5270  137.3470 C   0  0  2  0  0  3  0  0  0  0  0  0
  182.9730  172.2150  136.0220 O   0  0  0  0  0  1  0  0  0  0  0  0
  183.7470  173.3790  136.0160 C   0  0  0  0  0  2  0  0  0  0  0  0
  189.1130  174.6270  135.0050 O   0  0  0  0  0  1  0  0  0  0  0  0
  190.0340  175.3420  135.6210 O   0  0  0  0  0  0  0  0  0  0  0  0
  188.9670  176.3380  137.9860 C   0  0  0  0  0  2  0  0  0  0  0  0
  191.8840  177.4180  140.1970 C   0  0  0  0  0  3  0  0  0  0  0  0
  190.7600  177.1520  141.0760 N   0  0  0  0  0  0  0  0  0  0  0  0
  191.3310  177.1760  138.7920 C   0  0  0  0  0  3  0  0  0  0  0  0
  189.6320  176.7370  140.3290 C   0  0  0  0  0  3  0  0  0  0  0  0
  189.9270  176.7350  139.0490 C   0  0  0  0  0  0  0  0  0  0  0  0
  192.1220  177.8220  143.2420 O   0  0  0  0  0  0  0  0  0  0  0  0
  190.7980  175.7690  143.3210 O   0  0  0  0  0  0  0  0  0  0  0  0
  190.8330  177.1840  142.8060 S   0  0  0  0  0  0  0  0  0  0  0  0
  188.5290  178.5520  142.3040 C   0  0  0  0  0  1  0  0  0  0  0  0
  189.4220  178.0950  143.4420 C   0  0  1  0  0  3  0  0  0  0  0  0
  188.5940  177.2570  144.4090 C   0  0  0  0  0  2  0  0  0  0  0  0
  188.2560  178.0090  145.7030 C   0  0  1  0  0  3  0  0  0  0  0  0
  186.7490  178.0970  145.9760 C   0  0  0  0  0  3  0  0  0  0  0  0
  186.0250  177.9760  144.7900 O   0  0  0  0  0  1  0  0  0  0  0  0
  186.3370  177.1170  146.8830 O   0  0  0  0  0  1  0  0  0  0  0  0
  188.9700  177.4170  146.8960 C   0  0  0  0  0  0  0  0  0  0  0  0
  188.8070  178.0980  148.3820 S   0  0  0  0  0  0  0  0  0  0  0  0
  189.8820  176.3600  146.7570 O   0  0  0  0  0  0  0  0  0  0  0  0
  191.9940  175.4660  146.8240 O   0  0  0  0  0  0  0  0  0  0  0  0
  191.7170  177.4560  147.9780 N   0  0  0  0  0  1  0  0  0  0  0  0
  191.2110  176.3770  147.1970 C   0  0  0  0  0  0  0  0  0  0  0  0
  2  1  1  6  0  0  0
  2 24  1  0  0  0  0
  2  4  1  0  0  0  0
  2  5  1  0  0  0  0
  3  5  1  0  0  0  0
  3  8  1  1  0  0  0
  4  3  1  0  0  0  0
  4  5  1  0  0  0  0
  5 25  1  0  0  0  0
  7  8  1  0  0  0  0
  7  9  1  0  0  0  0
  8  6  2  0  0  0  0
 10  9  1  0  0  0  0
 10 13  1  0  0  0  0
 11 10  1  0  0  0  0
 13 12  1  0  0  0  0
 13 14  1  0  0  0  0
 16 14  1  0  0  0  0
 16 15  1  0  0  0  0
 17  9  1  0  0  0  0
 17 18  1  0  0  0  0
 19 20  1  0  0  0  0
 20 18  1  0  0  0  0
 22 21  1  0  0  0  0
 22 20  1  0  0  0  0
 23 24  1  0  0  0  0
 25 30  1  0  0  0  0
 26 27  1  0  0  0  0
 27 33  1  0  0  0  0
 28 30  1  0  0  0  0
 28 26  2  0  0  0  0
 29 27  1  0  0  0  0
 30 29  2  0  0  0  0
 33 31  2  0  0  0  0
 33 32  2  0  0  0  0
 33 35  1  0  0  0  0
 34 35  1  0  0  0  0
 35 36  1  0  0  0  0
 36 37  1  0  0  0  0
 37 38  1  0  0  0  0
 37 41  1  0  0  0  0
 38 40  1  0  0  0  0
 39 38  1  0  0  0  0
 41 42  2  0  0  0  0
 43 41  1  0  0  0  0
 43 46  1  0  0  0  0
 44 46  2  0  0  0  0
 46 45  1  0  0  0  0
M  END
>  <MODEL>
7

>  <REMARK>
 VINA RESULT:      -5.3      3.023      8.177
  Name = 
  21 active torsions:
  status: ('A' for Active; 'I' for Inactive)
    1  A    between atoms: C_1  and  C_29
    2  A    between atoms: C_1  and  O_36
    3  A    between atoms: C_2  and  C_39
    4  A    between atoms: C_2  and  C_46
    5  A    between atoms: C_10  and  C_21
    6  A    between atoms: C_10  and  C_45
    7  A    between atoms: C_14  and  O_27
    8  A    between atoms: C_16  and  N_19
    9  A    between atoms: C_16  and  C_44
   10  A    between atoms: C_17  and  C_18
   11  A    between atoms: C_17  and  S_31
   12  A    between atoms: C_18  and  C_29
   13  A    between atoms: N_19  and  CA_38
   14  A    between atoms: C_21  and  C_44
   15  A    between atoms: C_22  and  C_40
   16  A    between atoms: N_23  and  S_31
   17  A    between atoms: C_24  and  C_29
   18  A    between atoms: C_25  and  O_36
   19  A    between atoms: N_26  and  C_44
   20  A    between atoms: C_33  and  CA_38
   21  A    between atoms: C_41  and  C_45
                            x       y       z     vdW  Elec       q    Type
                         _______ _______ _______ _____ _____    ______ ____

>  <TORSDO>
F 21

$$$$
=
 OpenBabel11062416273D

 46 48  0  0  1  0  0  0  0  0999 V2000
  189.0110  178.8580  147.2290 O   0  0  0  0  0  1  0  0  0  0  0  0
  188.4130  177.8120  146.5250 C   0  0  2  0  0  0  0  0  0  0  0  0
  189.5240  178.0080  144.4160 C   0  0  2  0  0  3  0  0  0  0  0  0
  189.3310  177.1360  145.5910 N   0  0  2  0  0  0  0  0  0  0  0  0
  188.2100  177.9960  145.0910 C   0  0  1  0  0  0  0  0  0  0  0  0
  189.8340  175.9700  143.1740 O   0  0  0  0  0  0  0  0  0  0  0  0
  189.4190  177.8840  141.8980 N   0  0  0  0  0  2  0  0  0  0  0  0
  189.6040  177.2080  143.1450 C   0  0  0  0  0  0  0  0  0  0  0  0
  189.3960  177.2030  140.6090 C   0  0  1  0  0  3  0  0  0  0  0  0
  188.1230  177.5880  139.8550 C   0  0  1  0  0  3  0  0  0  0  0  0
  187.8270  178.9410  140.0480 O   0  0  0  0  0  1  0  0  0  0  0  0
  187.1400  176.3880  137.9440 N   0  0  0  0  0  1  0  0  0  0  0  0
  188.2260  177.2600  138.3580 C   0  0  1  0  0  3  0  0  0  0  0  0
  188.3470  178.4920  137.4490 C   0  0  0  0  0  2  0  0  0  0  0  0
  189.3280  177.7290  135.3520 N   0  0  0  0  0  1  0  0  0  0  0  0
  188.1050  178.1980  135.9730 C   0  0  0  0  0  2  0  0  0  0  0  0
  190.6220  177.6070  139.8010 C   0  0  0  0  0  2  0  0  0  0  0  0
  191.4920  176.4470  139.6120 N   0  0  0  0  0  2  0  0  0  0  0  0
  191.3470  174.9830  137.6240 C   0  0  0  0  0  1  0  0  0  0  0  0
  191.8570  176.2940  138.1980 C   0  0  2  0  0  3  0  0  0  0  0  0
  193.9550  175.1980  137.8380 O   0  0  0  0  0  1  0  0  0  0  0  0
  193.3540  176.4530  137.9590 C   0  0  0  0  0  2  0  0  0  0  0  0
  188.1170  176.8250  148.4370 O   0  0  0  0  0  1  0  0  0  0  0  0
  187.5790  176.9330  147.2370 O   0  0  0  0  0  0  0  0  0  0  0  0
  187.1350  177.0780  144.4970 C   0  0  0  0  0  2  0  0  0  0  0  0
  184.2740  179.4210  143.5550 C   0  0  0  0  0  3  0  0  0  0  0  0
  184.5560  178.6030  142.3890 N   0  0  0  0  0  0  0  0  0  0  0  0
  185.3040  178.9700  144.5910 C   0  0  0  0  0  3  0  0  0  0  0  0
  185.6070  177.6970  142.6600 C   0  0  0  0  0  3  0  0  0  0  0  0
  186.0400  177.8770  143.8880 C   0  0  0  0  0  0  0  0  0  0  0  0
  184.2100  177.6360  139.9510 O   0  0  0  0  0  0  0  0  0  0  0  0
  183.7100  180.0010  140.3190 O   0  0  0  0  0  0  0  0  0  0  0  0
  183.6310  178.6240  140.9250 S   0  0  0  0  0  0  0  0  0  0  0  0
  181.2340  179.4020  141.9640 C   0  0  0  0  0  1  0  0  0  0  0  0
  181.9200  178.2240  141.2990 C   0  0  1  0  0  3  0  0  0  0  0  0
  181.1390  177.8440  140.0470 C   0  0  0  0  0  2  0  0  0  0  0  0
  180.8920  176.3340  139.9410 C   0  0  1  0  0  3  0  0  0  0  0  0
  179.5250  175.9040  140.4870 C   0  0  0  0  0  3  0  0  0  0  0  0
  179.6380  174.7210  141.2200 O   0  0  0  0  0  1  0  0  0  0  0  0
  178.9580  176.9020  141.2850 O   0  0  0  0  0  1  0  0  0  0  0  0
  181.0680  175.8370  138.5240 C   0  0  0  0  0  0  0  0  0  0  0  0
  180.8630  176.8590  137.2550 S   0  0  0  0  0  0  0  0  0  0  0  0
  181.2830  174.4790  138.2430 O   0  0  0  0  0  0  0  0  0  0  0  0
  179.1280  173.9420  137.6650 O   0  0  0  0  0  0  0  0  0  0  0  0
  180.5570  172.1430  137.9650 N   0  0  0  0  0  1  0  0  0  0  0  0
  180.2790  173.5400  137.9790 C   0  0  0  0  0  0  0  0  0  0  0  0
  2  1  1  1  0  0  0
  2 24  1  0  0  0  0
  3  8  1  6  0  0  0
  3  5  1  0  0  0  0
  3  4  1  0  0  0  0
  4  2  1  0  0  0  0
  5  4  1  0  0  0  0
  5  2  1  0  0  0  0
  7  8  1  0  0  0  0
  8  6  2  0  0  0  0
  9  7  1  0  0  0  0
 10 11  1  0  0  0  0
 10  9  1  0  0  0  0
 12 13  1  0  0  0  0
 13 10  1  0  0  0  0
 14 13  1  0  0  0  0
 15 16  1  0  0  0  0
 16 14  1  0  0  0  0
 17  9  1  0  0  0  0
 18 17  1  0  0  0  0
 19 20  1  0  0  0  0
 20 18  1  0  0  0  0
 21 22  1  0  0  0  0
 22 20  1  0  0  0  0
 24 23  1  0  0  0  0
 25  5  1  0  0  0  0
 26 28  2  0  0  0  0
 27 29  1  0  0  0  0
 27 26  1  0  0  0  0
 29 30  2  0  0  0  0
 30 25  1  0  0  0  0
 30 28  1  0  0  0  0
 31 33  2  0  0  0  0
 32 33  2  0  0  0  0
 33 35  1  0  0  0  0
 33 27  1  0  0  0  0
 35 34  1  0  0  0  0
 36 35  1  0  0  0  0
 37 36  1  0  0  0  0
 37 38  1  0  0  0  0
 38 39  1  0  0  0  0
 38 40  1  0  0  0  0
 41 37  1  0  0  0  0
 42 41  2  0  0  0  0
 43 41  1  0  0  0  0
 44 46  2  0  0  0  0
 45 46  1  0  0  0  0
 46 43  1  0  0  0  0
M  END
>  <MODEL>
8

>  <REMARK>
 VINA RESULT:      -5.2      2.321      3.676
  Name = 
  21 active torsions:
  status: ('A' for Active; 'I' for Inactive)
    1  A    between atoms: C_1  and  C_29
    2  A    between atoms: C_1  and  O_36
    3  A    between atoms: C_2  and  C_39
    4  A    between atoms: C_2  and  C_46
    5  A    between atoms: C_10  and  C_21
    6  A    between atoms: C_10  and  C_45
    7  A    between atoms: C_14  and  O_27
    8  A    between atoms: C_16  and  N_19
    9  A    between atoms: C_16  and  C_44
   10  A    between atoms: C_17  and  C_18
   11  A    between atoms: C_17  and  S_31
   12  A    between atoms: C_18  and  C_29
   13  A    between atoms: N_19  and  CA_38
   14  A    between atoms: C_21  and  C_44
   15  A    between atoms: C_22  and  C_40
   16  A    between atoms: N_23  and  S_31
   17  A    between atoms: C_24  and  C_29
   18  A    between atoms: C_25  and  O_36
   19  A    between atoms: N_26  and  C_44
   20  A    between atoms: C_33  and  CA_38
   21  A    between atoms: C_41  and  C_45
                            x       y       z     vdW  Elec       q    Type
                         _______ _______ _______ _____ _____    ______ ____

>  <TORSDO>
F 21

$$$$
=
 OpenBabel11062416273D

 46 48  0  0  1  0  0  0  0  0999 V2000
  189.6630  177.7710  134.9170 O   0  0  0  0  0  1  0  0  0  0  0  0
  189.1530  176.9360  135.9120 C   0  0  2  0  0  0  0  0  0  0  0  0
  187.2440  178.1980  136.6100 C   0  0  2  0  0  3  0  0  0  0  0  0
  187.6810  176.9370  135.9790 N   0  0  2  0  0  0  0  0  0  0  0  0
  188.5060  177.5720  137.0570 C   0  0  1  0  0  0  0  0  0  0  0  0
  185.9430  178.6230  138.5890 O   0  0  0  0  0  0  0  0  0  0  0  0
  185.0740  177.0200  137.1280 N   0  0  0  0  0  2  0  0  0  0  0  0
  186.0610  177.9800  137.5130 C   0  0  0  0  0  0  0  0  0  0  0  0
  183.8480  176.7790  137.8800 C   0  0  1  0  0  3  0  0  0  0  0  0
  182.8680  177.9260  137.6320 C   0  0  1  0  0  3  0  0  0  0  0  0
  182.0730  177.6600  136.5130 O   0  0  0  0  0  1  0  0  0  0  0  0
  182.0950  177.1220  139.8260 N   0  0  0  0  0  1  0  0  0  0  0  0
  181.9970  178.2080  138.8650 C   0  0  1  0  0  3  0  0  0  0  0  0
  182.2520  179.5730  139.5180 C   0  0  0  0  0  2  0  0  0  0  0  0
  180.6580  181.3630  139.0690 N   0  0  0  0  0  1  0  0  0  0  0  0
  181.9010  180.7610  138.6280 C   0  0  0  0  0  2  0  0  0  0  0  0
  183.2310  175.4600  137.4350 C   0  0  0  0  0  2  0  0  0  0  0  0
  184.1040  174.3530  137.8190 N   0  0  0  0  0  2  0  0  0  0  0  0
  183.6330  172.0440  137.0680 C   0  0  0  0  0  1  0  0  0  0  0  0
  184.2420  173.3920  136.7170 C   0  0  2  0  0  3  0  0  0  0  0  0
  186.0070  171.8850  136.1280 O   0  0  0  0  0  1  0  0  0  0  0  0
  185.6850  173.2390  136.2500 C   0  0  0  0  0  2  0  0  0  0  0  0
  190.2590  175.3740  134.8870 O   0  0  0  0  0  1  0  0  0  0  0  0
  189.7270  175.6620  136.0600 O   0  0  0  0  0  0  0  0  0  0  0  0
  188.4330  176.6770  138.3000 C   0  0  0  0  0  2  0  0  0  0  0  0
  191.6990  177.1820  140.2100 C   0  0  0  0  0  3  0  0  0  0  0  0
  190.6260  177.6520  141.0690 N   0  0  0  0  0  0  0  0  0  0  0  0
  190.9920  176.7500  138.9240 C   0  0  0  0  0  3  0  0  0  0  0  0
  189.3730  177.4910  140.4320 C   0  0  0  0  0  3  0  0  0  0  0  0
  189.5490  176.9830  139.2330 C   0  0  0  0  0  0  0  0  0  0  0  0
  190.3330  179.5940  142.8400 O   0  0  0  0  0  0  0  0  0  0  0  0
  192.3040  178.1630  143.0380 O   0  0  0  0  0  0  0  0  0  0  0  0
  190.8360  178.1840  142.7030 S   0  0  0  0  0  0  0  0  0  0  0  0
  190.8360  175.9270  144.2310 C   0  0  0  0  0  1  0  0  0  0  0  0
  189.9470  177.0790  143.8050 C   0  0  1  0  0  3  0  0  0  0  0  0
  189.4480  177.8010  145.0520 C   0  0  0  0  0  2  0  0  0  0  0  0
  188.3770  177.0040  145.8070 C   0  0  1  0  0  3  0  0  0  0  0  0
  188.5520  177.0460  147.3300 C   0  0  0  0  0  3  0  0  0  0  0  0
  189.7030  176.3560  147.7130 O   0  0  0  0  0  1  0  0  0  0  0  0
  188.6110  178.3610  147.8010 O   0  0  0  0  0  1  0  0  0  0  0  0
  186.9820  177.4460  145.4290 C   0  0  0  0  0  0  0  0  0  0  0  0
  186.6380  177.8770  143.8820 S   0  0  0  0  0  0  0  0  0  0  0  0
  185.9800  177.6240  146.3960 O   0  0  0  0  0  0  0  0  0  0  0  0
  185.6890  179.7150  147.2950 O   0  0  0  0  0  0  0  0  0  0  0  0
  184.0000  178.9930  145.8830 N   0  0  0  0  0  1  0  0  0  0  0  0
  185.2280  178.7910  146.5750 C   0  0  0  0  0  0  0  0  0  0  0  0
  2  1  1  6  0  0  0
  2  4  1  0  0  0  0
  2 24  1  0  0  0  0
  2  5  1  0  0  0  0
  3  5  1  0  0  0  0
  3  8  1  1  0  0  0
  4  3  1  0  0  0  0
  4  5  1  0  0  0  0
  5 25  1  0  0  0  0
  7  8  1  0  0  0  0
  7  9  1  0  0  0  0
  8  6  2  0  0  0  0
 10  9  1  0  0  0  0
 10 13  1  0  0  0  0
 11 10  1  0  0  0  0
 13 14  1  0  0  0  0
 13 12  1  0  0  0  0
 16 15  1  0  0  0  0
 16 14  1  0  0  0  0
 17 18  1  0  0  0  0
 17  9  1  0  0  0  0
 20 19  1  0  0  0  0
 20 18  1  0  0  0  0
 21 22  1  0  0  0  0
 22 20  1  0  0  0  0
 23 24  1  0  0  0  0
 25 30  1  0  0  0  0
 26 27  1  0  0  0  0
 27 33  1  0  0  0  0
 28 30  1  0  0  0  0
 28 26  2  0  0  0  0
 29 27  1  0  0  0  0
 30 29  2  0  0  0  0
 33 31  2  0  0  0  0
 33 32  2  0  0  0  0
 33 35  1  0  0  0  0
 35 34  1  0  0  0  0
 35 36  1  0  0  0  0
 36 37  1  0  0  0  0
 37 38  1  0  0  0  0
 38 39  1  0  0  0  0
 38 40  1  0  0  0  0
 41 37  1  0  0  0  0
 41 43  1  0  0  0  0
 42 41  2  0  0  0  0
 43 46  1  0  0  0  0
 45 46  1  0  0  0  0
 46 44  2  0  0  0  0
M  END
>  <MODEL>
9

>  <REMARK>
 VINA RESULT:      -5.2      2.693      7.638
  Name = 
  21 active torsions:
  status: ('A' for Active; 'I' for Inactive)
    1  A    between atoms: C_1  and  C_29
    2  A    between atoms: C_1  and  O_36
    3  A    between atoms: C_2  and  C_39
    4  A    between atoms: C_2  and  C_46
    5  A    between atoms: C_10  and  C_21
    6  A    between atoms: C_10  and  C_45
    7  A    between atoms: C_14  and  O_27
    8  A    between atoms: C_16  and  N_19
    9  A    between atoms: C_16  and  C_44
   10  A    between atoms: C_17  and  C_18
   11  A    between atoms: C_17  and  S_31
   12  A    between atoms: C_18  and  C_29
   13  A    between atoms: N_19  and  CA_38
   14  A    between atoms: C_21  and  C_44
   15  A    between atoms: C_22  and  C_40
   16  A    between atoms: N_23  and  S_31
   17  A    between atoms: C_24  and  C_29
   18  A    between atoms: C_25  and  O_36
   19  A    between atoms: N_26  and  C_44
   20  A    between atoms: C_33  and  CA_38
   21  A    between atoms: C_41  and  C_45
                            x       y       z     vdW  Elec       q    Type
                         _______ _______ _______ _____ _____    ______ ____

>  <TORSDO>
F 21

$$$$
