=
 OpenBabel11062417303D

 47 49  0  0  1  0  0  0  0  0999 V2000
  184.8640  178.9830  144.8690 C   0  0  0  0  0  2  0  0  0  0  0  0
  188.7200  177.2450  146.8460 C   0  0  0  0  0  0  0  0  0  0  0  0
  188.9350  177.0780  145.3920 C   0  0  1  0  0  3  0  0  0  0  0  0
  187.2330  177.4360  143.4520 C   0  0  0  0  0  2  0  0  0  0  0  0
  187.3840  177.5390  147.2030 N   0  0  0  0  0  2  0  0  0  0  0  0
  186.1280  178.9900  145.7160 C   0  0  0  0  0  2  0  0  0  0  0  0
  186.5730  177.5620  146.0010 C   0  0  1  0  0  3  0  0  0  0  0  0
  185.7550  177.4370  143.0990 C   0  0  0  0  0  2  0  0  0  0  0  0
  185.1650  178.8170  143.3790 C   0  0  1  0  0  3  0  0  0  0  0  0
  187.4810  176.9780  144.8930 C   0  0  2  0  0  3  0  0  0  0  0  0
  189.6370  177.1470  147.7010 O   0  0  0  0  0  0  0  0  0  0  0  0
  183.8800  179.0330  142.5720 C   0  0  2  0  0  3  0  0  0  0  0  0
  182.7540  179.3880  143.4310 N   0  0  0  0  0  2  0  0  0  0  0  0
  180.3360  178.4920  143.0120 C   0  0  0  0  0  3  0  0  0  0  0  0
  181.4530  178.9040  143.2080 C   0  0  0  0  0  0  0  0  0  0  0  0
  183.5520  177.8320  141.8080 N   0  0  0  0  0  2  0  0  0  0  0  0
  183.7320  178.1440  140.3940 C   0  0  1  0  0  3  0  0  0  0  0  0
  182.0090  176.1870  138.0140 C   0  0  0  0  0  2  0  0  0  0  0  0
  182.7420  177.4780  138.1830 C   0  0  0  0  0  2  0  0  0  0  0  0
  181.6720  176.8990  140.2350 O   0  0  0  0  0  0  0  0  0  0  0  0
  181.5800  179.1790  139.5510 C   0  0  0  0  0  1  0  0  0  0  0  0
  181.7750  175.7490  139.4330 C   0  0  0  0  0  2  0  0  0  0  0  0
  182.4250  177.9130  139.6050 C   0  0  1  0  0  0  0  0  0  0  0  0
  184.3120  179.5250  140.2240 C   0  0  0  0  0  3  0  0  0  0  0  0
  184.8360  179.8630  139.1730 O   0  0  0  0  0  0  0  0  0  0  0  0
  189.6770  178.3170  144.8830 C   0  0  0  0  0  2  0  0  0  0  0  0
  191.1220  178.0270  144.4900 C   0  0  0  0  0  2  0  0  0  0  0  0
  191.2340  176.8010  143.6010 C   0  0  0  0  0  2  0  0  0  0  0  0
  191.3140  177.2250  142.1500 C   0  0  0  0  0  2  0  0  0  0  0  0
  190.0960  176.8410  141.4600 N   0  0  0  0  0  2  0  0  0  0  0  0
  190.1690  177.3880  140.1110 C   0  0  2  0  0  3  0  0  0  0  0  0
  188.2190  178.7670  140.1590 O   0  0  0  0  0  0  0  0  0  0  0  0
  188.8050  177.7740  139.6490 C   0  0  0  0  0  0  0  0  0  0  0  0
  187.1130  177.4200  138.0560 N   0  0  0  0  0  0  0  0  0  0  0  0
  188.1710  177.0050  138.6270 N   0  0  0  0  0  0  0  0  0  0  0  0
  186.4680  176.6590  137.0330 C   0  0  0  0  0  0  0  0  0  0  0  0
  186.5910  175.4060  137.0190 O   0  0  0  0  0  0  0  0  0  0  0  0
  185.6560  177.3250  135.9750 C   0  0  0  0  0  1  0  0  0  0  0  0
  190.7720  176.3670  139.1540 C   0  0  0  0  0  2  0  0  0  0  0  0
  191.3070  177.0380  137.9820 N   0  0  0  0  0  2  0  0  0  0  0  0
  191.6520  176.0110  137.0130 C   0  0  0  0  0  2  0  0  0  0  0  0
  192.6090  174.9930  137.6260 C   0  0  2  0  0  3  0  0  0  0  0  0
  194.9390  175.0340  138.5110 O   0  0  0  0  0  1  0  0  0  0  0  0
  194.3670  176.3530  136.7290 O   0  0  0  0  0  0  0  0  0  0  0  0
  194.0160  175.5000  137.5880 C   0  0  0  0  0  0  0  0  0  0  0  0
  191.9200  174.0390  135.6000 C   0  0  0  0  0  1  0  0  0  0  0  0
  192.5140  173.7380  136.8950 N   0  0  0  0  0  2  0  0  0  0  0  0
  1  6  1  0  0  0  0
  2  5  1  0  0  0  0
  2 11  2  0  0  0  0
  3 26  1  6  0  0  0
  3  2  1  0  0  0  0
  7  6  1  6  0  0  0
  7  5  1  0  0  0  0
  8  9  1  0  0  0  0
  8  4  1  0  0  0  0
  9 12  1  6  0  0  0
  9  1  1  0  0  0  0
 10  4  1  6  0  0  0
 10  3  1  0  0  0  0
 10  7  1  0  0  0  0
 12 16  1  1  0  0  0
 12 13  1  0  0  0  0
 14 15  3  0  0  0  0
 15 13  1  0  0  0  0
 17 24  1  1  0  0  0
 17 16  1  0  0  0  0
 18 19  1  0  0  0  0
 18 22  1  0  0  0  0
 19 23  1  0  0  0  0
 22 20  1  0  0  0  0
 23 21  1  6  0  0  0
 23 20  1  0  0  0  0
 23 17  1  0  0  0  0
 25 24  2  0  0  0  0
 27 26  1  0  0  0  0
 28 27  1  0  0  0  0
 29 28  1  0  0  0  0
 30 29  1  0  0  0  0
 31 39  1  6  0  0  0
 31 30  1  0  0  0  0
 33 31  1  0  0  0  0
 33 32  2  0  0  0  0
 34 35  2  0  0  0  0
 35 33  1  0  0  0  0
 36 34  1  0  0  0  0
 37 36  2  0  0  0  0
 38 36  1  0  0  0  0
 40 39  1  0  0  0  0
 41 40  1  0  0  0  0
 42 41  1  6  0  0  0
 44 45  2  0  0  0  0
 45 42  1  0  0  0  0
 45 43  1  0  0  0  0
 46 47  1  0  0  0  0
 47 42  1  0  0  0  0
M  END
>  <MODEL>
1

>  <REMARK>
 VINA RESULT:      -6.9      0.000      0.000
  Name = 
  22 active torsions:
  status: ('A' for Active; 'I' for Inactive)
    1  A    between atoms: C_1  and  CA_19
    2  A    between atoms: C_1  and  N_27
    3  A    between atoms: C_3  and  N_28
    4  A    between atoms: C_3  and  C_39
    5  A    between atoms: CA_4  and  N_11
    6  A    between atoms: CA_4  and  C_22
    7  A    between atoms: CA_4  and  C_41
    8  A    between atoms: C_7  and  C_10
    9  A    between atoms: C_7  and  C_12
   10  A    between atoms: C_10  and  C_39
   11  A    between atoms: N_11  and  C_14
   12  A    between atoms: N_13  and  C_14
   13  A    between atoms: N_13  and  C_42
   14  A    between atoms: C_14  and  C_40
   15  A    between atoms: CA_19  and  C_37
   16  A    between atoms: CA_19  and  N_47
   17  A    between atoms: C_20  and  C_24
   18  A    between atoms: C_20  and  N_43
   19  A    between atoms: C_21  and  N_23
   20  A    between atoms: C_24  and  N_28
   21  A    between atoms: C_24  and  C_32
   22  A    between atoms: N_27  and  C_32
                            x       y       z     vdW  Elec       q    Type
                         _______ _______ _______ _____ _____    ______ ____

>  <TORSDO>
F 22

$$$$
=
 OpenBabel11062417303D

 47 49  0  0  1  0  0  0  0  0999 V2000
  184.7140  178.8090  144.8030 C   0  0  0  0  0  2  0  0  0  0  0  0
  188.8100  177.3390  146.4940 C   0  0  0  0  0  0  0  0  0  0  0  0
  188.9740  177.3020  145.0250 C   0  0  1  0  0  3  0  0  0  0  0  0
  187.1600  177.6220  143.1840 C   0  0  0  0  0  2  0  0  0  0  0  0
  187.4680  177.4670  146.9230 N   0  0  0  0  0  2  0  0  0  0  0  0
  186.0070  178.8850  145.6000 C   0  0  0  0  0  2  0  0  0  0  0  0
  186.6060  177.4930  145.7580 C   0  0  1  0  0  3  0  0  0  0  0  0
  185.6750  177.4960  142.8880 C   0  0  0  0  0  2  0  0  0  0  0  0
  184.9620  178.7830  143.2950 C   0  0  1  0  0  3  0  0  0  0  0  0
  187.5170  177.0890  144.5750 C   0  0  2  0  0  3  0  0  0  0  0  0
  189.7700  177.2750  147.3050 O   0  0  0  0  0  0  0  0  0  0  0  0
  183.6270  178.9230  142.5550 C   0  0  2  0  0  3  0  0  0  0  0  0
  182.4890  178.7410  143.4530 N   0  0  0  0  0  2  0  0  0  0  0  0
  180.2220  179.9920  143.1060 C   0  0  0  0  0  3  0  0  0  0  0  0
  181.2680  179.4120  143.2680 C   0  0  0  0  0  0  0  0  0  0  0  0
  183.5470  177.9570  141.4630 N   0  0  0  0  0  2  0  0  0  0  0  0
  182.5940  178.4710  140.4860 C   0  0  1  0  0  3  0  0  0  0  0  0
  185.4190  178.2820  138.3780 C   0  0  0  0  0  2  0  0  0  0  0  0
  184.8180  179.0810  139.4880 C   0  0  0  0  0  2  0  0  0  0  0  0
  183.0780  178.1550  138.1440 O   0  0  0  0  0  0  0  0  0  0  0  0
  182.8250  180.4090  138.8710 C   0  0  0  0  0  1  0  0  0  0  0  0
  184.2660  177.4390  137.9110 C   0  0  0  0  0  2  0  0  0  0  0  0
  183.3200  179.0150  139.2370 C   0  0  1  0  0  0  0  0  0  0  0  0
  181.5390  177.4390  140.1780 C   0  0  0  0  0  3  0  0  0  0  0  0
  180.3540  177.6760  140.3560 O   0  0  0  0  0  0  0  0  0  0  0  0
  189.5650  178.6450  144.5860 C   0  0  0  0  0  2  0  0  0  0  0  0
  190.9870  178.5240  144.0480 C   0  0  0  0  0  2  0  0  0  0  0  0
  191.2810  177.1290  143.5260 C   0  0  0  0  0  2  0  0  0  0  0  0
  191.6340  177.1960  142.0560 C   0  0  0  0  0  2  0  0  0  0  0  0
  190.4390  176.9950  141.2560 N   0  0  0  0  0  2  0  0  0  0  0  0
  190.7300  177.4750  139.9110 C   0  0  2  0  0  3  0  0  0  0  0  0
  188.6210  178.5940  139.9820 O   0  0  0  0  0  0  0  0  0  0  0  0
  189.4830  177.9970  139.2830 C   0  0  0  0  0  0  0  0  0  0  0  0
  188.4460  176.9500  137.4510 N   0  0  0  0  0  0  0  0  0  0  0  0
  189.2770  177.8110  137.8830 N   0  0  0  0  0  0  0  0  0  0  0  0
  188.2310  176.7530  136.0520 C   0  0  0  0  0  0  0  0  0  0  0  0
  189.1190  177.1040  135.2310 O   0  0  0  0  0  0  0  0  0  0  0  0
  186.9680  176.1450  135.5460 C   0  0  0  0  0  1  0  0  0  0  0  0
  191.3110  176.3540  139.0590 C   0  0  0  0  0  2  0  0  0  0  0  0
  192.6440  176.7110  138.6070 N   0  0  0  0  0  2  0  0  0  0  0  0
  192.7530  176.3110  137.2130 C   0  0  0  0  0  2  0  0  0  0  0  0
  194.0150  175.4840  136.9880 C   0  0  2  0  0  3  0  0  0  0  0  0
  194.2120  174.0450  134.9620 O   0  0  0  0  0  0  0  0  0  0  0  0
  192.9620  173.3450  136.7470 O   0  0  0  0  0  1  0  0  0  0  0  0
  193.6980  174.2300  136.2350 C   0  0  0  0  0  0  0  0  0  0  0  0
  195.7940  174.3450  138.0020 C   0  0  0  0  0  1  0  0  0  0  0  0
  194.6130  175.1540  138.2730 N   0  0  0  0  0  2  0  0  0  0  0  0
  1  6  1  0  0  0  0
  2  5  1  0  0  0  0
  2 11  2  0  0  0  0
  3 26  1  6  0  0  0
  3  2  1  0  0  0  0
  7  6  1  6  0  0  0
  7  5  1  0  0  0  0
  8  4  1  0  0  0  0
  8  9  1  0  0  0  0
  9 12  1  6  0  0  0
  9  1  1  0  0  0  0
 10  4  1  6  0  0  0
 10  3  1  0  0  0  0
 10  7  1  0  0  0  0
 12 16  1  6  0  0  0
 12 13  1  0  0  0  0
 14 15  3  0  0  0  0
 15 13  1  0  0  0  0
 17 24  1  6  0  0  0
 17 16  1  0  0  0  0
 18 19  1  0  0  0  0
 20 23  1  0  0  0  0
 22 20  1  0  0  0  0
 22 18  1  0  0  0  0
 23 21  1  6  0  0  0
 23 19  1  0  0  0  0
 23 17  1  0  0  0  0
 24 25  2  0  0  0  0
 27 26  1  0  0  0  0
 28 27  1  0  0  0  0
 29 28  1  0  0  0  0
 30 29  1  0  0  0  0
 31 39  1  6  0  0  0
 31 30  1  0  0  0  0
 33 31  1  0  0  0  0
 33 32  2  0  0  0  0
 34 35  2  0  0  0  0
 35 33  1  0  0  0  0
 36 34  1  0  0  0  0
 37 36  2  0  0  0  0
 38 36  1  0  0  0  0
 40 39  1  0  0  0  0
 41 40  1  0  0  0  0
 42 41  1  1  0  0  0
 42 47  1  0  0  0  0
 43 45  2  0  0  0  0
 45 44  1  0  0  0  0
 45 42  1  0  0  0  0
 46 47  1  0  0  0  0
M  END
>  <MODEL>
2

>  <REMARK>
 VINA RESULT:      -6.6      1.425      1.985
  Name = 
  22 active torsions:
  status: ('A' for Active; 'I' for Inactive)
    1  A    between atoms: C_1  and  CA_19
    2  A    between atoms: C_1  and  N_27
    3  A    between atoms: C_3  and  N_28
    4  A    between atoms: C_3  and  C_39
    5  A    between atoms: CA_4  and  N_11
    6  A    between atoms: CA_4  and  C_22
    7  A    between atoms: CA_4  and  C_41
    8  A    between atoms: C_7  and  C_10
    9  A    between atoms: C_7  and  C_12
   10  A    between atoms: C_10  and  C_39
   11  A    between atoms: N_11  and  C_14
   12  A    between atoms: N_13  and  C_14
   13  A    between atoms: N_13  and  C_42
   14  A    between atoms: C_14  and  C_40
   15  A    between atoms: CA_19  and  C_37
   16  A    between atoms: CA_19  and  N_47
   17  A    between atoms: C_20  and  C_24
   18  A    between atoms: C_20  and  N_43
   19  A    between atoms: C_21  and  N_23
   20  A    between atoms: C_24  and  N_28
   21  A    between atoms: C_24  and  C_32
   22  A    between atoms: N_27  and  C_32
                            x       y       z     vdW  Elec       q    Type
                         _______ _______ _______ _____ _____    ______ ____

>  <TORSDO>
F 22

$$$$
=
 OpenBabel11062417303D

 47 49  0  0  1  0  0  0  0  0999 V2000
  184.3240  173.2220  137.2830 C   0  0  0  0  0  2  0  0  0  0  0  0
  188.5380  175.0880  136.5360 C   0  0  0  0  0  0  0  0  0  0  0  0
  187.6180  176.2450  136.5940 C   0  0  1  0  0  3  0  0  0  0  0  0
  185.0140  176.2440  136.6480 C   0  0  0  0  0  2  0  0  0  0  0  0
  187.8880  173.8400  136.3900 N   0  0  0  0  0  2  0  0  0  0  0  0
  185.7850  173.5370  137.5650 C   0  0  0  0  0  2  0  0  0  0  0  0
  186.4580  174.0660  136.3050 C   0  0  1  0  0  3  0  0  0  0  0  0
  183.7780  175.4520  136.2590 C   0  0  0  0  0  2  0  0  0  0  0  0
  183.4350  174.4630  137.3710 C   0  0  1  0  0  3  0  0  0  0  0  0
  186.3020  175.5940  136.1310 C   0  0  2  0  0  3  0  0  0  0  0  0
  189.7890  175.1870  136.6170 O   0  0  0  0  0  0  0  0  0  0  0  0
  181.9630  174.0430  137.2890 C   0  0  2  0  0  3  0  0  0  0  0  0
  181.6170  173.5370  135.9640 N   0  0  0  0  0  2  0  0  0  0  0  0
  180.6880  171.1240  135.5890 C   0  0  0  0  0  3  0  0  0  0  0  0
  181.1160  172.2390  135.7600 C   0  0  0  0  0  0  0  0  0  0  0  0
  181.0940  175.1680  137.6250 N   0  0  0  0  0  2  0  0  0  0  0  0
  181.2190  175.4100  139.0590 C   0  0  1  0  0  3  0  0  0  0  0  0
  180.5660  178.7970  138.3080 C   0  0  0  0  0  2  0  0  0  0  0  0
  181.5350  177.6900  138.0500 C   0  0  0  0  0  2  0  0  0  0  0  0
  180.5880  177.4260  140.2240 O   0  0  0  0  0  0  0  0  0  0  0  0
  182.9260  177.0340  139.9880 C   0  0  0  0  0  1  0  0  0  0  0  0
  179.7620  178.2740  139.4650 C   0  0  0  0  0  2  0  0  0  0  0  0
  181.5520  176.8900  139.3440 C   0  0  1  0  0  0  0  0  0  0  0  0
  180.0000  174.9070  139.7910 C   0  0  0  0  0  3  0  0  0  0  0  0
  179.5990  173.7640  139.6370 O   0  0  0  0  0  0  0  0  0  0  0  0
  187.5850  176.7430  138.0420 C   0  0  0  0  0  2  0  0  0  0  0  0
  187.9780  178.2100  138.1780 C   0  0  0  0  0  2  0  0  0  0  0  0
  189.0740  178.4120  139.2100 C   0  0  0  0  0  2  0  0  0  0  0  0
  188.6920  177.7260  140.5030 C   0  0  0  0  0  2  0  0  0  0  0  0
  188.1510  178.7010  141.4340 N   0  0  0  0  0  2  0  0  0  0  0  0
  186.9540  178.1200  142.0260 C   0  0  2  0  0  3  0  0  0  0  0  0
  185.5840  179.4340  140.5750 O   0  0  0  0  0  0  0  0  0  0  0  0
  185.7770  178.9900  141.7390 C   0  0  0  0  0  0  0  0  0  0  0  0
  183.9270  178.5320  143.1160 N   0  0  0  0  0  0  0  0  0  0  0  0
  184.8760  179.3170  142.7970 N   0  0  0  0  0  0  0  0  0  0  0  0
  183.0180  178.8490  144.1720 C   0  0  0  0  0  0  0  0  0  0  0  0
  183.4670  179.1580  145.3060 O   0  0  0  0  0  0  0  0  0  0  0  0
  181.5430  178.8120  143.9540 C   0  0  0  0  0  1  0  0  0  0  0  0
  187.1270  177.9610  143.5310 C   0  0  0  0  0  2  0  0  0  0  0  0
  188.2420  177.0750  143.8130 N   0  0  0  0  0  2  0  0  0  0  0  0
  189.0920  177.7410  144.7870 C   0  0  0  0  0  2  0  0  0  0  0  0
  190.3650  176.9360  145.0300 C   0  0  2  0  0  3  0  0  0  0  0  0
  191.9560  176.9430  146.9480 O   0  0  0  0  0  0  0  0  0  0  0  0
  189.7190  176.6320  147.3180 O   0  0  0  0  0  1  0  0  0  0  0  0
  190.6520  176.8300  146.4950 C   0  0  0  0  0  0  0  0  0  0  0  0
  191.6970  176.8570  143.1040 C   0  0  0  0  0  1  0  0  0  0  0  0
  191.4800  177.5780  144.3510 N   0  0  0  0  0  2  0  0  0  0  0  0
  1  9  1  0  0  0  0
  1  6  1  0  0  0  0
  2  3  1  0  0  0  0
  2 11  2  0  0  0  0
  3 26  1  1  0  0  0
  5  2  1  0  0  0  0
  7  5  1  0  0  0  0
  7  6  1  1  0  0  0
  8  4  1  0  0  0  0
  8  9  1  0  0  0  0
  9 12  1  6  0  0  0
 10  7  1  0  0  0  0
 10  3  1  0  0  0  0
 10  4  1  1  0  0  0
 12 13  1  6  0  0  0
 12 16  1  0  0  0  0
 14 15  3  0  0  0  0
 15 13  1  0  0  0  0
 16 17  1  0  0  0  0
 17 23  1  0  0  0  0
 17 24  1  1  0  0  0
 18 22  1  0  0  0  0
 19 18  1  0  0  0  0
 19 23  1  0  0  0  0
 22 20  1  0  0  0  0
 23 21  1  1  0  0  0
 23 20  1  0  0  0  0
 25 24  2  0  0  0  0
 26 27  1  0  0  0  0
 27 28  1  0  0  0  0
 28 29  1  0  0  0  0
 29 30  1  0  0  0  0
 30 31  1  0  0  0  0
 31 39  1  1  0  0  0
 32 33  2  0  0  0  0
 33 31  1  0  0  0  0
 33 35  1  0  0  0  0
 34 36  1  0  0  0  0
 35 34  2  0  0  0  0
 36 37  2  0  0  0  0
 38 36  1  0  0  0  0
 39 40  1  0  0  0  0
 40 41  1  0  0  0  0
 42 41  1  1  0  0  0
 42 45  1  0  0  0  0
 45 43  2  0  0  0  0
 45 44  1  0  0  0  0
 46 47  1  0  0  0  0
 47 42  1  0  0  0  0
M  END
>  <MODEL>
3

>  <REMARK>
 VINA RESULT:      -6.1      2.750      7.554
  Name = 
  22 active torsions:
  status: ('A' for Active; 'I' for Inactive)
    1  A    between atoms: C_1  and  CA_19
    2  A    between atoms: C_1  and  N_27
    3  A    between atoms: C_3  and  N_28
    4  A    between atoms: C_3  and  C_39
    5  A    between atoms: CA_4  and  N_11
    6  A    between atoms: CA_4  and  C_22
    7  A    between atoms: CA_4  and  C_41
    8  A    between atoms: C_7  and  C_10
    9  A    between atoms: C_7  and  C_12
   10  A    between atoms: C_10  and  C_39
   11  A    between atoms: N_11  and  C_14
   12  A    between atoms: N_13  and  C_14
   13  A    between atoms: N_13  and  C_42
   14  A    between atoms: C_14  and  C_40
   15  A    between atoms: CA_19  and  C_37
   16  A    between atoms: CA_19  and  N_47
   17  A    between atoms: C_20  and  C_24
   18  A    between atoms: C_20  and  N_43
   19  A    between atoms: C_21  and  N_23
   20  A    between atoms: C_24  and  N_28
   21  A    between atoms: C_24  and  C_32
   22  A    between atoms: N_27  and  C_32
                            x       y       z     vdW  Elec       q    Type
                         _______ _______ _______ _____ _____    ______ ____

>  <TORSDO>
F 22

$$$$
=
 OpenBabel11062417303D

 47 49  0  0  1  0  0  0  0  0999 V2000
  184.5470  172.9150  137.4690 C   0  0  0  0  0  2  0  0  0  0  0  0
  189.0040  173.4390  136.1780 C   0  0  0  0  0  0  0  0  0  0  0  0
  188.3940  174.7720  135.9780 C   0  0  1  0  0  3  0  0  0  0  0  0
  185.8790  175.4380  136.1000 C   0  0  0  0  0  2  0  0  0  0  0  0
  188.0660  172.3960  136.3580 N   0  0  0  0  0  2  0  0  0  0  0  0
  186.0600  172.9090  137.6270 C   0  0  0  0  0  2  0  0  0  0  0  0
  186.7290  172.9480  136.2580 C   0  0  1  0  0  3  0  0  0  0  0  0
  184.4610  174.9140  135.9480 C   0  0  0  0  0  2  0  0  0  0  0  0
  183.9900  174.3250  137.2760 C   0  0  1  0  0  3  0  0  0  0  0  0
  186.9260  174.3850  135.7220 C   0  0  2  0  0  3  0  0  0  0  0  0
  190.2450  173.2360  136.2000 O   0  0  0  0  0  0  0  0  0  0  0  0
  182.4590  174.2820  137.3380 C   0  0  2  0  0  3  0  0  0  0  0  0
  181.9120  173.2240  136.4930 N   0  0  0  0  0  2  0  0  0  0  0  0
  180.0240  171.6130  137.3060 C   0  0  0  0  0  3  0  0  0  0  0  0
  180.8970  172.3560  136.9330 C   0  0  0  0  0  0  0  0  0  0  0  0
  181.8970  175.5680  136.9360 N   0  0  0  0  0  2  0  0  0  0  0  0
  181.9990  176.4720  138.0760 C   0  0  1  0  0  3  0  0  0  0  0  0
  183.0350  179.7050  139.0450 C   0  0  0  0  0  2  0  0  0  0  0  0
  181.8520  178.9340  138.5570 C   0  0  0  0  0  2  0  0  0  0  0  0
  183.8470  177.9690  137.6740 O   0  0  0  0  0  0  0  0  0  0  0  0
  181.9840  178.1790  136.2050 C   0  0  0  0  0  1  0  0  0  0  0  0
  184.1760  178.7620  138.7880 C   0  0  0  0  0  2  0  0  0  0  0  0
  182.4390  177.8820  137.6280 C   0  0  1  0  0  0  0  0  0  0  0  0
  180.7250  176.4580  138.8830 C   0  0  0  0  0  3  0  0  0  0  0  0
  179.6460  176.2390  138.3530 O   0  0  0  0  0  0  0  0  0  0  0  0
  188.6040  175.5800  137.2620 C   0  0  0  0  0  2  0  0  0  0  0  0
  189.5460  176.7650  137.0730 C   0  0  0  0  0  2  0  0  0  0  0  0
  189.4110  177.7820  138.1930 C   0  0  0  0  0  2  0  0  0  0  0  0
  189.0640  177.0770  139.4860 C   0  0  0  0  0  2  0  0  0  0  0  0
  189.2350  177.9900  140.6030 N   0  0  0  0  0  2  0  0  0  0  0  0
  189.5570  177.1880  141.7760 C   0  0  2  0  0  3  0  0  0  0  0  0
  188.1590  175.8030  143.1300 O   0  0  0  0  0  0  0  0  0  0  0  0
  188.3150  176.9130  142.5540 C   0  0  0  0  0  0  0  0  0  0  0  0
  186.2480  177.7330  143.3170 N   0  0  0  0  0  0  0  0  0  0  0  0
  187.3060  177.9190  142.6350 N   0  0  0  0  0  0  0  0  0  0  0  0
  185.2300  178.7310  143.4050 C   0  0  0  0  0  0  0  0  0  0  0  0
  184.8090  179.2840  142.3560 O   0  0  0  0  0  0  0  0  0  0  0  0
  184.6620  179.1360  144.7240 C   0  0  0  0  0  1  0  0  0  0  0  0
  190.5710  177.9110  142.6540 C   0  0  0  0  0  2  0  0  0  0  0  0
  191.1110  176.9980  143.6460 N   0  0  0  0  0  2  0  0  0  0  0  0
  191.2590  177.7420  144.8870 C   0  0  0  0  0  2  0  0  0  0  0  0
  190.8370  176.8880  146.0790 C   0  0  2  0  0  3  0  0  0  0  0  0
  188.5240  177.7890  145.8570 O   0  0  0  0  0  0  0  0  0  0  0  0
  189.4530  177.5170  147.9310 O   0  0  0  0  0  1  0  0  0  0  0  0
  189.5710  177.4110  146.6820 C   0  0  0  0  0  0  0  0  0  0  0  0
  192.3210  175.5060  147.2540 C   0  0  0  0  0  1  0  0  0  0  0  0
  191.8980  176.8890  147.0740 N   0  0  0  0  0  2  0  0  0  0  0  0
  1  6  1  0  0  0  0
  2 11  2  0  0  0  0
  2  5  1  0  0  0  0
  3  2  1  0  0  0  0
  3 26  1  1  0  0  0
  7  5  1  0  0  0  0
  7  6  1  1  0  0  0
  8  4  1  0  0  0  0
  8  9  1  0  0  0  0
  9 12  1  6  0  0  0
  9  1  1  0  0  0  0
 10  3  1  0  0  0  0
 10  4  1  1  0  0  0
 10  7  1  0  0  0  0
 12 13  1  6  0  0  0
 13 15  1  0  0  0  0
 15 14  3  0  0  0  0
 16 12  1  0  0  0  0
 16 17  1  0  0  0  0
 17 24  1  6  0  0  0
 19 18  1  0  0  0  0
 20 22  1  0  0  0  0
 22 18  1  0  0  0  0
 23 21  1  6  0  0  0
 23 20  1  0  0  0  0
 23 17  1  0  0  0  0
 23 19  1  0  0  0  0
 25 24  2  0  0  0  0
 27 26  1  0  0  0  0
 27 28  1  0  0  0  0
 28 29  1  0  0  0  0
 29 30  1  0  0  0  0
 30 31  1  0  0  0  0
 31 33  1  0  0  0  0
 31 39  1  1  0  0  0
 33 35  1  0  0  0  0
 33 32  2  0  0  0  0
 34 36  1  0  0  0  0
 35 34  2  0  0  0  0
 36 38  1  0  0  0  0
 37 36  2  0  0  0  0
 39 40  1  0  0  0  0
 40 41  1  0  0  0  0
 42 41  1  6  0  0  0
 42 45  1  0  0  0  0
 42 47  1  0  0  0  0
 43 45  2  0  0  0  0
 45 44  1  0  0  0  0
 47 46  1  0  0  0  0
M  END
>  <MODEL>
4

>  <REMARK>
 VINA RESULT:      -5.9      2.943      7.707
  Name = 
  22 active torsions:
  status: ('A' for Active; 'I' for Inactive)
    1  A    between atoms: C_1  and  CA_19
    2  A    between atoms: C_1  and  N_27
    3  A    between atoms: C_3  and  N_28
    4  A    between atoms: C_3  and  C_39
    5  A    between atoms: CA_4  and  N_11
    6  A    between atoms: CA_4  and  C_22
    7  A    between atoms: CA_4  and  C_41
    8  A    between atoms: C_7  and  C_10
    9  A    between atoms: C_7  and  C_12
   10  A    between atoms: C_10  and  C_39
   11  A    between atoms: N_11  and  C_14
   12  A    between atoms: N_13  and  C_14
   13  A    between atoms: N_13  and  C_42
   14  A    between atoms: C_14  and  C_40
   15  A    between atoms: CA_19  and  C_37
   16  A    between atoms: CA_19  and  N_47
   17  A    between atoms: C_20  and  C_24
   18  A    between atoms: C_20  and  N_43
   19  A    between atoms: C_21  and  N_23
   20  A    between atoms: C_24  and  N_28
   21  A    between atoms: C_24  and  C_32
   22  A    between atoms: N_27  and  C_32
                            x       y       z     vdW  Elec       q    Type
                         _______ _______ _______ _____ _____    ______ ____

>  <TORSDO>
F 22

$$$$
=
 OpenBabel11062417303D

 47 49  0  0  1  0  0  0  0  0999 V2000
  183.9730  173.0140  137.3120 C   0  0  0  0  0  2  0  0  0  0  0  0
  188.5230  173.9450  136.8340 C   0  0  0  0  0  0  0  0  0  0  0  0
  187.8430  175.2220  136.5240 C   0  0  1  0  0  3  0  0  0  0  0  0
  185.2970  175.6620  136.1940 C   0  0  0  0  0  2  0  0  0  0  0  0
  187.6650  172.8210  136.8470 N   0  0  0  0  0  2  0  0  0  0  0  0
  185.4280  173.1390  137.7370 C   0  0  0  0  0  2  0  0  0  0  0  0
  186.3230  173.2550  136.5090 C   0  0  1  0  0  3  0  0  0  0  0  0
  183.9810  175.0180  135.7940 C   0  0  0  0  0  2  0  0  0  0  0  0
  183.3360  174.3730  137.0180 C   0  0  1  0  0  3  0  0  0  0  0  0
  186.4840  174.7100  136.0120 C   0  0  2  0  0  3  0  0  0  0  0  0
  189.7540  173.8520  137.0760 O   0  0  0  0  0  0  0  0  0  0  0  0
  181.8280  174.1940  136.8070 C   0  0  2  0  0  3  0  0  0  0  0  0
  181.5080  173.8950  135.4140 N   0  0  0  0  0  2  0  0  0  0  0  0
  180.8110  171.5060  134.6220 C   0  0  0  0  0  3  0  0  0  0  0  0
  181.1350  172.6090  134.9860 C   0  0  0  0  0  0  0  0  0  0  0  0
  181.1100  175.3950  137.2260 N   0  0  0  0  0  2  0  0  0  0  0  0
  181.1290  175.4360  138.6850 C   0  0  1  0  0  3  0  0  0  0  0  0
  183.6960  177.8310  139.0490 C   0  0  0  0  0  2  0  0  0  0  0  0
  182.9310  176.7880  139.7970 C   0  0  0  0  0  2  0  0  0  0  0  0
  181.5340  177.7450  138.1160 O   0  0  0  0  0  0  0  0  0  0  0  0
  180.5640  177.3420  140.2540 C   0  0  0  0  0  1  0  0  0  0  0  0
  182.8780  178.0150  137.8020 C   0  0  0  0  0  2  0  0  0  0  0  0
  181.5350  176.8350  139.1950 C   0  0  1  0  0  0  0  0  0  0  0  0
  179.8220  174.9360  139.2480 C   0  0  0  0  0  3  0  0  0  0  0  0
  179.6820  173.7670  139.5730 O   0  0  0  0  0  0  0  0  0  0  0  0
  187.7490  176.0280  137.8220 C   0  0  0  0  0  2  0  0  0  0  0  0
  188.8180  177.1110  137.9310 C   0  0  0  0  0  2  0  0  0  0  0  0
  189.6050  177.0070  139.2260 C   0  0  0  0  0  2  0  0  0  0  0  0
  188.8500  177.6980  140.3400 C   0  0  0  0  0  2  0  0  0  0  0  0
  188.9700  176.9270  141.5650 N   0  0  0  0  0  2  0  0  0  0  0  0
  189.4870  177.8210  142.5930 C   0  0  2  0  0  3  0  0  0  0  0  0
  191.8150  177.3000  142.4800 O   0  0  0  0  0  0  0  0  0  0  0  0
  190.7510  177.2650  143.1550 C   0  0  0  0  0  0  0  0  0  0  0  0
  191.3440  177.2540  145.4300 N   0  0  0  0  0  0  0  0  0  0  0  0
  190.7420  176.6910  144.4620 N   0  0  0  0  0  0  0  0  0  0  0  0
  191.3420  176.6890  146.7420 C   0  0  0  0  0  0  0  0  0  0  0  0
  190.5220  177.1090  147.5990 O   0  0  0  0  0  0  0  0  0  0  0  0
  192.3030  175.6110  147.1160 C   0  0  0  0  0  1  0  0  0  0  0  0
  188.4610  178.0030  143.7050 C   0  0  0  0  0  2  0  0  0  0  0  0
  187.4880  176.9250  143.6670 N   0  0  0  0  0  2  0  0  0  0  0  0
  186.5030  177.1910  144.7030 C   0  0  0  0  0  2  0  0  0  0  0  0
  185.7310  178.4700  144.3940 C   0  0  2  0  0  3  0  0  0  0  0  0
  185.7660  179.3720  146.7180 O   0  0  0  0  0  1  0  0  0  0  0  0
  183.7690  179.0210  145.6560 O   0  0  0  0  0  0  0  0  0  0  0  0
  185.0270  178.9690  145.6170 C   0  0  0  0  0  0  0  0  0  0  0  0
  185.0170  179.1770  142.2780 C   0  0  0  0  0  1  0  0  0  0  0  0
  184.7660  178.2100  143.3370 N   0  0  0  0  0  2  0  0  0  0  0  0
  1  6  1  0  0  0  0
  2  5  1  0  0  0  0
  2 11  2  0  0  0  0
  3  2  1  0  0  0  0
  3 26  1  1  0  0  0
  7  5  1  0  0  0  0
  7  6  1  1  0  0  0
  8  4  1  0  0  0  0
  8  9  1  0  0  0  0
  9 12  1  6  0  0  0
  9  1  1  0  0  0  0
 10  4  1  1  0  0  0
 10  7  1  0  0  0  0
 10  3  1  0  0  0  0
 12 13  1  6  0  0  0
 12 16  1  0  0  0  0
 14 15  3  0  0  0  0
 15 13  1  0  0  0  0
 16 17  1  0  0  0  0
 17 23  1  0  0  0  0
 17 24  1  1  0  0  0
 18 19  1  0  0  0  0
 20 23  1  0  0  0  0
 22 20  1  0  0  0  0
 22 18  1  0  0  0  0
 23 19  1  0  0  0  0
 23 21  1  1  0  0  0
 24 25  2  0  0  0  0
 26 27  1  0  0  0  0
 27 28  1  0  0  0  0
 28 29  1  0  0  0  0
 29 30  1  0  0  0  0
 30 31  1  0  0  0  0
 31 33  1  0  0  0  0
 31 39  1  1  0  0  0
 32 33  2  0  0  0  0
 33 35  1  0  0  0  0
 34 36  1  0  0  0  0
 35 34  2  0  0  0  0
 36 38  1  0  0  0  0
 36 37  2  0  0  0  0
 40 39  1  0  0  0  0
 40 41  1  0  0  0  0
 42 41  1  1  0  0  0
 42 45  1  0  0  0  0
 45 44  2  0  0  0  0
 45 43  1  0  0  0  0
 46 47  1  0  0  0  0
 47 42  1  0  0  0  0
M  END
>  <MODEL>
5

>  <REMARK>
 VINA RESULT:      -5.9      3.116      8.432
  Name = 
  22 active torsions:
  status: ('A' for Active; 'I' for Inactive)
    1  A    between atoms: C_1  and  CA_19
    2  A    between atoms: C_1  and  N_27
    3  A    between atoms: C_3  and  N_28
    4  A    between atoms: C_3  and  C_39
    5  A    between atoms: CA_4  and  N_11
    6  A    between atoms: CA_4  and  C_22
    7  A    between atoms: CA_4  and  C_41
    8  A    between atoms: C_7  and  C_10
    9  A    between atoms: C_7  and  C_12
   10  A    between atoms: C_10  and  C_39
   11  A    between atoms: N_11  and  C_14
   12  A    between atoms: N_13  and  C_14
   13  A    between atoms: N_13  and  C_42
   14  A    between atoms: C_14  and  C_40
   15  A    between atoms: CA_19  and  C_37
   16  A    between atoms: CA_19  and  N_47
   17  A    between atoms: C_20  and  C_24
   18  A    between atoms: C_20  and  N_43
   19  A    between atoms: C_21  and  N_23
   20  A    between atoms: C_24  and  N_28
   21  A    between atoms: C_24  and  C_32
   22  A    between atoms: N_27  and  C_32
                            x       y       z     vdW  Elec       q    Type
                         _______ _______ _______ _____ _____    ______ ____

>  <TORSDO>
F 22

$$$$
=
 OpenBabel11062417303D

 47 49  0  0  1  0  0  0  0  0999 V2000
  183.9630  174.6600  136.9770 C   0  0  0  0  0  2  0  0  0  0  0  0
  188.1610  176.0910  135.5170 C   0  0  0  0  0  0  0  0  0  0  0  0
  187.6930  177.1600  136.4260 C   0  0  1  0  0  3  0  0  0  0  0  0
  185.3380  177.4630  137.4940 C   0  0  0  0  0  2  0  0  0  0  0  0
  187.1470  175.1890  135.1160 N   0  0  0  0  0  2  0  0  0  0  0  0
  185.4680  174.5970  136.7670 C   0  0  0  0  0  2  0  0  0  0  0  0
  185.8910  175.6070  135.7070 C   0  0  1  0  0  3  0  0  0  0  0  0
  183.8610  177.1480  137.3230 C   0  0  0  0  0  2  0  0  0  0  0  0
  183.5570  175.7810  137.9330 C   0  0  1  0  0  3  0  0  0  0  0  0
  186.1670  177.0130  136.2870 C   0  0  2  0  0  3  0  0  0  0  0  0
  189.3520  175.9740  135.1320 O   0  0  0  0  0  0  0  0  0  0  0  0
  182.0660  175.6540  138.2660 C   0  0  2  0  0  3  0  0  0  0  0  0
  181.3290  174.9860  137.1980 N   0  0  0  0  0  2  0  0  0  0  0  0
  179.7550  172.9510  137.6490 C   0  0  0  0  0  3  0  0  0  0  0  0
  180.4810  173.8910  137.4380 C   0  0  0  0  0  0  0  0  0  0  0  0
  181.4860  176.9720  138.5110 N   0  0  0  0  0  2  0  0  0  0  0  0
  181.3490  177.1340  139.9540 C   0  0  1  0  0  3  0  0  0  0  0  0
  181.9620  180.4580  138.9370 C   0  0  0  0  0  2  0  0  0  0  0  0
  182.6440  179.2190  139.4190 C   0  0  0  0  0  2  0  0  0  0  0  0
  180.4550  179.3370  140.3610 O   0  0  0  0  0  0  0  0  0  0  0  0
  182.2310  178.6420  141.7880 C   0  0  0  0  0  1  0  0  0  0  0  0
  180.5150  180.1800  139.2360 C   0  0  0  0  0  2  0  0  0  0  0  0
  181.6500  178.5860  140.3810 C   0  0  1  0  0  0  0  0  0  0  0  0
  180.0070  176.6260  140.4210 C   0  0  0  0  0  3  0  0  0  0  0  0
  179.1720  176.2280  139.6240 O   0  0  0  0  0  0  0  0  0  0  0  0
  188.2190  176.8440  137.8290 C   0  0  0  0  0  2  0  0  0  0  0  0
  189.5430  177.5340  138.1400 C   0  0  0  0  0  2  0  0  0  0  0  0
  190.6650  176.5370  138.3670 C   0  0  0  0  0  2  0  0  0  0  0  0
  191.4920  176.9600  139.5610 C   0  0  0  0  0  2  0  0  0  0  0  0
  190.6420  177.6180  140.5370 N   0  0  0  0  0  2  0  0  0  0  0  0
  190.8040  176.9120  141.8020 C   0  0  2  0  0  3  0  0  0  0  0  0
  189.3950  175.4630  143.0750 O   0  0  0  0  0  0  0  0  0  0  0  0
  189.4750  176.4490  142.2940 C   0  0  0  0  0  0  0  0  0  0  0  0
  187.5700  177.7670  142.6980 N   0  0  0  0  0  0  0  0  0  0  0  0
  188.2960  177.1320  141.8680 N   0  0  0  0  0  0  0  0  0  0  0  0
  186.3870  178.4530  142.2840 C   0  0  0  0  0  0  0  0  0  0  0  0
  185.5120  178.7540  143.1370 O   0  0  0  0  0  0  0  0  0  0  0  0
  186.1680  178.8130  140.8530 C   0  0  0  0  0  1  0  0  0  0  0  0
  191.4540  177.8200  142.8390 C   0  0  0  0  0  2  0  0  0  0  0  0
  191.7530  177.0670  144.0440 N   0  0  0  0  0  2  0  0  0  0  0  0
  191.2290  177.8210  145.1700 C   0  0  0  0  0  2  0  0  0  0  0  0
  190.7240  176.8790  146.2590 C   0  0  2  0  0  3  0  0  0  0  0  0
  188.5110  177.9350  145.8130 O   0  0  0  0  0  0  0  0  0  0  0  0
  188.9400  176.9940  147.8550 O   0  0  0  0  0  1  0  0  0  0  0  0
  189.3450  177.2650  146.6940 C   0  0  0  0  0  0  0  0  0  0  0  0
  192.4110  175.6910  147.3690 C   0  0  0  0  0  1  0  0  0  0  0  0
  191.6330  176.9210  147.3950 N   0  0  0  0  0  2  0  0  0  0  0  0
  1  9  1  0  0  0  0
  2  3  1  0  0  0  0
  3 26  1  1  0  0  0
  5  2  1  0  0  0  0
  5  7  1  0  0  0  0
  6  1  1  0  0  0  0
  7 10  1  0  0  0  0
  7  6  1  1  0  0  0
  8  4  1  0  0  0  0
  8  9  1  0  0  0  0
  9 12  1  6  0  0  0
 10  3  1  0  0  0  0
 10  4  1  1  0  0  0
 11  2  2  0  0  0  0
 12 13  1  6  0  0  0
 12 16  1  0  0  0  0
 13 15  1  0  0  0  0
 15 14  3  0  0  0  0
 16 17  1  0  0  0  0
 17 23  1  0  0  0  0
 17 24  1  6  0  0  0
 18 22  1  0  0  0  0
 18 19  1  0  0  0  0
 19 23  1  0  0  0  0
 20 23  1  0  0  0  0
 22 20  1  0  0  0  0
 23 21  1  1  0  0  0
 25 24  2  0  0  0  0
 26 27  1  0  0  0  0
 27 28  1  0  0  0  0
 28 29  1  0  0  0  0
 29 30  1  0  0  0  0
 30 31  1  0  0  0  0
 31 33  1  0  0  0  0
 31 39  1  1  0  0  0
 33 32  2  0  0  0  0
 35 33  1  0  0  0  0
 35 34  2  0  0  0  0
 36 34  1  0  0  0  0
 36 37  2  0  0  0  0
 38 36  1  0  0  0  0
 39 40  1  0  0  0  0
 40 41  1  0  0  0  0
 42 41  1  6  0  0  0
 42 45  1  0  0  0  0
 42 47  1  0  0  0  0
 43 45  2  0  0  0  0
 45 44  1  0  0  0  0
 46 47  1  0  0  0  0
M  END
>  <MODEL>
6

>  <REMARK>
 VINA RESULT:      -5.7      2.809      7.314
  Name = 
  22 active torsions:
  status: ('A' for Active; 'I' for Inactive)
    1  A    between atoms: C_1  and  CA_19
    2  A    between atoms: C_1  and  N_27
    3  A    between atoms: C_3  and  N_28
    4  A    between atoms: C_3  and  C_39
    5  A    between atoms: CA_4  and  N_11
    6  A    between atoms: CA_4  and  C_22
    7  A    between atoms: CA_4  and  C_41
    8  A    between atoms: C_7  and  C_10
    9  A    between atoms: C_7  and  C_12
   10  A    between atoms: C_10  and  C_39
   11  A    between atoms: N_11  and  C_14
   12  A    between atoms: N_13  and  C_14
   13  A    between atoms: N_13  and  C_42
   14  A    between atoms: C_14  and  C_40
   15  A    between atoms: CA_19  and  C_37
   16  A    between atoms: CA_19  and  N_47
   17  A    between atoms: C_20  and  C_24
   18  A    between atoms: C_20  and  N_43
   19  A    between atoms: C_21  and  N_23
   20  A    between atoms: C_24  and  N_28
   21  A    between atoms: C_24  and  C_32
   22  A    between atoms: N_27  and  C_32
                            x       y       z     vdW  Elec       q    Type
                         _______ _______ _______ _____ _____    ______ ____

>  <TORSDO>
F 22

$$$$
=
 OpenBabel11062417303D

 47 49  0  0  1  0  0  0  0  0999 V2000
  188.5540  176.6180  143.4090 C   0  0  0  0  0  2  0  0  0  0  0  0
  184.4430  178.6560  144.2700 C   0  0  0  0  0  0  0  0  0  0  0  0
  184.7330  178.9760  142.8550 C   0  0  1  0  0  3  0  0  0  0  0  0
  186.9350  178.5760  141.5230 C   0  0  0  0  0  2  0  0  0  0  0  0
  185.5550  178.1610  144.9910 N   0  0  0  0  0  2  0  0  0  0  0  0
  187.0880  176.6980  143.8060 C   0  0  0  0  0  2  0  0  0  0  0  0
  186.7090  178.1420  144.1130 C   0  0  1  0  0  3  0  0  0  0  0  0
  188.4400  178.4170  141.6570 C   0  0  0  0  0  2  0  0  0  0  0  0
  188.7750  176.9530  141.9340 C   0  0  1  0  0  3  0  0  0  0  0  0
  186.2730  178.9330  142.8580 C   0  0  2  0  0  3  0  0  0  0  0  0
  183.3100  178.7950  144.7980 O   0  0  0  0  0  0  0  0  0  0  0  0
  190.2280  176.6460  141.5530 C   0  0  2  0  0  3  0  0  0  0  0  0
  191.1410  176.8780  142.6690 N   0  0  0  0  0  2  0  0  0  0  0  0
  191.2600  179.1670  143.9220 C   0  0  0  0  0  3  0  0  0  0  0  0
  191.2070  178.1090  143.3450 C   0  0  0  0  0  0  0  0  0  0  0  0
  190.6360  177.4590  140.4110 N   0  0  0  0  0  2  0  0  0  0  0  0
  190.6010  176.6070  139.2260 C   0  0  1  0  0  3  0  0  0  0  0  0
  188.9640  176.1000  136.1400 C   0  0  0  0  0  2  0  0  0  0  0  0
  190.0970  176.8380  136.7760 C   0  0  0  0  0  2  0  0  0  0  0  0
  188.3470  176.5460  138.3700 O   0  0  0  0  0  0  0  0  0  0  0  0
  189.4380  178.6630  138.3100 C   0  0  0  0  0  1  0  0  0  0  0  0
  188.1710  175.6220  137.3250 C   0  0  0  0  0  2  0  0  0  0  0  0
  189.6060  177.1540  138.1800 C   0  0  1  0  0  0  0  0  0  0  0  0
  191.9920  176.3860  138.6890 C   0  0  0  0  0  3  0  0  0  0  0  0
  192.9410  177.0310  139.1090 O   0  0  0  0  0  0  0  0  0  0  0  0
  184.0870  177.8930  141.9880 C   0  0  0  0  0  2  0  0  0  0  0  0
  184.1390  178.2120  140.4970 C   0  0  0  0  0  2  0  0  0  0  0  0
  183.2580  179.3960  140.1380 C   0  0  0  0  0  2  0  0  0  0  0  0
  181.8490  179.1560  140.6370 C   0  0  0  0  0  2  0  0  0  0  0  0
  181.0030  178.7370  139.5340 N   0  0  0  0  0  2  0  0  0  0  0  0
  181.4720  179.4280  138.3390 C   0  0  2  0  0  3  0  0  0  0  0  0
  179.4440  180.6880  138.4080 O   0  0  0  0  0  0  0  0  0  0  0  0
  180.6730  180.6690  138.1290 C   0  0  0  0  0  0  0  0  0  0  0  0
  180.6840  182.9300  137.4830 N   0  0  0  0  0  0  0  0  0  0  0  0
  181.3150  181.8320  137.6070 N   0  0  0  0  0  0  0  0  0  0  0  0
  181.3150  184.1000  136.9610 C   0  0  0  0  0  0  0  0  0  0  0  0
  182.2910  184.6060  137.5740 O   0  0  0  0  0  0  0  0  0  0  0  0
  180.8310  184.7390  135.7030 C   0  0  0  0  0  1  0  0  0  0  0  0
  181.3550  178.5220  137.1200 C   0  0  0  0  0  2  0  0  0  0  0  0
  181.8490  177.1940  137.4360 N   0  0  0  0  0  2  0  0  0  0  0  0
  181.0010  176.2370  136.7440 C   0  0  0  0  0  2  0  0  0  0  0  0
  181.3210  174.8140  137.1880 C   0  0  2  0  0  3  0  0  0  0  0  0
  179.8160  173.1700  138.3040 O   0  0  0  0  0  0  0  0  0  0  0  0
  180.2620  175.1790  139.3070 O   0  0  0  0  0  1  0  0  0  0  0  0
  180.4430  174.4060  138.3290 C   0  0  0  0  0  0  0  0  0  0  0  0
  183.4190  173.9870  136.5490 C   0  0  0  0  0  1  0  0  0  0  0  0
  182.7190  174.7340  137.5850 N   0  0  0  0  0  2  0  0  0  0  0  0
  1  6  1  0  0  0  0
  2 11  2  0  0  0  0
  2  5  1  0  0  0  0
  3 26  1  6  0  0  0
  3 10  1  0  0  0  0
  3  2  1  0  0  0  0
  4  8  1  0  0  0  0
  7  6  1  6  0  0  0
  7  5  1  0  0  0  0
  8  9  1  0  0  0  0
  9 12  1  1  0  0  0
  9  1  1  0  0  0  0
 10  4  1  6  0  0  0
 10  7  1  0  0  0  0
 12 16  1  6  0  0  0
 12 13  1  0  0  0  0
 13 15  1  0  0  0  0
 15 14  3  0  0  0  0
 17 24  1  6  0  0  0
 17 16  1  0  0  0  0
 18 19  1  0  0  0  0
 18 22  1  0  0  0  0
 19 23  1  0  0  0  0
 22 20  1  0  0  0  0
 23 21  1  1  0  0  0
 23 20  1  0  0  0  0
 23 17  1  0  0  0  0
 24 25  2  0  0  0  0
 27 26  1  0  0  0  0
 28 27  1  0  0  0  0
 28 29  1  0  0  0  0
 30 29  1  0  0  0  0
 31 39  1  6  0  0  0
 31 30  1  0  0  0  0
 33 31  1  0  0  0  0
 33 32  2  0  0  0  0
 34 35  2  0  0  0  0
 35 33  1  0  0  0  0
 36 34  1  0  0  0  0
 36 37  2  0  0  0  0
 38 36  1  0  0  0  0
 39 40  1  0  0  0  0
 41 40  1  0  0  0  0
 42 41  1  1  0  0  0
 42 47  1  0  0  0  0
 42 45  1  0  0  0  0
 43 45  2  0  0  0  0
 45 44  1  0  0  0  0
 46 47  1  0  0  0  0
M  END
>  <MODEL>
7

>  <REMARK>
 VINA RESULT:      -5.6      3.089      8.441
  Name = 
  22 active torsions:
  status: ('A' for Active; 'I' for Inactive)
    1  A    between atoms: C_1  and  CA_19
    2  A    between atoms: C_1  and  N_27
    3  A    between atoms: C_3  and  N_28
    4  A    between atoms: C_3  and  C_39
    5  A    between atoms: CA_4  and  N_11
    6  A    between atoms: CA_4  and  C_22
    7  A    between atoms: CA_4  and  C_41
    8  A    between atoms: C_7  and  C_10
    9  A    between atoms: C_7  and  C_12
   10  A    between atoms: C_10  and  C_39
   11  A    between atoms: N_11  and  C_14
   12  A    between atoms: N_13  and  C_14
   13  A    between atoms: N_13  and  C_42
   14  A    between atoms: C_14  and  C_40
   15  A    between atoms: CA_19  and  C_37
   16  A    between atoms: CA_19  and  N_47
   17  A    between atoms: C_20  and  C_24
   18  A    between atoms: C_20  and  N_43
   19  A    between atoms: C_21  and  N_23
   20  A    between atoms: C_24  and  N_28
   21  A    between atoms: C_24  and  C_32
   22  A    between atoms: N_27  and  C_32
                            x       y       z     vdW  Elec       q    Type
                         _______ _______ _______ _____ _____    ______ ____

>  <TORSDO>
F 22

$$$$
=
 OpenBabel11062417303D

 47 49  0  0  1  0  0  0  0  0999 V2000
  182.5110  178.5840  137.6730 C   0  0  0  0  0  2  0  0  0  0  0  0
  180.5830  179.7490  141.7630 C   0  0  0  0  0  0  0  0  0  0  0  0
  181.4580  178.5970  142.0730 C   0  0  1  0  0  3  0  0  0  0  0  0
  182.7130  177.0250  140.4190 C   0  0  0  0  0  2  0  0  0  0  0  0
  180.3370  179.9330  140.3820 N   0  0  0  0  0  2  0  0  0  0  0  0
  182.1700  179.4790  138.8550 C   0  0  0  0  0  2  0  0  0  0  0  0
  181.0110  178.8820  139.6440 C   0  0  1  0  0  3  0  0  0  0  0  0
  182.6980  176.4620  139.0070 C   0  0  0  0  0  2  0  0  0  0  0  0
  183.4240  177.4230  138.0680 C   0  0  1  0  0  3  0  0  0  0  0  0
  181.4680  177.8660  140.7170 C   0  0  2  0  0  3  0  0  0  0  0  0
  180.1010  180.5130  142.6370 O   0  0  0  0  0  0  0  0  0  0  0  0
  183.8980  176.6940  136.8050 C   0  0  2  0  0  3  0  0  0  0  0  0
  182.8600  175.8250  136.2600 N   0  0  0  0  0  2  0  0  0  0  0  0
  182.8160  173.2510  136.7060 C   0  0  0  0  0  3  0  0  0  0  0  0
  182.8350  174.4390  136.4980 C   0  0  0  0  0  0  0  0  0  0  0  0
  185.0940  175.9070  137.0920 N   0  0  0  0  0  2  0  0  0  0  0  0
  186.1030  176.2570  136.0990 C   0  0  1  0  0  3  0  0  0  0  0  0
  189.5370  176.8650  136.6520 C   0  0  0  0  0  2  0  0  0  0  0  0
  188.2970  176.3670  137.3200 C   0  0  0  0  0  2  0  0  0  0  0  0
  187.7150  178.0040  135.6850 O   0  0  0  0  0  0  0  0  0  0  0  0
  186.5830  178.0910  137.7790 C   0  0  0  0  0  1  0  0  0  0  0  0
  189.0050  177.5190  135.4070 C   0  0  0  0  0  2  0  0  0  0  0  0
  187.1750  177.1890  136.7030 C   0  0  1  0  0  0  0  0  0  0  0  0
  186.6670  175.0170  135.4530 C   0  0  0  0  0  3  0  0  0  0  0  0
  185.9350  174.1160  135.0720 O   0  0  0  0  0  0  0  0  0  0  0  0
  182.8250  179.1460  142.4880 C   0  0  0  0  0  2  0  0  0  0  0  0
  183.0750  179.0520  143.9900 C   0  0  0  0  0  2  0  0  0  0  0  0
  184.5190  179.3580  144.3470 C   0  0  0  0  0  2  0  0  0  0  0  0
  185.0240  178.3430  145.3500 C   0  0  0  0  0  2  0  0  0  0  0  0
  186.3540  178.7180  145.7980 N   0  0  0  0  0  2  0  0  0  0  0  0
  187.0280  177.4990  146.2270 C   0  0  2  0  0  3  0  0  0  0  0  0
  187.8180  178.3720  148.3050 O   0  0  0  0  0  0  0  0  0  0  0  0
  188.1050  177.8360  147.2010 C   0  0  0  0  0  0  0  0  0  0  0  0
  190.0540  176.5280  147.3460 N   0  0  0  0  0  0  0  0  0  0  0  0
  189.4630  177.5480  146.8680 N   0  0  0  0  0  0  0  0  0  0  0  0
  191.4130  176.2300  147.0210 C   0  0  0  0  0  0  0  0  0  0  0  0
  191.7600  176.1520  145.8140 O   0  0  0  0  0  0  0  0  0  0  0  0
  192.4270  176.0030  148.0900 C   0  0  0  0  0  1  0  0  0  0  0  0
  187.6210  176.7680  145.0290 C   0  0  0  0  0  2  0  0  0  0  0  0
  187.6230  177.6370  143.8660 N   0  0  0  0  0  2  0  0  0  0  0  0
  188.3970  176.9750  142.8290 C   0  0  0  0  0  2  0  0  0  0  0  0
  189.4910  177.8990  142.3020 C   0  0  2  0  0  3  0  0  0  0  0  0
  190.5390  177.2070  140.1490 O   0  0  0  0  0  1  0  0  0  0  0  0
  188.6360  178.4790  140.1390 O   0  0  0  0  0  0  0  0  0  0  0  0
  189.5220  177.8810  140.8060 C   0  0  0  0  0  0  0  0  0  0  0  0
  191.3600  178.6210  143.5160 C   0  0  0  0  0  1  0  0  0  0  0  0
  190.7780  177.4750  142.8300 N   0  0  0  0  0  2  0  0  0  0  0  0
  1  9  1  0  0  0  0
  1  6  1  0  0  0  0
  2  3  1  0  0  0  0
  2 11  2  0  0  0  0
  3 26  1  6  0  0  0
  5  2  1  0  0  0  0
  7  6  1  1  0  0  0
  7  5  1  0  0  0  0
  7 10  1  0  0  0  0
  8  4  1  0  0  0  0
  9 12  1  6  0  0  0
  9  8  1  0  0  0  0
 10  4  1  6  0  0  0
 10  3  1  0  0  0  0
 12 13  1  1  0  0  0
 12 16  1  0  0  0  0
 13 15  1  0  0  0  0
 15 14  3  0  0  0  0
 17 24  1  1  0  0  0
 17 23  1  0  0  0  0
 17 16  1  0  0  0  0
 18 19  1  0  0  0  0
 20 23  1  0  0  0  0
 22 20  1  0  0  0  0
 22 18  1  0  0  0  0
 23 19  1  0  0  0  0
 23 21  1  1  0  0  0
 25 24  2  0  0  0  0
 26 27  1  0  0  0  0
 27 28  1  0  0  0  0
 28 29  1  0  0  0  0
 29 30  1  0  0  0  0
 30 31  1  0  0  0  0
 31 39  1  6  0  0  0
 31 33  1  0  0  0  0
 33 32  2  0  0  0  0
 35 33  1  0  0  0  0
 35 34  2  0  0  0  0
 36 34  1  0  0  0  0
 36 38  1  0  0  0  0
 37 36  2  0  0  0  0
 40 39  1  0  0  0  0
 41 40  1  0  0  0  0
 42 41  1  1  0  0  0
 42 47  1  0  0  0  0
 43 45  1  0  0  0  0
 44 45  2  0  0  0  0
 45 42  1  0  0  0  0
 47 46  1  0  0  0  0
M  END
>  <MODEL>
8

>  <REMARK>
 VINA RESULT:      -5.6      2.752      7.805
  Name = 
  22 active torsions:
  status: ('A' for Active; 'I' for Inactive)
    1  A    between atoms: C_1  and  CA_19
    2  A    between atoms: C_1  and  N_27
    3  A    between atoms: C_3  and  N_28
    4  A    between atoms: C_3  and  C_39
    5  A    between atoms: CA_4  and  N_11
    6  A    between atoms: CA_4  and  C_22
    7  A    between atoms: CA_4  and  C_41
    8  A    between atoms: C_7  and  C_10
    9  A    between atoms: C_7  and  C_12
   10  A    between atoms: C_10  and  C_39
   11  A    between atoms: N_11  and  C_14
   12  A    between atoms: N_13  and  C_14
   13  A    between atoms: N_13  and  C_42
   14  A    between atoms: C_14  and  C_40
   15  A    between atoms: CA_19  and  C_37
   16  A    between atoms: CA_19  and  N_47
   17  A    between atoms: C_20  and  C_24
   18  A    between atoms: C_20  and  N_43
   19  A    between atoms: C_21  and  N_23
   20  A    between atoms: C_24  and  N_28
   21  A    between atoms: C_24  and  C_32
   22  A    between atoms: N_27  and  C_32
                            x       y       z     vdW  Elec       q    Type
                         _______ _______ _______ _____ _____    ______ ____

>  <TORSDO>
F 22

$$$$
=
 OpenBabel11062417303D

 47 49  0  0  1  0  0  0  0  0999 V2000
  185.9180  175.3180  137.0080 C   0  0  0  0  0  2  0  0  0  0  0  0
  190.4850  176.2010  136.6040 C   0  0  0  0  0  0  0  0  0  0  0  0
  189.8640  177.5230  136.8400 C   0  0  1  0  0  3  0  0  0  0  0  0
  187.3350  178.1440  136.8720 C   0  0  0  0  0  2  0  0  0  0  0  0
  189.5640  175.1850  136.2560 N   0  0  0  0  0  2  0  0  0  0  0  0
  187.3970  175.2230  137.3500 C   0  0  0  0  0  2  0  0  0  0  0  0
  188.2350  175.7600  136.1960 C   0  0  1  0  0  3  0  0  0  0  0  0
  185.9660  177.7430  136.3500 C   0  0  0  0  0  2  0  0  0  0  0  0
  185.3460  176.7080  137.2860 C   0  0  1  0  0  3  0  0  0  0  0  0
  188.4540  177.2890  136.2670 C   0  0  2  0  0  3  0  0  0  0  0  0
  191.7180  175.9810  136.7100 O   0  0  0  0  0  0  0  0  0  0  0  0
  183.8220  176.6740  137.1270 C   0  0  2  0  0  3  0  0  0  0  0  0
  183.1840  177.8110  137.7850 N   0  0  0  0  0  2  0  0  0  0  0  0
  184.0130  178.7440  140.0800 C   0  0  0  0  0  3  0  0  0  0  0  0
  183.6270  178.3130  139.0210 C   0  0  0  0  0  0  0  0  0  0  0  0
  183.2810  175.4300  137.6680 N   0  0  0  0  0  2  0  0  0  0  0  0
  181.8920  175.3250  137.2340 C   0  0  1  0  0  3  0  0  0  0  0  0
  183.0620  172.2680  135.9140 C   0  0  0  0  0  2  0  0  0  0  0  0
  183.0930  173.7450  135.6930 C   0  0  0  0  0  2  0  0  0  0  0  0
  181.0220  173.1370  136.7100 O   0  0  0  0  0  0  0  0  0  0  0  0
  180.9550  174.7450  134.9540 C   0  0  0  0  0  1  0  0  0  0  0  0
  181.9530  172.1030  136.9140 C   0  0  0  0  0  2  0  0  0  0  0  0
  181.7290  174.2290  136.1600 C   0  0  1  0  0  0  0  0  0  0  0  0
  180.9750  175.1600  138.4200 C   0  0  0  0  0  3  0  0  0  0  0  0
  180.9840  175.9630  139.3400 O   0  0  0  0  0  0  0  0  0  0  0  0
  189.8820  177.7860  138.3480 C   0  0  0  0  0  2  0  0  0  0  0  0
  190.4910  176.6380  139.1470 C   0  0  0  0  0  2  0  0  0  0  0  0
  191.4150  177.1360  140.2450 C   0  0  0  0  0  2  0  0  0  0  0  0
  190.6040  177.5010  141.4690 C   0  0  0  0  0  2  0  0  0  0  0  0
  189.3990  176.6920  141.5170 N   0  0  0  0  0  2  0  0  0  0  0  0
  188.5320  177.2630  142.5400 C   0  0  2  0  0  3  0  0  0  0  0  0
  187.5650  178.3860  140.6670 O   0  0  0  0  0  0  0  0  0  0  0  0
  187.5050  178.1340  141.9010 C   0  0  0  0  0  0  0  0  0  0  0  0
  185.7240  177.9350  143.4230 N   0  0  0  0  0  0  0  0  0  0  0  0
  186.4580  178.6820  142.7010 N   0  0  0  0  0  0  0  0  0  0  0  0
  184.6730  178.4710  144.2280 C   0  0  0  0  0  0  0  0  0  0  0  0
  183.5240  178.6140  143.7350 O   0  0  0  0  0  0  0  0  0  0  0  0
  184.9160  178.8720  145.6440 C   0  0  0  0  0  1  0  0  0  0  0  0
  189.3490  178.0710  143.5410 C   0  0  0  0  0  2  0  0  0  0  0  0
  189.0690  177.6210  144.8930 N   0  0  0  0  0  2  0  0  0  0  0  0
  190.3430  177.4750  145.5770 C   0  0  0  0  0  2  0  0  0  0  0  0
  190.1650  176.7200  146.8900 C   0  0  2  0  0  3  0  0  0  0  0  0
  189.3360  178.6010  148.3000 O   0  0  0  0  0  1  0  0  0  0  0  0
  188.0030  176.7790  147.9230 O   0  0  0  0  0  0  0  0  0  0  0  0
  189.1040  177.3610  147.7280 C   0  0  0  0  0  0  0  0  0  0  0  0
  192.2500  175.6590  147.0240 C   0  0  0  0  0  1  0  0  0  0  0  0
  191.4270  176.7060  147.6150 N   0  0  0  0  0  2  0  0  0  0  0  0
  1  9  1  0  0  0  0
  1  6  1  0  0  0  0
  2 11  2  0  0  0  0
  2  3  1  0  0  0  0
  3 26  1  1  0  0  0
  5  2  1  0  0  0  0
  7  5  1  0  0  0  0
  7 10  1  0  0  0  0
  7  6  1  1  0  0  0
  8  4  1  0  0  0  0
  8  9  1  0  0  0  0
  9 12  1  6  0  0  0
 10  3  1  0  0  0  0
 10  4  1  1  0  0  0
 12 16  1  1  0  0  0
 12 13  1  0  0  0  0
 13 15  1  0  0  0  0
 15 14  3  0  0  0  0
 17 16  1  0  0  0  0
 17 24  1  1  0  0  0
 18 22  1  0  0  0  0
 19 18  1  0  0  0  0
 19 23  1  0  0  0  0
 20 22  1  0  0  0  0
 23 21  1  6  0  0  0
 23 20  1  0  0  0  0
 23 17  1  0  0  0  0
 24 25  2  0  0  0  0
 26 27  1  0  0  0  0
 27 28  1  0  0  0  0
 28 29  1  0  0  0  0
 29 30  1  0  0  0  0
 30 31  1  0  0  0  0
 31 39  1  1  0  0  0
 32 33  2  0  0  0  0
 33 31  1  0  0  0  0
 33 35  1  0  0  0  0
 34 36  1  0  0  0  0
 35 34  2  0  0  0  0
 36 38  1  0  0  0  0
 37 36  2  0  0  0  0
 39 40  1  0  0  0  0
 40 41  1  0  0  0  0
 42 41  1  6  0  0  0
 42 47  1  0  0  0  0
 42 45  1  0  0  0  0
 45 44  2  0  0  0  0
 45 43  1  0  0  0  0
 46 47  1  0  0  0  0
M  END
>  <MODEL>
9

>  <REMARK>
 VINA RESULT:      -5.4      2.473      7.449
  Name = 
  22 active torsions:
  status: ('A' for Active; 'I' for Inactive)
    1  A    between atoms: C_1  and  CA_19
    2  A    between atoms: C_1  and  N_27
    3  A    between atoms: C_3  and  N_28
    4  A    between atoms: C_3  and  C_39
    5  A    between atoms: CA_4  and  N_11
    6  A    between atoms: CA_4  and  C_22
    7  A    between atoms: CA_4  and  C_41
    8  A    between atoms: C_7  and  C_10
    9  A    between atoms: C_7  and  C_12
   10  A    between atoms: C_10  and  C_39
   11  A    between atoms: N_11  and  C_14
   12  A    between atoms: N_13  and  C_14
   13  A    between atoms: N_13  and  C_42
   14  A    between atoms: C_14  and  C_40
   15  A    between atoms: CA_19  and  C_37
   16  A    between atoms: CA_19  and  N_47
   17  A    between atoms: C_20  and  C_24
   18  A    between atoms: C_20  and  N_43
   19  A    between atoms: C_21  and  N_23
   20  A    between atoms: C_24  and  N_28
   21  A    between atoms: C_24  and  C_32
   22  A    between atoms: N_27  and  C_32
                            x       y       z     vdW  Elec       q    Type
                         _______ _______ _______ _____ _____    ______ ____

>  <TORSDO>
F 22

$$$$
