=
 OpenBabel11062413143D

 42 46  0  0  1  0  0  0  0  0999 V2000
  192.5290  178.2460  143.3490 F   0  0  0  0  0  0  0  0  0  0  0  0
  190.6480  179.2480  142.7240 F   0  0  0  0  0  0  0  0  0  0  0  0
  191.3120  177.2970  141.5490 C   0  0  1  0  0  3  0  0  0  0  0  0
  191.2330  178.0040  142.9120 C   0  0  0  0  0  0  0  0  0  0  0  0
  190.0400  177.4330  140.7440 C   0  0  2  0  0  3  0  0  0  0  0  0
  187.8300  177.1480  140.1430 N   0  0  0  0  0  0  0  0  0  0  0  0
  188.8240  177.0590  141.1480 C   0  0  0  0  0  0  0  0  0  0  0  0
  189.6280  176.0010  143.3370 C   0  0  0  0  0  2  0  0  0  0  0  0
  188.4500  176.5160  142.5120 C   0  0  1  0  0  3  0  0  0  0  0  0
  188.3320  178.5660  144.0500 C   0  0  0  0  0  2  0  0  0  0  0  0
  190.4540  177.1410  143.9780 C   0  0  2  0  0  0  0  0  0  0  0  0
  190.0830  178.0270  139.0520 S   0  0  0  0  0  0  0  0  0  0  0  0
  188.2990  177.6610  138.8670 C   0  0  1  0  0  3  0  0  0  0  0  0
  189.5230  178.0200  144.8390 C   0  0  0  0  0  2  0  0  0  0  0  0
  187.5630  177.4300  143.3800 C   0  0  1  0  0  3  0  0  0  0  0  0
  192.3950  177.7650  140.8240 F   0  0  0  0  0  0  0  0  0  0  0  0
  188.0660  176.6310  137.7570 C   0  0  1  0  0  3  0  0  0  0  0  0
  185.9260  177.4610  136.7100 C   0  0  0  0  0  0  0  0  0  0  0  0
  186.5590  176.3830  137.5580 C   0  0  1  0  0  3  0  0  0  0  0  0
  186.6180  178.0580  135.7830 N   0  0  0  0  0  0  0  0  0  0  0  0
  184.5490  177.7960  136.8790 N   0  0  0  0  0  2  0  0  0  0  0  0
  188.0120  177.7890  135.5750 C   0  0  0  0  0  3  0  0  0  0  0  0
  188.7100  177.0880  136.4710 C   0  0  0  0  0  3  0  0  0  0  0  0
  186.3280  175.0190  136.9280 C   0  0  0  0  0  1  0  0  0  0  0  0
  181.0700  177.8930  140.3500 C   0  0  0  0  0  0  0  0  0  0  0  0
  182.0080  177.2500  139.6440 C   0  0  0  0  0  3  0  0  0  0  0  0
  181.4420  181.1730  138.7320 O   0  0  0  0  0  0  0  0  0  0  0  0
  181.6010  179.9620  139.0270 C   0  0  0  0  0  0  0  0  0  0  0  0
  182.7850  177.9300  138.5950 C   0  0  0  0  0  0  0  0  0  0  0  0
  182.5800  179.1850  138.3280 N   0  0  0  0  0  0  0  0  0  0  0  0
  183.7740  177.1940  137.8790 N   0  0  0  0  0  2  0  0  0  0  0  0
  180.7560  179.3470  140.1080 C   0  0  0  0  0  2  0  0  0  0  0  0
  180.3520  177.2230  141.3410 O   0  0  0  0  0  0  0  0  0  0  0  0
  179.2420  177.7490  141.8800 O   0  0  0  0  0  1  0  0  0  0  0  0
  185.1920  178.2750  143.7660 C   0  0  0  0  0  1  0  0  0  0  0  0
  186.2410  177.8660  142.7420 C   0  0  0  0  0  2  0  0  0  0  0  0
  191.4570  176.4670  144.9240 C   0  0  0  0  0  2  0  0  0  0  0  0
  191.8290  177.3150  145.9730 O   0  0  0  0  0  0  0  0  0  0  0  0
  192.2710  175.0340  147.1700 O   0  0  0  0  0  0  0  0  0  0  0  0
  192.4010  177.1620  148.6810 O   0  0  0  0  0  1  0  0  0  0  0  0
  189.9950  176.1930  147.7240 O   0  0  0  0  0  1  0  0  0  0  0  0
  191.6410  176.3910  147.3800 P   0  0  0  0  0  0  0  0  0  0  0  0
  2  4  1  0  0  0  0
  3 16  1  6  0  0  0
  3  4  1  0  0  0  0
  4  1  1  0  0  0  0
  4 11  1  0  0  0  0
  5 12  1  6  0  0  0
  5  7  1  0  0  0  0
  5  3  1  0  0  0  0
  6  7  2  0  0  0  0
  7  9  1  0  0  0  0
  8 11  1  0  0  0  0
  9  8  1  1  0  0  0
  9 15  1  0  0  0  0
 10 14  1  0  0  0  0
 11 14  1  0  0  0  0
 11 37  1  1  0  0  0
 13 12  1  1  0  0  0
 13  6  1  0  0  0  0
 15 36  1  6  0  0  0
 15 10  1  0  0  0  0
 17 23  1  6  0  0  0
 17 13  1  0  0  0  0
 18 21  1  0  0  0  0
 18 19  1  0  0  0  0
 19 24  1  6  0  0  0
 19 17  1  0  0  0  0
 20 18  2  0  0  0  0
 21 31  1  0  0  0  0
 22 20  1  0  0  0  0
 22 23  2  0  0  0  0
 25 33  1  0  0  0  0
 26 25  2  0  0  0  0
 27 28  2  0  0  0  0
 28 32  1  0  0  0  0
 29 26  1  0  0  0  0
 30 29  2  0  0  0  0
 30 28  1  0  0  0  0
 31 29  1  0  0  0  0
 32 25  1  0  0  0  0
 33 34  1  0  0  0  0
 36 35  1  0  0  0  0
 37 38  1  0  0  0  0
 38 42  1  0  0  0  0
 39 42  2  0  0  0  0
 42 41  1  0  0  0  0
 42 40  1  0  0  0  0
M  END
>  <MODEL>
1

>  <REMARK>
 VINA RESULT:      -7.7      0.000      0.000
  Name = 
  7 active torsions:
  status: ('A' for Active; 'I' for Inactive)
    1  A    between atoms: O_2  and  C_10
    2  A    between atoms: C_4  and  C_37
    3  A    between atoms: C_9  and  C_30
    4  A    between atoms: C_9  and  O_34
    5  A    between atoms: N_26  and  N_32
    6  A    between atoms: O_34  and  P_42
    7  A    between atoms: C_35  and  C_40
                            x       y       z     vdW  Elec       q    Type
                         _______ _______ _______ _____ _____    ______ ____

>  <TORSDO>
F 7

$$$$
=
 OpenBabel11062413143D

 42 46  0  0  1  0  0  0  0  0999 V2000
  192.5400  178.3270  143.4420 F   0  0  0  0  0  0  0  0  0  0  0  0
  190.6410  179.2700  142.7800 F   0  0  0  0  0  0  0  0  0  0  0  0
  191.4040  177.3570  141.6010 C   0  0  1  0  0  3  0  0  0  0  0  0
  191.2650  178.0450  142.9690 C   0  0  0  0  0  0  0  0  0  0  0  0
  190.1480  177.4590  140.7650 C   0  0  2  0  0  3  0  0  0  0  0  0
  187.9660  177.1030  140.1040 N   0  0  0  0  0  0  0  0  0  0  0  0
  188.9360  177.0370  141.1340 C   0  0  0  0  0  0  0  0  0  0  0  0
  189.7220  175.9820  143.3300 C   0  0  0  0  0  2  0  0  0  0  0  0
  188.5470  176.4650  142.4810 C   0  0  1  0  0  3  0  0  0  0  0  0
  188.3180  178.4910  144.0380 C   0  0  0  0  0  2  0  0  0  0  0  0
  190.4900  177.1420  144.0050 C   0  0  2  0  0  0  0  0  0  0  0  0
  190.2130  178.0730  139.0820 S   0  0  0  0  0  0  0  0  0  0  0  0
  188.4490  177.6480  138.8470 C   0  0  1  0  0  3  0  0  0  0  0  0
  189.5070  177.9770  144.8510 C   0  0  0  0  0  2  0  0  0  0  0  0
  187.6080  177.3370  143.3360 C   0  0  1  0  0  3  0  0  0  0  0  0
  192.4880  177.8720  140.9090 F   0  0  0  0  0  0  0  0  0  0  0  0
  188.2800  176.6230  137.7200 C   0  0  1  0  0  3  0  0  0  0  0  0
  186.1210  177.3690  136.6490 C   0  0  0  0  0  0  0  0  0  0  0  0
  186.7900  176.3100  137.4920 C   0  0  1  0  0  3  0  0  0  0  0  0
  186.7990  178.0100  135.7410 N   0  0  0  0  0  0  0  0  0  0  0  0
  184.7280  177.6390  136.8000 N   0  0  0  0  0  2  0  0  0  0  0  0
  188.2070  177.8080  135.5530 C   0  0  0  0  0  3  0  0  0  0  0  0
  188.9230  177.1270  136.4500 C   0  0  0  0  0  3  0  0  0  0  0  0
  186.6310  174.9460  136.8420 C   0  0  0  0  0  1  0  0  0  0  0  0
  180.8570  174.9860  138.2650 C   0  0  0  0  0  0  0  0  0  0  0  0
  181.9960  175.6450  138.5190 C   0  0  0  0  0  3  0  0  0  0  0  0
  180.7860  175.5720  134.6360 O   0  0  0  0  0  0  0  0  0  0  0  0
  181.1440  175.5810  135.8410 C   0  0  0  0  0  0  0  0  0  0  0  0
  182.7620  176.2990  137.4470 C   0  0  0  0  0  0  0  0  0  0  0  0
  182.3490  176.2580  136.2160 N   0  0  0  0  0  0  0  0  0  0  0  0
  183.9650  176.9890  137.7790 N   0  0  0  0  0  2  0  0  0  0  0  0
  180.3020  174.8780  136.8690 C   0  0  0  0  0  2  0  0  0  0  0  0
  180.1500  174.3780  139.3020 O   0  0  0  0  0  0  0  0  0  0  0  0
  180.2300  174.8270  140.5630 O   0  0  0  0  0  1  0  0  0  0  0  0
  185.3370  178.4570  143.6120 C   0  0  0  0  0  1  0  0  0  0  0  0
  186.2870  177.7330  142.6700 C   0  0  0  0  0  2  0  0  0  0  0  0
  191.4920  176.4920  144.9690 C   0  0  0  0  0  2  0  0  0  0  0  0
  191.8550  177.3630  146.0020 O   0  0  0  0  0  0  0  0  0  0  0  0
  192.1610  177.2910  148.5970 O   0  0  0  0  0  1  0  0  0  0  0  0
  190.1130  175.9720  147.6510 O   0  0  0  0  0  1  0  0  0  0  0  0
  192.7080  175.0780  147.3200 O   0  0  0  0  0  0  0  0  0  0  0  0
  191.7210  176.4490  147.4220 P   0  0  0  0  0  0  0  0  0  0  0  0
  2  4  1  0  0  0  0
  3 16  1  6  0  0  0
  3  4  1  0  0  0  0
  4  1  1  0  0  0  0
  4 11  1  0  0  0  0
  5 12  1  6  0  0  0
  5  7  1  0  0  0  0
  5  3  1  0  0  0  0
  6  7  2  0  0  0  0
  7  9  1  0  0  0  0
  8 11  1  0  0  0  0
  9  8  1  1  0  0  0
  9 15  1  0  0  0  0
 10 14  1  0  0  0  0
 11 14  1  0  0  0  0
 11 37  1  1  0  0  0
 13 12  1  1  0  0  0
 13  6  1  0  0  0  0
 15 36  1  6  0  0  0
 15 10  1  0  0  0  0
 17 23  1  6  0  0  0
 17 13  1  0  0  0  0
 18 21  1  0  0  0  0
 18 19  1  0  0  0  0
 19 24  1  6  0  0  0
 19 17  1  0  0  0  0
 20 18  2  0  0  0  0
 21 31  1  0  0  0  0
 22 20  1  0  0  0  0
 22 23  2  0  0  0  0
 25 26  2  0  0  0  0
 25 33  1  0  0  0  0
 27 28  2  0  0  0  0
 28 30  1  0  0  0  0
 28 32  1  0  0  0  0
 29 31  1  0  0  0  0
 29 26  1  0  0  0  0
 30 29  2  0  0  0  0
 32 25  1  0  0  0  0
 33 34  1  0  0  0  0
 36 35  1  0  0  0  0
 37 38  1  0  0  0  0
 38 42  1  0  0  0  0
 41 42  2  0  0  0  0
 42 40  1  0  0  0  0
 42 39  1  0  0  0  0
M  END
>  <MODEL>
2

>  <REMARK>
 VINA RESULT:      -7.2      1.712      2.130
  Name = 
  7 active torsions:
  status: ('A' for Active; 'I' for Inactive)
    1  A    between atoms: O_2  and  C_10
    2  A    between atoms: C_4  and  C_37
    3  A    between atoms: C_9  and  C_30
    4  A    between atoms: C_9  and  O_34
    5  A    between atoms: N_26  and  N_32
    6  A    between atoms: O_34  and  P_42
    7  A    between atoms: C_35  and  C_40
                            x       y       z     vdW  Elec       q    Type
                         _______ _______ _______ _____ _____    ______ ____

>  <TORSDO>
F 7

$$$$
=
 OpenBabel11062413143D

 42 46  0  0  1  0  0  0  0  0999 V2000
  194.6340  175.2790  138.0210 F   0  0  0  0  0  0  0  0  0  0  0  0
  193.0240  173.7490  138.0030 F   0  0  0  0  0  0  0  0  0  0  0  0
  192.4630  175.9620  137.3550 C   0  0  1  0  0  3  0  0  0  0  0  0
  193.5200  174.8460  137.3120 C   0  0  0  0  0  0  0  0  0  0  0  0
  191.0650  175.4540  137.0870 C   0  0  2  0  0  3  0  0  0  0  0  0
  189.2810  174.5680  135.9190 N   0  0  0  0  0  0  0  0  0  0  0  0
  190.6790  174.7870  135.9960 C   0  0  0  0  0  0  0  0  0  0  0  0
  192.9240  175.0140  134.7860 C   0  0  0  0  0  2  0  0  0  0  0  0
  191.5640  174.3210  134.8590 C   0  0  1  0  0  3  0  0  0  0  0  0
  192.7390  172.2150  135.7340 C   0  0  0  0  0  2  0  0  0  0  0  0
  193.9260  174.4770  135.8340 C   0  0  2  0  0  0  0  0  0  0  0  0
  189.7190  175.8310  138.2110 S   0  0  0  0  0  0  0  0  0  0  0  0
  188.5230  175.0730  137.0510 C   0  0  1  0  0  3  0  0  0  0  0  0
  194.0770  172.9520  135.6570 C   0  0  0  0  0  2  0  0  0  0  0  0
  191.7460  172.7960  134.7300 C   0  0  1  0  0  3  0  0  0  0  0  0
  192.5110  176.6270  138.5690 F   0  0  0  0  0  0  0  0  0  0  0  0
  187.4880  176.1030  136.5850 C   0  0  1  0  0  3  0  0  0  0  0  0
  188.3120  178.2150  137.6920 C   0  0  0  0  0  0  0  0  0  0  0  0
  187.2380  177.1530  137.6840 C   0  0  1  0  0  3  0  0  0  0  0  0
  188.9050  178.5570  136.5860 N   0  0  0  0  0  0  0  0  0  0  0  0
  188.6460  178.8930  138.9030 N   0  0  0  0  0  2  0  0  0  0  0  0
  188.6380  177.9000  135.3380 C   0  0  0  0  0  3  0  0  0  0  0  0
  187.9410  176.7620  135.3050 C   0  0  0  0  0  3  0  0  0  0  0  0
  185.8710  177.7910  137.5000 C   0  0  0  0  0  1  0  0  0  0  0  0
  188.7980  177.1240  143.4860 C   0  0  0  0  0  0  0  0  0  0  0  0
  188.1300  177.6390  142.4460 C   0  0  0  0  0  3  0  0  0  0  0  0
  192.1330  177.1310  141.9400 O   0  0  0  0  0  0  0  0  0  0  0  0
  190.8980  177.2820  142.1170 C   0  0  0  0  0  0  0  0  0  0  0  0
  188.8130  178.0020  141.1950 C   0  0  0  0  0  0  0  0  0  0  0  0
  190.0940  177.8270  141.0640 N   0  0  0  0  0  0  0  0  0  0  0  0
  188.0480  178.5420  140.1200 N   0  0  0  0  0  2  0  0  0  0  0  0
  190.2850  176.8920  143.4320 C   0  0  0  0  0  2  0  0  0  0  0  0
  188.1230  176.7870  144.6600 O   0  0  0  0  0  0  0  0  0  0  0  0
  187.1150  177.5380  145.1280 O   0  0  0  0  0  1  0  0  0  0  0  0
  190.6860  170.4830  134.6220 C   0  0  0  0  0  1  0  0  0  0  0  0
  190.4540  171.9860  134.5940 C   0  0  0  0  0  2  0  0  0  0  0  0
  195.2810  175.1160  135.5000 C   0  0  0  0  0  2  0  0  0  0  0  0
  196.3440  174.2500  135.7810 O   0  0  0  0  0  0  0  0  0  0  0  0
  197.3460  176.6640  135.7160 O   0  0  0  0  0  1  0  0  0  0  0  0
  197.8680  175.2670  137.8630 O   0  0  0  0  0  1  0  0  0  0  0  0
  199.0560  174.7080  135.4300 O   0  0  0  0  0  0  0  0  0  0  0  0
  197.6440  175.2580  136.1850 P   0  0  0  0  0  0  0  0  0  0  0  0
  3 16  1  1  0  0  0
  4  3  1  0  0  0  0
  4  2  1  0  0  0  0
  4  1  1  0  0  0  0
  5  7  1  6  0  0  0
  5  3  1  0  0  0  0
  5 12  1  0  0  0  0
  6  7  2  0  0  0  0
  8 11  1  0  0  0  0
  9  8  1  1  0  0  0
  9  7  1  0  0  0  0
 11 37  1  6  0  0  0
 11  4  1  0  0  0  0
 13  6  1  6  0  0  0
 13 12  1  0  0  0  0
 14 10  1  0  0  0  0
 14 11  1  0  0  0  0
 15 36  1  1  0  0  0
 15  9  1  0  0  0  0
 15 10  1  0  0  0  0
 17 23  1  6  0  0  0
 17 13  1  0  0  0  0
 17 19  1  0  0  0  0
 18 21  1  0  0  0  0
 19 24  1  6  0  0  0
 19 18  1  0  0  0  0
 20 18  2  0  0  0  0
 21 31  1  0  0  0  0
 22 20  1  0  0  0  0
 23 22  2  0  0  0  0
 25 33  1  0  0  0  0
 26 25  2  0  0  0  0
 27 28  2  0  0  0  0
 28 32  1  0  0  0  0
 29 26  1  0  0  0  0
 30 29  2  0  0  0  0
 30 28  1  0  0  0  0
 31 29  1  0  0  0  0
 32 25  1  0  0  0  0
 33 34  1  0  0  0  0
 36 35  1  0  0  0  0
 37 38  1  0  0  0  0
 38 42  1  0  0  0  0
 39 42  1  0  0  0  0
 41 42  2  0  0  0  0
 42 40  1  0  0  0  0
M  END
>  <MODEL>
3

>  <REMARK>
 VINA RESULT:      -7.0      5.450      8.340
  Name = 
  7 active torsions:
  status: ('A' for Active; 'I' for Inactive)
    1  A    between atoms: O_2  and  C_10
    2  A    between atoms: C_4  and  C_37
    3  A    between atoms: C_9  and  C_30
    4  A    between atoms: C_9  and  O_34
    5  A    between atoms: N_26  and  N_32
    6  A    between atoms: O_34  and  P_42
    7  A    between atoms: C_35  and  C_40
                            x       y       z     vdW  Elec       q    Type
                         _______ _______ _______ _____ _____    ______ ____

>  <TORSDO>
F 7

$$$$
=
 OpenBabel11062413143D

 42 46  0  0  1  0  0  0  0  0999 V2000
  179.6390  177.1170  139.1080 F   0  0  0  0  0  0  0  0  0  0  0  0
  181.5730  176.4820  139.9980 F   0  0  0  0  0  0  0  0  0  0  0  0
  181.5200  176.9560  137.6730 C   0  0  1  0  0  3  0  0  0  0  0  0
  181.0090  177.3460  139.0690 C   0  0  0  0  0  0  0  0  0  0  0  0
  183.0040  176.6690  137.6520 C   0  0  0  0  0  0  0  0  0  0  0  0
  185.2760  177.0590  137.7680 N   0  0  0  0  0  2  0  0  0  0  0  0
  183.9610  177.5130  138.0400 C   0  0  0  0  0  0  0  0  0  0  0  0
  182.3730  179.4770  138.4650 C   0  0  0  0  0  2  0  0  0  0  0  0
  183.7660  178.8800  138.6640 C   0  0  1  0  0  3  0  0  0  0  0  0
  183.1690  178.4270  141.1170 C   0  0  0  0  0  2  0  0  0  0  0  0
  181.3160  178.8560  139.4070 C   0  0  2  0  0  0  0  0  0  0  0  0
  183.6340  175.1400  136.9570 S   0  0  0  0  0  0  0  0  0  0  0  0
  185.3490  175.7470  137.1500 C   0  0  1  0  0  3  0  0  0  0  0  0
  181.7800  179.0200  140.8690 C   0  0  0  0  0  2  0  0  0  0  0  0
  184.1850  179.0120  140.1410 C   0  0  1  0  0  3  0  0  0  0  0  0
  180.8110  175.8700  137.1850 F   0  0  0  0  0  0  0  0  0  0  0  0
  186.0540  175.8330  135.7920 C   0  0  1  0  0  3  0  0  0  0  0  0
  187.7890  174.0110  135.9830 C   0  0  0  0  0  0  0  0  0  0  0  0
  187.5510  175.5020  135.9380 C   0  0  1  0  0  3  0  0  0  0  0  0
  187.0010  173.2010  135.3370 N   0  0  0  0  0  0  0  0  0  0  0  0
  188.9110  173.4800  136.6880 N   0  0  0  0  0  2  0  0  0  0  0  0
  185.8410  173.6630  134.6300 C   0  0  0  0  0  3  0  0  0  0  0  0
  185.3940  174.9090  134.7980 C   0  0  0  0  0  3  0  0  0  0  0  0
  188.3420  176.1240  134.7990 C   0  0  0  0  0  1  0  0  0  0  0  0
  193.3570  175.2690  137.7800 C   0  0  0  0  0  0  0  0  0  0  0  0
  192.0320  175.2160  137.9680 C   0  0  0  0  0  3  0  0  0  0  0  0
  193.5380  172.7900  135.0720 O   0  0  0  0  0  0  0  0  0  0  0  0
  193.0920  173.5490  135.9700 C   0  0  0  0  0  0  0  0  0  0  0  0
  191.1750  174.3300  137.1660 C   0  0  0  0  0  0  0  0  0  0  0  0
  191.6870  173.5660  136.2480 N   0  0  0  0  0  0  0  0  0  0  0  0
  189.7710  174.3130  137.4150 N   0  0  0  0  0  2  0  0  0  0  0  0
  194.0400  174.4270  136.7350 C   0  0  0  0  0  2  0  0  0  0  0  0
  194.1450  176.1180  138.5590 O   0  0  0  0  0  0  0  0  0  0  0  0
  193.6000  177.0850  139.3120 O   0  0  0  0  0  1  0  0  0  0  0  0
  186.0530  178.9790  141.8730 C   0  0  0  0  0  1  0  0  0  0  0  0
  185.6360  178.6310  140.4510 C   0  0  0  0  0  2  0  0  0  0  0  0
  180.0400  179.6900  139.2320 C   0  0  0  0  0  2  0  0  0  0  0  0
  180.1730  180.9640  139.7960 O   0  0  0  0  0  0  0  0  0  0  0  0
  178.9560  183.1530  139.0490 O   0  0  0  0  0  1  0  0  0  0  0  0
  181.2920  182.7160  137.9620 O   0  0  0  0  0  1  0  0  0  0  0  0
  179.0590  181.2390  137.2730 O   0  0  0  0  0  0  0  0  0  0  0  0
  179.8470  182.0460  138.5350 P   0  0  0  0  0  0  0  0  0  0  0  0
  3 16  1  1  0  0  0
  3  4  1  0  0  0  0
  4  1  1  0  0  0  0
  4 11  1  0  0  0  0
  4  2  1  0  0  0  0
  5  3  1  0  0  0  0
  5  7  2  0  0  0  0
  6  7  1  0  0  0  0
  7  9  1  0  0  0  0
  8 11  1  0  0  0  0
  9  8  1  1  0  0  0
  9 15  1  0  0  0  0
 11 37  1  6  0  0  0
 11 14  1  0  0  0  0
 12  5  1  0  0  0  0
 13 12  1  6  0  0  0
 13  6  1  0  0  0  0
 14 10  1  0  0  0  0
 15 36  1  6  0  0  0
 15 10  1  0  0  0  0
 17 23  1  6  0  0  0
 17 19  1  0  0  0  0
 17 13  1  0  0  0  0
 18 21  1  0  0  0  0
 19 24  1  6  0  0  0
 19 18  1  0  0  0  0
 20 18  2  0  0  0  0
 21 31  1  0  0  0  0
 22 23  2  0  0  0  0
 22 20  1  0  0  0  0
 25 26  2  0  0  0  0
 25 33  1  0  0  0  0
 27 28  2  0  0  0  0
 28 30  1  0  0  0  0
 28 32  1  0  0  0  0
 29 31  1  0  0  0  0
 29 26  1  0  0  0  0
 30 29  2  0  0  0  0
 32 25  1  0  0  0  0
 33 34  1  0  0  0  0
 36 35  1  0  0  0  0
 37 38  1  0  0  0  0
 40 42  1  0  0  0  0
 41 42  2  0  0  0  0
 42 39  1  0  0  0  0
 42 38  1  0  0  0  0
M  END
>  <MODEL>
4

>  <REMARK>
 VINA RESULT:      -6.1      5.520     10.196
  Name = 
  7 active torsions:
  status: ('A' for Active; 'I' for Inactive)
    1  A    between atoms: O_2  and  C_10
    2  A    between atoms: C_4  and  C_37
    3  A    between atoms: C_9  and  C_30
    4  A    between atoms: C_9  and  O_34
    5  A    between atoms: N_26  and  N_32
    6  A    between atoms: O_34  and  P_42
    7  A    between atoms: C_35  and  C_40
                            x       y       z     vdW  Elec       q    Type
                         _______ _______ _______ _____ _____    ______ ____

>  <TORSDO>
F 7

$$$$
=
 OpenBabel11062413143D

 42 46  0  0  1  0  0  0  0  0999 V2000
  179.7700  179.0150  141.6920 F   0  0  0  0  0  0  0  0  0  0  0  0
  181.6790  180.0940  141.3370 F   0  0  0  0  0  0  0  0  0  0  0  0
  181.7660  178.0380  142.5190 C   0  0  1  0  0  3  0  0  0  0  0  0
  181.1100  178.8290  141.3760 C   0  0  0  0  0  0  0  0  0  0  0  0
  183.2670  178.2060  142.5600 C   0  0  2  0  0  3  0  0  0  0  0  0
  185.4740  178.0240  141.9080 N   0  0  0  0  0  0  0  0  0  0  0  0
  184.1050  177.9330  141.5570 C   0  0  0  0  0  0  0  0  0  0  0  0
  182.3050  176.9590  140.0180 C   0  0  0  0  0  2  0  0  0  0  0  0
  183.7280  177.4970  140.1560 C   0  0  1  0  0  3  0  0  0  0  0  0
  182.9840  179.6380  138.9550 C   0  0  0  0  0  2  0  0  0  0  0  0
  181.2410  178.0810  139.9930 C   0  0  2  0  0  0  0  0  0  0  0  0
  184.0960  178.6940  144.0740 S   0  0  0  0  0  0  0  0  0  0  0  0
  185.7240  178.4300  143.2810 C   0  0  1  0  0  3  0  0  0  0  0  0
  181.5690  179.0660  138.8510 C   0  0  0  0  0  2  0  0  0  0  0  0
  184.0140  178.5150  139.0350 C   0  0  1  0  0  3  0  0  0  0  0  0
  181.2070  178.3940  143.7360 F   0  0  0  0  0  0  0  0  0  0  0  0
  186.5230  177.3520  144.0210 C   0  0  1  0  0  3  0  0  0  0  0  0
  188.8930  177.9010  143.3510 C   0  0  0  0  0  0  0  0  0  0  0  0
  187.7500  176.9250  143.1940 C   0  0  1  0  0  3  0  0  0  0  0  0
  189.0520  178.5510  144.4670 N   0  0  0  0  0  0  0  0  0  0  0  0
  189.8410  178.0780  142.2980 N   0  0  0  0  0  2  0  0  0  0  0  0
  188.1240  178.4410  145.5560 C   0  0  0  0  0  3  0  0  0  0  0  0
  186.9400  177.8490  145.3830 C   0  0  0  0  0  3  0  0  0  0  0  0
  188.1960  175.5290  143.5930 C   0  0  0  0  0  1  0  0  0  0  0  0
  191.6260  176.1540  138.1420 C   0  0  0  0  0  0  0  0  0  0  0  0
  190.6070  176.4430  138.9610 C   0  0  0  0  0  3  0  0  0  0  0  0
  194.3040  177.5800  140.2190 O   0  0  0  0  0  0  0  0  0  0  0  0
  193.1700  177.2180  139.8130 C   0  0  0  0  0  0  0  0  0  0  0  0
  190.8200  177.1300  140.2440 C   0  0  0  0  0  0  0  0  0  0  0  0
  192.0140  177.4810  140.6180 N   0  0  0  0  0  0  0  0  0  0  0  0
  189.6950  177.4150  141.0720 N   0  0  0  0  0  2  0  0  0  0  0  0
  193.0460  176.5140  138.4920 C   0  0  0  0  0  2  0  0  0  0  0  0
  191.3920  175.5030  136.9300 O   0  0  0  0  0  0  0  0  0  0  0  0
  190.9240  176.1620  135.8600 O   0  0  0  0  0  1  0  0  0  0  0  0
  186.2670  178.2440  137.8770 C   0  0  0  0  0  1  0  0  0  0  0  0
  185.4650  178.9930  138.9320 C   0  0  0  0  0  2  0  0  0  0  0  0
  179.9080  177.4030  139.6480 C   0  0  0  0  0  2  0  0  0  0  0  0
  180.0250  176.0080  139.6350 O   0  0  0  0  0  0  0  0  0  0  0  0
  178.9330  176.6140  137.3380 O   0  0  0  0  0  1  0  0  0  0  0  0
  181.2490  175.4100  137.2200 O   0  0  0  0  0  0  0  0  0  0  0  0
  178.9450  174.0770  137.9650 O   0  0  0  0  0  1  0  0  0  0  0  0
  179.7660  175.5550  138.0230 P   0  0  0  0  0  0  0  0  0  0  0  0
  2  4  1  0  0  0  0
  3  5  1  0  0  0  0
  3 16  1  1  0  0  0
  4  1  1  0  0  0  0
  4  3  1  0  0  0  0
  5  7  1  1  0  0  0
  5 12  1  0  0  0  0
  7  6  2  0  0  0  0
  9  8  1  1  0  0  0
  9  7  1  0  0  0  0
 10 15  1  0  0  0  0
 11 37  1  6  0  0  0
 11  8  1  0  0  0  0
 11  4  1  0  0  0  0
 13  6  1  6  0  0  0
 13 17  1  0  0  0  0
 13 12  1  0  0  0  0
 14 10  1  0  0  0  0
 14 11  1  0  0  0  0
 15 36  1  1  0  0  0
 15  9  1  0  0  0  0
 17 23  1  1  0  0  0
 18 20  2  0  0  0  0
 19 18  1  0  0  0  0
 19 24  1  1  0  0  0
 19 17  1  0  0  0  0
 20 22  1  0  0  0  0
 21 18  1  0  0  0  0
 23 22  2  0  0  0  0
 25 32  1  0  0  0  0
 25 26  2  0  0  0  0
 26 29  1  0  0  0  0
 28 27  2  0  0  0  0
 28 30  1  0  0  0  0
 29 30  2  0  0  0  0
 29 31  1  0  0  0  0
 31 21  1  0  0  0  0
 32 28  1  0  0  0  0
 33 25  1  0  0  0  0
 34 33  1  0  0  0  0
 35 36  1  0  0  0  0
 38 37  1  0  0  0  0
 39 42  1  0  0  0  0
 40 42  2  0  0  0  0
 41 42  1  0  0  0  0
 42 38  1  0  0  0  0
M  END
>  <MODEL>
5

>  <REMARK>
 VINA RESULT:      -6.1      5.144     10.032
  Name = 
  7 active torsions:
  status: ('A' for Active; 'I' for Inactive)
    1  A    between atoms: O_2  and  C_10
    2  A    between atoms: C_4  and  C_37
    3  A    between atoms: C_9  and  C_30
    4  A    between atoms: C_9  and  O_34
    5  A    between atoms: N_26  and  N_32
    6  A    between atoms: O_34  and  P_42
    7  A    between atoms: C_35  and  C_40
                            x       y       z     vdW  Elec       q    Type
                         _______ _______ _______ _____ _____    ______ ____

>  <TORSDO>
F 7

$$$$
=
 OpenBabel11062413143D

 42 46  0  0  1  0  0  0  0  0999 V2000
  187.9700  176.9160  146.1690 F   0  0  0  0  0  0  0  0  0  0  0  0
  187.5560  175.9700  144.2020 F   0  0  0  0  0  0  0  0  0  0  0  0
  186.6790  178.1390  144.6010 C   0  0  1  0  0  3  0  0  0  0  0  0
  187.8620  177.1800  144.8100 C   0  0  0  0  0  0  0  0  0  0  0  0
  186.1390  178.1040  143.1890 C   0  0  0  0  0  0  0  0  0  0  0  0
  186.0690  178.4010  140.9010 N   0  0  0  0  0  2  0  0  0  0  0  0
  186.8490  178.3390  142.0830 C   0  0  0  0  0  0  0  0  0  0  0  0
  188.9920  178.9910  143.3220 C   0  0  0  0  0  2  0  0  0  0  0  0
  188.3400  178.5920  142.0000 C   0  0  1  0  0  3  0  0  0  0  0  0
  189.4330  176.2820  142.2110 C   0  0  0  0  0  2  0  0  0  0  0  0
  189.2140  177.7870  144.2670 C   0  0  2  0  0  0  0  0  0  0  0  0
  184.3910  177.8490  142.8810 S   0  0  0  0  0  0  0  0  0  0  0  0
  184.6490  178.1650  141.0970 C   0  0  1  0  0  3  0  0  0  0  0  0
  190.0560  176.7180  143.5390 C   0  0  0  0  0  2  0  0  0  0  0  0
  189.1720  177.4900  141.3160 C   0  0  1  0  0  3  0  0  0  0  0  0
  185.6710  177.8670  145.5110 F   0  0  0  0  0  0  0  0  0  0  0  0
  183.8360  179.3780  140.6340 C   0  0  1  0  0  3  0  0  0  0  0  0
  182.6500  178.4710  138.5990 C   0  0  0  0  0  0  0  0  0  0  0  0
  183.7290  179.4030  139.0980 C   0  0  1  0  0  3  0  0  0  0  0  0
  181.5920  178.2460  139.3230 N   0  0  0  0  0  0  0  0  0  0  0  0
  182.7530  177.8730  137.3080 N   0  0  0  0  0  2  0  0  0  0  0  0
  181.4350  178.7930  140.6400 C   0  0  0  0  0  3  0  0  0  0  0  0
  182.4660  179.3650  141.2670 C   0  0  0  0  0  3  0  0  0  0  0  0
  183.4650  180.8180  138.6110 C   0  0  0  0  0  1  0  0  0  0  0  0
  187.0520  176.4410  135.4020 C   0  0  0  0  0  0  0  0  0  0  0  0
  186.0690  177.3400  135.5430 C   0  0  0  0  0  3  0  0  0  0  0  0
  185.6280  173.8550  137.5940 O   0  0  0  0  0  0  0  0  0  0  0  0
  185.7820  174.9240  136.9500 C   0  0  0  0  0  0  0  0  0  0  0  0
  184.8970  177.0730  136.3910 C   0  0  0  0  0  0  0  0  0  0  0  0
  184.7850  175.9500  137.0340 N   0  0  0  0  0  0  0  0  0  0  0  0
  183.8840  178.0710  136.5050 N   0  0  0  0  0  2  0  0  0  0  0  0
  187.0080  175.1070  136.1020 C   0  0  0  0  0  2  0  0  0  0  0  0
  188.1530  176.7230  134.5940 O   0  0  0  0  0  0  0  0  0  0  0  0
  189.1800  177.4600  135.0400 O   0  0  0  0  0  1  0  0  0  0  0  0
  189.0890  178.2040  138.8730 C   0  0  0  0  0  1  0  0  0  0  0  0
  188.7440  177.1270  139.8920 C   0  0  0  0  0  2  0  0  0  0  0  0
  190.0490  178.3100  145.4430 C   0  0  0  0  0  2  0  0  0  0  0  0
  191.1410  177.4760  145.7130 O   0  0  0  0  0  0  0  0  0  0  0  0
  190.2400  175.6230  147.3220 O   0  0  0  0  0  0  0  0  0  0  0  0
  192.4300  176.8290  148.0800 O   0  0  0  0  0  1  0  0  0  0  0  0
  189.9700  178.0870  148.1510 O   0  0  0  0  0  1  0  0  0  0  0  0
  190.9270  176.9690  147.3150 P   0  0  0  0  0  0  0  0  0  0  0  0
  2  4  1  0  0  0  0
  3  4  1  0  0  0  0
  3 16  1  1  0  0  0
  4  1  1  0  0  0  0
  5  3  1  0  0  0  0
  6  7  1  0  0  0  0
  7  5  2  0  0  0  0
  8 11  1  0  0  0  0
  9  7  1  0  0  0  0
  9  8  1  1  0  0  0
 10 14  1  0  0  0  0
 11  4  1  0  0  0  0
 11 37  1  1  0  0  0
 12  5  1  0  0  0  0
 13  6  1  1  0  0  0
 13 12  1  0  0  0  0
 14 11  1  0  0  0  0
 15 36  1  6  0  0  0
 15  9  1  0  0  0  0
 15 10  1  0  0  0  0
 17 13  1  0  0  0  0
 17 23  1  1  0  0  0
 18 19  1  0  0  0  0
 18 20  2  0  0  0  0
 19 24  1  1  0  0  0
 19 17  1  0  0  0  0
 20 22  1  0  0  0  0
 21 18  1  0  0  0  0
 22 23  2  0  0  0  0
 25 26  2  0  0  0  0
 25 32  1  0  0  0  0
 26 29  1  0  0  0  0
 28 30  1  0  0  0  0
 28 27  2  0  0  0  0
 29 31  1  0  0  0  0
 29 30  2  0  0  0  0
 31 21  1  0  0  0  0
 32 28  1  0  0  0  0
 33 34  1  0  0  0  0
 33 25  1  0  0  0  0
 35 36  1  0  0  0  0
 37 38  1  0  0  0  0
 38 42  1  0  0  0  0
 42 39  2  0  0  0  0
 42 40  1  0  0  0  0
 42 41  1  0  0  0  0
M  END
>  <MODEL>
6

>  <REMARK>
 VINA RESULT:      -6.0      3.163      5.421
  Name = 
  7 active torsions:
  status: ('A' for Active; 'I' for Inactive)
    1  A    between atoms: O_2  and  C_10
    2  A    between atoms: C_4  and  C_37
    3  A    between atoms: C_9  and  C_30
    4  A    between atoms: C_9  and  O_34
    5  A    between atoms: N_26  and  N_32
    6  A    between atoms: O_34  and  P_42
    7  A    between atoms: C_35  and  C_40
                            x       y       z     vdW  Elec       q    Type
                         _______ _______ _______ _____ _____    ______ ____

>  <TORSDO>
F 7

$$$$
=
 OpenBabel11062413143D

 42 46  0  0  1  0  0  0  0  0999 V2000
  184.1730  179.4330  140.8560 F   0  0  0  0  0  0  0  0  0  0  0  0
  183.8730  180.1090  138.7610 F   0  0  0  0  0  0  0  0  0  0  0  0
  184.9090  178.0030  139.1140 C   0  0  1  0  0  3  0  0  0  0  0  0
  183.8300  178.9920  139.5840 C   0  0  0  0  0  0  0  0  0  0  0  0
  184.9460  177.8480  137.6110 C   0  0  2  0  0  3  0  0  0  0  0  0
  184.2600  177.2520  135.4890 N   0  0  0  0  0  0  0  0  0  0  0  0
  183.9170  177.4770  136.8450 C   0  0  0  0  0  0  0  0  0  0  0  0
  182.3340  177.0120  138.8030 C   0  0  0  0  0  2  0  0  0  0  0  0
  182.4930  177.2280  137.2990 C   0  0  1  0  0  3  0  0  0  0  0  0
  181.4520  179.5560  137.5710 C   0  0  0  0  0  2  0  0  0  0  0  0
  182.3980  178.3320  139.6070 C   0  0  2  0  0  0  0  0  0  0  0  0
  186.4810  178.0430  136.7050 S   0  0  0  0  0  0  0  0  0  0  0  0
  185.6550  177.4990  135.1650 C   0  0  1  0  0  3  0  0  0  0  0  0
  181.3240  179.3030  139.0740 C   0  0  0  0  0  2  0  0  0  0  0  0
  181.4430  178.2390  136.8010 C   0  0  1  0  0  3  0  0  0  0  0  0
  186.1530  178.3820  139.5910 F   0  0  0  0  0  0  0  0  0  0  0  0
  186.3100  176.2280  134.6140 C   0  0  1  0  0  3  0  0  0  0  0  0
  187.2110  175.1500  136.7090 C   0  0  0  0  0  0  0  0  0  0  0  0
  187.5660  175.8700  135.4300 C   0  0  1  0  0  3  0  0  0  0  0  0
  186.1580  174.3850  136.7620 N   0  0  0  0  0  0  0  0  0  0  0  0
  188.0560  175.2550  137.8550 N   0  0  0  0  0  2  0  0  0  0  0  0
  185.2520  174.2540  135.6570 C   0  0  0  0  0  3  0  0  0  0  0  0
  185.3240  175.0860  134.6150 C   0  0  0  0  0  3  0  0  0  0  0  0
  188.5110  175.0210  134.5960 C   0  0  0  0  0  1  0  0  0  0  0  0
  192.8550  176.0790  137.1840 C   0  0  0  0  0  0  0  0  0  0  0  0
  191.6250  176.4950  137.5100 C   0  0  0  0  0  3  0  0  0  0  0  0
  191.9820  172.5800  136.4670 O   0  0  0  0  0  0  0  0  0  0  0  0
  191.8920  173.7940  136.7840 C   0  0  0  0  0  0  0  0  0  0  0  0
  190.4710  175.5830  137.4870 C   0  0  0  0  0  0  0  0  0  0  0  0
  190.6180  174.3370  137.1490 N   0  0  0  0  0  0  0  0  0  0  0  0
  189.1860  176.0830  137.8490 N   0  0  0  0  0  2  0  0  0  0  0  0
  193.1230  174.6550  136.7720 C   0  0  0  0  0  2  0  0  0  0  0  0
  193.9310  176.9670  137.2180 O   0  0  0  0  0  0  0  0  0  0  0  0
  194.7510  177.1140  136.1670 O   0  0  0  0  0  1  0  0  0  0  0  0
  181.0750  179.8410  134.8540 C   0  0  0  0  0  1  0  0  0  0  0  0
  181.3580  178.4070  135.2810 C   0  0  0  0  0  2  0  0  0  0  0  0
  182.0210  177.9750  141.0510 C   0  0  0  0  0  2  0  0  0  0  0  0
  180.6850  178.2860  141.3290 O   0  0  0  0  0  0  0  0  0  0  0  0
  179.8430  178.1650  143.8000 O   0  0  0  0  0  1  0  0  0  0  0  0
  182.2860  179.0300  143.4660 O   0  0  0  0  0  1  0  0  0  0  0  0
  180.0870  180.5640  142.7920 O   0  0  0  0  0  0  0  0  0  0  0  0
  180.7020  178.9890  142.8700 P   0  0  0  0  0  0  0  0  0  0  0  0
  2  4  1  0  0  0  0
  3  4  1  0  0  0  0
  3 16  1  6  0  0  0
  4 11  1  0  0  0  0
  4  1  1  0  0  0  0
  5 12  1  1  0  0  0
  5  3  1  0  0  0  0
  6  7  2  0  0  0  0
  7  9  1  0  0  0  0
  7  5  1  0  0  0  0
  8 11  1  0  0  0  0
  9  8  1  1  0  0  0
 10 14  1  0  0  0  0
 11 37  1  1  0  0  0
 13  6  1  1  0  0  0
 13 12  1  0  0  0  0
 14 11  1  0  0  0  0
 15 36  1  6  0  0  0
 15  9  1  0  0  0  0
 15 10  1  0  0  0  0
 17 23  1  1  0  0  0
 17 13  1  0  0  0  0
 17 19  1  0  0  0  0
 18 20  2  0  0  0  0
 18 21  1  0  0  0  0
 19 24  1  6  0  0  0
 19 18  1  0  0  0  0
 22 20  1  0  0  0  0
 23 22  2  0  0  0  0
 25 33  1  0  0  0  0
 25 26  2  0  0  0  0
 27 28  2  0  0  0  0
 28 30  1  0  0  0  0
 29 26  1  0  0  0  0
 29 31  1  0  0  0  0
 30 29  2  0  0  0  0
 31 21  1  0  0  0  0
 32 28  1  0  0  0  0
 32 25  1  0  0  0  0
 34 33  1  0  0  0  0
 35 36  1  0  0  0  0
 37 38  1  0  0  0  0
 38 42  1  0  0  0  0
 41 42  2  0  0  0  0
 42 40  1  0  0  0  0
 42 39  1  0  0  0  0
M  END
>  <MODEL>
7

>  <REMARK>
 VINA RESULT:      -5.9      5.293      9.153
  Name = 
  7 active torsions:
  status: ('A' for Active; 'I' for Inactive)
    1  A    between atoms: O_2  and  C_10
    2  A    between atoms: C_4  and  C_37
    3  A    between atoms: C_9  and  C_30
    4  A    between atoms: C_9  and  O_34
    5  A    between atoms: N_26  and  N_32
    6  A    between atoms: O_34  and  P_42
    7  A    between atoms: C_35  and  C_40
                            x       y       z     vdW  Elec       q    Type
                         _______ _______ _______ _____ _____    ______ ____

>  <TORSDO>
F 7

$$$$
=
 OpenBabel11062413143D

 42 46  0  0  1  0  0  0  0  0999 V2000
  191.3490  178.0540  144.8750 F   0  0  0  0  0  0  0  0  0  0  0  0
  190.3870  179.1850  143.2240 F   0  0  0  0  0  0  0  0  0  0  0  0
  191.0570  176.9490  142.7980 C   0  0  1  0  0  3  0  0  0  0  0  0
  190.4580  177.9320  143.8160 C   0  0  0  0  0  0  0  0  0  0  0  0
  190.4710  177.1110  141.4140 C   0  0  0  0  0  0  0  0  0  0  0  0
  188.9090  177.0580  139.7160 N   0  0  0  0  0  2  0  0  0  0  0  0
  189.1750  177.0290  141.1070 C   0  0  0  0  0  0  0  0  0  0  0  0
  188.4280  176.3450  143.4590 C   0  0  0  0  0  2  0  0  0  0  0  0
  188.0240  176.8530  142.0760 C   0  0  1  0  0  3  0  0  0  0  0  0
  187.6360  179.1750  143.0960 C   0  0  0  0  0  2  0  0  0  0  0  0
  189.0520  177.4490  144.3440 C   0  0  2  0  0  0  0  0  0  0  0  0
  191.5350  177.3170  139.9850 S   0  0  0  0  0  0  0  0  0  0  0  0
  190.0840  177.2080  138.8750 C   0  0  1  0  0  3  0  0  0  0  0  0
  188.0620  178.6270  144.4590 C   0  0  0  0  0  2  0  0  0  0  0  0
  187.0750  178.0590  142.2190 C   0  0  1  0  0  3  0  0  0  0  0  0
  192.4360  177.0750  142.7570 F   0  0  0  0  0  0  0  0  0  0  0  0
  190.2160  176.0150  137.9210 C   0  0  1  0  0  3  0  0  0  0  0  0
  188.2950  176.3990  136.3310 C   0  0  0  0  0  0  0  0  0  0  0  0
  188.8270  175.5410  137.4540 C   0  0  1  0  0  3  0  0  0  0  0  0
  189.1130  176.9540  135.4850 N   0  0  0  0  0  0  0  0  0  0  0  0
  186.8880  176.5640  136.1540 N   0  0  0  0  0  0  0  0  0  0  0  0
  190.5380  176.8520  135.6190 C   0  0  0  0  0  3  0  0  0  0  0  0
  191.0840  176.3790  136.7410 C   0  0  0  0  0  3  0  0  0  0  0  0
  188.8860  174.0860  137.0190 C   0  0  0  0  0  1  0  0  0  0  0  0
  182.3350  175.8320  137.8540 C   0  0  0  0  0  0  0  0  0  0  0  0
  183.6580  175.6370  137.9150 C   0  0  0  0  0  3  0  0  0  0  0  0
  182.3250  177.9960  134.8820 O   0  0  0  0  0  0  0  0  0  0  0  0
  182.7170  177.2620  135.8250 C   0  0  0  0  0  0  0  0  0  0  0  0
  184.5720  176.2420  136.9340 C   0  0  0  0  0  0  0  0  0  0  0  0
  184.1150  176.9920  135.9770 N   0  0  0  0  0  0  0  0  0  0  0  0
  185.9730  176.0020  137.0530 N   0  0  0  0  0  0  0  0  0  0  0  0
  181.7100  176.6790  136.7760 C   0  0  0  0  0  2  0  0  0  0  0  0
  181.4930  175.2460  138.8000 O   0  0  0  0  0  0  0  0  0  0  0  0
  181.0500  175.9320  139.8640 O   0  0  0  0  0  1  0  0  0  0  0  0
  184.9920  179.0010  141.0960 C   0  0  0  0  0  1  0  0  0  0  0  0
  186.4360  178.5530  140.9180 C   0  0  0  0  0  2  0  0  0  0  0  0
  189.2110  176.8420  145.7440 C   0  0  0  0  0  2  0  0  0  0  0  0
  187.9940  176.8070  146.4340 O   0  0  0  0  0  0  0  0  0  0  0  0
  187.8860  176.6200  149.0390 O   0  0  0  0  0  1  0  0  0  0  0  0
  189.9610  177.8780  148.0690 O   0  0  0  0  0  1  0  0  0  0  0  0
  187.4310  178.9930  148.0430 O   0  0  0  0  0  0  0  0  0  0  0  0
  188.3060  177.5500  147.9240 P   0  0  0  0  0  0  0  0  0  0  0  0
  2  4  1  0  0  0  0
  3 16  1  6  0  0  0
  3  4  1  0  0  0  0
  4 11  1  0  0  0  0
  4  1  1  0  0  0  0
  5  3  1  0  0  0  0
  6  7  1  0  0  0  0
  7  5  2  0  0  0  0
  7  9  1  0  0  0  0
  8 11  1  0  0  0  0
  9 15  1  0  0  0  0
  9  8  1  1  0  0  0
 10 14  1  0  0  0  0
 11 14  1  0  0  0  0
 11 37  1  1  0  0  0
 12  5  1  0  0  0  0
 13  6  1  1  0  0  0
 13 12  1  0  0  0  0
 15 36  1  6  0  0  0
 15 10  1  0  0  0  0
 17 23  1  6  0  0  0
 17 13  1  0  0  0  0
 18 19  1  0  0  0  0
 19 24  1  6  0  0  0
 19 17  1  0  0  0  0
 20 22  1  0  0  0  0
 20 18  2  0  0  0  0
 21 18  1  0  0  0  0
 21 31  2  0  0  0  0
 22 23  2  0  0  0  0
 25 26  2  0  0  0  0
 25 33  1  0  0  0  0
 27 28  2  0  0  0  0
 28 30  1  0  0  0  0
 28 32  1  0  0  0  0
 29 31  1  0  0  0  0
 29 26  1  0  0  0  0
 30 29  2  0  0  0  0
 32 25  1  0  0  0  0
 33 34  1  0  0  0  0
 36 35  1  0  0  0  0
 37 38  1  0  0  0  0
 38 42  1  0  0  0  0
 42 41  2  0  0  0  0
 42 40  1  0  0  0  0
 42 39  1  0  0  0  0
M  END
>  <MODEL>
8

>  <REMARK>
 VINA RESULT:      -5.9      2.265      2.724
  Name = 
  7 active torsions:
  status: ('A' for Active; 'I' for Inactive)
    1  A    between atoms: O_2  and  C_10
    2  A    between atoms: C_4  and  C_37
    3  A    between atoms: C_9  and  C_30
    4  A    between atoms: C_9  and  O_34
    5  A    between atoms: N_26  and  N_32
    6  A    between atoms: O_34  and  P_42
    7  A    between atoms: C_35  and  C_40
                            x       y       z     vdW  Elec       q    Type
                         _______ _______ _______ _____ _____    ______ ____

>  <TORSDO>
F 7

$$$$
=
 OpenBabel11062413143D

 42 46  0  0  1  0  0  0  0  0999 V2000
  180.4890  177.3850  138.5810 F   0  0  0  0  0  0  0  0  0  0  0  0
  182.2130  176.5790  139.7260 F   0  0  0  0  0  0  0  0  0  0  0  0
  182.6650  177.7410  137.7080 C   0  0  1  0  0  3  0  0  0  0  0  0
  181.7930  177.6640  138.9710 C   0  0  0  0  0  0  0  0  0  0  0  0
  184.1330  177.5280  137.9960 C   0  0  0  0  0  0  0  0  0  0  0  0
  186.2510  177.9480  138.8130 N   0  0  0  0  0  2  0  0  0  0  0  0
  184.8670  178.2480  138.8490 C   0  0  0  0  0  0  0  0  0  0  0  0
  183.0090  179.9260  139.3850 C   0  0  0  0  0  2  0  0  0  0  0  0
  184.3720  179.3490  139.7640 C   0  0  1  0  0  3  0  0  0  0  0  0
  183.2600  178.1430  141.7360 C   0  0  0  0  0  2  0  0  0  0  0  0
  181.8350  179.0080  139.7970 C   0  0  2  0  0  0  0  0  0  0  0  0
  185.0820  176.3110  137.0830 S   0  0  0  0  0  0  0  0  0  0  0  0
  186.6200  176.8910  137.8870 C   0  0  1  0  0  3  0  0  0  0  0  0
  181.9130  178.7330  141.3130 C   0  0  0  0  0  2  0  0  0  0  0  0
  184.4070  179.0360  141.2720 C   0  0  1  0  0  3  0  0  0  0  0  0
  182.2230  176.8320  136.7600 F   0  0  0  0  0  0  0  0  0  0  0  0
  187.6160  177.4160  136.8460 C   0  0  1  0  0  3  0  0  0  0  0  0
  189.7990  176.4690  137.6820 C   0  0  0  0  0  0  0  0  0  0  0  0
  188.9740  177.7210  137.5030 C   0  0  1  0  0  3  0  0  0  0  0  0
  189.6900  175.4840  136.8380 N   0  0  0  0  0  0  0  0  0  0  0  0
  190.7480  176.3750  138.7450 N   0  0  0  0  0  2  0  0  0  0  0  0
  188.7390  175.5010  135.7630 C   0  0  0  0  0  3  0  0  0  0  0  0
  187.7740  176.4220  135.7220 C   0  0  0  0  0  3  0  0  0  0  0  0
  189.7420  178.7400  136.6780 C   0  0  0  0  0  1  0  0  0  0  0  0
  190.5320  178.1420  143.3270 C   0  0  0  0  0  0  0  0  0  0  0  0
  190.7680  178.2940  142.0180 C   0  0  0  0  0  3  0  0  0  0  0  0
  189.6190  174.5820  143.2180 O   0  0  0  0  0  0  0  0  0  0  0  0
  189.9750  175.7360  142.8670 C   0  0  0  0  0  0  0  0  0  0  0  0
  190.6210  177.1770  141.0730 C   0  0  0  0  0  0  0  0  0  0  0  0
  190.2520  176.0020  141.4870 N   0  0  0  0  0  0  0  0  0  0  0  0
  190.8830  177.4010  139.6890 N   0  0  0  0  0  2  0  0  0  0  0  0
  190.1070  176.8160  143.9030 C   0  0  0  0  0  2  0  0  0  0  0  0
  190.6760  179.2210  144.1990 O   0  0  0  0  0  0  0  0  0  0  0  0
  191.6500  180.1290  144.0350 O   0  0  0  0  0  1  0  0  0  0  0  0
  185.6850  177.9310  143.1780 C   0  0  0  0  0  1  0  0  0  0  0  0
  185.7750  178.6320  141.8300 C   0  0  0  0  0  2  0  0  0  0  0  0
  180.5510  179.8080  139.5390 C   0  0  0  0  0  2  0  0  0  0  0  0
  180.3970  180.1160  138.1830 O   0  0  0  0  0  0  0  0  0  0  0  0
  179.1030  182.0790  139.3270 O   0  0  0  0  0  1  0  0  0  0  0  0
  181.3880  182.7050  138.2250 O   0  0  0  0  0  1  0  0  0  0  0  0
  179.1510  182.1110  136.7140 O   0  0  0  0  0  0  0  0  0  0  0  0
  179.9870  181.7590  138.1430 P   0  0  0  0  0  0  0  0  0  0  0  0
  1  4  1  0  0  0  0
  3 16  1  6  0  0  0
  3  5  1  0  0  0  0
  3  4  1  0  0  0  0
  4  2  1  0  0  0  0
  4 11  1  0  0  0  0
  5  7  2  0  0  0  0
  6  7  1  0  0  0  0
  7  9  1  0  0  0  0
  8 11  1  0  0  0  0
  9  8  1  6  0  0  0
  9 15  1  0  0  0  0
 11 37  1  6  0  0  0
 11 14  1  0  0  0  0
 12  5  1  0  0  0  0
 13 12  1  6  0  0  0
 13  6  1  0  0  0  0
 14 10  1  0  0  0  0
 15 10  1  0  0  0  0
 15 36  1  6  0  0  0
 17 23  1  6  0  0  0
 17 19  1  0  0  0  0
 17 13  1  0  0  0  0
 18 21  1  0  0  0  0
 19 24  1  6  0  0  0
 19 18  1  0  0  0  0
 20 18  2  0  0  0  0
 21 31  1  0  0  0  0
 22 20  1  0  0  0  0
 23 22  2  0  0  0  0
 25 32  1  0  0  0  0
 25 33  1  0  0  0  0
 26 25  2  0  0  0  0
 28 27  2  0  0  0  0
 28 32  1  0  0  0  0
 29 30  2  0  0  0  0
 29 26  1  0  0  0  0
 30 28  1  0  0  0  0
 31 29  1  0  0  0  0
 34 33  1  0  0  0  0
 36 35  1  0  0  0  0
 38 37  1  0  0  0  0
 41 42  2  0  0  0  0
 42 38  1  0  0  0  0
 42 40  1  0  0  0  0
 42 39  1  0  0  0  0
M  END
>  <MODEL>
9

>  <REMARK>
 VINA RESULT:      -5.8      4.387      9.202
  Name = 
  7 active torsions:
  status: ('A' for Active; 'I' for Inactive)
    1  A    between atoms: O_2  and  C_10
    2  A    between atoms: C_4  and  C_37
    3  A    between atoms: C_9  and  C_30
    4  A    between atoms: C_9  and  O_34
    5  A    between atoms: N_26  and  N_32
    6  A    between atoms: O_34  and  P_42
    7  A    between atoms: C_35  and  C_40
                            x       y       z     vdW  Elec       q    Type
                         _______ _______ _______ _____ _____    ______ ____

>  <TORSDO>
F 7

$$$$
