=
 OpenBabel11062417433D

 39 42  0  0  1  0  0  0  0  0999 V2000
  188.6090  177.1830  140.2310 C   0  0  0  0  0  2  0  0  0  0  0  0
  190.0530  177.5420  139.9160 C   0  0  2  0  0  3  0  0  0  0  0  0
  187.6740  177.8440  139.2320 C   0  0  0  0  0  2  0  0  0  0  0  0
  188.9690  177.8480  136.3810 C   0  0  0  0  0  0  0  0  0  0  0  0
  187.3040  176.8780  138.1090 C   0  0  2  0  0  3  0  0  0  0  0  0
  188.5990  179.2880  136.4370 C   0  0  0  0  0  1  0  0  0  0  0  0
  190.8330  176.2760  139.5710 C   0  0  1  0  0  3  0  0  0  0  0  0
  192.2220  177.9150  141.1630 C   0  0  0  0  0  1  0  0  0  0  0  0
  189.9200  177.3570  135.6300 O   0  0  0  0  0  0  0  0  0  0  0  0
  191.9050  176.6190  138.5520 C   0  0  0  0  0  2  0  0  0  0  0  0
  190.9410  175.1300  135.2380 C   0  0  0  0  0  2  0  0  0  0  0  0
  191.0510  176.9680  140.9170 C   0  0  1  0  0  0  0  0  0  0  0  0
  189.9540  176.0630  135.8620 C   0  0  0  0  0  0  0  0  0  0  0  0
  192.3150  175.3630  137.8050 C   0  0  0  0  0  2  0  0  0  0  0  0
  188.4030  176.8050  137.0890 C   0  0  0  0  0  0  0  0  0  0  0  0
  194.2830  176.2540  136.5210 N   0  0  0  0  0  2  0  0  0  0  0  0
  192.3020  175.6430  135.3780 N   0  0  0  0  0  0  0  0  0  0  0  0
  192.9510  175.7390  136.5040 C   0  0  0  0  0  0  0  0  0  0  0  0
  189.0270  175.6590  136.7560 N   0  0  0  0  0  0  0  0  0  0  0  0
  194.9860  176.6430  135.3080 C   0  0  0  0  0  2  0  0  0  0  0  0
  195.4340  178.0180  135.4300 N   0  0  0  0  0  1  0  0  0  0  0  0
  190.4590  176.3550  142.0350 O   0  0  0  0  0  0  0  0  0  0  0  0
  190.9040  177.0630  143.1570 C   0  0  0  0  0  2  0  0  0  0  0  0
  188.6100  176.5540  143.9910 O   0  0  0  0  0  0  0  0  0  0  0  0
  189.7610  177.3260  144.0730 C   0  0  0  0  0  0  0  0  0  0  0  0
  189.8400  178.2480  144.9270 O   0  0  0  0  0  1  0  0  0  0  0  0
  185.9380  177.1970  137.4720 C   0  0  2  0  0  3  0  0  0  0  0  0
  184.8810  177.4090  138.5760 C   0  0  2  0  0  3  0  0  0  0  0  0
  183.3520  178.3570  140.8970 C   0  0  0  0  0  2  0  0  0  0  0  0
  182.7500  176.5020  139.6020 C   0  0  0  0  0  2  0  0  0  0  0  0
  183.5820  176.6350  138.3290 C   0  0  0  0  0  2  0  0  0  0  0  0
  182.2920  177.8070  140.0630 N   0  0  0  0  0  2  0  0  0  0  0  0
  184.2250  179.3380  140.1130 C   0  0  0  0  0  2  0  0  0  0  0  0
  184.5500  178.8970  138.6820 C   0  0  0  0  0  2  0  0  0  0  0  0
  185.5650  176.1330  136.6240 O   0  0  0  0  0  0  0  0  0  0  0  0
  185.5990  176.5800  135.2850 C   0  0  0  0  0  0  0  0  0  0  0  0
  186.6630  176.0230  134.5940 F   0  0  0  0  0  0  0  0  0  0  0  0
  184.4160  176.2810  134.6330 F   0  0  0  0  0  0  0  0  0  0  0  0
  185.7570  177.9520  135.2850 F   0  0  0  0  0  0  0  0  0  0  0  0
  2  1  1  1  0  0  0
  2 12  1  0  0  0  0
  3  1  1  0  0  0  0
  4  6  1  0  0  0  0
  4 15  2  0  0  0  0
  5 27  1  6  0  0  0
  5  3  1  0  0  0  0
  7 10  1  6  0  0  0
  7  2  1  0  0  0  0
  7 12  1  0  0  0  0
  9 13  1  0  0  0  0
  9  4  1  0  0  0  0
 11 17  1  0  0  0  0
 11 13  1  0  0  0  0
 12  8  1  1  0  0  0
 12 22  1  0  0  0  0
 13 19  2  0  0  0  0
 14 10  1  0  0  0  0
 15  5  1  0  0  0  0
 17 18  2  0  0  0  0
 18 16  1  0  0  0  0
 18 14  1  0  0  0  0
 19 15  1  0  0  0  0
 20 21  1  0  0  0  0
 20 16  1  0  0  0  0
 22 23  1  0  0  0  0
 23 25  1  0  0  0  0
 24 25  2  0  0  0  0
 25 26  1  0  0  0  0
 27 35  1  6  0  0  0
 28 27  1  6  0  0  0
 28 34  1  0  0  0  0
 30 32  1  0  0  0  0
 31 28  1  0  0  0  0
 31 30  1  0  0  0  0
 32 29  1  0  0  0  0
 33 29  1  0  0  0  0
 34 33  1  0  0  0  0
 36 35  1  0  0  0  0
 37 36  1  0  0  0  0
 38 36  1  0  0  0  0
 39 36  1  0  0  0  0
M  END
>  <MODEL>
1

>  <REMARK>
 VINA RESULT:      -5.9      0.000      0.000
  Name = 
  8 active torsions:
  status: ('A' for Active; 'I' for Inactive)
    1  A    between atoms: O_1  and  C_23
    2  A    between atoms: O_1  and  C_30
    3  A    between atoms: C_3  and  O_14
    4  A    between atoms: C_7  and  C_31
    5  A    between atoms: C_10  and  C_31
    6  A    between atoms: C_13  and  C_30
    7  A    between atoms: O_14  and  C_31
    8  A    between atoms: C_25  and  N_34
                            x       y       z     vdW  Elec       q    Type
                         _______ _______ _______ _____ _____    ______ ____

>  <TORSDO>
F 8

$$$$
=
 OpenBabel11062417433D

 39 42  0  0  1  0  0  0  0  0999 V2000
  185.7180  178.8160  141.9120 C   0  0  0  0  0  2  0  0  0  0  0  0
  186.0080  177.9400  140.7020 C   0  0  2  0  0  3  0  0  0  0  0  0
  186.1290  178.1020  143.1880 C   0  0  0  0  0  2  0  0  0  0  0  0
  188.7580  176.4690  142.7110 C   0  0  0  0  0  0  0  0  0  0  0  0
  187.5190  178.5450  143.6370 C   0  0  2  0  0  3  0  0  0  0  0  0
  187.9550  175.3820  143.3340 C   0  0  0  0  0  1  0  0  0  0  0  0
  187.0290  178.6300  139.8030 C   0  0  1  0  0  3  0  0  0  0  0  0
  185.0420  177.5140  138.4040 C   0  0  0  0  0  1  0  0  0  0  0  0
  189.7730  176.2730  141.9110 O   0  0  0  0  0  0  0  0  0  0  0  0
  187.8840  177.5740  139.1260 C   0  0  0  0  0  2  0  0  0  0  0  0
  191.3380  177.6860  140.6020 C   0  0  0  0  0  2  0  0  0  0  0  0
  185.5600  178.5640  139.3840 C   0  0  1  0  0  0  0  0  0  0  0  0
  190.2110  177.4620  141.5580 C   0  0  0  0  0  0  0  0  0  0  0  0
  189.1970  178.1910  138.6810 C   0  0  0  0  0  2  0  0  0  0  0  0
  188.5820  177.8320  142.8520 C   0  0  0  0  0  0  0  0  0  0  0  0
  190.1310  176.2850  137.3370 N   0  0  0  0  0  2  0  0  0  0  0  0
  191.1500  176.9020  139.3830 N   0  0  0  0  0  0  0  0  0  0  0  0
  190.2200  177.1160  138.4960 C   0  0  0  0  0  0  0  0  0  0  0  0
  189.5130  178.4720  142.1190 N   0  0  0  0  0  0  0  0  0  0  0  0
  191.0810  175.2160  137.0680 C   0  0  0  0  0  2  0  0  0  0  0  0
  190.5330  173.9560  137.5350 N   0  0  0  0  0  1  0  0  0  0  0  0
  184.8170  179.7480  139.5280 O   0  0  0  0  0  0  0  0  0  0  0  0
  183.6650  179.5900  138.7480 C   0  0  0  0  0  2  0  0  0  0  0  0
  181.4270  180.5520  139.2850 O   0  0  0  0  0  0  0  0  0  0  0  0
  182.4570  179.6790  139.6120 C   0  0  0  0  0  0  0  0  0  0  0  0
  182.3650  178.9560  140.6390 O   0  0  0  0  0  1  0  0  0  0  0  0
  187.7290  178.4080  145.1580 C   0  0  2  0  0  3  0  0  0  0  0  0
  189.0720  177.7040  145.4410 C   0  0  2  0  0  3  0  0  0  0  0  0
  191.8310  176.7020  145.3290 C   0  0  0  0  0  2  0  0  0  0  0  0
  190.2680  176.0550  146.9470 C   0  0  0  0  0  2  0  0  0  0  0  0
  189.1540  177.0940  146.8440 C   0  0  0  0  0  2  0  0  0  0  0  0
  191.5750  176.6730  146.7630 N   0  0  0  0  0  2  0  0  0  0  0  0
  191.4970  178.0700  144.7320 C   0  0  0  0  0  2  0  0  0  0  0  0
  190.2140  178.7060  145.2780 C   0  0  0  0  0  2  0  0  0  0  0  0
  186.6570  177.6730  145.7060 O   0  0  0  0  0  0  0  0  0  0  0  0
  185.9060  178.5180  146.5520 C   0  0  0  0  0  0  0  0  0  0  0  0
  185.6810  179.7520  145.9630 F   0  0  0  0  0  0  0  0  0  0  0  0
  184.6950  177.9360  146.8850 F   0  0  0  0  0  0  0  0  0  0  0  0
  186.6210  178.7210  147.7150 F   0  0  0  0  0  0  0  0  0  0  0  0
  1  3  1  0  0  0  0
  2  1  1  1  0  0  0
  3  5  1  0  0  0  0
  4 15  2  0  0  0  0
  4  6  1  0  0  0  0
  5 27  1  1  0  0  0
  7 10  1  6  0  0  0
  7  2  1  0  0  0  0
  9  4  1  0  0  0  0
 11 13  1  0  0  0  0
 12  8  1  6  0  0  0
 12 22  1  0  0  0  0
 12  7  1  0  0  0  0
 12  2  1  0  0  0  0
 13  9  1  0  0  0  0
 13 19  2  0  0  0  0
 14 10  1  0  0  0  0
 15  5  1  0  0  0  0
 16 18  1  0  0  0  0
 17 11  1  0  0  0  0
 18 14  1  0  0  0  0
 18 17  2  0  0  0  0
 19 15  1  0  0  0  0
 20 16  1  0  0  0  0
 20 21  1  0  0  0  0
 23 22  1  0  0  0  0
 23 25  1  0  0  0  0
 24 25  2  0  0  0  0
 25 26  1  0  0  0  0
 27 35  1  6  0  0  0
 28 27  1  1  0  0  0
 28 31  1  0  0  0  0
 29 32  1  0  0  0  0
 31 30  1  0  0  0  0
 32 30  1  0  0  0  0
 33 34  1  0  0  0  0
 33 29  1  0  0  0  0
 34 28  1  0  0  0  0
 35 36  1  0  0  0  0
 36 38  1  0  0  0  0
 36 39  1  0  0  0  0
 37 36  1  0  0  0  0
M  END
>  <MODEL>
2

>  <REMARK>
 VINA RESULT:      -5.6      4.549      7.840
  Name = 
  8 active torsions:
  status: ('A' for Active; 'I' for Inactive)
    1  A    between atoms: O_1  and  C_23
    2  A    between atoms: O_1  and  C_30
    3  A    between atoms: C_3  and  O_14
    4  A    between atoms: C_7  and  C_31
    5  A    between atoms: C_10  and  C_31
    6  A    between atoms: C_13  and  C_30
    7  A    between atoms: O_14  and  C_31
    8  A    between atoms: C_25  and  N_34
                            x       y       z     vdW  Elec       q    Type
                         _______ _______ _______ _____ _____    ______ ____

>  <TORSDO>
F 8

$$$$
=
 OpenBabel11062417433D

 39 42  0  0  1  0  0  0  0  0999 V2000
  184.7850  178.2300  138.6630 C   0  0  0  0  0  2  0  0  0  0  0  0
  184.1950  177.7770  137.3360 C   0  0  2  0  0  3  0  0  0  0  0  0
  183.7520  179.0120  139.4560 C   0  0  0  0  0  2  0  0  0  0  0  0
  180.9110  177.7550  139.0620 C   0  0  0  0  0  0  0  0  0  0  0  0
  183.0520  178.1130  140.4730 C   0  0  2  0  0  3  0  0  0  0  0  0
  180.5500  179.1680  138.7660 C   0  0  0  0  0  1  0  0  0  0  0  0
  184.1780  176.2520  137.2760 C   0  0  1  0  0  3  0  0  0  0  0  0
  184.9780  177.3440  134.9700 C   0  0  0  0  0  1  0  0  0  0  0  0
  180.2440  176.7160  138.6320 O   0  0  0  0  0  0  0  0  0  0  0  0
  182.9780  175.8040  136.4620 C   0  0  0  0  0  2  0  0  0  0  0  0
  180.4590  174.2480  138.7770 C   0  0  0  0  0  2  0  0  0  0  0  0
  185.1950  177.0400  136.4500 C   0  0  1  0  0  0  0  0  0  0  0  0
  180.8700  175.6520  139.0850 C   0  0  0  0  0  0  0  0  0  0  0  0
  182.6260  174.3720  136.8220 C   0  0  0  0  0  2  0  0  0  0  0  0
  181.9790  177.2980  139.8090 C   0  0  0  0  0  0  0  0  0  0  0  0
  180.8910  173.9040  135.0660 N   0  0  0  0  0  2  0  0  0  0  0  0
  180.2580  174.0680  137.3410 N   0  0  0  0  0  0  0  0  0  0  0  0
  181.2050  174.0950  136.4470 C   0  0  0  0  0  0  0  0  0  0  0  0
  181.9550  175.9520  139.8320 N   0  0  0  0  0  0  0  0  0  0  0  0
  179.5400  173.6260  134.6030 C   0  0  0  0  0  2  0  0  0  0  0  0
  179.2700  172.2060  134.7270 N   0  0  0  0  0  1  0  0  0  0  0  0
  186.5150  177.0530  136.9350 O   0  0  0  0  0  0  0  0  0  0  0  0
  187.2620  177.8150  136.0280 C   0  0  0  0  0  2  0  0  0  0  0  0
  189.6550  177.4810  136.6460 O   0  0  0  0  0  0  0  0  0  0  0  0
  188.5180  178.2790  136.6760 C   0  0  0  0  0  0  0  0  0  0  0  0
  188.5530  179.4000  137.2480 O   0  0  0  0  0  1  0  0  0  0  0  0
  182.5210  178.8900  141.6930 C   0  0  2  0  0  3  0  0  0  0  0  0
  183.5870  178.9070  142.8080 C   0  0  2  0  0  3  0  0  0  0  0  0
  185.0490  179.2480  145.3320 C   0  0  0  0  0  2  0  0  0  0  0  0
  186.0290  178.4990  143.3420 C   0  0  0  0  0  2  0  0  0  0  0  0
  184.8500  178.1160  142.4520 C   0  0  0  0  0  2  0  0  0  0  0  0
  185.7740  178.1360  144.7310 N   0  0  0  0  0  2  0  0  0  0  0  0
  183.5440  178.9820  145.3590 C   0  0  0  0  0  2  0  0  0  0  0  0
  182.9910  178.3260  144.0890 C   0  0  0  0  0  2  0  0  0  0  0  0
  181.3340  178.2800  142.1480 O   0  0  0  0  0  0  0  0  0  0  0  0
  180.3400  179.2700  142.3090 C   0  0  0  0  0  0  0  0  0  0  0  0
  180.1520  179.5850  143.6450 F   0  0  0  0  0  0  0  0  0  0  0  0
  180.6640  180.4150  141.6040 F   0  0  0  0  0  0  0  0  0  0  0  0
  179.1490  178.7790  141.8110 F   0  0  0  0  0  0  0  0  0  0  0  0
  1  3  1  0  0  0  0
  2  1  1  1  0  0  0
  3  5  1  0  0  0  0
  4 15  2  0  0  0  0
  5 27  1  1  0  0  0
  6  4  1  0  0  0  0
  7 10  1  6  0  0  0
  7  2  1  0  0  0  0
  9  4  1  0  0  0  0
  9 13  1  0  0  0  0
 10 14  1  0  0  0  0
 11 13  1  0  0  0  0
 12  8  1  6  0  0  0
 12 22  1  0  0  0  0
 12  7  1  0  0  0  0
 12  2  1  0  0  0  0
 13 19  2  0  0  0  0
 15 19  1  0  0  0  0
 15  5  1  0  0  0  0
 16 18  1  0  0  0  0
 17 11  1  0  0  0  0
 18 14  1  0  0  0  0
 18 17  2  0  0  0  0
 20 21  1  0  0  0  0
 20 16  1  0  0  0  0
 23 25  1  0  0  0  0
 23 22  1  0  0  0  0
 24 25  2  0  0  0  0
 25 26  1  0  0  0  0
 27 35  1  1  0  0  0
 28 27  1  6  0  0  0
 28 34  1  0  0  0  0
 29 33  1  0  0  0  0
 30 32  1  0  0  0  0
 31 28  1  0  0  0  0
 31 30  1  0  0  0  0
 32 29  1  0  0  0  0
 34 33  1  0  0  0  0
 35 36  1  0  0  0  0
 36 37  1  0  0  0  0
 38 36  1  0  0  0  0
 39 36  1  0  0  0  0
M  END
>  <MODEL>
3

>  <REMARK>
 VINA RESULT:      -5.5      5.616      8.790
  Name = 
  8 active torsions:
  status: ('A' for Active; 'I' for Inactive)
    1  A    between atoms: O_1  and  C_23
    2  A    between atoms: O_1  and  C_30
    3  A    between atoms: C_3  and  O_14
    4  A    between atoms: C_7  and  C_31
    5  A    between atoms: C_10  and  C_31
    6  A    between atoms: C_13  and  C_30
    7  A    between atoms: O_14  and  C_31
    8  A    between atoms: C_25  and  N_34
                            x       y       z     vdW  Elec       q    Type
                         _______ _______ _______ _____ _____    ______ ____

>  <TORSDO>
F 8

$$$$
=
 OpenBabel11062417433D

 39 42  0  0  1  0  0  0  0  0999 V2000
  185.4830  178.2030  139.3910 C   0  0  0  0  0  2  0  0  0  0  0  0
  184.8950  178.0210  137.9990 C   0  0  2  0  0  3  0  0  0  0  0  0
  184.5260  178.9930  140.2660 C   0  0  0  0  0  2  0  0  0  0  0  0
  181.5670  178.1870  139.6310 C   0  0  0  0  0  0  0  0  0  0  0  0
  183.6770  178.0600  141.1260 C   0  0  2  0  0  3  0  0  0  0  0  0
  181.4000  179.6620  139.5340 C   0  0  0  0  0  1  0  0  0  0  0  0
  184.6880  176.5350  137.7200 C   0  0  1  0  0  3  0  0  0  0  0  0
  185.7120  177.8260  135.6140 C   0  0  0  0  0  1  0  0  0  0  0  0
  180.7920  177.3150  139.0420 O   0  0  0  0  0  0  0  0  0  0  0  0
  183.4750  176.3670  136.8230 C   0  0  0  0  0  2  0  0  0  0  0  0
  180.6880  174.8440  138.8330 C   0  0  0  0  0  2  0  0  0  0  0  0
  185.8300  177.2920  137.0390 C   0  0  1  0  0  0  0  0  0  0  0  0
  181.2600  176.1250  139.3500 C   0  0  0  0  0  0  0  0  0  0  0  0
  182.9300  174.9570  136.9650 C   0  0  0  0  0  2  0  0  0  0  0  0
  182.5380  177.4940  140.3280 C   0  0  0  0  0  0  0  0  0  0  0  0
  181.2240  174.9700  135.1220 N   0  0  0  0  0  2  0  0  0  0  0  0
  180.5240  174.8950  137.3820 N   0  0  0  0  0  0  0  0  0  0  0  0
  181.5020  174.9240  136.5220 C   0  0  0  0  0  0  0  0  0  0  0  0
  182.3430  176.1730  140.1550 N   0  0  0  0  0  0  0  0  0  0  0  0
  179.8680  174.9400  134.5940 C   0  0  0  0  0  2  0  0  0  0  0  0
  179.3640  173.5800  134.6380 N   0  0  0  0  0  1  0  0  0  0  0  0
  187.1190  177.0640  137.5500 O   0  0  0  0  0  0  0  0  0  0  0  0
  187.9960  177.8180  136.7600 C   0  0  0  0  0  2  0  0  0  0  0  0
  190.0290  177.6160  138.1900 O   0  0  0  0  0  1  0  0  0  0  0  0
  189.0530  178.4200  137.6170 C   0  0  0  0  0  0  0  0  0  0  0  0
  189.0650  179.6630  137.8180 O   0  0  0  0  0  0  0  0  0  0  0  0
  183.1990  178.7210  142.4340 C   0  0  2  0  0  3  0  0  0  0  0  0
  184.3330  178.6940  143.4800 C   0  0  2  0  0  3  0  0  0  0  0  0
  186.0050  179.0730  145.8650 C   0  0  0  0  0  2  0  0  0  0  0  0
  186.7240  177.9830  143.9210 C   0  0  0  0  0  2  0  0  0  0  0  0
  185.4420  177.6900  143.1470 C   0  0  0  0  0  2  0  0  0  0  0  0
  186.5190  177.8090  145.3540 N   0  0  0  0  0  2  0  0  0  0  0  0
  184.4820  179.0390  146.0040 C   0  0  0  0  0  2  0  0  0  0  0  0
  183.7530  178.3440  144.8490 C   0  0  0  0  0  2  0  0  0  0  0  0
  182.0650  178.0320  142.9120 O   0  0  0  0  0  0  0  0  0  0  0  0
  181.0180  178.9570  143.1170 C   0  0  0  0  0  0  0  0  0  0  0  0
  180.6240  178.9880  144.4450 F   0  0  0  0  0  0  0  0  0  0  0  0
  181.3930  180.2270  142.7150 F   0  0  0  0  0  0  0  0  0  0  0  0
  179.9340  178.5670  142.3550 F   0  0  0  0  0  0  0  0  0  0  0  0
  1  3  1  0  0  0  0
  2  1  1  1  0  0  0
  3  5  1  0  0  0  0
  4 15  2  0  0  0  0
  5 27  1  1  0  0  0
  6  4  1  0  0  0  0
  7 10  1  6  0  0  0
  7  2  1  0  0  0  0
  9 13  1  0  0  0  0
  9  4  1  0  0  0  0
 10 14  1  0  0  0  0
 11 13  1  0  0  0  0
 12  8  1  6  0  0  0
 12 22  1  0  0  0  0
 12  7  1  0  0  0  0
 12  2  1  0  0  0  0
 13 19  2  0  0  0  0
 15  5  1  0  0  0  0
 16 18  1  0  0  0  0
 17 11  1  0  0  0  0
 18 14  1  0  0  0  0
 18 17  2  0  0  0  0
 19 15  1  0  0  0  0
 20 21  1  0  0  0  0
 20 16  1  0  0  0  0
 23 22  1  0  0  0  0
 23 25  1  0  0  0  0
 25 26  2  0  0  0  0
 25 24  1  0  0  0  0
 27 35  1  1  0  0  0
 28 27  1  6  0  0  0
 28 34  1  0  0  0  0
 29 33  1  0  0  0  0
 30 32  1  0  0  0  0
 31 28  1  0  0  0  0
 31 30  1  0  0  0  0
 32 29  1  0  0  0  0
 34 33  1  0  0  0  0
 35 36  1  0  0  0  0
 36 37  1  0  0  0  0
 38 36  1  0  0  0  0
 39 36  1  0  0  0  0
M  END
>  <MODEL>
4

>  <REMARK>
 VINA RESULT:      -5.3      5.377      8.532
  Name = 
  8 active torsions:
  status: ('A' for Active; 'I' for Inactive)
    1  A    between atoms: O_1  and  C_23
    2  A    between atoms: O_1  and  C_30
    3  A    between atoms: C_3  and  O_14
    4  A    between atoms: C_7  and  C_31
    5  A    between atoms: C_10  and  C_31
    6  A    between atoms: C_13  and  C_30
    7  A    between atoms: O_14  and  C_31
    8  A    between atoms: C_25  and  N_34
                            x       y       z     vdW  Elec       q    Type
                         _______ _______ _______ _____ _____    ______ ____

>  <TORSDO>
F 8

$$$$
=
 OpenBabel11062417433D

 39 42  0  0  1  0  0  0  0  0999 V2000
  191.7070  177.0300  140.0910 C   0  0  0  0  0  2  0  0  0  0  0  0
  190.2450  176.6610  140.2950 C   0  0  2  0  0  3  0  0  0  0  0  0
  192.3570  176.0720  139.1070 C   0  0  0  0  0  2  0  0  0  0  0  0
  190.3360  175.3210  136.8360 C   0  0  0  0  0  0  0  0  0  0  0  0
  192.3730  176.6650  137.7000 C   0  0  2  0  0  3  0  0  0  0  0  0
  190.7580  173.9400  137.1960 C   0  0  0  0  0  1  0  0  0  0  0  0
  189.3560  177.8110  139.8290 C   0  0  1  0  0  3  0  0  0  0  0  0
  188.5120  176.7520  142.1350 C   0  0  0  0  0  1  0  0  0  0  0  0
  189.2000  175.6210  136.2640 O   0  0  0  0  0  0  0  0  0  0  0  0
  188.0610  177.2420  139.2790 C   0  0  0  0  0  2  0  0  0  0  0  0
  188.0310  177.6900  135.5480 C   0  0  0  0  0  2  0  0  0  0  0  0
  189.5380  177.5390  141.3230 C   0  0  1  0  0  0  0  0  0  0  0  0
  189.1830  176.9280  136.1190 C   0  0  0  0  0  0  0  0  0  0  0  0
  187.4170  178.2530  138.3470 C   0  0  0  0  0  2  0  0  0  0  0  0
  191.0360  176.4940  137.0380 C   0  0  0  0  0  0  0  0  0  0  0  0
  185.2080  177.1240  137.9530 N   0  0  0  0  0  2  0  0  0  0  0  0
  186.7790  177.2990  136.1910 N   0  0  0  0  0  0  0  0  0  0  0  0
  186.4650  177.5540  137.4300 C   0  0  0  0  0  0  0  0  0  0  0  0
  190.3050  177.5270  136.5760 N   0  0  0  0  0  0  0  0  0  0  0  0
  184.2150  176.4390  137.1380 C   0  0  0  0  0  2  0  0  0  0  0  0
  183.7350  175.2680  137.8460 N   0  0  0  0  0  1  0  0  0  0  0  0
  190.3900  178.4160  142.0170 O   0  0  0  0  0  0  0  0  0  0  0  0
  190.0990  178.2560  143.3770 C   0  0  0  0  0  2  0  0  0  0  0  0
  191.6800  176.5380  144.2530 O   0  0  0  0  0  0  0  0  0  0  0  0
  191.3340  177.8760  144.1140 C   0  0  0  0  0  0  0  0  0  0  0  0
  192.0710  178.7700  144.6080 O   0  0  0  0  0  1  0  0  0  0  0  0
  193.5250  176.1180  136.8340 C   0  0  2  0  0  3  0  0  0  0  0  0
  194.0380  174.7880  137.4230 C   0  0  2  0  0  3  0  0  0  0  0  0
  194.4590  171.9650  138.1160 C   0  0  0  0  0  2  0  0  0  0  0  0
  195.6200  173.7420  139.1020 C   0  0  0  0  0  2  0  0  0  0  0  0
  195.3630  174.9300  138.1790 C   0  0  0  0  0  2  0  0  0  0  0  0
  195.7900  172.5140  138.3360 N   0  0  0  0  0  2  0  0  0  0  0  0
  193.9270  172.3340  136.7300 C   0  0  0  0  0  2  0  0  0  0  0  0
  194.2260  173.7730  136.2960 C   0  0  0  0  0  2  0  0  0  0  0  0
  194.5600  177.0750  136.7870 O   0  0  0  0  0  0  0  0  0  0  0  0
  195.0560  177.1510  135.4670 C   0  0  0  0  0  0  0  0  0  0  0  0
  195.4290  178.4450  135.1410 F   0  0  0  0  0  0  0  0  0  0  0  0
  196.1340  176.3010  135.2930 F   0  0  0  0  0  0  0  0  0  0  0  0
  194.0550  176.7600  134.6000 F   0  0  0  0  0  0  0  0  0  0  0  0
  2  1  1  1  0  0  0
  2 12  1  0  0  0  0
  3  1  1  0  0  0  0
  4 15  2  0  0  0  0
  4  6  1  0  0  0  0
  5 27  1  6  0  0  0
  5  3  1  0  0  0  0
  7 10  1  6  0  0  0
  7  2  1  0  0  0  0
  7 12  1  0  0  0  0
  9  4  1  0  0  0  0
 11 13  1  0  0  0  0
 11 17  1  0  0  0  0
 12 22  1  0  0  0  0
 12  8  1  1  0  0  0
 13  9  1  0  0  0  0
 13 19  2  0  0  0  0
 14 10  1  0  0  0  0
 15  5  1  0  0  0  0
 17 18  2  0  0  0  0
 18 16  1  0  0  0  0
 18 14  1  0  0  0  0
 19 15  1  0  0  0  0
 20 21  1  0  0  0  0
 20 16  1  0  0  0  0
 22 23  1  0  0  0  0
 23 25  1  0  0  0  0
 25 24  2  0  0  0  0
 25 26  1  0  0  0  0
 27 35  1  1  0  0  0
 28 27  1  6  0  0  0
 28 31  1  0  0  0  0
 29 32  1  0  0  0  0
 31 30  1  0  0  0  0
 32 30  1  0  0  0  0
 33 29  1  0  0  0  0
 34 33  1  0  0  0  0
 34 28  1  0  0  0  0
 36 35  1  0  0  0  0
 37 36  1  0  0  0  0
 38 36  1  0  0  0  0
 39 36  1  0  0  0  0
M  END
>  <MODEL>
5

>  <REMARK>
 VINA RESULT:      -5.0      3.293      7.616
  Name = 
  8 active torsions:
  status: ('A' for Active; 'I' for Inactive)
    1  A    between atoms: O_1  and  C_23
    2  A    between atoms: O_1  and  C_30
    3  A    between atoms: C_3  and  O_14
    4  A    between atoms: C_7  and  C_31
    5  A    between atoms: C_10  and  C_31
    6  A    between atoms: C_13  and  C_30
    7  A    between atoms: O_14  and  C_31
    8  A    between atoms: C_25  and  N_34
                            x       y       z     vdW  Elec       q    Type
                         _______ _______ _______ _____ _____    ______ ____

>  <TORSDO>
F 8

$$$$
=
 OpenBabel11062417433D

 39 42  0  0  1  0  0  0  0  0999 V2000
  184.5760  178.6410  142.9930 C   0  0  0  0  0  2  0  0  0  0  0  0
  184.5290  177.8330  141.7040 C   0  0  2  0  0  3  0  0  0  0  0  0
  185.5360  178.0000  143.9800 C   0  0  0  0  0  2  0  0  0  0  0  0
  188.0200  176.8370  142.4690 C   0  0  0  0  0  0  0  0  0  0  0  0
  186.9070  178.6690  143.9200 C   0  0  2  0  0  3  0  0  0  0  0  0
  187.6840  175.6260  143.2670 C   0  0  0  0  0  1  0  0  0  0  0  0
  185.0240  178.6900  140.5430 C   0  0  1  0  0  3  0  0  0  0  0  0
  182.8590  177.2620  139.8930 C   0  0  0  0  0  1  0  0  0  0  0  0
  188.6830  176.8180  141.3420 O   0  0  0  0  0  0  0  0  0  0  0  0
  185.7190  177.7960  139.5320 C   0  0  0  0  0  2  0  0  0  0  0  0
  189.4130  178.4820  139.6520 C   0  0  0  0  0  2  0  0  0  0  0  0
  183.5330  178.3780  140.6850 C   0  0  1  0  0  0  0  0  0  0  0  0
  188.7700  178.0660  140.9350 C   0  0  0  0  0  0  0  0  0  0  0  0
  186.6620  178.6290  138.6820 C   0  0  0  0  0  2  0  0  0  0  0  0
  187.6990  178.1490  142.7550 C   0  0  0  0  0  0  0  0  0  0  0  0
  187.3140  176.9140  136.9650 N   0  0  0  0  0  2  0  0  0  0  0  0
  188.9100  177.6840  138.5360 N   0  0  0  0  0  0  0  0  0  0  0  0
  187.6960  177.7420  138.0650 C   0  0  0  0  0  0  0  0  0  0  0  0
  188.1820  178.9410  141.7790 N   0  0  0  0  0  0  0  0  0  0  0  0
  188.2500  176.0220  136.2970 C   0  0  0  0  0  2  0  0  0  0  0  0
  187.6910  175.6010  135.0260 N   0  0  0  0  0  1  0  0  0  0  0  0
  182.7230  179.4200  141.1690 O   0  0  0  0  0  0  0  0  0  0  0  0
  181.4330  178.8910  141.2980 C   0  0  0  0  0  2  0  0  0  0  0  0
  180.0610  180.5030  142.6150 O   0  0  0  0  0  0  0  0  0  0  0  0
  180.8280  179.3460  142.5780 C   0  0  0  0  0  0  0  0  0  0  0  0
  181.0070  178.6780  143.6300 O   0  0  0  0  0  1  0  0  0  0  0  0
  187.6840  178.5610  145.2460 C   0  0  2  0  0  3  0  0  0  0  0  0
  189.0610  177.9120  144.9970 C   0  0  2  0  0  3  0  0  0  0  0  0
  191.6800  177.1360  143.9180 C   0  0  0  0  0  2  0  0  0  0  0  0
  190.6650  176.1060  145.7590 C   0  0  0  0  0  2  0  0  0  0  0  0
  189.5560  177.0680  146.1760 C   0  0  0  0  0  2  0  0  0  0  0  0
  191.8540  176.8340  145.3320 N   0  0  0  0  0  2  0  0  0  0  0  0
  191.1680  178.5630  143.7120 C   0  0  0  0  0  2  0  0  0  0  0  0
  190.0920  179.0030  144.7110 C   0  0  0  0  0  2  0  0  0  0  0  0
  186.9300  177.7950  146.1610 O   0  0  0  0  0  0  0  0  0  0  0  0
  186.3480  178.6590  147.1140 C   0  0  0  0  0  0  0  0  0  0  0  0
  186.0890  179.9080  146.5720 F   0  0  0  0  0  0  0  0  0  0  0  0
  185.1780  178.1220  147.6190 F   0  0  0  0  0  0  0  0  0  0  0  0
  187.2360  178.8200  148.1590 F   0  0  0  0  0  0  0  0  0  0  0  0
  1  3  1  0  0  0  0
  2  1  1  1  0  0  0
  4 15  2  0  0  0  0
  4  6  1  0  0  0  0
  5  3  1  0  0  0  0
  5 27  1  1  0  0  0
  7 10  1  6  0  0  0
  7 12  1  0  0  0  0
  7  2  1  0  0  0  0
  9  4  1  0  0  0  0
 11 13  1  0  0  0  0
 12  8  1  6  0  0  0
 12 22  1  0  0  0  0
 12  2  1  0  0  0  0
 13  9  1  0  0  0  0
 13 19  2  0  0  0  0
 14 10  1  0  0  0  0
 15  5  1  0  0  0  0
 16 18  1  0  0  0  0
 17 11  1  0  0  0  0
 18 17  2  0  0  0  0
 18 14  1  0  0  0  0
 19 15  1  0  0  0  0
 20 16  1  0  0  0  0
 21 20  1  0  0  0  0
 22 23  1  0  0  0  0
 23 25  1  0  0  0  0
 25 24  2  0  0  0  0
 25 26  1  0  0  0  0
 27 35  1  1  0  0  0
 28 27  1  1  0  0  0
 28 31  1  0  0  0  0
 29 32  1  0  0  0  0
 30 31  1  0  0  0  0
 32 30  1  0  0  0  0
 33 29  1  0  0  0  0
 33 34  1  0  0  0  0
 34 28  1  0  0  0  0
 35 36  1  0  0  0  0
 36 38  1  0  0  0  0
 36 39  1  0  0  0  0
 37 36  1  0  0  0  0
M  END
>  <MODEL>
6

>  <REMARK>
 VINA RESULT:      -5.0      4.843      8.325
  Name = 
  8 active torsions:
  status: ('A' for Active; 'I' for Inactive)
    1  A    between atoms: O_1  and  C_23
    2  A    between atoms: O_1  and  C_30
    3  A    between atoms: C_3  and  O_14
    4  A    between atoms: C_7  and  C_31
    5  A    between atoms: C_10  and  C_31
    6  A    between atoms: C_13  and  C_30
    7  A    between atoms: O_14  and  C_31
    8  A    between atoms: C_25  and  N_34
                            x       y       z     vdW  Elec       q    Type
                         _______ _______ _______ _____ _____    ______ ____

>  <TORSDO>
F 8

$$$$
=
 OpenBabel11062417433D

 39 42  0  0  1  0  0  0  0  0999 V2000
  186.4190  178.1140  140.9310 C   0  0  0  0  0  2  0  0  0  0  0  0
  185.3220  178.9960  140.3520 C   0  0  2  0  0  3  0  0  0  0  0  0
  186.9270  178.6980  142.2380 C   0  0  0  0  0  2  0  0  0  0  0  0
  184.5550  179.9490  143.8550 C   0  0  0  0  0  0  0  0  0  0  0  0
  186.2450  178.0340  143.4320 C   0  0  2  0  0  3  0  0  0  0  0  0
  185.4830  181.1100  143.9260 C   0  0  0  0  0  1  0  0  0  0  0  0
  184.0170  178.2080  140.2770 C   0  0  1  0  0  3  0  0  0  0  0  0
  184.4430  179.6700  138.0790 C   0  0  0  0  0  1  0  0  0  0  0  0
  183.2550  180.0330  143.9680 O   0  0  0  0  0  0  0  0  0  0  0  0
  182.8540  179.1600  140.4900 C   0  0  0  0  0  2  0  0  0  0  0  0
  181.3300  178.4720  143.8560 C   0  0  0  0  0  2  0  0  0  0  0  0
  184.8050  178.5100  139.0010 C   0  0  1  0  0  0  0  0  0  0  0  0
  182.7850  178.8110  143.8400 C   0  0  0  0  0  0  0  0  0  0  0  0
  181.6370  178.3790  140.9530 C   0  0  0  0  0  2  0  0  0  0  0  0
  184.8820  178.6210  143.6570 C   0  0  0  0  0  0  0  0  0  0  0  0
  179.9000  180.1910  140.8430 N   0  0  0  0  0  2  0  0  0  0  0  0
  180.5850  179.3330  142.9400 N   0  0  0  0  0  0  0  0  0  0  0  0
  180.6820  179.3010  141.6420 C   0  0  0  0  0  0  0  0  0  0  0  0
  183.7530  177.8880  143.6520 N   0  0  0  0  0  0  0  0  0  0  0  0
  178.9420  181.1220  141.4210 C   0  0  0  0  0  2  0  0  0  0  0  0
  178.9320  182.3470  140.6440 N   0  0  0  0  0  1  0  0  0  0  0  0
  185.5360  177.4410  138.4540 O   0  0  0  0  0  0  0  0  0  0  0  0
  185.9520  177.8560  137.1830 C   0  0  0  0  0  2  0  0  0  0  0  0
  188.0680  178.8170  138.0870 O   0  0  0  0  0  1  0  0  0  0  0  0
  187.4330  178.0010  137.1600 C   0  0  0  0  0  0  0  0  0  0  0  0
  188.1110  177.3770  136.3020 O   0  0  0  0  0  0  0  0  0  0  0  0
  187.1100  178.0650  144.7070 C   0  0  2  0  0  3  0  0  0  0  0  0
  188.5430  177.5950  144.3810 C   0  0  2  0  0  3  0  0  0  0  0  0
  191.4580  177.2700  144.2270 C   0  0  0  0  0  2  0  0  0  0  0  0
  189.9330  176.0420  142.9420 C   0  0  0  0  0  2  0  0  0  0  0  0
  188.5870  176.2620  143.6270 C   0  0  0  0  0  2  0  0  0  0  0  0
  191.0040  175.9190  143.9240 N   0  0  0  0  0  2  0  0  0  0  0  0
  190.8210  177.7960  145.5140 C   0  0  0  0  0  2  0  0  0  0  0  0
  189.3370  177.4490  145.6780 C   0  0  0  0  0  2  0  0  0  0  0  0
  186.5230  177.2320  145.6830 O   0  0  0  0  0  0  0  0  0  0  0  0
  186.1530  178.0180  146.7960 C   0  0  0  0  0  0  0  0  0  0  0  0
  184.7990  177.9090  147.0640 F   0  0  0  0  0  0  0  0  0  0  0  0
  186.8780  177.6590  147.9180 F   0  0  0  0  0  0  0  0  0  0  0  0
  186.4300  179.3410  146.5090 F   0  0  0  0  0  0  0  0  0  0  0  0
  1  3  1  0  0  0  0
  2  1  1  1  0  0  0
  3  5  1  0  0  0  0
  4  6  1  0  0  0  0
  4  9  1  0  0  0  0
  5 15  1  0  0  0  0
  5 27  1  1  0  0  0
  7  2  1  0  0  0  0
  7 10  1  6  0  0  0
 10 14  1  0  0  0  0
 12  8  1  6  0  0  0
 12  7  1  0  0  0  0
 12  2  1  0  0  0  0
 13 11  1  0  0  0  0
 13  9  1  0  0  0  0
 14 18  1  0  0  0  0
 15  4  2  0  0  0  0
 16 20  1  0  0  0  0
 16 18  1  0  0  0  0
 17 11  1  0  0  0  0
 18 17  2  0  0  0  0
 19 15  1  0  0  0  0
 19 13  2  0  0  0  0
 21 20  1  0  0  0  0
 22 12  1  0  0  0  0
 23 22  1  0  0  0  0
 25 23  1  0  0  0  0
 25 24  1  0  0  0  0
 26 25  2  0  0  0  0
 27 35  1  1  0  0  0
 28 27  1  1  0  0  0
 28 34  1  0  0  0  0
 29 33  1  0  0  0  0
 30 31  1  0  0  0  0
 30 32  1  0  0  0  0
 31 28  1  0  0  0  0
 32 29  1  0  0  0  0
 33 34  1  0  0  0  0
 35 36  1  0  0  0  0
 36 37  1  0  0  0  0
 36 38  1  0  0  0  0
 39 36  1  0  0  0  0
M  END
>  <MODEL>
7

>  <REMARK>
 VINA RESULT:      -5.0      5.239     10.067
  Name = 
  8 active torsions:
  status: ('A' for Active; 'I' for Inactive)
    1  A    between atoms: O_1  and  C_23
    2  A    between atoms: O_1  and  C_30
    3  A    between atoms: C_3  and  O_14
    4  A    between atoms: C_7  and  C_31
    5  A    between atoms: C_10  and  C_31
    6  A    between atoms: C_13  and  C_30
    7  A    between atoms: O_14  and  C_31
    8  A    between atoms: C_25  and  N_34
                            x       y       z     vdW  Elec       q    Type
                         _______ _______ _______ _____ _____    ______ ____

>  <TORSDO>
F 8

$$$$
=
 OpenBabel11062417433D

 39 42  0  0  1  0  0  0  0  0999 V2000
  187.2910  177.8200  143.4790 C   0  0  0  0  0  2  0  0  0  0  0  0
  187.9140  178.1790  144.8210 C   0  0  2  0  0  3  0  0  0  0  0  0
  188.2070  178.2470  142.3450 C   0  0  0  0  0  2  0  0  0  0  0  0
  191.2000  177.7870  143.1430 C   0  0  0  0  0  0  0  0  0  0  0  0
  189.0630  177.0770  141.8660 C   0  0  2  0  0  3  0  0  0  0  0  0
  191.3280  179.1960  142.6810 C   0  0  0  0  0  1  0  0  0  0  0  0
  188.1690  176.9060  145.6240 C   0  0  1  0  0  3  0  0  0  0  0  0
  187.1550  178.8670  147.1330 C   0  0  0  0  0  1  0  0  0  0  0  0
  192.0120  177.2100  143.9900 O   0  0  0  0  0  0  0  0  0  0  0  0
  189.4050  177.1040  146.4820 C   0  0  0  0  0  2  0  0  0  0  0  0
  192.1890  174.9950  145.0950 C   0  0  0  0  0  2  0  0  0  0  0  0
  187.0220  177.8410  146.0110 C   0  0  1  0  0  0  0  0  0  0  0  0
  191.5710  175.9820  144.1590 C   0  0  0  0  0  0  0  0  0  0  0  0
  189.9860  175.7520  146.8560 C   0  0  0  0  0  2  0  0  0  0  0  0
  190.2340  176.8680  142.7820 C   0  0  0  0  0  0  0  0  0  0  0  0
  191.7310  176.4790  148.5100 N   0  0  0  0  0  2  0  0  0  0  0  0
  192.3830  175.5840  146.4180 N   0  0  0  0  0  0  0  0  0  0  0  0
  191.4240  175.9120  147.2360 C   0  0  0  0  0  0  0  0  0  0  0  0
  190.4700  175.7080  143.4260 N   0  0  0  0  0  0  0  0  0  0  0  0
  193.0980  176.6710  148.9710 C   0  0  0  0  0  2  0  0  0  0  0  0
  193.1680  177.8670  149.7880 N   0  0  0  0  0  1  0  0  0  0  0  0
  185.7280  177.4170  145.6610 O   0  0  0  0  0  0  0  0  0  0  0  0
  184.8490  178.4010  146.1280 C   0  0  0  0  0  2  0  0  0  0  0  0
  182.8080  178.6000  144.7080 O   0  0  0  0  0  1  0  0  0  0  0  0
  184.1100  178.9990  144.9830 C   0  0  0  0  0  0  0  0  0  0  0  0
  184.6630  179.8740  144.2670 O   0  0  0  0  0  0  0  0  0  0  0  0
  189.4940  177.2140  140.3930 C   0  0  2  0  0  3  0  0  0  0  0  0
  188.2630  177.0810  139.4730 C   0  0  2  0  0  3  0  0  0  0  0  0
  185.6130  177.3060  138.2250 C   0  0  0  0  0  2  0  0  0  0  0  0
  187.2940  175.8580  137.4770 C   0  0  0  0  0  2  0  0  0  0  0  0
  188.5660  176.3610  138.1540 C   0  0  0  0  0  2  0  0  0  0  0  0
  186.4420  176.9710  137.0750 N   0  0  0  0  0  2  0  0  0  0  0  0
  186.1890  178.4920  138.9990 C   0  0  0  0  0  2  0  0  0  0  0  0
  187.7140  178.4710  139.1550 C   0  0  0  0  0  2  0  0  0  0  0  0
  190.4470  176.2180  140.0960 O   0  0  0  0  0  0  0  0  0  0  0  0
  191.5560  176.8180  139.4600 C   0  0  0  0  0  0  0  0  0  0  0  0
  191.2120  178.0290  138.8820 F   0  0  0  0  0  0  0  0  0  0  0  0
  192.5950  177.0100  140.3530 F   0  0  0  0  0  0  0  0  0  0  0  0
  191.9960  175.9740  138.4600 F   0  0  0  0  0  0  0  0  0  0  0  0
  2  1  1  6  0  0  0
  2  7  1  0  0  0  0
  2 12  1  0  0  0  0
  3  1  1  0  0  0  0
  4  9  1  0  0  0  0
  5 27  1  6  0  0  0
  5  3  1  0  0  0  0
  5 15  1  0  0  0  0
  6  4  1  0  0  0  0
  7 12  1  0  0  0  0
  7 10  1  1  0  0  0
  9 13  1  0  0  0  0
 10 14  1  0  0  0  0
 11 17  1  0  0  0  0
 12  8  1  1  0  0  0
 13 11  1  0  0  0  0
 14 18  1  0  0  0  0
 15  4  2  0  0  0  0
 15 19  1  0  0  0  0
 16 20  1  0  0  0  0
 17 18  2  0  0  0  0
 18 16  1  0  0  0  0
 19 13  2  0  0  0  0
 20 21  1  0  0  0  0
 22 12  1  0  0  0  0
 22 23  1  0  0  0  0
 24 25  1  0  0  0  0
 25 23  1  0  0  0  0
 26 25  2  0  0  0  0
 27 35  1  6  0  0  0
 28 27  1  1  0  0  0
 29 33  1  0  0  0  0
 30 31  1  0  0  0  0
 31 28  1  0  0  0  0
 32 30  1  0  0  0  0
 32 29  1  0  0  0  0
 33 34  1  0  0  0  0
 34 28  1  0  0  0  0
 36 35  1  0  0  0  0
 36 38  1  0  0  0  0
 37 36  1  0  0  0  0
 39 36  1  0  0  0  0
M  END
>  <MODEL>
8

>  <REMARK>
 VINA RESULT:      -4.9      4.862      7.517
  Name = 
  8 active torsions:
  status: ('A' for Active; 'I' for Inactive)
    1  A    between atoms: O_1  and  C_23
    2  A    between atoms: O_1  and  C_30
    3  A    between atoms: C_3  and  O_14
    4  A    between atoms: C_7  and  C_31
    5  A    between atoms: C_10  and  C_31
    6  A    between atoms: C_13  and  C_30
    7  A    between atoms: O_14  and  C_31
    8  A    between atoms: C_25  and  N_34
                            x       y       z     vdW  Elec       q    Type
                         _______ _______ _______ _____ _____    ______ ____

>  <TORSDO>
F 8

$$$$
=
 OpenBabel11062417433D

 39 42  0  0  1  0  0  0  0  0999 V2000
  184.5970  177.8810  136.6220 C   0  0  0  0  0  2  0  0  0  0  0  0
  185.5420  176.9790  137.4030 C   0  0  2  0  0  3  0  0  0  0  0  0
  183.2180  177.8730  137.2600 C   0  0  0  0  0  2  0  0  0  0  0  0
  183.4730  177.7700  140.3800 C   0  0  0  0  0  0  0  0  0  0  0  0
  183.0400  179.0750  138.1860 C   0  0  2  0  0  3  0  0  0  0  0  0
  182.5030  176.6520  140.2180 C   0  0  0  0  0  1  0  0  0  0  0  0
  186.6880  177.8100  137.9750 C   0  0  1  0  0  3  0  0  0  0  0  0
  187.5350  175.4890  136.9520 C   0  0  0  0  0  1  0  0  0  0  0  0
  184.2800  177.9070  141.3990 O   0  0  0  0  0  0  0  0  0  0  0  0
  187.1250  177.2020  139.2960 C   0  0  0  0  0  2  0  0  0  0  0  0
  186.0650  179.4870  142.0860 C   0  0  0  0  0  2  0  0  0  0  0  0
  186.9330  176.8810  136.7840 C   0  0  1  0  0  0  0  0  0  0  0  0
  184.9840  178.9950  141.1790 C   0  0  0  0  0  0  0  0  0  0  0  0
  187.8430  178.2520  140.1240 C   0  0  0  0  0  2  0  0  0  0  0  0
  183.6950  178.8220  139.5130 C   0  0  0  0  0  0  0  0  0  0  0  0
  188.6940  176.8100  141.9970 N   0  0  0  0  0  2  0  0  0  0  0  0
  187.0000  178.4110  142.4110 N   0  0  0  0  0  0  0  0  0  0  0  0
  187.8200  177.8550  141.5660 C   0  0  0  0  0  0  0  0  0  0  0  0
  184.6590  179.6130  140.0230 N   0  0  0  0  0  0  0  0  0  0  0  0
  188.7470  176.3570  143.3790 C   0  0  0  0  0  2  0  0  0  0  0  0
  189.8520  177.0070  144.0570 N   0  0  0  0  0  1  0  0  0  0  0  0
  187.0510  177.4990  135.5270 O   0  0  0  0  0  0  0  0  0  0  0  0
  188.0280  176.7840  134.8240 C   0  0  0  0  0  2  0  0  0  0  0  0
  189.5060  178.3990  136.0190 O   0  0  0  0  0  1  0  0  0  0  0  0
  189.3750  177.3360  135.1340 C   0  0  0  0  0  0  0  0  0  0  0  0
  190.3970  176.8350  134.5960 O   0  0  0  0  0  0  0  0  0  0  0  0
  181.5670  179.5000  138.3360 C   0  0  2  0  0  3  0  0  0  0  0  0
  181.1820  180.4700  137.2000 C   0  0  2  0  0  3  0  0  0  0  0  0
  180.5000  181.6860  134.6140 C   0  0  0  0  0  2  0  0  0  0  0  0
  180.7940  182.8990  136.5950 C   0  0  0  0  0  2  0  0  0  0  0  0
  180.7420  181.8490  137.7020 C   0  0  0  0  0  2  0  0  0  0  0  0
  179.8350  182.5930  135.5400 N   0  0  0  0  0  2  0  0  0  0  0  0
  180.1190  180.2310  134.8920 C   0  0  0  0  0  2  0  0  0  0  0  0
  180.0460  179.8640  136.3780 C   0  0  0  0  0  2  0  0  0  0  0  0
  181.3890  180.1120  139.5940 O   0  0  0  0  0  0  0  0  0  0  0  0
  180.2530  179.5550  140.2210 C   0  0  0  0  0  0  0  0  0  0  0  0
  179.2430  180.4920  140.3610 F   0  0  0  0  0  0  0  0  0  0  0  0
  179.7800  178.4670  139.5100 F   0  0  0  0  0  0  0  0  0  0  0  0
  180.6160  179.1230  141.4810 F   0  0  0  0  0  0  0  0  0  0  0  0
  1  3  1  0  0  0  0
  2  1  1  6  0  0  0
  2  7  1  0  0  0  0
  3  5  1  0  0  0  0
  4  9  1  0  0  0  0
  5 27  1  1  0  0  0
  5 15  1  0  0  0  0
  6  4  1  0  0  0  0
  7 10  1  1  0  0  0
 10 14  1  0  0  0  0
 11 17  1  0  0  0  0
 12  8  1  1  0  0  0
 12  2  1  0  0  0  0
 12  7  1  0  0  0  0
 13  9  1  0  0  0  0
 13 11  1  0  0  0  0
 14 18  1  0  0  0  0
 15 19  1  0  0  0  0
 15  4  2  0  0  0  0
 16 20  1  0  0  0  0
 18 16  1  0  0  0  0
 18 17  2  0  0  0  0
 19 13  2  0  0  0  0
 20 21  1  0  0  0  0
 22 12  1  0  0  0  0
 23 25  1  0  0  0  0
 23 22  1  0  0  0  0
 25 24  1  0  0  0  0
 26 25  2  0  0  0  0
 27 35  1  1  0  0  0
 28 31  1  0  0  0  0
 28 27  1  1  0  0  0
 29 33  1  0  0  0  0
 29 32  1  0  0  0  0
 30 31  1  0  0  0  0
 32 30  1  0  0  0  0
 33 34  1  0  0  0  0
 34 28  1  0  0  0  0
 35 36  1  0  0  0  0
 36 37  1  0  0  0  0
 36 39  1  0  0  0  0
 38 36  1  0  0  0  0
M  END
>  <MODEL>
9

>  <REMARK>
 VINA RESULT:      -4.9      4.322      7.360
  Name = 
  8 active torsions:
  status: ('A' for Active; 'I' for Inactive)
    1  A    between atoms: O_1  and  C_23
    2  A    between atoms: O_1  and  C_30
    3  A    between atoms: C_3  and  O_14
    4  A    between atoms: C_7  and  C_31
    5  A    between atoms: C_10  and  C_31
    6  A    between atoms: C_13  and  C_30
    7  A    between atoms: O_14  and  C_31
    8  A    between atoms: C_25  and  N_34
                            x       y       z     vdW  Elec       q    Type
                         _______ _______ _______ _____ _____    ______ ____

>  <TORSDO>
F 8

$$$$
