=
 OpenBabel11062415473D

 27 31  0  0  1  0  0  0  0  0999 V2000
  189.6100  177.1750  143.2550 N   0  0  0  0  0  0  0  0  0  0  0  0
  187.0570  176.8710  143.2680 C   0  0  0  0  0  2  0  0  0  0  0  0
  189.6110  177.4390  146.0110 O   0  0  0  0  0  0  0  0  0  0  0  0
  187.1170  177.5640  146.0280 C   0  0  0  0  0  0  0  0  0  0  0  0
  188.3920  177.3420  145.3260 C   0  0  0  0  0  0  0  0  0  0  0  0
  189.8900  176.6930  141.9050 C   0  0  2  0  0  3  0  0  0  0  0  0
  184.9750  178.8380  145.7810 C   0  0  0  0  0  3  0  0  0  0  0  0
  185.0040  178.3500  143.0040 C   0  0  0  0  0  0  0  0  0  0  0  0
  190.7550  177.8370  143.8380 C   0  0  2  0  0  3  0  0  0  0  0  0
  191.3360  177.1460  141.6060 C   0  0  0  0  0  2  0  0  0  0  0  0
  184.0360  179.4440  144.9490 C   0  0  0  0  0  3  0  0  0  0  0  0
  188.3650  177.0950  143.9860 C   0  0  0  0  0  0  0  0  0  0  0  0
  191.9290  177.4970  145.9220 O   0  0  0  0  0  0  0  0  0  0  0  0
  187.0300  177.3940  147.2670 O   0  0  0  0  0  0  0  0  0  0  0  0
  185.9900  178.0450  145.2140 C   0  0  0  0  0  0  0  0  0  0  0  0
  191.9470  177.3950  142.9860 C   0  0  0  0  0  2  0  0  0  0  0  0
  190.8310  177.5490  145.3100 C   0  0  0  0  0  0  0  0  0  0  0  0
  184.0600  179.2170  143.5710 C   0  0  0  0  0  3  0  0  0  0  0  0
  185.0880  178.2610  141.5210 C   0  0  0  0  0  1  0  0  0  0  0  0
  185.9880  177.7660  143.8220 C   0  0  0  0  0  0  0  0  0  0  0  0
  188.9840  178.6240  140.6840 C   0  0  0  0  0  2  0  0  0  0  0  0
  188.6710  177.4370  138.6690 N   0  0  0  0  0  0  0  0  0  0  0  0
  188.6930  178.7840  139.2240 C   0  0  0  0  0  2  0  0  0  0  0  0
  188.9040  177.1870  140.9200 N   0  0  1  0  0  0  0  0  0  0  0  0
  189.1190  176.5580  139.6750 N   0  0  0  0  0  2  0  0  0  0  0  0
  190.9490  176.7140  137.9170 C   0  0  0  0  0  1  0  0  0  0  0  0
  189.6090  177.3650  137.5430 C   0  0  0  0  0  2  0  0  0  0  0  0
  1  9  1  0  0  0  0
  1 12  1  0  0  0  0
  2 20  1  0  0  0  0
  2 12  1  0  0  0  0
  4 14  2  0  0  0  0
  5  3  1  0  0  0  0
  5  4  1  0  0  0  0
  6 10  1  6  0  0  0
  6  1  1  0  0  0  0
  8 18  2  0  0  0  0
  8 20  1  0  0  0  0
  9 16  1  6  0  0  0
  9 17  1  0  0  0  0
 10 16  1  0  0  0  0
 11  7  2  0  0  0  0
 12  5  2  0  0  0  0
 15  7  1  0  0  0  0
 15  4  1  0  0  0  0
 17 13  2  0  0  0  0
 17  3  1  0  0  0  0
 18 11  1  0  0  0  0
 19  8  1  0  0  0  0
 20 15  2  0  0  0  0
 22 23  1  0  0  0  0
 22 25  1  0  0  0  0
 23 21  1  0  0  0  0
 24 21  1  6  0  0  0
 24  6  1  0  0  0  0
 25 24  1  0  0  0  0
 27 26  1  0  0  0  0
 27 22  1  0  0  0  0
M  END
>  <MODEL>
1

>  <REMARK>
 VINA RESULT:      -9.2      0.000      0.000
  Name = 
  2 active torsions:
  status: ('A' for Active; 'I' for Inactive)
    1  A    between atoms: N_7  and  C_17
    2  A    between atoms: C_9  and  N_14
                            x       y       z     vdW  Elec       q    Type
                         _______ _______ _______ _____ _____    ______ ____

>  <TORSDO>
F 2

$$$$
=
 OpenBabel11062415473D

 27 31  0  0  1  0  0  0  0  0999 V2000
  187.1040  177.8700  142.5610 N   0  0  0  0  0  0  0  0  0  0  0  0
  187.0380  176.9810  144.9720 C   0  0  0  0  0  2  0  0  0  0  0  0
  189.8130  177.3200  142.4110 O   0  0  0  0  0  0  0  0  0  0  0  0
  189.8800  176.8410  144.8610 C   0  0  0  0  0  0  0  0  0  0  0  0
  189.1360  177.1400  143.6260 C   0  0  0  0  0  0  0  0  0  0  0  0
  185.6690  177.8800  142.2830 C   0  0  2  0  0  3  0  0  0  0  0  0
  190.0350  177.5870  147.2460 C   0  0  0  0  0  3  0  0  0  0  0  0
  187.2390  177.9430  147.3190 C   0  0  0  0  0  0  0  0  0  0  0  0
  187.8510  178.5870  141.5530 C   0  0  2  0  0  3  0  0  0  0  0  0
  185.5120  178.7280  141.0030 C   0  0  0  0  0  2  0  0  0  0  0  0
  189.4270  178.1670  148.3580 C   0  0  0  0  0  3  0  0  0  0  0  0
  187.7840  177.2910  143.6980 C   0  0  0  0  0  0  0  0  0  0  0  0
  189.7320  177.9490  140.1790 O   0  0  0  0  0  0  0  0  0  0  0  0
  191.0120  176.3050  144.8130 O   0  0  0  0  0  0  0  0  0  0  0  0
  189.2520  177.2560  146.1260 C   0  0  0  0  0  0  0  0  0  0  0  0
  186.9000  178.7060  140.3600 C   0  0  0  0  0  2  0  0  0  0  0  0
  189.1700  177.9140  141.3040 C   0  0  0  0  0  0  0  0  0  0  0  0
  188.0440  178.3600  148.3880 C   0  0  0  0  0  3  0  0  0  0  0  0
  185.7960  178.3080  147.3290 C   0  0  0  0  0  1  0  0  0  0  0  0
  187.8400  177.3980  146.1700 C   0  0  0  0  0  0  0  0  0  0  0  0
  184.9260  179.8400  143.5650 C   0  0  0  0  0  2  0  0  0  0  0  0
  182.7490  179.0060  143.9310 N   0  0  0  0  0  0  0  0  0  0  0  0
  183.5530  180.2160  144.0300 C   0  0  0  0  0  2  0  0  0  0  0  0
  184.8820  178.3890  143.4270 N   0  0  1  0  0  0  0  0  0  0  0  0
  183.5250  178.0360  143.2630 N   0  0  0  0  0  2  0  0  0  0  0  0
  181.6630  178.7250  141.6900 C   0  0  0  0  0  1  0  0  0  0  0  0
  181.5590  179.2830  143.1170 C   0  0  0  0  0  2  0  0  0  0  0  0
  1 12  1  0  0  0  0
  2 20  1  0  0  0  0
  3  5  1  0  0  0  0
  4 15  1  0  0  0  0
  5 12  2  0  0  0  0
  5  4  1  0  0  0  0
  6 10  1  6  0  0  0
  6  1  1  0  0  0  0
  6 24  1  0  0  0  0
  7 11  1  0  0  0  0
  8 19  1  0  0  0  0
  8 18  1  0  0  0  0
  9 16  1  6  0  0  0
  9  1  1  0  0  0  0
 11 18  2  0  0  0  0
 12  2  1  0  0  0  0
 13 17  2  0  0  0  0
 14  4  2  0  0  0  0
 15 20  1  0  0  0  0
 15  7  2  0  0  0  0
 16 10  1  0  0  0  0
 17  9  1  0  0  0  0
 17  3  1  0  0  0  0
 20  8  2  0  0  0  0
 21 23  1  0  0  0  0
 22 23  1  0  0  0  0
 24 21  1  6  0  0  0
 25 24  1  0  0  0  0
 25 22  1  0  0  0  0
 26 27  1  0  0  0  0
 27 22  1  0  0  0  0
M  END
>  <MODEL>
2

>  <REMARK>
 VINA RESULT:      -8.6      2.906      5.542
  Name = 
  2 active torsions:
  status: ('A' for Active; 'I' for Inactive)
    1  A    between atoms: N_7  and  C_17
    2  A    between atoms: C_9  and  N_14
                            x       y       z     vdW  Elec       q    Type
                         _______ _______ _______ _____ _____    ______ ____

>  <TORSDO>
F 2

$$$$
=
 OpenBabel11062415473D

 27 31  0  0  1  0  0  0  0  0999 V2000
  186.7800  178.3120  142.1520 N   0  0  0  0  0  0  0  0  0  0  0  0
  187.8920  178.4750  139.8400 C   0  0  0  0  0  2  0  0  0  0  0  0
  189.2170  177.6760  143.3010 O   0  0  0  0  0  0  0  0  0  0  0  0
  190.2470  177.4170  141.0410 C   0  0  0  0  0  0  0  0  0  0  0  0
  189.1200  177.8000  141.9080 C   0  0  0  0  0  0  0  0  0  0  0  0
  185.5200  178.9870  141.8470 C   0  0  2  0  0  3  0  0  0  0  0  0
  190.7260  176.0770  138.9810 C   0  0  0  0  0  3  0  0  0  0  0  0
  188.2900  176.9390  137.8520 C   0  0  0  0  0  0  0  0  0  0  0  0
  186.7330  177.6380  143.4300 C   0  0  2  0  0  3  0  0  0  0  0  0
  184.5870  178.6560  143.0320 C   0  0  0  0  0  2  0  0  0  0  0  0
  190.2790  175.5400  137.7750 C   0  0  0  0  0  3  0  0  0  0  0  0
  187.9640  178.2250  141.3270 C   0  0  0  0  0  0  0  0  0  0  0  0
  188.1680  177.7530  145.3690 O   0  0  0  0  0  0  0  0  0  0  0  0
  191.4210  177.4130  141.4810 O   0  0  0  0  0  0  0  0  0  0  0  0
  189.9120  176.9920  139.6730 C   0  0  0  0  0  0  0  0  0  0  0  0
  185.5380  178.2550  144.1620 C   0  0  0  0  0  2  0  0  0  0  0  0
  188.0660  177.7260  144.1160 C   0  0  0  0  0  0  0  0  0  0  0  0
  189.0640  175.9530  137.2230 C   0  0  0  0  0  3  0  0  0  0  0  0
  186.9350  177.2330  137.3100 C   0  0  0  0  0  1  0  0  0  0  0  0
  188.7020  177.4580  139.0930 C   0  0  0  0  0  0  0  0  0  0  0  0
  183.7400  177.8050  140.6330 C   0  0  0  0  0  2  0  0  0  0  0  0
  183.6240  179.3890  138.8880 N   0  0  0  0  0  0  0  0  0  0  0  0
  182.9200  178.2500  139.4630 C   0  0  0  0  0  2  0  0  0  0  0  0
  184.9720  178.5800  140.5350 N   0  0  1  0  0  0  0  0  0  0  0  0
  184.6710  179.7270  139.7700 N   0  0  0  0  0  2  0  0  0  0  0  0
  181.4180  180.2140  138.0300 C   0  0  0  0  0  1  0  0  0  0  0  0
  182.7060  180.5310  138.8050 C   0  0  0  0  0  2  0  0  0  0  0  0
  1  9  1  0  0  0  0
  2 12  1  0  0  0  0
  3 17  1  0  0  0  0
  4 14  2  0  0  0  0
  4  5  1  0  0  0  0
  5  3  1  0  0  0  0
  6  1  1  0  0  0  0
  6 10  1  1  0  0  0
  7 15  1  0  0  0  0
  8 20  1  0  0  0  0
  9 17  1  0  0  0  0
  9 16  1  1  0  0  0
 10 16  1  0  0  0  0
 11  7  2  0  0  0  0
 12  5  2  0  0  0  0
 12  1  1  0  0  0  0
 15  4  1  0  0  0  0
 17 13  2  0  0  0  0
 18 11  1  0  0  0  0
 18  8  2  0  0  0  0
 19  8  1  0  0  0  0
 20 15  2  0  0  0  0
 20  2  1  0  0  0  0
 22 23  1  0  0  0  0
 22 25  1  0  0  0  0
 23 21  1  0  0  0  0
 24 21  1  1  0  0  0
 24  6  1  0  0  0  0
 25 24  1  0  0  0  0
 26 27  1  0  0  0  0
 27 22  1  0  0  0  0
M  END
>  <MODEL>
3

>  <REMARK>
 VINA RESULT:      -8.2      2.695      6.107
  Name = 
  2 active torsions:
  status: ('A' for Active; 'I' for Inactive)
    1  A    between atoms: N_7  and  C_17
    2  A    between atoms: C_9  and  N_14
                            x       y       z     vdW  Elec       q    Type
                         _______ _______ _______ _____ _____    ______ ____

>  <TORSDO>
F 2

$$$$
=
 OpenBabel11062415473D

 27 31  0  0  1  0  0  0  0  0999 V2000
  188.6460  178.0890  141.6020 N   0  0  0  0  0  0  0  0  0  0  0  0
  186.6970  179.4780  142.5400 C   0  0  0  0  0  2  0  0  0  0  0  0
  187.4220  178.0100  139.1200 O   0  0  0  0  0  0  0  0  0  0  0  0
  185.3370  178.9890  140.0870 C   0  0  0  0  0  0  0  0  0  0  0  0
  186.7500  178.5910  140.2060 C   0  0  0  0  0  0  0  0  0  0  0  0
  189.6230  178.3210  142.6640 C   0  0  2  0  0  3  0  0  0  0  0  0
  183.1620  178.7680  141.3060 C   0  0  0  0  0  3  0  0  0  0  0  0
  184.5130  179.0340  143.7670 C   0  0  0  0  0  0  0  0  0  0  0  0
  189.0610  177.0280  140.7130 C   0  0  2  0  0  3  0  0  0  0  0  0
  190.7260  177.2660  142.4360 C   0  0  0  0  0  2  0  0  0  0  0  0
  182.4800  178.5860  142.5080 C   0  0  0  0  0  3  0  0  0  0  0  0
  187.3740  178.7470  141.4060 C   0  0  0  0  0  0  0  0  0  0  0  0
  189.3160  176.9400  138.3130 O   0  0  0  0  0  0  0  0  0  0  0  0
  184.8380  179.2510  138.9670 O   0  0  0  0  0  0  0  0  0  0  0  0
  184.5490  179.0030  141.3280 C   0  0  0  0  0  0  0  0  0  0  0  0
  190.5600  176.8540  140.9720 C   0  0  0  0  0  2  0  0  0  0  0  0
  188.6490  177.3370  139.3030 C   0  0  0  0  0  0  0  0  0  0  0  0
  183.1520  178.7000  143.7270 C   0  0  0  0  0  3  0  0  0  0  0  0
  185.2180  178.9910  145.0770 C   0  0  0  0  0  1  0  0  0  0  0  0
  185.2280  179.1750  142.5630 C   0  0  0  0  0  0  0  0  0  0  0  0
  188.3730  176.9730  144.2950 C   0  0  0  0  0  2  0  0  0  0  0  0
  189.5880  177.7630  146.1570 N   0  0  0  0  0  0  0  0  0  0  0  0
  188.6440  176.7310  145.7470 C   0  0  0  0  0  2  0  0  0  0  0  0
  189.0120  178.2530  144.0090 N   0  0  1  0  0  0  0  0  0  0  0  0
  190.0060  178.4390  144.9930 N   0  0  0  0  0  2  0  0  0  0  0  0
  191.6800  176.4480  145.7410 C   0  0  0  0  0  1  0  0  0  0  0  0
  190.7610  177.1280  146.7680 C   0  0  0  0  0  2  0  0  0  0  0  0
  1  6  1  0  0  0  0
  2 20  1  0  0  0  0
  3 17  1  0  0  0  0
  3  5  1  0  0  0  0
  4  5  1  0  0  0  0
  4 15  1  0  0  0  0
  5 12  2  0  0  0  0
  6 10  1  1  0  0  0
  6 24  1  0  0  0  0
  7 15  2  0  0  0  0
  7 11  1  0  0  0  0
  8 19  1  0  0  0  0
  9 16  1  6  0  0  0
  9  1  1  0  0  0  0
 11 18  2  0  0  0  0
 12  1  1  0  0  0  0
 12  2  1  0  0  0  0
 13 17  2  0  0  0  0
 14  4  2  0  0  0  0
 15 20  1  0  0  0  0
 16 10  1  0  0  0  0
 17  9  1  0  0  0  0
 18  8  1  0  0  0  0
 20  8  2  0  0  0  0
 21 23  1  0  0  0  0
 22 27  1  0  0  0  0
 23 22  1  0  0  0  0
 24 21  1  1  0  0  0
 24 25  1  0  0  0  0
 25 22  1  0  0  0  0
 26 27  1  0  0  0  0
M  END
>  <MODEL>
4

>  <REMARK>
 VINA RESULT:      -7.9      3.018      5.217
  Name = 
  2 active torsions:
  status: ('A' for Active; 'I' for Inactive)
    1  A    between atoms: N_7  and  C_17
    2  A    between atoms: C_9  and  N_14
                            x       y       z     vdW  Elec       q    Type
                         _______ _______ _______ _____ _____    ______ ____

>  <TORSDO>
F 2

$$$$
=
 OpenBabel11062415473D

 27 31  0  0  1  0  0  0  0  0999 V2000
  184.2700  178.2600  139.5950 N   0  0  0  0  0  0  0  0  0  0  0  0
  186.1290  178.8840  141.2580 C   0  0  0  0  0  2  0  0  0  0  0  0
  182.3480  178.7780  141.5190 O   0  0  0  0  0  0  0  0  0  0  0  0
  184.1170  178.9880  143.2700 C   0  0  0  0  0  0  0  0  0  0  0  0
  183.7060  178.8370  141.8630 C   0  0  0  0  0  0  0  0  0  0  0  0
  185.0470  178.3040  138.3580 C   0  0  2  0  0  3  0  0  0  0  0  0
  185.6950  177.9860  144.9350 C   0  0  0  0  0  3  0  0  0  0  0  0
  187.6330  177.6710  142.9120 C   0  0  0  0  0  0  0  0  0  0  0  0
  182.9780  177.6440  139.3970 C   0  0  2  0  0  3  0  0  0  0  0  0
  184.1650  177.6020  137.3030 C   0  0  0  0  0  2  0  0  0  0  0  0
  186.8790  177.2990  145.1950 C   0  0  0  0  0  3  0  0  0  0  0  0
  184.6710  178.7020  140.9120 C   0  0  0  0  0  0  0  0  0  0  0  0
  180.7370  178.3970  139.8940 O   0  0  0  0  0  0  0  0  0  0  0  0
  183.3460  179.5080  144.1100 O   0  0  0  0  0  0  0  0  0  0  0  0
  185.4370  178.4500  143.6330 C   0  0  0  0  0  0  0  0  0  0  0  0
  182.7510  177.6710  137.8830 C   0  0  0  0  0  2  0  0  0  0  0  0
  181.9410  178.3190  140.2480 C   0  0  0  0  0  0  0  0  0  0  0  0
  187.8320  177.1260  144.1890 C   0  0  0  0  0  3  0  0  0  0  0  0
  188.6010  177.3290  141.8340 C   0  0  0  0  0  1  0  0  0  0  0  0
  186.4240  178.3270  142.6190 C   0  0  0  0  0  0  0  0  0  0  0  0
  186.5680  176.4870  137.7070 C   0  0  0  0  0  2  0  0  0  0  0  0
  188.4870  177.8600  137.6640 N   0  0  0  0  0  0  0  0  0  0  0  0
  187.9980  176.5460  137.2680 C   0  0  0  0  0  2  0  0  0  0  0  0
  186.3820  177.6870  138.5150 N   0  0  1  0  0  0  0  0  0  0  0  0
  187.3790  178.6040  138.1170 N   0  0  0  0  0  2  0  0  0  0  0  0
  189.2490  177.6020  135.2900 C   0  0  0  0  0  1  0  0  0  0  0  0
  189.0490  178.5400  136.4910 C   0  0  0  0  0  2  0  0  0  0  0  0
  1 12  1  0  0  0  0
  2 20  1  0  0  0  0
  3  5  1  0  0  0  0
  4 15  1  0  0  0  0
  4 14  2  0  0  0  0
  5  4  1  0  0  0  0
  6 10  1  6  0  0  0
  6 24  1  0  0  0  0
  6  1  1  0  0  0  0
  7 11  1  0  0  0  0
  8 18  1  0  0  0  0
  9 16  1  6  0  0  0
  9  1  1  0  0  0  0
  9 17  1  0  0  0  0
 10 16  1  0  0  0  0
 12  2  1  0  0  0  0
 12  5  2  0  0  0  0
 13 17  2  0  0  0  0
 15  7  2  0  0  0  0
 17  3  1  0  0  0  0
 18 11  2  0  0  0  0
 19  8  1  0  0  0  0
 20  8  2  0  0  0  0
 20 15  1  0  0  0  0
 22 25  1  0  0  0  0
 23 22  1  0  0  0  0
 23 21  1  0  0  0  0
 24 21  1  6  0  0  0
 25 24  1  0  0  0  0
 26 27  1  0  0  0  0
 27 22  1  0  0  0  0
M  END
>  <MODEL>
5

>  <REMARK>
 VINA RESULT:      -7.6      3.404      5.860
  Name = 
  2 active torsions:
  status: ('A' for Active; 'I' for Inactive)
    1  A    between atoms: N_7  and  C_17
    2  A    between atoms: C_9  and  N_14
                            x       y       z     vdW  Elec       q    Type
                         _______ _______ _______ _____ _____    ______ ____

>  <TORSDO>
F 2

$$$$
=
 OpenBabel11062415473D

 27 31  0  0  1  0  0  0  0  0999 V2000
  183.6270  178.6070  140.4330 N   0  0  0  0  0  0  0  0  0  0  0  0
  185.8380  179.0230  141.6760 C   0  0  0  0  0  2  0  0  0  0  0  0
  182.2160  178.9430  142.7910 O   0  0  0  0  0  0  0  0  0  0  0  0
  184.3440  178.9400  144.0980 C   0  0  0  0  0  0  0  0  0  0  0  0
  183.6180  178.9460  142.8170 C   0  0  0  0  0  0  0  0  0  0  0  0
  184.1020  178.7720  139.0610 C   0  0  2  0  0  3  0  0  0  0  0  0
  186.2200  177.7440  145.2450 C   0  0  0  0  0  3  0  0  0  0  0  0
  187.6330  177.6200  142.8080 C   0  0  0  0  0  0  0  0  0  0  0  0
  182.3010  178.0340  140.4770 C   0  0  2  0  0  3  0  0  0  0  0  0
  182.9770  178.1990  138.1720 C   0  0  0  0  0  2  0  0  0  0  0  0
  187.4060  177.0160  145.1530 C   0  0  0  0  0  3  0  0  0  0  0  0
  184.3340  178.9000  141.6590 C   0  0  0  0  0  0  0  0  0  0  0  0
  180.2630  178.7600  141.5510 O   0  0  0  0  0  0  0  0  0  0  0  0
  183.8050  179.3780  145.1410 O   0  0  0  0  0  0  0  0  0  0  0  0
  185.6900  178.3470  144.0900 C   0  0  0  0  0  0  0  0  0  0  0  0
  181.7360  178.2260  139.0670 C   0  0  0  0  0  2  0  0  0  0  0  0
  181.5120  178.6280  141.6090 C   0  0  0  0  0  0  0  0  0  0  0  0
  188.0970  176.9390  143.9420 C   0  0  0  0  0  3  0  0  0  0  0  0
  188.3160  177.3820  141.5060 C   0  0  0  0  0  1  0  0  0  0  0  0
  186.4150  178.3200  142.8690 C   0  0  0  0  0  0  0  0  0  0  0  0
  185.3330  176.8960  138.0580 C   0  0  0  0  0  2  0  0  0  0  0  0
  187.1790  178.2140  137.4080 N   0  0  0  0  0  0  0  0  0  0  0  0
  186.5720  176.9030  137.2180 C   0  0  0  0  0  2  0  0  0  0  0  0
  185.4130  178.1240  138.8420 N   0  0  1  0  0  0  0  0  0  0  0  0
  186.2660  179.0010  138.1380 N   0  0  0  0  0  2  0  0  0  0  0  0
  187.1670  177.8780  134.9240 C   0  0  0  0  0  1  0  0  0  0  0  0
  187.3850  178.8440  136.0980 C   0  0  0  0  0  2  0  0  0  0  0  0
  1  9  1  0  0  0  0
  1 12  1  0  0  0  0
  2 20  1  0  0  0  0
  3  5  1  0  0  0  0
  4 14  2  0  0  0  0
  5  4  1  0  0  0  0
  6 10  1  6  0  0  0
  6  1  1  0  0  0  0
  8 20  2  0  0  0  0
  8 18  1  0  0  0  0
  9 16  1  6  0  0  0
  9 17  1  0  0  0  0
 10 16  1  0  0  0  0
 11  7  1  0  0  0  0
 12  2  1  0  0  0  0
 12  5  2  0  0  0  0
 13 17  2  0  0  0  0
 15  4  1  0  0  0  0
 15  7  2  0  0  0  0
 17  3  1  0  0  0  0
 18 11  2  0  0  0  0
 19  8  1  0  0  0  0
 20 15  1  0  0  0  0
 22 25  1  0  0  0  0
 23 22  1  0  0  0  0
 23 21  1  0  0  0  0
 24 21  1  6  0  0  0
 24  6  1  0  0  0  0
 25 24  1  0  0  0  0
 26 27  1  0  0  0  0
 27 22  1  0  0  0  0
M  END
>  <MODEL>
6

>  <REMARK>
 VINA RESULT:      -7.6      3.415      5.999
  Name = 
  2 active torsions:
  status: ('A' for Active; 'I' for Inactive)
    1  A    between atoms: N_7  and  C_17
    2  A    between atoms: C_9  and  N_14
                            x       y       z     vdW  Elec       q    Type
                         _______ _______ _______ _____ _____    ______ ____

>  <TORSDO>
F 2

$$$$
=
 OpenBabel11062415473D

 27 31  0  0  1  0  0  0  0  0999 V2000
  188.8300  177.5900  142.7250 N   0  0  0  0  0  0  0  0  0  0  0  0
  187.7310  176.9220  144.9510 C   0  0  0  0  0  2  0  0  0  0  0  0
  191.3330  177.0400  143.7730 O   0  0  0  0  0  0  0  0  0  0  0  0
  190.3520  176.7850  146.0550 C   0  0  0  0  0  0  0  0  0  0  0  0
  190.2040  176.9670  144.6010 C   0  0  0  0  0  0  0  0  0  0  0  0
  187.6450  177.5680  141.8700 C   0  0  2  0  0  3  0  0  0  0  0  0
  189.5200  177.7440  148.2130 C   0  0  0  0  0  3  0  0  0  0  0  0
  186.9640  178.0920  147.0750 C   0  0  0  0  0  0  0  0  0  0  0  0
  189.9550  178.2160  142.0680 C   0  0  2  0  0  3  0  0  0  0  0  0
  188.0670  178.2960  140.5760 C   0  0  0  0  0  2  0  0  0  0  0  0
  188.5220  178.4200  148.9140 C   0  0  0  0  0  3  0  0  0  0  0  0
  188.9520  177.1180  144.0860 C   0  0  0  0  0  0  0  0  0  0  0  0
  192.2150  177.4640  141.6690 O   0  0  0  0  0  0  0  0  0  0  0  0
  191.3810  176.2510  146.5320 O   0  0  0  0  0  0  0  0  0  0  0  0
  189.2670  177.3090  146.8990 C   0  0  0  0  0  0  0  0  0  0  0  0
  189.5950  178.2220  140.5800 C   0  0  0  0  0  2  0  0  0  0  0  0
  191.2340  177.5290  142.4520 C   0  0  0  0  0  0  0  0  0  0  0  0
  187.2610  178.6080  148.3440 C   0  0  0  0  0  3  0  0  0  0  0  0
  185.6620  178.4510  146.4470 C   0  0  0  0  0  1  0  0  0  0  0  0
  187.9720  177.4480  146.3340 C   0  0  0  0  0  0  0  0  0  0  0  0
  186.1410  179.5050  142.0310 C   0  0  0  0  0  2  0  0  0  0  0  0
  184.1990  178.2050  142.3520 N   0  0  0  0  0  0  0  0  0  0  0  0
  184.6460  179.5580  142.0490 C   0  0  0  0  0  2  0  0  0  0  0  0
  186.4690  178.1740  142.5300 N   0  0  1  0  0  0  0  0  0  0  0  0
  185.3320  177.3670  142.3110 N   0  0  0  0  0  2  0  0  0  0  0  0
  182.9520  178.8540  140.2780 C   0  0  0  0  0  1  0  0  0  0  0  0
  183.2620  177.7620  141.3130 C   0  0  0  0  0  2  0  0  0  0  0  0
  1 12  1  0  0  0  0
  2 20  1  0  0  0  0
  3  5  1  0  0  0  0
  4 14  2  0  0  0  0
  4 15  1  0  0  0  0
  5  4  1  0  0  0  0
  6 10  1  6  0  0  0
  6 24  1  0  0  0  0
  6  1  1  0  0  0  0
  7 11  1  0  0  0  0
  8 18  1  0  0  0  0
  9 16  1  6  0  0  0
  9 17  1  0  0  0  0
  9  1  1  0  0  0  0
 10 16  1  0  0  0  0
 12  5  2  0  0  0  0
 12  2  1  0  0  0  0
 13 17  2  0  0  0  0
 15  7  2  0  0  0  0
 17  3  1  0  0  0  0
 18 11  2  0  0  0  0
 19  8  1  0  0  0  0
 20 15  1  0  0  0  0
 20  8  2  0  0  0  0
 21 23  1  0  0  0  0
 23 22  1  0  0  0  0
 24 21  1  6  0  0  0
 25 22  1  0  0  0  0
 25 24  1  0  0  0  0
 26 27  1  0  0  0  0
 27 22  1  0  0  0  0
M  END
>  <MODEL>
7

>  <REMARK>
 VINA RESULT:      -7.4      2.246      4.336
  Name = 
  2 active torsions:
  status: ('A' for Active; 'I' for Inactive)
    1  A    between atoms: N_7  and  C_17
    2  A    between atoms: C_9  and  N_14
                            x       y       z     vdW  Elec       q    Type
                         _______ _______ _______ _____ _____    ______ ____

>  <TORSDO>
F 2

$$$$
=
 OpenBabel11062415473D

 27 31  0  0  1  0  0  0  0  0999 V2000
  186.9690  178.4830  143.0380 N   0  0  0  0  0  0  0  0  0  0  0  0
  189.2530  178.6520  144.2040 C   0  0  0  0  0  2  0  0  0  0  0  0
  185.7140  178.2150  145.4910 O   0  0  0  0  0  0  0  0  0  0  0  0
  187.9250  177.9580  146.6250 C   0  0  0  0  0  0  0  0  0  0  0  0
  187.1150  178.2490  145.4300 C   0  0  0  0  0  0  0  0  0  0  0  0
  187.3490  178.9810  141.7180 C   0  0  2  0  0  3  0  0  0  0  0  0
  189.8870  176.5740  147.3350 C   0  0  0  0  0  3  0  0  0  0  0  0
  191.1340  177.0670  144.8550 C   0  0  0  0  0  0  0  0  0  0  0  0
  185.6540  177.8810  143.0270 C   0  0  2  0  0  3  0  0  0  0  0  0
  186.1730  178.6050  140.7900 C   0  0  0  0  0  2  0  0  0  0  0  0
  191.0710  175.9200  146.9990 C   0  0  0  0  0  3  0  0  0  0  0  0
  187.7530  178.4960  144.2520 C   0  0  0  0  0  0  0  0  0  0  0  0
  183.6850  178.2790  144.3680 O   0  0  0  0  0  0  0  0  0  0  0  0
  187.4520  178.1220  147.7740 O   0  0  0  0  0  0  0  0  0  0  0  0
  189.2740  177.4200  146.3920 C   0  0  0  0  0  0  0  0  0  0  0  0
  184.9950  178.3870  141.7410 C   0  0  0  0  0  2  0  0  0  0  0  0
  184.9370  178.1700  144.3150 C   0  0  0  0  0  0  0  0  0  0  0  0
  191.6810  176.1500  145.7630 C   0  0  0  0  0  3  0  0  0  0  0  0
  191.7310  177.1630  143.4940 C   0  0  0  0  0  1  0  0  0  0  0  0
  189.9160  177.7010  145.1570 C   0  0  0  0  0  0  0  0  0  0  0  0
  188.7040  176.9800  141.2720 C   0  0  0  0  0  2  0  0  0  0  0  0
  189.7280  177.8770  139.3440 N   0  0  0  0  0  0  0  0  0  0  0  0
  189.5330  176.6310  140.0750 C   0  0  0  0  0  2  0  0  0  0  0  0
  188.6490  178.4380  141.2700 N   0  0  1  0  0  0  0  0  0  0  0  0
  188.9060  178.8520  139.9450 N   0  0  0  0  0  2  0  0  0  0  0  0
  189.0550  179.0230  137.2200 C   0  0  0  0  0  1  0  0  0  0  0  0
  189.2870  177.6950  137.9560 C   0  0  0  0  0  2  0  0  0  0  0  0
  1 12  1  0  0  0  0
  2 12  1  0  0  0  0
  2 20  1  0  0  0  0
  4 14  2  0  0  0  0
  5  3  1  0  0  0  0
  5  4  1  0  0  0  0
  6 10  1  6  0  0  0
  6  1  1  0  0  0  0
  8 20  2  0  0  0  0
  8 18  1  0  0  0  0
  9 16  1  6  0  0  0
  9  1  1  0  0  0  0
  9 17  1  0  0  0  0
 10 16  1  0  0  0  0
 11  7  1  0  0  0  0
 12  5  2  0  0  0  0
 15  4  1  0  0  0  0
 15  7  2  0  0  0  0
 17 13  2  0  0  0  0
 17  3  1  0  0  0  0
 18 11  2  0  0  0  0
 19  8  1  0  0  0  0
 20 15  1  0  0  0  0
 22 25  1  0  0  0  0
 22 23  1  0  0  0  0
 23 21  1  0  0  0  0
 24 21  1  6  0  0  0
 24  6  1  0  0  0  0
 25 24  1  0  0  0  0
 26 27  1  0  0  0  0
 27 22  1  0  0  0  0
M  END
>  <MODEL>
8

>  <REMARK>
 VINA RESULT:      -7.4      1.777      4.659
  Name = 
  2 active torsions:
  status: ('A' for Active; 'I' for Inactive)
    1  A    between atoms: N_7  and  C_17
    2  A    between atoms: C_9  and  N_14
                            x       y       z     vdW  Elec       q    Type
                         _______ _______ _______ _____ _____    ______ ____

>  <TORSDO>
F 2

$$$$
=
 OpenBabel11062415473D

 27 31  0  0  1  0  0  0  0  0999 V2000
  188.9920  177.7960  141.8700 N   0  0  0  0  0  0  0  0  0  0  0  0
  186.8090  179.1300  141.6150 C   0  0  0  0  0  2  0  0  0  0  0  0
  189.1720  177.5270  139.1210 O   0  0  0  0  0  0  0  0  0  0  0  0
  186.8650  178.4470  138.8520 C   0  0  0  0  0  0  0  0  0  0  0  0
  188.0370  178.1280  139.6850 C   0  0  0  0  0  0  0  0  0  0  0  0
  189.3030  178.1310  143.2580 C   0  0  2  0  0  3  0  0  0  0  0  0
  184.3770  178.1780  138.8410 C   0  0  0  0  0  3  0  0  0  0  0  0
  184.3130  178.6390  141.6230 C   0  0  0  0  0  0  0  0  0  0  0  0
  189.8150  176.7130  141.3820 C   0  0  2  0  0  3  0  0  0  0  0  0
  190.3920  177.1230  143.6830 C   0  0  0  0  0  2  0  0  0  0  0  0
  183.1890  178.0240  139.5550 C   0  0  0  0  0  3  0  0  0  0  0  0
  187.9750  178.3770  141.0230 C   0  0  0  0  0  0  0  0  0  0  0  0
  191.2350  176.5140  139.4380 O   0  0  0  0  0  0  0  0  0  0  0  0
  186.9870  178.6260  137.6170 O   0  0  0  0  0  0  0  0  0  0  0  0
  185.5620  178.4850  139.5330 C   0  0  0  0  0  0  0  0  0  0  0  0
  190.9870  176.6290  142.3630 C   0  0  0  0  0  2  0  0  0  0  0  0
  190.1560  176.9280  139.9350 C   0  0  0  0  0  0  0  0  0  0  0  0
  183.1600  178.2350  140.9350 C   0  0  0  0  0  3  0  0  0  0  0  0
  184.2710  178.6990  143.1090 C   0  0  0  0  0  1  0  0  0  0  0  0
  185.5310  178.7540  140.9270 C   0  0  0  0  0  0  0  0  0  0  0  0
  187.3880  176.8300  144.0830 C   0  0  0  0  0  2  0  0  0  0  0  0
  187.5290  177.6710  146.2840 N   0  0  0  0  0  0  0  0  0  0  0  0
  186.8990  176.6290  145.4840 C   0  0  0  0  0  2  0  0  0  0  0  0
  188.1040  178.1010  144.1230 N   0  0  1  0  0  0  0  0  0  0  0  0
  188.4810  178.3140  145.4660 N   0  0  0  0  0  2  0  0  0  0  0  0
  189.4820  177.8370  147.8450 C   0  0  0  0  0  1  0  0  0  0  0  0
  188.2350  177.0520  147.4120 C   0  0  0  0  0  2  0  0  0  0  0  0
  1  6  1  0  0  0  0
  3  5  1  0  0  0  0
  3 17  1  0  0  0  0
  4 15  1  0  0  0  0
  4  5  1  0  0  0  0
  5 12  2  0  0  0  0
  6 10  1  1  0  0  0
  6 24  1  0  0  0  0
  7 15  2  0  0  0  0
  7 11  1  0  0  0  0
  8 19  1  0  0  0  0
  9  1  1  0  0  0  0
  9 16  1  1  0  0  0
 11 18  2  0  0  0  0
 12  2  1  0  0  0  0
 12  1  1  0  0  0  0
 13 17  2  0  0  0  0
 14  4  2  0  0  0  0
 15 20  1  0  0  0  0
 16 10  1  0  0  0  0
 17  9  1  0  0  0  0
 18  8  1  0  0  0  0
 20  2  1  0  0  0  0
 20  8  2  0  0  0  0
 21 23  1  0  0  0  0
 22 27  1  0  0  0  0
 23 22  1  0  0  0  0
 24 21  1  1  0  0  0
 24 25  1  0  0  0  0
 25 22  1  0  0  0  0
 27 26  1  0  0  0  0
M  END
>  <MODEL>
9

>  <REMARK>
 VINA RESULT:      -7.4      3.061      5.619
  Name = 
  2 active torsions:
  status: ('A' for Active; 'I' for Inactive)
    1  A    between atoms: N_7  and  C_17
    2  A    between atoms: C_9  and  N_14
                            x       y       z     vdW  Elec       q    Type
                         _______ _______ _______ _____ _____    ______ ____

>  <TORSDO>
F 2

$$$$
