=
 OpenBabel11062413433D

 35 40  0  0  1  0  0  0  0  0999 V2000
  183.9030  179.0560  143.8490 C   0  0  1  0  0  0  0  0  0  0  0  0
  182.4650  178.9390  144.3080 C   0  0  0  0  0  1  0  0  0  0  0  0
  190.2920  177.3750  138.4710 O   0  0  0  0  0  0  0  0  0  0  0  0
  188.7550  177.7900  141.6570 C   0  0  0  0  0  0  0  0  0  0  0  0
  190.9010  176.6910  141.8600 C   0  0  0  0  0  3  0  0  0  0  0  0
  185.8610  179.0630  144.9860 C   0  0  2  0  0  3  0  0  0  0  0  0
  188.9650  177.8650  140.2720 C   0  0  0  0  0  3  0  0  0  0  0  0
  184.2170  178.8130  142.4480 C   0  0  1  0  0  3  0  0  0  0  0  0
  191.0600  176.7630  140.5130 N   0  0  0  0  0  0  0  0  0  0  0  0
  190.1240  177.3350  139.7150 C   0  0  0  0  0  0  0  0  0  0  0  0
  184.7840  179.8710  144.6000 O   0  0  0  0  0  0  0  0  0  0  0  0
  185.7650  177.7850  144.1820 C   0  0  1  0  0  3  0  0  0  0  0  0
  185.4230  179.6160  141.9640 C   0  0  0  0  0  2  0  0  0  0  0  0
  189.7370  177.1930  142.4690 C   0  0  1  0  0  3  0  0  0  0  0  0
  188.0740  176.8000  144.2980 C   0  0  0  0  0  2  0  0  0  0  0  0
  187.5130  178.3500  142.3140 C   0  0  1  0  0  3  0  0  0  0  0  0
  189.5340  177.2100  143.9820 C   0  0  1  0  0  0  0  0  0  0  0  0
  186.4350  178.7110  141.3050 C   0  0  0  0  0  2  0  0  0  0  0  0
  184.4930  177.7600  143.4790 N   0  0  1  0  0  0  0  0  0  0  0  0
  186.9850  177.3420  143.3540 C   0  0  2  0  0  3  0  0  0  0  0  0
  184.4670  178.2410  146.7480 O   0  0  0  0  0  1  0  0  0  0  0  0
  185.7350  178.7580  146.4780 C   0  0  0  0  0  3  0  0  0  0  0  0
  185.9250  179.9140  147.2320 O   0  0  0  0  0  1  0  0  0  0  0  0
  191.0370  175.1410  143.8540 C   0  0  0  0  0  1  0  0  0  0  0  0
  190.4760  176.2390  144.7500 C   0  0  1  0  0  3  0  0  0  0  0  0
  191.5360  176.8990  145.3970 O   0  0  0  0  0  0  0  0  0  0  0  0
  191.2930  176.7750  146.7670 C   0  0  2  0  0  3  0  0  0  0  0  0
  192.3720  175.4800  147.4340 S   0  0  0  0  0  1  0  0  0  0  0  0
  189.8390  176.4150  147.0180 C   0  0  0  0  0  2  0  0  0  0  0  0
  189.2200  177.4120  147.8900 C   0  0  0  0  0  0  0  0  0  0  0  0
  188.7270  178.2080  148.5690 N   0  0  0  0  0  0  0  0  0  0  0  0
  189.7670  178.6600  144.4600 C   0  0  0  0  0  2  0  0  0  0  0  0
  192.0810  179.0990  144.0880 O   0  0  0  0  0  0  0  0  0  0  0  0
  191.5620  180.3390  144.4930 C   0  0  0  0  0  2  0  0  0  0  0  0
  190.7890  179.4260  143.6290 C   0  0  2  0  0  3  0  0  0  0  0  0
  1  2  1  1  0  0  0
  1 11  1  0  0  0  0
  3 10  2  0  0  0  0
  4 16  1  0  0  0  0
  4 14  1  0  0  0  0
  5 14  1  0  0  0  0
  6 22  1  1  0  0  0
  7  4  2  0  0  0  0
  8 13  1  1  0  0  0
  8 19  1  0  0  0  0
  8  1  1  0  0  0  0
  9  5  2  0  0  0  0
 10  7  1  0  0  0  0
 10  9  1  0  0  0  0
 11  6  1  0  0  0  0
 12  6  1  0  0  0  0
 14 17  1  0  0  0  0
 16 20  1  0  0  0  0
 17 15  1  0  0  0  0
 17 32  1  0  0  0  0
 17 25  1  0  0  0  0
 18 13  1  0  0  0  0
 18 16  1  0  0  0  0
 19  1  1  0  0  0  0
 19 12  1  0  0  0  0
 20 12  1  0  0  0  0
 20 15  1  0  0  0  0
 22 21  1  0  0  0  0
 22 23  1  0  0  0  0
 24 25  1  0  0  0  0
 25 26  1  0  0  0  0
 26 27  1  0  0  0  0
 27 29  1  0  0  0  0
 27 28  1  0  0  0  0
 29 30  1  0  0  0  0
 30 31  3  0  0  0  0
 33 34  1  0  0  0  0
 35 33  1  0  0  0  0
 35 32  1  0  0  0  0
 35 34  1  0  0  0  0
M  END
>  <MODEL>
1

>  <REMARK>
 VINA RESULT:      -7.6      0.000      0.000
  Name = 
  8 active torsions:
  status: ('A' for Active; 'I' for Inactive)
    1  A    between atoms: C_1  and  C_8
    2  A    between atoms: O_2  and  C_11
    3  A    between atoms: O_2  and  C_22
    4  A    between atoms: C_8  and  C_11
    5  A    between atoms: C_12  and  C_16
    6  A    between atoms: C_21  and  C_25
    7  A    between atoms: C_22  and  C_29
    8  A    between atoms: C_25  and  C_29
                            x       y       z     vdW  Elec       q    Type
                         _______ _______ _______ _____ _____    ______ ____

>  <TORSDO>
F 8

$$$$
=
 OpenBabel11062413433D

 35 40  0  0  1  0  0  0  0  0999 V2000
  188.7440  177.9160  137.5620 C   0  0  1  0  0  0  0  0  0  0  0  0
  189.3690  178.3370  136.2490 C   0  0  0  0  0  1  0  0  0  0  0  0
  183.4960  179.0950  144.1690 O   0  0  0  0  0  0  0  0  0  0  0  0
  186.5430  178.1820  142.5660 C   0  0  0  0  0  0  0  0  0  0  0  0
  186.8450  178.3950  144.9570 C   0  0  0  0  0  3  0  0  0  0  0  0
  189.6060  176.9020  139.3940 C   0  0  2  0  0  3  0  0  0  0  0  0
  185.1890  178.5010  142.7440 C   0  0  0  0  0  3  0  0  0  0  0  0
  187.4620  178.4880  137.9480 C   0  0  1  0  0  3  0  0  0  0  0  0
  185.5330  178.7200  145.0890 N   0  0  0  0  0  0  0  0  0  0  0  0
  184.7020  178.7780  144.0180 C   0  0  0  0  0  0  0  0  0  0  0  0
  189.1070  176.6610  138.1080 O   0  0  0  0  0  0  0  0  0  0  0  0
  189.2520  178.3310  139.7450 C   0  0  1  0  0  3  0  0  0  0  0  0
  186.6270  177.5430  138.8090 C   0  0  0  0  0  2  0  0  0  0  0  0
  187.3900  178.1270  143.6890 C   0  0  1  0  0  3  0  0  0  0  0  0
  189.4180  178.4180  142.2510 C   0  0  0  0  0  2  0  0  0  0  0  0
  187.1240  177.8730  141.2040 C   0  0  1  0  0  3  0  0  0  0  0  0
  188.8360  177.6840  143.4840 C   0  0  1  0  0  0  0  0  0  0  0  0
  186.1750  178.2330  140.0720 C   0  0  0  0  0  2  0  0  0  0  0  0
  188.7320  178.9960  138.5610 N   0  0  1  0  0  0  0  0  0  0  0  0
  188.4750  178.5990  141.0470 C   0  0  2  0  0  3  0  0  0  0  0  0
  191.7330  177.8050  140.0140 O   0  0  0  0  0  1  0  0  0  0  0  0
  191.1230  176.7250  139.3720 C   0  0  0  0  0  3  0  0  0  0  0  0
  191.5900  176.6530  138.0610 O   0  0  0  0  0  1  0  0  0  0  0  0
  190.6750  179.1820  144.4480 C   0  0  0  0  0  1  0  0  0  0  0  0
  189.7610  177.9880  144.6980 C   0  0  1  0  0  3  0  0  0  0  0  0
  189.0500  178.1870  145.8940 O   0  0  0  0  0  0  0  0  0  0  0  0
  189.4430  177.1590  146.7550 C   0  0  2  0  0  3  0  0  0  0  0  0
  188.2190  177.0160  148.0860 S   0  0  0  0  0  1  0  0  0  0  0  0
  190.8120  177.4540  147.3440 C   0  0  0  0  0  2  0  0  0  0  0  0
  191.6730  176.2790  147.2180 C   0  0  0  0  0  0  0  0  0  0  0  0
  192.3540  175.3480  147.1320 N   0  0  0  0  0  0  0  0  0  0  0  0
  188.8150  176.1640  143.2050 C   0  0  0  0  0  2  0  0  0  0  0  0
  190.4340  174.4130  143.2220 O   0  0  0  0  0  0  0  0  0  0  0  0
  191.1560  175.5460  143.6270 C   0  0  0  0  0  2  0  0  0  0  0  0
  190.1060  175.6320  142.5940 C   0  0  2  0  0  3  0  0  0  0  0  0
  1  2  1  6  0  0  0
  1  8  1  0  0  0  0
  1 11  1  0  0  0  0
  1 19  1  0  0  0  0
  4  7  2  0  0  0  0
  4 14  1  0  0  0  0
  5  9  2  0  0  0  0
  6 22  1  6  0  0  0
  6 12  1  0  0  0  0
  7 10  1  0  0  0  0
  8 19  1  0  0  0  0
  8 13  1  1  0  0  0
 10  3  2  0  0  0  0
 10  9  1  0  0  0  0
 11  6  1  0  0  0  0
 12 20  1  0  0  0  0
 13 18  1  0  0  0  0
 14  5  1  0  0  0  0
 15 17  1  0  0  0  0
 16  4  1  0  0  0  0
 17 14  1  0  0  0  0
 17 25  1  0  0  0  0
 18 16  1  0  0  0  0
 19 12  1  0  0  0  0
 20 16  1  0  0  0  0
 20 15  1  0  0  0  0
 22 21  1  0  0  0  0
 23 22  1  0  0  0  0
 24 25  1  0  0  0  0
 25 26  1  0  0  0  0
 26 27  1  0  0  0  0
 27 29  1  0  0  0  0
 27 28  1  0  0  0  0
 30 29  1  0  0  0  0
 31 30  3  0  0  0  0
 32 17  1  0  0  0  0
 33 34  1  0  0  0  0
 35 32  1  0  0  0  0
 35 33  1  0  0  0  0
 35 34  1  0  0  0  0
M  END
>  <MODEL>
2

>  <REMARK>
 VINA RESULT:      -7.5      2.087      5.760
  Name = 
  8 active torsions:
  status: ('A' for Active; 'I' for Inactive)
    1  A    between atoms: C_1  and  C_8
    2  A    between atoms: O_2  and  C_11
    3  A    between atoms: O_2  and  C_22
    4  A    between atoms: C_8  and  C_11
    5  A    between atoms: C_12  and  C_16
    6  A    between atoms: C_21  and  C_25
    7  A    between atoms: C_22  and  C_29
    8  A    between atoms: C_25  and  C_29
                            x       y       z     vdW  Elec       q    Type
                         _______ _______ _______ _____ _____    ______ ____

>  <TORSDO>
F 8

$$$$
=
 OpenBabel11062413433D

 35 40  0  0  1  0  0  0  0  0999 V2000
  187.1520  178.5550  142.4190 C   0  0  1  0  0  0  0  0  0  0  0  0
  188.5610  178.0320  142.6000 C   0  0  0  0  0  1  0  0  0  0  0  0
  178.9780  179.2390  144.7200 O   0  0  0  0  0  0  0  0  0  0  0  0
  181.6840  178.8120  142.4450 C   0  0  0  0  0  0  0  0  0  0  0  0
  179.5750  178.2400  141.4080 C   0  0  0  0  0  3  0  0  0  0  0  0
  185.8770  178.8650  140.5730 C   0  0  2  0  0  3  0  0  0  0  0  0
  180.9820  179.1340  143.6160 C   0  0  0  0  0  3  0  0  0  0  0  0
  186.2620  178.5980  143.5710 C   0  0  1  0  0  3  0  0  0  0  0  0
  178.9310  178.5410  142.5650 N   0  0  0  0  0  0  0  0  0  0  0  0
  179.6000  178.9820  143.6590 C   0  0  0  0  0  0  0  0  0  0  0  0
  186.8960  179.4390  141.3440 O   0  0  0  0  0  0  0  0  0  0  0  0
  185.2940  177.7300  141.3870 C   0  0  1  0  0  3  0  0  0  0  0  0
  185.2370  179.7270  143.4840 C   0  0  0  0  0  2  0  0  0  0  0  0
  180.9740  178.3560  141.3200 C   0  0  1  0  0  3  0  0  0  0  0  0
  183.0380  177.3180  140.3590 C   0  0  0  0  0  2  0  0  0  0  0  0
  183.1870  178.9590  142.3430 C   0  0  1  0  0  3  0  0  0  0  0  0
  181.7470  178.1060  140.0280 C   0  0  1  0  0  0  0  0  0  0  0  0
  183.8410  179.1940  143.6960 C   0  0  0  0  0  2  0  0  0  0  0  0
  186.1310  177.5040  142.5540 N   0  0  1  0  0  0  0  0  0  0  0  0
  183.7770  177.7160  141.6500 C   0  0  2  0  0  3  0  0  0  0  0  0
  187.8470  178.6280  139.2370 O   0  0  0  0  0  1  0  0  0  0  0  0
  186.4840  178.3270  139.2790 C   0  0  0  0  0  3  0  0  0  0  0  0
  185.8590  178.8940  138.1700 O   0  0  0  0  0  1  0  0  0  0  0  0
  181.4500  177.5280  137.5510 C   0  0  0  0  0  1  0  0  0  0  0  0
  180.9500  177.2880  138.9710 C   0  0  1  0  0  3  0  0  0  0  0  0
  180.9440  175.9070  139.2350 O   0  0  0  0  0  0  0  0  0  0  0  0
  179.6010  175.5270  139.2880 C   0  0  2  0  0  3  0  0  0  0  0  0
  179.3520  174.4720  140.7420 S   0  0  0  0  0  1  0  0  0  0  0  0
  179.2130  174.7700  138.0300 C   0  0  0  0  0  2  0  0  0  0  0  0
  180.0090  173.5480  137.9160 C   0  0  0  0  0  0  0  0  0  0  0  0
  180.6300  172.5760  137.8340 N   0  0  0  0  0  0  0  0  0  0  0  0
  182.1290  179.4850  139.4470 C   0  0  0  0  0  2  0  0  0  0  0  0
  180.2920  180.5680  138.3800 O   0  0  0  0  0  0  0  0  0  0  0  0
  181.2260  181.5980  138.5740 C   0  0  0  0  0  2  0  0  0  0  0  0
  181.0320  180.5350  139.5790 C   0  0  2  0  0  3  0  0  0  0  0  0
  1 19  1  0  0  0  0
  1  2  1  1  0  0  0
  1  8  1  0  0  0  0
  4  7  2  0  0  0  0
  5  9  2  0  0  0  0
  6 22  1  6  0  0  0
  6 11  1  0  0  0  0
  6 12  1  0  0  0  0
  7 10  1  0  0  0  0
  8 13  1  6  0  0  0
  9 10  1  0  0  0  0
 10  3  2  0  0  0  0
 11  1  1  0  0  0  0
 12 20  1  0  0  0  0
 12 19  1  0  0  0  0
 13 18  1  0  0  0  0
 14  5  1  0  0  0  0
 14  4  1  0  0  0  0
 15 20  1  0  0  0  0
 16  4  1  0  0  0  0
 16 18  1  0  0  0  0
 17 15  1  0  0  0  0
 17 14  1  0  0  0  0
 19  8  1  0  0  0  0
 20 16  1  0  0  0  0
 21 22  1  0  0  0  0
 23 22  1  0  0  0  0
 24 25  1  0  0  0  0
 25 26  1  0  0  0  0
 25 17  1  0  0  0  0
 26 27  1  0  0  0  0
 27 28  1  0  0  0  0
 29 27  1  0  0  0  0
 30 29  1  0  0  0  0
 31 30  3  0  0  0  0
 32 35  1  0  0  0  0
 32 17  1  0  0  0  0
 33 34  1  0  0  0  0
 33 35  1  0  0  0  0
 34 35  1  0  0  0  0
M  END
>  <MODEL>
3

>  <REMARK>
 VINA RESULT:      -7.0      5.063      9.582
  Name = 
  8 active torsions:
  status: ('A' for Active; 'I' for Inactive)
    1  A    between atoms: C_1  and  C_8
    2  A    between atoms: O_2  and  C_11
    3  A    between atoms: O_2  and  C_22
    4  A    between atoms: C_8  and  C_11
    5  A    between atoms: C_12  and  C_16
    6  A    between atoms: C_21  and  C_25
    7  A    between atoms: C_22  and  C_29
    8  A    between atoms: C_25  and  C_29
                            x       y       z     vdW  Elec       q    Type
                         _______ _______ _______ _____ _____    ______ ____

>  <TORSDO>
F 8

$$$$
=
 OpenBabel11062413433D

 35 40  0  0  1  0  0  0  0  0999 V2000
  183.6800  171.4160  135.9010 C   0  0  1  0  0  0  0  0  0  0  0  0
  183.5390  169.9110  135.9730 C   0  0  0  0  0  1  0  0  0  0  0  0
  187.6860  178.7340  137.6280 O   0  0  0  0  0  0  0  0  0  0  0  0
  184.8740  176.5740  137.2890 C   0  0  0  0  0  0  0  0  0  0  0  0
  184.2870  178.5880  138.4950 C   0  0  0  0  0  3  0  0  0  0  0  0
  182.1590  173.0890  136.0380 C   0  0  2  0  0  3  0  0  0  0  0  0
  186.1790  177.0740  137.1600 C   0  0  0  0  0  3  0  0  0  0  0  0
  184.9950  172.0110  136.0940 C   0  0  1  0  0  3  0  0  0  0  0  0
  185.5650  179.0300  138.3680 N   0  0  0  0  0  0  0  0  0  0  0  0
  186.5080  178.3050  137.7170 C   0  0  0  0  0  0  0  0  0  0  0  0
  182.7180  172.1470  135.1640 O   0  0  0  0  0  0  0  0  0  0  0  0
  183.0350  173.1190  137.2720 C   0  0  1  0  0  3  0  0  0  0  0  0
  185.1710  173.3190  135.3260 C   0  0  0  0  0  2  0  0  0  0  0  0
  183.9090  177.3400  137.9680 C   0  0  1  0  0  3  0  0  0  0  0  0
  182.4930  175.3150  138.3670 C   0  0  0  0  0  2  0  0  0  0  0  0
  184.4620  175.2420  136.7030 C   0  0  1  0  0  3  0  0  0  0  0  0
  182.4740  176.8220  138.0120 C   0  0  1  0  0  0  0  0  0  0  0  0
  185.6530  174.4150  136.2460 C   0  0  0  0  0  2  0  0  0  0  0  0
  183.9890  172.0240  137.2050 N   0  0  1  0  0  0  0  0  0  0  0  0
  183.6130  174.4700  137.7320 C   0  0  2  0  0  3  0  0  0  0  0  0
  179.8580  173.7050  136.2520 O   0  0  0  0  0  1  0  0  0  0  0  0
  180.7470  172.6390  136.4050 C   0  0  0  0  0  3  0  0  0  0  0  0
  180.7010  172.1950  137.7250 O   0  0  0  0  0  1  0  0  0  0  0  0
  180.0940  177.2800  138.8390 C   0  0  0  0  0  1  0  0  0  0  0  0
  181.5790  177.5450  139.0600 C   0  0  1  0  0  3  0  0  0  0  0  0
  181.9180  177.2250  140.3860 O   0  0  0  0  0  0  0  0  0  0  0  0
  181.9060  178.4300  141.0930 C   0  0  2  0  0  3  0  0  0  0  0  0
  183.4750  178.5980  141.9840 S   0  0  0  0  0  1  0  0  0  0  0  0
  180.7480  178.4560  142.0760 C   0  0  0  0  0  2  0  0  0  0  0  0
  180.1720  179.7990  142.1340 C   0  0  0  0  0  0  0  0  0  0  0  0
  179.7150  180.8610  142.1670 N   0  0  0  0  0  0  0  0  0  0  0  0
  181.8780  177.0010  136.5980 C   0  0  0  0  0  2  0  0  0  0  0  0
  180.5630  178.7170  135.5900 O   0  0  0  0  0  0  0  0  0  0  0  0
  181.5990  178.4980  134.6690 C   0  0  0  0  0  2  0  0  0  0  0  0
  181.8410  178.4490  136.1230 C   0  0  2  0  0  3  0  0  0  0  0  0
  1  2  1  6  0  0  0
  1  8  1  0  0  0  0
  1 19  1  0  0  0  0
  3 10  2  0  0  0  0
  4 14  1  0  0  0  0
  6 22  1  1  0  0  0
  6 12  1  0  0  0  0
  7  4  2  0  0  0  0
  7 10  1  0  0  0  0
  8 13  1  6  0  0  0
  8 19  1  0  0  0  0
  9  5  2  0  0  0  0
 10  9  1  0  0  0  0
 11  1  1  0  0  0  0
 11  6  1  0  0  0  0
 12 20  1  0  0  0  0
 13 18  1  0  0  0  0
 14 17  1  0  0  0  0
 14  5  1  0  0  0  0
 16  4  1  0  0  0  0
 16 20  1  0  0  0  0
 17 15  1  0  0  0  0
 17 25  1  0  0  0  0
 18 16  1  0  0  0  0
 19 12  1  0  0  0  0
 20 15  1  0  0  0  0
 21 22  1  0  0  0  0
 22 23  1  0  0  0  0
 24 25  1  0  0  0  0
 25 26  1  0  0  0  0
 26 27  1  0  0  0  0
 27 28  1  0  0  0  0
 27 29  1  0  0  0  0
 29 30  1  0  0  0  0
 30 31  3  0  0  0  0
 32 17  1  0  0  0  0
 33 35  1  0  0  0  0
 34 33  1  0  0  0  0
 34 35  1  0  0  0  0
 35 32  1  0  0  0  0
M  END
>  <MODEL>
4

>  <REMARK>
 VINA RESULT:      -6.9      7.138     10.079
  Name = 
  8 active torsions:
  status: ('A' for Active; 'I' for Inactive)
    1  A    between atoms: C_1  and  C_8
    2  A    between atoms: O_2  and  C_11
    3  A    between atoms: O_2  and  C_22
    4  A    between atoms: C_8  and  C_11
    5  A    between atoms: C_12  and  C_16
    6  A    between atoms: C_21  and  C_25
    7  A    between atoms: C_22  and  C_29
    8  A    between atoms: C_25  and  C_29
                            x       y       z     vdW  Elec       q    Type
                         _______ _______ _______ _____ _____    ______ ____

>  <TORSDO>
F 8

$$$$
=
 OpenBabel11062413433D

 35 40  0  0  1  0  0  0  0  0999 V2000
  186.9900  175.4840  136.1130 C   0  0  1  0  0  0  0  0  0  0  0  0
  188.0840  175.5680  135.0690 C   0  0  0  0  0  1  0  0  0  0  0  0
  178.9890  173.9190  138.5830 O   0  0  0  0  0  0  0  0  0  0  0  0
  182.0560  175.7260  138.4690 C   0  0  0  0  0  0  0  0  0  0  0  0
  180.3010  177.0500  139.4780 C   0  0  0  0  0  3  0  0  0  0  0  0
  186.4810  176.8020  137.8830 C   0  0  2  0  0  3  0  0  0  0  0  0
  181.1350  174.6770  138.3260 C   0  0  0  0  0  3  0  0  0  0  0  0
  185.8310  174.6420  135.8530 C   0  0  1  0  0  3  0  0  0  0  0  0
  179.4320  176.0210  139.3050 N   0  0  0  0  0  0  0  0  0  0  0  0
  179.8190  174.8490  138.7430 C   0  0  0  0  0  0  0  0  0  0  0  0
  187.3230  175.7660  137.4590 O   0  0  0  0  0  0  0  0  0  0  0  0
  185.3980  176.9460  136.8360 C   0  0  1  0  0  3  0  0  0  0  0  0
  185.2180  174.0690  137.1300 C   0  0  0  0  0  2  0  0  0  0  0  0
  181.6370  176.9350  139.0540 C   0  0  1  0  0  3  0  0  0  0  0  0
  183.5490  178.1720  138.0160 C   0  0  0  0  0  2  0  0  0  0  0  0
  183.4980  175.5930  138.0330 C   0  0  1  0  0  3  0  0  0  0  0  0
  182.6780  178.0250  139.2880 C   0  0  1  0  0  0  0  0  0  0  0  0
  183.7370  174.3550  137.1820 C   0  0  0  0  0  2  0  0  0  0  0  0
  185.7400  176.1290  135.6830 N   0  0  1  0  0  0  0  0  0  0  0  0
  183.9260  176.8710  137.2840 C   0  0  2  0  0  3  0  0  0  0  0  0
  187.1960  178.6200  139.2630 O   0  0  0  0  0  1  0  0  0  0  0  0
  187.2970  178.0900  137.9760 C   0  0  0  0  0  3  0  0  0  0  0  0
  186.8340  179.0320  137.0590 O   0  0  0  0  0  1  0  0  0  0  0  0
  182.6100  180.5160  138.7000 C   0  0  0  0  0  1  0  0  0  0  0  0
  182.0640  179.4190  139.6070 C   0  0  1  0  0  3  0  0  0  0  0  0
  180.6590  179.4260  139.5530 O   0  0  0  0  0  0  0  0  0  0  0  0
  180.2460  180.5220  140.3130 C   0  0  2  0  0  3  0  0  0  0  0  0
  179.9440  179.9710  142.0130 S   0  0  0  0  0  1  0  0  0  0  0  0
  178.9770  181.1220  139.7320 C   0  0  0  0  0  2  0  0  0  0  0  0
  179.3080  182.2600  138.8750 C   0  0  0  0  0  0  0  0  0  0  0  0
  179.5660  183.1680  138.2070 N   0  0  0  0  0  0  0  0  0  0  0  0
  183.5710  177.5630  140.4610 C   0  0  0  0  0  2  0  0  0  0  0  0
  184.8520  179.3340  141.4150 O   0  0  0  0  0  0  0  0  0  0  0  0
  184.8920  178.3250  142.3890 C   0  0  0  0  0  2  0  0  0  0  0  0
  183.6760  178.5780  141.5930 C   0  0  2  0  0  3  0  0  0  0  0  0
  1  2  1  6  0  0  0
  1 11  1  0  0  0  0
  3 10  2  0  0  0  0
  4 14  1  0  0  0  0
  6 22  1  6  0  0  0
  7  4  2  0  0  0  0
  7 10  1  0  0  0  0
  8  1  1  0  0  0  0
  8 13  1  1  0  0  0
  9  5  2  0  0  0  0
 10  9  1  0  0  0  0
 11  6  1  0  0  0  0
 12 20  1  0  0  0  0
 12  6  1  0  0  0  0
 13 18  1  0  0  0  0
 14 17  1  0  0  0  0
 14  5  1  0  0  0  0
 15 17  1  0  0  0  0
 16  4  1  0  0  0  0
 17 25  1  0  0  0  0
 17 32  1  0  0  0  0
 18 16  1  0  0  0  0
 19  8  1  0  0  0  0
 19  1  1  0  0  0  0
 19 12  1  0  0  0  0
 20 15  1  0  0  0  0
 20 16  1  0  0  0  0
 22 21  1  0  0  0  0
 23 22  1  0  0  0  0
 24 25  1  0  0  0  0
 26 25  1  0  0  0  0
 26 27  1  0  0  0  0
 27 28  1  0  0  0  0
 29 27  1  0  0  0  0
 30 29  1  0  0  0  0
 31 30  3  0  0  0  0
 32 35  1  0  0  0  0
 33 35  1  0  0  0  0
 33 34  1  0  0  0  0
 35 34  1  0  0  0  0
M  END
>  <MODEL>
5

>  <REMARK>
 VINA RESULT:      -6.7      5.950      9.879
  Name = 
  8 active torsions:
  status: ('A' for Active; 'I' for Inactive)
    1  A    between atoms: C_1  and  C_8
    2  A    between atoms: O_2  and  C_11
    3  A    between atoms: O_2  and  C_22
    4  A    between atoms: C_8  and  C_11
    5  A    between atoms: C_12  and  C_16
    6  A    between atoms: C_21  and  C_25
    7  A    between atoms: C_22  and  C_29
    8  A    between atoms: C_25  and  C_29
                            x       y       z     vdW  Elec       q    Type
                         _______ _______ _______ _____ _____    ______ ____

>  <TORSDO>
F 8

$$$$
=
 OpenBabel11062413433D

 35 40  0  0  1  0  0  0  0  0999 V2000
  183.7150  178.9560  139.1850 C   0  0  1  0  0  0  0  0  0  0  0  0
  182.4930  179.8240  138.9730 C   0  0  0  0  0  1  0  0  0  0  0  0
  191.7590  177.6940  141.6910 O   0  0  0  0  0  0  0  0  0  0  0  0
  188.9440  177.3780  139.5310 C   0  0  0  0  0  0  0  0  0  0  0  0
  190.9760  176.6700  138.4250 C   0  0  0  0  0  3  0  0  0  0  0  0
  184.6390  177.3090  137.9350 C   0  0  2  0  0  3  0  0  0  0  0  0
  189.7030  177.6380  140.6820 C   0  0  0  0  0  3  0  0  0  0  0  0
  184.7140  179.3720  140.1590 C   0  0  1  0  0  3  0  0  0  0  0  0
  191.6810  176.9540  139.5510 N   0  0  0  0  0  0  0  0  0  0  0  0
  191.0780  177.4280  140.6690 C   0  0  0  0  0  0  0  0  0  0  0  0
  183.6260  177.5800  138.8640 O   0  0  0  0  0  0  0  0  0  0  0  0
  185.5600  178.5100  137.9230 C   0  0  1  0  0  3  0  0  0  0  0  0
  185.4420  178.1920  140.8000 C   0  0  0  0  0  2  0  0  0  0  0  0
  189.5870  176.8860  138.3810 C   0  0  1  0  0  3  0  0  0  0  0  0
  187.6980  177.6470  136.9250 C   0  0  0  0  0  2  0  0  0  0  0  0
  187.4470  177.5890  139.4910 C   0  0  1  0  0  3  0  0  0  0  0  0
  188.7290  176.5180  137.1730 C   0  0  1  0  0  0  0  0  0  0  0  0
  186.9370  178.3690  140.6930 C   0  0  0  0  0  2  0  0  0  0  0  0
  184.9530  179.5820  138.6940 N   0  0  1  0  0  0  0  0  0  0  0  0
  187.0630  178.2880  138.1720 C   0  0  2  0  0  3  0  0  0  0  0  0
  182.6420  176.8520  136.7010 O   0  0  0  0  0  1  0  0  0  0  0  0
  184.0040  177.1180  136.5590 C   0  0  0  0  0  3  0  0  0  0  0  0
  184.6070  176.0580  135.8840 O   0  0  0  0  0  1  0  0  0  0  0  0
  189.3030  177.4410  134.8550 C   0  0  0  0  0  1  0  0  0  0  0  0
  189.5440  176.3220  135.8620 C   0  0  1  0  0  3  0  0  0  0  0  0
  190.9250  176.1890  136.0890 O   0  0  0  0  0  0  0  0  0  0  0  0
  191.3780  175.2290  135.1810 C   0  0  2  0  0  3  0  0  0  0  0  0
  191.5120  173.6370  136.0370 S   0  0  0  0  0  1  0  0  0  0  0  0
  192.7310  175.6280  134.6180 C   0  0  0  0  0  2  0  0  0  0  0  0
  193.6080  176.0810  135.6970 C   0  0  0  0  0  0  0  0  0  0  0  0
  194.2920  176.4380  136.5590 N   0  0  0  0  0  0  0  0  0  0  0  0
  187.9770  175.2150  137.5250 C   0  0  0  0  0  2  0  0  0  0  0  0
  186.6120  173.4970  136.5900 O   0  0  0  0  0  0  0  0  0  0  0  0
  187.8650  172.8860  136.7470 C   0  0  0  0  0  2  0  0  0  0  0  0
  187.7440  174.2960  136.3310 C   0  0  2  0  0  3  0  0  0  0  0  0
  1  2  1  6  0  0  0
  1  8  1  0  0  0  0
  4  7  2  0  0  0  0
  5  9  2  0  0  0  0
  6 22  1  6  0  0  0
  6 11  1  0  0  0  0
  8 13  1  6  0  0  0
  9 10  1  0  0  0  0
 10  7  1  0  0  0  0
 10  3  2  0  0  0  0
 11  1  1  0  0  0  0
 12  6  1  0  0  0  0
 12 20  1  0  0  0  0
 12 19  1  0  0  0  0
 14  5  1  0  0  0  0
 14  4  1  0  0  0  0
 15 17  1  0  0  0  0
 15 20  1  0  0  0  0
 16  4  1  0  0  0  0
 16 18  1  0  0  0  0
 17 32  1  0  0  0  0
 17 14  1  0  0  0  0
 18 13  1  0  0  0  0
 19  1  1  0  0  0  0
 19  8  1  0  0  0  0
 20 16  1  0  0  0  0
 22 21  1  0  0  0  0
 23 22  1  0  0  0  0
 24 25  1  0  0  0  0
 25 26  1  0  0  0  0
 25 17  1  0  0  0  0
 27 28  1  0  0  0  0
 27 26  1  0  0  0  0
 29 27  1  0  0  0  0
 29 30  1  0  0  0  0
 30 31  3  0  0  0  0
 33 34  1  0  0  0  0
 35 33  1  0  0  0  0
 35 34  1  0  0  0  0
 35 32  1  0  0  0  0
M  END
>  <MODEL>
6

>  <REMARK>
 VINA RESULT:      -6.6      4.858      7.932
  Name = 
  8 active torsions:
  status: ('A' for Active; 'I' for Inactive)
    1  A    between atoms: C_1  and  C_8
    2  A    between atoms: O_2  and  C_11
    3  A    between atoms: O_2  and  C_22
    4  A    between atoms: C_8  and  C_11
    5  A    between atoms: C_12  and  C_16
    6  A    between atoms: C_21  and  C_25
    7  A    between atoms: C_22  and  C_29
    8  A    between atoms: C_25  and  C_29
                            x       y       z     vdW  Elec       q    Type
                         _______ _______ _______ _____ _____    ______ ____

>  <TORSDO>
F 8

$$$$
=
 OpenBabel11062413433D

 35 40  0  0  1  0  0  0  0  0999 V2000
  187.1690  176.8970  135.6580 C   0  0  1  0  0  0  0  0  0  0  0  0
  188.0030  176.0810  134.6940 C   0  0  0  0  0  1  0  0  0  0  0  0
  184.9700  179.4360  143.4870 O   0  0  0  0  0  0  0  0  0  0  0  0
  184.3920  178.3590  140.1420 C   0  0  0  0  0  0  0  0  0  0  0  0
  182.3660  178.2410  141.4590 C   0  0  0  0  0  3  0  0  0  0  0  0
  184.9690  177.4320  135.6820 C   0  0  2  0  0  3  0  0  0  0  0  0
  185.0550  178.8600  141.2720 C   0  0  0  0  0  3  0  0  0  0  0  0
  187.6940  177.1670  136.9890 C   0  0  1  0  0  3  0  0  0  0  0  0
  183.0460  178.7070  142.5370 N   0  0  0  0  0  0  0  0  0  0  0  0
  184.3640  179.0180  142.4690 C   0  0  0  0  0  0  0  0  0  0  0  0
  186.2060  177.7870  135.1270 O   0  0  0  0  0  0  0  0  0  0  0  0
  185.2540  176.4770  136.8200 C   0  0  1  0  0  3  0  0  0  0  0  0
  187.1970  178.4920  137.5640 C   0  0  0  0  0  2  0  0  0  0  0  0
  183.0240  178.0420  140.2320 C   0  0  1  0  0  3  0  0  0  0  0  0
  183.1750  176.5470  138.2300 C   0  0  0  0  0  2  0  0  0  0  0  0
  185.0950  178.1670  138.8160 C   0  0  1  0  0  3  0  0  0  0  0  0
  182.3000  177.5920  138.9650 C   0  0  1  0  0  0  0  0  0  0  0  0
  186.6060  178.2870  138.9370 C   0  0  0  0  0  2  0  0  0  0  0  0
  186.6580  176.1020  136.7860 N   0  0  1  0  0  0  0  0  0  0  0  0
  184.6930  176.8060  138.2160 C   0  0  2  0  0  3  0  0  0  0  0  0
  182.8440  177.2790  134.5940 O   0  0  0  0  0  1  0  0  0  0  0  0
  184.1310  176.7390  134.6090 C   0  0  0  0  0  3  0  0  0  0  0  0
  184.0470  175.3710  134.8610 O   0  0  0  0  0  1  0  0  0  0  0  0
  179.9120  177.2220  138.1190 C   0  0  0  0  0  1  0  0  0  0  0  0
  180.9120  176.9430  139.2360 C   0  0  1  0  0  3  0  0  0  0  0  0
  180.9870  175.5570  139.4580 O   0  0  0  0  0  0  0  0  0  0  0  0
  179.6810  175.0740  139.3530 C   0  0  2  0  0  3  0  0  0  0  0  0
  178.9310  175.0650  141.0040 S   0  0  0  0  0  1  0  0  0  0  0  0
  179.6790  173.6690  138.7780 C   0  0  0  0  0  2  0  0  0  0  0  0
  180.7420  173.5340  137.7830 C   0  0  0  0  0  0  0  0  0  0  0  0
  181.5840  173.4400  136.9960 N   0  0  0  0  0  0  0  0  0  0  0  0
  182.1330  178.8370  138.0650 C   0  0  0  0  0  2  0  0  0  0  0  0
  180.5620  180.4300  138.8910 O   0  0  0  0  0  0  0  0  0  0  0  0
  181.3290  181.1570  137.9680 C   0  0  0  0  0  2  0  0  0  0  0  0
  181.9400  180.1360  138.8390 C   0  0  2  0  0  3  0  0  0  0  0  0
  1  2  1  6  0  0  0
  1 19  1  0  0  0  0
  1  8  1  0  0  0  0
  4 14  1  0  0  0  0
  4  7  2  0  0  0  0
  5  9  2  0  0  0  0
  6 22  1  6  0  0  0
  6 12  1  0  0  0  0
  7 10  1  0  0  0  0
  8 13  1  1  0  0  0
 10  9  1  0  0  0  0
 10  3  2  0  0  0  0
 11  1  1  0  0  0  0
 11  6  1  0  0  0  0
 12 20  1  0  0  0  0
 13 18  1  0  0  0  0
 14  5  1  0  0  0  0
 15 17  1  0  0  0  0
 16 18  1  0  0  0  0
 16  4  1  0  0  0  0
 17 25  1  0  0  0  0
 17 14  1  0  0  0  0
 19 12  1  0  0  0  0
 19  8  1  0  0  0  0
 20 15  1  0  0  0  0
 20 16  1  0  0  0  0
 21 22  1  0  0  0  0
 22 23  1  0  0  0  0
 24 25  1  0  0  0  0
 25 26  1  0  0  0  0
 27 26  1  0  0  0  0
 27 28  1  0  0  0  0
 29 27  1  0  0  0  0
 30 29  1  0  0  0  0
 31 30  3  0  0  0  0
 32 35  1  0  0  0  0
 32 17  1  0  0  0  0
 34 35  1  0  0  0  0
 34 33  1  0  0  0  0
 35 33  1  0  0  0  0
M  END
>  <MODEL>
7

>  <REMARK>
 VINA RESULT:      -6.3      5.831     10.026
  Name = 
  8 active torsions:
  status: ('A' for Active; 'I' for Inactive)
    1  A    between atoms: C_1  and  C_8
    2  A    between atoms: O_2  and  C_11
    3  A    between atoms: O_2  and  C_22
    4  A    between atoms: C_8  and  C_11
    5  A    between atoms: C_12  and  C_16
    6  A    between atoms: C_21  and  C_25
    7  A    between atoms: C_22  and  C_29
    8  A    between atoms: C_25  and  C_29
                            x       y       z     vdW  Elec       q    Type
                         _______ _______ _______ _____ _____    ______ ____

>  <TORSDO>
F 8

$$$$
=
 OpenBabel11062413433D

 35 40  0  0  1  0  0  0  0  0999 V2000
  181.9490  172.6870  135.8040 C   0  0  1  0  0  0  0  0  0  0  0  0
  181.1920  171.3870  135.9680 C   0  0  0  0  0  1  0  0  0  0  0  0
  189.1170  177.2780  135.4450 O   0  0  0  0  0  0  0  0  0  0  0  0
  185.7630  176.5660  136.4100 C   0  0  0  0  0  0  0  0  0  0  0  0
  186.6710  178.4010  137.6990 C   0  0  0  0  0  3  0  0  0  0  0  0
  181.5320  174.7870  136.5430 C   0  0  2  0  0  3  0  0  0  0  0  0
  186.9800  176.4970  135.7160 C   0  0  0  0  0  3  0  0  0  0  0  0
  183.3460  172.6430  135.3950 C   0  0  1  0  0  3  0  0  0  0  0  0
  187.8430  178.2900  137.0220 N   0  0  0  0  0  0  0  0  0  0  0  0
  188.0160  177.3650  136.0460 C   0  0  0  0  0  0  0  0  0  0  0  0
  181.2120  173.8660  135.5370 O   0  0  0  0  0  0  0  0  0  0  0  0
  182.7370  174.2390  137.2760 C   0  0  1  0  0  3  0  0  0  0  0  0
  183.7670  173.8730  134.5940 C   0  0  0  0  0  2  0  0  0  0  0  0
  185.6000  177.5320  137.4190 C   0  0  1  0  0  3  0  0  0  0  0  0
  183.7190  176.2370  138.4430 C   0  0  0  0  0  2  0  0  0  0  0  0
  184.6040  175.6470  136.0930 C   0  0  1  0  0  3  0  0  0  0  0  0
  184.2360  177.6540  138.0920 C   0  0  1  0  0  0  0  0  0  0  0  0
  185.0080  174.4940  135.1870 C   0  0  0  0  0  2  0  0  0  0  0  0
  182.9860  172.8780  136.8310 N   0  0  1  0  0  0  0  0  0  0  0  0
  183.9870  175.1290  137.4070 C   0  0  2  0  0  3  0  0  0  0  0  0
  180.7240  174.4990  138.7760 O   0  0  0  0  0  1  0  0  0  0  0  0
  180.3440  174.9050  137.4960 C   0  0  0  0  0  3  0  0  0  0  0  0
  179.2860  174.1090  137.0620 O   0  0  0  0  0  1  0  0  0  0  0  0
  183.7870  179.9230  139.1910 C   0  0  0  0  0  1  0  0  0  0  0  0
  184.2580  178.4890  139.4050 C   0  0  1  0  0  3  0  0  0  0  0  0
  183.5100  177.9030  140.4420 O   0  0  0  0  0  0  0  0  0  0  0  0
  183.6960  178.7150  141.5630 C   0  0  2  0  0  3  0  0  0  0  0  0
  185.2650  178.2650  142.3530 S   0  0  0  0  0  1  0  0  0  0  0  0
  182.5530  178.5320  142.5460 C   0  0  0  0  0  2  0  0  0  0  0  0
  182.9850  178.9090  143.8910 C   0  0  0  0  0  0  0  0  0  0  0  0
  183.3260  179.2190  144.9520 N   0  0  0  0  0  0  0  0  0  0  0  0
  183.2770  178.3050  137.0710 C   0  0  0  0  0  2  0  0  0  0  0  0
  181.0670  178.2300  136.1780 O   0  0  0  0  0  0  0  0  0  0  0  0
  181.0230  179.2850  137.1020 C   0  0  0  0  0  2  0  0  0  0  0  0
  181.8020  178.0600  137.3690 C   0  0  2  0  0  3  0  0  0  0  0  0
  1  2  1  1  0  0  0
  1 19  1  0  0  0  0
  3 10  2  0  0  0  0
  4 14  1  0  0  0  0
  6 12  1  0  0  0  0
  6 22  1  1  0  0  0
  7 10  1  0  0  0  0
  7  4  2  0  0  0  0
  8 13  1  6  0  0  0
  8  1  1  0  0  0  0
  8 19  1  0  0  0  0
  9  5  2  0  0  0  0
 10  9  1  0  0  0  0
 11  1  1  0  0  0  0
 11  6  1  0  0  0  0
 12 20  1  0  0  0  0
 13 18  1  0  0  0  0
 14  5  1  0  0  0  0
 14 17  1  0  0  0  0
 16  4  1  0  0  0  0
 16 20  1  0  0  0  0
 17 15  1  0  0  0  0
 17 25  1  0  0  0  0
 18 16  1  0  0  0  0
 19 12  1  0  0  0  0
 20 15  1  0  0  0  0
 22 21  1  0  0  0  0
 23 22  1  0  0  0  0
 24 25  1  0  0  0  0
 25 26  1  0  0  0  0
 26 27  1  0  0  0  0
 27 28  1  0  0  0  0
 27 29  1  0  0  0  0
 29 30  1  0  0  0  0
 30 31  3  0  0  0  0
 32 35  1  0  0  0  0
 32 17  1  0  0  0  0
 33 34  1  0  0  0  0
 33 35  1  0  0  0  0
 34 35  1  0  0  0  0
M  END
>  <MODEL>
8

>  <REMARK>
 VINA RESULT:      -6.2      6.566      9.022
  Name = 
  8 active torsions:
  status: ('A' for Active; 'I' for Inactive)
    1  A    between atoms: C_1  and  C_8
    2  A    between atoms: O_2  and  C_11
    3  A    between atoms: O_2  and  C_22
    4  A    between atoms: C_8  and  C_11
    5  A    between atoms: C_12  and  C_16
    6  A    between atoms: C_21  and  C_25
    7  A    between atoms: C_22  and  C_29
    8  A    between atoms: C_25  and  C_29
                            x       y       z     vdW  Elec       q    Type
                         _______ _______ _______ _____ _____    ______ ____

>  <TORSDO>
F 8

$$$$
=
 OpenBabel11062413433D

 35 40  0  0  1  0  0  0  0  0999 V2000
  184.5640  178.8940  144.5520 C   0  0  1  0  0  0  0  0  0  0  0  0
  183.4400  178.6900  145.5450 C   0  0  0  0  0  1  0  0  0  0  0  0
  188.1660  177.9250  136.8920 O   0  0  0  0  0  0  0  0  0  0  0  0
  188.0760  177.9890  140.4520 C   0  0  0  0  0  0  0  0  0  0  0  0
  190.1030  176.9410  139.6490 C   0  0  0  0  0  3  0  0  0  0  0  0
  186.8160  178.8520  144.7830 C   0  0  2  0  0  3  0  0  0  0  0  0
  187.6990  178.2020  139.1180 C   0  0  0  0  0  3  0  0  0  0  0  0
  184.2730  178.7950  143.1280 C   0  0  1  0  0  3  0  0  0  0  0  0
  189.6960  177.1460  138.3700 N   0  0  0  0  0  0  0  0  0  0  0  0
  188.5220  177.7620  138.0860 C   0  0  0  0  0  0  0  0  0  0  0  0
  185.6850  179.6600  144.9530 O   0  0  0  0  0  0  0  0  0  0  0  0
  186.3840  177.6540  143.9660 C   0  0  1  0  0  3  0  0  0  0  0  0
  185.1840  179.6760  142.2760 C   0  0  0  0  0  2  0  0  0  0  0  0
  189.2970  177.3480  140.7280 C   0  0  1  0  0  3  0  0  0  0  0  0
  188.5260  176.7320  143.0280 C   0  0  0  0  0  2  0  0  0  0  0  0
  187.2190  178.4470  141.6120 C   0  0  1  0  0  3  0  0  0  0  0  0
  189.7320  177.2140  142.1850 C   0  0  1  0  0  0  0  0  0  0  0  0
  185.8250  178.8690  141.1740 C   0  0  0  0  0  2  0  0  0  0  0  0
  184.9350  177.6570  143.8460 N   0  0  1  0  0  0  0  0  0  0  0  0
  187.1520  177.3290  142.6720 C   0  0  2  0  0  3  0  0  0  0  0  0
  187.3090  177.0090  146.2260 O   0  0  0  0  0  1  0  0  0  0  0  0
  187.3100  178.4030  146.1570 C   0  0  0  0  0  3  0  0  0  0  0  0
  186.4880  178.9080  147.1620 O   0  0  0  0  0  1  0  0  0  0  0  0
  192.2410  176.8970  142.5890 C   0  0  0  0  0  1  0  0  0  0  0  0
  190.8960  176.2040  142.4000 C   0  0  1  0  0  3  0  0  0  0  0  0
  190.6690  175.3260  143.4750 O   0  0  0  0  0  0  0  0  0  0  0  0
  191.6830  175.5770  144.4030 C   0  0  2  0  0  3  0  0  0  0  0  0
  192.4550  174.0020  144.8610 S   0  0  0  0  0  1  0  0  0  0  0  0
  191.1150  176.2520  145.6390 C   0  0  0  0  0  2  0  0  0  0  0  0
  192.0000  176.0300  146.7820 C   0  0  0  0  0  0  0  0  0  0  0  0
  192.6910  175.8590  147.6930 N   0  0  0  0  0  0  0  0  0  0  0  0
  190.1580  178.6190  142.6670 C   0  0  0  0  0  2  0  0  0  0  0  0
  190.6520  180.0430  144.5150 O   0  0  0  0  0  0  0  0  0  0  0  0
  191.8050  179.2550  144.3770 C   0  0  0  0  0  2  0  0  0  0  0  0
  190.4590  178.6930  144.1600 C   0  0  2  0  0  3  0  0  0  0  0  0
  1 11  1  0  0  0  0
  1  2  1  1  0  0  0
  3 10  2  0  0  0  0
  4 14  1  0  0  0  0
  4 16  1  0  0  0  0
  5 14  1  0  0  0  0
  6 11  1  0  0  0  0
  6 22  1  1  0  0  0
  7  4  2  0  0  0  0
  8 13  1  6  0  0  0
  8 19  1  0  0  0  0
  8  1  1  0  0  0  0
  9  5  2  0  0  0  0
 10  9  1  0  0  0  0
 10  7  1  0  0  0  0
 12  6  1  0  0  0  0
 14 17  1  0  0  0  0
 16 20  1  0  0  0  0
 17 25  1  0  0  0  0
 17 32  1  0  0  0  0
 17 15  1  0  0  0  0
 18 16  1  0  0  0  0
 18 13  1  0  0  0  0
 19 12  1  0  0  0  0
 19  1  1  0  0  0  0
 20 15  1  0  0  0  0
 20 12  1  0  0  0  0
 22 21  1  0  0  0  0
 22 23  1  0  0  0  0
 25 24  1  0  0  0  0
 25 26  1  0  0  0  0
 26 27  1  0  0  0  0
 27 28  1  0  0  0  0
 27 29  1  0  0  0  0
 29 30  1  0  0  0  0
 30 31  3  0  0  0  0
 32 35  1  0  0  0  0
 34 33  1  0  0  0  0
 35 34  1  0  0  0  0
 35 33  1  0  0  0  0
M  END
>  <MODEL>
9

>  <REMARK>
 VINA RESULT:      -6.2      1.677      2.003
  Name = 
  8 active torsions:
  status: ('A' for Active; 'I' for Inactive)
    1  A    between atoms: C_1  and  C_8
    2  A    between atoms: O_2  and  C_11
    3  A    between atoms: O_2  and  C_22
    4  A    between atoms: C_8  and  C_11
    5  A    between atoms: C_12  and  C_16
    6  A    between atoms: C_21  and  C_25
    7  A    between atoms: C_22  and  C_29
    8  A    between atoms: C_25  and  C_29
                            x       y       z     vdW  Elec       q    Type
                         _______ _______ _______ _____ _____    ______ ____

>  <TORSDO>
F 8

$$$$
