=
 OpenBabel11062413533D

 25 28  0  0  1  0  0  0  0  0999 V2000
  182.8460  178.2420  141.4480 C   0  0  0  0  0  2  0  0  0  0  0  0
  181.6500  177.8560  139.1710 C   0  0  1  0  0  3  0  0  0  0  0  0
  181.1910  179.3030  139.3960 C   0  0  2  0  0  3  0  0  0  0  0  0
  179.4110  179.4220  139.0700 S   0  0  0  0  0  1  0  0  0  0  0  0
  183.3810  180.3080  138.9330 C   0  0  0  0  0  2  0  0  0  0  0  0
  181.9360  180.2550  138.4810 C   0  0  0  0  0  2  0  0  0  0  0  0
  184.0680  178.9410  138.8290 C   0  0  1  0  0  3  0  0  0  0  0  0
  185.2700  178.8440  139.7710 C   0  0  0  0  0  2  0  0  0  0  0  0
  184.9520  179.3270  141.0510 O   0  0  0  0  0  0  0  0  0  0  0  0
  183.1540  177.6940  138.9480 C   0  0  1  0  0  0  0  0  0  0  0  0
  182.5520  177.2840  140.2890 C   0  0  1  0  0  3  0  0  0  0  0  0
  184.3430  178.2720  141.7470 C   0  0  1  0  0  3  0  0  0  0  0  0
  183.5060  176.5130  138.0670 C   0  0  0  0  0  1  0  0  0  0  0  0
  184.5800  178.4240  143.2180 C   0  0  0  0  0  0  0  0  0  0  0  0
  184.8910  178.7560  145.9590 C   0  0  0  0  0  3  0  0  0  0  0  0
  185.9790  178.3350  145.1940 C   0  0  0  0  0  3  0  0  0  0  0  0
  183.5200  178.8470  144.0250 C   0  0  0  0  0  3  0  0  0  0  0  0
  185.8340  178.1750  143.8080 C   0  0  0  0  0  0  0  0  0  0  0  0
  183.6950  179.0020  145.3640 N   0  0  0  0  0  0  0  0  0  0  0  0
  186.9020  177.7320  143.0120 O   0  0  0  0  0  0  0  0  0  0  0  0
  188.0200  175.7500  143.2560 O   0  0  0  0  0  0  0  0  0  0  0  0
  187.9960  176.9900  143.4740 C   0  0  0  0  0  0  0  0  0  0  0  0
  189.8600  178.4530  143.4970 O   0  0  0  0  0  0  0  0  0  0  0  0
  189.1520  177.6260  144.1300 C   0  0  0  0  0  0  0  0  0  0  0  0
  189.4460  177.3560  145.4610 O   0  0  0  0  0  1  0  0  0  0  0  0
  1 12  1  0  0  0  0
  2  3  1  0  0  0  0
  2 11  1  0  0  0  0
  4  3  1  0  0  0  0
  6  5  1  0  0  0  0
  6  3  1  0  0  0  0
  7  5  1  0  0  0  0
  7 10  1  0  0  0  0
  7  8  1  0  0  0  0
  8  9  1  0  0  0  0
  9 12  1  0  0  0  0
 10  2  1  0  0  0  0
 10 11  1  0  0  0  0
 11  1  1  0  0  0  0
 12 14  1  0  0  0  0
 13 10  1  0  0  0  0
 14 18  2  0  0  0  0
 14 17  1  0  0  0  0
 16 15  2  0  0  0  0
 17 19  2  0  0  0  0
 18 16  1  0  0  0  0
 19 15  1  0  0  0  0
 20 22  1  0  0  0  0
 20 18  1  0  0  0  0
 21 22  2  0  0  0  0
 22 24  1  0  0  0  0
 23 24  2  0  0  0  0
 24 25  1  0  0  0  0
M  END
>  <MODEL>
1

>  <REMARK>
 VINA RESULT:      -7.3      0.000      0.000
  Name = 
  4 active torsions:
  status: ('A' for Active; 'I' for Inactive)
    1  A    between atoms: C_2  and  C_22
    2  A    between atoms: O_13  and  C_20
    3  A    between atoms: O_13  and  C_24
    4  A    between atoms: C_17  and  C_20
                            x       y       z     vdW  Elec       q    Type
                         _______ _______ _______ _____ _____    ______ ____

>  <TORSDO>
F 4

$$$$
=
 OpenBabel11062413533D

 25 28  0  0  1  0  0  0  0  0999 V2000
  188.5340  177.0390  143.4080 C   0  0  0  0  0  2  0  0  0  0  0  0
  190.6090  175.9860  142.2460 C   0  0  1  0  0  3  0  0  0  0  0  0
  190.6500  177.3460  141.5360 C   0  0  2  0  0  3  0  0  0  0  0  0
  190.8810  177.0830  139.7570 S   0  0  0  0  0  1  0  0  0  0  0  0
  191.4390  178.5990  143.4930 C   0  0  0  0  0  2  0  0  0  0  0  0
  191.7810  178.2030  142.0710 C   0  0  0  0  0  2  0  0  0  0  0  0
  191.3110  177.3810  144.4160 C   0  0  1  0  0  3  0  0  0  0  0  0
  190.4440  177.6920  145.6390 C   0  0  0  0  0  2  0  0  0  0  0  0
  189.2700  178.3680  145.2690 O   0  0  0  0  0  0  0  0  0  0  0  0
  190.8890  176.0460  143.7490 C   0  0  1  0  0  0  0  0  0  0  0  0
  189.4580  175.8250  143.2660 C   0  0  1  0  0  3  0  0  0  0  0  0
  188.3410  177.3910  144.8820 C   0  0  1  0  0  3  0  0  0  0  0  0
  191.5360  174.7880  144.2890 C   0  0  0  0  0  1  0  0  0  0  0  0
  186.9480  177.8840  145.1240 C   0  0  0  0  0  0  0  0  0  0  0  0
  184.3870  178.7930  145.7060 C   0  0  0  0  0  3  0  0  0  0  0  0
  184.7330  178.5280  144.3820 C   0  0  0  0  0  3  0  0  0  0  0  0
  186.5540  178.1590  146.4360 C   0  0  0  0  0  3  0  0  0  0  0  0
  186.0190  178.0580  144.0790 C   0  0  0  0  0  0  0  0  0  0  0  0
  185.2970  178.6040  146.6980 N   0  0  0  0  0  0  0  0  0  0  0  0
  186.4060  177.8030  142.7540 O   0  0  0  0  0  0  0  0  0  0  0  0
  187.2320  179.3620  141.2960 O   0  0  0  0  0  0  0  0  0  0  0  0
  186.2410  178.6880  141.6820 C   0  0  0  0  0  0  0  0  0  0  0  0
  184.8120  179.7020  140.0860 O   0  0  0  0  0  0  0  0  0  0  0  0
  184.9700  178.7930  140.9430 C   0  0  0  0  0  0  0  0  0  0  0  0
  183.9530  177.8690  141.1530 O   0  0  0  0  0  1  0  0  0  0  0  0
  1 12  1  0  0  0  0
  2 11  1  0  0  0  0
  2 10  1  0  0  0  0
  3  6  1  0  0  0  0
  3  2  1  0  0  0  0
  4  3  1  0  0  0  0
  5  7  1  0  0  0  0
  6  5  1  0  0  0  0
  7  8  1  0  0  0  0
  9  8  1  0  0  0  0
 10 13  1  0  0  0  0
 10  7  1  0  0  0  0
 11  1  1  0  0  0  0
 11 10  1  0  0  0  0
 12 14  1  0  0  0  0
 12  9  1  0  0  0  0
 14 17  1  0  0  0  0
 15 19  1  0  0  0  0
 16 15  2  0  0  0  0
 17 19  2  0  0  0  0
 18 16  1  0  0  0  0
 18 14  2  0  0  0  0
 20 18  1  0  0  0  0
 21 22  2  0  0  0  0
 22 20  1  0  0  0  0
 23 24  2  0  0  0  0
 24 25  1  0  0  0  0
 24 22  1  0  0  0  0
M  END
>  <MODEL>
2

>  <REMARK>
 VINA RESULT:      -6.9      3.258      6.951
  Name = 
  4 active torsions:
  status: ('A' for Active; 'I' for Inactive)
    1  A    between atoms: C_2  and  C_22
    2  A    between atoms: O_13  and  C_20
    3  A    between atoms: O_13  and  C_24
    4  A    between atoms: C_17  and  C_20
                            x       y       z     vdW  Elec       q    Type
                         _______ _______ _______ _____ _____    ______ ____

>  <TORSDO>
F 4

$$$$
=
 OpenBabel11062413533D

 25 28  0  0  1  0  0  0  0  0999 V2000
  188.7480  177.8600  145.2470 C   0  0  0  0  0  2  0  0  0  0  0  0
  191.3320  177.6200  145.0710 C   0  0  1  0  0  3  0  0  0  0  0  0
  191.0170  176.1570  145.4110 C   0  0  2  0  0  3  0  0  0  0  0  0
  192.1470  175.5910  146.7120 S   0  0  0  0  0  1  0  0  0  0  0  0
  190.0620  175.6160  143.2160 C   0  0  0  0  0  2  0  0  0  0  0  0
  191.1720  175.2730  144.1890 C   0  0  0  0  0  2  0  0  0  0  0  0
  190.1420  177.0720  142.7410 C   0  0  1  0  0  3  0  0  0  0  0  0
  188.7830  177.5790  142.2520 C   0  0  0  0  0  2  0  0  0  0  0  0
  187.7600  177.2320  143.1490 O   0  0  0  0  0  0  0  0  0  0  0  0
  190.8060  178.0840  143.7110 C   0  0  1  0  0  0  0  0  0  0  0  0
  190.0930  178.5420  144.9810 C   0  0  1  0  0  3  0  0  0  0  0  0
  187.7450  178.2140  144.1510 C   0  0  1  0  0  3  0  0  0  0  0  0
  191.6530  179.1690  143.0800 C   0  0  0  0  0  1  0  0  0  0  0  0
  186.3670  178.3410  144.7250 C   0  0  0  0  0  0  0  0  0  0  0  0
  183.8560  178.5150  145.9020 C   0  0  0  0  0  3  0  0  0  0  0  0
  184.0190  178.9210  144.5790 C   0  0  0  0  0  3  0  0  0  0  0  0
  186.1540  177.9420  146.0470 C   0  0  0  0  0  3  0  0  0  0  0  0
  185.2810  178.8270  143.9720 C   0  0  0  0  0  0  0  0  0  0  0  0
  184.9180  178.0360  146.6040 N   0  0  0  0  0  0  0  0  0  0  0  0
  185.4840  179.2480  142.6490 O   0  0  0  0  0  0  0  0  0  0  0  0
  184.0530  177.7510  141.6750 O   0  0  0  0  0  0  0  0  0  0  0  0
  184.9330  178.6370  141.5160 C   0  0  0  0  0  0  0  0  0  0  0  0
  184.5660  179.8770  139.5310 O   0  0  0  0  0  0  0  0  0  0  0  0
  185.2920  179.0550  140.1490 C   0  0  0  0  0  0  0  0  0  0  0  0
  186.4510  178.5820  139.5470 O   0  0  0  0  0  1  0  0  0  0  0  0
  2  3  1  0  0  0  0
  3  4  1  0  0  0  0
  5  6  1  0  0  0  0
  6  3  1  0  0  0  0
  7  5  1  0  0  0  0
  7 10  1  0  0  0  0
  8  7  1  0  0  0  0
  8  9  1  0  0  0  0
  9 12  1  0  0  0  0
 10 11  1  0  0  0  0
 10  2  1  0  0  0  0
 11  2  1  0  0  0  0
 11  1  1  0  0  0  0
 12 14  1  0  0  0  0
 12  1  1  0  0  0  0
 13 10  1  0  0  0  0
 14 17  1  0  0  0  0
 15 19  1  0  0  0  0
 16 15  2  0  0  0  0
 17 19  2  0  0  0  0
 18 16  1  0  0  0  0
 18 14  2  0  0  0  0
 20 18  1  0  0  0  0
 22 21  2  0  0  0  0
 22 20  1  0  0  0  0
 23 24  2  0  0  0  0
 24 22  1  0  0  0  0
 25 24  1  0  0  0  0
M  END
>  <MODEL>
3

>  <REMARK>
 VINA RESULT:      -6.8      3.804      7.344
  Name = 
  4 active torsions:
  status: ('A' for Active; 'I' for Inactive)
    1  A    between atoms: C_2  and  C_22
    2  A    between atoms: O_13  and  C_20
    3  A    between atoms: O_13  and  C_24
    4  A    between atoms: C_17  and  C_20
                            x       y       z     vdW  Elec       q    Type
                         _______ _______ _______ _____ _____    ______ ____

>  <TORSDO>
F 4

$$$$
=
 OpenBabel11062413533D

 25 28  0  0  1  0  0  0  0  0999 V2000
  188.4500  177.0500  142.7540 C   0  0  0  0  0  2  0  0  0  0  0  0
  190.6940  175.9790  141.9900 C   0  0  1  0  0  3  0  0  0  0  0  0
  190.8480  177.3170  141.2530 C   0  0  2  0  0  3  0  0  0  0  0  0
  191.3750  177.0020  139.5480 S   0  0  0  0  0  1  0  0  0  0  0  0
  191.2960  178.6360  143.2740 C   0  0  0  0  0  2  0  0  0  0  0  0
  191.8720  178.1990  141.9420 C   0  0  0  0  0  2  0  0  0  0  0  0
  191.0190  177.4460  144.2000 C   0  0  1  0  0  3  0  0  0  0  0  0
  189.9590  177.7870  145.2510 C   0  0  0  0  0  2  0  0  0  0  0  0
  188.8600  178.4420  144.6690 O   0  0  0  0  0  0  0  0  0  0  0  0
  190.7170  176.0880  143.5150 C   0  0  1  0  0  0  0  0  0  0  0  0
  189.3880  175.8400  142.8070 C   0  0  1  0  0  3  0  0  0  0  0  0
  188.0120  177.4460  144.1630 C   0  0  1  0  0  3  0  0  0  0  0  0
  191.2690  174.8510  144.1950 C   0  0  0  0  0  1  0  0  0  0  0  0
  186.5970  177.9340  144.1530 C   0  0  0  0  0  0  0  0  0  0  0  0
  183.9880  178.8790  144.0020 C   0  0  0  0  0  3  0  0  0  0  0  0
  184.4780  178.4180  145.2240 C   0  0  0  0  0  3  0  0  0  0  0  0
  186.0630  178.4090  142.9520 C   0  0  0  0  0  3  0  0  0  0  0  0
  185.7970  177.9490  145.3120 C   0  0  0  0  0  0  0  0  0  0  0  0
  184.7830  178.8660  142.9010 N   0  0  0  0  0  0  0  0  0  0  0  0
  186.3140  177.4580  146.5210 O   0  0  0  0  0  0  0  0  0  0  0  0
  186.5040  179.3490  147.7960 O   0  0  0  0  0  0  0  0  0  0  0  0
  186.9810  178.2270  147.4820 C   0  0  0  0  0  0  0  0  0  0  0  0
  188.3800  176.4900  148.2820 O   0  0  0  0  0  0  0  0  0  0  0  0
  188.1720  177.7280  148.1940 C   0  0  0  0  0  0  0  0  0  0  0  0
  189.0940  178.6150  148.7350 O   0  0  0  0  0  1  0  0  0  0  0  0
  1 11  1  0  0  0  0
  1 12  1  0  0  0  0
  2 11  1  0  0  0  0
  2 10  1  0  0  0  0
  3  6  1  0  0  0  0
  3  2  1  0  0  0  0
  4  3  1  0  0  0  0
  5  7  1  0  0  0  0
  6  5  1  0  0  0  0
  7  8  1  0  0  0  0
  9  8  1  0  0  0  0
 10 13  1  0  0  0  0
 10  7  1  0  0  0  0
 11 10  1  0  0  0  0
 12  9  1  0  0  0  0
 14 12  1  0  0  0  0
 14 18  1  0  0  0  0
 15 16  1  0  0  0  0
 16 18  2  0  0  0  0
 17 14  2  0  0  0  0
 18 20  1  0  0  0  0
 19 17  1  0  0  0  0
 19 15  2  0  0  0  0
 20 22  1  0  0  0  0
 22 21  2  0  0  0  0
 22 24  1  0  0  0  0
 24 23  2  0  0  0  0
 24 25  1  0  0  0  0
M  END
>  <MODEL>
4

>  <REMARK>
 VINA RESULT:      -6.6      4.277      6.784
  Name = 
  4 active torsions:
  status: ('A' for Active; 'I' for Inactive)
    1  A    between atoms: C_2  and  C_22
    2  A    between atoms: O_13  and  C_20
    3  A    between atoms: O_13  and  C_24
    4  A    between atoms: C_17  and  C_20
                            x       y       z     vdW  Elec       q    Type
                         _______ _______ _______ _____ _____    ______ ____

>  <TORSDO>
F 4

$$$$
=
 OpenBabel11062413533D

 25 28  0  0  1  0  0  0  0  0999 V2000
  190.6790  176.3770  141.9050 C   0  0  0  0  0  2  0  0  0  0  0  0
  189.6660  176.2480  144.2970 C   0  0  1  0  0  3  0  0  0  0  0  0
  190.8660  177.1430  144.6350 C   0  0  2  0  0  3  0  0  0  0  0  0
  191.6800  176.5120  146.1260 S   0  0  0  0  0  1  0  0  0  0  0  0
  189.9630  179.1490  143.5450 C   0  0  0  0  0  2  0  0  0  0  0  0
  190.4230  178.5740  144.8700 C   0  0  0  0  0  2  0  0  0  0  0  0
  188.7630  178.3860  142.9720 C   0  0  1  0  0  3  0  0  0  0  0  0
  188.6590  178.5610  141.4550 C   0  0  0  0  0  2  0  0  0  0  0  0
  189.9090  178.3870  140.8370 O   0  0  0  0  0  0  0  0  0  0  0  0
  188.6280  176.8960  143.3790 C   0  0  1  0  0  0  0  0  0  0  0  0
  189.5680  175.8360  142.8090 C   0  0  1  0  0  3  0  0  0  0  0  0
  190.0820  177.0080  140.6480 C   0  0  1  0  0  3  0  0  0  0  0  0
  187.2220  176.3820  143.6080 C   0  0  0  0  0  1  0  0  0  0  0  0
  190.9690  176.7600  139.4670 C   0  0  0  0  0  0  0  0  0  0  0  0
  192.7210  176.3460  137.3500 C   0  0  0  0  0  3  0  0  0  0  0  0
  191.3560  176.1350  137.1580 C   0  0  0  0  0  3  0  0  0  0  0  0
  192.3450  176.9620  139.6110 C   0  0  0  0  0  3  0  0  0  0  0  0
  190.4630  176.3520  138.2180 C   0  0  0  0  0  0  0  0  0  0  0  0
  193.1840  176.7520  138.5620 N   0  0  0  0  0  0  0  0  0  0  0  0
  189.0860  176.1280  138.0650 O   0  0  0  0  0  0  0  0  0  0  0  0
  187.6280  176.5090  136.3420 O   0  0  0  0  0  0  0  0  0  0  0  0
  188.2070  176.9630  137.3640 C   0  0  0  0  0  0  0  0  0  0  0  0
  188.7070  179.2580  137.6740 O   0  0  0  0  0  0  0  0  0  0  0  0
  187.8800  178.3220  137.8310 C   0  0  0  0  0  0  0  0  0  0  0  0
  186.6450  178.5920  138.4080 O   0  0  0  0  0  1  0  0  0  0  0  0
  1 11  1  0  0  0  0
  2  3  1  0  0  0  0
  3  6  1  0  0  0  0
  3  4  1  0  0  0  0
  5  6  1  0  0  0  0
  7 10  1  0  0  0  0
  7  5  1  0  0  0  0
  8  7  1  0  0  0  0
  9  8  1  0  0  0  0
 10 13  1  0  0  0  0
 10  2  1  0  0  0  0
 11 10  1  0  0  0  0
 11  2  1  0  0  0  0
 12  9  1  0  0  0  0
 12  1  1  0  0  0  0
 14 17  1  0  0  0  0
 14 12  1  0  0  0  0
 15 19  1  0  0  0  0
 16 15  2  0  0  0  0
 16 18  1  0  0  0  0
 18 14  2  0  0  0  0
 19 17  2  0  0  0  0
 20 18  1  0  0  0  0
 21 22  2  0  0  0  0
 22 24  1  0  0  0  0
 22 20  1  0  0  0  0
 23 24  2  0  0  0  0
 24 25  1  0  0  0  0
M  END
>  <MODEL>
5

>  <REMARK>
 VINA RESULT:      -6.4      5.610      8.466
  Name = 
  4 active torsions:
  status: ('A' for Active; 'I' for Inactive)
    1  A    between atoms: C_2  and  C_22
    2  A    between atoms: O_13  and  C_20
    3  A    between atoms: O_13  and  C_24
    4  A    between atoms: C_17  and  C_20
                            x       y       z     vdW  Elec       q    Type
                         _______ _______ _______ _____ _____    ______ ____

>  <TORSDO>
F 4

$$$$
=
 OpenBabel11062413533D

 25 28  0  0  1  0  0  0  0  0999 V2000
  183.8370  177.9750  141.3990 C   0  0  0  0  0  2  0  0  0  0  0  0
  183.0920  177.8350  138.9110 C   0  0  1  0  0  3  0  0  0  0  0  0
  182.6360  176.4320  139.3360 C   0  0  2  0  0  3  0  0  0  0  0  0
  183.1920  175.2250  138.1030 S   0  0  0  0  0  1  0  0  0  0  0  0
  180.7160  177.2090  140.6530 C   0  0  0  0  0  2  0  0  0  0  0  0
  181.1260  176.3690  139.4600 C   0  0  0  0  0  2  0  0  0  0  0  0
  181.0990  178.6830  140.4770 C   0  0  1  0  0  3  0  0  0  0  0  0
  181.2200  179.3960  141.8270 C   0  0  0  0  0  2  0  0  0  0  0  0
  181.9550  178.6270  142.7430 O   0  0  0  0  0  0  0  0  0  0  0  0
  182.3220  178.9800  139.5710 C   0  0  1  0  0  0  0  0  0  0  0  0
  183.7420  178.6710  140.0370 C   0  0  1  0  0  3  0  0  0  0  0  0
  183.3120  178.8910  142.5020 C   0  0  1  0  0  3  0  0  0  0  0  0
  182.2360  180.2210  138.7060 C   0  0  0  0  0  1  0  0  0  0  0  0
  184.1020  178.7010  143.7600 C   0  0  0  0  0  0  0  0  0  0  0  0
  185.4640  178.4010  146.1640 C   0  0  0  0  0  3  0  0  0  0  0  0
  186.1110  178.0880  144.9690 C   0  0  0  0  0  3  0  0  0  0  0  0
  183.4970  179.0040  144.9820 C   0  0  0  0  0  3  0  0  0  0  0  0
  185.4350  178.2470  143.7500 C   0  0  0  0  0  0  0  0  0  0  0  0
  184.1810  178.8490  146.1470 N   0  0  0  0  0  0  0  0  0  0  0  0
  186.0500  177.9210  142.5300 O   0  0  0  0  0  0  0  0  0  0  0  0
  187.7670  178.9960  141.4650 O   0  0  0  0  0  0  0  0  0  0  0  0
  187.4130  178.0760  142.2490 C   0  0  0  0  0  0  0  0  0  0  0  0
  188.3010  176.0050  142.9800 O   0  0  0  0  0  0  0  0  0  0  0  0
  188.4450  177.2530  142.9030 C   0  0  0  0  0  0  0  0  0  0  0  0
  189.6030  177.8370  143.4010 O   0  0  0  0  0  1  0  0  0  0  0  0
  1 12  1  0  0  0  0
  2  3  1  0  0  0  0
  2 10  1  0  0  0  0
  2 11  1  0  0  0  0
  3  6  1  0  0  0  0
  4  3  1  0  0  0  0
  6  5  1  0  0  0  0
  7  5  1  0  0  0  0
  7  8  1  0  0  0  0
  8  9  1  0  0  0  0
 10 11  1  0  0  0  0
 10  7  1  0  0  0  0
 11  1  1  0  0  0  0
 12  9  1  0  0  0  0
 12 14  1  0  0  0  0
 13 10  1  0  0  0  0
 14 17  1  0  0  0  0
 16 15  2  0  0  0  0
 17 19  2  0  0  0  0
 18 14  2  0  0  0  0
 18 16  1  0  0  0  0
 19 15  1  0  0  0  0
 20 18  1  0  0  0  0
 21 22  2  0  0  0  0
 22 20  1  0  0  0  0
 22 24  1  0  0  0  0
 24 23  2  0  0  0  0
 24 25  1  0  0  0  0
M  END
>  <MODEL>
6

>  <REMARK>
 VINA RESULT:      -6.3      1.756      2.742
  Name = 
  4 active torsions:
  status: ('A' for Active; 'I' for Inactive)
    1  A    between atoms: C_2  and  C_22
    2  A    between atoms: O_13  and  C_20
    3  A    between atoms: O_13  and  C_24
    4  A    between atoms: C_17  and  C_20
                            x       y       z     vdW  Elec       q    Type
                         _______ _______ _______ _____ _____    ______ ____

>  <TORSDO>
F 4

$$$$
=
 OpenBabel11062413533D

 25 28  0  0  1  0  0  0  0  0999 V2000
  188.9010  176.5220  138.7220 C   0  0  0  0  0  2  0  0  0  0  0  0
  187.9750  175.7430  136.4190 C   0  0  1  0  0  3  0  0  0  0  0  0
  186.6260  175.9120  137.1320 C   0  0  2  0  0  3  0  0  0  0  0  0
  185.5970  174.4540  136.8120 S   0  0  0  0  0  1  0  0  0  0  0  0
  186.6760  178.3660  137.1300 C   0  0  0  0  0  2  0  0  0  0  0  0
  185.9070  177.1540  136.6420 C   0  0  0  0  0  2  0  0  0  0  0  0
  188.1010  178.4090  136.5660 C   0  0  1  0  0  3  0  0  0  0  0  0
  189.0290  179.2460  137.4500 C   0  0  0  0  0  2  0  0  0  0  0  0
  188.8640  178.9230  138.8070 O   0  0  0  0  0  0  0  0  0  0  0  0
  188.7460  177.0460  136.2020 C   0  0  1  0  0  0  0  0  0  0  0  0
  189.2100  176.0790  137.2880 C   0  0  1  0  0  3  0  0  0  0  0  0
  189.6660  177.8000  139.0600 C   0  0  1  0  0  3  0  0  0  0  0  0
  189.6260  177.0230  134.9700 C   0  0  0  0  0  1  0  0  0  0  0  0
  190.0950  177.7890  140.4950 C   0  0  0  0  0  0  0  0  0  0  0  0
  191.0050  177.7040  143.1190 C   0  0  0  0  0  3  0  0  0  0  0  0
  189.7250  178.1920  142.8550 C   0  0  0  0  0  3  0  0  0  0  0  0
  191.3680  177.3050  140.8080 C   0  0  0  0  0  3  0  0  0  0  0  0
  189.2530  178.2280  141.5350 C   0  0  0  0  0  0  0  0  0  0  0  0
  191.7930  177.2730  142.0990 N   0  0  0  0  0  0  0  0  0  0  0  0
  187.9790  178.7340  141.2330 O   0  0  0  0  0  0  0  0  0  0  0  0
  186.8410  177.4920  142.7820 O   0  0  0  0  0  0  0  0  0  0  0  0
  186.7970  178.3890  141.9000 C   0  0  0  0  0  0  0  0  0  0  0  0
  184.7490  179.3390  142.6200 O   0  0  0  0  0  1  0  0  0  0  0  0
  185.5280  179.0990  141.6600 C   0  0  0  0  0  0  0  0  0  0  0  0
  185.1990  179.5460  140.3860 O   0  0  0  0  0  0  0  0  0  0  0  0
  1 12  1  0  0  0  0
  2  3  1  0  0  0  0
  2 11  1  0  0  0  0
  4  3  1  0  0  0  0
  6  5  1  0  0  0  0
  6  3  1  0  0  0  0
  7  5  1  0  0  0  0
  7  8  1  0  0  0  0
  8  9  1  0  0  0  0
  9 12  1  0  0  0  0
 10  2  1  0  0  0  0
 10  7  1  0  0  0  0
 10 11  1  0  0  0  0
 11  1  1  0  0  0  0
 12 14  1  0  0  0  0
 13 10  1  0  0  0  0
 14 17  2  0  0  0  0
 14 18  1  0  0  0  0
 16 15  1  0  0  0  0
 17 19  1  0  0  0  0
 18 16  2  0  0  0  0
 19 15  2  0  0  0  0
 20 18  1  0  0  0  0
 20 22  1  0  0  0  0
 22 21  2  0  0  0  0
 24 22  1  0  0  0  0
 24 23  1  0  0  0  0
 25 24  2  0  0  0  0
M  END
>  <MODEL>
7

>  <REMARK>
 VINA RESULT:      -6.2      4.288      5.957
  Name = 
  4 active torsions:
  status: ('A' for Active; 'I' for Inactive)
    1  A    between atoms: C_2  and  C_22
    2  A    between atoms: O_13  and  C_20
    3  A    between atoms: O_13  and  C_24
    4  A    between atoms: C_17  and  C_20
                            x       y       z     vdW  Elec       q    Type
                         _______ _______ _______ _____ _____    ______ ____

>  <TORSDO>
F 4

$$$$
=
 OpenBabel11062413533D

 25 28  0  0  1  0  0  0  0  0999 V2000
  183.3790  179.1490  138.8880 C   0  0  0  0  0  2  0  0  0  0  0  0
  181.0340  179.6790  137.8950 C   0  0  1  0  0  3  0  0  0  0  0  0
  181.1320  178.2250  137.4140 C   0  0  2  0  0  3  0  0  0  0  0  0
  180.6480  178.1400  135.6690 S   0  0  0  0  0  1  0  0  0  0  0  0
  180.8000  177.2300  139.6330 C   0  0  0  0  0  2  0  0  0  0  0  0
  180.2290  177.3220  138.2320 C   0  0  0  0  0  2  0  0  0  0  0  0
  180.8370  178.5960  140.3300 C   0  0  1  0  0  3  0  0  0  0  0  0
  181.8840  178.6270  141.4470 C   0  0  0  0  0  2  0  0  0  0  0  0
  183.1000  178.0720  141.0170 O   0  0  0  0  0  0  0  0  0  0  0  0
  180.9510  179.8410  139.4140 C   0  0  1  0  0  0  0  0  0  0  0  0
  182.2580  180.1760  138.6990 C   0  0  1  0  0  3  0  0  0  0  0  0
  183.8030  179.0890  140.3540 C   0  0  1  0  0  3  0  0  0  0  0  0
  180.1760  181.0690  139.8430 C   0  0  0  0  0  1  0  0  0  0  0  0
  185.2770  178.8480  140.4620 C   0  0  0  0  0  0  0  0  0  0  0  0
  188.0120  178.3630  140.5310 C   0  0  0  0  0  3  0  0  0  0  0  0
  187.3520  178.7190  141.7060 C   0  0  0  0  0  3  0  0  0  0  0  0
  185.9810  178.4860  139.3110 C   0  0  0  0  0  3  0  0  0  0  0  0
  185.9700  178.9560  141.6840 C   0  0  0  0  0  0  0  0  0  0  0  0
  187.3190  178.2540  139.3670 N   0  0  0  0  0  0  0  0  0  0  0  0
  185.2790  179.3370  142.8440 O   0  0  0  0  0  0  0  0  0  0  0  0
  186.0930  177.7280  144.2540 O   0  0  0  0  0  0  0  0  0  0  0  0
  185.1930  178.5760  144.0170 C   0  0  0  0  0  0  0  0  0  0  0  0
  182.9640  179.0780  144.6420 O   0  0  0  0  0  0  0  0  0  0  0  0
  184.1320  178.7950  145.0160 C   0  0  0  0  0  0  0  0  0  0  0  0
  184.3980  178.6520  146.3720 O   0  0  0  0  0  1  0  0  0  0  0  0
  1 12  1  0  0  0  0
  2 11  1  0  0  0  0
  2 10  1  0  0  0  0
  3  2  1  0  0  0  0
  3  6  1  0  0  0  0
  4  3  1  0  0  0  0
  5  7  1  0  0  0  0
  6  5  1  0  0  0  0
  7  8  1  0  0  0  0
  9  8  1  0  0  0  0
 10 13  1  0  0  0  0
 10  7  1  0  0  0  0
 11  1  1  0  0  0  0
 11 10  1  0  0  0  0
 12 14  1  0  0  0  0
 12  9  1  0  0  0  0
 14 18  1  0  0  0  0
 15 16  1  0  0  0  0
 17 19  1  0  0  0  0
 17 14  2  0  0  0  0
 18 16  2  0  0  0  0
 18 20  1  0  0  0  0
 19 15  2  0  0  0  0
 20 22  1  0  0  0  0
 22 21  2  0  0  0  0
 22 24  1  0  0  0  0
 23 24  2  0  0  0  0
 24 25  1  0  0  0  0
M  END
>  <MODEL>
8

>  <REMARK>
 VINA RESULT:      -6.1      2.461      4.127
  Name = 
  4 active torsions:
  status: ('A' for Active; 'I' for Inactive)
    1  A    between atoms: C_2  and  C_22
    2  A    between atoms: O_13  and  C_20
    3  A    between atoms: O_13  and  C_24
    4  A    between atoms: C_17  and  C_20
                            x       y       z     vdW  Elec       q    Type
                         _______ _______ _______ _____ _____    ______ ____

>  <TORSDO>
F 4

$$$$
=
 OpenBabel11062413533D

 25 28  0  0  1  0  0  0  0  0999 V2000
  187.9370  176.4870  138.3280 C   0  0  0  0  0  2  0  0  0  0  0  0
  188.4600  175.5020  135.9780 C   0  0  1  0  0  3  0  0  0  0  0  0
  186.9880  175.8550  135.7250 C   0  0  2  0  0  3  0  0  0  0  0  0
  186.1650  174.4490  134.9300 S   0  0  0  0  0  1  0  0  0  0  0  0
  187.3530  178.2800  135.6210 C   0  0  0  0  0  2  0  0  0  0  0  0
  186.8700  177.0780  134.8350 C   0  0  0  0  0  2  0  0  0  0  0  0
  188.8250  178.1490  136.0270 C   0  0  1  0  0  3  0  0  0  0  0  0
  189.1510  179.0180  137.2450 C   0  0  0  0  0  2  0  0  0  0  0  0
  188.1740  178.8760  138.2450 O   0  0  0  0  0  0  0  0  0  0  0  0
  189.3740  176.7090  136.1990 C   0  0  1  0  0  0  0  0  0  0  0  0
  188.9720  175.8500  137.3950 C   0  0  1  0  0  3  0  0  0  0  0  0
  188.5140  177.7370  138.9890 C   0  0  1  0  0  3  0  0  0  0  0  0
  190.7990  176.4710  135.7470 C   0  0  0  0  0  1  0  0  0  0  0  0
  188.0040  177.8690  140.3910 C   0  0  0  0  0  0  0  0  0  0  0  0
  186.9550  178.1920  142.9440 C   0  0  0  0  0  3  0  0  0  0  0  0
  188.1650  177.5180  142.7830 C   0  0  0  0  0  3  0  0  0  0  0  0
  186.7970  178.5410  140.6020 C   0  0  0  0  0  3  0  0  0  0  0  0
  188.7080  177.3590  141.4990 C   0  0  0  0  0  0  0  0  0  0  0  0
  186.3020  178.6870  141.8600 N   0  0  0  0  0  0  0  0  0  0  0  0
  189.9120  176.6660  141.3000 O   0  0  0  0  0  0  0  0  0  0  0  0
  191.9240  177.6490  140.8260 O   0  0  0  0  0  0  0  0  0  0  0  0
  191.1770  177.1210  141.6920 C   0  0  0  0  0  0  0  0  0  0  0  0
  191.8120  178.1460  143.7310 O   0  0  0  0  0  0  0  0  0  0  0  0
  191.6250  177.0760  143.0950 C   0  0  0  0  0  0  0  0  0  0  0  0
  191.8030  175.8590  143.7410 O   0  0  0  0  0  1  0  0  0  0  0  0
  1 12  1  0  0  0  0
  2 10  1  0  0  0  0
  2 11  1  0  0  0  0
  3  2  1  0  0  0  0
  4  3  1  0  0  0  0
  5  7  1  0  0  0  0
  6  5  1  0  0  0  0
  6  3  1  0  0  0  0
  7 10  1  0  0  0  0
  7  8  1  0  0  0  0
  8  9  1  0  0  0  0
  9 12  1  0  0  0  0
 10 11  1  0  0  0  0
 11  1  1  0  0  0  0
 12 14  1  0  0  0  0
 13 10  1  0  0  0  0
 14 17  2  0  0  0  0
 14 18  1  0  0  0  0
 16 15  1  0  0  0  0
 17 19  1  0  0  0  0
 18 16  2  0  0  0  0
 19 15  2  0  0  0  0
 20 18  1  0  0  0  0
 20 22  1  0  0  0  0
 21 22  2  0  0  0  0
 22 24  1  0  0  0  0
 24 23  2  0  0  0  0
 24 25  1  0  0  0  0
M  END
>  <MODEL>
9

>  <REMARK>
 VINA RESULT:      -6.0      4.377      5.492
  Name = 
  4 active torsions:
  status: ('A' for Active; 'I' for Inactive)
    1  A    between atoms: C_2  and  C_22
    2  A    between atoms: O_13  and  C_20
    3  A    between atoms: O_13  and  C_24
    4  A    between atoms: C_17  and  C_20
                            x       y       z     vdW  Elec       q    Type
                         _______ _______ _______ _____ _____    ______ ____

>  <TORSDO>
F 4

$$$$
