=
 OpenBabel11062416233D

 29 34  0  0  1  0  0  0  0  0999 V2000
  183.4560  178.6780  143.5270 C   0  0  0  0  0  0  0  0  0  0  0  0
  186.2260  178.1980  143.3330 C   0  0  0  0  0  0  0  0  0  0  0  0
  180.6300  179.2250  141.4120 C   0  0  0  0  0  3  0  0  0  0  0  0
  185.4250  178.2880  142.1590 C   0  0  0  0  0  3  0  0  0  0  0  0
  180.9490  179.2190  144.1180 C   0  0  0  0  0  3  0  0  0  0  0  0
  186.0750  178.2460  145.8080 C   0  0  0  0  0  3  0  0  0  0  0  0
  181.9700  178.9170  141.9430 C   0  0  0  0  0  0  0  0  0  0  0  0
  184.9350  178.4660  146.7650 C   0  0  0  0  0  2  0  0  0  0  0  0
  184.0510  178.5330  142.2880 C   0  0  0  0  0  0  0  0  0  0  0  0
  185.5650  178.3320  144.5900 C   0  0  0  0  0  0  0  0  0  0  0  0
  184.2130  178.5750  144.6830 C   0  0  0  0  0  0  0  0  0  0  0  0
  182.1240  178.9200  143.2850 C   0  0  0  0  0  0  0  0  0  0  0  0
  183.1360  178.6770  141.3010 N   0  0  0  0  0  0  0  0  0  0  0  0
  183.7800  178.6640  145.8920 N   0  0  0  0  0  0  0  0  0  0  0  0
  179.5820  179.4860  142.9080 S   0  0  0  0  0  0  0  0  0  0  0  0
  188.5570  177.4870  140.7620 C   0  0  0  0  0  2  0  0  0  0  0  0
  190.6910  177.2630  142.2670 C   0  0  2  0  0  3  0  0  0  0  0  0
  190.2020  175.8900  142.6240 C   0  0  0  0  0  2  0  0  0  0  0  0
  189.7490  178.1820  141.4180 C   0  0  2  0  0  3  0  0  0  0  0  0
  187.8440  176.3720  143.3920 C   0  0  0  0  0  2  0  0  0  0  0  0
  187.7070  177.8700  143.2280 C   0  0  1  0  0  0  0  0  0  0  0  0
  189.0120  175.9140  143.1080 C   0  0  0  0  0  2  0  0  0  0  0  0
  188.3000  178.4790  141.8930 C   0  0  2  0  0  3  0  0  0  0  0  0
  192.0450  177.1610  141.5980 C   0  0  0  0  0  1  0  0  0  0  0  0
  188.3840  178.4920  144.2830 O   0  0  0  0  0  1  0  0  0  0  0  0
  183.4130  178.6400  139.5900 S   0  0  0  0  0  0  0  0  0  0  0  0
  183.8870  177.2730  139.1830 O   0  0  0  0  0  0  0  0  0  0  0  0
  182.1350  178.9470  138.8600 O   0  0  0  0  0  0  0  0  0  0  0  0
  184.6090  179.8150  139.1740 N   0  0  0  0  0  1  0  0  0  0  0  0
  1 11  1  0  0  0  0
  2 10  1  0  0  0  0
  3  7  2  0  0  0  0
  3 15  1  0  0  0  0
  4  9  1  0  0  0  0
  4  2  2  0  0  0  0
  6  8  1  0  0  0  0
  7 12  1  0  0  0  0
  9  1  2  0  0  0  0
 10 11  1  0  0  0  0
 10  6  2  0  0  0  0
 11 14  2  0  0  0  0
 12  1  1  0  0  0  0
 12  5  2  0  0  0  0
 13  7  1  0  0  0  0
 13  9  1  0  0  0  0
 14  8  1  0  0  0  0
 15  5  1  0  0  0  0
 17 24  1  6  0  0  0
 17 18  1  0  0  0  0
 18 22  1  0  0  0  0
 19 16  1  6  0  0  0
 19 23  1  0  0  0  0
 19 17  1  0  0  0  0
 21  2  1  0  0  0  0
 21 20  1  0  0  0  0
 21 25  1  1  0  0  0
 22 20  1  0  0  0  0
 23 16  1  6  0  0  0
 23 21  1  0  0  0  0
 26 13  1  0  0  0  0
 27 26  2  0  0  0  0
 28 26  2  0  0  0  0
 29 26  1  0  0  0  0
M  END
>  <MODEL>
1

>  <REMARK>
 VINA RESULT:      -9.5      0.000      0.000
  Name = 
  2 active torsions:
  status: ('A' for Active; 'I' for Inactive)
    1  A    between atoms: C_2  and  C_14
    2  A    between atoms: S_5  and  N_23
                            x       y       z     vdW  Elec       q    Type
                         _______ _______ _______ _____ _____    ______ ____

>  <TORSDO>
F 2

$$$$
=
 OpenBabel11062416233D

 29 34  0  0  1  0  0  0  0  0999 V2000
  188.2430  177.7740  138.8700 C   0  0  0  0  0  0  0  0  0  0  0  0
  189.0790  177.2380  141.5070 C   0  0  0  0  0  0  0  0  0  0  0  0
  189.3820  177.3510  135.5110 C   0  0  0  0  0  3  0  0  0  0  0  0
  189.8620  176.8060  140.4000 C   0  0  0  0  0  3  0  0  0  0  0  0
  187.1790  178.5380  136.5870 C   0  0  0  0  0  3  0  0  0  0  0  0
  186.9460  178.3750  142.0640 C   0  0  0  0  0  3  0  0  0  0  0  0
  189.2240  177.3000  136.9750 C   0  0  0  0  0  0  0  0  0  0  0  0
  185.8650  179.0030  141.2270 C   0  0  0  0  0  2  0  0  0  0  0  0
  189.4240  177.0930  139.1000 C   0  0  0  0  0  0  0  0  0  0  0  0
  187.8580  177.9180  141.2210 C   0  0  0  0  0  0  0  0  0  0  0  0
  187.4550  178.1860  139.9320 C   0  0  0  0  0  0  0  0  0  0  0  0
  188.1320  177.8940  137.5050 C   0  0  0  0  0  0  0  0  0  0  0  0
  190.0360  176.7930  137.9310 N   0  0  0  0  0  0  0  0  0  0  0  0
  186.3280  178.8030  139.8550 N   0  0  0  0  0  0  0  0  0  0  0  0
  187.8900  178.2530  134.9090 S   0  0  0  0  0  0  0  0  0  0  0  0
  190.8270  178.7950  144.1660 C   0  0  0  0  0  2  0  0  0  0  0  0
  190.5710  176.8770  145.9330 C   0  0  2  0  0  3  0  0  0  0  0  0
  191.6800  176.1680  145.2110 C   0  0  0  0  0  2  0  0  0  0  0  0
  189.9960  178.1850  145.2950 C   0  0  2  0  0  3  0  0  0  0  0  0
  190.8260  176.1690  142.8350 C   0  0  0  0  0  2  0  0  0  0  0  0
  189.4970  176.8870  142.9270 C   0  0  1  0  0  0  0  0  0  0  0  0
  191.4160  176.0030  143.9660 C   0  0  0  0  0  2  0  0  0  0  0  0
  189.4690  178.1830  143.8330 C   0  0  2  0  0  3  0  0  0  0  0  0
  190.9870  177.1450  147.3640 C   0  0  0  0  0  1  0  0  0  0  0  0
  188.5570  176.0030  143.4680 O   0  0  0  0  0  1  0  0  0  0  0  0
  191.5630  176.0020  137.7100 S   0  0  0  0  0  0  0  0  0  0  0  0
  191.4380  174.5490  138.0710 O   0  0  0  0  0  0  0  0  0  0  0  0
  191.9890  176.1090  136.2720 O   0  0  0  0  0  0  0  0  0  0  0  0
  192.7500  176.7490  138.7180 N   0  0  0  0  0  1  0  0  0  0  0  0
  1  9  2  0  0  0  0
  1 11  1  0  0  0  0
  2 21  1  0  0  0  0
  3  7  2  0  0  0  0
  4  2  2  0  0  0  0
  5 12  2  0  0  0  0
  7 12  1  0  0  0  0
  7 13  1  0  0  0  0
  8  6  1  0  0  0  0
  9  4  1  0  0  0  0
 10  2  1  0  0  0  0
 10  6  2  0  0  0  0
 11 10  1  0  0  0  0
 12  1  1  0  0  0  0
 13  9  1  0  0  0  0
 14 11  2  0  0  0  0
 14  8  1  0  0  0  0
 15  3  1  0  0  0  0
 15  5  1  0  0  0  0
 17 24  1  1  0  0  0
 18 17  1  0  0  0  0
 19 16  1  6  0  0  0
 19 17  1  0  0  0  0
 20 21  1  0  0  0  0
 20 22  1  0  0  0  0
 21 25  1  1  0  0  0
 21 23  1  0  0  0  0
 22 18  1  0  0  0  0
 23 16  1  6  0  0  0
 23 19  1  0  0  0  0
 26 13  1  0  0  0  0
 26 27  2  0  0  0  0
 26 29  1  0  0  0  0
 28 26  2  0  0  0  0
M  END
>  <MODEL>
2

>  <REMARK>
 VINA RESULT:      -9.4      4.352      6.630
  Name = 
  2 active torsions:
  status: ('A' for Active; 'I' for Inactive)
    1  A    between atoms: C_2  and  C_14
    2  A    between atoms: S_5  and  N_23
                            x       y       z     vdW  Elec       q    Type
                         _______ _______ _______ _____ _____    ______ ____

>  <TORSDO>
F 2

$$$$
=
 OpenBabel11062416233D

 29 34  0  0  1  0  0  0  0  0999 V2000
  186.5990  178.0230  144.3560 C   0  0  0  0  0  0  0  0  0  0  0  0
  185.3440  178.3120  141.8490 C   0  0  0  0  0  0  0  0  0  0  0  0
  189.7520  177.0600  145.7300 C   0  0  0  0  0  3  0  0  0  0  0  0
  186.7190  177.9500  141.9300 C   0  0  0  0  0  3  0  0  0  0  0  0
  187.3750  177.7690  146.8580 C   0  0  0  0  0  3  0  0  0  0  0  0
  183.4010  178.9290  143.2600 C   0  0  0  0  0  3  0  0  0  0  0  0
  188.6510  177.4380  144.8260 C   0  0  0  0  0  0  0  0  0  0  0  0
  183.1980  179.0220  144.7480 C   0  0  0  0  0  2  0  0  0  0  0  0
  187.3130  177.8080  143.1920 C   0  0  0  0  0  0  0  0  0  0  0  0
  184.6540  178.5450  143.0750 C   0  0  0  0  0  0  0  0  0  0  0  0
  185.2650  178.3960  144.2990 C   0  0  0  0  0  0  0  0  0  0  0  0
  187.4730  177.7850  145.3890 C   0  0  0  0  0  0  0  0  0  0  0  0
  188.5870  177.4470  143.4750 N   0  0  0  0  0  0  0  0  0  0  0  0
  184.4990  178.6500  145.3010 N   0  0  0  0  0  0  0  0  0  0  0  0
  189.0520  177.2520  147.4260 S   0  0  0  0  0  0  0  0  0  0  0  0
  182.9830  176.6500  139.7960 C   0  0  0  0  0  2  0  0  0  0  0  0
  182.8860  178.4170  137.8620 C   0  0  2  0  0  3  0  0  0  0  0  0
  184.1800  177.8370  137.3710 C   0  0  0  0  0  2  0  0  0  0  0  0
  182.3280  177.9120  139.2360 C   0  0  2  0  0  3  0  0  0  0  0  0
  185.6080  177.9380  139.4510 C   0  0  0  0  0  2  0  0  0  0  0  0
  184.6890  178.5350  140.4950 C   0  0  1  0  0  0  0  0  0  0  0  0
  185.0890  177.8510  138.2770 C   0  0  0  0  0  2  0  0  0  0  0  0
  183.2080  177.9780  140.5150 C   0  0  2  0  0  3  0  0  0  0  0  0
  181.8240  178.2680  136.7940 C   0  0  0  0  0  1  0  0  0  0  0  0
  184.5930  179.9110  140.2600 O   0  0  0  0  0  1  0  0  0  0  0  0
  189.8370  177.0170  142.3540 S   0  0  0  0  0  0  0  0  0  0  0  0
  190.1690  175.5580  142.5000 O   0  0  0  0  0  0  0  0  0  0  0  0
  189.3700  177.2690  140.9480 O   0  0  0  0  0  0  0  0  0  0  0  0
  191.2470  177.9650  142.6710 N   0  0  0  0  0  1  0  0  0  0  0  0
  1 12  1  0  0  0  0
  2  4  2  0  0  0  0
  2 10  1  0  0  0  0
  3 15  1  0  0  0  0
  4  9  1  0  0  0  0
  5 15  1  0  0  0  0
  6  8  1  0  0  0  0
  7 12  1  0  0  0  0
  7  3  2  0  0  0  0
  8 14  1  0  0  0  0
  9 13  1  0  0  0  0
  9  1  2  0  0  0  0
 10  6  2  0  0  0  0
 10 11  1  0  0  0  0
 11  1  1  0  0  0  0
 11 14  2  0  0  0  0
 12  5  2  0  0  0  0
 13  7  1  0  0  0  0
 17 24  1  6  0  0  0
 17 19  1  0  0  0  0
 18 17  1  0  0  0  0
 18 22  1  0  0  0  0
 19 16  1  6  0  0  0
 19 23  1  0  0  0  0
 20 21  1  0  0  0  0
 21 25  1  6  0  0  0
 21 23  1  0  0  0  0
 21  2  1  0  0  0  0
 22 20  1  0  0  0  0
 23 16  1  6  0  0  0
 26 27  2  0  0  0  0
 26 29  1  0  0  0  0
 26 13  1  0  0  0  0
 28 26  2  0  0  0  0
M  END
>  <MODEL>
3

>  <REMARK>
 VINA RESULT:      -9.3      3.779      6.407
  Name = 
  2 active torsions:
  status: ('A' for Active; 'I' for Inactive)
    1  A    between atoms: C_2  and  C_14
    2  A    between atoms: S_5  and  N_23
                            x       y       z     vdW  Elec       q    Type
                         _______ _______ _______ _____ _____    ______ ____

>  <TORSDO>
F 2

$$$$
=
 OpenBabel11062416233D

 29 34  0  0  1  0  0  0  0  0999 V2000
  187.5020  177.9540  143.4360 C   0  0  0  0  0  0  0  0  0  0  0  0
  188.2790  177.9670  140.7270 C   0  0  0  0  0  0  0  0  0  0  0  0
  188.8680  177.2460  146.6590 C   0  0  0  0  0  3  0  0  0  0  0  0
  189.2260  177.6700  141.7470 C   0  0  0  0  0  3  0  0  0  0  0  0
  186.3760  177.9550  145.8150 C   0  0  0  0  0  3  0  0  0  0  0  0
  185.9120  178.6280  140.3910 C   0  0  0  0  0  3  0  0  0  0  0  0
  188.6790  177.4970  145.2190 C   0  0  0  0  0  0  0  0  0  0  0  0
  184.7610  178.8440  141.3350 C   0  0  0  0  0  3  0  0  0  0  0  0
  188.8080  177.6650  143.0860 C   0  0  2  0  0  3  0  0  0  0  0  0
  186.9490  178.2800  141.1360 C   0  0  0  0  0  0  0  0  0  0  0  0
  186.5690  178.2660  142.4590 C   0  0  0  0  0  0  0  0  0  0  0  0
  187.4410  177.8440  144.8040 C   0  0  0  0  0  0  0  0  0  0  0  0
  189.5440  177.3830  144.1860 N   0  0  0  0  0  0  0  0  0  0  0  0
  185.3350  178.5760  142.6520 N   0  0  0  0  0  0  0  0  0  0  0  0
  187.2120  177.5600  147.4110 S   0  0  0  0  0  0  0  0  0  0  0  0
  187.5630  176.2660  137.7030 C   0  0  0  0  0  2  0  0  0  0  0  0
  189.0770  177.7030  136.1180 C   0  0  2  0  0  3  0  0  0  0  0  0
  190.2420  176.9160  136.6430 C   0  0  0  0  0  2  0  0  0  0  0  0
  187.6800  177.4870  136.7910 C   0  0  2  0  0  3  0  0  0  0  0  0
  189.9620  177.1910  139.1380 C   0  0  0  0  0  2  0  0  0  0  0  0
  188.7170  178.0420  139.2720 C   0  0  1  0  0  0  0  0  0  0  0  0
  190.3260  176.9750  137.9230 C   0  0  0  0  0  2  0  0  0  0  0  0
  187.5090  177.6590  138.3250 C   0  0  2  0  0  3  0  0  0  0  0  0
  188.9610  177.5020  134.6220 C   0  0  0  0  0  1  0  0  0  0  0  0
  189.0550  179.3660  138.9700 O   0  0  0  0  0  1  0  0  0  0  0  0
  191.2100  176.9060  144.2490 S   0  0  0  0  0  0  0  0  0  0  0  0
  191.3780  175.5650  143.5940 O   0  0  0  0  0  0  0  0  0  0  0  0
  192.0550  177.9120  143.5190 O   0  0  0  0  0  0  0  0  0  0  0  0
  191.7200  176.8130  145.8970 N   0  0  0  0  0  1  0  0  0  0  0  0
  1 12  1  0  0  0  0
  2 10  1  0  0  0  0
  2  4  2  0  0  0  0
  3 15  1  0  0  0  0
  5 15  1  0  0  0  0
  6 10  2  0  0  0  0
  6  8  1  0  0  0  0
  7  3  2  0  0  0  0
  8 14  2  0  0  0  0
  9  4  1  6  0  0  0
  9  1  1  0  0  0  0
  9 13  1  0  0  0  0
 10 11  1  0  0  0  0
 11 14  1  0  0  0  0
 11  1  2  0  0  0  0
 12  7  1  0  0  0  0
 12  5  2  0  0  0  0
 13 26  1  0  0  0  0
 13  7  1  0  0  0  0
 17 24  1  6  0  0  0
 17 18  1  0  0  0  0
 17 19  1  0  0  0  0
 18 22  1  0  0  0  0
 19 16  1  1  0  0  0
 19 23  1  0  0  0  0
 20 21  1  0  0  0  0
 21 25  1  6  0  0  0
 21  2  1  0  0  0  0
 22 20  1  0  0  0  0
 23 16  1  1  0  0  0
 23 21  1  0  0  0  0
 26 29  1  0  0  0  0
 27 26  2  0  0  0  0
 28 26  2  0  0  0  0
M  END
>  <MODEL>
4

>  <REMARK>
 VINA RESULT:      -9.0      4.139      6.423
  Name = 
  2 active torsions:
  status: ('A' for Active; 'I' for Inactive)
    1  A    between atoms: C_2  and  C_14
    2  A    between atoms: S_5  and  N_23
                            x       y       z     vdW  Elec       q    Type
                         _______ _______ _______ _____ _____    ______ ____

>  <TORSDO>
F 2

$$$$
=
 OpenBabel11062416233D

 29 34  0  0  1  0  0  0  0  0999 V2000
  185.2150  178.4950  141.7820 C   0  0  0  0  0  0  0  0  0  0  0  0
  187.5310  177.7340  143.1950 C   0  0  0  0  0  0  0  0  0  0  0  0
  184.1650  179.1810  138.4380 C   0  0  0  0  0  3  0  0  0  0  0  0
  187.5500  177.8260  141.7740 C   0  0  0  0  0  3  0  0  0  0  0  0
  182.8960  179.3160  140.8450 C   0  0  0  0  0  3  0  0  0  0  0  0
  186.0160  177.9530  145.1460 C   0  0  0  0  0  3  0  0  0  0  0  0
  184.9240  178.7780  139.6350 C   0  0  0  0  0  0  0  0  0  0  0  0
  184.5700  178.3440  145.2860 C   0  0  0  0  0  2  0  0  0  0  0  0
  186.3840  178.2140  141.1000 C   0  0  0  0  0  0  0  0  0  0  0  0
  186.2980  178.0120  143.8540 C   0  0  0  0  0  0  0  0  0  0  0  0
  185.1690  178.3910  143.1630 C   0  0  0  0  0  0  0  0  0  0  0  0
  184.2920  178.8500  140.8270 C   0  0  0  0  0  0  0  0  0  0  0  0
  186.2110  178.3840  139.7680 N   0  0  0  0  0  0  0  0  0  0  0  0
  184.1430  178.5990  143.9120 N   0  0  0  0  0  0  0  0  0  0  0  0
  182.4940  179.6380  139.0740 S   0  0  0  0  0  0  0  0  0  0  0  0
  188.9980  178.2530  146.3780 C   0  0  0  0  0  2  0  0  0  0  0  0
  191.0190  176.6050  146.1120 C   0  0  2  0  0  3  0  0  0  0  0  0
  191.6830  177.6730  145.2920 C   0  0  0  0  0  2  0  0  0  0  0  0
  189.5330  176.8320  146.5510 C   0  0  2  0  0  3  0  0  0  0  0  0
  189.9010  178.1810  143.5760 C   0  0  0  0  0  2  0  0  0  0  0  0
  188.7630  177.2550  143.9490 C   0  0  1  0  0  0  0  0  0  0  0  0
  190.9540  178.0410  144.3010 C   0  0  0  0  0  2  0  0  0  0  0  0
  188.4380  177.1420  145.4930 C   0  0  2  0  0  3  0  0  0  0  0  0
  191.8690  176.2950  147.3260 C   0  0  0  0  0  1  0  0  0  0  0  0
  189.0850  175.9650  143.5150 O   0  0  0  0  0  1  0  0  0  0  0  0
  187.3990  178.2110  138.5180 S   0  0  0  0  0  0  0  0  0  0  0  0
  187.6310  176.7530  138.2380 O   0  0  0  0  0  0  0  0  0  0  0  0
  186.9140  178.8740  137.2590 O   0  0  0  0  0  0  0  0  0  0  0  0
  188.8790  178.9470  139.0230 N   0  0  0  0  0  1  0  0  0  0  0  0
  1 11  1  0  0  0  0
  2 10  1  0  0  0  0
  2 21  1  0  0  0  0
  3 15  1  0  0  0  0
  3  7  2  0  0  0  0
  4  2  2  0  0  0  0
  6  8  1  0  0  0  0
  7 13  1  0  0  0  0
  7 12  1  0  0  0  0
  9  4  1  0  0  0  0
  9  1  2  0  0  0  0
 10  6  2  0  0  0  0
 11 10  1  0  0  0  0
 11 14  2  0  0  0  0
 12  5  2  0  0  0  0
 12  1  1  0  0  0  0
 13  9  1  0  0  0  0
 14  8  1  0  0  0  0
 15  5  1  0  0  0  0
 17 19  1  0  0  0  0
 17 24  1  1  0  0  0
 18 17  1  0  0  0  0
 19 16  1  1  0  0  0
 20 21  1  0  0  0  0
 20 22  1  0  0  0  0
 21 25  1  6  0  0  0
 21 23  1  0  0  0  0
 22 18  1  0  0  0  0
 23 16  1  1  0  0  0
 23 19  1  0  0  0  0
 26 29  1  0  0  0  0
 26 13  1  0  0  0  0
 27 26  2  0  0  0  0
 28 26  2  0  0  0  0
M  END
>  <MODEL>
5

>  <REMARK>
 VINA RESULT:      -8.7      2.650      3.559
  Name = 
  2 active torsions:
  status: ('A' for Active; 'I' for Inactive)
    1  A    between atoms: C_2  and  C_14
    2  A    between atoms: S_5  and  N_23
                            x       y       z     vdW  Elec       q    Type
                         _______ _______ _______ _____ _____    ______ ____

>  <TORSDO>
F 2

$$$$
=
 OpenBabel11062416233D

 29 34  0  0  1  0  0  0  0  0999 V2000
  188.6670  177.5710  143.7450 C   0  0  0  0  0  0  0  0  0  0  0  0
  188.2540  177.9290  140.9810 C   0  0  0  0  0  0  0  0  0  0  0  0
  186.9190  177.9630  146.8350 C   0  0  0  0  0  3  0  0  0  0  0  0
  187.1940  178.1550  141.9040 C   0  0  0  0  0  3  0  0  0  0  0  0
  189.4680  177.2180  146.2280 C   0  0  0  0  0  3  0  0  0  0  0  0
  190.6150  177.1770  140.8640 C   0  0  0  0  0  3  0  0  0  0  0  0
  187.2860  177.8770  145.4100 C   0  0  0  0  0  0  0  0  0  0  0  0
  191.6220  176.7830  141.9100 C   0  0  0  0  0  3  0  0  0  0  0  0
  187.4320  177.9750  143.2740 C   0  0  2  0  0  3  0  0  0  0  0  0
  189.5040  177.4920  141.5110 C   0  0  0  0  0  0  0  0  0  0  0  0
  189.7070  177.3250  142.8630 C   0  0  0  0  0  0  0  0  0  0  0  0
  188.5520  177.5110  145.1140 C   0  0  0  0  0  0  0  0  0  0  0  0
  186.5700  178.1640  144.2990 N   0  0  0  0  0  0  0  0  0  0  0  0
  190.8910  176.9230  143.1680 N   0  0  0  0  0  0  0  0  0  0  0  0
  188.4470  177.4670  147.7430 S   0  0  0  0  0  0  0  0  0  0  0  0
  189.2010  176.2050  138.0340 C   0  0  0  0  0  2  0  0  0  0  0  0
  187.8390  177.6490  136.3230 C   0  0  2  0  0  3  0  0  0  0  0  0
  188.9270  178.6760  136.4390 C   0  0  0  0  0  2  0  0  0  0  0  0
  187.8850  176.4150  137.2850 C   0  0  2  0  0  3  0  0  0  0  0  0
  189.0550  179.0030  138.9410 C   0  0  0  0  0  2  0  0  0  0  0  0
  188.0090  178.0550  139.4850 C   0  0  1  0  0  0  0  0  0  0  0  0
  189.1170  179.0400  137.6560 C   0  0  0  0  0  2  0  0  0  0  0  0
  187.9620  176.6190  138.8240 C   0  0  2  0  0  3  0  0  0  0  0  0
  187.7390  177.1750  134.8890 C   0  0  0  0  0  1  0  0  0  0  0  0
  186.7480  178.6280  139.2810 O   0  0  0  0  0  1  0  0  0  0  0  0
  184.9320  178.7250  144.2130 S   0  0  0  0  0  0  0  0  0  0  0  0
  184.9090  180.1500  143.7350 O   0  0  0  0  0  0  0  0  0  0  0  0
  184.1530  177.8780  143.2460 O   0  0  0  0  0  0  0  0  0  0  0  0
  184.2060  178.6280  145.7780 N   0  0  0  0  0  1  0  0  0  0  0  0
  1 12  1  0  0  0  0
  2 10  1  0  0  0  0
  2  4  2  0  0  0  0
  3 15  1  0  0  0  0
  5 15  1  0  0  0  0
  6 10  2  0  0  0  0
  6  8  1  0  0  0  0
  7  3  2  0  0  0  0
  8 14  2  0  0  0  0
  9  4  1  1  0  0  0
  9  1  1  0  0  0  0
  9 13  1  0  0  0  0
 10 11  1  0  0  0  0
 11 14  1  0  0  0  0
 11  1  2  0  0  0  0
 12  7  1  0  0  0  0
 12  5  2  0  0  0  0
 13  7  1  0  0  0  0
 17 24  1  6  0  0  0
 17 18  1  0  0  0  0
 17 19  1  0  0  0  0
 18 22  1  0  0  0  0
 19 16  1  6  0  0  0
 19 23  1  0  0  0  0
 20 21  1  0  0  0  0
 21 25  1  6  0  0  0
 21  2  1  0  0  0  0
 22 20  1  0  0  0  0
 23 16  1  6  0  0  0
 23 21  1  0  0  0  0
 26 13  1  0  0  0  0
 26 29  1  0  0  0  0
 27 26  2  0  0  0  0
 28 26  2  0  0  0  0
M  END
>  <MODEL>
6

>  <REMARK>
 VINA RESULT:      -8.5      3.628      6.141
  Name = 
  2 active torsions:
  status: ('A' for Active; 'I' for Inactive)
    1  A    between atoms: C_2  and  C_14
    2  A    between atoms: S_5  and  N_23
                            x       y       z     vdW  Elec       q    Type
                         _______ _______ _______ _____ _____    ______ ____

>  <TORSDO>
F 2

$$$$
=
 OpenBabel11062416233D

 29 34  0  0  1  0  0  0  0  0999 V2000
  188.6650  177.6490  138.2930 C   0  0  0  0  0  0  0  0  0  0  0  0
  189.3820  177.6460  141.0180 C   0  0  0  0  0  0  0  0  0  0  0  0
  185.7960  178.1740  136.2310 C   0  0  0  0  0  3  0  0  0  0  0  0
  188.0630  178.0010  140.6200 C   0  0  0  0  0  3  0  0  0  0  0  0
  188.3640  177.4450  135.6860 C   0  0  0  0  0  3  0  0  0  0  0  0
  191.5960  177.0100  140.0960 C   0  0  0  0  0  3  0  0  0  0  0  0
  186.7380  178.0880  137.3610 C   0  0  0  0  0  0  0  0  0  0  0  0
  192.0980  176.7710  138.6980 C   0  0  0  0  0  3  0  0  0  0  0  0
  187.7340  177.9860  139.2570 C   0  0  2  0  0  3  0  0  0  0  0  0
  190.3150  177.3260  139.9870 C   0  0  0  0  0  0  0  0  0  0  0  0
  189.9610  177.3190  138.6570 C   0  0  0  0  0  0  0  0  0  0  0  0
  188.0090  177.7220  137.0870 C   0  0  0  0  0  0  0  0  0  0  0  0
  186.5380  178.2630  138.6870 N   0  0  0  0  0  0  0  0  0  0  0  0
  190.9250  177.0120  137.8610 N   0  0  0  0  0  0  0  0  0  0  0  0
  186.8050  177.7440  134.7470 S   0  0  0  0  0  0  0  0  0  0  0  0
  190.5240  175.4000  143.5080 C   0  0  0  0  0  2  0  0  0  0  0  0
  190.8550  177.1430  145.4370 C   0  0  2  0  0  3  0  0  0  0  0  0
  189.3680  177.0900  145.6360 C   0  0  0  0  0  2  0  0  0  0  0  0
  191.4600  176.3850  144.2080 C   0  0  2  0  0  3  0  0  0  0  0  0
  188.5230  177.5490  143.3000 C   0  0  0  0  0  2  0  0  0  0  0  0
  189.7860  177.7130  142.4830 C   0  0  1  0  0  0  0  0  0  0  0  0
  188.7280  177.3640  144.5570 C   0  0  0  0  0  2  0  0  0  0  0  0
  190.9400  176.6710  142.7720 C   0  0  2  0  0  3  0  0  0  0  0  0
  191.5530  176.7010  146.7050 C   0  0  0  0  0  1  0  0  0  0  0  0
  190.3190  178.9800  142.7470 O   0  0  0  0  0  1  0  0  0  0  0  0
  185.0560  178.6750  139.4880 S   0  0  0  0  0  0  0  0  0  0  0  0
  185.2690  178.6820  140.9750 O   0  0  0  0  0  0  0  0  0  0  0  0
  184.6070  180.0430  139.0560 O   0  0  0  0  0  0  0  0  0  0  0  0
  183.8410  177.5160  139.0820 N   0  0  0  0  0  1  0  0  0  0  0  0
  1 11  2  0  0  0  0
  1  9  1  0  0  0  0
  2 21  1  0  0  0  0
  3  7  2  0  0  0  0
  4  2  2  0  0  0  0
  5 12  2  0  0  0  0
  7 13  1  0  0  0  0
  8  6  1  0  0  0  0
  9  4  1  1  0  0  0
 10  6  2  0  0  0  0
 10  2  1  0  0  0  0
 11 10  1  0  0  0  0
 12  7  1  0  0  0  0
 12  1  1  0  0  0  0
 13  9  1  0  0  0  0
 13 26  1  0  0  0  0
 14 11  1  0  0  0  0
 14  8  2  0  0  0  0
 15  5  1  0  0  0  0
 15  3  1  0  0  0  0
 17 18  1  0  0  0  0
 17 24  1  1  0  0  0
 19 16  1  1  0  0  0
 19 17  1  0  0  0  0
 20 22  1  0  0  0  0
 21 25  1  1  0  0  0
 21 23  1  0  0  0  0
 21 20  1  0  0  0  0
 22 18  1  0  0  0  0
 23 16  1  1  0  0  0
 23 19  1  0  0  0  0
 26 27  2  0  0  0  0
 28 26  2  0  0  0  0
 29 26  1  0  0  0  0
M  END
>  <MODEL>
7

>  <REMARK>
 VINA RESULT:      -8.5      3.985      6.141
  Name = 
  2 active torsions:
  status: ('A' for Active; 'I' for Inactive)
    1  A    between atoms: C_2  and  C_14
    2  A    between atoms: S_5  and  N_23
                            x       y       z     vdW  Elec       q    Type
                         _______ _______ _______ _____ _____    ______ ____

>  <TORSDO>
F 2

$$$$
=
 OpenBabel11062416233D

 29 34  0  0  1  0  0  0  0  0999 V2000
  186.0450  178.5680  140.5720 C   0  0  0  0  0  0  0  0  0  0  0  0
  188.0310  177.6930  142.3690 C   0  0  0  0  0  0  0  0  0  0  0  0
  182.6200  179.5800  140.5760 C   0  0  0  0  0  3  0  0  0  0  0  0
  186.7470  178.0790  142.8450 C   0  0  0  0  0  3  0  0  0  0  0  0
  184.4500  179.2360  138.5870 C   0  0  0  0  0  3  0  0  0  0  0  0
  189.3800  177.5410  140.2930 C   0  0  0  0  0  3  0  0  0  0  0  0
  183.9830  179.1770  140.9630 C   0  0  0  0  0  0  0  0  0  0  0  0
  189.0750  177.8180  138.8460 C   0  0  0  0  0  3  0  0  0  0  0  0
  185.7770  178.5040  141.9260 C   0  0  2  0  0  3  0  0  0  0  0  0
  188.2690  177.7960  140.9670 C   0  0  0  0  0  0  0  0  0  0  0  0
  187.2960  178.2160  140.0880 C   0  0  0  0  0  0  0  0  0  0  0  0
  184.8870  179.0030  139.9730 C   0  0  0  0  0  0  0  0  0  0  0  0
  184.5020  178.8830  142.1770 N   0  0  0  0  0  0  0  0  0  0  0  0
  187.6800  178.2540  138.8610 N   0  0  0  0  0  0  0  0  0  0  0  0
  182.6810  179.7370  138.7390 S   0  0  0  0  0  0  0  0  0  0  0  0
  188.7960  178.2400  145.7850 C   0  0  0  0  0  2  0  0  0  0  0  0
  190.9500  176.7530  145.9100 C   0  0  2  0  0  3  0  0  0  0  0  0
  191.6790  177.8860  145.2490 C   0  0  0  0  0  2  0  0  0  0  0  0
  189.3940  176.8590  146.0470 C   0  0  2  0  0  3  0  0  0  0  0  0
  190.2370  178.3030  143.2180 C   0  0  0  0  0  2  0  0  0  0  0  0
  189.1230  177.2880  143.3480 C   0  0  1  0  0  0  0  0  0  0  0  0
  191.1340  178.2240  144.1360 C   0  0  0  0  0  2  0  0  0  0  0  0
  188.5090  177.1130  144.7960 C   0  0  2  0  0  3  0  0  0  0  0  0
  191.5650  176.4760  147.2660 C   0  0  0  0  0  1  0  0  0  0  0  0
  189.6230  176.0350  142.9750 O   0  0  0  0  0  1  0  0  0  0  0  0
  183.6900  178.9100  143.7090 S   0  0  0  0  0  0  0  0  0  0  0  0
  184.2920  177.8780  144.6200 O   0  0  0  0  0  0  0  0  0  0  0  0
  183.8430  180.2640  144.3430 O   0  0  0  0  0  0  0  0  0  0  0  0
  182.0120  178.5690  143.4770 N   0  0  0  0  0  1  0  0  0  0  0  0
  1  9  1  0  0  0  0
  2  4  2  0  0  0  0
  2 21  1  0  0  0  0
  3  7  2  0  0  0  0
  5 15  1  0  0  0  0
  5 12  2  0  0  0  0
  6 10  2  0  0  0  0
  7 13  1  0  0  0  0
  8 14  2  0  0  0  0
  8  6  1  0  0  0  0
  9 13  1  0  0  0  0
  9  4  1  6  0  0  0
 10  2  1  0  0  0  0
 11  1  2  0  0  0  0
 11 10  1  0  0  0  0
 12  1  1  0  0  0  0
 12  7  1  0  0  0  0
 13 26  1  0  0  0  0
 14 11  1  0  0  0  0
 15  3  1  0  0  0  0
 17 19  1  0  0  0  0
 17 24  1  1  0  0  0
 18 17  1  0  0  0  0
 19 16  1  1  0  0  0
 20 21  1  0  0  0  0
 20 22  1  0  0  0  0
 21 25  1  6  0  0  0
 21 23  1  0  0  0  0
 22 18  1  0  0  0  0
 23 16  1  1  0  0  0
 23 19  1  0  0  0  0
 26 28  2  0  0  0  0
 26 27  2  0  0  0  0
 29 26  1  0  0  0  0
M  END
>  <MODEL>
8

>  <REMARK>
 VINA RESULT:      -8.4      2.730      4.640
  Name = 
  2 active torsions:
  status: ('A' for Active; 'I' for Inactive)
    1  A    between atoms: C_2  and  C_14
    2  A    between atoms: S_5  and  N_23
                            x       y       z     vdW  Elec       q    Type
                         _______ _______ _______ _____ _____    ______ ____

>  <TORSDO>
F 2

$$$$
=
 OpenBabel11062416233D

 29 34  0  0  1  0  0  0  0  0999 V2000
  187.6470  177.9740  143.1750 C   0  0  0  0  0  0  0  0  0  0  0  0
  185.7330  178.3260  141.1370 C   0  0  0  0  0  0  0  0  0  0  0  0
  191.1150  177.2090  143.5530 C   0  0  0  0  0  3  0  0  0  0  0  0
  187.0980  178.0870  140.8110 C   0  0  0  0  0  3  0  0  0  0  0  0
  189.0980  177.6120  145.3400 C   0  0  0  0  0  3  0  0  0  0  0  0
  184.2160  178.6580  143.0710 C   0  0  0  0  0  3  0  0  0  0  0  0
  189.7840  177.5480  143.0180 C   0  0  0  0  0  0  0  0  0  0  0  0
  184.4250  178.6230  144.5600 C   0  0  0  0  0  2  0  0  0  0  0  0
  188.0260  177.9100  141.8470 C   0  0  0  0  0  0  0  0  0  0  0  0
  185.3920  178.4050  142.5190 C   0  0  0  0  0  0  0  0  0  0  0  0
  186.3270  178.2250  143.5140 C   0  0  0  0  0  0  0  0  0  0  0  0
  188.7860  177.7430  143.9080 C   0  0  0  0  0  0  0  0  0  0  0  0
  189.3500  177.6490  141.7420 N   0  0  0  0  0  0  0  0  0  0  0  0
  185.8510  178.3340  144.7050 N   0  0  0  0  0  0  0  0  0  0  0  0
  190.8990  177.2120  145.3860 S   0  0  0  0  0  0  0  0  0  0  0  0
  182.8360  176.7470  139.8470 C   0  0  0  0  0  2  0  0  0  0  0  0
  182.2200  178.5480  138.0450 C   0  0  2  0  0  3  0  0  0  0  0  0
  183.2990  177.9510  137.1900 C   0  0  0  0  0  2  0  0  0  0  0  0
  182.0760  178.0310  139.5160 C   0  0  2  0  0  3  0  0  0  0  0  0
  185.2750  177.9890  138.7630 C   0  0  0  0  0  2  0  0  0  0  0  0
  184.7150  178.5850  140.0360 C   0  0  1  0  0  0  0  0  0  0  0  0
  184.4340  177.9320  137.7910 C   0  0  0  0  0  2  0  0  0  0  0  0
  183.2930  178.0570  140.4830 C   0  0  2  0  0  3  0  0  0  0  0  0
  180.8890  178.4380  137.3330 C   0  0  0  0  0  1  0  0  0  0  0  0
  184.5880  179.9670  139.8550 O   0  0  0  0  0  1  0  0  0  0  0  0
  190.2690  177.4180  140.2900 S   0  0  0  0  0  0  0  0  0  0  0  0
  190.1570  175.9890  139.8410 O   0  0  0  0  0  0  0  0  0  0  0  0
  189.7380  178.3100  139.2040 O   0  0  0  0  0  0  0  0  0  0  0  0
  191.9270  177.8020  140.5910 N   0  0  0  0  0  1  0  0  0  0  0  0
  1 11  1  0  0  0  0
  1 12  1  0  0  0  0
  2 10  1  0  0  0  0
  3 15  1  0  0  0  0
  4  2  2  0  0  0  0
  4  9  1  0  0  0  0
  5 15  1  0  0  0  0
  6  8  1  0  0  0  0
  7  3  2  0  0  0  0
  7 12  1  0  0  0  0
  8 14  1  0  0  0  0
  9  1  2  0  0  0  0
 10  6  2  0  0  0  0
 10 11  1  0  0  0  0
 11 14  2  0  0  0  0
 12  5  2  0  0  0  0
 13  9  1  0  0  0  0
 13  7  1  0  0  0  0
 17 24  1  6  0  0  0
 17 19  1  0  0  0  0
 18 22  1  0  0  0  0
 18 17  1  0  0  0  0
 19 16  1  6  0  0  0
 19 23  1  0  0  0  0
 20 21  1  0  0  0  0
 21 25  1  6  0  0  0
 21 23  1  0  0  0  0
 21  2  1  0  0  0  0
 22 20  1  0  0  0  0
 23 16  1  6  0  0  0
 26 29  1  0  0  0  0
 26 13  1  0  0  0  0
 27 26  2  0  0  0  0
 28 26  2  0  0  0  0
M  END
>  <MODEL>
9

>  <REMARK>
 VINA RESULT:      -8.2      3.875      6.808
  Name = 
  2 active torsions:
  status: ('A' for Active; 'I' for Inactive)
    1  A    between atoms: C_2  and  C_14
    2  A    between atoms: S_5  and  N_23
                            x       y       z     vdW  Elec       q    Type
                         _______ _______ _______ _____ _____    ______ ____

>  <TORSDO>
F 2

$$$$
