=
 OpenBabel11062416193D

 29 32  0  0  1  0  0  0  0  0999 V2000
  189.4610  178.0660  141.3090 C   0  0  2  0  0  3  0  0  0  0  0  0
  188.1130  177.9270  140.6210 C   0  0  0  0  0  1  0  0  0  0  0  0
  190.3070  176.8820  141.0030 N   0  0  0  0  0  0  0  0  0  0  0  0
  190.3280  176.0890  143.3440 C   0  0  0  0  0  2  0  0  0  0  0  0
  189.2090  178.2940  142.8100 C   0  0  0  0  0  2  0  0  0  0  0  0
  191.1660  176.5570  142.1530 C   0  0  0  0  0  2  0  0  0  0  0  0
  189.0790  176.9530  143.5360 C   0  0  2  0  0  3  0  0  0  0  0  0
  188.7650  177.1210  145.0230 C   0  0  1  0  0  3  0  0  0  0  0  0
  189.8290  177.7460  145.6790 O   0  0  0  0  0  1  0  0  0  0  0  0
  185.9530  178.5620  146.7940 C   0  0  0  0  0  2  0  0  0  0  0  0
  184.8710  178.6220  145.7550 C   0  0  0  0  0  0  0  0  0  0  0  0
  187.4740  177.9100  145.2390 C   0  0  2  0  0  3  0  0  0  0  0  0
  183.7280  179.0610  146.0440 O   0  0  0  0  0  0  0  0  0  0  0  0
  186.8890  177.5570  146.4720 O   0  0  0  0  0  0  0  0  0  0  0  0
  186.4710  177.6240  144.1120 C   0  0  0  0  0  2  0  0  0  0  0  0
  185.1910  178.2580  144.4120 N   0  0  0  0  0  2  0  0  0  0  0  0
  191.1920  177.1950  139.8630 C   0  0  1  0  0  3  0  0  0  0  0  0
  192.6610  177.1660  140.2900 C   0  0  0  0  0  2  0  0  0  0  0  0
  193.4890  177.1410  139.1680 O   0  0  0  0  0  1  0  0  0  0  0  0
  191.0120  176.1910  138.7210 C   0  0  0  0  0  2  0  0  0  0  0  0
  189.0550  175.6060  136.6930 S   0  0  0  0  0  0  0  0  0  0  0  0
  189.8430  178.0240  137.5310 C   0  0  0  0  0  2  0  0  0  0  0  0
  188.0740  177.0580  136.3780 C   0  0  2  0  0  3  0  0  0  0  0  0
  187.7610  179.2110  137.0810 N   0  0  0  0  0  2  0  0  0  0  0  0
  186.6670  178.5820  137.2320 N   0  0  0  0  0  0  0  0  0  0  0  0
  188.7930  178.3460  136.5200 C   0  0  1  0  0  3  0  0  0  0  0  0
  186.8390  177.2390  136.8160 C   0  0  0  0  0  0  0  0  0  0  0  0
  190.0700  176.7140  137.6830 C   0  0  1  0  0  3  0  0  0  0  0  0
  185.8950  176.1490  137.1940 C   0  0  0  0  0  1  0  0  0  0  0  0
  1  2  1  6  0  0  0
  1  5  1  0  0  0  0
  3  1  1  0  0  0  0
  3  6  1  0  0  0  0
  4  7  1  0  0  0  0
  5  7  1  0  0  0  0
  6  4  1  0  0  0  0
  7  8  1  1  0  0  0
  8  9  1  1  0  0  0
 11 13  2  0  0  0  0
 11 10  1  0  0  0  0
 12  8  1  6  0  0  0
 12 14  1  0  0  0  0
 14 10  1  0  0  0  0
 15 16  1  0  0  0  0
 15 12  1  0  0  0  0
 16 11  1  0  0  0  0
 17 20  1  6  0  0  0
 17 18  1  0  0  0  0
 17  3  1  0  0  0  0
 19 18  1  0  0  0  0
 21 28  1  0  0  0  0
 22 28  1  0  0  0  0
 23 26  1  0  0  0  0
 23 21  1  1  0  0  0
 23 27  1  0  0  0  0
 24 25  1  0  0  0  0
 26 24  1  0  0  0  0
 26 22  1  1  0  0  0
 27 29  1  0  0  0  0
 27 25  2  0  0  0  0
 28 20  1  1  0  0  0
M  END
>  <MODEL>
1

>  <REMARK>
 VINA RESULT:      -7.8      0.000      0.000
  Name = 
  6 active torsions:
  status: ('A' for Active; 'I' for Inactive)
    1  A    between atoms: C_2  and  C_14
    2  A    between atoms: C_2  and  C_27
    3  A    between atoms: C_8  and  C_20
    4  A    between atoms: C_8  and  C_28
    5  A    between atoms: N_11  and  C_20
    6  A    between atoms: C_17  and  C_20
                            x       y       z     vdW  Elec       q    Type
                         _______ _______ _______ _____ _____    ______ ____

>  <TORSDO>
F 6

$$$$
=
 OpenBabel11062416193D

 29 32  0  0  1  0  0  0  0  0999 V2000
  186.4090  178.6200  142.7430 C   0  0  2  0  0  3  0  0  0  0  0  0
  187.2760  177.4800  142.2360 C   0  0  0  0  0  1  0  0  0  0  0  0
  185.5280  178.1310  143.8370 N   0  0  0  0  0  0  0  0  0  0  0  0
  183.4530  178.4730  142.5370 C   0  0  0  0  0  2  0  0  0  0  0  0
  185.6570  179.2180  141.5420 C   0  0  0  0  0  2  0  0  0  0  0  0
  184.2340  178.8330  143.8020 C   0  0  0  0  0  2  0  0  0  0  0  0
  184.3520  178.4540  141.2980 C   0  0  2  0  0  3  0  0  0  0  0  0
  183.5940  178.9680  140.0740 C   0  0  1  0  0  3  0  0  0  0  0  0
  184.3290  179.9670  139.4290 O   0  0  0  0  0  1  0  0  0  0  0  0
  182.3780  175.7560  138.9250 C   0  0  0  0  0  2  0  0  0  0  0  0
  183.2460  175.4510  137.7380 C   0  0  0  0  0  0  0  0  0  0  0  0
  183.2690  177.8380  139.0990 C   0  0  2  0  0  3  0  0  0  0  0  0
  183.1040  174.3770  137.0990 O   0  0  0  0  0  0  0  0  0  0  0  0
  183.0390  176.6390  139.8040 O   0  0  0  0  0  0  0  0  0  0  0  0
  184.4280  177.6230  138.1150 C   0  0  0  0  0  2  0  0  0  0  0  0
  184.1720  176.4420  137.2940 N   0  0  0  0  0  2  0  0  0  0  0  0
  186.1560  178.4260  145.1400 C   0  0  1  0  0  3  0  0  0  0  0  0
  185.0980  178.7760  146.1890 C   0  0  0  0  0  2  0  0  0  0  0  0
  185.6730  179.5040  147.2300 O   0  0  0  0  0  1  0  0  0  0  0  0
  186.9580  177.2300  145.6600 C   0  0  0  0  0  2  0  0  0  0  0  0
  189.2290  177.6400  147.3800 S   0  0  0  0  0  0  0  0  0  0  0  0
  189.1970  177.6900  144.7030 C   0  0  0  0  0  2  0  0  0  0  0  0
  190.7280  177.4690  146.4350 C   0  0  2  0  0  3  0  0  0  0  0  0
  191.4930  176.9510  144.3440 N   0  0  0  0  0  2  0  0  0  0  0  0
  191.9910  176.1190  145.1660 N   0  0  0  0  0  0  0  0  0  0  0  0
  190.6370  177.9160  145.0260 C   0  0  1  0  0  3  0  0  0  0  0  0
  191.5200  176.4100  146.4700 C   0  0  0  0  0  0  0  0  0  0  0  0
  188.4110  177.5620  145.7790 C   0  0  1  0  0  3  0  0  0  0  0  0
  191.6000  175.4350  147.5940 C   0  0  0  0  0  1  0  0  0  0  0  0
  1  2  1  6  0  0  0
  1  3  1  0  0  0  0
  3 17  1  0  0  0  0
  4  6  1  0  0  0  0
  5  1  1  0  0  0  0
  6  3  1  0  0  0  0
  7  8  1  6  0  0  0
  7  5  1  0  0  0  0
  7  4  1  0  0  0  0
  8  9  1  6  0  0  0
 10 14  1  0  0  0  0
 11 10  1  0  0  0  0
 12 14  1  0  0  0  0
 12  8  1  1  0  0  0
 13 11  2  0  0  0  0
 15 12  1  0  0  0  0
 16 11  1  0  0  0  0
 16 15  1  0  0  0  0
 17 20  1  1  0  0  0
 17 18  1  0  0  0  0
 18 19  1  0  0  0  0
 22 28  1  0  0  0  0
 23 27  1  6  0  0  0
 23 21  1  0  0  0  0
 24 26  1  0  0  0  0
 24 25  1  0  0  0  0
 25 27  2  0  0  0  0
 26 22  1  6  0  0  0
 26 23  1  0  0  0  0
 27 29  1  0  0  0  0
 28 20  1  6  0  0  0
 28 21  1  0  0  0  0
M  END
>  <MODEL>
2

>  <REMARK>
 VINA RESULT:      -7.6      4.198      8.304
  Name = 
  6 active torsions:
  status: ('A' for Active; 'I' for Inactive)
    1  A    between atoms: C_2  and  C_14
    2  A    between atoms: C_2  and  C_27
    3  A    between atoms: C_8  and  C_20
    4  A    between atoms: C_8  and  C_28
    5  A    between atoms: N_11  and  C_20
    6  A    between atoms: C_17  and  C_20
                            x       y       z     vdW  Elec       q    Type
                         _______ _______ _______ _____ _____    ______ ____

>  <TORSDO>
F 6

$$$$
=
 OpenBabel11062416193D

 29 32  0  0  1  0  0  0  0  0999 V2000
  184.4660  178.4570  143.5200 C   0  0  2  0  0  3  0  0  0  0  0  0
  183.6290  179.5800  144.1090 C   0  0  0  0  0  1  0  0  0  0  0  0
  185.9100  178.7850  143.6510 N   0  0  0  0  0  0  0  0  0  0  0  0
  186.2570  178.9620  141.2100 C   0  0  0  0  0  2  0  0  0  0  0  0
  183.9980  178.2210  142.0730 C   0  0  0  0  0  2  0  0  0  0  0  0
  186.6610  178.2510  142.5020 C   0  0  0  0  0  2  0  0  0  0  0  0
  184.7420  179.1550  141.1150 C   0  0  2  0  0  3  0  0  0  0  0  0
  184.2690  179.0080  139.6690 C   0  0  1  0  0  3  0  0  0  0  0  0
  184.1610  180.2620  139.0610 O   0  0  0  0  0  1  0  0  0  0  0  0
  187.0850  178.0760  137.5910 C   0  0  0  0  0  2  0  0  0  0  0  0
  186.5820  176.8890  136.8210 C   0  0  0  0  0  0  0  0  0  0  0  0
  185.2030  178.1080  138.8610 C   0  0  2  0  0  3  0  0  0  0  0  0
  187.3140  176.3170  135.9730 O   0  0  0  0  0  0  0  0  0  0  0  0
  186.0080  178.8860  138.0050 O   0  0  0  0  0  0  0  0  0  0  0  0
  184.3960  177.1110  138.0160 C   0  0  0  0  0  2  0  0  0  0  0  0
  185.2900  176.3670  137.1340 N   0  0  0  0  0  2  0  0  0  0  0  0
  186.4490  178.1450  144.8670 C   0  0  1  0  0  3  0  0  0  0  0  0
  185.3210  177.7800  145.8360 C   0  0  0  0  0  2  0  0  0  0  0  0
  185.3350  178.6360  146.9370 O   0  0  0  0  0  1  0  0  0  0  0  0
  187.2200  176.8650  144.5350 C   0  0  0  0  0  2  0  0  0  0  0  0
  189.4990  177.9740  145.8980 S   0  0  0  0  0  0  0  0  0  0  0  0
  189.5030  176.5720  143.6170 C   0  0  0  0  0  2  0  0  0  0  0  0
  190.9860  177.2110  145.2850 C   0  0  2  0  0  3  0  0  0  0  0  0
  191.7230  175.5910  143.8500 N   0  0  0  0  0  2  0  0  0  0  0  0
  192.1320  175.3020  145.0190 N   0  0  0  0  0  0  0  0  0  0  0  0
  190.9540  176.8310  143.8540 C   0  0  1  0  0  3  0  0  0  0  0  0
  191.6750  176.2840  145.9310 C   0  0  0  0  0  0  0  0  0  0  0  0
  188.6960  177.1020  144.5440 C   0  0  1  0  0  3  0  0  0  0  0  0
  191.6510  176.0690  147.4050 C   0  0  0  0  0  1  0  0  0  0  0  0
  1  3  1  0  0  0  0
  1  2  1  6  0  0  0
  3 17  1  0  0  0  0
  4  6  1  0  0  0  0
  5  1  1  0  0  0  0
  6  3  1  0  0  0  0
  7  8  1  6  0  0  0
  7  4  1  0  0  0  0
  7  5  1  0  0  0  0
  8  9  1  6  0  0  0
 10 14  1  0  0  0  0
 11 16  1  0  0  0  0
 11 10  1  0  0  0  0
 12  8  1  6  0  0  0
 13 11  2  0  0  0  0
 14 12  1  0  0  0  0
 15 12  1  0  0  0  0
 16 15  1  0  0  0  0
 17 20  1  6  0  0  0
 17 18  1  0  0  0  0
 18 19  1  0  0  0  0
 22 28  1  0  0  0  0
 23 21  1  1  0  0  0
 23 27  1  0  0  0  0
 24 26  1  0  0  0  0
 24 25  1  0  0  0  0
 25 27  2  0  0  0  0
 26 22  1  1  0  0  0
 26 23  1  0  0  0  0
 27 29  1  0  0  0  0
 28 20  1  1  0  0  0
 28 21  1  0  0  0  0
M  END
>  <MODEL>
3

>  <REMARK>
 VINA RESULT:      -7.4      3.716      8.118
  Name = 
  6 active torsions:
  status: ('A' for Active; 'I' for Inactive)
    1  A    between atoms: C_2  and  C_14
    2  A    between atoms: C_2  and  C_27
    3  A    between atoms: C_8  and  C_20
    4  A    between atoms: C_8  and  C_28
    5  A    between atoms: N_11  and  C_20
    6  A    between atoms: C_17  and  C_20
                            x       y       z     vdW  Elec       q    Type
                         _______ _______ _______ _____ _____    ______ ____

>  <TORSDO>
F 6

$$$$
=
 OpenBabel11062416193D

 29 32  0  0  1  0  0  0  0  0999 V2000
  188.3600  178.5070  141.2900 C   0  0  2  0  0  3  0  0  0  0  0  0
  186.9450  178.4450  141.8400 C   0  0  0  0  0  1  0  0  0  0  0  0
  188.6010  177.3490  140.3890 N   0  0  0  0  0  0  0  0  0  0  0  0
  190.3010  176.3390  141.8720 C   0  0  0  0  0  2  0  0  0  0  0  0
  189.3310  178.5950  142.4810 C   0  0  0  0  0  2  0  0  0  0  0  0
  190.0020  176.9090  140.4840 C   0  0  0  0  0  2  0  0  0  0  0  0
  189.6840  177.1930  142.9830 C   0  0  2  0  0  3  0  0  0  0  0  0
  190.5980  177.2230  144.2080 C   0  0  1  0  0  3  0  0  0  0  0  0
  191.6590  178.1100  144.0030 O   0  0  0  0  0  1  0  0  0  0  0  0
  189.8740  177.5360  147.7430 C   0  0  0  0  0  2  0  0  0  0  0  0
  188.3740  177.5170  147.8020 C   0  0  0  0  0  0  0  0  0  0  0  0
  189.8300  177.6020  145.4740 C   0  0  2  0  0  3  0  0  0  0  0  0
  187.7740  177.5870  148.9060 O   0  0  0  0  0  0  0  0  0  0  0  0
  190.3290  176.8840  146.5790 O   0  0  0  0  0  0  0  0  0  0  0  0
  188.3350  177.2910  145.3110 C   0  0  0  0  0  2  0  0  0  0  0  0
  187.6400  177.5090  146.5770 N   0  0  0  0  0  2  0  0  0  0  0  0
  188.3600  177.7590  138.9910 C   0  0  1  0  0  3  0  0  0  0  0  0
  189.2730  178.9230  138.5990 C   0  0  0  0  0  2  0  0  0  0  0  0
  188.8300  179.5040  137.4110 O   0  0  0  0  0  1  0  0  0  0  0  0
  188.6170  176.6070  138.0160 C   0  0  0  0  0  2  0  0  0  0  0  0
  187.2280  174.6340  136.4470 S   0  0  0  0  0  0  0  0  0  0  0  0
  186.2510  176.9520  137.3650 C   0  0  0  0  0  2  0  0  0  0  0  0
  185.4740  174.9220  136.5500 C   0  0  2  0  0  3  0  0  0  0  0  0
  183.9220  176.2600  137.5640 N   0  0  0  0  0  2  0  0  0  0  0  0
  183.6790  175.0550  137.8880 N   0  0  0  0  0  0  0  0  0  0  0  0
  185.0760  176.3430  136.6750 C   0  0  1  0  0  3  0  0  0  0  0  0
  184.6380  174.2060  137.2840 C   0  0  0  0  0  0  0  0  0  0  0  0
  187.3650  176.2130  137.2990 C   0  0  1  0  0  3  0  0  0  0  0  0
  184.8770  172.8060  137.7370 C   0  0  0  0  0  1  0  0  0  0  0  0
  1  2  1  1  0  0  0
  1  5  1  0  0  0  0
  3  6  1  0  0  0  0
  3  1  1  0  0  0  0
  4  7  1  0  0  0  0
  5  7  1  0  0  0  0
  6  4  1  0  0  0  0
  7  8  1  1  0  0  0
  8  9  1  6  0  0  0
 10 11  1  0  0  0  0
 11 13  2  0  0  0  0
 12  8  1  6  0  0  0
 12 14  1  0  0  0  0
 14 10  1  0  0  0  0
 15 12  1  0  0  0  0
 15 16  1  0  0  0  0
 16 11  1  0  0  0  0
 17 20  1  6  0  0  0
 17  3  1  0  0  0  0
 18 17  1  0  0  0  0
 19 18  1  0  0  0  0
 21 28  1  0  0  0  0
 23 21  1  1  0  0  0
 23 26  1  0  0  0  0
 23 27  1  0  0  0  0
 24 25  1  0  0  0  0
 26 22  1  1  0  0  0
 26 24  1  0  0  0  0
 27 29  1  0  0  0  0
 27 25  2  0  0  0  0
 28 22  1  0  0  0  0
 28 20  1  1  0  0  0
M  END
>  <MODEL>
4

>  <REMARK>
 VINA RESULT:      -7.4      2.429      3.284
  Name = 
  6 active torsions:
  status: ('A' for Active; 'I' for Inactive)
    1  A    between atoms: C_2  and  C_14
    2  A    between atoms: C_2  and  C_27
    3  A    between atoms: C_8  and  C_20
    4  A    between atoms: C_8  and  C_28
    5  A    between atoms: N_11  and  C_20
    6  A    between atoms: C_17  and  C_20
                            x       y       z     vdW  Elec       q    Type
                         _______ _______ _______ _____ _____    ______ ____

>  <TORSDO>
F 6

$$$$
=
 OpenBabel11062416193D

 29 32  0  0  1  0  0  0  0  0999 V2000
  184.7580  178.2770  143.5820 C   0  0  2  0  0  3  0  0  0  0  0  0
  184.0750  179.3530  144.4100 C   0  0  0  0  0  1  0  0  0  0  0  0
  186.1990  178.6060  143.4220 N   0  0  0  0  0  0  0  0  0  0  0  0
  186.0170  178.9490  140.9810 C   0  0  0  0  0  2  0  0  0  0  0  0
  183.9890  178.1350  142.2570 C   0  0  0  0  0  2  0  0  0  0  0  0
  186.6830  178.1560  142.1070 C   0  0  0  0  0  2  0  0  0  0  0  0
  184.5180  179.1370  141.2270 C   0  0  2  0  0  3  0  0  0  0  0  0
  183.7450  179.0820  139.9080 C   0  0  1  0  0  3  0  0  0  0  0  0
  184.6150  179.2490  138.8260 O   0  0  0  0  0  1  0  0  0  0  0  0
  182.9910  175.7150  138.8080 C   0  0  0  0  0  2  0  0  0  0  0  0
  181.4910  175.6760  138.7840 C   0  0  0  0  0  0  0  0  0  0  0  0
  182.9690  177.7750  139.7650 C   0  0  2  0  0  3  0  0  0  0  0  0
  180.8810  174.6380  138.4200 O   0  0  0  0  0  0  0  0  0  0  0  0
  183.4520  177.0400  138.6640 O   0  0  0  0  0  0  0  0  0  0  0  0
  181.4730  178.0540  139.5600 C   0  0  0  0  0  2  0  0  0  0  0  0
  180.7680  176.8090  139.2690 N   0  0  0  0  0  2  0  0  0  0  0  0
  186.9810  177.8910  144.4500 C   0  0  1  0  0  3  0  0  0  0  0  0
  186.0710  177.3810  145.5700 C   0  0  0  0  0  2  0  0  0  0  0  0
  186.4450  177.9470  146.7900 O   0  0  0  0  0  1  0  0  0  0  0  0
  187.7210  176.6890  143.8580 C   0  0  0  0  0  2  0  0  0  0  0  0
  189.9000  177.9640  145.2400 S   0  0  0  0  0  0  0  0  0  0  0  0
  190.0610  175.9970  143.4300 C   0  0  0  0  0  2  0  0  0  0  0  0
  191.3630  176.9600  145.0950 C   0  0  2  0  0  3  0  0  0  0  0  0
  192.1050  174.9630  144.2660 N   0  0  0  0  0  2  0  0  0  0  0  0
  192.3150  174.9750  145.5200 N   0  0  0  0  0  0  0  0  0  0  0  0
  191.4860  176.2070  143.8240 C   0  0  1  0  0  3  0  0  0  0  0  0
  191.8490  176.1980  146.0610 C   0  0  0  0  0  0  0  0  0  0  0  0
  189.1990  176.8150  144.0450 C   0  0  1  0  0  3  0  0  0  0  0  0
  191.5990  176.3940  147.5160 C   0  0  0  0  0  1  0  0  0  0  0  0
  1  2  1  1  0  0  0
  3  1  1  0  0  0  0
  3 17  1  0  0  0  0
  4  7  1  0  0  0  0
  4  6  1  0  0  0  0
  5  1  1  0  0  0  0
  6  3  1  0  0  0  0
  7  8  1  6  0  0  0
  7  5  1  0  0  0  0
  8  9  1  6  0  0  0
 11 10  1  0  0  0  0
 11 16  1  0  0  0  0
 12  8  1  6  0  0  0
 13 11  2  0  0  0  0
 14 10  1  0  0  0  0
 14 12  1  0  0  0  0
 15 12  1  0  0  0  0
 16 15  1  0  0  0  0
 17 20  1  6  0  0  0
 17 18  1  0  0  0  0
 18 19  1  0  0  0  0
 22 28  1  0  0  0  0
 23 21  1  1  0  0  0
 23 27  1  0  0  0  0
 24 25  1  0  0  0  0
 25 27  2  0  0  0  0
 26 22  1  1  0  0  0
 26 24  1  0  0  0  0
 26 23  1  0  0  0  0
 27 29  1  0  0  0  0
 28 20  1  1  0  0  0
 28 21  1  0  0  0  0
M  END
>  <MODEL>
5

>  <REMARK>
 VINA RESULT:      -7.2      4.333      7.887
  Name = 
  6 active torsions:
  status: ('A' for Active; 'I' for Inactive)
    1  A    between atoms: C_2  and  C_14
    2  A    between atoms: C_2  and  C_27
    3  A    between atoms: C_8  and  C_20
    4  A    between atoms: C_8  and  C_28
    5  A    between atoms: N_11  and  C_20
    6  A    between atoms: C_17  and  C_20
                            x       y       z     vdW  Elec       q    Type
                         _______ _______ _______ _____ _____    ______ ____

>  <TORSDO>
F 6

$$$$
=
 OpenBabel11062416193D

 29 32  0  0  1  0  0  0  0  0999 V2000
  183.4860  179.2450  143.3820 C   0  0  2  0  0  3  0  0  0  0  0  0
  182.2200  178.6290  143.9520 C   0  0  0  0  0  1  0  0  0  0  0  0
  184.1330  178.2890  142.4460 N   0  0  0  0  0  0  0  0  0  0  0  0
  186.1280  177.9900  143.8730 C   0  0  0  0  0  2  0  0  0  0  0  0
  184.3760  179.6810  144.5590 C   0  0  0  0  0  2  0  0  0  0  0  0
  185.5970  178.4250  142.5070 C   0  0  0  0  0  2  0  0  0  0  0  0
  185.2580  178.5160  145.0170 C   0  0  2  0  0  3  0  0  0  0  0  0
  186.1200  178.8760  146.2280 C   0  0  1  0  0  3  0  0  0  0  0  0
  185.3380  178.9220  147.3860 O   0  0  0  0  0  1  0  0  0  0  0  0
  188.4980  176.7520  147.9440 C   0  0  0  0  0  2  0  0  0  0  0  0
  189.6920  176.7480  147.0350 C   0  0  0  0  0  0  0  0  0  0  0  0
  187.2750  177.8930  146.4080 C   0  0  2  0  0  3  0  0  0  0  0  0
  190.7320  176.1100  147.3430 O   0  0  0  0  0  0  0  0  0  0  0  0
  187.7290  177.9170  147.7420 O   0  0  0  0  0  0  0  0  0  0  0  0
  188.4420  178.2530  145.4780 C   0  0  0  0  0  2  0  0  0  0  0  0
  189.5940  177.4060  145.7710 N   0  0  0  0  0  2  0  0  0  0  0  0
  183.7160  178.5990  141.0640 C   0  0  1  0  0  3  0  0  0  0  0  0
  184.9190  179.0070  140.2100 C   0  0  0  0  0  2  0  0  0  0  0  0
  184.5560  180.0120  139.3140 O   0  0  0  0  0  1  0  0  0  0  0  0
  183.0490  177.3940  140.3950 C   0  0  0  0  0  2  0  0  0  0  0  0
  180.6510  178.9630  140.1300 S   0  0  0  0  0  0  0  0  0  0  0  0
  181.8260  177.4730  138.2410 C   0  0  0  0  0  2  0  0  0  0  0  0
  180.2860  179.2030  138.4040 C   0  0  2  0  0  3  0  0  0  0  0  0
  181.1020  178.7760  136.3120 N   0  0  0  0  0  2  0  0  0  0  0  0
  180.9920  180.0350  136.4450 N   0  0  0  0  0  0  0  0  0  0  0  0
  180.6690  178.0790  137.5180 C   0  0  1  0  0  3  0  0  0  0  0  0
  180.5010  180.3270  137.7410 C   0  0  0  0  0  0  0  0  0  0  0  0
  181.9040  177.8190  139.5320 C   0  0  1  0  0  3  0  0  0  0  0  0
  180.6030  181.6800  138.3570 C   0  0  0  0  0  1  0  0  0  0  0  0
  1  2  1  1  0  0  0
  1  5  1  0  0  0  0
  3  6  1  0  0  0  0
  3  1  1  0  0  0  0
  4  7  1  0  0  0  0
  5  7  1  0  0  0  0
  6  4  1  0  0  0  0
  7  8  1  1  0  0  0
  8  9  1  1  0  0  0
 11 13  2  0  0  0  0
 11 10  1  0  0  0  0
 12  8  1  1  0  0  0
 12 14  1  0  0  0  0
 14 10  1  0  0  0  0
 15 16  1  0  0  0  0
 15 12  1  0  0  0  0
 16 11  1  0  0  0  0
 17 18  1  6  0  0  0
 17  3  1  0  0  0  0
 19 18  1  0  0  0  0
 20 17  1  0  0  0  0
 22 28  1  0  0  0  0
 23 27  1  6  0  0  0
 23 21  1  0  0  0  0
 24 25  1  0  0  0  0
 24 26  1  0  0  0  0
 25 27  2  0  0  0  0
 26 22  1  1  0  0  0
 26 23  1  0  0  0  0
 27 29  1  0  0  0  0
 28 21  1  0  0  0  0
 28 20  1  6  0  0  0
M  END
>  <MODEL>
6

>  <REMARK>
 VINA RESULT:      -7.0      4.776      6.528
  Name = 
  6 active torsions:
  status: ('A' for Active; 'I' for Inactive)
    1  A    between atoms: C_2  and  C_14
    2  A    between atoms: C_2  and  C_27
    3  A    between atoms: C_8  and  C_20
    4  A    between atoms: C_8  and  C_28
    5  A    between atoms: N_11  and  C_20
    6  A    between atoms: C_17  and  C_20
                            x       y       z     vdW  Elec       q    Type
                         _______ _______ _______ _____ _____    ______ ____

>  <TORSDO>
F 6

$$$$
=
 OpenBabel11062416193D

 29 32  0  0  1  0  0  0  0  0999 V2000
  184.2230  178.3220  143.4450 C   0  0  2  0  0  3  0  0  0  0  0  0
  183.2120  179.2930  144.0320 C   0  0  0  0  0  1  0  0  0  0  0  0
  185.5720  178.9460  143.4360 N   0  0  0  0  0  0  0  0  0  0  0  0
  185.7070  179.0040  140.9690 C   0  0  0  0  0  2  0  0  0  0  0  0
  183.7170  177.8850  142.0600 C   0  0  0  0  0  2  0  0  0  0  0  0
  186.3380  178.4910  142.2640 C   0  0  0  0  0  2  0  0  0  0  0  0
  184.1820  178.8760  140.9880 C   0  0  2  0  0  3  0  0  0  0  0  0
  183.6530  178.5240  139.5980 C   0  0  1  0  0  3  0  0  0  0  0  0
  183.2690  177.1810  139.5470 O   0  0  0  0  0  1  0  0  0  0  0  0
  181.9300  181.4540  138.3460 C   0  0  0  0  0  2  0  0  0  0  0  0
  180.6250  181.4430  139.0870 C   0  0  0  0  0  0  0  0  0  0  0  0
  182.4830  179.4220  139.1970 C   0  0  2  0  0  3  0  0  0  0  0  0
  179.7750  182.3530  138.9040 O   0  0  0  0  0  0  0  0  0  0  0  0
  182.9160  180.7580  139.0760 O   0  0  0  0  0  0  0  0  0  0  0  0
  181.3650  179.3540  140.2470 C   0  0  0  0  0  2  0  0  0  0  0  0
  180.3270  180.3320  139.9340 N   0  0  0  0  0  2  0  0  0  0  0  0
  186.3140  178.5260  144.6410 C   0  0  1  0  0  3  0  0  0  0  0  0
  185.3590  178.2760  145.8100 C   0  0  0  0  0  2  0  0  0  0  0  0
  185.5690  179.2210  146.8140 O   0  0  0  0  0  1  0  0  0  0  0  0
  187.1040  177.2380  144.3920 C   0  0  0  0  0  2  0  0  0  0  0  0
  189.3060  178.1200  146.0220 S   0  0  0  0  0  0  0  0  0  0  0  0
  189.4310  177.0970  143.5510 C   0  0  0  0  0  2  0  0  0  0  0  0
  190.8280  177.4660  145.3690 C   0  0  2  0  0  3  0  0  0  0  0  0
  191.6470  176.0950  143.7330 N   0  0  0  0  0  2  0  0  0  0  0  0
  192.0020  175.6250  144.8590 N   0  0  0  0  0  0  0  0  0  0  0  0
  190.8670  177.3170  143.8950 C   0  0  1  0  0  3  0  0  0  0  0  0
  191.4940  176.4500  145.8920 C   0  0  0  0  0  0  0  0  0  0  0  0
  188.5760  177.4730  144.5100 C   0  0  1  0  0  3  0  0  0  0  0  0
  191.4020  176.0040  147.3110 C   0  0  0  0  0  1  0  0  0  0  0  0
  1  2  1  6  0  0  0
  3  1  1  0  0  0  0
  3 17  1  0  0  0  0
  4  7  1  0  0  0  0
  4  6  1  0  0  0  0
  5  1  1  0  0  0  0
  6  3  1  0  0  0  0
  7  8  1  6  0  0  0
  7  5  1  0  0  0  0
  8  9  1  1  0  0  0
 10 14  1  0  0  0  0
 10 11  1  0  0  0  0
 11 16  1  0  0  0  0
 12  8  1  1  0  0  0
 12 15  1  0  0  0  0
 13 11  2  0  0  0  0
 14 12  1  0  0  0  0
 16 15  1  0  0  0  0
 17 20  1  6  0  0  0
 17 18  1  0  0  0  0
 18 19  1  0  0  0  0
 22 28  1  0  0  0  0
 23 27  1  1  0  0  0
 23 21  1  0  0  0  0
 24 26  1  0  0  0  0
 24 25  1  0  0  0  0
 25 27  2  0  0  0  0
 26 22  1  1  0  0  0
 26 23  1  0  0  0  0
 27 29  1  0  0  0  0
 28 20  1  1  0  0  0
 28 21  1  0  0  0  0
M  END
>  <MODEL>
7

>  <REMARK>
 VINA RESULT:      -6.8      4.626      8.065
  Name = 
  6 active torsions:
  status: ('A' for Active; 'I' for Inactive)
    1  A    between atoms: C_2  and  C_14
    2  A    between atoms: C_2  and  C_27
    3  A    between atoms: C_8  and  C_20
    4  A    between atoms: C_8  and  C_28
    5  A    between atoms: N_11  and  C_20
    6  A    between atoms: C_17  and  C_20
                            x       y       z     vdW  Elec       q    Type
                         _______ _______ _______ _____ _____    ______ ____

>  <TORSDO>
F 6

$$$$
=
 OpenBabel11062416193D

 29 32  0  0  1  0  0  0  0  0999 V2000
  189.3860  177.1050  140.4150 C   0  0  2  0  0  3  0  0  0  0  0  0
  190.8530  177.5010  140.4420 C   0  0  0  0  0  1  0  0  0  0  0  0
  188.5790  178.2120  139.8360 N   0  0  0  0  0  0  0  0  0  0  0  0
  187.3770  178.6580  141.9490 C   0  0  0  0  0  2  0  0  0  0  0  0
  188.9750  176.6990  141.8400 C   0  0  0  0  0  2  0  0  0  0  0  0
  187.2540  178.2660  140.4760 C   0  0  0  0  0  2  0  0  0  0  0  0
  188.5340  177.9300  142.6370 C   0  0  2  0  0  3  0  0  0  0  0  0
  188.1740  177.5910  144.0840 C   0  0  1  0  0  3  0  0  0  0  0  0
  187.4810  176.3790  144.1430 O   0  0  0  0  0  1  0  0  0  0  0  0
  191.5200  176.7020  145.1460 C   0  0  0  0  0  2  0  0  0  0  0  0
  191.4290  176.6960  146.6450 C   0  0  0  0  0  0  0  0  0  0  0  0
  189.4150  177.5350  144.9740 C   0  0  2  0  0  3  0  0  0  0  0  0
  192.4290  176.4010  147.3480 O   0  0  0  0  0  0  0  0  0  0  0  0
  190.2520  176.4740  144.5740 O   0  0  0  0  0  0  0  0  0  0  0  0
  189.0170  177.3300  146.4430 C   0  0  0  0  0  2  0  0  0  0  0  0
  190.2100  177.1200  147.2580 N   0  0  0  0  0  2  0  0  0  0  0  0
  188.3660  177.9610  138.3970 C   0  0  1  0  0  3  0  0  0  0  0  0
  189.4300  178.6690  137.5560 C   0  0  0  0  0  2  0  0  0  0  0  0
  189.0280  179.9730  137.2670 O   0  0  0  0  0  1  0  0  0  0  0  0
  188.4250  176.4650  138.0730 C   0  0  0  0  0  2  0  0  0  0  0  0
  187.1890  174.4320  136.4540 S   0  0  0  0  0  0  0  0  0  0  0  0
  186.1230  176.7700  137.2080 C   0  0  0  0  0  2  0  0  0  0  0  0
  185.4310  174.7080  136.3950 C   0  0  2  0  0  3  0  0  0  0  0  0
  183.7890  176.0650  137.2250 N   0  0  0  0  0  2  0  0  0  0  0  0
  183.5260  174.8690  137.5660 N   0  0  0  0  0  0  0  0  0  0  0  0
  185.0160  176.1300  136.4390 C   0  0  1  0  0  3  0  0  0  0  0  0
  184.5390  174.0090  137.0760 C   0  0  0  0  0  0  0  0  0  0  0  0
  187.2430  176.0380  137.2630 C   0  0  1  0  0  3  0  0  0  0  0  0
  184.7450  172.6270  137.5930 C   0  0  0  0  0  1  0  0  0  0  0  0
  1  2  1  1  0  0  0
  1  5  1  0  0  0  0
  3  1  1  0  0  0  0
  3  6  1  0  0  0  0
  4  7  1  0  0  0  0
  5  7  1  0  0  0  0
  6  4  1  0  0  0  0
  7  8  1  1  0  0  0
  8  9  1  6  0  0  0
 10 11  1  0  0  0  0
 11 16  1  0  0  0  0
 11 13  2  0  0  0  0
 12  8  1  6  0  0  0
 12 15  1  0  0  0  0
 14 12  1  0  0  0  0
 14 10  1  0  0  0  0
 15 16  1  0  0  0  0
 17 18  1  6  0  0  0
 17  3  1  0  0  0  0
 19 18  1  0  0  0  0
 20 17  1  0  0  0  0
 21 28  1  0  0  0  0
 22 28  1  0  0  0  0
 23 26  1  0  0  0  0
 23 21  1  1  0  0  0
 23 27  1  0  0  0  0
 24 25  1  0  0  0  0
 26 22  1  1  0  0  0
 26 24  1  0  0  0  0
 27 25  2  0  0  0  0
 27 29  1  0  0  0  0
 28 20  1  1  0  0  0
M  END
>  <MODEL>
8

>  <REMARK>
 VINA RESULT:      -6.8      2.616      4.218
  Name = 
  6 active torsions:
  status: ('A' for Active; 'I' for Inactive)
    1  A    between atoms: C_2  and  C_14
    2  A    between atoms: C_2  and  C_27
    3  A    between atoms: C_8  and  C_20
    4  A    between atoms: C_8  and  C_28
    5  A    between atoms: N_11  and  C_20
    6  A    between atoms: C_17  and  C_20
                            x       y       z     vdW  Elec       q    Type
                         _______ _______ _______ _____ _____    ______ ____

>  <TORSDO>
F 6

$$$$
=
 OpenBabel11062416193D

 29 32  0  0  1  0  0  0  0  0999 V2000
  188.9990  178.1650  140.4850 C   0  0  2  0  0  3  0  0  0  0  0  0
  187.6460  178.1720  139.7930 C   0  0  0  0  0  1  0  0  0  0  0  0
  189.6740  176.8600  140.2550 N   0  0  0  0  0  0  0  0  0  0  0  0
  189.5810  176.2090  142.6380 C   0  0  0  0  0  2  0  0  0  0  0  0
  188.7770  178.5120  141.9680 C   0  0  0  0  0  2  0  0  0  0  0  0
  190.4780  176.4880  141.4310 C   0  0  0  0  0  2  0  0  0  0  0  0
  188.4630  177.2460  142.7680 C   0  0  2  0  0  3  0  0  0  0  0  0
  188.1710  177.5410  144.2400 C   0  0  1  0  0  3  0  0  0  0  0  0
  186.9630  176.9530  144.6250 O   0  0  0  0  0  1  0  0  0  0  0  0
  189.8220  176.4070  147.2570 C   0  0  0  0  0  2  0  0  0  0  0  0
  191.2330  176.8910  147.0940 C   0  0  0  0  0  0  0  0  0  0  0  0
  189.3050  177.0610  145.1450 C   0  0  2  0  0  3  0  0  0  0  0  0
  192.0910  176.6820  147.9910 O   0  0  0  0  0  0  0  0  0  0  0  0
  188.9380  177.2020  146.4990 O   0  0  0  0  0  0  0  0  0  0  0  0
  190.5830  177.8720  144.8880 C   0  0  0  0  0  2  0  0  0  0  0  0
  191.6070  177.5120  145.8640 N   0  0  0  0  0  2  0  0  0  0  0  0
  190.5960  176.9820  139.1090 C   0  0  1  0  0  3  0  0  0  0  0  0
  192.0440  177.1150  139.5850 C   0  0  0  0  0  2  0  0  0  0  0  0
  192.9210  176.7240  138.5740 O   0  0  0  0  0  1  0  0  0  0  0  0
  190.5100  175.7610  138.1880 C   0  0  0  0  0  2  0  0  0  0  0  0
  188.4770  174.6260  136.4970 S   0  0  0  0  0  0  0  0  0  0  0  0
  189.2400  177.1900  136.6120 C   0  0  0  0  0  2  0  0  0  0  0  0
  187.4440  175.9270  135.8550 C   0  0  2  0  0  3  0  0  0  0  0  0
  187.1080  178.1850  135.9690 N   0  0  0  0  0  2  0  0  0  0  0  0
  186.0390  177.6050  136.3400 N   0  0  0  0  0  0  0  0  0  0  0  0
  188.1350  177.2140  135.6080 C   0  0  1  0  0  3  0  0  0  0  0  0
  186.2270  176.2020  136.2930 C   0  0  0  0  0  0  0  0  0  0  0  0
  189.5080  175.9730  137.0990 C   0  0  1  0  0  3  0  0  0  0  0  0
  185.3310  175.2430  136.9980 C   0  0  0  0  0  1  0  0  0  0  0  0
  1  2  1  6  0  0  0
  1  5  1  0  0  0  0
  3  1  1  0  0  0  0
  3  6  1  0  0  0  0
  4  7  1  0  0  0  0
  5  7  1  0  0  0  0
  6  4  1  0  0  0  0
  7  8  1  1  0  0  0
  8  9  1  1  0  0  0
 11 10  1  0  0  0  0
 11 13  2  0  0  0  0
 12  8  1  6  0  0  0
 12 14  1  0  0  0  0
 14 10  1  0  0  0  0
 15 12  1  0  0  0  0
 15 16  1  0  0  0  0
 16 11  1  0  0  0  0
 17 20  1  6  0  0  0
 17 18  1  0  0  0  0
 17  3  1  0  0  0  0
 19 18  1  0  0  0  0
 21 28  1  0  0  0  0
 22 28  1  0  0  0  0
 23 27  1  1  0  0  0
 23 21  1  0  0  0  0
 24 25  1  0  0  0  0
 26 23  1  0  0  0  0
 26 24  1  0  0  0  0
 26 22  1  1  0  0  0
 27 25  2  0  0  0  0
 27 29  1  0  0  0  0
 28 20  1  1  0  0  0
M  END
>  <MODEL>
9

>  <REMARK>
 VINA RESULT:      -6.8      2.012      2.950
  Name = 
  6 active torsions:
  status: ('A' for Active; 'I' for Inactive)
    1  A    between atoms: C_2  and  C_14
    2  A    between atoms: C_2  and  C_27
    3  A    between atoms: C_8  and  C_20
    4  A    between atoms: C_8  and  C_28
    5  A    between atoms: N_11  and  C_20
    6  A    between atoms: C_17  and  C_20
                            x       y       z     vdW  Elec       q    Type
                         _______ _______ _______ _____ _____    ______ ____

>  <TORSDO>
F 6

$$$$
