=
 OpenBabel11062416173D

 44 46  0  0  1  0  0  0  0  0999 V2000
  191.6940  176.5170  145.8660 C   0  0  0  0  0  3  0  0  0  0  0  0
  188.9220  176.8440  146.9490 N   0  0  0  0  0  0  0  0  0  0  0  0
  191.1320  177.3230  144.9450 C   0  0  0  0  0  0  0  0  0  0  0  0
  192.3730  176.8410  148.1720 N   0  0  0  0  0  1  0  0  0  0  0  0
  188.8330  177.3930  145.7820 C   0  0  0  0  0  0  0  0  0  0  0  0
  190.0730  176.9640  147.7020 O   0  0  0  0  0  0  0  0  0  0  0  0
  189.9680  178.2070  145.2590 C   0  0  0  0  0  2  0  0  0  0  0  0
  191.3050  176.3490  147.3170 C   0  0  1  0  0  3  0  0  0  0  0  0
  191.6250  177.3450  143.6360 O   0  0  0  0  0  0  0  0  0  0  0  0
  191.5550  176.2320  142.8210 N   0  0  0  0  0  2  0  0  0  0  0  0
  190.2960  176.3110  142.1020 C   0  0  0  0  0  2  0  0  0  0  0  0
  190.3190  177.4760  141.1240 C   0  0  0  0  0  2  0  0  0  0  0  0
  189.3590  177.2400  139.9590 C   0  0  2  0  0  3  0  0  0  0  0  0
  189.9150  177.9060  138.6830 C   0  0  1  0  0  3  0  0  0  0  0  0
  190.6830  177.0190  137.8110 N   0  0  1  0  0  0  0  0  0  0  0  0
  188.8310  178.5260  137.7720 C   0  0  2  0  0  3  0  0  0  0  0  0
  191.2270  175.7690  138.3020 C   0  0  0  0  0  2  0  0  0  0  0  0
  189.6880  176.5510  136.8970 C   0  0  1  0  0  3  0  0  0  0  0  0
  188.9310  177.7610  136.4430 C   0  0  1  0  0  3  0  0  0  0  0  0
  189.1180  179.8740  137.5530 O   0  0  0  0  0  1  0  0  0  0  0  0
  191.2680  174.8640  137.0510 C   0  0  0  0  0  2  0  0  0  0  0  0
  190.3740  175.5560  136.0120 C   0  0  0  0  0  2  0  0  0  0  0  0
  187.3740  175.6710  137.5950 O   0  0  0  0  0  0  0  0  0  0  0  0
  187.6030  177.3700  135.9990 N   0  0  0  0  0  2  0  0  0  0  0  0
  186.8530  176.3490  136.6690 C   0  0  0  0  0  0  0  0  0  0  0  0
  184.3590  175.8630  135.9510 C   0  0  0  0  0  3  0  0  0  0  0  0
  185.4950  176.0860  136.2770 C   0  0  0  0  0  0  0  0  0  0  0  0
  187.9520  177.7180  140.3140 C   0  0  0  0  0  2  0  0  0  0  0  0
  188.0070  178.7450  141.4280 C   0  0  0  0  0  1  0  0  0  0  0  0
  187.5840  177.2580  144.9830 C   0  0  0  0  0  2  0  0  0  0  0  0
  186.7650  178.4510  145.1380 N   0  0  0  0  0  2  0  0  0  0  0  0
  185.6980  178.2030  146.1090 C   0  0  1  0  0  3  0  0  0  0  0  0
  186.0980  178.6820  147.5030 C   0  0  0  0  0  2  0  0  0  0  0  0
  185.8460  180.0510  147.6250 O   0  0  0  0  0  1  0  0  0  0  0  0
  184.5010  178.8020  145.6940 O   0  0  0  0  0  0  0  0  0  0  0  0
  184.4690  178.6300  144.3080 C   0  0  0  0  0  2  0  0  0  0  0  0
  183.3870  179.4230  143.7440 N   0  0  0  0  0  2  0  0  0  0  0  0
  182.9780  178.7790  142.5100 C   0  0  0  0  0  2  0  0  0  0  0  0
  184.1950  178.3540  141.7050 C   0  0  0  0  0  2  0  0  0  0  0  0
  184.6290  179.4140  140.9080 O   0  0  0  0  0  0  0  0  0  0  0  0
  182.9680  180.0780  138.7880 O   0  0  0  0  0  1  0  0  0  0  0  0
  183.6530  177.5930  139.2840 O   0  0  0  0  0  1  0  0  0  0  0  0
  185.5250  179.1470  138.3160 O   0  0  0  0  0  0  0  0  0  0  0  0
  184.1710  179.0160  139.3290 P   0  0  0  0  0  0  0  0  0  0  0  0
  1  8  1  0  0  0  0
  2  6  1  0  0  0  0
  3  7  1  0  0  0  0
  3  1  2  0  0  0  0
  5  2  2  0  0  0  0
  7  5  1  0  0  0  0
  8  6  1  0  0  0  0
  8  4  1  1  0  0  0
  9  3  1  0  0  0  0
 10  9  1  0  0  0  0
 11 10  1  0  0  0  0
 12 11  1  0  0  0  0
 13 28  1  1  0  0  0
 13 12  1  0  0  0  0
 14 13  1  1  0  0  0
 15 17  1  1  0  0  0
 15 14  1  0  0  0  0
 16 20  1  6  0  0  0
 16 14  1  0  0  0  0
 18 22  1  6  0  0  0
 18 15  1  0  0  0  0
 19 24  1  1  0  0  0
 19 18  1  0  0  0  0
 19 16  1  0  0  0  0
 21 17  1  0  0  0  0
 22 21  1  0  0  0  0
 24 25  1  0  0  0  0
 25 23  2  0  0  0  0
 26 27  3  0  0  0  0
 27 25  1  0  0  0  0
 28 29  1  0  0  0  0
 30 31  1  0  0  0  0
 30  5  1  0  0  0  0
 31 32  1  0  0  0  0
 32 33  1  1  0  0  0
 33 34  1  0  0  0  0
 35 32  1  0  0  0  0
 36 35  1  0  0  0  0
 37 36  1  0  0  0  0
 38 37  1  0  0  0  0
 39 38  1  0  0  0  0
 40 39  1  0  0  0  0
 41 44  1  0  0  0  0
 42 44  1  0  0  0  0
 43 44  2  0  0  0  0
 44 40  1  0  0  0  0
M  END
>  <MODEL>
1

>  <REMARK>
 VINA RESULT:      -7.1      0.000      0.000
  Name = 
  20 active torsions:
  status: ('A' for Active; 'I' for Inactive)
    1  A    between atoms: C_1  and  C_20
    2  A    between atoms: C_1  and  N_21
    3  A    between atoms: C_3  and  O_19
    4  A    between atoms: C_3  and  C_40
    5  A    between atoms: N_4  and  O_5
    6  A    between atoms: N_4  and  C_13
    7  A    between atoms: O_5  and  C_11
    8  A    between atoms: O_7  and  C_26
    9  A    between atoms: O_7  and  C_31
   10  A    between atoms: C_9  and  C_33
   11  A    between atoms: C_13  and  C_38
   12  A    between atoms: C_14  and  C_33
   13  A    between atoms: O_19  and  P_37
   14  A    between atoms: N_21  and  C_31
   15  A    between atoms: C_22  and  C_31
   16  A    between atoms: N_25  and  C_26
   17  A    between atoms: N_25  and  C_40
   18  A    between atoms: C_27  and  N_30
   19  A    between atoms: C_32  and  C_34
   20  A    between atoms: C_33  and  C_38
                            x       y       z     vdW  Elec       q    Type
                         _______ _______ _______ _____ _____    ______ ____

>  <TORSDO>
F 20

$$$$
=
 OpenBabel11062416173D

 44 46  0  0  1  0  0  0  0  0999 V2000
  185.6490  178.9070  144.6670 C   0  0  0  0  0  3  0  0  0  0  0  0
  188.0260  177.9920  146.2390 N   0  0  0  0  0  0  0  0  0  0  0  0
  186.2500  178.0740  143.7970 C   0  0  0  0  0  0  0  0  0  0  0  0
  184.4450  178.5640  146.7440 N   0  0  0  0  0  1  0  0  0  0  0  0
  188.2690  177.5160  145.0620 C   0  0  0  0  0  0  0  0  0  0  0  0
  186.7360  178.0410  146.7310 O   0  0  0  0  0  0  0  0  0  0  0  0
  187.1510  176.9670  144.2420 C   0  0  0  0  0  2  0  0  0  0  0  0
  185.7390  178.9020  146.1760 C   0  0  1  0  0  3  0  0  0  0  0  0
  186.0530  178.2330  142.4210 O   0  0  0  0  0  0  0  0  0  0  0  0
  184.9400  178.8830  141.9230 N   0  0  0  0  0  2  0  0  0  0  0  0
  183.8540  177.9200  141.9120 C   0  0  0  0  0  2  0  0  0  0  0  0
  183.3250  177.7390  140.4970 C   0  0  0  0  0  2  0  0  0  0  0  0
  182.8830  179.0730  139.8960 C   0  0  2  0  0  3  0  0  0  0  0  0
  181.4860  178.9190  139.2600 C   0  0  1  0  0  3  0  0  0  0  0  0
  180.3780  179.3930  140.0870 N   0  0  1  0  0  0  0  0  0  0  0  0
  181.3230  179.6550  137.9100 C   0  0  2  0  0  3  0  0  0  0  0  0
  180.5340  179.5840  141.5150 C   0  0  0  0  0  2  0  0  0  0  0  0
  180.2170  180.7420  139.6420 C   0  0  1  0  0  3  0  0  0  0  0  0
  180.2140  180.6930  138.1440 C   0  0  1  0  0  3  0  0  0  0  0  0
  180.9120  178.7520  136.9300 O   0  0  0  0  0  1  0  0  0  0  0  0
  179.5300  180.7070  141.8540 C   0  0  0  0  0  2  0  0  0  0  0  0
  179.1500  181.3400  140.5070 C   0  0  0  0  0  2  0  0  0  0  0  0
  179.8140  181.5470  135.4550 O   0  0  0  0  0  0  0  0  0  0  0  0
  180.6240  181.9810  137.6110 N   0  0  0  0  0  2  0  0  0  0  0  0
  180.3320  182.3660  136.2610 C   0  0  0  0  0  0  0  0  0  0  0  0
  180.9020  184.8100  135.4400 C   0  0  0  0  0  3  0  0  0  0  0  0
  180.6410  183.6980  135.8150 C   0  0  0  0  0  0  0  0  0  0  0  0
  183.9290  179.5950  138.9130 C   0  0  0  0  0  2  0  0  0  0  0  0
  184.7950  178.4580  138.4070 C   0  0  0  0  0  1  0  0  0  0  0  0
  189.6640  177.4660  144.5470 C   0  0  0  0  0  2  0  0  0  0  0  0
  189.6580  177.5180  143.0930 N   0  0  0  0  0  2  0  0  0  0  0  0
  190.7600  176.7150  142.5590 C   0  0  1  0  0  3  0  0  0  0  0  0
  190.8900  175.3900  143.3070 C   0  0  0  0  0  2  0  0  0  0  0  0
  191.9270  175.4710  144.2400 O   0  0  0  0  0  1  0  0  0  0  0  0
  190.5990  176.5040  141.1830 O   0  0  0  0  0  0  0  0  0  0  0  0
  189.5240  177.3160  140.8130 C   0  0  0  0  0  2  0  0  0  0  0  0
  189.7660  177.8720  139.4900 N   0  0  0  0  0  2  0  0  0  0  0  0
  188.5060  178.4070  139.0110 C   0  0  0  0  0  2  0  0  0  0  0  0
  188.4270  178.3050  137.4970 C   0  0  0  0  0  2  0  0  0  0  0  0
  188.0970  177.0010  137.1260 O   0  0  0  0  0  0  0  0  0  0  0  0
  187.4830  175.5010  134.8750 O   0  0  0  0  0  1  0  0  0  0  0  0
  189.1340  177.5380  134.7720 O   0  0  0  0  0  0  0  0  0  0  0  0
  186.5990  178.1080  135.0950 O   0  0  0  0  0  1  0  0  0  0  0  0
  187.8720  177.0450  135.4500 P   0  0  0  0  0  0  0  0  0  0  0  0
  1  8  1  0  0  0  0
  2  6  1  0  0  0  0
  3  7  1  0  0  0  0
  3  1  2  0  0  0  0
  5  2  2  0  0  0  0
  7  5  1  0  0  0  0
  8  6  1  0  0  0  0
  8  4  1  1  0  0  0
  9  3  1  0  0  0  0
 10  9  1  0  0  0  0
 11 10  1  0  0  0  0
 12 11  1  0  0  0  0
 13 28  1  6  0  0  0
 13 12  1  0  0  0  0
 14 13  1  1  0  0  0
 14 15  1  0  0  0  0
 15 17  1  1  0  0  0
 16 20  1  6  0  0  0
 16 19  1  0  0  0  0
 16 14  1  0  0  0  0
 17 21  1  0  0  0  0
 18 15  1  0  0  0  0
 18 22  1  1  0  0  0
 19 24  1  6  0  0  0
 19 18  1  0  0  0  0
 22 21  1  0  0  0  0
 23 25  2  0  0  0  0
 25 24  1  0  0  0  0
 26 27  3  0  0  0  0
 27 25  1  0  0  0  0
 29 28  1  0  0  0  0
 30  5  1  0  0  0  0
 31 30  1  0  0  0  0
 32 31  1  0  0  0  0
 32 33  1  1  0  0  0
 33 34  1  0  0  0  0
 35 32  1  0  0  0  0
 36 35  1  0  0  0  0
 37 36  1  0  0  0  0
 38 37  1  0  0  0  0
 39 38  1  0  0  0  0
 40 39  1  0  0  0  0
 41 44  1  0  0  0  0
 42 44  2  0  0  0  0
 43 44  1  0  0  0  0
 44 40  1  0  0  0  0
M  END
>  <MODEL>
2

>  <REMARK>
 VINA RESULT:      -6.4      3.776      7.580
  Name = 
  20 active torsions:
  status: ('A' for Active; 'I' for Inactive)
    1  A    between atoms: C_1  and  C_20
    2  A    between atoms: C_1  and  N_21
    3  A    between atoms: C_3  and  O_19
    4  A    between atoms: C_3  and  C_40
    5  A    between atoms: N_4  and  O_5
    6  A    between atoms: N_4  and  C_13
    7  A    between atoms: O_5  and  C_11
    8  A    between atoms: O_7  and  C_26
    9  A    between atoms: O_7  and  C_31
   10  A    between atoms: C_9  and  C_33
   11  A    between atoms: C_13  and  C_38
   12  A    between atoms: C_14  and  C_33
   13  A    between atoms: O_19  and  P_37
   14  A    between atoms: N_21  and  C_31
   15  A    between atoms: C_22  and  C_31
   16  A    between atoms: N_25  and  C_26
   17  A    between atoms: N_25  and  C_40
   18  A    between atoms: C_27  and  N_30
   19  A    between atoms: C_32  and  C_34
   20  A    between atoms: C_33  and  C_38
                            x       y       z     vdW  Elec       q    Type
                         _______ _______ _______ _____ _____    ______ ____

>  <TORSDO>
F 20

$$$$
=
 OpenBabel11062416173D

 44 46  0  0  1  0  0  0  0  0999 V2000
  185.5420  178.9730  144.5760 C   0  0  0  0  0  3  0  0  0  0  0  0
  187.7810  178.0890  146.3560 N   0  0  0  0  0  0  0  0  0  0  0  0
  186.2260  178.1440  143.7660 C   0  0  0  0  0  0  0  0  0  0  0  0
  184.1630  178.6230  146.5410 N   0  0  0  0  0  1  0  0  0  0  0  0
  188.1320  177.6130  145.2070 C   0  0  0  0  0  0  0  0  0  0  0  0
  186.4530  178.1250  146.7320 O   0  0  0  0  0  0  0  0  0  0  0  0
  187.0970  177.0490  144.2930 C   0  0  0  0  0  2  0  0  0  0  0  0
  185.5000  178.9730  146.0870 C   0  0  1  0  0  3  0  0  0  0  0  0
  186.1500  178.2960  142.3770 O   0  0  0  0  0  0  0  0  0  0  0  0
  185.4160  179.3160  141.8040 N   0  0  0  0  0  2  0  0  0  0  0  0
  185.3220  179.0270  140.3850 C   0  0  0  0  0  2  0  0  0  0  0  0
  183.8840  179.1730  139.9110 C   0  0  0  0  0  2  0  0  0  0  0  0
  183.3120  177.8310  139.4560 C   0  0  2  0  0  3  0  0  0  0  0  0
  182.8560  177.9310  137.9860 C   0  0  1  0  0  3  0  0  0  0  0  0
  183.7470  177.2920  137.0200 N   0  0  1  0  0  0  0  0  0  0  0  0
  181.4630  177.3190  137.7140 C   0  0  2  0  0  3  0  0  0  0  0  0
  185.1210  176.9770  137.3580 C   0  0  0  0  0  2  0  0  0  0  0  0
  183.1820  175.9840  136.9010 C   0  0  1  0  0  3  0  0  0  0  0  0
  181.7080  176.1770  136.7150 C   0  0  1  0  0  3  0  0  0  0  0  0
  180.6360  178.2770  137.1280 O   0  0  0  0  0  1  0  0  0  0  0  0
  185.4490  175.7480  136.4810 C   0  0  0  0  0  2  0  0  0  0  0  0
  184.0940  175.2200  135.9880 C   0  0  0  0  0  2  0  0  0  0  0  0
  179.6180  174.9040  135.2550 O   0  0  0  0  0  0  0  0  0  0  0  0
  180.9990  174.9840  137.1470 N   0  0  0  0  0  2  0  0  0  0  0  0
  180.0000  174.3620  136.3280 C   0  0  0  0  0  0  0  0  0  0  0  0
  178.9310  172.0670  137.0740 C   0  0  0  0  0  3  0  0  0  0  0  0
  179.4180  173.1130  136.7370 C   0  0  0  0  0  0  0  0  0  0  0  0
  182.1970  177.3730  140.3930 C   0  0  0  0  0  2  0  0  0  0  0  0
  181.7510  178.5160  141.2840 C   0  0  0  0  0  1  0  0  0  0  0  0
  189.5680  177.5770  144.8170 C   0  0  0  0  0  2  0  0  0  0  0  0
  189.7560  178.2760  143.5540 N   0  0  0  0  0  2  0  0  0  0  0  0
  190.3580  177.3770  142.5690 C   0  0  1  0  0  3  0  0  0  0  0  0
  191.1130  176.2370  143.2500 C   0  0  0  0  0  2  0  0  0  0  0  0
  190.5110  175.0150  142.9390 O   0  0  0  0  0  1  0  0  0  0  0  0
  189.3860  176.8820  141.6900 O   0  0  0  0  0  0  0  0  0  0  0  0
  189.7510  177.3680  140.4320 C   0  0  0  0  0  2  0  0  0  0  0  0
  188.7200  178.2690  139.9390 N   0  0  0  0  0  2  0  0  0  0  0  0
  188.5360  177.9830  138.5290 C   0  0  0  0  0  2  0  0  0  0  0  0
  189.8810  177.8440  137.8350 C   0  0  0  0  0  2  0  0  0  0  0  0
  189.7880  176.9070  136.8050 O   0  0  0  0  0  0  0  0  0  0  0  0
  192.3680  176.6670  137.7970 O   0  0  0  0  0  1  0  0  0  0  0  0
  191.5700  175.3380  135.6790 O   0  0  0  0  0  0  0  0  0  0  0  0
  190.6020  174.5510  137.9810 O   0  0  0  0  0  1  0  0  0  0  0  0
  191.0980  175.8590  137.0210 P   0  0  0  0  0  0  0  0  0  0  0  0
  1  8  1  0  0  0  0
  2  6  1  0  0  0  0
  3  7  1  0  0  0  0
  3  1  2  0  0  0  0
  5  2  2  0  0  0  0
  7  5  1  0  0  0  0
  8  4  1  6  0  0  0
  8  6  1  0  0  0  0
  9  3  1  0  0  0  0
 10  9  1  0  0  0  0
 11 10  1  0  0  0  0
 12 11  1  0  0  0  0
 13 12  1  1  0  0  0
 13 28  1  0  0  0  0
 14 13  1  1  0  0  0
 15 17  1  1  0  0  0
 15 14  1  0  0  0  0
 16 20  1  6  0  0  0
 16 14  1  0  0  0  0
 18 22  1  6  0  0  0
 18 15  1  0  0  0  0
 19 18  1  0  0  0  0
 19 24  1  1  0  0  0
 19 16  1  0  0  0  0
 21 17  1  0  0  0  0
 22 21  1  0  0  0  0
 23 25  2  0  0  0  0
 25 27  1  0  0  0  0
 25 24  1  0  0  0  0
 27 26  3  0  0  0  0
 28 29  1  0  0  0  0
 30  5  1  0  0  0  0
 31 30  1  0  0  0  0
 32 33  1  1  0  0  0
 32 31  1  0  0  0  0
 34 33  1  0  0  0  0
 35 32  1  0  0  0  0
 36 35  1  0  0  0  0
 37 36  1  0  0  0  0
 38 37  1  0  0  0  0
 39 38  1  0  0  0  0
 40 44  1  0  0  0  0
 40 39  1  0  0  0  0
 42 44  2  0  0  0  0
 44 41  1  0  0  0  0
 44 43  1  0  0  0  0
M  END
>  <MODEL>
3

>  <REMARK>
 VINA RESULT:      -6.3      3.301      6.616
  Name = 
  20 active torsions:
  status: ('A' for Active; 'I' for Inactive)
    1  A    between atoms: C_1  and  C_20
    2  A    between atoms: C_1  and  N_21
    3  A    between atoms: C_3  and  O_19
    4  A    between atoms: C_3  and  C_40
    5  A    between atoms: N_4  and  O_5
    6  A    between atoms: N_4  and  C_13
    7  A    between atoms: O_5  and  C_11
    8  A    between atoms: O_7  and  C_26
    9  A    between atoms: O_7  and  C_31
   10  A    between atoms: C_9  and  C_33
   11  A    between atoms: C_13  and  C_38
   12  A    between atoms: C_14  and  C_33
   13  A    between atoms: O_19  and  P_37
   14  A    between atoms: N_21  and  C_31
   15  A    between atoms: C_22  and  C_31
   16  A    between atoms: N_25  and  C_26
   17  A    between atoms: N_25  and  C_40
   18  A    between atoms: C_27  and  N_30
   19  A    between atoms: C_32  and  C_34
   20  A    between atoms: C_33  and  C_38
                            x       y       z     vdW  Elec       q    Type
                         _______ _______ _______ _____ _____    ______ ____

>  <TORSDO>
F 20

$$$$
=
 OpenBabel11062416173D

 44 46  0  0  1  0  0  0  0  0999 V2000
  189.1590  177.1910  139.3660 C   0  0  0  0  0  3  0  0  0  0  0  0
  188.9540  176.9520  142.3430 N   0  0  0  0  0  0  0  0  0  0  0  0
  188.1730  178.0650  139.6450 C   0  0  0  0  0  0  0  0  0  0  0  0
  191.5500  177.1910  139.7720 N   0  0  0  0  0  1  0  0  0  0  0  0
  187.9280  177.6810  142.0490 C   0  0  0  0  0  0  0  0  0  0  0  0
  190.1410  177.0890  141.6500 O   0  0  0  0  0  0  0  0  0  0  0  0
  188.0380  178.7170  140.9830 C   0  0  0  0  0  2  0  0  0  0  0  0
  190.2700  176.7200  140.2760 C   0  0  1  0  0  3  0  0  0  0  0  0
  187.2190  178.3830  138.6720 O   0  0  0  0  0  0  0  0  0  0  0  0
  186.8100  177.4550  137.7340 N   0  0  0  0  0  2  0  0  0  0  0  0
  185.4980  177.8670  137.2710 C   0  0  0  0  0  2  0  0  0  0  0  0
  184.5420  176.6840  137.2740 C   0  0  0  0  0  2  0  0  0  0  0  0
  183.1950  177.0610  137.8890 C   0  0  2  0  0  3  0  0  0  0  0  0
  182.9960  178.5890  137.8090 C   0  0  1  0  0  3  0  0  0  0  0  0
  181.7530  179.0150  137.1700 N   0  0  1  0  0  0  0  0  0  0  0  0
  183.0060  179.2990  139.1820 C   0  0  2  0  0  3  0  0  0  0  0  0
  180.9980  178.1160  136.3200 C   0  0  0  0  0  2  0  0  0  0  0  0
  180.8680  179.1560  138.2830 C   0  0  1  0  0  3  0  0  0  0  0  0
  181.6150  179.9380  139.3200 C   0  0  1  0  0  3  0  0  0  0  0  0
  183.9780  180.3000  139.1850 O   0  0  0  0  0  1  0  0  0  0  0  0
  179.5390  178.5990  136.4700 C   0  0  0  0  0  2  0  0  0  0  0  0
  179.5290  179.5070  137.7080 C   0  0  0  0  0  2  0  0  0  0  0  0
  179.6750  181.5370  140.6620 O   0  0  0  0  0  0  0  0  0  0  0  0
  181.0700  179.6540  140.6360 N   0  0  0  0  0  2  0  0  0  0  0  0
  180.0480  180.4710  141.2230 C   0  0  0  0  0  0  0  0  0  0  0  0
  178.9430  179.7480  143.5090 C   0  0  0  0  0  3  0  0  0  0  0  0
  179.4480  180.0790  142.4690 C   0  0  0  0  0  0  0  0  0  0  0  0
  183.0810  176.5220  139.3130 C   0  0  0  0  0  2  0  0  0  0  0  0
  181.8780  175.6060  139.4380 C   0  0  0  0  0  1  0  0  0  0  0  0
  186.6560  177.5250  142.8070 C   0  0  0  0  0  2  0  0  0  0  0  0
  186.1250  178.8330  143.1600 N   0  0  0  0  0  2  0  0  0  0  0  0
  185.4080  178.7550  144.4340 C   0  0  1  0  0  3  0  0  0  0  0  0
  183.9030  178.9120  144.2310 C   0  0  0  0  0  2  0  0  0  0  0  0
  183.3080  179.3590  145.4140 O   0  0  0  0  0  1  0  0  0  0  0  0
  185.7040  177.5560  145.0970 O   0  0  0  0  0  0  0  0  0  0  0  0
  185.7420  177.8910  146.4540 C   0  0  0  0  0  2  0  0  0  0  0  0
  187.0300  178.4890  146.7710 N   0  0  0  0  0  2  0  0  0  0  0  0
  187.8170  177.4800  147.4560 C   0  0  0  0  0  2  0  0  0  0  0  0
  189.1310  177.2480  146.7290 C   0  0  0  0  0  2  0  0  0  0  0  0
  189.8090  176.1750  147.3080 O   0  0  0  0  0  0  0  0  0  0  0  0
  192.3490  175.0710  147.1540 O   0  0  0  0  0  1  0  0  0  0  0  0
  191.9340  177.4500  148.1830 O   0  0  0  0  0  1  0  0  0  0  0  0
  191.6770  177.2430  145.5860 O   0  0  0  0  0  0  0  0  0  0  0  0
  191.4540  176.5080  147.0980 P   0  0  0  0  0  0  0  0  0  0  0  0
  1  3  2  0  0  0  0
  1  8  1  0  0  0  0
  3  7  1  0  0  0  0
  5  2  2  0  0  0  0
  5 30  1  0  0  0  0
  6  2  1  0  0  0  0
  7  5  1  0  0  0  0
  8  4  1  6  0  0  0
  8  6  1  0  0  0  0
  9  3  1  0  0  0  0
 10  9  1  0  0  0  0
 11 12  1  0  0  0  0
 11 10  1  0  0  0  0
 13 12  1  1  0  0  0
 13 28  1  0  0  0  0
 14 13  1  1  0  0  0
 14 16  1  0  0  0  0
 15 17  1  6  0  0  0
 15 14  1  0  0  0  0
 15 18  1  0  0  0  0
 16 20  1  6  0  0  0
 16 19  1  0  0  0  0
 17 21  1  0  0  0  0
 18 22  1  6  0  0  0
 18 19  1  0  0  0  0
 19 24  1  1  0  0  0
 21 22  1  0  0  0  0
 23 25  2  0  0  0  0
 24 25  1  0  0  0  0
 25 27  1  0  0  0  0
 27 26  3  0  0  0  0
 28 29  1  0  0  0  0
 30 31  1  0  0  0  0
 31 32  1  0  0  0  0
 32 33  1  6  0  0  0
 32 35  1  0  0  0  0
 33 34  1  0  0  0  0
 35 36  1  0  0  0  0
 36 37  1  0  0  0  0
 37 38  1  0  0  0  0
 39 40  1  0  0  0  0
 39 38  1  0  0  0  0
 43 44  2  0  0  0  0
 44 41  1  0  0  0  0
 44 40  1  0  0  0  0
 44 42  1  0  0  0  0
M  END
>  <MODEL>
4

>  <REMARK>
 VINA RESULT:      -6.3      3.334      7.712
  Name = 
  20 active torsions:
  status: ('A' for Active; 'I' for Inactive)
    1  A    between atoms: C_1  and  C_20
    2  A    between atoms: C_1  and  N_21
    3  A    between atoms: C_3  and  O_19
    4  A    between atoms: C_3  and  C_40
    5  A    between atoms: N_4  and  O_5
    6  A    between atoms: N_4  and  C_13
    7  A    between atoms: O_5  and  C_11
    8  A    between atoms: O_7  and  C_26
    9  A    between atoms: O_7  and  C_31
   10  A    between atoms: C_9  and  C_33
   11  A    between atoms: C_13  and  C_38
   12  A    between atoms: C_14  and  C_33
   13  A    between atoms: O_19  and  P_37
   14  A    between atoms: N_21  and  C_31
   15  A    between atoms: C_22  and  C_31
   16  A    between atoms: N_25  and  C_26
   17  A    between atoms: N_25  and  C_40
   18  A    between atoms: C_27  and  N_30
   19  A    between atoms: C_32  and  C_34
   20  A    between atoms: C_33  and  C_38
                            x       y       z     vdW  Elec       q    Type
                         _______ _______ _______ _____ _____    ______ ____

>  <TORSDO>
F 20

$$$$
=
 OpenBabel11062416173D

 44 46  0  0  1  0  0  0  0  0999 V2000
  189.5320  177.2560  139.9260 C   0  0  0  0  0  3  0  0  0  0  0  0
  188.8980  177.2850  142.8520 N   0  0  0  0  0  0  0  0  0  0  0  0
  188.4560  178.0660  139.9660 C   0  0  0  0  0  0  0  0  0  0  0  0
  191.8290  177.4980  140.6670 N   0  0  0  0  0  1  0  0  0  0  0  0
  187.8790  177.8930  142.3380 C   0  0  0  0  0  0  0  0  0  0  0  0
  190.1630  177.4560  142.3250 O   0  0  0  0  0  0  0  0  0  0  0  0
  188.0750  178.8280  141.1940 C   0  0  0  0  0  2  0  0  0  0  0  0
  190.5230  176.9700  141.0300 C   0  0  1  0  0  3  0  0  0  0  0  0
  187.6400  178.2070  138.8390 O   0  0  0  0  0  0  0  0  0  0  0  0
  187.3480  177.1320  138.0220 N   0  0  0  0  0  2  0  0  0  0  0  0
  186.2210  177.5210  137.1940 C   0  0  0  0  0  2  0  0  0  0  0  0
  185.0000  176.6820  137.5390 C   0  0  0  0  0  2  0  0  0  0  0  0
  183.9630  177.5020  138.3070 C   0  0  2  0  0  3  0  0  0  0  0  0
  182.5960  177.4060  137.5990 C   0  0  1  0  0  3  0  0  0  0  0  0
  181.4460  177.2870  138.4930 N   0  0  1  0  0  0  0  0  0  0  0  0
  182.2720  178.6120  136.6870 C   0  0  2  0  0  3  0  0  0  0  0  0
  181.6070  176.8690  139.8720 C   0  0  0  0  0  2  0  0  0  0  0  0
  181.0450  178.6490  138.6600 C   0  0  1  0  0  3  0  0  0  0  0  0
  181.0080  179.2480  137.2880 C   0  0  1  0  0  3  0  0  0  0  0  0
  181.9950  178.1630  135.3960 O   0  0  0  0  0  1  0  0  0  0  0  0
  180.4350  177.5530  140.6080 C   0  0  0  0  0  2  0  0  0  0  0  0
  179.9150  178.6300  139.6450 C   0  0  0  0  0  2  0  0  0  0  0  0
  179.1610  181.1720  136.2840 O   0  0  0  0  0  0  0  0  0  0  0  0
  181.1770  180.6890  137.3770 N   0  0  0  0  0  2  0  0  0  0  0  0
  180.1730  181.5970  136.9040 C   0  0  0  0  0  0  0  0  0  0  0  0
  180.4480  184.1900  137.3160 C   0  0  0  0  0  3  0  0  0  0  0  0
  180.3230  183.0090  137.1310 C   0  0  0  0  0  0  0  0  0  0  0  0
  184.4390  178.9410  138.4870 C   0  0  0  0  0  2  0  0  0  0  0  0
  184.3130  179.3630  139.9380 C   0  0  0  0  0  1  0  0  0  0  0  0
  186.5220  177.7020  142.9190 C   0  0  0  0  0  2  0  0  0  0  0  0
  185.8070  178.9690  142.9370 N   0  0  0  0  0  2  0  0  0  0  0  0
  185.3060  179.2420  144.2850 C   0  0  1  0  0  3  0  0  0  0  0  0
  183.7880  179.4100  144.2860 C   0  0  0  0  0  2  0  0  0  0  0  0
  183.2610  178.9550  145.4980 O   0  0  0  0  0  1  0  0  0  0  0  0
  185.7020  178.2350  145.1750 O   0  0  0  0  0  0  0  0  0  0  0  0
  186.0400  178.9030  146.3550 C   0  0  0  0  0  2  0  0  0  0  0  0
  186.8950  178.0520  147.1690 N   0  0  0  0  0  2  0  0  0  0  0  0
  187.9260  177.5190  146.2980 C   0  0  0  0  0  2  0  0  0  0  0  0
  189.2920  177.6510  146.9490 C   0  0  0  0  0  2  0  0  0  0  0  0
  189.7550  176.3940  147.3390 O   0  0  0  0  0  0  0  0  0  0  0  0
  191.8660  177.1400  145.7010 O   0  0  0  0  0  0  0  0  0  0  0  0
  192.0230  175.0680  147.3030 O   0  0  0  0  0  1  0  0  0  0  0  0
  192.0610  177.4250  148.4410 O   0  0  0  0  0  1  0  0  0  0  0  0
  191.4380  176.4610  147.1930 P   0  0  0  0  0  0  0  0  0  0  0  0
  1  3  2  0  0  0  0
  1  8  1  0  0  0  0
  3  7  1  0  0  0  0
  5  2  2  0  0  0  0
  5 30  1  0  0  0  0
  6  2  1  0  0  0  0
  7  5  1  0  0  0  0
  8  4  1  6  0  0  0
  8  6  1  0  0  0  0
  9  3  1  0  0  0  0
 10  9  1  0  0  0  0
 11 12  1  0  0  0  0
 11 10  1  0  0  0  0
 13 12  1  6  0  0  0
 13 28  1  0  0  0  0
 14 13  1  1  0  0  0
 14 15  1  0  0  0  0
 15 18  1  0  0  0  0
 15 17  1  1  0  0  0
 16 20  1  6  0  0  0
 16 19  1  0  0  0  0
 16 14  1  0  0  0  0
 17 21  1  0  0  0  0
 18 22  1  6  0  0  0
 19 24  1  1  0  0  0
 19 18  1  0  0  0  0
 22 21  1  0  0  0  0
 23 25  2  0  0  0  0
 25 27  1  0  0  0  0
 25 24  1  0  0  0  0
 27 26  3  0  0  0  0
 28 29  1  0  0  0  0
 30 31  1  0  0  0  0
 31 32  1  0  0  0  0
 32 33  1  6  0  0  0
 32 35  1  0  0  0  0
 33 34  1  0  0  0  0
 35 36  1  0  0  0  0
 36 37  1  0  0  0  0
 38 39  1  0  0  0  0
 38 37  1  0  0  0  0
 39 40  1  0  0  0  0
 41 44  2  0  0  0  0
 44 42  1  0  0  0  0
 44 40  1  0  0  0  0
 44 43  1  0  0  0  0
M  END
>  <MODEL>
5

>  <REMARK>
 VINA RESULT:      -6.3      3.728      7.419
  Name = 
  20 active torsions:
  status: ('A' for Active; 'I' for Inactive)
    1  A    between atoms: C_1  and  C_20
    2  A    between atoms: C_1  and  N_21
    3  A    between atoms: C_3  and  O_19
    4  A    between atoms: C_3  and  C_40
    5  A    between atoms: N_4  and  O_5
    6  A    between atoms: N_4  and  C_13
    7  A    between atoms: O_5  and  C_11
    8  A    between atoms: O_7  and  C_26
    9  A    between atoms: O_7  and  C_31
   10  A    between atoms: C_9  and  C_33
   11  A    between atoms: C_13  and  C_38
   12  A    between atoms: C_14  and  C_33
   13  A    between atoms: O_19  and  P_37
   14  A    between atoms: N_21  and  C_31
   15  A    between atoms: C_22  and  C_31
   16  A    between atoms: N_25  and  C_26
   17  A    between atoms: N_25  and  C_40
   18  A    between atoms: C_27  and  N_30
   19  A    between atoms: C_32  and  C_34
   20  A    between atoms: C_33  and  C_38
                            x       y       z     vdW  Elec       q    Type
                         _______ _______ _______ _____ _____    ______ ____

>  <TORSDO>
F 20

$$$$
=
 OpenBabel11062416173D

 44 46  0  0  1  0  0  0  0  0999 V2000
  187.2240  177.9920  146.0980 C   0  0  0  0  0  3  0  0  0  0  0  0
  189.9820  177.6460  144.9840 N   0  0  0  0  0  0  0  0  0  0  0  0
  186.9640  177.6330  144.8270 C   0  0  0  0  0  0  0  0  0  0  0  0
  188.1120  176.8050  148.0180 N   0  0  0  0  0  1  0  0  0  0  0  0
  189.2400  177.5540  143.9290 C   0  0  0  0  0  0  0  0  0  0  0  0
  189.5580  177.1320  146.1940 O   0  0  0  0  0  0  0  0  0  0  0  0
  187.9320  176.8430  144.0050 C   0  0  0  0  0  2  0  0  0  0  0  0
  188.4580  177.6900  146.9170 C   0  0  1  0  0  3  0  0  0  0  0  0
  185.7600  178.0090  144.2220 O   0  0  0  0  0  0  0  0  0  0  0  0
  185.7380  178.8170  143.1020 N   0  0  0  0  0  2  0  0  0  0  0  0
  184.7900  178.2300  142.1730 C   0  0  0  0  0  2  0  0  0  0  0  0
  183.3670  178.5770  142.5820 C   0  0  0  0  0  2  0  0  0  0  0  0
  182.3760  178.2660  141.4610 C   0  0  2  0  0  3  0  0  0  0  0  0
  183.0770  178.4070  140.0940 C   0  0  1  0  0  3  0  0  0  0  0  0
  182.7170  177.3870  139.1100 N   0  0  1  0  0  0  0  0  0  0  0  0
  182.8170  179.7570  139.3870 C   0  0  2  0  0  3  0  0  0  0  0  0
  182.1040  176.1370  139.5120 C   0  0  0  0  0  2  0  0  0  0  0  0
  181.6420  178.0090  138.4020 C   0  0  1  0  0  3  0  0  0  0  0  0
  182.1010  179.3970  138.0750 C   0  0  1  0  0  3  0  0  0  0  0  0
  184.0320  180.3760  139.0970 O   0  0  0  0  0  1  0  0  0  0  0  0
  181.2530  175.7290  138.2910 C   0  0  0  0  0  2  0  0  0  0  0  0
  181.1460  176.9900  137.4220 C   0  0  0  0  0  2  0  0  0  0  0  0
  182.1680  182.2440  138.1760 O   0  0  0  0  0  0  0  0  0  0  0  0
  180.9500  180.2640  137.8890 N   0  0  0  0  0  2  0  0  0  0  0  0
  181.0720  181.6930  137.8900 C   0  0  0  0  0  0  0  0  0  0  0  0
  178.9780  183.1920  137.3090 C   0  0  0  0  0  3  0  0  0  0  0  0
  179.9300  182.5070  137.5730 C   0  0  0  0  0  0  0  0  0  0  0  0
  181.1310  179.1420  141.5820 C   0  0  0  0  0  2  0  0  0  0  0  0
  179.9500  178.3200  142.0610 C   0  0  0  0  0  1  0  0  0  0  0  0
  189.7110  178.1090  142.6310 C   0  0  0  0  0  2  0  0  0  0  0  0
  190.0420  177.0240  141.7190 N   0  0  0  0  0  2  0  0  0  0  0  0
  190.0830  177.5220  140.3430 C   0  0  1  0  0  3  0  0  0  0  0  0
  191.3230  177.0140  139.6100 C   0  0  0  0  0  2  0  0  0  0  0  0
  192.4760  177.4360  140.2770 O   0  0  0  0  0  1  0  0  0  0  0  0
  188.9130  177.1750  139.6540 O   0  0  0  0  0  0  0  0  0  0  0  0
  189.0430  177.7680  138.3960 C   0  0  0  0  0  2  0  0  0  0  0  0
  187.9210  178.6650  138.1620 N   0  0  0  0  0  2  0  0  0  0  0  0
  186.7090  177.9250  138.4590 C   0  0  0  0  0  2  0  0  0  0  0  0
  185.8230  177.8410  137.2270 C   0  0  0  0  0  2  0  0  0  0  0  0
  186.5080  177.2040  136.1930 O   0  0  0  0  0  0  0  0  0  0  0  0
  187.4120  174.7740  137.1820 O   0  0  0  0  0  1  0  0  0  0  0  0
  185.9730  174.9280  134.9920 O   0  0  0  0  0  0  0  0  0  0  0  0
  184.7200  175.3880  137.2440 O   0  0  0  0  0  1  0  0  0  0  0  0
  186.1560  175.5570  136.3580 P   0  0  0  0  0  0  0  0  0  0  0  0
  1  8  1  0  0  0  0
  2  6  1  0  0  0  0
  3  1  2  0  0  0  0
  5  7  1  0  0  0  0
  5  2  2  0  0  0  0
  6  8  1  0  0  0  0
  7  3  1  0  0  0  0
  8  4  1  1  0  0  0
  9  3  1  0  0  0  0
 10  9  1  0  0  0  0
 11 12  1  0  0  0  0
 11 10  1  0  0  0  0
 13 28  1  6  0  0  0
 13 12  1  0  0  0  0
 14 13  1  1  0  0  0
 15 17  1  1  0  0  0
 15 14  1  0  0  0  0
 16 20  1  6  0  0  0
 16 14  1  0  0  0  0
 18 22  1  6  0  0  0
 18 15  1  0  0  0  0
 19 24  1  1  0  0  0
 19 18  1  0  0  0  0
 19 16  1  0  0  0  0
 21 17  1  0  0  0  0
 22 21  1  0  0  0  0
 24 25  1  0  0  0  0
 25 23  2  0  0  0  0
 26 27  3  0  0  0  0
 27 25  1  0  0  0  0
 28 29  1  0  0  0  0
 30  5  1  0  0  0  0
 31 30  1  0  0  0  0
 32 33  1  6  0  0  0
 32 31  1  0  0  0  0
 33 34  1  0  0  0  0
 35 32  1  0  0  0  0
 36 35  1  0  0  0  0
 37 36  1  0  0  0  0
 37 38  1  0  0  0  0
 39 38  1  0  0  0  0
 40 44  1  0  0  0  0
 40 39  1  0  0  0  0
 42 44  2  0  0  0  0
 44 41  1  0  0  0  0
 44 43  1  0  0  0  0
M  END
>  <MODEL>
6

>  <REMARK>
 VINA RESULT:      -6.3      3.196      6.751
  Name = 
  20 active torsions:
  status: ('A' for Active; 'I' for Inactive)
    1  A    between atoms: C_1  and  C_20
    2  A    between atoms: C_1  and  N_21
    3  A    between atoms: C_3  and  O_19
    4  A    between atoms: C_3  and  C_40
    5  A    between atoms: N_4  and  O_5
    6  A    between atoms: N_4  and  C_13
    7  A    between atoms: O_5  and  C_11
    8  A    between atoms: O_7  and  C_26
    9  A    between atoms: O_7  and  C_31
   10  A    between atoms: C_9  and  C_33
   11  A    between atoms: C_13  and  C_38
   12  A    between atoms: C_14  and  C_33
   13  A    between atoms: O_19  and  P_37
   14  A    between atoms: N_21  and  C_31
   15  A    between atoms: C_22  and  C_31
   16  A    between atoms: N_25  and  C_26
   17  A    between atoms: N_25  and  C_40
   18  A    between atoms: C_27  and  N_30
   19  A    between atoms: C_32  and  C_34
   20  A    between atoms: C_33  and  C_38
                            x       y       z     vdW  Elec       q    Type
                         _______ _______ _______ _____ _____    ______ ____

>  <TORSDO>
F 20

$$$$
=
 OpenBabel11062416173D

 44 46  0  0  1  0  0  0  0  0999 V2000
  188.8660  174.4830  136.8120 C   0  0  0  0  0  3  0  0  0  0  0  0
  191.3770  175.2840  138.2320 N   0  0  0  0  0  0  0  0  0  0  0  0
  188.7460  175.8240  136.8490 C   0  0  0  0  0  0  0  0  0  0  0  0
  190.3220  172.9720  135.5950 N   0  0  0  0  0  1  0  0  0  0  0  0
  190.7180  176.3950  138.1800 C   0  0  0  0  0  0  0  0  0  0  0  0
  191.3240  174.3800  137.1890 O   0  0  0  0  0  0  0  0  0  0  0  0
  189.9300  176.7300  136.9600 C   0  0  0  0  0  2  0  0  0  0  0  0
  190.1330  173.6600  136.8620 C   0  0  1  0  0  3  0  0  0  0  0  0
  187.4800  176.4180  136.7960 O   0  0  0  0  0  0  0  0  0  0  0  0
  186.3270  175.6670  136.9120 N   0  0  0  0  0  2  0  0  0  0  0  0
  185.2260  176.5070  136.4770 C   0  0  0  0  0  2  0  0  0  0  0  0
  183.8970  175.8210  136.7550 C   0  0  0  0  0  2  0  0  0  0  0  0
  183.1010  176.5660  137.8250 C   0  0  2  0  0  3  0  0  0  0  0  0
  183.7010  177.9720  138.0350 C   0  0  1  0  0  3  0  0  0  0  0  0
  182.7450  179.0720  137.9260 N   0  0  1  0  0  0  0  0  0  0  0  0
  184.3840  178.1680  139.4080 C   0  0  2  0  0  3  0  0  0  0  0  0
  181.4670  178.8940  137.2660 C   0  0  0  0  0  2  0  0  0  0  0  0
  182.3350  179.2580  139.2830 C   0  0  1  0  0  3  0  0  0  0  0  0
  183.5890  179.2860  140.1020 C   0  0  1  0  0  3  0  0  0  0  0  0
  185.7020  178.5830  139.2220 O   0  0  0  0  0  1  0  0  0  0  0  0
  180.5390  179.9070  137.9710 C   0  0  0  0  0  2  0  0  0  0  0  0
  181.2760  180.3190  139.2540 C   0  0  0  0  0  2  0  0  0  0  0  0
  185.2920  179.7580  142.3370 O   0  0  0  0  0  0  0  0  0  0  0  0
  183.2900  178.9030  141.4710 N   0  0  0  0  0  2  0  0  0  0  0  0
  184.1680  179.2300  142.5560 C   0  0  0  0  0  0  0  0  0  0  0  0
  183.4330  178.7100  145.0370 C   0  0  0  0  0  3  0  0  0  0  0  0
  183.7700  178.9460  143.9080 C   0  0  0  0  0  0  0  0  0  0  0  0
  183.0340  175.7510  139.1140 C   0  0  0  0  0  2  0  0  0  0  0  0
  181.6130  175.7100  139.6420 C   0  0  0  0  0  1  0  0  0  0  0  0
  190.7880  177.3610  139.3100 C   0  0  0  0  0  2  0  0  0  0  0  0
  189.4890  177.4610  139.9580 N   0  0  0  0  0  2  0  0  0  0  0  0
  189.6150  177.1520  141.3830 C   0  0  1  0  0  3  0  0  0  0  0  0
  191.0770  176.9480  141.7760 C   0  0  0  0  0  2  0  0  0  0  0  0
  191.1710  176.7120  143.1500 O   0  0  0  0  0  1  0  0  0  0  0  0
  189.0190  178.1520  142.1620 O   0  0  0  0  0  0  0  0  0  0  0  0
  187.6940  177.7420  142.3290 C   0  0  0  0  0  2  0  0  0  0  0  0
  187.6380  176.6530  143.2930 N   0  0  0  0  0  2  0  0  0  0  0  0
  186.8030  177.0950  144.3940 C   0  0  0  0  0  2  0  0  0  0  0  0
  187.6330  177.8450  145.4220 C   0  0  0  0  0  2  0  0  0  0  0  0
  188.1180  176.9540  146.3800 O   0  0  0  0  0  0  0  0  0  0  0  0
  190.1880  178.6400  145.6220 O   0  0  0  0  0  0  0  0  0  0  0  0
  190.6390  176.3300  146.7850 O   0  0  0  0  0  1  0  0  0  0  0  0
  189.6410  178.2200  148.2970 O   0  0  0  0  0  1  0  0  0  0  0  0
  189.6740  177.4980  146.7630 P   0  0  0  0  0  0  0  0  0  0  0  0
  1  3  2  0  0  0  0
  1  8  1  0  0  0  0
  3  7  1  0  0  0  0
  5  2  2  0  0  0  0
  5 30  1  0  0  0  0
  6  2  1  0  0  0  0
  7  5  1  0  0  0  0
  8  4  1  6  0  0  0
  8  6  1  0  0  0  0
  9  3  1  0  0  0  0
  9 10  1  0  0  0  0
 11 12  1  0  0  0  0
 11 10  1  0  0  0  0
 13 12  1  6  0  0  0
 13 28  1  0  0  0  0
 14 13  1  1  0  0  0
 14 16  1  0  0  0  0
 15 17  1  6  0  0  0
 15 14  1  0  0  0  0
 15 18  1  0  0  0  0
 16 20  1  6  0  0  0
 16 19  1  0  0  0  0
 17 21  1  0  0  0  0
 18 22  1  6  0  0  0
 18 19  1  0  0  0  0
 19 24  1  1  0  0  0
 21 22  1  0  0  0  0
 23 25  2  0  0  0  0
 24 25  1  0  0  0  0
 25 27  1  0  0  0  0
 27 26  3  0  0  0  0
 28 29  1  0  0  0  0
 30 31  1  0  0  0  0
 31 32  1  0  0  0  0
 32 33  1  1  0  0  0
 32 35  1  0  0  0  0
 33 34  1  0  0  0  0
 35 36  1  0  0  0  0
 36 37  1  0  0  0  0
 37 38  1  0  0  0  0
 38 39  1  0  0  0  0
 39 40  1  0  0  0  0
 40 44  1  0  0  0  0
 41 44  2  0  0  0  0
 44 42  1  0  0  0  0
 44 43  1  0  0  0  0
M  END
>  <MODEL>
7

>  <REMARK>
 VINA RESULT:      -6.2      2.878      8.144
  Name = 
  20 active torsions:
  status: ('A' for Active; 'I' for Inactive)
    1  A    between atoms: C_1  and  C_20
    2  A    between atoms: C_1  and  N_21
    3  A    between atoms: C_3  and  O_19
    4  A    between atoms: C_3  and  C_40
    5  A    between atoms: N_4  and  O_5
    6  A    between atoms: N_4  and  C_13
    7  A    between atoms: O_5  and  C_11
    8  A    between atoms: O_7  and  C_26
    9  A    between atoms: O_7  and  C_31
   10  A    between atoms: C_9  and  C_33
   11  A    between atoms: C_13  and  C_38
   12  A    between atoms: C_14  and  C_33
   13  A    between atoms: O_19  and  P_37
   14  A    between atoms: N_21  and  C_31
   15  A    between atoms: C_22  and  C_31
   16  A    between atoms: N_25  and  C_26
   17  A    between atoms: N_25  and  C_40
   18  A    between atoms: C_27  and  N_30
   19  A    between atoms: C_32  and  C_34
   20  A    between atoms: C_33  and  C_38
                            x       y       z     vdW  Elec       q    Type
                         _______ _______ _______ _____ _____    ______ ____

>  <TORSDO>
F 20

$$$$
=
 OpenBabel11062416173D

 44 46  0  0  1  0  0  0  0  0999 V2000
  184.0490  179.3850  144.5730 C   0  0  0  0  0  3  0  0  0  0  0  0
  186.7760  178.4750  143.7360 N   0  0  0  0  0  0  0  0  0  0  0  0
  183.8080  178.8900  143.3440 C   0  0  0  0  0  0  0  0  0  0  0  0
  184.6250  178.3670  146.6980 N   0  0  0  0  0  1  0  0  0  0  0  0
  186.0900  178.3450  142.6470 C   0  0  0  0  0  0  0  0  0  0  0  0
  186.2070  178.2090  144.9660 O   0  0  0  0  0  0  0  0  0  0  0  0
  184.6840  177.8550  142.7140 C   0  0  0  0  0  2  0  0  0  0  0  0
  185.1700  179.0230  145.5200 C   0  0  1  0  0  3  0  0  0  0  0  0
  182.7160  179.3510  142.6020 O   0  0  0  0  0  0  0  0  0  0  0  0
  181.4220  178.9860  142.9220 N   0  0  0  0  0  2  0  0  0  0  0  0
  180.5980  179.2810  141.7640 C   0  0  0  0  0  2  0  0  0  0  0  0
  181.3890  179.0580  140.4840 C   0  0  0  0  0  2  0  0  0  0  0  0
  181.0580  177.7040  139.8580 C   0  0  2  0  0  3  0  0  0  0  0  0
  181.2320  177.7820  138.3270 C   0  0  1  0  0  3  0  0  0  0  0  0
  182.6020  178.0170  137.8740 N   0  0  1  0  0  0  0  0  0  0  0  0
  180.7710  176.5140  137.5740 C   0  0  2  0  0  3  0  0  0  0  0  0
  183.6090  178.5470  138.7710 C   0  0  0  0  0  2  0  0  0  0  0  0
  183.0870  176.6880  137.6650 C   0  0  1  0  0  3  0  0  0  0  0  0
  182.0310  175.9730  136.8780 C   0  0  1  0  0  3  0  0  0  0  0  0
  179.8220  176.8580  136.6110 O   0  0  0  0  0  1  0  0  0  0  0  0
  184.9340  177.9680  138.2280 C   0  0  0  0  0  2  0  0  0  0  0  0
  184.5290  176.8290  137.2810 C   0  0  0  0  0  2  0  0  0  0  0  0
  183.3000  174.1410  135.1020 O   0  0  0  0  0  0  0  0  0  0  0  0
  182.1400  174.5410  137.0990 N   0  0  0  0  0  2  0  0  0  0  0  0
  182.8500  173.6890  136.1890 C   0  0  0  0  0  0  0  0  0  0  0  0
  183.2080  171.1420  136.7820 C   0  0  0  0  0  3  0  0  0  0  0  0
  183.0430  172.3020  136.5140 C   0  0  0  0  0  0  0  0  0  0  0  0
  179.6630  177.2430  140.2740 C   0  0  0  0  0  2  0  0  0  0  0  0
  179.7210  175.8490  140.8690 C   0  0  0  0  0  1  0  0  0  0  0  0
  186.7170  178.6310  141.3280 C   0  0  0  0  0  2  0  0  0  0  0  0
  188.1650  178.6710  141.4660 N   0  0  0  0  0  2  0  0  0  0  0  0
  188.7680  177.5540  140.7380 C   0  0  1  0  0  3  0  0  0  0  0  0
  188.6430  177.7470  139.2280 C   0  0  0  0  0  2  0  0  0  0  0  0
  188.9980  179.0540  138.8850 O   0  0  0  0  0  1  0  0  0  0  0  0
  190.1070  177.3810  141.1140 O   0  0  0  0  0  0  0  0  0  0  0  0
  190.0610  176.6320  142.2920 C   0  0  0  0  0  2  0  0  0  0  0  0
  191.3410  176.7230  142.9770 N   0  0  0  0  0  2  0  0  0  0  0  0
  191.1530  177.5840  144.1300 C   0  0  0  0  0  2  0  0  0  0  0  0
  189.8850  177.2030  144.8760 C   0  0  0  0  0  2  0  0  0  0  0  0
  189.5630  178.1970  145.8010 O   0  0  0  0  0  0  0  0  0  0  0  0
  189.5760  178.4980  148.5590 O   0  0  0  0  0  1  0  0  0  0  0  0
  190.4120  176.2950  147.4030 O   0  0  0  0  0  1  0  0  0  0  0  0
  187.8300  176.7260  147.3600 O   0  0  0  0  0  0  0  0  0  0  0  0
  189.3840  177.4010  147.2820 P   0  0  0  0  0  0  0  0  0  0  0  0
  1  8  1  0  0  0  0
  2  6  1  0  0  0  0
  3  1  2  0  0  0  0
  5  7  1  0  0  0  0
  5  2  2  0  0  0  0
  6  8  1  0  0  0  0
  7  3  1  0  0  0  0
  8  4  1  1  0  0  0
  9 10  1  0  0  0  0
  9  3  1  0  0  0  0
 11 10  1  0  0  0  0
 12 11  1  0  0  0  0
 13 28  1  6  0  0  0
 13 12  1  0  0  0  0
 14 13  1  1  0  0  0
 15 14  1  0  0  0  0
 15 17  1  1  0  0  0
 16 20  1  6  0  0  0
 16 14  1  0  0  0  0
 18 22  1  6  0  0  0
 18 15  1  0  0  0  0
 19 24  1  1  0  0  0
 19 16  1  0  0  0  0
 19 18  1  0  0  0  0
 21 17  1  0  0  0  0
 22 21  1  0  0  0  0
 23 25  2  0  0  0  0
 25 27  1  0  0  0  0
 25 24  1  0  0  0  0
 27 26  3  0  0  0  0
 28 29  1  0  0  0  0
 30 31  1  0  0  0  0
 30  5  1  0  0  0  0
 32 33  1  6  0  0  0
 32 35  1  0  0  0  0
 32 31  1  0  0  0  0
 34 33  1  0  0  0  0
 35 36  1  0  0  0  0
 36 37  1  0  0  0  0
 37 38  1  0  0  0  0
 38 39  1  0  0  0  0
 39 40  1  0  0  0  0
 40 44  1  0  0  0  0
 44 43  2  0  0  0  0
 44 42  1  0  0  0  0
 44 41  1  0  0  0  0
M  END
>  <MODEL>
8

>  <REMARK>
 VINA RESULT:      -6.2      3.257      7.720
  Name = 
  20 active torsions:
  status: ('A' for Active; 'I' for Inactive)
    1  A    between atoms: C_1  and  C_20
    2  A    between atoms: C_1  and  N_21
    3  A    between atoms: C_3  and  O_19
    4  A    between atoms: C_3  and  C_40
    5  A    between atoms: N_4  and  O_5
    6  A    between atoms: N_4  and  C_13
    7  A    between atoms: O_5  and  C_11
    8  A    between atoms: O_7  and  C_26
    9  A    between atoms: O_7  and  C_31
   10  A    between atoms: C_9  and  C_33
   11  A    between atoms: C_13  and  C_38
   12  A    between atoms: C_14  and  C_33
   13  A    between atoms: O_19  and  P_37
   14  A    between atoms: N_21  and  C_31
   15  A    between atoms: C_22  and  C_31
   16  A    between atoms: N_25  and  C_26
   17  A    between atoms: N_25  and  C_40
   18  A    between atoms: C_27  and  N_30
   19  A    between atoms: C_32  and  C_34
   20  A    between atoms: C_33  and  C_38
                            x       y       z     vdW  Elec       q    Type
                         _______ _______ _______ _____ _____    ______ ____

>  <TORSDO>
F 20

$$$$
=
 OpenBabel11062416173D

 44 46  0  0  1  0  0  0  0  0999 V2000
  189.3570  177.3910  139.7860 C   0  0  0  0  0  3  0  0  0  0  0  0
  189.2860  176.7000  142.6980 N   0  0  0  0  0  0  0  0  0  0  0  0
  188.3630  178.1820  140.2330 C   0  0  0  0  0  0  0  0  0  0  0  0
  191.7620  177.4010  140.0940 N   0  0  0  0  0  1  0  0  0  0  0  0
  188.2300  177.4330  142.5590 C   0  0  0  0  0  0  0  0  0  0  0  0
  190.4380  176.9760  141.9890 O   0  0  0  0  0  0  0  0  0  0  0  0
  188.2700  178.6210  141.6590 C   0  0  0  0  0  2  0  0  0  0  0  0
  190.5170  176.8210  140.5700 C   0  0  1  0  0  3  0  0  0  0  0  0
  187.3610  178.6130  139.3570 O   0  0  0  0  0  0  0  0  0  0  0  0
  187.4320  178.3630  138.0000 N   0  0  0  0  0  2  0  0  0  0  0  0
  186.0800  178.4440  137.4800 C   0  0  0  0  0  2  0  0  0  0  0  0
  185.1580  177.5240  138.2660 C   0  0  0  0  0  2  0  0  0  0  0  0
  184.0630  176.9420  137.3720 C   0  0  2  0  0  3  0  0  0  0  0  0
  182.7030  177.0240  138.0940 C   0  0  1  0  0  3  0  0  0  0  0  0
  181.6430  177.6880  137.3370 N   0  0  1  0  0  0  0  0  0  0  0  0
  182.1140  175.6510  138.4900 C   0  0  2  0  0  3  0  0  0  0  0  0
  181.9490  178.5530  136.2150 C   0  0  0  0  0  2  0  0  0  0  0  0
  181.0050  176.5920  136.6770 C   0  0  1  0  0  3  0  0  0  0  0  0
  180.7870  175.5400  137.7220 C   0  0  1  0  0  3  0  0  0  0  0  0
  181.8590  175.6270  139.8610 O   0  0  0  0  0  1  0  0  0  0  0  0
  180.7100  178.4320  135.3020 C   0  0  0  0  0  2  0  0  0  0  0  0
  179.9510  177.1930  135.7980 C   0  0  0  0  0  2  0  0  0  0  0  0
  179.5910  173.2410  138.9070 O   0  0  0  0  0  0  0  0  0  0  0  0
  180.6900  174.2350  137.0910 N   0  0  0  0  0  2  0  0  0  0  0  0
  180.0170  173.1390  137.7250 C   0  0  0  0  0  0  0  0  0  0  0  0
  179.6770  170.8710  136.4160 C   0  0  0  0  0  3  0  0  0  0  0  0
  179.8320  171.9050  137.0100 C   0  0  0  0  0  0  0  0  0  0  0  0
  184.4190  175.5220  136.9370 C   0  0  0  0  0  2  0  0  0  0  0  0
  185.2250  175.5480  135.6520 C   0  0  0  0  0  1  0  0  0  0  0  0
  186.9970  177.1260  143.3330 C   0  0  0  0  0  2  0  0  0  0  0  0
  186.0790  178.2530  143.2700 N   0  0  0  0  0  2  0  0  0  0  0  0
  185.6550  178.6290  144.6200 C   0  0  1  0  0  3  0  0  0  0  0  0
  184.1490  178.8770  144.6770 C   0  0  0  0  0  2  0  0  0  0  0  0
  183.5760  178.6100  143.4310 O   0  0  0  0  0  1  0  0  0  0  0  0
  186.0420  177.6560  145.5510 O   0  0  0  0  0  0  0  0  0  0  0  0
  185.8090  178.2350  146.8010 C   0  0  0  0  0  2  0  0  0  0  0  0
  187.0800  178.5660  147.4280 N   0  0  0  0  0  2  0  0  0  0  0  0
  187.9030  177.3720  147.3890 C   0  0  0  0  0  2  0  0  0  0  0  0
  189.2680  177.6870  146.8000 C   0  0  0  0  0  2  0  0  0  0  0  0
  189.6320  176.6930  145.8910 O   0  0  0  0  0  0  0  0  0  0  0  0
  192.0520  176.6110  147.2450 O   0  0  0  0  0  1  0  0  0  0  0  0
  191.6850  178.1610  145.1580 O   0  0  0  0  0  1  0  0  0  0  0  0
  191.8520  175.5920  144.6860 O   0  0  0  0  0  0  0  0  0  0  0  0
  191.3120  176.8100  145.7340 P   0  0  0  0  0  0  0  0  0  0  0  0
  1  3  2  0  0  0  0
  1  8  1  0  0  0  0
  3  7  1  0  0  0  0
  5  2  2  0  0  0  0
  5 30  1  0  0  0  0
  6  2  1  0  0  0  0
  7  5  1  0  0  0  0
  8  4  1  6  0  0  0
  8  6  1  0  0  0  0
  9  3  1  0  0  0  0
 10  9  1  0  0  0  0
 11 10  1  0  0  0  0
 11 12  1  0  0  0  0
 13 28  1  1  0  0  0
 13 12  1  0  0  0  0
 14 13  1  6  0  0  0
 14 16  1  0  0  0  0
 15 17  1  6  0  0  0
 15 14  1  0  0  0  0
 16 20  1  1  0  0  0
 18 22  1  1  0  0  0
 18 15  1  0  0  0  0
 18 19  1  0  0  0  0
 19 24  1  6  0  0  0
 19 16  1  0  0  0  0
 21 22  1  0  0  0  0
 21 17  1  0  0  0  0
 24 25  1  0  0  0  0
 25 23  2  0  0  0  0
 26 27  3  0  0  0  0
 27 25  1  0  0  0  0
 29 28  1  0  0  0  0
 31 30  1  0  0  0  0
 31 32  1  0  0  0  0
 32 33  1  6  0  0  0
 32 35  1  0  0  0  0
 34 33  1  0  0  0  0
 35 36  1  0  0  0  0
 36 37  1  0  0  0  0
 38 37  1  0  0  0  0
 39 38  1  0  0  0  0
 40 39  1  0  0  0  0
 42 44  1  0  0  0  0
 43 44  2  0  0  0  0
 44 40  1  0  0  0  0
 44 41  1  0  0  0  0
M  END
>  <MODEL>
9

>  <REMARK>
 VINA RESULT:      -6.2      3.518      7.189
  Name = 
  20 active torsions:
  status: ('A' for Active; 'I' for Inactive)
    1  A    between atoms: C_1  and  C_20
    2  A    between atoms: C_1  and  N_21
    3  A    between atoms: C_3  and  O_19
    4  A    between atoms: C_3  and  C_40
    5  A    between atoms: N_4  and  O_5
    6  A    between atoms: N_4  and  C_13
    7  A    between atoms: O_5  and  C_11
    8  A    between atoms: O_7  and  C_26
    9  A    between atoms: O_7  and  C_31
   10  A    between atoms: C_9  and  C_33
   11  A    between atoms: C_13  and  C_38
   12  A    between atoms: C_14  and  C_33
   13  A    between atoms: O_19  and  P_37
   14  A    between atoms: N_21  and  C_31
   15  A    between atoms: C_22  and  C_31
   16  A    between atoms: N_25  and  C_26
   17  A    between atoms: N_25  and  C_40
   18  A    between atoms: C_27  and  N_30
   19  A    between atoms: C_32  and  C_34
   20  A    between atoms: C_33  and  C_38
                            x       y       z     vdW  Elec       q    Type
                         _______ _______ _______ _____ _____    ______ ____

>  <TORSDO>
F 20

$$$$
