=
 OpenBabel11062413273D

 30 36  0  0  1  0  0  0  0  0999 V2000
  189.4820  178.5420  138.7240 C   0  0  2  0  0  3  0  0  0  0  0  0
  187.9580  178.6930  141.3410 C   0  0  0  0  0  0  0  0  0  0  0  0
  183.0640  177.1010  137.4870 N   0  0  0  0  0  0  0  0  0  0  0  0
  190.2610  177.2310  138.9170 C   0  0  1  0  0  3  0  0  0  0  0  0
  185.9850  178.2990  139.0740 C   0  0  0  0  0  3  0  0  0  0  0  0
  189.9170  176.8090  136.3330 C   0  0  0  0  0  0  0  0  0  0  0  0
  188.7750  177.3150  139.2810 C   0  0  1  0  0  3  0  0  0  0  0  0
  189.9960  175.0380  137.9290 O   0  0  0  0  0  0  0  0  0  0  0  0
  189.0070  178.8940  137.2880 C   0  0  0  0  0  2  0  0  0  0  0  0
  188.7570  179.5370  141.8330 O   0  0  0  0  0  0  0  0  0  0  0  0
  188.4950  177.3890  140.7910 C   0  0  1  0  0  3  0  0  0  0  0  0
  186.3240  177.6490  135.9740 C   0  0  1  0  0  3  0  0  0  0  0  0
  191.3800  175.2100  137.7350 C   0  0  0  0  0  2  0  0  0  0  0  0
  188.7560  177.7420  136.3010 C   0  0  2  0  0  3  0  0  0  0  0  0
  184.2490  178.2640  140.7860 C   0  0  0  0  0  3  0  0  0  0  0  0
  187.4650  176.9970  136.6300 C   0  0  2  0  0  3  0  0  0  0  0  0
  190.4340  176.3500  137.6680 C   0  0  2  0  0  0  0  0  0  0  0  0
  186.8160  176.0520  135.1900 S   0  0  0  0  0  0  0  0  0  0  0  0
  186.5480  178.9660  141.3660 N   0  0  0  0  0  2  0  0  0  0  0  0
  183.7560  177.5670  138.5440 C   0  0  2  0  0  3  0  0  0  0  0  0
  183.3080  177.7880  139.8460 C   0  0  0  0  0  3  0  0  0  0  0  0
  183.9010  177.0580  136.4490 N   0  0  0  0  0  0  0  0  0  0  0  0
  185.0380  177.8280  138.1790 C   0  0  0  0  0  0  0  0  0  0  0  0
  185.1190  177.4940  136.8520 C   0  0  0  0  0  0  0  0  0  0  0  0
  185.5970  178.4890  140.4070 C   0  0  0  0  0  0  0  0  0  0  0  0
  190.4420  176.4540  135.2880 O   0  0  0  0  0  0  0  0  0  0  0  0
  189.5010  176.6670  141.6900 C   0  0  0  0  0  2  0  0  0  0  0  0
  188.9610  176.4690  143.0700 C   0  0  0  0  0  0  0  0  0  0  0  0
  189.6560  177.0060  144.1900 N   0  0  0  0  0  1  0  0  0  0  0  0
  187.9140  175.7900  143.2540 O   0  0  0  0  0  0  0  0  0  0  0  0
  1  9  1  6  0  0  0
  1  4  1  0  0  0  0
  1  7  1  0  0  0  0
  2 19  1  0  0  0  0
  2 10  2  0  0  0  0
  3 20  1  0  0  0  0
  4  7  1  0  0  0  0
  5 25  2  0  0  0  0
  6 17  1  0  0  0  0
  7 11  1  0  0  0  0
 11  2  1  0  0  0  0
 11 27  1  0  0  0  0
 12 16  1  0  0  0  0
 12 24  1  0  0  0  0
 13  8  1  0  0  0  0
 14  6  1  0  0  0  0
 14 16  1  0  0  0  0
 14  9  1  0  0  0  0
 17 13  1  0  0  0  0
 17  8  1  0  0  0  0
 17  4  1  0  0  0  0
 18 12  1  0  0  0  0
 18 16  1  0  0  0  0
 20 21  1  0  0  0  0
 21 15  2  0  0  0  0
 22 24  1  0  0  0  0
 22  3  2  0  0  0  0
 23 20  1  0  0  0  0
 23  5  1  0  0  0  0
 24 23  2  0  0  0  0
 25 15  1  0  0  0  0
 25 19  1  0  0  0  0
 26  6  2  0  0  0  0
 27 28  1  0  0  0  0
 28 30  2  0  0  0  0
 28 29  1  0  0  0  0
M  END
>  <MODEL>
1

>  <REMARK>
 VINA RESULT:      -6.9      0.000      0.000
  Name = 
  2 active torsions:
  status: ('A' for Active; 'I' for Inactive)
    1  A    between atoms: C_11  and  C_27
    2  A    between atoms: C_18  and  C_27
                            x       y       z     vdW  Elec       q    Type
                         _______ _______ _______ _____ _____    ______ ____

>  <TORSDO>
F 2

$$$$
=
 OpenBabel11062413273D

 30 36  0  0  1  0  0  0  0  0999 V2000
  184.1550  178.6060  137.8900 C   0  0  2  0  0  3  0  0  0  0  0  0
  186.4490  177.3760  136.3350 C   0  0  0  0  0  0  0  0  0  0  0  0
  189.3270  177.8310  142.0660 N   0  0  0  0  0  0  0  0  0  0  0  0
  183.2150  177.3970  138.0260 C   0  0  1  0  0  3  0  0  0  0  0  0
  187.4290  178.1340  139.1020 C   0  0  0  0  0  3  0  0  0  0  0  0
  182.5880  178.3310  140.4160 C   0  0  0  0  0  0  0  0  0  0  0  0
  184.7190  177.2500  138.2840 C   0  0  1  0  0  3  0  0  0  0  0  0
  182.6540  175.9980  139.9190 O   0  0  0  0  0  0  0  0  0  0  0  0
  184.1960  179.6230  139.0620 C   0  0  0  0  0  2  0  0  0  0  0  0
  186.0620  177.8760  135.2420 O   0  0  0  0  0  0  0  0  0  0  0  0
  185.4900  176.5430  137.1560 C   0  0  1  0  0  3  0  0  0  0  0  0
  185.9540  179.1480  141.7370 C   0  0  1  0  0  3  0  0  0  0  0  0
  181.3570  176.2790  139.4500 C   0  0  0  0  0  2  0  0  0  0  0  0
  183.8490  179.1230  140.4740 C   0  0  2  0  0  3  0  0  0  0  0  0
  189.5800  177.1960  138.4370 C   0  0  0  0  0  3  0  0  0  0  0  0
  184.9800  178.2820  141.0610 C   0  0  2  0  0  3  0  0  0  0  0  0
  182.4530  177.2720  139.3560 C   0  0  2  0  0  0  0  0  0  0  0  0
  184.8950  178.1790  142.8960 S   0  0  0  0  0  0  0  0  0  0  0  0
  187.8130  177.5650  136.7470 N   0  0  0  0  0  2  0  0  0  0  0  0
  189.1420  177.7150  140.7380 C   0  0  0  0  0  0  0  0  0  0  0  0
  190.0300  177.2370  139.7750 C   0  0  0  0  0  3  0  0  0  0  0  0
  188.2070  178.3380  142.5840 N   0  0  0  0  0  2  0  0  0  0  0  0
  187.9010  178.1560  140.4040 C   0  0  0  0  0  0  0  0  0  0  0  0
  187.3170  178.5410  141.5830 C   0  0  0  0  0  0  0  0  0  0  0  0
  188.2660  177.6150  138.1040 C   0  0  0  0  0  0  0  0  0  0  0  0
  181.6840  178.5650  141.2040 O   0  0  0  0  0  0  0  0  0  0  0  0
  184.7030  175.4900  136.3710 C   0  0  0  0  0  2  0  0  0  0  0  0
  184.5390  174.2290  137.1580 C   0  0  0  0  0  0  0  0  0  0  0  0
  185.6830  173.4630  137.5190 N   0  0  0  0  0  1  0  0  0  0  0  0
  183.3890  173.8140  137.4660 O   0  0  0  0  0  0  0  0  0  0  0  0
  1  4  1  0  0  0  0
  1  7  1  0  0  0  0
  1  9  1  1  0  0  0
  2 19  1  0  0  0  0
  2 11  1  0  0  0  0
  3 22  1  0  0  0  0
  4  7  1  0  0  0  0
  4 17  1  0  0  0  0
  5 23  1  0  0  0  0
  6 14  1  0  0  0  0
  6 26  2  0  0  0  0
  9 14  1  0  0  0  0
 10  2  2  0  0  0  0
 11  7  1  0  0  0  0
 12 18  1  0  0  0  0
 13  8  1  0  0  0  0
 14 16  1  0  0  0  0
 15 21  2  0  0  0  0
 16 12  1  0  0  0  0
 16 18  1  0  0  0  0
 17 13  1  0  0  0  0
 17  8  1  0  0  0  0
 17  6  1  0  0  0  0
 19 25  1  0  0  0  0
 20  3  2  0  0  0  0
 21 20  1  0  0  0  0
 23 20  1  0  0  0  0
 23 24  2  0  0  0  0
 24 12  1  0  0  0  0
 24 22  1  0  0  0  0
 25 15  1  0  0  0  0
 25  5  2  0  0  0  0
 27 11  1  0  0  0  0
 27 28  1  0  0  0  0
 28 30  2  0  0  0  0
 28 29  1  0  0  0  0
M  END
>  <MODEL>
2

>  <REMARK>
 VINA RESULT:      -6.6      3.218      6.784
  Name = 
  2 active torsions:
  status: ('A' for Active; 'I' for Inactive)
    1  A    between atoms: C_11  and  C_27
    2  A    between atoms: C_18  and  C_27
                            x       y       z     vdW  Elec       q    Type
                         _______ _______ _______ _____ _____    ______ ____

>  <TORSDO>
F 2

$$$$
=
 OpenBabel11062413273D

 30 36  0  0  1  0  0  0  0  0999 V2000
  189.6470  176.9030  135.8730 C   0  0  2  0  0  3  0  0  0  0  0  0
  187.9320  178.6660  137.6460 C   0  0  0  0  0  0  0  0  0  0  0  0
  183.7650  173.8440  136.7930 N   0  0  0  0  0  0  0  0  0  0  0  0
  190.6590  176.3600  136.8940 C   0  0  1  0  0  3  0  0  0  0  0  0
  186.2550  176.3460  136.6470 C   0  0  0  0  0  2  0  0  0  0  0  0
  190.6030  174.0950  135.5380 C   0  0  0  0  0  0  0  0  0  0  0  0
  189.1630  176.4040  137.2260 C   0  0  1  0  0  3  0  0  0  0  0  0
  190.9180  174.1750  137.9010 O   0  0  0  0  0  0  0  0  0  0  0  0
  189.2190  175.9640  134.7120 C   0  0  0  0  0  2  0  0  0  0  0  0
  188.5040  179.7220  137.2610 O   0  0  0  0  0  0  0  0  0  0  0  0
  188.7620  177.5260  138.1980 C   0  0  1  0  0  3  0  0  0  0  0  0
  186.9510  173.6810  135.0480 C   0  0  1  0  0  3  0  0  0  0  0  0
  192.2490  174.4020  137.5010 C   0  0  0  0  0  2  0  0  0  0  0  0
  189.2810  174.4460  134.9430 C   0  0  2  0  0  3  0  0  0  0  0  0
  184.4390  177.2740  137.9830 C   0  0  0  0  0  3  0  0  0  0  0  0
  188.1480  173.9720  135.8480 C   0  0  2  0  0  3  0  0  0  0  0  0
  191.1000  174.8980  136.7070 C   0  0  2  0  0  0  0  0  0  0  0  0
  187.8140  172.1710  135.6680 S   0  0  0  0  0  0  0  0  0  0  0  0
  186.4970  178.5910  137.6060 N   0  0  0  0  0  2  0  0  0  0  0  0
  184.2670  175.0610  137.0730 C   0  0  0  0  0  0  0  0  0  0  0  0
  183.6870  176.0900  137.8140 C   0  0  0  0  0  3  0  0  0  0  0  0
  184.6690  173.1990  136.0530 N   0  0  0  0  0  0  0  0  0  0  0  0
  185.4930  175.1980  136.5050 C   0  0  0  0  0  0  0  0  0  0  0  0
  185.7390  174.0090  135.8680 C   0  0  0  0  0  0  0  0  0  0  0  0
  185.7380  177.3910  137.4260 C   0  0  0  0  0  0  0  0  0  0  0  0
  191.2660  173.1880  135.0580 O   0  0  0  0  0  0  0  0  0  0  0  0
  189.8230  177.9290  139.2240 C   0  0  0  0  0  2  0  0  0  0  0  0
  189.6940  177.1360  140.4860 C   0  0  0  0  0  0  0  0  0  0  0  0
  188.6500  177.4310  141.4070 N   0  0  0  0  0  1  0  0  0  0  0  0
  190.5330  176.2360  140.7620 O   0  0  0  0  0  0  0  0  0  0  0  0
  1  9  1  6  0  0  0
  1  4  1  0  0  0  0
  1  7  1  0  0  0  0
  2 11  1  0  0  0  0
  3 20  1  0  0  0  0
  4  7  1  0  0  0  0
  5 25  1  0  0  0  0
  6 17  1  0  0  0  0
  7 11  1  0  0  0  0
  9 14  1  0  0  0  0
 10  2  2  0  0  0  0
 11 27  1  0  0  0  0
 12 18  1  0  0  0  0
 12 16  1  0  0  0  0
 12 24  1  0  0  0  0
 13  8  1  0  0  0  0
 14  6  1  0  0  0  0
 14 16  1  0  0  0  0
 17  4  1  0  0  0  0
 17 13  1  0  0  0  0
 17  8  1  0  0  0  0
 18 16  1  0  0  0  0
 19  2  1  0  0  0  0
 20 21  2  0  0  0  0
 21 15  1  0  0  0  0
 22  3  2  0  0  0  0
 23  5  1  0  0  0  0
 23 20  1  0  0  0  0
 24 22  1  0  0  0  0
 24 23  2  0  0  0  0
 25 19  1  0  0  0  0
 25 15  2  0  0  0  0
 26  6  2  0  0  0  0
 27 28  1  0  0  0  0
 28 30  2  0  0  0  0
 28 29  1  0  0  0  0
M  END
>  <MODEL>
3

>  <REMARK>
 VINA RESULT:      -6.4      2.476      3.204
  Name = 
  2 active torsions:
  status: ('A' for Active; 'I' for Inactive)
    1  A    between atoms: C_11  and  C_27
    2  A    between atoms: C_18  and  C_27
                            x       y       z     vdW  Elec       q    Type
                         _______ _______ _______ _____ _____    ______ ____

>  <TORSDO>
F 2

$$$$
=
 OpenBabel11062413273D

 30 36  0  0  1  0  0  0  0  0999 V2000
  183.1550  178.2630  137.6190 C   0  0  2  0  0  3  0  0  0  0  0  0
  185.3040  177.0480  135.8580 C   0  0  0  0  0  0  0  0  0  0  0  0
  188.8590  178.0770  141.1160 N   0  0  0  0  0  0  0  0  0  0  0  0
  182.3190  177.0190  137.9580 C   0  0  1  0  0  3  0  0  0  0  0  0
  186.5810  178.0590  138.4150 C   0  0  0  0  0  3  0  0  0  0  0  0
  181.9460  178.0910  140.3430 C   0  0  0  0  0  0  0  0  0  0  0  0
  183.8490  176.9720  138.0240 C   0  0  1  0  0  3  0  0  0  0  0  0
  182.0940  175.7350  139.9970 O   0  0  0  0  0  0  0  0  0  0  0  0
  183.2820  179.3650  138.7060 C   0  0  0  0  0  2  0  0  0  0  0  0
  184.7490  177.4440  134.7960 O   0  0  0  0  0  0  0  0  0  0  0  0
  184.5120  176.2260  136.8530 C   0  0  1  0  0  3  0  0  0  0  0  0
  185.3950  179.1830  141.1500 C   0  0  1  0  0  3  0  0  0  0  0  0
  180.7320  175.9100  139.6860 C   0  0  0  0  0  2  0  0  0  0  0  0
  183.1520  178.9510  140.1810 C   0  0  2  0  0  3  0  0  0  0  0  0
  188.6830  177.1910  137.5350 C   0  0  0  0  0  3  0  0  0  0  0  0
  184.3990  178.2180  140.6670 C   0  0  2  0  0  3  0  0  0  0  0  0
  181.7420  176.9520  139.3830 C   0  0  2  0  0  0  0  0  0  0  0  0
  184.5570  178.2460  142.5010 S   0  0  0  0  0  0  0  0  0  0  0  0
  186.6950  177.3400  136.0730 N   0  0  0  0  0  2  0  0  0  0  0  0
  188.5130  177.8540  139.8340 C   0  0  0  0  0  0  0  0  0  0  0  0
  189.2990  177.3550  138.7960 C   0  0  0  0  0  3  0  0  0  0  0  0
  187.7850  178.5600  141.7430 N   0  0  0  0  0  2  0  0  0  0  0  0
  187.2140  178.2020  139.6390 C   0  0  0  0  0  0  0  0  0  0  0  0
  186.7630  178.6410  140.8570 C   0  0  0  0  0  0  0  0  0  0  0  0
  187.3140  177.5130  137.3520 C   0  0  0  0  0  0  0  0  0  0  0  0
  181.1380  178.3330  141.2260 O   0  0  0  0  0  0  0  0  0  0  0  0
  183.6990  175.0780  136.2500 C   0  0  0  0  0  2  0  0  0  0  0  0
  184.1870  173.7490  136.7310 C   0  0  0  0  0  0  0  0  0  0  0  0
  184.0990  172.6100  135.8830 N   0  0  0  0  0  1  0  0  0  0  0  0
  184.6350  173.6200  137.9030 O   0  0  0  0  0  0  0  0  0  0  0  0
  1  4  1  0  0  0  0
  1  7  1  0  0  0  0
  1  9  1  1  0  0  0
  2 19  1  0  0  0  0
  2 11  1  0  0  0  0
  3 22  1  0  0  0  0
  4  7  1  0  0  0  0
  4 17  1  0  0  0  0
  5 23  1  0  0  0  0
  6 26  2  0  0  0  0
  9 14  1  0  0  0  0
 10  2  2  0  0  0  0
 11  7  1  0  0  0  0
 12 18  1  0  0  0  0
 13  8  1  0  0  0  0
 14  6  1  0  0  0  0
 14 16  1  0  0  0  0
 15 21  2  0  0  0  0
 16 12  1  0  0  0  0
 16 18  1  0  0  0  0
 17 13  1  0  0  0  0
 17  8  1  0  0  0  0
 17  6  1  0  0  0  0
 19 25  1  0  0  0  0
 20  3  2  0  0  0  0
 21 20  1  0  0  0  0
 23 20  1  0  0  0  0
 23 24  2  0  0  0  0
 24 12  1  0  0  0  0
 24 22  1  0  0  0  0
 25 15  1  0  0  0  0
 25  5  2  0  0  0  0
 27 28  1  0  0  0  0
 27 11  1  0  0  0  0
 28 30  2  0  0  0  0
 29 28  1  0  0  0  0
M  END
>  <MODEL>
4

>  <REMARK>
 VINA RESULT:      -6.2      3.297      7.083
  Name = 
  2 active torsions:
  status: ('A' for Active; 'I' for Inactive)
    1  A    between atoms: C_11  and  C_27
    2  A    between atoms: C_18  and  C_27
                            x       y       z     vdW  Elec       q    Type
                         _______ _______ _______ _____ _____    ______ ____

>  <TORSDO>
F 2

$$$$
=
 OpenBabel11062413273D

 30 36  0  0  1  0  0  0  0  0999 V2000
  182.9430  179.2360  138.0110 C   0  0  2  0  0  3  0  0  0  0  0  0
  185.8360  178.3980  138.3630 C   0  0  0  0  0  0  0  0  0  0  0  0
  184.0600  178.2850  144.5410 N   0  0  0  0  0  0  0  0  0  0  0  0
  182.3400  177.9550  137.4150 C   0  0  1  0  0  3  0  0  0  0  0  0
  184.6010  178.8460  141.0950 C   0  0  0  0  0  3  0  0  0  0  0  0
  180.1550  178.5090  138.7900 C   0  0  0  0  0  0  0  0  0  0  0  0
  183.2900  177.8840  138.6150 C   0  0  1  0  0  3  0  0  0  0  0  0
  180.8710  176.2760  138.3530 O   0  0  0  0  0  0  0  0  0  0  0  0
  182.0450  180.0870  138.9500 C   0  0  0  0  0  2  0  0  0  0  0  0
  186.2070  179.0100  137.3240 O   0  0  0  0  0  0  0  0  0  0  0  0
  184.7070  177.3940  138.2740 C   0  0  1  0  0  3  0  0  0  0  0  0
  181.6200  179.3850  142.0800 C   0  0  1  0  0  3  0  0  0  0  0  0
  180.1940  176.5220  137.1440 C   0  0  0  0  0  2  0  0  0  0  0  0
  180.9240  179.3760  139.7260 C   0  0  2  0  0  3  0  0  0  0  0  0
  186.7540  178.1650  142.0170 C   0  0  0  0  0  3  0  0  0  0  0  0
  181.4830  178.5490  140.8810 C   0  0  2  0  0  3  0  0  0  0  0  0
  180.9140  177.5960  137.8680 C   0  0  2  0  0  0  0  0  0  0  0  0
  180.2130  178.1930  142.1650 S   0  0  0  0  0  0  0  0  0  0  0  0
  186.5320  178.6290  139.5990 N   0  0  0  0  0  2  0  0  0  0  0  0
  184.8260  178.3360  143.4350 C   0  0  0  0  0  0  0  0  0  0  0  0
  186.1870  178.0590  143.3070 C   0  0  0  0  0  3  0  0  0  0  0  0
  182.8230  178.6350  144.1880 N   0  0  0  0  0  2  0  0  0  0  0  0
  184.0770  178.7270  142.3720 C   0  0  0  0  0  0  0  0  0  0  0  0
  182.8080  178.9050  142.8610 C   0  0  0  0  0  0  0  0  0  0  0  0
  185.9530  178.5280  140.9040 C   0  0  0  0  0  0  0  0  0  0  0  0
  178.9340  178.5690  138.7670 O   0  0  0  0  0  0  0  0  0  0  0  0
  184.8070  176.4020  137.1120 C   0  0  0  0  0  2  0  0  0  0  0  0
  184.7090  174.9880  137.5890 C   0  0  0  0  0  0  0  0  0  0  0  0
  185.8440  174.1330  137.5140 N   0  0  0  0  0  1  0  0  0  0  0  0
  183.6140  174.5330  138.0160 O   0  0  0  0  0  0  0  0  0  0  0  0
  1  7  1  0  0  0  0
  1  9  1  1  0  0  0
  2 19  1  0  0  0  0
  4 17  1  0  0  0  0
  4  1  1  0  0  0  0
  4  7  1  0  0  0  0
  5 23  1  0  0  0  0
  6 14  1  0  0  0  0
  9 14  1  0  0  0  0
 10  2  2  0  0  0  0
 11  2  1  0  0  0  0
 11  7  1  0  0  0  0
 12 18  1  0  0  0  0
 12 24  1  0  0  0  0
 13 17  1  0  0  0  0
 13  8  1  0  0  0  0
 14 16  1  0  0  0  0
 15 21  2  0  0  0  0
 16 12  1  0  0  0  0
 16 18  1  0  0  0  0
 17  8  1  0  0  0  0
 17  6  1  0  0  0  0
 19 25  1  0  0  0  0
 20  3  2  0  0  0  0
 21 20  1  0  0  0  0
 22  3  1  0  0  0  0
 23 24  2  0  0  0  0
 23 20  1  0  0  0  0
 24 22  1  0  0  0  0
 25  5  2  0  0  0  0
 25 15  1  0  0  0  0
 26  6  2  0  0  0  0
 27 28  1  0  0  0  0
 27 11  1  0  0  0  0
 28 30  2  0  0  0  0
 29 28  1  0  0  0  0
M  END
>  <MODEL>
5

>  <REMARK>
 VINA RESULT:      -6.1      4.130      7.196
  Name = 
  2 active torsions:
  status: ('A' for Active; 'I' for Inactive)
    1  A    between atoms: C_11  and  C_27
    2  A    between atoms: C_18  and  C_27
                            x       y       z     vdW  Elec       q    Type
                         _______ _______ _______ _____ _____    ______ ____

>  <TORSDO>
F 2

$$$$
=
 OpenBabel11062413273D

 30 36  0  0  1  0  0  0  0  0999 V2000
  190.4370  178.4760  145.2060 C   0  0  2  0  0  3  0  0  0  0  0  0
  188.5440  178.0950  147.5430 C   0  0  0  0  0  0  0  0  0  0  0  0
  184.1900  178.2680  142.8160 N   0  0  0  0  0  0  0  0  0  0  0  0
  191.0600  177.0740  145.1050 C   0  0  1  0  0  3  0  0  0  0  0  0
  186.9210  178.5980  145.0330 C   0  0  0  0  0  3  0  0  0  0  0  0
  191.0870  177.4280  142.4880 C   0  0  0  0  0  0  0  0  0  0  0  0
  189.5480  177.2450  145.2900 C   0  0  1  0  0  3  0  0  0  0  0  0
  190.7600  175.2900  143.4960 O   0  0  0  0  0  0  0  0  0  0  0  0
  190.2250  179.2670  143.8880 C   0  0  0  0  0  2  0  0  0  0  0  0
  189.3270  178.6610  148.3550 O   0  0  0  0  0  0  0  0  0  0  0  0
  189.0440  176.9350  146.7090 C   0  0  1  0  0  3  0  0  0  0  0  0
  187.6810  178.7890  141.9450 C   0  0  1  0  0  3  0  0  0  0  0  0
  192.1670  175.3300  143.5340 C   0  0  0  0  0  2  0  0  0  0  0  0
  190.0300  178.4740  142.5850 C   0  0  2  0  0  3  0  0  0  0  0  0
  184.9430  178.3160  146.4310 C   0  0  0  0  0  3  0  0  0  0  0  0
  188.6440  177.8400  142.5200 C   0  0  2  0  0  3  0  0  0  0  0  0
  191.3470  176.5560  143.6850 C   0  0  2  0  0  0  0  0  0  0  0  0
  188.1470  177.4190  140.7980 S   0  0  0  0  0  0  0  0  0  0  0  0
  187.1760  178.5300  147.4710 N   0  0  0  0  0  2  0  0  0  0  0  0
  184.7460  178.3320  144.0400 C   0  0  2  0  0  3  0  0  0  0  0  0
  184.1220  178.2420  145.2840 C   0  0  0  0  0  3  0  0  0  0  0  0
  185.1710  178.4050  141.9230 N   0  0  0  0  0  0  0  0  0  0  0  0
  186.0870  178.5170  143.9290 C   0  0  0  0  0  0  0  0  0  0  0  0
  186.3450  178.5540  142.5830 C   0  0  0  0  0  0  0  0  0  0  0  0
  186.3490  178.4620  146.3050 C   0  0  0  0  0  0  0  0  0  0  0  0
  191.7350  177.3090  141.4590 O   0  0  0  0  0  0  0  0  0  0  0  0
  189.8300  175.8700  147.4770 C   0  0  0  0  0  2  0  0  0  0  0  0
  191.2790  176.2270  147.5800 C   0  0  0  0  0  0  0  0  0  0  0  0
  192.2660  175.3450  147.0560 N   0  0  0  0  0  1  0  0  0  0  0  0
  191.6360  177.2830  148.1690 O   0  0  0  0  0  0  0  0  0  0  0  0
  1  9  1  6  0  0  0
  1  7  1  0  0  0  0
  2 10  2  0  0  0  0
  3 20  1  0  0  0  0
  4  1  1  0  0  0  0
  4  7  1  0  0  0  0
  5 25  2  0  0  0  0
  6 14  1  0  0  0  0
  6 17  1  0  0  0  0
  7 11  1  0  0  0  0
  8 13  1  0  0  0  0
  8 17  1  0  0  0  0
 11 27  1  0  0  0  0
 11  2  1  0  0  0  0
 12 16  1  0  0  0  0
 12 24  1  0  0  0  0
 13 17  1  0  0  0  0
 14  9  1  0  0  0  0
 16 14  1  0  0  0  0
 17  4  1  0  0  0  0
 18 12  1  0  0  0  0
 18 16  1  0  0  0  0
 19  2  1  0  0  0  0
 20 21  1  0  0  0  0
 21 15  2  0  0  0  0
 22 24  1  0  0  0  0
 22  3  2  0  0  0  0
 23 20  1  0  0  0  0
 23  5  1  0  0  0  0
 24 23  2  0  0  0  0
 25 15  1  0  0  0  0
 25 19  1  0  0  0  0
 26  6  2  0  0  0  0
 27 28  1  0  0  0  0
 28 30  2  0  0  0  0
 29 28  1  0  0  0  0
M  END
>  <MODEL>
6

>  <REMARK>
 VINA RESULT:      -5.9      4.419      5.984
  Name = 
  2 active torsions:
  status: ('A' for Active; 'I' for Inactive)
    1  A    between atoms: C_11  and  C_27
    2  A    between atoms: C_18  and  C_27
                            x       y       z     vdW  Elec       q    Type
                         _______ _______ _______ _____ _____    ______ ____

>  <TORSDO>
F 2

$$$$
=
 OpenBabel11062413273D

 30 36  0  0  1  0  0  0  0  0999 V2000
  187.2150  178.8020  137.7420 C   0  0  2  0  0  3  0  0  0  0  0  0
  184.5720  179.0540  139.2050 C   0  0  0  0  0  0  0  0  0  0  0  0
  183.7650  173.1440  136.8070 N   0  0  0  0  0  0  0  0  0  0  0  0
  188.1830  178.6100  138.9210 C   0  0  1  0  0  3  0  0  0  0  0  0
  184.5520  176.5030  137.5680 C   0  0  0  0  0  3  0  0  0  0  0  0
  189.5440  176.9760  137.3560 C   0  0  0  0  0  0  0  0  0  0  0  0
  186.8580  177.8420  138.8660 C   0  0  1  0  0  3  0  0  0  0  0  0
  189.3880  176.6680  139.7160 O   0  0  0  0  0  0  0  0  0  0  0  0
  187.5380  178.0610  136.4160 C   0  0  0  0  0  2  0  0  0  0  0  0
  184.5550  180.3110  139.0940 O   0  0  0  0  0  0  0  0  0  0  0  0
  185.7760  178.3750  139.8210 C   0  0  1  0  0  3  0  0  0  0  0  0
  186.7910  174.9520  135.9170 C   0  0  1  0  0  3  0  0  0  0  0  0
  190.4440  177.5990  139.6930 C   0  0  0  0  0  2  0  0  0  0  0  0
  188.3520  176.7590  136.4890 C   0  0  2  0  0  3  0  0  0  0  0  0
  182.3320  176.0990  138.4950 C   0  0  0  0  0  3  0  0  0  0  0  0
  187.5090  175.6030  137.0200 C   0  0  2  0  0  3  0  0  0  0  0  0
  189.3500  177.6340  138.6930 C   0  0  2  0  0  0  0  0  0  0  0  0
  188.2070  173.9610  136.5670 S   0  0  0  0  0  0  0  0  0  0  0  0
  183.4190  178.3000  138.7950 N   0  0  0  0  0  2  0  0  0  0  0  0
  183.4990  174.3530  137.3350 C   0  0  2  0  0  3  0  0  0  0  0  0
  182.3540  174.7710  138.0130 C   0  0  0  0  0  3  0  0  0  0  0  0
  184.9770  173.2070  136.2540 N   0  0  0  0  0  0  0  0  0  0  0  0
  184.5420  175.1940  137.1140 C   0  0  0  0  0  0  0  0  0  0  0  0
  185.4750  174.4540  136.4350 C   0  0  0  0  0  0  0  0  0  0  0  0
  183.4460  176.9570  138.3000 C   0  0  0  0  0  0  0  0  0  0  0  0
  190.6520  176.6420  136.9630 O   0  0  0  0  0  0  0  0  0  0  0  0
  186.2860  179.0030  141.1200 C   0  0  0  0  0  2  0  0  0  0  0  0
  185.8270  178.2350  142.3180 C   0  0  0  0  0  0  0  0  0  0  0  0
  184.4530  178.2530  142.6900 N   0  0  0  0  0  1  0  0  0  0  0  0
  186.6570  177.6060  143.0290 O   0  0  0  0  0  0  0  0  0  0  0  0
  1  9  1  6  0  0  0
  1  7  1  0  0  0  0
  1  4  1  0  0  0  0
  2 11  1  0  0  0  0
  3 20  1  0  0  0  0
  5 25  2  0  0  0  0
  6 17  1  0  0  0  0
  7  4  1  0  0  0  0
  7 11  1  0  0  0  0
  9 14  1  0  0  0  0
 10  2  2  0  0  0  0
 11 27  1  0  0  0  0
 12 24  1  0  0  0  0
 12 18  1  0  0  0  0
 12 16  1  0  0  0  0
 13  8  1  0  0  0  0
 14 16  1  0  0  0  0
 14  6  1  0  0  0  0
 17  4  1  0  0  0  0
 17 13  1  0  0  0  0
 17  8  1  0  0  0  0
 18 16  1  0  0  0  0
 19  2  1  0  0  0  0
 20 21  1  0  0  0  0
 21 15  2  0  0  0  0
 22 24  1  0  0  0  0
 22  3  2  0  0  0  0
 23 20  1  0  0  0  0
 23  5  1  0  0  0  0
 24 23  2  0  0  0  0
 25 15  1  0  0  0  0
 25 19  1  0  0  0  0
 26  6  2  0  0  0  0
 27 28  1  0  0  0  0
 28 29  1  0  0  0  0
 28 30  2  0  0  0  0
M  END
>  <MODEL>
7

>  <REMARK>
 VINA RESULT:      -5.8      2.304      3.191
  Name = 
  2 active torsions:
  status: ('A' for Active; 'I' for Inactive)
    1  A    between atoms: C_11  and  C_27
    2  A    between atoms: C_18  and  C_27
                            x       y       z     vdW  Elec       q    Type
                         _______ _______ _______ _____ _____    ______ ____

>  <TORSDO>
F 2

$$$$
=
 OpenBabel11062413273D

 30 36  0  0  1  0  0  0  0  0999 V2000
  186.7740  178.2420  137.0140 C   0  0  2  0  0  3  0  0  0  0  0  0
  189.5240  177.0860  137.5540 C   0  0  0  0  0  0  0  0  0  0  0  0
  187.6150  177.8750  143.6430 N   0  0  0  0  0  0  0  0  0  0  0  0
  186.0210  176.9910  136.5340 C   0  0  1  0  0  3  0  0  0  0  0  0
  188.2990  177.9830  140.1780 C   0  0  0  0  0  3  0  0  0  0  0  0
  183.8980  177.9660  137.7640 C   0  0  0  0  0  0  0  0  0  0  0  0
  186.9280  176.9310  137.7680 C   0  0  1  0  0  3  0  0  0  0  0  0
  184.3260  175.6250  137.5910 O   0  0  0  0  0  0  0  0  0  0  0  0
  185.9740  179.2980  137.8250 C   0  0  0  0  0  2  0  0  0  0  0  0
  189.9950  177.5290  136.4710 O   0  0  0  0  0  0  0  0  0  0  0  0
  188.2760  176.2300  137.5310 C   0  0  1  0  0  3  0  0  0  0  0  0
  185.3930  179.0020  140.9940 C   0  0  1  0  0  3  0  0  0  0  0  0
  183.7130  175.8220  136.3390 C   0  0  0  0  0  2  0  0  0  0  0  0
  184.7530  178.8250  138.6310 C   0  0  2  0  0  3  0  0  0  0  0  0
  190.3240  177.1380  141.2440 C   0  0  0  0  0  3  0  0  0  0  0  0
  185.1740  178.0640  139.8860 C   0  0  2  0  0  3  0  0  0  0  0  0
  184.5510  176.8690  136.9710 C   0  0  2  0  0  0  0  0  0  0  0  0
  183.8410  178.0150  141.1540 S   0  0  0  0  0  0  0  0  0  0  0  0
  190.2170  177.3600  138.7830 N   0  0  0  0  0  2  0  0  0  0  0  0
  188.4040  177.7070  142.5660 C   0  0  0  0  0  0  0  0  0  0  0  0
  189.7190  177.2460  142.5160 C   0  0  0  0  0  3  0  0  0  0  0  0
  186.4410  178.3390  143.2110 N   0  0  0  0  0  2  0  0  0  0  0  0
  187.7360  178.0720  141.4410 C   0  0  0  0  0  0  0  0  0  0  0  0
  186.4910  178.4630  141.8630 C   0  0  0  0  0  0  0  0  0  0  0  0
  189.6010  177.4770  140.0700 C   0  0  0  0  0  0  0  0  0  0  0  0
  182.6970  178.1780  137.6920 O   0  0  0  0  0  0  0  0  0  0  0  0
  188.2710  175.1130  136.4850 C   0  0  0  0  0  2  0  0  0  0  0  0
  188.9120  173.8680  137.0090 C   0  0  0  0  0  0  0  0  0  0  0  0
  188.2360  172.6200  136.9000 N   0  0  0  0  0  1  0  0  0  0  0  0
  190.0300  173.9220  137.5890 O   0  0  0  0  0  0  0  0  0  0  0  0
  1  7  1  0  0  0  0
  1  9  1  1  0  0  0
  2 19  1  0  0  0  0
  4 17  1  0  0  0  0
  4  1  1  0  0  0  0
  4  7  1  0  0  0  0
  5 23  1  0  0  0  0
  6 14  1  0  0  0  0
  9 14  1  0  0  0  0
 10  2  2  0  0  0  0
 11  2  1  0  0  0  0
 11  7  1  0  0  0  0
 12 18  1  0  0  0  0
 12 24  1  0  0  0  0
 13 17  1  0  0  0  0
 13  8  1  0  0  0  0
 14 16  1  0  0  0  0
 15 21  2  0  0  0  0
 16 12  1  0  0  0  0
 16 18  1  0  0  0  0
 17  8  1  0  0  0  0
 17  6  1  0  0  0  0
 19 25  1  0  0  0  0
 20  3  2  0  0  0  0
 21 20  1  0  0  0  0
 22  3  1  0  0  0  0
 23 24  2  0  0  0  0
 23 20  1  0  0  0  0
 24 22  1  0  0  0  0
 25  5  2  0  0  0  0
 25 15  1  0  0  0  0
 26  6  2  0  0  0  0
 27 28  1  0  0  0  0
 27 11  1  0  0  0  0
 28 30  2  0  0  0  0
 29 28  1  0  0  0  0
M  END
>  <MODEL>
8

>  <REMARK>
 VINA RESULT:      -5.8      2.937      5.738
  Name = 
  2 active torsions:
  status: ('A' for Active; 'I' for Inactive)
    1  A    between atoms: C_11  and  C_27
    2  A    between atoms: C_18  and  C_27
                            x       y       z     vdW  Elec       q    Type
                         _______ _______ _______ _____ _____    ______ ____

>  <TORSDO>
F 2

$$$$
=
 OpenBabel11062413273D

 30 36  0  0  1  0  0  0  0  0999 V2000
  182.8650  177.3010  136.2950 C   0  0  2  0  0  3  0  0  0  0  0  0
  185.7470  176.4750  135.8490 C   0  0  0  0  0  0  0  0  0  0  0  0
  186.4080  179.1110  141.6770 N   0  0  0  0  0  0  0  0  0  0  0  0
  182.2090  175.9370  136.5620 C   0  0  1  0  0  3  0  0  0  0  0  0
  185.5760  178.1240  138.3880 C   0  0  0  0  0  3  0  0  0  0  0  0
  180.6470  177.1820  138.2890 C   0  0  0  0  0  0  0  0  0  0  0  0
  183.5380  176.3080  137.2290 C   0  0  1  0  0  3  0  0  0  0  0  0
  181.3610  174.9260  138.5910 O   0  0  0  0  0  0  0  0  0  0  0  0
  182.3010  178.5330  137.0540 C   0  0  0  0  0  2  0  0  0  0  0  0
  185.6470  176.5630  134.5950 O   0  0  0  0  0  0  0  0  0  0  0  0
  184.7690  175.6140  136.6190 C   0  0  1  0  0  3  0  0  0  0  0  0
  183.1360  179.2510  140.0970 C   0  0  1  0  0  3  0  0  0  0  0  0
  180.2640  174.6890  137.7420 C   0  0  0  0  0  2  0  0  0  0  0  0
  181.6210  178.3020  138.4140 C   0  0  2  0  0  3  0  0  0  0  0  0
  187.9720  177.7360  138.6270 C   0  0  0  0  0  3  0  0  0  0  0  0
  182.6450  178.0000  139.5050 C   0  0  2  0  0  3  0  0  0  0  0  0
  181.0940  175.9110  137.6220 C   0  0  2  0  0  0  0  0  0  0  0  0
  181.9820  178.3150  141.1930 S   0  0  0  0  0  0  0  0  0  0  0  0
  186.8270  177.1520  136.5150 N   0  0  0  0  0  2  0  0  0  0  0  0
  186.7000  178.6330  140.4530 C   0  0  0  0  0  0  0  0  0  0  0  0
  187.9360  178.2260  139.9510 C   0  0  0  0  0  3  0  0  0  0  0  0
  185.1000  179.3710  141.7030 N   0  0  0  0  0  2  0  0  0  0  0  0
  185.5760  178.5940  139.6910 C   0  0  0  0  0  0  0  0  0  0  0  0
  184.5680  179.0570  140.4970 C   0  0  0  0  0  0  0  0  0  0  0  0
  186.7850  177.6550  137.8540 C   0  0  0  0  0  0  0  0  0  0  0  0
  179.5050  177.3180  138.7040 O   0  0  0  0  0  0  0  0  0  0  0  0
  184.5250  174.2210  136.0340 C   0  0  0  0  0  2  0  0  0  0  0  0
  184.4380  173.1840  137.1070 C   0  0  0  0  0  0  0  0  0  0  0  0
  185.5330  172.9850  137.9940 N   0  0  0  0  0  1  0  0  0  0  0  0
  183.4160  172.4510  137.2050 O   0  0  0  0  0  0  0  0  0  0  0  0
  1  4  1  0  0  0  0
  1  9  1  1  0  0  0
  1  7  1  0  0  0  0
  2 19  1  0  0  0  0
  2 11  1  0  0  0  0
  3 22  1  0  0  0  0
  4  7  1  0  0  0  0
  4 17  1  0  0  0  0
  5 23  1  0  0  0  0
  6 14  1  0  0  0  0
  6 26  2  0  0  0  0
  9 14  1  0  0  0  0
 10  2  2  0  0  0  0
 11  7  1  0  0  0  0
 12 24  1  0  0  0  0
 12 18  1  0  0  0  0
 13  8  1  0  0  0  0
 14 16  1  0  0  0  0
 15 21  2  0  0  0  0
 16 12  1  0  0  0  0
 16 18  1  0  0  0  0
 17 13  1  0  0  0  0
 17  6  1  0  0  0  0
 17  8  1  0  0  0  0
 19 25  1  0  0  0  0
 20  3  2  0  0  0  0
 21 20  1  0  0  0  0
 23 20  1  0  0  0  0
 23 24  2  0  0  0  0
 24 22  1  0  0  0  0
 25  5  2  0  0  0  0
 25 15  1  0  0  0  0
 27 11  1  0  0  0  0
 27 28  1  0  0  0  0
 28 30  2  0  0  0  0
 28 29  1  0  0  0  0
M  END
>  <MODEL>
9

>  <REMARK>
 VINA RESULT:      -5.7      3.863      7.030
  Name = 
  2 active torsions:
  status: ('A' for Active; 'I' for Inactive)
    1  A    between atoms: C_11  and  C_27
    2  A    between atoms: C_18  and  C_27
                            x       y       z     vdW  Elec       q    Type
                         _______ _______ _______ _____ _____    ______ ____

>  <TORSDO>
F 2

$$$$
