=
 OpenBabel11062413203D

 30 32  0  0  1  0  0  0  0  0999 V2000
  183.4850  178.6390  145.4680 C   0  0  0  0  0  2  0  0  0  0  0  0
  183.0980  179.1910  143.0750 C   0  0  0  0  0  3  0  0  0  0  0  0
  182.6070  178.7780  144.2470 C   0  0  0  0  0  0  0  0  0  0  0  0
  184.9690  178.5290  145.1190 C   0  0  1  0  0  3  0  0  0  0  0  0
  185.3610  179.6070  144.1180 C   0  0  0  0  0  2  0  0  0  0  0  0
  184.5610  179.4590  142.8230 C   0  0  1  0  0  3  0  0  0  0  0  0
  186.4920  178.6750  141.6550 O   0  0  0  0  0  0  0  0  0  0  0  0
  185.5570  178.9510  140.6440 C   0  0  0  0  0  2  0  0  0  0  0  0
  185.1490  178.3700  141.9390 C   0  0  2  0  0  3  0  0  0  0  0  0
  185.8060  178.6160  146.3120 N   0  0  0  0  0  2  0  0  0  0  0  0
  187.7190  178.1150  147.5390 O   0  0  0  0  0  0  0  0  0  0  0  0
  187.1710  178.1820  146.4040 C   0  0  0  0  0  0  0  0  0  0  0  0
  189.4120  176.6080  143.1340 C   0  0  1  0  0  3  0  0  0  0  0  0
  190.2510  177.1070  144.3320 C   0  0  2  0  0  3  0  0  0  0  0  0
  189.4170  177.5710  145.5450 C   0  0  0  0  0  2  0  0  0  0  0  0
  187.3980  176.7080  144.4900 N   0  0  0  0  0  0  0  0  0  0  0  0
  187.9610  177.8520  145.1730 C   0  0  1  0  0  3  0  0  0  0  0  0
  190.0900  175.5950  142.4610 O   0  0  0  0  0  1  0  0  0  0  0  0
  188.0530  176.1140  143.5530 C   0  0  0  0  0  3  0  0  0  0  0  0
  192.0690  177.6990  142.9020 F   0  0  0  0  0  0  0  0  0  0  0  0
  192.0290  178.5710  144.9790 F   0  0  0  0  0  0  0  0  0  0  0  0
  190.5680  179.2850  143.4190 F   0  0  0  0  0  0  0  0  0  0  0  0
  191.2480  178.1840  143.9040 C   0  0  0  0  0  0  0  0  0  0  0  0
  181.2330  178.5430  144.3340 O   0  0  0  0  0  0  0  0  0  0  0  0
  180.3160  178.9740  143.3380 C   0  0  0  0  0  2  0  0  0  0  0  0
  179.9950  177.5450  141.2940 C   0  0  0  0  0  0  0  0  0  0  0  0
  180.9160  178.1450  140.6760 O   0  0  0  0  0  0  0  0  0  0  0  0
  179.7500  177.8160  142.6740 N   0  0  0  0  0  2  0  0  0  0  0  0
  179.1690  176.5320  140.5840 C   0  0  0  0  0  2  0  0  0  0  0  0
  178.9350  175.4420  141.4210 O   0  0  0  0  0  1  0  0  0  0  0  0
  2  3  2  0  0  0  0
  3 24  1  0  0  0  0
  3  1  1  0  0  0  0
  4  1  1  0  0  0  0
  4 10  1  1  0  0  0
  5  4  1  0  0  0  0
  6  2  1  1  0  0  0
  6  5  1  0  0  0  0
  7  9  1  0  0  0  0
  8  7  1  0  0  0  0
  9  8  1  6  0  0  0
  9  6  1  0  0  0  0
 10 12  1  0  0  0  0
 12 11  2  0  0  0  0
 13 18  1  1  0  0  0
 13 19  1  0  0  0  0
 13 14  1  0  0  0  0
 14 23  1  6  0  0  0
 14 15  1  0  0  0  0
 16 17  1  0  0  0  0
 17 15  1  0  0  0  0
 17 12  1  1  0  0  0
 19 16  2  0  0  0  0
 20 23  1  0  0  0  0
 22 23  1  0  0  0  0
 23 21  1  0  0  0  0
 25 24  1  0  0  0  0
 26 28  1  0  0  0  0
 27 26  2  0  0  0  0
 28 25  1  0  0  0  0
 29 26  1  0  0  0  0
 29 30  1  0  0  0  0
M  END
>  <MODEL>
1

>  <REMARK>
 VINA RESULT:      -7.6      0.000      0.000
  Name = 
  8 active torsions:
  status: ('A' for Active; 'I' for Inactive)
    1  A    between atoms: O_2  and  C_19
    2  A    between atoms: O_2  and  C_20
    3  A    between atoms: N_4  and  C_22
    4  A    between atoms: C_8  and  C_14
    5  A    between atoms: C_9  and  C_26
    6  A    between atoms: C_11  and  C_25
    7  A    between atoms: C_19  and  N_29
    8  A    between atoms: C_24  and  C_27
                            x       y       z     vdW  Elec       q    Type
                         _______ _______ _______ _____ _____    ______ ____

>  <TORSDO>
F 8

$$$$
=
 OpenBabel11062413203D

 30 32  0  0  1  0  0  0  0  0999 V2000
  187.8950  177.8980  142.5150 C   0  0  0  0  0  2  0  0  0  0  0  0
  185.6710  178.1240  143.6040 C   0  0  0  0  0  3  0  0  0  0  0  0
  186.9130  177.6290  143.6310 C   0  0  0  0  0  0  0  0  0  0  0  0
  187.2120  178.3230  141.2160 C   0  0  1  0  0  3  0  0  0  0  0  0
  186.1780  179.4070  141.4880 C   0  0  0  0  0  2  0  0  0  0  0  0
  185.0990  178.8970  142.4430 C   0  0  1  0  0  3  0  0  0  0  0  0
  183.4400  178.8360  140.7240 O   0  0  0  0  0  0  0  0  0  0  0  0
  182.7240  178.6170  141.9120 C   0  0  0  0  0  2  0  0  0  0  0  0
  184.0730  178.0520  141.7040 C   0  0  2  0  0  3  0  0  0  0  0  0
  188.1840  178.7840  140.2280 N   0  0  0  0  0  2  0  0  0  0  0  0
  189.3800  178.5650  138.2450 O   0  0  0  0  0  0  0  0  0  0  0  0
  188.3740  178.2190  138.9230 C   0  0  0  0  0  0  0  0  0  0  0  0
  185.8790  175.5760  136.6900 C   0  0  1  0  0  3  0  0  0  0  0  0
  185.4410  177.0580  136.6900 C   0  0  2  0  0  3  0  0  0  0  0  0
  186.4160  178.0110  137.4120 C   0  0  0  0  0  2  0  0  0  0  0  0
  188.0370  176.2040  137.6130 N   0  0  0  0  0  0  0  0  0  0  0  0
  187.3740  177.2640  138.3400 C   0  0  1  0  0  3  0  0  0  0  0  0
  185.4600  174.9500  135.5190 O   0  0  0  0  0  1  0  0  0  0  0  0
  187.3700  175.4190  136.8410 C   0  0  0  0  0  3  0  0  0  0  0  0
  183.7560  176.2520  138.1770 F   0  0  0  0  0  0  0  0  0  0  0  0
  183.1020  177.0930  136.1920 F   0  0  0  0  0  0  0  0  0  0  0  0
  183.8730  178.4620  137.8060 F   0  0  0  0  0  0  0  0  0  0  0  0
  184.0170  177.2180  137.2220 C   0  0  0  0  0  0  0  0  0  0  0  0
  187.3050  176.9090  144.7610 O   0  0  0  0  0  0  0  0  0  0  0  0
  187.7560  177.5370  145.9520 C   0  0  0  0  0  2  0  0  0  0  0  0
  190.2490  177.5200  145.6150 C   0  0  0  0  0  0  0  0  0  0  0  0
  190.2050  178.5640  144.9110 O   0  0  0  0  0  0  0  0  0  0  0  0
  189.0800  177.0430  146.2820 N   0  0  0  0  0  2  0  0  0  0  0  0
  191.5340  176.7870  145.7670 C   0  0  0  0  0  2  0  0  0  0  0  0
  191.9310  176.8010  147.1020 O   0  0  0  0  0  1  0  0  0  0  0  0
  1  3  1  0  0  0  0
  2  3  2  0  0  0  0
  3 24  1  0  0  0  0
  4 10  1  6  0  0  0
  4  5  1  0  0  0  0
  4  1  1  0  0  0  0
  6  5  1  6  0  0  0
  6  2  1  0  0  0  0
  7  9  1  0  0  0  0
  7  8  1  0  0  0  0
  9  8  1  1  0  0  0
  9  6  1  0  0  0  0
 11 12  2  0  0  0  0
 12 10  1  0  0  0  0
 13 18  1  6  0  0  0
 13 19  1  0  0  0  0
 14 13  1  0  0  0  0
 14 23  1  1  0  0  0
 14 15  1  0  0  0  0
 15 17  1  0  0  0  0
 16 17  1  0  0  0  0
 17 12  1  6  0  0  0
 19 16  2  0  0  0  0
 21 23  1  0  0  0  0
 23 22  1  0  0  0  0
 23 20  1  0  0  0  0
 24 25  1  0  0  0  0
 25 28  1  0  0  0  0
 26 29  1  0  0  0  0
 26 28  1  0  0  0  0
 27 26  2  0  0  0  0
 29 30  1  0  0  0  0
M  END
>  <MODEL>
2

>  <REMARK>
 VINA RESULT:      -7.1      4.562      8.089
  Name = 
  8 active torsions:
  status: ('A' for Active; 'I' for Inactive)
    1  A    between atoms: O_2  and  C_19
    2  A    between atoms: O_2  and  C_20
    3  A    between atoms: N_4  and  C_22
    4  A    between atoms: C_8  and  C_14
    5  A    between atoms: C_9  and  C_26
    6  A    between atoms: C_11  and  C_25
    7  A    between atoms: C_19  and  N_29
    8  A    between atoms: C_24  and  C_27
                            x       y       z     vdW  Elec       q    Type
                         _______ _______ _______ _____ _____    ______ ____

>  <TORSDO>
F 8

$$$$
=
 OpenBabel11062413203D

 30 32  0  0  1  0  0  0  0  0999 V2000
  187.4860  178.4970  141.2300 C   0  0  0  0  0  2  0  0  0  0  0  0
  185.4710  178.2250  142.6600 C   0  0  0  0  0  3  0  0  0  0  0  0
  186.0410  178.7630  141.5770 C   0  0  0  0  0  0  0  0  0  0  0  0
  188.3020  178.0120  142.4280 C   0  0  1  0  0  3  0  0  0  0  0  0
  187.5630  176.9000  143.1590 C   0  0  0  0  0  2  0  0  0  0  0  0
  186.2150  177.3990  143.6790 C   0  0  1  0  0  3  0  0  0  0  0  0
  186.1550  177.3390  146.0670 O   0  0  0  0  0  0  0  0  0  0  0  0
  185.1070  178.2040  145.7110 C   0  0  0  0  0  2  0  0  0  0  0  0
  186.3850  178.1870  144.9690 C   0  0  2  0  0  3  0  0  0  0  0  0
  189.6290  177.5570  142.0210 N   0  0  0  0  0  2  0  0  0  0  0  0
  191.8560  177.0340  142.4430 O   0  0  0  0  0  0  0  0  0  0  0  0
  190.6990  177.2090  142.9120 C   0  0  0  0  0  0  0  0  0  0  0  0
  190.1780  177.2850  147.1450 C   0  0  1  0  0  3  0  0  0  0  0  0
  191.5790  176.8490  146.6580 C   0  0  2  0  0  3  0  0  0  0  0  0
  191.7770  176.9330  145.1300 C   0  0  0  0  0  2  0  0  0  0  0  0
  189.6390  178.0800  144.9140 N   0  0  0  0  0  0  0  0  0  0  0  0
  190.4480  177.0080  144.3780 C   0  0  1  0  0  3  0  0  0  0  0  0
  190.2690  177.8780  148.4010 O   0  0  0  0  0  1  0  0  0  0  0  0
  189.5070  178.2320  146.1860 C   0  0  0  0  0  3  0  0  0  0  0  0
  190.8230  174.8350  147.6940 F   0  0  0  0  0  0  0  0  0  0  0  0
  192.8970  175.5650  148.1860 F   0  0  0  0  0  0  0  0  0  0  0  0
  192.4530  174.6900  146.1590 F   0  0  0  0  0  0  0  0  0  0  0  0
  191.9470  175.4620  147.1860 C   0  0  0  0  0  0  0  0  0  0  0  0
  185.2380  179.5290  140.7280 O   0  0  0  0  0  0  0  0  0  0  0  0
  184.5890  178.9850  139.5890 C   0  0  0  0  0  2  0  0  0  0  0  0
  185.9610  178.1120  137.6700 C   0  0  0  0  0  0  0  0  0  0  0  0
  185.5300  176.9390  137.8380 O   0  0  0  0  0  0  0  0  0  0  0  0
  185.4170  179.2000  138.4170 N   0  0  0  0  0  2  0  0  0  0  0  0
  187.0310  178.3670  136.6700 C   0  0  0  0  0  2  0  0  0  0  0  0
  188.0170  179.1770  137.2290 O   0  0  0  0  0  1  0  0  0  0  0  0
  1  3  1  0  0  0  0
  1  4  1  0  0  0  0
  3  2  2  0  0  0  0
  4 10  1  6  0  0  0
  4  5  1  0  0  0  0
  5  6  1  0  0  0  0
  6  2  1  6  0  0  0
  6  9  1  0  0  0  0
  8  7  1  0  0  0  0
  9  8  1  6  0  0  0
  9  7  1  0  0  0  0
 10 12  1  0  0  0  0
 11 12  2  0  0  0  0
 13 18  1  1  0  0  0
 14 13  1  0  0  0  0
 14 23  1  6  0  0  0
 15 14  1  0  0  0  0
 16 19  2  0  0  0  0
 17 12  1  6  0  0  0
 17 16  1  0  0  0  0
 17 15  1  0  0  0  0
 19 13  1  0  0  0  0
 22 23  1  0  0  0  0
 23 20  1  0  0  0  0
 23 21  1  0  0  0  0
 24  3  1  0  0  0  0
 25 24  1  0  0  0  0
 26 27  2  0  0  0  0
 26 28  1  0  0  0  0
 28 25  1  0  0  0  0
 29 30  1  0  0  0  0
 29 26  1  0  0  0  0
M  END
>  <MODEL>
3

>  <REMARK>
 VINA RESULT:      -7.1      3.619      5.333
  Name = 
  8 active torsions:
  status: ('A' for Active; 'I' for Inactive)
    1  A    between atoms: O_2  and  C_19
    2  A    between atoms: O_2  and  C_20
    3  A    between atoms: N_4  and  C_22
    4  A    between atoms: C_8  and  C_14
    5  A    between atoms: C_9  and  C_26
    6  A    between atoms: C_11  and  C_25
    7  A    between atoms: C_19  and  N_29
    8  A    between atoms: C_24  and  C_27
                            x       y       z     vdW  Elec       q    Type
                         _______ _______ _______ _____ _____    ______ ____

>  <TORSDO>
F 8

$$$$
=
 OpenBabel11062413203D

 30 32  0  0  1  0  0  0  0  0999 V2000
  186.8160  178.1750  141.8730 C   0  0  0  0  0  2  0  0  0  0  0  0
  186.9080  178.1040  144.3560 C   0  0  0  0  0  3  0  0  0  0  0  0
  187.3830  177.6790  143.1810 C   0  0  0  0  0  0  0  0  0  0  0  0
  185.4150  178.7670  142.0220 C   0  0  1  0  0  3  0  0  0  0  0  0
  185.3690  179.7370  143.1940 C   0  0  0  0  0  2  0  0  0  0  0  0
  185.7210  179.0230  144.5000 C   0  0  1  0  0  3  0  0  0  0  0  0
  183.7100  179.1230  145.7860 O   0  0  0  0  0  0  0  0  0  0  0  0
  184.5520  178.2690  146.5170 C   0  0  0  0  0  2  0  0  0  0  0  0
  184.5250  178.2530  145.0400 C   0  0  2  0  0  3  0  0  0  0  0  0
  184.9830  179.4320  140.7960 N   0  0  0  0  0  2  0  0  0  0  0  0
  183.5960  179.6540  138.9410 O   0  0  0  0  0  0  0  0  0  0  0  0
  183.7590  179.1700  140.0940 C   0  0  0  0  0  0  0  0  0  0  0  0
  180.2760  177.0500  141.3480 C   0  0  1  0  0  3  0  0  0  0  0  0
  180.3450  178.5300  141.7890 C   0  0  2  0  0  3  0  0  0  0  0  0
  181.5590  179.3040  141.2340 C   0  0  0  0  0  2  0  0  0  0  0  0
  182.1070  177.4180  139.7930 N   0  0  0  0  0  0  0  0  0  0  0  0
  182.6600  178.3710  140.7310 C   0  0  1  0  0  3  0  0  0  0  0  0
  178.9490  176.6470  141.2210 O   0  0  0  0  0  1  0  0  0  0  0  0
  181.0050  176.8040  140.0540 C   0  0  0  0  0  3  0  0  0  0  0  0
  179.9760  177.4330  143.8780 F   0  0  0  0  0  0  0  0  0  0  0  0
  179.2560  179.5560  143.6550 F   0  0  0  0  0  0  0  0  0  0  0  0
  181.4590  179.1140  143.8120 F   0  0  0  0  0  0  0  0  0  0  0  0
  180.2540  178.6630  143.3100 C   0  0  0  0  0  0  0  0  0  0  0  0
  188.4750  176.8080  143.1950 O   0  0  0  0  0  0  0  0  0  0  0  0
  189.8200  177.2640  143.2070 C   0  0  0  0  0  2  0  0  0  0  0  0
  190.7130  176.9170  145.5330 C   0  0  0  0  0  0  0  0  0  0  0  0
  189.9680  177.8200  146.0010 O   0  0  0  0  0  0  0  0  0  0  0  0
  190.5780  176.4950  144.1760 N   0  0  0  0  0  2  0  0  0  0  0  0
  191.7280  176.2720  146.4080 C   0  0  0  0  0  2  0  0  0  0  0  0
  191.8780  177.0080  147.5810 O   0  0  0  0  0  1  0  0  0  0  0  0
  1  4  1  0  0  0  0
  1  3  1  0  0  0  0
  2  6  1  0  0  0  0
  3 24  1  0  0  0  0
  3  2  2  0  0  0  0
  4 10  1  6  0  0  0
  4  5  1  0  0  0  0
  6  5  1  6  0  0  0
  6  9  1  0  0  0  0
  7  8  1  0  0  0  0
  9  7  1  0  0  0  0
  9  8  1  1  0  0  0
 11 12  2  0  0  0  0
 12 10  1  0  0  0  0
 13 18  1  6  0  0  0
 13 14  1  0  0  0  0
 14 23  1  1  0  0  0
 15 14  1  0  0  0  0
 16 19  2  0  0  0  0
 16 17  1  0  0  0  0
 17 12  1  6  0  0  0
 17 15  1  0  0  0  0
 19 13  1  0  0  0  0
 23 21  1  0  0  0  0
 23 22  1  0  0  0  0
 23 20  1  0  0  0  0
 24 25  1  0  0  0  0
 25 28  1  0  0  0  0
 26 27  2  0  0  0  0
 26 29  1  0  0  0  0
 28 26  1  0  0  0  0
 29 30  1  0  0  0  0
M  END
>  <MODEL>
4

>  <REMARK>
 VINA RESULT:      -6.9      3.972      8.808
  Name = 
  8 active torsions:
  status: ('A' for Active; 'I' for Inactive)
    1  A    between atoms: O_2  and  C_19
    2  A    between atoms: O_2  and  C_20
    3  A    between atoms: N_4  and  C_22
    4  A    between atoms: C_8  and  C_14
    5  A    between atoms: C_9  and  C_26
    6  A    between atoms: C_11  and  C_25
    7  A    between atoms: C_19  and  N_29
    8  A    between atoms: C_24  and  C_27
                            x       y       z     vdW  Elec       q    Type
                         _______ _______ _______ _____ _____    ______ ____

>  <TORSDO>
F 8

$$$$
=
 OpenBabel11062413203D

 30 32  0  0  1  0  0  0  0  0999 V2000
  186.8540  177.8780  143.2130 C   0  0  0  0  0  2  0  0  0  0  0  0
  185.3450  178.4140  145.1150 C   0  0  0  0  0  3  0  0  0  0  0  0
  186.4260  177.7730  144.6570 C   0  0  0  0  0  0  0  0  0  0  0  0
  185.7220  178.3330  142.2920 C   0  0  1  0  0  3  0  0  0  0  0  0
  185.0120  179.5440  142.8810 C   0  0  0  0  0  2  0  0  0  0  0  0
  184.4050  179.2060  144.2420 C   0  0  1  0  0  3  0  0  0  0  0  0
  182.3580  179.0300  143.0230 O   0  0  0  0  0  0  0  0  0  0  0  0
  181.9630  179.3930  144.3210 C   0  0  0  0  0  2  0  0  0  0  0  0
  183.0870  178.4640  144.0830 C   0  0  2  0  0  3  0  0  0  0  0  0
  186.2130  178.6340  140.9500 N   0  0  0  0  0  2  0  0  0  0  0  0
  185.9630  178.7900  138.6430 O   0  0  0  0  0  0  0  0  0  0  0  0
  185.4020  178.7340  139.7710 C   0  0  0  0  0  0  0  0  0  0  0  0
  181.1480  178.4700  139.5890 C   0  0  1  0  0  3  0  0  0  0  0  0
  181.7940  179.4560  138.5880 C   0  0  2  0  0  3  0  0  0  0  0  0
  183.3370  179.4540  138.5980 C   0  0  0  0  0  2  0  0  0  0  0  0
  183.3290  177.5080  140.0630 N   0  0  0  0  0  0  0  0  0  0  0  0
  183.9070  178.8190  139.8660 C   0  0  1  0  0  3  0  0  0  0  0  0
  179.9510  177.9790  139.0760 O   0  0  0  0  0  1  0  0  0  0  0  0
  182.0610  177.3220  139.9320 C   0  0  0  0  0  3  0  0  0  0  0  0
  180.6270  180.9900  139.9990 F   0  0  0  0  0  0  0  0  0  0  0  0
  180.3220  181.1550  137.7730 F   0  0  0  0  0  0  0  0  0  0  0  0
  182.2750  181.7860  138.7000 F   0  0  0  0  0  0  0  0  0  0  0  0
  181.2420  180.8710  138.7650 C   0  0  0  0  0  0  0  0  0  0  0  0
  187.1970  177.0550  145.5740 O   0  0  0  0  0  0  0  0  0  0  0  0
  187.9600  177.6820  146.5940 C   0  0  0  0  0  2  0  0  0  0  0  0
  190.2350  177.5750  145.5280 C   0  0  0  0  0  0  0  0  0  0  0  0
  189.9830  178.5620  144.7860 O   0  0  0  0  0  0  0  0  0  0  0  0
  189.3210  177.1820  146.5520 N   0  0  0  0  0  2  0  0  0  0  0  0
  191.5060  176.8230  145.3480 C   0  0  0  0  0  2  0  0  0  0  0  0
  191.8870  176.2430  146.5560 O   0  0  0  0  0  1  0  0  0  0  0  0
  1  3  1  0  0  0  0
  3  2  2  0  0  0  0
  3 24  1  0  0  0  0
  4 10  1  6  0  0  0
  4  5  1  0  0  0  0
  4  1  1  0  0  0  0
  6  5  1  6  0  0  0
  6  2  1  0  0  0  0
  7  9  1  0  0  0  0
  7  8  1  0  0  0  0
  9  6  1  0  0  0  0
  9  8  1  1  0  0  0
 11 12  2  0  0  0  0
 12 10  1  0  0  0  0
 13 18  1  6  0  0  0
 13 19  1  0  0  0  0
 14 15  1  0  0  0  0
 14 23  1  1  0  0  0
 14 13  1  0  0  0  0
 15 17  1  0  0  0  0
 17 12  1  6  0  0  0
 17 16  1  0  0  0  0
 19 16  2  0  0  0  0
 21 23  1  0  0  0  0
 22 23  1  0  0  0  0
 23 20  1  0  0  0  0
 24 25  1  0  0  0  0
 26 28  1  0  0  0  0
 27 26  2  0  0  0  0
 28 25  1  0  0  0  0
 29 26  1  0  0  0  0
 29 30  1  0  0  0  0
M  END
>  <MODEL>
5

>  <REMARK>
 VINA RESULT:      -6.9      4.179      8.544
  Name = 
  8 active torsions:
  status: ('A' for Active; 'I' for Inactive)
    1  A    between atoms: O_2  and  C_19
    2  A    between atoms: O_2  and  C_20
    3  A    between atoms: N_4  and  C_22
    4  A    between atoms: C_8  and  C_14
    5  A    between atoms: C_9  and  C_26
    6  A    between atoms: C_11  and  C_25
    7  A    between atoms: C_19  and  N_29
    8  A    between atoms: C_24  and  C_27
                            x       y       z     vdW  Elec       q    Type
                         _______ _______ _______ _____ _____    ______ ____

>  <TORSDO>
F 8

$$$$
=
 OpenBabel11062413203D

 30 32  0  0  1  0  0  0  0  0999 V2000
  188.4620  177.3590  142.9170 C   0  0  0  0  0  2  0  0  0  0  0  0
  186.1660  178.3040  142.7850 C   0  0  0  0  0  3  0  0  0  0  0  0
  187.0560  177.5450  143.4340 C   0  0  0  0  0  0  0  0  0  0  0  0
  188.5920  177.6770  141.4280 C   0  0  1  0  0  3  0  0  0  0  0  0
  187.9200  179.0060  141.1080 C   0  0  0  0  0  2  0  0  0  0  0  0
  186.4310  178.9550  141.4510 C   0  0  1  0  0  3  0  0  0  0  0  0
  185.5130  179.1070  139.2510 O   0  0  0  0  0  0  0  0  0  0  0  0
  184.3940  178.9920  140.0920 C   0  0  0  0  0  2  0  0  0  0  0  0
  185.6430  178.2500  140.3580 C   0  0  2  0  0  3  0  0  0  0  0  0
  189.9900  177.7000  141.0060 N   0  0  0  0  0  2  0  0  0  0  0  0
  191.7500  177.0290  139.6420 O   0  0  0  0  0  0  0  0  0  0  0  0
  190.5020  177.1300  139.7930 C   0  0  0  0  0  0  0  0  0  0  0  0
  188.4430  175.7790  136.3100 C   0  0  1  0  0  3  0  0  0  0  0  0
  188.7240  177.2980  136.3660 C   0  0  2  0  0  3  0  0  0  0  0  0
  189.5630  177.7460  137.5800 C   0  0  0  0  0  2  0  0  0  0  0  0
  189.9820  175.4170  138.1550 N   0  0  0  0  0  0  0  0  0  0  0  0
  189.5790  176.6980  138.6930 C   0  0  1  0  0  3  0  0  0  0  0  0
  188.3810  175.3490  134.9880 O   0  0  0  0  0  1  0  0  0  0  0  0
  189.4780  174.9770  137.0550 C   0  0  0  0  0  3  0  0  0  0  0  0
  187.0790  178.2650  134.9300 F   0  0  0  0  0  0  0  0  0  0  0  0
  187.5990  179.3560  136.8310 F   0  0  0  0  0  0  0  0  0  0  0  0
  186.4090  177.4450  136.9080 F   0  0  0  0  0  0  0  0  0  0  0  0
  187.4320  178.1080  136.2580 C   0  0  0  0  0  0  0  0  0  0  0  0
  186.6690  176.9820  144.6520 O   0  0  0  0  0  0  0  0  0  0  0  0
  187.0760  177.5090  145.9060 C   0  0  0  0  0  2  0  0  0  0  0  0
  189.0380  177.1670  147.4410 C   0  0  0  0  0  0  0  0  0  0  0  0
  188.2960  177.1650  148.4600 O   0  0  0  0  0  0  0  0  0  0  0  0
  188.4720  177.1880  146.1310 N   0  0  0  0  0  2  0  0  0  0  0  0
  190.5160  177.1290  147.6040 C   0  0  0  0  0  2  0  0  0  0  0  0
  191.0910  176.4330  146.5440 O   0  0  0  0  0  1  0  0  0  0  0  0
  1  3  1  0  0  0  0
  2  3  2  0  0  0  0
  3 24  1  0  0  0  0
  4 10  1  1  0  0  0
  4  1  1  0  0  0  0
  5  4  1  0  0  0  0
  6  5  1  6  0  0  0
  6  2  1  0  0  0  0
  7  8  1  0  0  0  0
  7  9  1  0  0  0  0
  9  8  1  1  0  0  0
  9  6  1  0  0  0  0
 11 12  2  0  0  0  0
 12 10  1  0  0  0  0
 13 18  1  6  0  0  0
 13 14  1  0  0  0  0
 13 19  1  0  0  0  0
 14 23  1  1  0  0  0
 14 15  1  0  0  0  0
 15 17  1  0  0  0  0
 16 17  1  0  0  0  0
 17 12  1  1  0  0  0
 19 16  2  0  0  0  0
 20 23  1  0  0  0  0
 23 21  1  0  0  0  0
 23 22  1  0  0  0  0
 24 25  1  0  0  0  0
 25 28  1  0  0  0  0
 26 29  1  0  0  0  0
 26 27  2  0  0  0  0
 28 26  1  0  0  0  0
 30 29  1  0  0  0  0
M  END
>  <MODEL>
6

>  <REMARK>
 VINA RESULT:      -6.9      4.486      7.659
  Name = 
  8 active torsions:
  status: ('A' for Active; 'I' for Inactive)
    1  A    between atoms: O_2  and  C_19
    2  A    between atoms: O_2  and  C_20
    3  A    between atoms: N_4  and  C_22
    4  A    between atoms: C_8  and  C_14
    5  A    between atoms: C_9  and  C_26
    6  A    between atoms: C_11  and  C_25
    7  A    between atoms: C_19  and  N_29
    8  A    between atoms: C_24  and  C_27
                            x       y       z     vdW  Elec       q    Type
                         _______ _______ _______ _____ _____    ______ ____

>  <TORSDO>
F 8

$$$$
=
 OpenBabel11062413203D

 30 32  0  0  1  0  0  0  0  0999 V2000
  183.6010  178.2740  142.4890 C   0  0  0  0  0  2  0  0  0  0  0  0
  184.2250  178.5960  140.1040 C   0  0  0  0  0  3  0  0  0  0  0  0
  183.3170  178.2100  141.0070 C   0  0  0  0  0  0  0  0  0  0  0  0
  185.0950  178.3280  142.8030 C   0  0  1  0  0  3  0  0  0  0  0  0
  185.7840  179.3720  141.9340 C   0  0  0  0  0  2  0  0  0  0  0  0
  185.6260  179.0290  140.4520 C   0  0  1  0  0  3  0  0  0  0  0  0
  187.9270  178.4870  140.1030 O   0  0  0  0  0  0  0  0  0  0  0  0
  187.3510  178.4140  138.8240 C   0  0  0  0  0  2  0  0  0  0  0  0
  186.6250  177.9630  140.0290 C   0  0  2  0  0  3  0  0  0  0  0  0
  185.3340  178.6080  144.2170 N   0  0  0  0  0  2  0  0  0  0  0  0
  186.5190  178.3580  146.2030 O   0  0  0  0  0  0  0  0  0  0  0  0
  186.5170  178.2520  144.9460 C   0  0  0  0  0  0  0  0  0  0  0  0
  189.8700  176.3490  143.1210 C   0  0  1  0  0  3  0  0  0  0  0  0
  190.0910  176.8290  144.5740 C   0  0  2  0  0  3  0  0  0  0  0  0
  188.8340  177.4160  145.2490 C   0  0  0  0  0  2  0  0  0  0  0  0
  187.4760  176.6800  143.3650 N   0  0  0  0  0  0  0  0  0  0  0  0
  187.7580  177.8020  144.2340 C   0  0  1  0  0  3  0  0  0  0  0  0
  190.6850  175.2530  142.8470 O   0  0  0  0  0  1  0  0  0  0  0  0
  188.4330  175.9910  142.8480 C   0  0  0  0  0  3  0  0  0  0  0  0
  192.0520  177.7050  143.5290 F   0  0  0  0  0  0  0  0  0  0  0  0
  192.0480  177.5020  145.7730 F   0  0  0  0  0  0  0  0  0  0  0  0
  190.8040  179.0930  144.7750 F   0  0  0  0  0  0  0  0  0  0  0  0
  191.2710  177.7970  144.6670 C   0  0  0  0  0  0  0  0  0  0  0  0
  182.0630  177.8090  140.5430 O   0  0  0  0  0  0  0  0  0  0  0  0
  180.9250  178.6580  140.5730 C   0  0  0  0  0  2  0  0  0  0  0  0
  179.8920  179.3830  142.7490 C   0  0  0  0  0  0  0  0  0  0  0  0
  180.0970  180.5990  142.4920 O   0  0  0  0  0  0  0  0  0  0  0  0
  180.1500  178.3790  141.7670 N   0  0  0  0  0  2  0  0  0  0  0  0
  179.3580  178.9900  144.0800 C   0  0  0  0  0  2  0  0  0  0  0  0
  179.6800  177.6610  144.3460 O   0  0  0  0  0  1  0  0  0  0  0  0
  1  4  1  0  0  0  0
  2  3  2  0  0  0  0
  3  1  1  0  0  0  0
  4 10  1  1  0  0  0
  5  4  1  0  0  0  0
  6  2  1  1  0  0  0
  6  5  1  0  0  0  0
  8  7  1  0  0  0  0
  9  8  1  6  0  0  0
  9  7  1  0  0  0  0
  9  6  1  0  0  0  0
 10 12  1  0  0  0  0
 12 11  2  0  0  0  0
 13 18  1  1  0  0  0
 13 14  1  0  0  0  0
 14 23  1  6  0  0  0
 14 15  1  0  0  0  0
 16 17  1  0  0  0  0
 17 12  1  1  0  0  0
 17 15  1  0  0  0  0
 19 13  1  0  0  0  0
 19 16  2  0  0  0  0
 20 23  1  0  0  0  0
 23 22  1  0  0  0  0
 23 21  1  0  0  0  0
 24 25  1  0  0  0  0
 24  3  1  0  0  0  0
 25 28  1  0  0  0  0
 26 29  1  0  0  0  0
 27 26  2  0  0  0  0
 28 26  1  0  0  0  0
 29 30  1  0  0  0  0
M  END
>  <MODEL>
7

>  <REMARK>
 VINA RESULT:      -6.8      1.614      2.295
  Name = 
  8 active torsions:
  status: ('A' for Active; 'I' for Inactive)
    1  A    between atoms: O_2  and  C_19
    2  A    between atoms: O_2  and  C_20
    3  A    between atoms: N_4  and  C_22
    4  A    between atoms: C_8  and  C_14
    5  A    between atoms: C_9  and  C_26
    6  A    between atoms: C_11  and  C_25
    7  A    between atoms: C_19  and  N_29
    8  A    between atoms: C_24  and  C_27
                            x       y       z     vdW  Elec       q    Type
                         _______ _______ _______ _____ _____    ______ ____

>  <TORSDO>
F 8

$$$$
=
 OpenBabel11062413203D

 30 32  0  0  1  0  0  0  0  0999 V2000
  183.4650  179.0460  144.8840 C   0  0  0  0  0  2  0  0  0  0  0  0
  185.6570  178.5790  143.8080 C   0  0  0  0  0  3  0  0  0  0  0  0
  184.9730  178.9700  144.8890 C   0  0  0  0  0  0  0  0  0  0  0  0
  182.8810  179.1250  143.4740 C   0  0  1  0  0  3  0  0  0  0  0  0
  183.5120  178.0680  142.5770 C   0  0  0  0  0  2  0  0  0  0  0  0
  185.0220  178.2790  142.4740 C   0  0  1  0  0  3  0  0  0  0  0  0
  184.4660  179.3030  140.3890 O   0  0  0  0  0  0  0  0  0  0  0  0
  185.7510  178.7740  140.1880 C   0  0  0  0  0  2  0  0  0  0  0  0
  185.3540  179.3780  141.4760 C   0  0  2  0  0  3  0  0  0  0  0  0
  181.4280  178.9780  143.4870 N   0  0  0  0  0  2  0  0  0  0  0  0
  179.3130  179.2390  142.5540 O   0  0  0  0  0  0  0  0  0  0  0  0
  180.5600  179.1930  142.3650 C   0  0  0  0  0  0  0  0  0  0  0  0
  181.4780  179.6270  138.2230 C   0  0  1  0  0  3  0  0  0  0  0  0
  181.2160  178.1780  138.6940 C   0  0  2  0  0  3  0  0  0  0  0  0
  180.7810  178.0580  140.1700 C   0  0  0  0  0  2  0  0  0  0  0  0
  180.5720  180.4810  140.3090 N   0  0  0  0  0  0  0  0  0  0  0  0
  181.1100  179.3150  140.9750 C   0  0  1  0  0  3  0  0  0  0  0  0
  181.1400  179.7640  136.8790 O   0  0  0  0  0  1  0  0  0  0  0  0
  180.7220  180.6410  139.0400 C   0  0  0  0  0  3  0  0  0  0  0  0
  183.4250  178.0010  137.8030 F   0  0  0  0  0  0  0  0  0  0  0  0
  182.0340  176.2470  137.5440 F   0  0  0  0  0  0  0  0  0  0  0  0
  182.8900  176.7270  139.5710 F   0  0  0  0  0  0  0  0  0  0  0  0
  182.4100  177.2710  138.3960 C   0  0  0  0  0  0  0  0  0  0  0  0
  185.6920  179.2400  146.0550 O   0  0  0  0  0  0  0  0  0  0  0  0
  185.9630  178.2500  147.0360 C   0  0  0  0  0  2  0  0  0  0  0  0
  188.3070  177.5620  147.6330 C   0  0  0  0  0  0  0  0  0  0  0  0
  188.1390  177.8770  148.8420 O   0  0  0  0  0  0  0  0  0  0  0  0
  187.2130  177.5880  146.7160 N   0  0  0  0  0  2  0  0  0  0  0  0
  189.6530  177.1400  147.1610 C   0  0  0  0  0  2  0  0  0  0  0  0
  189.6590  177.0450  145.7710 O   0  0  0  0  0  1  0  0  0  0  0  0
  1  3  1  0  0  0  0
  2  3  2  0  0  0  0
  3 24  1  0  0  0  0
  4 10  1  1  0  0  0
  4  1  1  0  0  0  0
  5  4  1  0  0  0  0
  6  5  1  1  0  0  0
  6  2  1  0  0  0  0
  7  9  1  0  0  0  0
  8  7  1  0  0  0  0
  9  8  1  6  0  0  0
  9  6  1  0  0  0  0
 12 11  2  0  0  0  0
 12 10  1  0  0  0  0
 13 18  1  6  0  0  0
 13 14  1  0  0  0  0
 13 19  1  0  0  0  0
 14 23  1  1  0  0  0
 14 15  1  0  0  0  0
 15 17  1  0  0  0  0
 16 17  1  0  0  0  0
 17 12  1  1  0  0  0
 19 16  2  0  0  0  0
 20 23  1  0  0  0  0
 21 23  1  0  0  0  0
 23 22  1  0  0  0  0
 24 25  1  0  0  0  0
 26 27  2  0  0  0  0
 28 25  1  0  0  0  0
 28 26  1  0  0  0  0
 29 26  1  0  0  0  0
 30 29  1  0  0  0  0
M  END
>  <MODEL>
8

>  <REMARK>
 VINA RESULT:      -6.7      3.803      8.201
  Name = 
  8 active torsions:
  status: ('A' for Active; 'I' for Inactive)
    1  A    between atoms: O_2  and  C_19
    2  A    between atoms: O_2  and  C_20
    3  A    between atoms: N_4  and  C_22
    4  A    between atoms: C_8  and  C_14
    5  A    between atoms: C_9  and  C_26
    6  A    between atoms: C_11  and  C_25
    7  A    between atoms: C_19  and  N_29
    8  A    between atoms: C_24  and  C_27
                            x       y       z     vdW  Elec       q    Type
                         _______ _______ _______ _____ _____    ______ ____

>  <TORSDO>
F 8

$$$$
=
 OpenBabel11062413203D

 30 32  0  0  1  0  0  0  0  0999 V2000
  187.3110  176.7950  137.9160 C   0  0  0  0  0  2  0  0  0  0  0  0
  189.5070  176.0250  137.0400 C   0  0  0  0  0  3  0  0  0  0  0  0
  188.1820  175.8600  137.1110 C   0  0  0  0  0  0  0  0  0  0  0  0
  188.0960  177.5710  138.9740 C   0  0  1  0  0  3  0  0  0  0  0  0
  189.3570  178.1700  138.3660 C   0  0  0  0  0  2  0  0  0  0  0  0
  190.2670  177.0710  137.8160 C   0  0  1  0  0  3  0  0  0  0  0  0
  191.8850  177.3820  139.5460 O   0  0  0  0  0  0  0  0  0  0  0  0
  192.5110  176.5210  138.6310 C   0  0  0  0  0  2  0  0  0  0  0  0
  191.0680  176.4170  138.9310 C   0  0  2  0  0  3  0  0  0  0  0  0
  187.2800  178.6170  139.5840 N   0  0  0  0  0  2  0  0  0  0  0  0
  186.0630  179.5280  141.3450 O   0  0  0  0  0  0  0  0  0  0  0  0
  186.9420  178.7020  140.9760 C   0  0  0  0  0  0  0  0  0  0  0  0
  188.7780  176.7880  144.3180 C   0  0  1  0  0  3  0  0  0  0  0  0
  189.6890  177.7540  143.5250 C   0  0  2  0  0  3  0  0  0  0  0  0
  188.9740  178.5150  142.3890 C   0  0  0  0  0  2  0  0  0  0  0  0
  186.8270  177.6710  143.1700 N   0  0  0  0  0  0  0  0  0  0  0  0
  187.6500  177.8590  141.9960 C   0  0  1  0  0  3  0  0  0  0  0  0
  189.1870  176.7240  145.6470 O   0  0  0  0  0  1  0  0  0  0  0  0
  187.3270  177.1870  144.2540 C   0  0  0  0  0  3  0  0  0  0  0  0
  191.6510  176.5080  144.0700 F   0  0  0  0  0  0  0  0  0  0  0  0
  191.7510  177.9330  142.3280 F   0  0  0  0  0  0  0  0  0  0  0  0
  190.5790  176.0160  142.1610 F   0  0  0  0  0  0  0  0  0  0  0  0
  190.9410  177.0430  143.0110 C   0  0  0  0  0  0  0  0  0  0  0  0
  187.6100  174.8340  136.3560 O   0  0  0  0  0  0  0  0  0  0  0  0
  187.5260  173.4940  136.8210 C   0  0  0  0  0  2  0  0  0  0  0  0
  185.1980  172.5430  136.8370 C   0  0  0  0  0  0  0  0  0  0  0  0
  184.9340  173.0930  137.9400 O   0  0  0  0  0  0  0  0  0  0  0  0
  186.4220  172.8250  136.1590 N   0  0  0  0  0  2  0  0  0  0  0  0
  184.2180  171.6050  136.2280 C   0  0  0  0  0  2  0  0  0  0  0  0
  183.2960  171.1940  137.1880 O   0  0  0  0  0  1  0  0  0  0  0  0
  1  4  1  0  0  0  0
  2  3  2  0  0  0  0
  3  1  1  0  0  0  0
  4 10  1  6  0  0  0
  5  4  1  0  0  0  0
  6  2  1  1  0  0  0
  6  5  1  0  0  0  0
  6  9  1  0  0  0  0
  8  7  1  0  0  0  0
  9  8  1  6  0  0  0
  9  7  1  0  0  0  0
 10 12  1  0  0  0  0
 12 11  2  0  0  0  0
 13 18  1  1  0  0  0
 14 23  1  6  0  0  0
 14 13  1  0  0  0  0
 15 14  1  0  0  0  0
 16 19  2  0  0  0  0
 17 12  1  6  0  0  0
 17 15  1  0  0  0  0
 17 16  1  0  0  0  0
 19 13  1  0  0  0  0
 21 23  1  0  0  0  0
 22 23  1  0  0  0  0
 23 20  1  0  0  0  0
 24 25  1  0  0  0  0
 24  3  1  0  0  0  0
 26 27  2  0  0  0  0
 28 25  1  0  0  0  0
 28 26  1  0  0  0  0
 29 26  1  0  0  0  0
 29 30  1  0  0  0  0
M  END
>  <MODEL>
9

>  <REMARK>
 VINA RESULT:      -6.7      4.757      6.693
  Name = 
  8 active torsions:
  status: ('A' for Active; 'I' for Inactive)
    1  A    between atoms: O_2  and  C_19
    2  A    between atoms: O_2  and  C_20
    3  A    between atoms: N_4  and  C_22
    4  A    between atoms: C_8  and  C_14
    5  A    between atoms: C_9  and  C_26
    6  A    between atoms: C_11  and  C_25
    7  A    between atoms: C_19  and  N_29
    8  A    between atoms: C_24  and  C_27
                            x       y       z     vdW  Elec       q    Type
                         _______ _______ _______ _____ _____    ______ ____

>  <TORSDO>
F 8

$$$$
