=
 OpenBabel11062413293D

 30 34  0  0  1  0  0  0  0  0999 V2000
  188.3710  178.9990  141.6780 C   0  0  2  0  0  3  0  0  0  0  0  0
  189.0250  178.0730  137.6820 C   0  0  0  0  0  2  0  0  0  0  0  0
  187.9600  177.4700  138.5700 C   0  0  1  0  0  3  0  0  0  0  0  0
  185.4250  177.2070  138.1450 C   0  0  0  0  0  2  0  0  0  0  0  0
  184.7300  178.3780  141.1260 O   0  0  0  0  0  0  0  0  0  0  0  0
  184.8980  178.6340  138.2110 C   0  0  0  0  0  2  0  0  0  0  0  0
  188.3650  178.6620  136.5210 N   0  0  0  0  0  2  0  0  0  0  0  0
  187.5490  178.4210  139.5110 O   0  0  0  0  0  0  0  0  0  0  0  0
  187.0930  177.9650  136.3560 C   0  0  0  0  0  2  0  0  0  0  0  0
  183.8710  179.2210  140.4210 C   0  0  0  0  0  2  0  0  0  0  0  0
  187.9160  177.8760  140.7460 C   0  0  2  0  0  3  0  0  0  0  0  0
  185.7910  179.2010  141.5070 C   0  0  0  0  0  2  0  0  0  0  0  0
  186.8530  177.1200  137.5930 C   0  0  1  0  0  3  0  0  0  0  0  0
  189.4340  178.4580  142.6200 C   0  0  0  0  0  1  0  0  0  0  0  0
  183.6120  178.6710  139.0230 C   0  0  1  0  0  3  0  0  0  0  0  0
  187.0050  178.3520  141.8650 C   0  0  2  0  0  0  0  0  0  0  0  0
  179.6830  181.7940  136.4240 F   0  0  0  0  0  0  0  0  0  0  0  0
  181.3840  181.5840  138.0800 C   0  0  0  0  0  3  0  0  0  0  0  0
  180.8320  179.7170  136.6400 C   0  0  0  0  0  3  0  0  0  0  0  0
  180.6230  181.0400  137.0410 C   0  0  0  0  0  0  0  0  0  0  0  0
  182.3540  180.8060  138.7190 C   0  0  0  0  0  3  0  0  0  0  0  0
  181.8020  178.9380  137.2770 C   0  0  0  0  0  3  0  0  0  0  0  0
  182.5690  179.4810  138.3220 C   0  0  0  0  0  0  0  0  0  0  0  0
  186.8660  177.3900  142.9570 N   0  0  0  0  0  2  0  0  0  0  0  0
  185.0360  178.9190  145.9170 N   0  0  0  0  0  0  0  0  0  0  0  0
  187.3110  177.4390  145.2920 C   0  0  0  0  0  3  0  0  0  0  0  0
  185.9120  178.5020  146.9700 C   0  0  0  0  0  3  0  0  0  0  0  0
  185.1400  178.3860  144.5580 C   0  0  0  0  0  3  0  0  0  0  0  0
  186.4850  177.7480  144.2890 C   0  0  0  0  0  0  0  0  0  0  0  0
  186.9960  177.7850  146.6870 C   0  0  0  0  0  3  0  0  0  0  0  0
  1 16  1  0  0  0  0
  1 14  1  1  0  0  0
  3  2  1  6  0  0  0
  3  8  1  0  0  0  0
  4  6  1  0  0  0  0
  5 12  1  0  0  0  0
  6 15  1  0  0  0  0
  7  2  1  0  0  0  0
  9  7  1  0  0  0  0
 10  5  1  0  0  0  0
 11  8  1  6  0  0  0
 11  1  1  0  0  0  0
 11 16  1  0  0  0  0
 12 16  1  0  0  0  0
 13  9  1  6  0  0  0
 13  4  1  0  0  0  0
 13  3  1  0  0  0  0
 15 23  1  6  0  0  0
 15 10  1  0  0  0  0
 16 24  1  1  0  0  0
 17 20  1  0  0  0  0
 18 21  1  0  0  0  0
 19 20  1  0  0  0  0
 19 22  2  0  0  0  0
 20 18  2  0  0  0  0
 22 23  1  0  0  0  0
 23 21  2  0  0  0  0
 24 29  1  0  0  0  0
 25 27  1  0  0  0  0
 26 30  1  0  0  0  0
 28 25  2  0  0  0  0
 29 28  1  0  0  0  0
 29 26  2  0  0  0  0
 30 27  2  0  0  0  0
M  END
>  <MODEL>
1

>  <REMARK>
 VINA RESULT:      -7.8      0.000      0.000
  Name = 
  3 active torsions:
  status: ('A' for Active; 'I' for Inactive)
    1  A    between atoms: N_14  and  C_17
    2  A    between atoms: N_14  and  C_29
    3  A    between atoms: C_28  and  C_30
                            x       y       z     vdW  Elec       q    Type
                         _______ _______ _______ _____ _____    ______ ____

>  <TORSDO>
F 3

$$$$
=
 OpenBabel11062413293D

 30 34  0  0  1  0  0  0  0  0999 V2000
  189.1760  178.7440  139.1110 C   0  0  2  0  0  3  0  0  0  0  0  0
  185.7080  179.4430  141.2850 C   0  0  0  0  0  2  0  0  0  0  0  0
  186.4850  178.1460  141.2470 C   0  0  1  0  0  3  0  0  0  0  0  0
  187.3330  176.6850  143.2010 C   0  0  0  0  0  2  0  0  0  0  0  0
  190.2960  176.4340  141.8230 O   0  0  0  0  0  0  0  0  0  0  0  0
  188.4470  177.5200  143.8200 C   0  0  0  0  0  2  0  0  0  0  0  0
  185.6110  179.8710  142.6770 N   0  0  0  0  0  2  0  0  0  0  0  0
  187.8440  178.4280  141.0680 O   0  0  0  0  0  0  0  0  0  0  0  0
  185.7490  178.6750  143.5010 C   0  0  0  0  0  2  0  0  0  0  0  0
  190.7420  176.8340  143.0840 C   0  0  0  0  0  2  0  0  0  0  0  0
  188.1620  177.8560  139.8300 C   0  0  2  0  0  3  0  0  0  0  0  0
  190.4760  177.5590  141.0160 C   0  0  0  0  0  2  0  0  0  0  0  0
  186.2050  177.5360  142.6070 C   0  0  1  0  0  3  0  0  0  0  0  0
  188.9540  178.6300  137.6110 C   0  0  0  0  0  1  0  0  0  0  0  0
  189.6460  176.6350  144.1240 C   0  0  1  0  0  3  0  0  0  0  0  0
  189.6210  177.4400  139.7600 C   0  0  2  0  0  0  0  0  0  0  0  0
  191.6860  177.6250  149.3010 F   0  0  0  0  0  0  0  0  0  0  0  0
  191.9610  176.7050  147.1200 C   0  0  0  0  0  3  0  0  0  0  0  0
  189.9090  177.8390  147.7270 C   0  0  0  0  0  3  0  0  0  0  0  0
  191.1910  177.3920  148.0630 C   0  0  0  0  0  0  0  0  0  0  0  0
  191.4500  176.4640  145.8410 C   0  0  0  0  0  3  0  0  0  0  0  0
  189.3980  177.5990  146.4490 C   0  0  0  0  0  3  0  0  0  0  0  0
  190.1680  176.9080  145.4980 C   0  0  0  0  0  0  0  0  0  0  0  0
  189.8650  176.3020  138.8760 N   0  0  0  0  0  2  0  0  0  0  0  0
  193.5230  176.4600  137.8570 N   0  0  0  0  0  0  0  0  0  0  0  0
  191.2740  174.8310  137.6490 C   0  0  0  0  0  3  0  0  0  0  0  0
  193.6260  175.2080  137.1700 C   0  0  0  0  0  3  0  0  0  0  0  0
  192.3620  176.8080  138.6780 C   0  0  0  0  0  3  0  0  0  0  0  0
  191.1530  175.9580  138.3580 C   0  0  0  0  0  0  0  0  0  0  0  0
  192.5620  174.4150  137.0740 C   0  0  0  0  0  3  0  0  0  0  0  0
  1 14  1  6  0  0  0
  1 16  1  0  0  0  0
  1 11  1  0  0  0  0
  2  7  1  0  0  0  0
  3  2  1  1  0  0  0
  3 13  1  0  0  0  0
  4  6  1  0  0  0  0
  5 10  1  0  0  0  0
  6 15  1  0  0  0  0
  7  9  1  0  0  0  0
  8  3  1  0  0  0  0
 10 15  1  0  0  0  0
 11  8  1  1  0  0  0
 12  5  1  0  0  0  0
 13  4  1  1  0  0  0
 13  9  1  0  0  0  0
 15 23  1  1  0  0  0
 16 24  1  6  0  0  0
 16 11  1  0  0  0  0
 16 12  1  0  0  0  0
 18 20  1  0  0  0  0
 19 20  2  0  0  0  0
 20 17  1  0  0  0  0
 21 18  2  0  0  0  0
 22 19  1  0  0  0  0
 23 21  1  0  0  0  0
 23 22  2  0  0  0  0
 25 28  1  0  0  0  0
 26 29  1  0  0  0  0
 27 25  2  0  0  0  0
 29 28  2  0  0  0  0
 29 24  1  0  0  0  0
 30 27  1  0  0  0  0
 30 26  2  0  0  0  0
M  END
>  <MODEL>
2

>  <REMARK>
 VINA RESULT:      -7.4      4.663      9.281
  Name = 
  3 active torsions:
  status: ('A' for Active; 'I' for Inactive)
    1  A    between atoms: N_14  and  C_17
    2  A    between atoms: N_14  and  C_29
    3  A    between atoms: C_28  and  C_30
                            x       y       z     vdW  Elec       q    Type
                         _______ _______ _______ _____ _____    ______ ____

>  <TORSDO>
F 3

$$$$
=
 OpenBabel11062413293D

 30 34  0  0  1  0  0  0  0  0999 V2000
  180.4140  177.0400  138.3500 C   0  0  2  0  0  3  0  0  0  0  0  0
  184.2860  176.9650  136.8480 C   0  0  0  0  0  2  0  0  0  0  0  0
  183.6600  178.0970  137.6310 C   0  0  1  0  0  3  0  0  0  0  0  0
  184.5600  179.3550  139.6990 C   0  0  0  0  0  2  0  0  0  0  0  0
  181.6710  179.0730  141.2190 O   0  0  0  0  0  0  0  0  0  0  0  0
  184.4740  178.3220  140.8160 C   0  0  0  0  0  2  0  0  0  0  0  0
  185.4950  176.5450  137.5480 N   0  0  0  0  0  2  0  0  0  0  0  0
  182.7350  177.5720  138.5410 O   0  0  0  0  0  0  0  0  0  0  0  0
  185.9470  177.6860  138.3390 C   0  0  0  0  0  2  0  0  0  0  0  0
  182.4490  178.5830  142.2690 C   0  0  0  0  0  2  0  0  0  0  0  0
  181.5020  178.0910  138.1280 C   0  0  2  0  0  3  0  0  0  0  0  0
  181.0360  177.9440  140.7000 C   0  0  0  0  0  2  0  0  0  0  0  0
  184.8480  178.7320  138.3280 C   0  0  1  0  0  3  0  0  0  0  0  0
  179.3410  177.2100  137.2860 C   0  0  0  0  0  1  0  0  0  0  0  0
  183.9110  178.9680  142.0720 C   0  0  1  0  0  3  0  0  0  0  0  0
  180.5330  178.2320  139.2900 C   0  0  2  0  0  0  0  0  0  0  0  0
  186.9220  177.5680  146.6470 F   0  0  0  0  0  0  0  0  0  0  0  0
  184.9880  178.5720  145.6810 C   0  0  0  0  0  3  0  0  0  0  0  0
  186.6850  177.5690  144.2750 C   0  0  0  0  0  3  0  0  0  0  0  0
  186.2060  177.8990  145.5460 C   0  0  0  0  0  0  0  0  0  0  0  0
  184.2470  178.9150  144.5460 C   0  0  0  0  0  3  0  0  0  0  0  0
  185.9460  177.9120  143.1390 C   0  0  0  0  0  3  0  0  0  0  0  0
  184.7220  178.5870  143.2700 C   0  0  0  0  0  0  0  0  0  0  0  0
  179.5680  179.3160  139.1190 N   0  0  0  0  0  2  0  0  0  0  0  0
  179.5000  181.9920  136.4210 N   0  0  0  0  0  0  0  0  0  0  0  0
  180.8480  181.2870  138.7530 C   0  0  0  0  0  3  0  0  0  0  0  0
  180.5470  182.8390  136.9090 C   0  0  0  0  0  3  0  0  0  0  0  0
  178.9310  180.9110  137.2260 C   0  0  0  0  0  3  0  0  0  0  0  0
  179.8320  180.5070  138.3710 C   0  0  0  0  0  0  0  0  0  0  0  0
  181.1900  182.5200  138.0280 C   0  0  0  0  0  3  0  0  0  0  0  0
  1 14  1  6  0  0  0
  1 16  1  0  0  0  0
  2  7  1  0  0  0  0
  3  2  1  6  0  0  0
  3 13  1  0  0  0  0
  3  8  1  0  0  0  0
  4  6  1  0  0  0  0
  5 10  1  0  0  0  0
  6 15  1  0  0  0  0
  7  9  1  0  0  0  0
 11  1  1  0  0  0  0
 11  8  1  1  0  0  0
 11 16  1  0  0  0  0
 12  5  1  0  0  0  0
 13  9  1  1  0  0  0
 13  4  1  0  0  0  0
 15 10  1  0  0  0  0
 15 23  1  1  0  0  0
 16 24  1  6  0  0  0
 16 12  1  0  0  0  0
 19 20  2  0  0  0  0
 20 18  1  0  0  0  0
 20 17  1  0  0  0  0
 21 18  2  0  0  0  0
 22 23  2  0  0  0  0
 22 19  1  0  0  0  0
 23 21  1  0  0  0  0
 25 27  2  0  0  0  0
 25 28  1  0  0  0  0
 27 30  1  0  0  0  0
 28 29  2  0  0  0  0
 29 26  1  0  0  0  0
 29 24  1  0  0  0  0
 30 26  2  0  0  0  0
M  END
>  <MODEL>
3

>  <REMARK>
 VINA RESULT:      -7.3      3.825      7.794
  Name = 
  3 active torsions:
  status: ('A' for Active; 'I' for Inactive)
    1  A    between atoms: N_14  and  C_17
    2  A    between atoms: N_14  and  C_29
    3  A    between atoms: C_28  and  C_30
                            x       y       z     vdW  Elec       q    Type
                         _______ _______ _______ _____ _____    ______ ____

>  <TORSDO>
F 3

$$$$
=
 OpenBabel11062413293D

 30 34  0  0  1  0  0  0  0  0999 V2000
  181.5520  180.9520  137.9840 C   0  0  2  0  0  3  0  0  0  0  0  0
  178.9310  180.9890  141.2060 C   0  0  0  0  0  2  0  0  0  0  0  0
  179.7040  179.7900  140.7040 C   0  0  1  0  0  3  0  0  0  0  0  0
  181.1840  178.1270  142.0150 C   0  0  0  0  0  2  0  0  0  0  0  0
  183.5610  178.3630  139.7730 O   0  0  0  0  0  0  0  0  0  0  0  0
  182.4040  178.9550  142.3990 C   0  0  0  0  0  2  0  0  0  0  0  0
  179.2650  181.1870  142.6120 N   0  0  0  0  0  2  0  0  0  0  0  0
  180.9240  180.2180  140.1690 O   0  0  0  0  0  0  0  0  0  0  0  0
  179.7040  179.8950  143.1310 C   0  0  0  0  0  2  0  0  0  0  0  0
  184.3700  178.6020  140.8860 C   0  0  0  0  0  2  0  0  0  0  0  0
  180.8530  179.8760  138.8130 C   0  0  2  0  0  3  0  0  0  0  0  0
  183.4340  179.6100  139.1600 C   0  0  0  0  0  2  0  0  0  0  0  0
  179.8940  178.9540  141.9560 C   0  0  1  0  0  3  0  0  0  0  0  0
  180.8690  181.0520  136.6290 C   0  0  0  0  0  1  0  0  0  0  0  0
  183.6700  178.1470  142.1600 C   0  0  1  0  0  3  0  0  0  0  0  0
  182.2290  179.6100  138.2270 C   0  0  2  0  0  0  0  0  0  0  0  0
  187.0920  178.5740  146.6390 F   0  0  0  0  0  0  0  0  0  0  0  0
  184.9450  178.8800  145.6500 C   0  0  0  0  0  3  0  0  0  0  0  0
  186.7710  177.9470  144.3610 C   0  0  0  0  0  3  0  0  0  0  0  0
  186.2780  178.4680  145.5610 C   0  0  0  0  0  0  0  0  0  0  0  0
  184.1030  178.7710  144.5380 C   0  0  0  0  0  3  0  0  0  0  0  0
  185.9310  177.8380  143.2500 C   0  0  0  0  0  3  0  0  0  0  0  0
  184.5910  178.2500  143.3340 C   0  0  0  0  0  0  0  0  0  0  0  0
  182.2210  178.6490  137.1250 N   0  0  0  0  0  2  0  0  0  0  0  0
  179.3860  176.2060  136.4650 N   0  0  0  0  0  0  0  0  0  0  0  0
  181.7670  176.4430  137.8880 C   0  0  0  0  0  3  0  0  0  0  0  0
  179.8410  175.1040  137.2570 C   0  0  0  0  0  3  0  0  0  0  0  0
  180.2400  177.3550  136.1600 C   0  0  0  0  0  3  0  0  0  0  0  0
  181.4150  177.4680  137.1050 C   0  0  0  0  0  0  0  0  0  0  0  0
  180.9830  175.2000  137.9330 C   0  0  0  0  0  3  0  0  0  0  0  0
  1 14  1  6  0  0  0
  1 16  1  0  0  0  0
  1 11  1  0  0  0  0
  2  7  1  0  0  0  0
  3  2  1  1  0  0  0
  3 13  1  0  0  0  0
  4  6  1  0  0  0  0
  5 10  1  0  0  0  0
  7  9  1  0  0  0  0
  8  3  1  0  0  0  0
 10 15  1  0  0  0  0
 11  8  1  1  0  0  0
 12  5  1  0  0  0  0
 13  4  1  6  0  0  0
 13  9  1  0  0  0  0
 15  6  1  0  0  0  0
 15 23  1  1  0  0  0
 16 24  1  6  0  0  0
 16 11  1  0  0  0  0
 16 12  1  0  0  0  0
 19 20  2  0  0  0  0
 20 18  1  0  0  0  0
 20 17  1  0  0  0  0
 21 18  2  0  0  0  0
 22 23  2  0  0  0  0
 22 19  1  0  0  0  0
 23 21  1  0  0  0  0
 25 27  1  0  0  0  0
 26 30  1  0  0  0  0
 27 30  2  0  0  0  0
 28 25  2  0  0  0  0
 28 29  1  0  0  0  0
 29 24  1  0  0  0  0
 29 26  2  0  0  0  0
M  END
>  <MODEL>
4

>  <REMARK>
 VINA RESULT:      -7.2      4.168      8.559
  Name = 
  3 active torsions:
  status: ('A' for Active; 'I' for Inactive)
    1  A    between atoms: N_14  and  C_17
    2  A    between atoms: N_14  and  C_29
    3  A    between atoms: C_28  and  C_30
                            x       y       z     vdW  Elec       q    Type
                         _______ _______ _______ _____ _____    ______ ____

>  <TORSDO>
F 3

$$$$
=
 OpenBabel11062413293D

 30 34  0  0  1  0  0  0  0  0999 V2000
  189.2110  176.1330  143.4820 C   0  0  2  0  0  3  0  0  0  0  0  0
  187.8680  177.1940  147.2660 C   0  0  0  0  0  2  0  0  0  0  0  0
  187.8780  178.0870  146.0450 C   0  0  1  0  0  3  0  0  0  0  0  0
  185.9740  179.5170  145.0430 C   0  0  0  0  0  2  0  0  0  0  0  0
  186.6170  178.3940  142.0330 O   0  0  0  0  0  0  0  0  0  0  0  0
  185.0060  178.4840  144.4790 C   0  0  0  0  0  2  0  0  0  0  0  0
  186.4980  177.1280  147.7660 N   0  0  0  0  0  2  0  0  0  0  0  0
  187.6870  177.3050  144.9000 O   0  0  0  0  0  0  0  0  0  0  0  0
  185.8200  178.3380  147.3110 C   0  0  0  0  0  2  0  0  0  0  0  0
  185.2470  178.1310  142.0090 C   0  0  0  0  0  2  0  0  0  0  0  0
  188.8730  177.4540  144.1710 C   0  0  2  0  0  3  0  0  0  0  0  0
  187.2110  177.1390  142.1740 C   0  0  0  0  0  2  0  0  0  0  0  0
  186.7120  179.0250  146.2940 C   0  0  1  0  0  3  0  0  0  0  0  0
  190.7230  176.0050  143.3750 C   0  0  0  0  0  1  0  0  0  0  0  0
  184.5340  178.9210  143.1000 C   0  0  1  0  0  3  0  0  0  0  0  0
  188.6410  177.2930  142.6780 C   0  0  2  0  0  0  0  0  0  0  0  0
  178.9370  178.3500  142.5570 F   0  0  0  0  0  0  0  0  0  0  0  0
  181.1000  178.4870  141.5650 C   0  0  0  0  0  3  0  0  0  0  0  0
  180.8380  178.6280  143.9680 C   0  0  0  0  0  3  0  0  0  0  0  0
  180.2770  178.4870  142.6950 C   0  0  0  0  0  0  0  0  0  0  0  0
  182.4840  178.6290  141.7060 C   0  0  0  0  0  3  0  0  0  0  0  0
  182.2210  178.7700  144.1110 C   0  0  0  0  0  3  0  0  0  0  0  0
  183.0510  178.7700  142.9780 C   0  0  0  0  0  0  0  0  0  0  0  0
  189.5750  178.0580  141.8540 N   0  0  0  0  0  2  0  0  0  0  0  0
  189.1220  178.0810  138.0800 N   0  0  0  0  0  0  0  0  0  0  0  0
  190.7060  176.9580  140.0750 C   0  0  0  0  0  3  0  0  0  0  0  0
  190.1860  177.1960  137.7140 C   0  0  0  0  0  3  0  0  0  0  0  0
  188.9890  178.6270  139.4320 C   0  0  0  0  0  3  0  0  0  0  0  0
  189.7700  177.8320  140.4550 C   0  0  0  0  0  0  0  0  0  0  0  0
  190.9570  176.6620  138.6570 C   0  0  0  0  0  3  0  0  0  0  0  0
  1 14  1  6  0  0  0
  1 11  1  0  0  0  0
  2  7  1  0  0  0  0
  3 13  1  0  0  0  0
  3  2  1  1  0  0  0
  5 12  1  0  0  0  0
  6  4  1  0  0  0  0
  8  3  1  0  0  0  0
  9  7  1  0  0  0  0
 10  5  1  0  0  0  0
 10 15  1  0  0  0  0
 11  8  1  1  0  0  0
 12 16  1  0  0  0  0
 13  4  1  6  0  0  0
 13  9  1  0  0  0  0
 15 23  1  1  0  0  0
 15  6  1  0  0  0  0
 16 24  1  6  0  0  0
 16  1  1  0  0  0  0
 16 11  1  0  0  0  0
 17 20  1  0  0  0  0
 18 21  2  0  0  0  0
 18 20  1  0  0  0  0
 19 22  1  0  0  0  0
 20 19  2  0  0  0  0
 21 23  1  0  0  0  0
 23 22  2  0  0  0  0
 25 28  1  0  0  0  0
 26 29  1  0  0  0  0
 27 25  2  0  0  0  0
 27 30  1  0  0  0  0
 28 29  2  0  0  0  0
 29 24  1  0  0  0  0
 30 26  2  0  0  0  0
M  END
>  <MODEL>
5

>  <REMARK>
 VINA RESULT:      -7.2      3.114      6.601
  Name = 
  3 active torsions:
  status: ('A' for Active; 'I' for Inactive)
    1  A    between atoms: N_14  and  C_17
    2  A    between atoms: N_14  and  C_29
    3  A    between atoms: C_28  and  C_30
                            x       y       z     vdW  Elec       q    Type
                         _______ _______ _______ _____ _____    ______ ____

>  <TORSDO>
F 3

$$$$
=
 OpenBabel11062413293D

 30 34  0  0  1  0  0  0  0  0999 V2000
  189.4340  178.2540  139.5270 C   0  0  2  0  0  3  0  0  0  0  0  0
  187.8510  177.1750  135.8420 C   0  0  0  0  0  2  0  0  0  0  0  0
  187.3420  176.7250  137.1930 C   0  0  1  0  0  3  0  0  0  0  0  0
  184.9370  176.7670  138.1370 C   0  0  0  0  0  2  0  0  0  0  0  0
  185.9870  178.0740  140.9520 O   0  0  0  0  0  0  0  0  0  0  0  0
  184.6580  178.2500  138.3470 C   0  0  0  0  0  2  0  0  0  0  0  0
  186.7480  177.8180  135.1340 N   0  0  0  0  0  2  0  0  0  0  0  0
  187.5650  177.7390  138.1320 O   0  0  0  0  0  0  0  0  0  0  0  0
  185.5120  177.2790  135.6940 C   0  0  0  0  0  2  0  0  0  0  0  0
  184.9720  179.0030  140.7160 C   0  0  0  0  0  2  0  0  0  0  0  0
  188.4610  177.1770  139.0490 C   0  0  2  0  0  3  0  0  0  0  0  0
  187.1660  178.7670  140.6750 C   0  0  0  0  0  2  0  0  0  0  0  0
  185.8630  176.4950  136.9450 C   0  0  1  0  0  3  0  0  0  0  0  0
  190.7730  177.6050  139.8390 C   0  0  0  0  0  1  0  0  0  0  0  0
  183.9820  178.4610  139.6930 C   0  0  1  0  0  3  0  0  0  0  0  0
  188.3040  177.7830  140.4330 C   0  0  2  0  0  0  0  0  0  0  0  0
  179.5060  181.8820  139.2250 F   0  0  0  0  0  0  0  0  0  0  0  0
  180.5320  179.9480  140.1680 C   0  0  0  0  0  3  0  0  0  0  0  0
  181.7460  181.3460  138.6080 C   0  0  0  0  0  3  0  0  0  0  0  0
  180.5830  181.0670  139.3320 C   0  0  0  0  0  0  0  0  0  0  0  0
  181.6420  179.1050  140.2790 C   0  0  0  0  0  3  0  0  0  0  0  0
  182.8570  180.5050  138.7180 C   0  0  0  0  0  3  0  0  0  0  0  0
  182.8090  179.3790  139.5560 C   0  0  0  0  0  0  0  0  0  0  0  0
  188.6550  176.8680  141.5180 N   0  0  0  0  0  2  0  0  0  0  0  0
  189.9010  178.2510  144.8310 N   0  0  0  0  0  0  0  0  0  0  0  0
  187.7720  176.8360  143.7250 C   0  0  0  0  0  3  0  0  0  0  0  0
  188.8150  177.8470  145.6730 C   0  0  0  0  0  3  0  0  0  0  0  0
  189.8240  178.1820  143.3710 C   0  0  0  0  0  3  0  0  0  0  0  0
  188.7300  177.2550  142.8930 C   0  0  0  0  0  0  0  0  0  0  0  0
  187.7870  177.1810  145.1550 C   0  0  0  0  0  3  0  0  0  0  0  0
  1 14  1  1  0  0  0
  1 16  1  0  0  0  0
  3  2  1  6  0  0  0
  3  8  1  0  0  0  0
  4  6  1  0  0  0  0
  6 15  1  0  0  0  0
  7  9  1  0  0  0  0
  7  2  1  0  0  0  0
 10  5  1  0  0  0  0
 11  8  1  6  0  0  0
 11  1  1  0  0  0  0
 11 16  1  0  0  0  0
 12  5  1  0  0  0  0
 13  9  1  6  0  0  0
 13  3  1  0  0  0  0
 13  4  1  0  0  0  0
 15 23  1  6  0  0  0
 15 10  1  0  0  0  0
 16 12  1  0  0  0  0
 16 24  1  1  0  0  0
 17 20  1  0  0  0  0
 18 21  1  0  0  0  0
 19 22  2  0  0  0  0
 19 20  1  0  0  0  0
 20 18  2  0  0  0  0
 22 23  1  0  0  0  0
 23 21  2  0  0  0  0
 24 29  1  0  0  0  0
 25 27  1  0  0  0  0
 26 30  1  0  0  0  0
 28 25  2  0  0  0  0
 29 28  1  0  0  0  0
 29 26  2  0  0  0  0
 30 27  2  0  0  0  0
M  END
>  <MODEL>
6

>  <REMARK>
 VINA RESULT:      -7.2      1.873      2.397
  Name = 
  3 active torsions:
  status: ('A' for Active; 'I' for Inactive)
    1  A    between atoms: N_14  and  C_17
    2  A    between atoms: N_14  and  C_29
    3  A    between atoms: C_28  and  C_30
                            x       y       z     vdW  Elec       q    Type
                         _______ _______ _______ _____ _____    ______ ____

>  <TORSDO>
F 3

$$$$
=
 OpenBabel11062413293D

 30 34  0  0  1  0  0  0  0  0999 V2000
  187.1600  176.7480  145.1860 C   0  0  2  0  0  3  0  0  0  0  0  0
  184.4320  178.5370  142.6150 C   0  0  0  0  0  2  0  0  0  0  0  0
  185.9000  178.8830  142.7330 C   0  0  1  0  0  3  0  0  0  0  0  0
  187.6870  179.1050  140.8810 C   0  0  0  0  0  2  0  0  0  0  0  0
  189.8030  177.2910  142.6050 O   0  0  0  0  0  0  0  0  0  0  0  0
  187.8980  177.6710  140.4100 C   0  0  0  0  0  2  0  0  0  0  0  0
  184.1630  178.1780  141.2270 N   0  0  0  0  0  2  0  0  0  0  0  0
  186.6190  177.7340  143.0790 O   0  0  0  0  0  0  0  0  0  0  0  0
  185.1840  178.8300  140.4130 C   0  0  0  0  0  2  0  0  0  0  0  0
  189.9180  176.5760  141.4120 C   0  0  0  0  0  2  0  0  0  0  0  0
  187.1560  178.0200  144.3400 C   0  0  2  0  0  3  0  0  0  0  0  0
  189.0550  176.4600  143.4400 C   0  0  0  0  0  2  0  0  0  0  0  0
  186.2500  179.3780  141.3430 C   0  0  1  0  0  3  0  0  0  0  0  0
  186.9750  177.1280  146.6470 C   0  0  0  0  0  1  0  0  0  0  0  0
  189.3850  177.3980  140.2440 C   0  0  1  0  0  3  0  0  0  0  0  0
  188.4560  177.2720  144.5810 C   0  0  2  0  0  0  0  0  0  0  0  0
  190.3210  174.8010  135.3120 F   0  0  0  0  0  0  0  0  0  0  0  0
  188.9050  176.1040  136.7180 C   0  0  0  0  0  3  0  0  0  0  0  0
  191.0800  175.3790  137.4960 C   0  0  0  0  0  3  0  0  0  0  0  0
  190.1040  175.4210  136.4960 C   0  0  0  0  0  0  0  0  0  0  0  0
  188.6790  176.7440  137.9410 C   0  0  0  0  0  3  0  0  0  0  0  0
  190.8570  176.0190  138.7190 C   0  0  0  0  0  3  0  0  0  0  0  0
  189.6530  176.7060  138.9460 C   0  0  0  0  0  0  0  0  0  0  0  0
  189.3760  177.9700  145.4770 N   0  0  0  0  0  2  0  0  0  0  0  0
  191.6790  177.0470  148.3560 N   0  0  0  0  0  0  0  0  0  0  0  0
  191.1280  176.3790  145.7100 C   0  0  0  0  0  3  0  0  0  0  0  0
  192.4290  176.0030  147.7270 C   0  0  0  0  0  3  0  0  0  0  0  0
  190.4630  177.6050  147.7600 C   0  0  0  0  0  3  0  0  0  0  0  0
  190.3580  177.3100  146.2810 C   0  0  0  0  0  0  0  0  0  0  0  0
  192.1680  175.6660  146.4670 C   0  0  0  0  0  3  0  0  0  0  0  0
  1 14  1  1  0  0  0
  3  2  1  6  0  0  0
  3  8  1  0  0  0  0
  4 13  1  0  0  0  0
  5 12  1  0  0  0  0
  6  4  1  0  0  0  0
  7  2  1  0  0  0  0
  9  7  1  0  0  0  0
 10  5  1  0  0  0  0
 11  8  1  6  0  0  0
 11 16  1  0  0  0  0
 11  1  1  0  0  0  0
 12 16  1  0  0  0  0
 13  9  1  6  0  0  0
 13  3  1  0  0  0  0
 15 23  1  6  0  0  0
 15  6  1  0  0  0  0
 15 10  1  0  0  0  0
 16  1  1  0  0  0  0
 16 24  1  1  0  0  0
 17 20  1  0  0  0  0
 18 21  1  0  0  0  0
 19 22  2  0  0  0  0
 20 18  2  0  0  0  0
 20 19  1  0  0  0  0
 21 23  2  0  0  0  0
 22 23  1  0  0  0  0
 24 29  1  0  0  0  0
 26 29  1  0  0  0  0
 26 30  2  0  0  0  0
 27 25  2  0  0  0  0
 28 25  1  0  0  0  0
 29 28  2  0  0  0  0
 30 27  1  0  0  0  0
M  END
>  <MODEL>
7

>  <REMARK>
 VINA RESULT:      -7.1      3.881      6.636
  Name = 
  3 active torsions:
  status: ('A' for Active; 'I' for Inactive)
    1  A    between atoms: N_14  and  C_17
    2  A    between atoms: N_14  and  C_29
    3  A    between atoms: C_28  and  C_30
                            x       y       z     vdW  Elec       q    Type
                         _______ _______ _______ _____ _____    ______ ____

>  <TORSDO>
F 3

$$$$
=
 OpenBabel11062413293D

 30 34  0  0  1  0  0  0  0  0999 V2000
  187.4480  176.9440  143.1070 C   0  0  2  0  0  3  0  0  0  0  0  0
  185.6890  178.2010  139.5610 C   0  0  0  0  0  2  0  0  0  0  0  0
  187.0420  178.6300  140.0810 C   0  0  1  0  0  3  0  0  0  0  0  0
  189.3280  178.6610  138.8780 C   0  0  0  0  0  2  0  0  0  0  0  0
  190.7780  177.2250  141.4410 O   0  0  0  0  0  0  0  0  0  0  0  0
  189.6760  177.1850  138.7270 C   0  0  0  0  0  2  0  0  0  0  0  0
  185.8760  177.6280  138.2320 N   0  0  0  0  0  2  0  0  0  0  0  0
  187.6110  177.5800  140.8100 O   0  0  0  0  0  0  0  0  0  0  0  0
  187.1050  178.2000  137.6910 C   0  0  0  0  0  2  0  0  0  0  0  0
  191.2670  176.3480  140.4720 C   0  0  0  0  0  2  0  0  0  0  0  0
  187.7170  178.0750  142.1150 C   0  0  2  0  0  3  0  0  0  0  0  0
  189.8010  176.4910  142.1150 C   0  0  0  0  0  2  0  0  0  0  0  0
  187.8190  178.9300  138.8130 C   0  0  1  0  0  3  0  0  0  0  0  0
  186.8060  177.5250  144.3560 C   0  0  0  0  0  1  0  0  0  0  0  0
  191.1370  176.9620  139.0840 C   0  0  1  0  0  3  0  0  0  0  0  0
  188.8700  177.4330  142.8690 C   0  0  2  0  0  0  0  0  0  0  0  0
  193.7310  173.7180  135.2500 F   0  0  0  0  0  0  0  0  0  0  0  0
  193.8380  175.1140  137.1790 C   0  0  0  0  0  3  0  0  0  0  0  0
  191.7170  174.6740  136.0960 C   0  0  0  0  0  3  0  0  0  0  0  0
  193.1020  174.4930  136.1650 C   0  0  0  0  0  0  0  0  0  0  0  0
  193.1910  175.9150  138.1240 C   0  0  0  0  0  3  0  0  0  0  0  0
  191.0690  175.4740  137.0400 C   0  0  0  0  0  3  0  0  0  0  0  0
  191.8040  176.0990  138.0610 C   0  0  0  0  0  0  0  0  0  0  0  0
  189.4570  178.3000  143.8890 N   0  0  0  0  0  2  0  0  0  0  0  0
  192.0460  176.7810  146.2210 N   0  0  0  0  0  0  0  0  0  0  0  0
  189.4190  177.7030  146.1910 C   0  0  0  0  0  3  0  0  0  0  0  0
  191.2790  176.7520  147.4300 C   0  0  0  0  0  3  0  0  0  0  0  0
  191.6030  177.5110  145.0330 C   0  0  0  0  0  3  0  0  0  0  0  0
  190.1210  177.8140  145.0590 C   0  0  0  0  0  0  0  0  0  0  0  0
  190.0260  177.2000  147.4320 C   0  0  0  0  0  3  0  0  0  0  0  0
  1 14  1  1  0  0  0
  3  2  1  6  0  0  0
  3  8  1  0  0  0  0
  5 12  1  0  0  0  0
  6  4  1  0  0  0  0
  6 15  1  0  0  0  0
  7  2  1  0  0  0  0
  9  7  1  0  0  0  0
 10  5  1  0  0  0  0
 11  8  1  6  0  0  0
 11 16  1  0  0  0  0
 11  1  1  0  0  0  0
 12 16  1  0  0  0  0
 13  9  1  6  0  0  0
 13  4  1  0  0  0  0
 13  3  1  0  0  0  0
 15 23  1  6  0  0  0
 15 10  1  0  0  0  0
 16  1  1  0  0  0  0
 16 24  1  1  0  0  0
 17 20  1  0  0  0  0
 18 21  1  0  0  0  0
 19 20  1  0  0  0  0
 19 22  2  0  0  0  0
 20 18  2  0  0  0  0
 22 23  1  0  0  0  0
 23 21  2  0  0  0  0
 24 29  1  0  0  0  0
 25 27  1  0  0  0  0
 26 30  1  0  0  0  0
 27 30  2  0  0  0  0
 28 29  1  0  0  0  0
 28 25  2  0  0  0  0
 29 26  2  0  0  0  0
M  END
>  <MODEL>
8

>  <REMARK>
 VINA RESULT:      -6.7      4.336      7.302
  Name = 
  3 active torsions:
  status: ('A' for Active; 'I' for Inactive)
    1  A    between atoms: N_14  and  C_17
    2  A    between atoms: N_14  and  C_29
    3  A    between atoms: C_28  and  C_30
                            x       y       z     vdW  Elec       q    Type
                         _______ _______ _______ _____ _____    ______ ____

>  <TORSDO>
F 3

$$$$
=
 OpenBabel11062413293D

 30 34  0  0  1  0  0  0  0  0999 V2000
  186.9860  176.7210  146.1280 C   0  0  2  0  0  3  0  0  0  0  0  0
  183.4570  178.7940  145.4200 C   0  0  0  0  0  2  0  0  0  0  0  0
  184.8420  179.2280  144.9940 C   0  0  1  0  0  3  0  0  0  0  0  0
  185.6790  179.9970  142.6750 C   0  0  0  0  0  2  0  0  0  0  0  0
  188.2940  178.0340  142.8860 O   0  0  0  0  0  0  0  0  0  0  0  0
  185.6460  178.7240  141.8380 C   0  0  0  0  0  2  0  0  0  0  0  0
  182.6180  178.7260  144.2280 N   0  0  0  0  0  2  0  0  0  0  0  0
  185.6200  178.0950  144.7300 O   0  0  0  0  0  0  0  0  0  0  0  0
  183.2090  179.6230  143.2400 C   0  0  0  0  0  2  0  0  0  0  0  0
  187.8800  177.6090  141.6230 C   0  0  0  0  0  2  0  0  0  0  0  0
  186.6460  178.1420  145.6820 C   0  0  2  0  0  3  0  0  0  0  0  0
  187.9560  176.9810  143.7370 C   0  0  0  0  0  2  0  0  0  0  0  0
  184.5790  180.0420  143.7420 C   0  0  1  0  0  3  0  0  0  0  0  0
  187.4430  176.7540  147.5770 C   0  0  0  0  0  1  0  0  0  0  0  0
  186.9180  178.6200  141.0100 C   0  0  1  0  0  3  0  0  0  0  0  0
  187.9120  177.4700  145.1790 C   0  0  2  0  0  0  0  0  0  0  0  0
  185.7870  177.2250  135.6510 F   0  0  0  0  0  0  0  0  0  0  0  0
  187.3660  177.5440  137.4070 C   0  0  0  0  0  3  0  0  0  0  0  0
  185.0050  177.9210  137.7920 C   0  0  0  0  0  3  0  0  0  0  0  0
  186.0500  177.5600  136.9360 C   0  0  0  0  0  0  0  0  0  0  0  0
  187.6390  177.8900  138.7340 C   0  0  0  0  0  3  0  0  0  0  0  0
  185.2760  178.2670  139.1190 C   0  0  0  0  0  3  0  0  0  0  0  0
  186.5980  178.2530  139.5960 C   0  0  0  0  0  0  0  0  0  0  0  0
  189.1370  178.0300  145.7460 N   0  0  0  0  0  2  0  0  0  0  0  0
  192.0970  175.6530  145.5750 N   0  0  0  0  0  0  0  0  0  0  0  0
  190.6040  177.1410  147.3930 C   0  0  0  0  0  3  0  0  0  0  0  0
  192.4550  175.6280  146.9610 C   0  0  0  0  0  3  0  0  0  0  0  0
  191.1470  176.6240  145.0300 C   0  0  0  0  0  3  0  0  0  0  0  0
  190.2800  177.2470  146.1010 C   0  0  0  0  0  0  0  0  0  0  0  0
  191.7570  176.3440  147.8380 C   0  0  0  0  0  3  0  0  0  0  0  0
  1 14  1  1  0  0  0
  3  2  1  6  0  0  0
  5 12  1  0  0  0  0
  6  4  1  0  0  0  0
  7  2  1  0  0  0  0
  8  3  1  0  0  0  0
  9 13  1  0  0  0  0
  9  7  1  0  0  0  0
 10  5  1  0  0  0  0
 11  8  1  6  0  0  0
 11  1  1  0  0  0  0
 12 16  1  0  0  0  0
 13  4  1  6  0  0  0
 13  3  1  0  0  0  0
 15 23  1  6  0  0  0
 15 10  1  0  0  0  0
 15  6  1  0  0  0  0
 16 11  1  0  0  0  0
 16 24  1  1  0  0  0
 16  1  1  0  0  0  0
 17 20  1  0  0  0  0
 18 21  1  0  0  0  0
 19 22  2  0  0  0  0
 20 18  2  0  0  0  0
 20 19  1  0  0  0  0
 21 23  2  0  0  0  0
 22 23  1  0  0  0  0
 24 29  1  0  0  0  0
 25 27  1  0  0  0  0
 26 30  1  0  0  0  0
 27 30  2  0  0  0  0
 28 25  2  0  0  0  0
 28 29  1  0  0  0  0
 29 26  2  0  0  0  0
M  END
>  <MODEL>
9

>  <REMARK>
 VINA RESULT:      -6.6      3.346      5.946
  Name = 
  3 active torsions:
  status: ('A' for Active; 'I' for Inactive)
    1  A    between atoms: N_14  and  C_17
    2  A    between atoms: N_14  and  C_29
    3  A    between atoms: C_28  and  C_30
                            x       y       z     vdW  Elec       q    Type
                         _______ _______ _______ _____ _____    ______ ____

>  <TORSDO>
F 3

$$$$
