=
 OpenBabel11062416213D

 29 31  0  0  1  0  0  0  0  0999 V2000
  187.3560  178.1430  148.0410 N   0  0  0  0  0  0  0  0  0  0  0  0
  187.4610  177.5130  143.1960 N   0  0  0  0  0  0  0  0  0  0  0  0
  188.6760  177.8380  148.0950 C   0  0  0  0  0  3  0  0  0  0  0  0
  189.3950  177.2190  144.5200 N   0  0  0  0  0  2  0  0  0  0  0  0
  188.6860  177.5390  145.7140 C   0  0  0  0  0  0  0  0  0  0  0  0
  189.3660  177.5300  146.9300 C   0  0  0  0  0  3  0  0  0  0  0  0
  186.6900  177.8430  144.3290 N   0  0  0  0  0  0  0  0  0  0  0  0
  187.3160  177.8570  145.6490 C   0  0  0  0  0  0  0  0  0  0  0  0
  188.7240  177.2180  143.2600 C   0  0  0  0  0  0  0  0  0  0  0  0
  186.6570  178.1630  146.8740 C   0  0  0  0  0  0  0  0  0  0  0  0
  185.2760  178.4920  146.9400 N   0  0  0  0  0  1  0  0  0  0  0  0
  182.8890  179.2470  142.9500 C   0  0  0  0  0  3  0  0  0  0  0  0
  183.5360  178.3210  142.2240 C   0  0  0  0  0  3  0  0  0  0  0  0
  183.3970  179.7350  144.2820 C   0  0  0  0  0  2  0  0  0  0  0  0
  184.8750  177.7490  142.6190 C   0  0  0  0  0  2  0  0  0  0  0  0
  184.9090  179.5870  144.4030 C   0  0  0  0  0  2  0  0  0  0  0  0
  185.2920  178.1560  144.0350 C   0  0  2  0  0  3  0  0  0  0  0  0
  190.3160  175.9520  142.0560 O   0  0  0  0  0  0  0  0  0  0  0  0
  189.8560  177.4060  139.5730 C   0  0  0  0  0  0  0  0  0  0  0  0
  189.5560  178.1470  138.6000 O   0  0  0  0  0  0  0  0  0  0  0  0
  189.4670  176.8840  142.0380 C   0  0  0  0  0  0  0  0  0  0  0  0
  190.8190  176.3590  139.4080 N   0  0  0  0  0  2  0  0  0  0  0  0
  189.2180  177.6250  140.8360 N   0  0  0  0  0  2  0  0  0  0  0  0
  191.5280  176.1310  138.1560 C   0  0  0  0  0  2  0  0  0  0  0  0
  193.0200  176.3980  138.3220 C   0  0  0  0  0  2  0  0  0  0  0  0
  193.0930  174.0780  137.8650 F   0  0  0  0  0  0  0  0  0  0  0  0
  193.8730  175.2170  137.8700 C   0  0  0  0  0  0  0  0  0  0  0  0
  194.9320  175.0350  138.7410 F   0  0  0  0  0  0  0  0  0  0  0  0
  194.3580  175.4350  136.5930 F   0  0  0  0  0  0  0  0  0  0  0  0
  1  3  1  0  0  0  0
  2  9  2  0  0  0  0
  2  7  1  0  0  0  0
  4  5  1  0  0  0  0
  5  6  1  0  0  0  0
  6  3  2  0  0  0  0
  7  8  1  0  0  0  0
  8  5  2  0  0  0  0
  8 10  1  0  0  0  0
  9  4  1  0  0  0  0
 10 11  1  0  0  0  0
 10  1  2  0  0  0  0
 12 14  1  0  0  0  0
 13 15  1  0  0  0  0
 13 12  2  0  0  0  0
 14 16  1  0  0  0  0
 17 15  1  6  0  0  0
 17  7  1  0  0  0  0
 17 16  1  0  0  0  0
 19 23  1  0  0  0  0
 20 19  2  0  0  0  0
 21 18  2  0  0  0  0
 21  9  1  0  0  0  0
 22 19  1  0  0  0  0
 23 21  1  0  0  0  0
 24 25  1  0  0  0  0
 24 22  1  0  0  0  0
 26 27  1  0  0  0  0
 27 25  1  0  0  0  0
 27 28  1  0  0  0  0
 29 27  1  0  0  0  0
M  END
>  <MODEL>
1

>  <REMARK>
 VINA RESULT:      -8.7      0.000      0.000
  Name = 
  5 active torsions:
  status: ('A' for Active; 'I' for Inactive)
    1  A    between atoms: C_5  and  C_15
    2  A    between atoms: N_14  and  C_23
    3  A    between atoms: C_15  and  C_16
    4  A    between atoms: C_16  and  N_27
    5  A    between atoms: C_19  and  C_26
                            x       y       z     vdW  Elec       q    Type
                         _______ _______ _______ _____ _____    ______ ____

>  <TORSDO>
F 5

$$$$
=
 OpenBabel11062416213D

 29 31  0  0  1  0  0  0  0  0999 V2000
  190.4320  176.6070  147.5620 N   0  0  0  0  0  0  0  0  0  0  0  0
  188.2670  177.6500  143.3060 N   0  0  0  0  0  0  0  0  0  0  0  0
  191.6140  176.4730  146.9110 C   0  0  0  0  0  3  0  0  0  0  0  0
  190.5780  177.1800  143.4320 N   0  0  0  0  0  2  0  0  0  0  0  0
  190.5130  176.9900  144.8420 C   0  0  0  0  0  0  0  0  0  0  0  0
  191.6750  176.6620  145.5370 C   0  0  0  0  0  3  0  0  0  0  0  0
  188.1190  177.4820  144.6990 N   0  0  0  0  0  0  0  0  0  0  0  0
  189.2820  177.1340  145.5110 C   0  0  0  0  0  0  0  0  0  0  0  0
  189.4040  177.5140  142.6930 C   0  0  0  0  0  0  0  0  0  0  0  0
  189.2750  176.9270  146.9190 C   0  0  0  0  0  0  0  0  0  0  0  0
  188.0960  177.0360  147.7040 N   0  0  0  0  0  1  0  0  0  0  0  0
  184.1930  178.7890  145.7930 C   0  0  0  0  0  3  0  0  0  0  0  0
  184.3930  178.3190  144.5510 C   0  0  0  0  0  3  0  0  0  0  0  0
  185.2690  178.7790  146.8480 C   0  0  0  0  0  2  0  0  0  0  0  0
  185.7310  177.8240  144.0600 C   0  0  0  0  0  2  0  0  0  0  0  0
  186.6650  178.7990  146.2370 C   0  0  0  0  0  2  0  0  0  0  0  0
  186.7580  177.6940  145.1890 C   0  0  2  0  0  3  0  0  0  0  0  0
  190.5870  177.5500  140.6470 O   0  0  0  0  0  0  0  0  0  0  0  0
  188.2320  178.2770  139.0940 C   0  0  0  0  0  0  0  0  0  0  0  0
  187.1310  178.6140  138.5820 O   0  0  0  0  0  0  0  0  0  0  0  0
  189.4850  177.7040  141.2390 C   0  0  0  0  0  0  0  0  0  0  0  0
  189.3850  178.1020  138.2640 N   0  0  0  0  0  2  0  0  0  0  0  0
  188.3060  178.0680  140.5080 N   0  0  0  0  0  2  0  0  0  0  0  0
  189.3690  178.3510  136.8280 C   0  0  0  0  0  2  0  0  0  0  0  0
  189.3400  177.0390  136.0520 C   0  0  0  0  0  2  0  0  0  0  0  0
  187.9270  175.7500  134.6600 F   0  0  0  0  0  0  0  0  0  0  0  0
  187.9180  176.5580  135.7790 C   0  0  0  0  0  0  0  0  0  0  0  0
  187.0880  177.6400  135.5470 F   0  0  0  0  0  0  0  0  0  0  0  0
  187.4410  175.8310  136.8540 F   0  0  0  0  0  0  0  0  0  0  0  0
  2  7  1  0  0  0  0
  3  1  2  0  0  0  0
  4  5  1  0  0  0  0
  5  8  1  0  0  0  0
  5  6  2  0  0  0  0
  6  3  1  0  0  0  0
  7 17  1  0  0  0  0
  7  8  1  0  0  0  0
  8 10  2  0  0  0  0
  9  2  2  0  0  0  0
  9  4  1  0  0  0  0
 10  1  1  0  0  0  0
 10 11  1  0  0  0  0
 12 14  1  0  0  0  0
 13 12  2  0  0  0  0
 15 13  1  0  0  0  0
 16 14  1  0  0  0  0
 17 15  1  6  0  0  0
 17 16  1  0  0  0  0
 18 21  2  0  0  0  0
 19 23  1  0  0  0  0
 20 19  2  0  0  0  0
 21  9  1  0  0  0  0
 22 19  1  0  0  0  0
 23 21  1  0  0  0  0
 24 22  1  0  0  0  0
 25 24  1  0  0  0  0
 26 27  1  0  0  0  0
 27 25  1  0  0  0  0
 27 29  1  0  0  0  0
 28 27  1  0  0  0  0
M  END
>  <MODEL>
2

>  <REMARK>
 VINA RESULT:      -8.7      3.008      3.565
  Name = 
  5 active torsions:
  status: ('A' for Active; 'I' for Inactive)
    1  A    between atoms: C_5  and  C_15
    2  A    between atoms: N_14  and  C_23
    3  A    between atoms: C_15  and  C_16
    4  A    between atoms: C_16  and  N_27
    5  A    between atoms: C_19  and  C_26
                            x       y       z     vdW  Elec       q    Type
                         _______ _______ _______ _____ _____    ______ ____

>  <TORSDO>
F 5

$$$$
=
 OpenBabel11062416213D

 29 31  0  0  1  0  0  0  0  0999 V2000
  183.4130  179.0090  145.4050 N   0  0  0  0  0  0  0  0  0  0  0  0
  187.8040  177.6910  143.7140 N   0  0  0  0  0  0  0  0  0  0  0  0
  182.9930  179.1950  144.1290 C   0  0  0  0  0  3  0  0  0  0  0  0
  186.0540  178.3080  142.2530 N   0  0  0  0  0  2  0  0  0  0  0  0
  185.1630  178.5400  143.3400 C   0  0  0  0  0  0  0  0  0  0  0  0
  183.8630  178.9630  143.0720 C   0  0  0  0  0  3  0  0  0  0  0  0
  186.9850  177.8960  144.8430 N   0  0  0  0  0  0  0  0  0  0  0  0
  185.6060  178.3430  144.6610 C   0  0  0  0  0  0  0  0  0  0  0  0
  187.3920  177.8760  142.4960 C   0  0  0  0  0  0  0  0  0  0  0  0
  184.6740  178.5970  145.7080 C   0  0  0  0  0  0  0  0  0  0  0  0
  185.0030  178.4410  147.0810 N   0  0  0  0  0  1  0  0  0  0  0  0
  189.3950  177.6280  148.3690 C   0  0  0  0  0  3  0  0  0  0  0  0
  188.4900  178.6160  148.2810 C   0  0  0  0  0  3  0  0  0  0  0  0
  189.5250  176.5490  147.3240 C   0  0  0  0  0  2  0  0  0  0  0  0
  187.5830  178.8010  147.0900 C   0  0  0  0  0  2  0  0  0  0  0  0
  189.0330  177.0180  145.9590 C   0  0  0  0  0  2  0  0  0  0  0  0
  187.6390  177.6170  146.1200 C   0  0  2  0  0  3  0  0  0  0  0  0
  189.1650  176.7250  141.4360 O   0  0  0  0  0  0  0  0  0  0  0  0
  189.0070  178.3460  139.0200 C   0  0  0  0  0  0  0  0  0  0  0  0
  188.8220  179.1500  138.0680 O   0  0  0  0  0  0  0  0  0  0  0  0
  188.3020  177.6420  141.3670 C   0  0  0  0  0  0  0  0  0  0  0  0
  190.0100  177.3300  138.9160 N   0  0  0  0  0  2  0  0  0  0  0  0
  188.1990  178.4630  140.1960 N   0  0  0  0  0  2  0  0  0  0  0  0
  190.8880  177.2040  137.7610 C   0  0  0  0  0  2  0  0  0  0  0  0
  191.7200  175.9300  137.8490 C   0  0  0  0  0  2  0  0  0  0  0  0
  193.3500  176.9830  139.2030 F   0  0  0  0  0  0  0  0  0  0  0  0
  193.2020  176.2200  138.0610 C   0  0  0  0  0  0  0  0  0  0  0  0
  193.7080  176.9230  136.9820 F   0  0  0  0  0  0  0  0  0  0  0  0
  193.9070  175.0400  138.2160 F   0  0  0  0  0  0  0  0  0  0  0  0
  1 10  1  0  0  0  0
  2  7  1  0  0  0  0
  3  1  2  0  0  0  0
  4  9  1  0  0  0  0
  4  5  1  0  0  0  0
  5  8  1  0  0  0  0
  6  5  2  0  0  0  0
  6  3  1  0  0  0  0
  8  7  1  0  0  0  0
  8 10  2  0  0  0  0
  9  2  2  0  0  0  0
 10 11  1  0  0  0  0
 13 12  2  0  0  0  0
 14 12  1  0  0  0  0
 15 13  1  0  0  0  0
 16 17  1  0  0  0  0
 16 14  1  0  0  0  0
 17  7  1  6  0  0  0
 17 15  1  0  0  0  0
 19 23  1  0  0  0  0
 20 19  2  0  0  0  0
 21 18  2  0  0  0  0
 21  9  1  0  0  0  0
 22 19  1  0  0  0  0
 23 21  1  0  0  0  0
 24 25  1  0  0  0  0
 24 22  1  0  0  0  0
 25 27  1  0  0  0  0
 27 29  1  0  0  0  0
 27 26  1  0  0  0  0
 28 27  1  0  0  0  0
M  END
>  <MODEL>
3

>  <REMARK>
 VINA RESULT:      -8.7      1.291      4.011
  Name = 
  5 active torsions:
  status: ('A' for Active; 'I' for Inactive)
    1  A    between atoms: C_5  and  C_15
    2  A    between atoms: N_14  and  C_23
    3  A    between atoms: C_15  and  C_16
    4  A    between atoms: C_16  and  N_27
    5  A    between atoms: C_19  and  C_26
                            x       y       z     vdW  Elec       q    Type
                         _______ _______ _______ _____ _____    ______ ____

>  <TORSDO>
F 5

$$$$
=
 OpenBabel11062416213D

 29 31  0  0  1  0  0  0  0  0999 V2000
  187.7350  177.7240  136.0690 N   0  0  0  0  0  0  0  0  0  0  0  0
  190.8640  176.3590  139.5660 N   0  0  0  0  0  0  0  0  0  0  0  0
  186.9080  178.2200  137.0220 C   0  0  0  0  0  3  0  0  0  0  0  0
  188.8310  177.4440  140.0840 N   0  0  0  0  0  2  0  0  0  0  0  0
  188.4720  177.5350  138.7090 C   0  0  0  0  0  0  0  0  0  0  0  0
  187.2630  178.1340  138.3620 C   0  0  0  0  0  3  0  0  0  0  0  0
  190.5830  176.4110  138.1850 N   0  0  0  0  0  0  0  0  0  0  0  0
  189.3370  177.0180  137.7250 C   0  0  0  0  0  0  0  0  0  0  0  0
  190.0620  176.8340  140.4700 C   0  0  0  0  0  0  0  0  0  0  0  0
  188.9240  177.1310  136.3670 C   0  0  0  0  0  0  0  0  0  0  0  0
  189.7050  176.6430  135.2850 N   0  0  0  0  0  1  0  0  0  0  0  0
  193.9090  174.4300  136.3600 C   0  0  0  0  0  3  0  0  0  0  0  0
  192.8230  173.7070  136.6760 C   0  0  0  0  0  3  0  0  0  0  0  0
  193.9650  175.9270  136.5260 C   0  0  0  0  0  2  0  0  0  0  0  0
  191.5910  174.3010  137.3140 C   0  0  0  0  0  2  0  0  0  0  0  0
  193.0080  176.4150  137.6070 C   0  0  0  0  0  2  0  0  0  0  0  0
  191.6240  175.8320  137.3370 C   0  0  2  0  0  3  0  0  0  0  0  0
  190.2080  175.6740  142.5260 O   0  0  0  0  0  0  0  0  0  0  0  0
  191.4080  177.9360  143.9180 C   0  0  0  0  0  0  0  0  0  0  0  0
  191.8900  179.0080  144.3700 O   0  0  0  0  0  0  0  0  0  0  0  0
  190.4190  176.7450  141.8920 C   0  0  0  0  0  0  0  0  0  0  0  0
  191.2760  176.7930  144.7710 N   0  0  0  0  0  2  0  0  0  0  0  0
  191.0020  177.8790  142.5460 N   0  0  0  0  0  2  0  0  0  0  0  0
  191.6290  176.8190  146.1840 C   0  0  0  0  0  2  0  0  0  0  0  0
  190.5170  176.2110  147.0310 C   0  0  0  0  0  2  0  0  0  0  0  0
  189.9890  177.9970  148.4900 F   0  0  0  0  0  0  0  0  0  0  0  0
  189.4780  177.2450  147.4510 C   0  0  0  0  0  0  0  0  0  0  0  0
  188.3240  176.6130  147.8780 F   0  0  0  0  0  0  0  0  0  0  0  0
  189.1810  178.0860  146.3930 F   0  0  0  0  0  0  0  0  0  0  0  0
  1 10  2  0  0  0  0
  1  3  1  0  0  0  0
  2  9  2  0  0  0  0
  3  6  2  0  0  0  0
  4  9  1  0  0  0  0
  5  4  1  0  0  0  0
  6  5  1  0  0  0  0
  7  2  1  0  0  0  0
  8  7  1  0  0  0  0
  8  5  2  0  0  0  0
  9 21  1  0  0  0  0
 10  8  1  0  0  0  0
 11 10  1  0  0  0  0
 12 14  1  0  0  0  0
 12 13  2  0  0  0  0
 13 15  1  0  0  0  0
 14 16  1  0  0  0  0
 17 15  1  1  0  0  0
 17 16  1  0  0  0  0
 17  7  1  0  0  0  0
 19 20  2  0  0  0  0
 19 22  1  0  0  0  0
 21 18  2  0  0  0  0
 21 23  1  0  0  0  0
 22 24  1  0  0  0  0
 23 19  1  0  0  0  0
 24 25  1  0  0  0  0
 25 27  1  0  0  0  0
 27 28  1  0  0  0  0
 27 26  1  0  0  0  0
 29 27  1  0  0  0  0
M  END
>  <MODEL>
4

>  <REMARK>
 VINA RESULT:      -8.7      4.957      9.131
  Name = 
  5 active torsions:
  status: ('A' for Active; 'I' for Inactive)
    1  A    between atoms: C_5  and  C_15
    2  A    between atoms: N_14  and  C_23
    3  A    between atoms: C_15  and  C_16
    4  A    between atoms: C_16  and  N_27
    5  A    between atoms: C_19  and  C_26
                            x       y       z     vdW  Elec       q    Type
                         _______ _______ _______ _____ _____    ______ ____

>  <TORSDO>
F 5

$$$$
=
 OpenBabel11062416213D

 29 31  0  0  1  0  0  0  0  0999 V2000
  189.1670  177.8350  147.6140 N   0  0  0  0  0  0  0  0  0  0  0  0
  186.3010  178.1270  143.6670 N   0  0  0  0  0  0  0  0  0  0  0  0
  188.0840  178.0560  148.4000 C   0  0  0  0  0  3  0  0  0  0  0  0
  185.4280  178.3840  145.8470 N   0  0  0  0  0  2  0  0  0  0  0  0
  186.7110  178.1920  146.4360 C   0  0  0  0  0  0  0  0  0  0  0  0
  186.8340  178.2390  147.8230 C   0  0  0  0  0  3  0  0  0  0  0  0
  187.6020  177.9250  144.1710 N   0  0  0  0  0  0  0  0  0  0  0  0
  187.8300  177.9600  145.6130 C   0  0  0  0  0  0  0  0  0  0  0  0
  185.2710  178.3430  144.4290 C   0  0  0  0  0  0  0  0  0  0  0  0
  189.0880  177.7810  146.2570 C   0  0  0  0  0  0  0  0  0  0  0  0
  190.2900  177.5480  145.5370 N   0  0  0  0  0  1  0  0  0  0  0  0
  190.0060  176.8390  140.8010 C   0  0  0  0  0  3  0  0  0  0  0  0
  189.1680  177.8820  140.6850 C   0  0  0  0  0  3  0  0  0  0  0  0
  190.2110  176.1020  142.1000 C   0  0  0  0  0  2  0  0  0  0  0  0
  188.2810  178.3580  141.8090 C   0  0  0  0  0  2  0  0  0  0  0  0
  188.9970  176.2140  143.0140 C   0  0  0  0  0  2  0  0  0  0  0  0
  188.6140  177.6850  143.1440 C   0  0  2  0  0  3  0  0  0  0  0  0
  182.9450  178.7350  144.5810 O   0  0  0  0  0  0  0  0  0  0  0  0
  182.5730  178.7120  141.6910 C   0  0  0  0  0  0  0  0  0  0  0  0
  182.5850  178.6460  140.4330 O   0  0  0  0  0  0  0  0  0  0  0  0
  183.9440  178.5460  143.8340 C   0  0  0  0  0  0  0  0  0  0  0  0
  181.3490  178.9790  142.3840 N   0  0  0  0  0  2  0  0  0  0  0  0
  183.7970  178.5220  142.4080 N   0  0  0  0  0  2  0  0  0  0  0  0
  180.0730  179.1310  141.6990 C   0  0  0  0  0  2  0  0  0  0  0  0
  179.6690  180.6000  141.6260 C   0  0  0  0  0  2  0  0  0  0  0  0
  178.9330  180.2070  139.4120 F   0  0  0  0  0  0  0  0  0  0  0  0
  179.6210  181.1170  140.1920 C   0  0  0  0  0  0  0  0  0  0  0  0
  180.9040  181.2580  139.6940 F   0  0  0  0  0  0  0  0  0  0  0  0
  178.9680  182.3350  140.1410 F   0  0  0  0  0  0  0  0  0  0  0  0
  1  3  1  0  0  0  0
  2  7  1  0  0  0  0
  2  9  2  0  0  0  0
  4  5  1  0  0  0  0
  5  6  1  0  0  0  0
  6  3  2  0  0  0  0
  7  8  1  0  0  0  0
  8 10  1  0  0  0  0
  8  5  2  0  0  0  0
  9  4  1  0  0  0  0
 10  1  2  0  0  0  0
 11 10  1  0  0  0  0
 12 14  1  0  0  0  0
 13 12  2  0  0  0  0
 13 15  1  0  0  0  0
 14 16  1  0  0  0  0
 16 17  1  0  0  0  0
 17 15  1  6  0  0  0
 17  7  1  0  0  0  0
 19 22  1  0  0  0  0
 19 23  1  0  0  0  0
 20 19  2  0  0  0  0
 21  9  1  0  0  0  0
 21 18  2  0  0  0  0
 23 21  1  0  0  0  0
 24 22  1  0  0  0  0
 25 24  1  0  0  0  0
 26 27  1  0  0  0  0
 27 25  1  0  0  0  0
 28 27  1  0  0  0  0
 29 27  1  0  0  0  0
M  END
>  <MODEL>
5

>  <REMARK>
 VINA RESULT:      -8.6      5.732      8.373
  Name = 
  5 active torsions:
  status: ('A' for Active; 'I' for Inactive)
    1  A    between atoms: C_5  and  C_15
    2  A    between atoms: N_14  and  C_23
    3  A    between atoms: C_15  and  C_16
    4  A    between atoms: C_16  and  N_27
    5  A    between atoms: C_19  and  C_26
                            x       y       z     vdW  Elec       q    Type
                         _______ _______ _______ _____ _____    ______ ____

>  <TORSDO>
F 5

$$$$
=
 OpenBabel11062416213D

 29 31  0  0  1  0  0  0  0  0999 V2000
  184.9710  179.2760  140.2100 N   0  0  0  0  0  0  0  0  0  0  0  0
  189.3800  177.2350  140.7370 N   0  0  0  0  0  0  0  0  0  0  0  0
  185.0400  179.0470  138.8750 C   0  0  0  0  0  3  0  0  0  0  0  0
  188.3520  177.4210  138.6190 N   0  0  0  0  0  2  0  0  0  0  0  0
  187.2030  178.0510  139.1770 C   0  0  0  0  0  0  0  0  0  0  0  0
  186.1610  178.4290  138.3340 C   0  0  0  0  0  3  0  0  0  0  0  0
  188.2790  177.8500  141.3670 N   0  0  0  0  0  0  0  0  0  0  0  0
  187.1380  178.2840  140.5640 C   0  0  0  0  0  0  0  0  0  0  0  0
  189.4380  177.0250  139.4570 C   0  0  0  0  0  0  0  0  0  0  0  0
  185.9680  178.9220  141.0660 C   0  0  0  0  0  0  0  0  0  0  0  0
  185.7870  179.2170  142.4440 N   0  0  0  0  0  1  0  0  0  0  0  0
  189.1360  177.6230  145.5540 C   0  0  0  0  0  3  0  0  0  0  0  0
  190.0290  178.2150  144.7450 C   0  0  0  0  0  3  0  0  0  0  0  0
  187.7990  177.1290  145.0650 C   0  0  0  0  0  2  0  0  0  0  0  0
  189.8270  178.3580  143.2570 C   0  0  0  0  0  2  0  0  0  0  0  0
  187.8260  176.7920  143.5790 C   0  0  0  0  0  2  0  0  0  0  0  0
  188.4100  177.9790  142.8180 C   0  0  2  0  0  3  0  0  0  0  0  0
  191.7670  176.8470  139.0930 O   0  0  0  0  0  0  0  0  0  0  0  0
  191.5020  174.4850  137.4080 C   0  0  0  0  0  0  0  0  0  0  0  0
  191.2090  173.4950  136.6870 O   0  0  0  0  0  0  0  0  0  0  0  0
  190.6180  176.3780  138.8680 C   0  0  0  0  0  0  0  0  0  0  0  0
  192.8720  174.8580  137.5930 N   0  0  0  0  0  2  0  0  0  0  0  0
  190.4490  175.2210  138.0390 N   0  0  0  0  0  2  0  0  0  0  0  0
  193.9720  174.1680  136.9330 C   0  0  0  0  0  2  0  0  0  0  0  0
  195.3150  174.6580  137.4640 C   0  0  0  0  0  2  0  0  0  0  0  0
  197.1350  173.4290  138.3430 F   0  0  0  0  0  0  0  0  0  0  0  0
  195.8320  173.7980  138.6120 C   0  0  0  0  0  0  0  0  0  0  0  0
  195.0580  172.6580  138.7370 F   0  0  0  0  0  0  0  0  0  0  0  0
  195.8030  174.5090  139.7980 F   0  0  0  0  0  0  0  0  0  0  0  0
  1 10  1  0  0  0  0
  2  7  1  0  0  0  0
  3  1  2  0  0  0  0
  4  5  1  0  0  0  0
  4  9  1  0  0  0  0
  5  8  1  0  0  0  0
  6  3  1  0  0  0  0
  6  5  2  0  0  0  0
  8 10  2  0  0  0  0
  8  7  1  0  0  0  0
  9  2  2  0  0  0  0
 10 11  1  0  0  0  0
 13 12  2  0  0  0  0
 14 12  1  0  0  0  0
 15 13  1  0  0  0  0
 16 14  1  0  0  0  0
 17  7  1  6  0  0  0
 17 15  1  0  0  0  0
 17 16  1  0  0  0  0
 19 22  1  0  0  0  0
 19 23  1  0  0  0  0
 20 19  2  0  0  0  0
 21 18  2  0  0  0  0
 21  9  1  0  0  0  0
 23 21  1  0  0  0  0
 24 25  1  0  0  0  0
 24 22  1  0  0  0  0
 25 27  1  0  0  0  0
 26 27  1  0  0  0  0
 27 28  1  0  0  0  0
 27 29  1  0  0  0  0
M  END
>  <MODEL>
6

>  <REMARK>
 VINA RESULT:      -8.6      2.724      5.200
  Name = 
  5 active torsions:
  status: ('A' for Active; 'I' for Inactive)
    1  A    between atoms: C_5  and  C_15
    2  A    between atoms: N_14  and  C_23
    3  A    between atoms: C_15  and  C_16
    4  A    between atoms: C_16  and  N_27
    5  A    between atoms: C_19  and  C_26
                            x       y       z     vdW  Elec       q    Type
                         _______ _______ _______ _____ _____    ______ ____

>  <TORSDO>
F 5

$$$$
=
 OpenBabel11062416213D

 29 31  0  0  1  0  0  0  0  0999 V2000
  183.9350  178.9690  145.7900 N   0  0  0  0  0  0  0  0  0  0  0  0
  187.9230  177.9770  143.1460 N   0  0  0  0  0  0  0  0  0  0  0  0
  183.2200  179.0800  144.6440 C   0  0  0  0  0  3  0  0  0  0  0  0
  185.8380  178.4000  142.1220 N   0  0  0  0  0  2  0  0  0  0  0  0
  185.2010  178.5890  143.3820 C   0  0  0  0  0  0  0  0  0  0  0  0
  183.8420  178.8920  143.4170 C   0  0  0  0  0  3  0  0  0  0  0  0
  187.3680  178.1460  144.4320 N   0  0  0  0  0  0  0  0  0  0  0  0
  185.9510  178.4690  144.5680 C   0  0  0  0  0  0  0  0  0  0  0  0
  187.2300  178.0910  142.0550 C   0  0  0  0  0  0  0  0  0  0  0  0
  185.2640  178.6740  145.7990 C   0  0  0  0  0  0  0  0  0  0  0  0
  185.9100  178.5870  147.0610 N   0  0  0  0  0  1  0  0  0  0  0  0
  190.3440  176.9570  147.2690 C   0  0  0  0  0  3  0  0  0  0  0  0
  190.7400  177.5490  146.1300 C   0  0  0  0  0  3  0  0  0  0  0  0
  188.8920  176.7880  147.6340 C   0  0  0  0  0  2  0  0  0  0  0  0
  189.7790  178.0160  145.0650 C   0  0  0  0  0  2  0  0  0  0  0  0
  187.9950  176.7540  146.4020 C   0  0  0  0  0  2  0  0  0  0  0  0
  188.3190  177.9610  145.5270 C   0  0  2  0  0  3  0  0  0  0  0  0
  187.3860  178.4510  139.7230 O   0  0  0  0  0  0  0  0  0  0  0  0
  189.7890  176.8250  139.4550 C   0  0  0  0  0  0  0  0  0  0  0  0
  190.7980  176.0740  139.5110 O   0  0  0  0  0  0  0  0  0  0  0  0
  187.8740  177.9020  140.7480 C   0  0  0  0  0  0  0  0  0  0  0  0
  189.3940  177.4040  138.2060 N   0  0  0  0  0  2  0  0  0  0  0  0
  189.0510  177.0900  140.6530 N   0  0  0  0  0  2  0  0  0  0  0  0
  190.0840  177.1240  136.9540 C   0  0  0  0  0  2  0  0  0  0  0  0
  189.4440  175.9420  136.2360 C   0  0  0  0  0  2  0  0  0  0  0  0
  189.7730  173.8990  137.3820 F   0  0  0  0  0  0  0  0  0  0  0  0
  190.2780  174.6710  136.3540 C   0  0  0  0  0  0  0  0  0  0  0  0
  191.5940  174.9910  136.6360 F   0  0  0  0  0  0  0  0  0  0  0  0
  190.2200  173.9450  135.1780 F   0  0  0  0  0  0  0  0  0  0  0  0
  1 10  1  0  0  0  0
  2  7  1  0  0  0  0
  3  1  2  0  0  0  0
  4  5  1  0  0  0  0
  5  6  2  0  0  0  0
  5  8  1  0  0  0  0
  6  3  1  0  0  0  0
  7  8  1  0  0  0  0
  8 10  2  0  0  0  0
  9  4  1  0  0  0  0
  9  2  2  0  0  0  0
 10 11  1  0  0  0  0
 12 14  1  0  0  0  0
 13 12  2  0  0  0  0
 15 17  1  0  0  0  0
 15 13  1  0  0  0  0
 16 14  1  0  0  0  0
 17  7  1  6  0  0  0
 17 16  1  0  0  0  0
 18 21  2  0  0  0  0
 19 20  2  0  0  0  0
 19 23  1  0  0  0  0
 21  9  1  0  0  0  0
 22 19  1  0  0  0  0
 23 21  1  0  0  0  0
 24 22  1  0  0  0  0
 25 27  1  0  0  0  0
 25 24  1  0  0  0  0
 27 28  1  0  0  0  0
 27 26  1  0  0  0  0
 29 27  1  0  0  0  0
M  END
>  <MODEL>
7

>  <REMARK>
 VINA RESULT:      -8.4      1.959      4.315
  Name = 
  5 active torsions:
  status: ('A' for Active; 'I' for Inactive)
    1  A    between atoms: C_5  and  C_15
    2  A    between atoms: N_14  and  C_23
    3  A    between atoms: C_15  and  C_16
    4  A    between atoms: C_16  and  N_27
    5  A    between atoms: C_19  and  C_26
                            x       y       z     vdW  Elec       q    Type
                         _______ _______ _______ _____ _____    ______ ____

>  <TORSDO>
F 5

$$$$
=
 OpenBabel11062416213D

 29 31  0  0  1  0  0  0  0  0999 V2000
  191.9630  176.0540  135.6180 N   0  0  0  0  0  0  0  0  0  0  0  0
  189.1080  177.0590  139.4550 N   0  0  0  0  0  0  0  0  0  0  0  0
  193.0370  176.0160  136.4450 C   0  0  0  0  0  3  0  0  0  0  0  0
  191.4370  176.7480  139.6980 N   0  0  0  0  0  2  0  0  0  0  0  0
  191.6000  176.5100  138.3030 C   0  0  0  0  0  0  0  0  0  0  0  0
  192.8740  176.2450  137.8050 C   0  0  0  0  0  3  0  0  0  0  0  0
  189.1850  176.8330  138.0650 N   0  0  0  0  0  0  0  0  0  0  0  0
  190.4790  176.5490  137.4510 C   0  0  0  0  0  0  0  0  0  0  0  0
  190.1440  177.0250  140.2370 C   0  0  0  0  0  0  0  0  0  0  0  0
  190.7030  176.3100  136.0650 C   0  0  0  0  0  0  0  0  0  0  0  0
  189.6560  176.3280  135.1050 N   0  0  0  0  0  1  0  0  0  0  0  0
  185.1240  176.8210  136.7120 C   0  0  0  0  0  3  0  0  0  0  0  0
  185.5670  177.8780  137.4120 C   0  0  0  0  0  3  0  0  0  0  0  0
  186.0270  175.6880  136.2940 C   0  0  0  0  0  2  0  0  0  0  0  0
  186.9790  177.9920  137.9310 C   0  0  0  0  0  2  0  0  0  0  0  0
  187.2250  175.5420  137.2240 C   0  0  0  0  0  2  0  0  0  0  0  0
  187.8990  176.9030  137.3720 C   0  0  2  0  0  3  0  0  0  0  0  0
  189.0910  178.0560  142.0850 O   0  0  0  0  0  0  0  0  0  0  0  0
  190.8300  176.7530  144.0270 C   0  0  0  0  0  0  0  0  0  0  0  0
  191.6780  176.1340  144.7230 O   0  0  0  0  0  0  0  0  0  0  0  0
  189.9900  177.2710  141.6760 C   0  0  0  0  0  0  0  0  0  0  0  0
  189.8440  177.5750  144.6610 N   0  0  0  0  0  2  0  0  0  0  0  0
  190.8680  176.6180  142.6020 N   0  0  0  0  0  2  0  0  0  0  0  0
  189.7980  177.7810  146.1020 C   0  0  0  0  0  2  0  0  0  0  0  0
  188.3940  177.5300  146.6400 C   0  0  0  0  0  2  0  0  0  0  0  0
  187.8790  177.0050  148.8890 F   0  0  0  0  0  0  0  0  0  0  0  0
  188.2150  178.0570  148.0600 C   0  0  0  0  0  0  0  0  0  0  0  0
  187.2010  178.9980  148.0930 F   0  0  0  0  0  0  0  0  0  0  0  0
  189.3900  178.6280  148.5140 F   0  0  0  0  0  0  0  0  0  0  0  0
  1 10  2  0  0  0  0
  1  3  1  0  0  0  0
  2  9  2  0  0  0  0
  3  6  2  0  0  0  0
  4  9  1  0  0  0  0
  5  4  1  0  0  0  0
  6  5  1  0  0  0  0
  7  2  1  0  0  0  0
  8  7  1  0  0  0  0
  8  5  2  0  0  0  0
  9 21  1  0  0  0  0
 10  8  1  0  0  0  0
 11 10  1  0  0  0  0
 12 13  2  0  0  0  0
 13 15  1  0  0  0  0
 14 12  1  0  0  0  0
 14 16  1  0  0  0  0
 17 16  1  1  0  0  0
 17 15  1  0  0  0  0
 17  7  1  0  0  0  0
 19 22  1  0  0  0  0
 19 20  2  0  0  0  0
 21 18  2  0  0  0  0
 21 23  1  0  0  0  0
 22 24  1  0  0  0  0
 23 19  1  0  0  0  0
 24 25  1  0  0  0  0
 25 27  1  0  0  0  0
 27 28  1  0  0  0  0
 27 29  1  0  0  0  0
 27 26  1  0  0  0  0
M  END
>  <MODEL>
8

>  <REMARK>
 VINA RESULT:      -8.3      5.021      8.731
  Name = 
  5 active torsions:
  status: ('A' for Active; 'I' for Inactive)
    1  A    between atoms: C_5  and  C_15
    2  A    between atoms: N_14  and  C_23
    3  A    between atoms: C_15  and  C_16
    4  A    between atoms: C_16  and  N_27
    5  A    between atoms: C_19  and  C_26
                            x       y       z     vdW  Elec       q    Type
                         _______ _______ _______ _____ _____    ______ ____

>  <TORSDO>
F 5

$$$$
=
 OpenBabel11062416213D

 29 31  0  0  1  0  0  0  0  0999 V2000
  191.2170  177.0730  141.0950 N   0  0  0  0  0  0  0  0  0  0  0  0
  186.5660  178.1820  142.1070 N   0  0  0  0  0  0  0  0  0  0  0  0
  191.0010  177.4100  139.8000 C   0  0  0  0  0  3  0  0  0  0  0  0
  187.4380  178.3950  139.9220 N   0  0  0  0  0  2  0  0  0  0  0  0
  188.7240  177.9450  140.3380 C   0  0  0  0  0  0  0  0  0  0  0  0
  189.7470  177.8530  139.3980 C   0  0  0  0  0  3  0  0  0  0  0  0
  187.8090  177.7310  142.5990 N   0  0  0  0  0  0  0  0  0  0  0  0
  188.9410  177.5990  141.6860 C   0  0  0  0  0  0  0  0  0  0  0  0
  186.3690  178.4980  140.8630 C   0  0  0  0  0  0  0  0  0  0  0  0
  190.2440  177.1500  142.0430 C   0  0  0  0  0  0  0  0  0  0  0  0
  190.5860  176.7660  143.3680 N   0  0  0  0  0  1  0  0  0  0  0  0
  187.5810  177.6090  146.8710 C   0  0  0  0  0  3  0  0  0  0  0  0
  186.4550  177.4340  146.1610 C   0  0  0  0  0  3  0  0  0  0  0  0
  188.9360  177.7430  146.2250 C   0  0  0  0  0  2  0  0  0  0  0  0
  186.4190  177.4490  144.6520 C   0  0  0  0  0  2  0  0  0  0  0  0
  188.8380  178.2790  144.8020 C   0  0  0  0  0  2  0  0  0  0  0  0
  187.8200  177.4430  144.0320 C   0  0  2  0  0  3  0  0  0  0  0  0
  184.9560  179.7460  139.4370 O   0  0  0  0  0  0  0  0  0  0  0  0
  182.5270  178.8760  140.7920 C   0  0  0  0  0  0  0  0  0  0  0  0
  181.5880  178.4270  141.5000 O   0  0  0  0  0  0  0  0  0  0  0  0
  185.0480  178.9610  140.4200 C   0  0  0  0  0  0  0  0  0  0  0  0
  182.2410  179.7280  139.6770 N   0  0  0  0  0  2  0  0  0  0  0  0
  183.8750  178.5170  141.1140 N   0  0  0  0  0  2  0  0  0  0  0  0
  180.8900  180.1590  139.3410 C   0  0  0  0  0  2  0  0  0  0  0  0
  180.8390  180.7240  137.9260 C   0  0  0  0  0  2  0  0  0  0  0  0
  180.8690  182.6810  136.5970 F   0  0  0  0  0  0  0  0  0  0  0  0
  180.9630  182.2430  137.9040 C   0  0  0  0  0  0  0  0  0  0  0  0
  182.1880  182.6270  138.4200 F   0  0  0  0  0  0  0  0  0  0  0  0
  179.9480  182.8210  138.6440 F   0  0  0  0  0  0  0  0  0  0  0  0
  1 10  1  0  0  0  0
  2  7  1  0  0  0  0
  3  1  2  0  0  0  0
  4  5  1  0  0  0  0
  4  9  1  0  0  0  0
  5  8  1  0  0  0  0
  6  3  1  0  0  0  0
  6  5  2  0  0  0  0
  8 10  2  0  0  0  0
  8  7  1  0  0  0  0
  9  2  2  0  0  0  0
 10 11  1  0  0  0  0
 13 12  2  0  0  0  0
 14 12  1  0  0  0  0
 15 13  1  0  0  0  0
 16 14  1  0  0  0  0
 17  7  1  6  0  0  0
 17 15  1  0  0  0  0
 17 16  1  0  0  0  0
 18 21  2  0  0  0  0
 19 23  1  0  0  0  0
 19 20  2  0  0  0  0
 21  9  1  0  0  0  0
 21 23  1  0  0  0  0
 22 19  1  0  0  0  0
 24 22  1  0  0  0  0
 25 24  1  0  0  0  0
 26 27  1  0  0  0  0
 27 25  1  0  0  0  0
 27 28  1  0  0  0  0
 27 29  1  0  0  0  0
M  END
>  <MODEL>
9

>  <REMARK>
 VINA RESULT:      -8.3      5.741      8.408
  Name = 
  5 active torsions:
  status: ('A' for Active; 'I' for Inactive)
    1  A    between atoms: C_5  and  C_15
    2  A    between atoms: N_14  and  C_23
    3  A    between atoms: C_15  and  C_16
    4  A    between atoms: C_16  and  N_27
    5  A    between atoms: C_19  and  C_26
                            x       y       z     vdW  Elec       q    Type
                         _______ _______ _______ _____ _____    ______ ____

>  <TORSDO>
F 5

$$$$
