=
 OpenBabel11062412253D

 37 42  0  0  1  0  0  0  0  0999 V2000
  185.5460  178.7360  145.9070 N   0  0  0  0  0  0  0  0  0  0  0  0
  183.8050  178.3710  142.7380 C   0  0  1  0  0  3  0  0  0  0  0  0
  184.5860  179.2420  140.3590 C   0  0  1  0  0  3  0  0  0  0  0  0
  182.5890  179.2870  142.9940 C   0  0  0  0  0  2  0  0  0  0  0  0
  185.6380  178.2790  144.6400 C   0  0  0  0  0  0  0  0  0  0  0  0
  183.5630  178.6950  145.0590 C   0  0  1  0  0  3  0  0  0  0  0  0
  187.1570  178.4770  142.5360 C   0  0  1  0  0  3  0  0  0  0  0  0
  184.8480  179.0280  141.8510 C   0  0  2  0  0  3  0  0  0  0  0  0
  185.9950  178.0670  141.6400 C   0  0  1  0  0  3  0  0  0  0  0  0
  186.8930  178.1580  143.9460 N   0  0  0  0  0  2  0  0  0  0  0  0
  184.3630  178.2160  144.1010 C   0  0  1  0  0  3  0  0  0  0  0  0
  184.2730  179.0320  146.1520 N   0  0  0  0  0  2  0  0  0  0  0  0
  182.3550  179.3500  144.5220 C   0  0  0  0  0  2  0  0  0  0  0  0
  186.1900  178.4410  139.8220 P   0  0  0  0  0  2  0  0  0  0  0  0
  182.1150  179.2950  139.6430 C   0  0  0  0  0  2  0  0  0  0  0  0
  182.9700  178.9770  138.4220 C   0  0  0  0  0  2  0  0  0  0  0  0
  183.3820  178.4770  139.7890 C   0  0  0  0  0  0  0  0  0  0  0  0
  183.2570  176.9540  140.0000 C   0  0  0  0  0  2  0  0  0  0  0  0
  181.0920  175.7790  139.5890 C   0  0  0  0  0  1  0  0  0  0  0  0
  182.4060  176.2150  138.9660 C   0  0  2  0  0  3  0  0  0  0  0  0
  183.1190  175.0640  138.4140 N   0  0  0  0  0  2  0  0  0  0  0  0
  184.0870  175.1190  137.3550 C   0  0  0  0  0  0  0  0  0  0  0  0
  184.4000  176.2590  136.8170 N   0  0  0  0  0  0  0  0  0  0  0  0
  184.6910  173.9420  136.9020 O   0  0  0  0  0  0  0  0  0  0  0  0
  185.4620  173.1170  137.7620 C   0  0  0  0  0  1  0  0  0  0  0  0
  186.1060  176.4670  134.9190 N   0  0  0  0  0  0  0  0  0  0  0  0
  185.3350  176.3730  135.7760 C   0  0  0  0  0  0  0  0  0  0  0  0
  189.3700  178.8630  141.6870 O   0  0  0  0  0  1  0  0  0  0  0  0
  188.4870  177.8570  142.0870 C   0  0  1  0  0  3  0  0  0  0  0  0
  188.7880  175.6620  143.1200 C   0  0  0  0  0  2  0  0  0  0  0  0
  189.1110  176.9550  143.1310 C   0  0  0  0  0  0  0  0  0  0  0  0
  189.9080  178.3370  144.9780 N   0  0  0  0  0  2  0  0  0  0  0  0
  190.1910  176.9360  145.3160 C   0  0  1  0  0  3  0  0  0  0  0  0
  190.3110  177.3870  143.9290 C   0  0  1  0  0  3  0  0  0  0  0  0
  191.5130  176.8440  145.9060 N   0  0  0  0  0  2  0  0  0  0  0  0
  192.8400  176.0840  147.6540 O   0  0  0  0  0  0  0  0  0  0  0  0
  191.6930  176.1640  147.1420 C   0  0  0  0  0  3  0  0  0  0  0  0
  1 12  1  0  0  0  0
  2  4  1  1  0  0  0
  2 11  1  0  0  0  0
  3 17  1  6  0  0  0
  3  8  1  0  0  0  0
  4 13  1  0  0  0  0
  5  1  2  0  0  0  0
  6 13  1  6  0  0  0
  6 12  1  0  0  0  0
  7 29  1  6  0  0  0
  7 10  1  0  0  0  0
  8  2  1  0  0  0  0
  9  8  1  0  0  0  0
  9  7  1  0  0  0  0
 10  5  1  0  0  0  0
 11  5  1  0  0  0  0
 11  6  1  0  0  0  0
 14  3  1  0  0  0  0
 14  9  1  0  0  0  0
 15 17  1  0  0  0  0
 16 15  1  0  0  0  0
 16 17  1  0  0  0  0
 17 18  1  0  0  0  0
 20 19  1  0  0  0  0
 20 18  1  0  0  0  0
 21 20  1  0  0  0  0
 22 21  1  0  0  0  0
 23 22  2  0  0  0  0
 24 22  1  0  0  0  0
 24 25  1  0  0  0  0
 26 27  3  0  0  0  0
 27 23  1  0  0  0  0
 28 29  1  0  0  0  0
 29 31  1  0  0  0  0
 30 31  2  0  0  0  0
 31 34  1  0  0  0  0
 32 33  1  0  0  0  0
 33 35  1  0  0  0  0
 34 32  1  0  0  0  0
 34 33  1  0  0  0  0
 35 37  1  0  0  0  0
 37 36  2  0  0  0  0
M  END
>  <MODEL>
1

>  <REMARK>
 VINA RESULT:      -6.5      0.000      0.000
  Name = 
  10 active torsions:
  status: ('A' for Active; 'I' for Inactive)
    1  A    between atoms: N_3  and  C_10
    2  A    between atoms: O_4  and  C_15
    3  A    between atoms: C_8  and  C_29
    4  A    between atoms: N_11  and  C_31
    5  A    between atoms: C_13  and  C_29
    6  A    between atoms: C_13  and  C_31
    7  A    between atoms: C_16  and  C_21
    8  A    between atoms: C_16  and  C_34
    9  A    between atoms: C_19  and  N_27
   10  A    between atoms: C_23  and  C_34
                            x       y       z     vdW  Elec       q    Type
                         _______ _______ _______ _____ _____    ______ ____

>  <TORSDO>
F 10

$$$$
=
 OpenBabel11062412253D

 37 42  0  0  1  0  0  0  0  0999 V2000
  189.0950  177.8660  143.3100 N   0  0  0  0  0  0  0  0  0  0  0  0
  185.5670  177.8080  142.4410 C   0  0  1  0  0  3  0  0  0  0  0  0
  184.3310  179.2790  140.6140 C   0  0  1  0  0  3  0  0  0  0  0  0
  184.9620  178.3910  143.7360 C   0  0  0  0  0  2  0  0  0  0  0  0
  188.2050  177.7020  142.3080 C   0  0  0  0  0  0  0  0  0  0  0  0
  187.1400  177.6020  144.1820 C   0  0  1  0  0  3  0  0  0  0  0  0
  187.6550  178.6210  139.9370 C   0  0  1  0  0  3  0  0  0  0  0  0
  185.6140  178.8260  141.3140 C   0  0  2  0  0  3  0  0  0  0  0  0
  186.2050  178.1760  140.0850 C   0  0  1  0  0  3  0  0  0  0  0  0
  188.5230  177.9770  140.9320 N   0  0  0  0  0  2  0  0  0  0  0  0
  186.9520  177.4960  142.8630 C   0  0  1  0  0  3  0  0  0  0  0  0
  188.4340  177.8470  144.4640 N   0  0  0  0  0  2  0  0  0  0  0  0
  185.9460  178.0960  144.8930 C   0  0  0  0  0  2  0  0  0  0  0  0
  184.9880  178.9410  138.8940 P   0  0  0  0  0  2  0  0  0  0  0  0
  182.4100  178.6980  142.2230 C   0  0  0  0  0  2  0  0  0  0  0  0
  181.8140  179.2320  140.9260 C   0  0  0  0  0  2  0  0  0  0  0  0
  183.0900  178.4190  140.8980 C   0  0  0  0  0  0  0  0  0  0  0  0
  182.9620  177.0110  140.2840 C   0  0  0  0  0  2  0  0  0  0  0  0
  181.0490  175.4980  139.7470 C   0  0  0  0  0  1  0  0  0  0  0  0
  181.7470  176.7960  139.3810 C   0  0  2  0  0  3  0  0  0  0  0  0
  182.1270  176.7940  137.9690 N   0  0  0  0  0  2  0  0  0  0  0  0
  181.8560  177.8520  137.0360 C   0  0  0  0  0  0  0  0  0  0  0  0
  181.2370  178.9230  137.4280 N   0  0  0  0  0  0  0  0  0  0  0  0
  182.2590  177.7240  135.7030 O   0  0  0  0  0  0  0  0  0  0  0  0
  183.3870  176.9460  135.3320 C   0  0  0  0  0  1  0  0  0  0  0  0
  180.6970  180.8640  135.8480 N   0  0  0  0  0  0  0  0  0  0  0  0
  180.9410  179.9870  136.5610 C   0  0  0  0  0  0  0  0  0  0  0  0
  189.0610  179.4200  138.1620 O   0  0  0  0  0  1  0  0  0  0  0  0
  188.1970  178.3840  138.5210 C   0  0  1  0  0  3  0  0  0  0  0  0
  188.1190  176.0330  137.8530 C   0  0  0  0  0  2  0  0  0  0  0  0
  188.8520  177.0300  138.3490 C   0  0  0  0  0  0  0  0  0  0  0  0
  190.7420  176.0610  139.5530 N   0  0  0  0  0  2  0  0  0  0  0  0
  190.7150  175.4640  138.2100 C   0  0  1  0  0  3  0  0  0  0  0  0
  190.3480  176.8690  138.3870 C   0  0  1  0  0  3  0  0  0  0  0  0
  192.0680  175.3820  137.6960 N   0  0  0  0  0  2  0  0  0  0  0  0
  194.0510  176.4780  137.1850 O   0  0  0  0  0  0  0  0  0  0  0  0
  192.8770  176.5490  137.6320 C   0  0  0  0  0  3  0  0  0  0  0  0
  1 12  1  0  0  0  0
  2 11  1  0  0  0  0
  2  4  1  1  0  0  0
  3 17  1  1  0  0  0
  3  8  1  0  0  0  0
  4 13  1  0  0  0  0
  5 11  1  0  0  0  0
  5  1  2  0  0  0  0
  6 12  1  0  0  0  0
  6 13  1  6  0  0  0
  7 29  1  6  0  0  0
  7  9  1  0  0  0  0
  7 10  1  0  0  0  0
  8  2  1  0  0  0  0
  9  8  1  0  0  0  0
 10  5  1  0  0  0  0
 11  6  1  0  0  0  0
 14  9  1  0  0  0  0
 14  3  1  0  0  0  0
 16 15  1  0  0  0  0
 17 16  1  0  0  0  0
 17 15  1  0  0  0  0
 18 17  1  0  0  0  0
 20 19  1  0  0  0  0
 20 18  1  0  0  0  0
 21 20  1  0  0  0  0
 22 23  2  0  0  0  0
 22 21  1  0  0  0  0
 24 22  1  0  0  0  0
 25 24  1  0  0  0  0
 26 27  3  0  0  0  0
 27 23  1  0  0  0  0
 28 29  1  0  0  0  0
 30 31  2  0  0  0  0
 31 34  1  0  0  0  0
 31 29  1  0  0  0  0
 33 34  1  0  0  0  0
 33 32  1  0  0  0  0
 34 32  1  0  0  0  0
 35 33  1  0  0  0  0
 36 37  2  0  0  0  0
 37 35  1  0  0  0  0
M  END
>  <MODEL>
2

>  <REMARK>
 VINA RESULT:      -6.4      3.299      4.584
  Name = 
  10 active torsions:
  status: ('A' for Active; 'I' for Inactive)
    1  A    between atoms: N_3  and  C_10
    2  A    between atoms: O_4  and  C_15
    3  A    between atoms: C_8  and  C_29
    4  A    between atoms: N_11  and  C_31
    5  A    between atoms: C_13  and  C_29
    6  A    between atoms: C_13  and  C_31
    7  A    between atoms: C_16  and  C_21
    8  A    between atoms: C_16  and  C_34
    9  A    between atoms: C_19  and  N_27
   10  A    between atoms: C_23  and  C_34
                            x       y       z     vdW  Elec       q    Type
                         _______ _______ _______ _____ _____    ______ ____

>  <TORSDO>
F 10

$$$$
=
 OpenBabel11062412253D

 37 42  0  0  1  0  0  0  0  0999 V2000
  188.3030  177.4200  136.4350 N   0  0  0  0  0  0  0  0  0  0  0  0
  188.8880  177.1420  140.0110 C   0  0  1  0  0  3  0  0  0  0  0  0
  188.0790  178.8040  141.9120 C   0  0  1  0  0  3  0  0  0  0  0  0
  190.4130  177.3800  140.0520 C   0  0  0  0  0  2  0  0  0  0  0  0
  187.7180  177.3630  137.6510 C   0  0  0  0  0  0  0  0  0  0  0  0
  189.7810  176.7670  137.8640 C   0  0  1  0  0  3  0  0  0  0  0  0
  186.0290  178.6750  139.1330 C   0  0  1  0  0  3  0  0  0  0  0  0
  188.1000  178.3660  140.4460 C   0  0  2  0  0  3  0  0  0  0  0  0
  186.6230  178.0490  140.3890 C   0  0  1  0  0  3  0  0  0  0  0  0
  186.4310  177.9450  137.9230 N   0  0  0  0  0  2  0  0  0  0  0  0
  188.6530  176.9090  138.5670 C   0  0  1  0  0  3  0  0  0  0  0  0
  189.5850  177.0930  136.5730 N   0  0  0  0  0  2  0  0  0  0  0  0
  190.9940  176.9700  138.6790 C   0  0  0  0  0  2  0  0  0  0  0  0
  186.2120  178.8970  142.0000 P   0  0  0  0  0  2  0  0  0  0  0  0
  187.6600  177.4000  144.0270 C   0  0  0  0  0  2  0  0  0  0  0  0
  187.8710  176.4560  142.8490 C   0  0  0  0  0  2  0  0  0  0  0  0
  188.6180  177.7710  142.9120 C   0  0  0  0  0  0  0  0  0  0  0  0
  190.1330  177.6570  143.1730 C   0  0  0  0  0  2  0  0  0  0  0  0
  191.7800  179.3730  143.9360 C   0  0  0  0  0  1  0  0  0  0  0  0
  190.6560  178.4510  144.3710 C   0  0  2  0  0  3  0  0  0  0  0  0
  191.1070  177.5630  145.4420 N   0  0  0  0  0  2  0  0  0  0  0  0
  190.4050  177.3240  146.6720 C   0  0  0  0  0  0  0  0  0  0  0  0
  189.2680  177.9100  146.8980 N   0  0  0  0  0  0  0  0  0  0  0  0
  190.9500  176.4610  147.6290 O   0  0  0  0  0  0  0  0  0  0  0  0
  192.0640  175.6300  147.3390 C   0  0  0  0  0  1  0  0  0  0  0  0
  187.9410  177.5610  149.0590 N   0  0  0  0  0  0  0  0  0  0  0  0
  188.5400  177.7190  148.0830 C   0  0  0  0  0  0  0  0  0  0  0  0
  184.1100  180.1020  138.9270 O   0  0  0  0  0  1  0  0  0  0  0  0
  184.5010  178.7910  139.2060 C   0  0  1  0  0  3  0  0  0  0  0  0
  183.3930  178.1970  137.1080 C   0  0  0  0  0  2  0  0  0  0  0  0
  183.7810  177.7970  138.3200 C   0  0  0  0  0  0  0  0  0  0  0  0
  182.5460  175.9170  139.2690 N   0  0  0  0  0  2  0  0  0  0  0  0
  182.7650  175.6330  137.8440 C   0  0  1  0  0  3  0  0  0  0  0  0
  183.8020  176.3210  138.6140 C   0  0  1  0  0  3  0  0  0  0  0  0
  183.1320  174.2390  137.6850 N   0  0  0  0  0  2  0  0  0  0  0  0
  184.8190  172.6470  137.5690 O   0  0  0  0  0  0  0  0  0  0  0  0
  184.5010  173.8560  137.7070 C   0  0  0  0  0  3  0  0  0  0  0  0
  1 12  1  0  0  0  0
  1  5  2  0  0  0  0
  2  4  1  6  0  0  0
  2  8  1  0  0  0  0
  3 14  1  0  0  0  0
  3 17  1  1  0  0  0
  5 10  1  0  0  0  0
  5 11  1  0  0  0  0
  6 11  1  0  0  0  0
  6 13  1  1  0  0  0
  7 29  1  1  0  0  0
  7  9  1  0  0  0  0
  8  3  1  0  0  0  0
  9  8  1  0  0  0  0
  9 14  1  0  0  0  0
 10  7  1  0  0  0  0
 11  2  1  0  0  0  0
 12  6  1  0  0  0  0
 13  4  1  0  0  0  0
 16 17  1  0  0  0  0
 16 15  1  0  0  0  0
 17 18  1  0  0  0  0
 17 15  1  0  0  0  0
 18 20  1  0  0  0  0
 19 20  1  0  0  0  0
 20 21  1  0  0  0  0
 21 22  1  0  0  0  0
 22 23  2  0  0  0  0
 22 24  1  0  0  0  0
 23 27  1  0  0  0  0
 25 24  1  0  0  0  0
 27 26  3  0  0  0  0
 28 29  1  0  0  0  0
 30 31  2  0  0  0  0
 31 34  1  0  0  0  0
 31 29  1  0  0  0  0
 33 34  1  0  0  0  0
 33 32  1  0  0  0  0
 34 32  1  0  0  0  0
 35 37  1  0  0  0  0
 35 33  1  0  0  0  0
 36 37  2  0  0  0  0
M  END
>  <MODEL>
3

>  <REMARK>
 VINA RESULT:      -6.3      2.702      9.237
  Name = 
  10 active torsions:
  status: ('A' for Active; 'I' for Inactive)
    1  A    between atoms: N_3  and  C_10
    2  A    between atoms: O_4  and  C_15
    3  A    between atoms: C_8  and  C_29
    4  A    between atoms: N_11  and  C_31
    5  A    between atoms: C_13  and  C_29
    6  A    between atoms: C_13  and  C_31
    7  A    between atoms: C_16  and  C_21
    8  A    between atoms: C_16  and  C_34
    9  A    between atoms: C_19  and  N_27
   10  A    between atoms: C_23  and  C_34
                            x       y       z     vdW  Elec       q    Type
                         _______ _______ _______ _____ _____    ______ ____

>  <TORSDO>
F 10

$$$$
=
 OpenBabel11062412253D

 37 42  0  0  1  0  0  0  0  0999 V2000
  187.9900  177.9310  136.5920 N   0  0  0  0  0  0  0  0  0  0  0  0
  188.6060  177.3350  140.1240 C   0  0  1  0  0  3  0  0  0  0  0  0
  187.8870  178.8650  142.1660 C   0  0  1  0  0  3  0  0  0  0  0  0
  190.1400  177.5090  140.1610 C   0  0  0  0  0  2  0  0  0  0  0  0
  187.4180  177.7960  137.8080 C   0  0  0  0  0  0  0  0  0  0  0  0
  189.4580  177.1040  137.9400 C   0  0  1  0  0  3  0  0  0  0  0  0
  185.8010  179.0460  139.4180 C   0  0  1  0  0  3  0  0  0  0  0  0
  187.8730  178.5490  140.6700 C   0  0  2  0  0  3  0  0  0  0  0  0
  186.3840  178.2960  140.6090 C   0  0  1  0  0  3  0  0  0  0  0  0
  186.1580  178.4030  138.1460 N   0  0  0  0  0  2  0  0  0  0  0  0
  188.3450  177.2320  138.6690 C   0  0  1  0  0  3  0  0  0  0  0  0
  189.2590  177.5430  136.6830 N   0  0  0  0  0  2  0  0  0  0  0  0
  190.6870  177.1910  138.7500 C   0  0  0  0  0  2  0  0  0  0  0  0
  186.0270  179.0230  142.2910 P   0  0  0  0  0  2  0  0  0  0  0  0
  187.4740  177.3640  144.2150 C   0  0  0  0  0  2  0  0  0  0  0  0
  187.5460  176.4840  142.9730 C   0  0  0  0  0  2  0  0  0  0  0  0
  188.3960  177.7320  143.0710 C   0  0  0  0  0  0  0  0  0  0  0  0
  189.9090  177.4880  143.2350 C   0  0  0  0  0  2  0  0  0  0  0  0
  191.7570  179.0760  143.7860 C   0  0  0  0  0  1  0  0  0  0  0  0
  190.5880  178.2870  144.3480 C   0  0  2  0  0  3  0  0  0  0  0  0
  191.0320  177.4150  145.4350 N   0  0  0  0  0  2  0  0  0  0  0  0
  190.3560  177.2460  146.6910 C   0  0  0  0  0  0  0  0  0  0  0  0
  189.2510  177.8850  146.9270 N   0  0  0  0  0  0  0  0  0  0  0  0
  190.8920  176.3910  147.6600 O   0  0  0  0  0  0  0  0  0  0  0  0
  192.1260  175.7180  147.4640 C   0  0  0  0  0  1  0  0  0  0  0  0
  187.9720  177.6620  149.1340 N   0  0  0  0  0  0  0  0  0  0  0  0
  188.5490  177.7620  148.1370 C   0  0  0  0  0  0  0  0  0  0  0  0
  183.8940  180.4220  138.9360 O   0  0  0  0  0  1  0  0  0  0  0  0
  184.2800  179.2160  139.5230 C   0  0  1  0  0  3  0  0  0  0  0  0
  183.2130  177.0280  139.7600 C   0  0  0  0  0  2  0  0  0  0  0  0
  183.5050  178.0480  138.9520 C   0  0  0  0  0  0  0  0  0  0  0  0
  183.4500  177.3410  136.6160 N   0  0  0  0  0  2  0  0  0  0  0  0
  182.2210  176.8540  137.2580 C   0  0  1  0  0  3  0  0  0  0  0  0
  182.7740  178.1540  137.6400 C   0  0  1  0  0  3  0  0  0  0  0  0
  181.1000  177.0550  136.3600 N   0  0  0  0  0  2  0  0  0  0  0  0
  179.3910  178.4450  135.6240 O   0  0  0  0  0  0  0  0  0  0  0  0
  180.3640  178.2710  136.4020 C   0  0  0  0  0  3  0  0  0  0  0  0
  1 12  1  0  0  0  0
  1  5  2  0  0  0  0
  2  4  1  6  0  0  0
  2  8  1  0  0  0  0
  3 14  1  0  0  0  0
  3 17  1  1  0  0  0
  5 10  1  0  0  0  0
  5 11  1  0  0  0  0
  6 11  1  0  0  0  0
  6 13  1  1  0  0  0
  7 29  1  1  0  0  0
  7  9  1  0  0  0  0
  8  3  1  0  0  0  0
  9  8  1  0  0  0  0
  9 14  1  0  0  0  0
 10  7  1  0  0  0  0
 11  2  1  0  0  0  0
 12  6  1  0  0  0  0
 13  4  1  0  0  0  0
 16 17  1  0  0  0  0
 16 15  1  0  0  0  0
 17 18  1  0  0  0  0
 17 15  1  0  0  0  0
 18 20  1  0  0  0  0
 19 20  1  0  0  0  0
 20 21  1  0  0  0  0
 21 22  1  0  0  0  0
 22 23  2  0  0  0  0
 22 24  1  0  0  0  0
 23 27  1  0  0  0  0
 25 24  1  0  0  0  0
 27 26  3  0  0  0  0
 28 29  1  0  0  0  0
 31 29  1  0  0  0  0
 31 30  2  0  0  0  0
 32 33  1  0  0  0  0
 32 34  1  0  0  0  0
 33 34  1  0  0  0  0
 34 31  1  0  0  0  0
 35 37  1  0  0  0  0
 35 33  1  0  0  0  0
 36 37  2  0  0  0  0
M  END
>  <MODEL>
4

>  <REMARK>
 VINA RESULT:      -6.3      2.992      9.652
  Name = 
  10 active torsions:
  status: ('A' for Active; 'I' for Inactive)
    1  A    between atoms: N_3  and  C_10
    2  A    between atoms: O_4  and  C_15
    3  A    between atoms: C_8  and  C_29
    4  A    between atoms: N_11  and  C_31
    5  A    between atoms: C_13  and  C_29
    6  A    between atoms: C_13  and  C_31
    7  A    between atoms: C_16  and  C_21
    8  A    between atoms: C_16  and  C_34
    9  A    between atoms: C_19  and  N_27
   10  A    between atoms: C_23  and  C_34
                            x       y       z     vdW  Elec       q    Type
                         _______ _______ _______ _____ _____    ______ ____

>  <TORSDO>
F 10

$$$$
=
 OpenBabel11062412253D

 37 42  0  0  1  0  0  0  0  0999 V2000
  183.1840  179.1520  144.6150 N   0  0  0  0  0  0  0  0  0  0  0  0
  186.7440  178.4610  144.3720 C   0  0  1  0  0  3  0  0  0  0  0  0
  187.9890  177.0500  142.5060 C   0  0  1  0  0  3  0  0  0  0  0  0
  186.9210  177.5370  145.5970 C   0  0  0  0  0  2  0  0  0  0  0  0
  184.2790  179.2500  143.8310 C   0  0  0  0  0  0  0  0  0  0  0  0
  184.9220  178.7660  145.8340 C   0  0  1  0  0  3  0  0  0  0  0  0
  185.1050  178.6280  141.4440 C   0  0  1  0  0  3  0  0  0  0  0  0
  186.7170  177.6900  143.0640 C   0  0  2  0  0  3  0  0  0  0  0  0
  186.5520  178.6620  141.9190 C   0  0  1  0  0  3  0  0  0  0  0  0
  184.2070  179.2960  142.3950 N   0  0  0  0  0  2  0  0  0  0  0  0
  185.4010  179.0390  144.6160 C   0  0  1  0  0  3  0  0  0  0  0  0
  183.5760  178.8130  145.8400 N   0  0  0  0  0  2  0  0  0  0  0  0
  185.8030  177.8750  146.6110 C   0  0  0  0  0  2  0  0  0  0  0  0
  187.7990  177.8230  140.8120 P   0  0  0  0  0  2  0  0  0  0  0  0
  190.2690  178.2110  142.2400 C   0  0  0  0  0  2  0  0  0  0  0  0
  189.4240  179.0150  143.2210 C   0  0  0  0  0  2  0  0  0  0  0  0
  189.2980  177.5080  143.1660 C   0  0  0  0  0  0  0  0  0  0  0  0
  189.8570  176.7550  144.3890 C   0  0  0  0  0  2  0  0  0  0  0  0
  191.6810  175.2460  143.5930 C   0  0  0  0  0  1  0  0  0  0  0  0
  191.3660  176.5070  144.3760 C   0  0  2  0  0  3  0  0  0  0  0  0
  191.9030  176.4170  145.7330 N   0  0  0  0  0  2  0  0  0  0  0  0
  191.2360  176.8720  146.9210 C   0  0  0  0  0  0  0  0  0  0  0  0
  190.0540  177.4030  146.8410 N   0  0  0  0  0  0  0  0  0  0  0  0
  191.8630  176.7440  148.1640 O   0  0  0  0  0  0  0  0  0  0  0  0
  192.8060  175.7150  148.4250 C   0  0  0  0  0  1  0  0  0  0  0  0
  188.7790  178.2530  148.8920 N   0  0  0  0  0  0  0  0  0  0  0  0
  189.3560  177.8700  147.9660 C   0  0  0  0  0  0  0  0  0  0  0  0
  185.8410  178.6290  139.1580 O   0  0  0  0  0  1  0  0  0  0  0  0
  184.9380  179.2260  140.0400 C   0  0  1  0  0  3  0  0  0  0  0  0
  183.0600  180.1610  138.7840 C   0  0  0  0  0  2  0  0  0  0  0  0
  183.5190  179.1480  139.5200 C   0  0  0  0  0  0  0  0  0  0  0  0
  181.7540  177.8440  140.5890 N   0  0  0  0  0  2  0  0  0  0  0  0
  181.3450  178.0920  139.2000 C   0  0  1  0  0  3  0  0  0  0  0  0
  182.7550  177.8510  139.5100 C   0  0  1  0  0  3  0  0  0  0  0  0
  180.7620  176.8840  138.6490 N   0  0  0  0  0  2  0  0  0  0  0  0
  180.9140  174.5870  138.3410 O   0  0  0  0  0  0  0  0  0  0  0  0
  181.4200  175.6350  138.8180 C   0  0  0  0  0  3  0  0  0  0  0  0
  1 12  1  0  0  0  0
  2 11  1  0  0  0  0
  2  4  1  1  0  0  0
  3  8  1  0  0  0  0
  3 17  1  1  0  0  0
  4 13  1  0  0  0  0
  5  1  2  0  0  0  0
  5 11  1  0  0  0  0
  6 12  1  0  0  0  0
  6 13  1  6  0  0  0
  7 29  1  6  0  0  0
  7  9  1  0  0  0  0
  7 10  1  0  0  0  0
  8  2  1  0  0  0  0
  9  8  1  0  0  0  0
 10  5  1  0  0  0  0
 11  6  1  0  0  0  0
 14  9  1  0  0  0  0
 14  3  1  0  0  0  0
 15 17  1  0  0  0  0
 15 16  1  0  0  0  0
 17 16  1  0  0  0  0
 17 18  1  0  0  0  0
 19 20  1  0  0  0  0
 20 18  1  0  0  0  0
 20 21  1  0  0  0  0
 21 22  1  0  0  0  0
 22 24  1  0  0  0  0
 23 22  2  0  0  0  0
 23 27  1  0  0  0  0
 24 25  1  0  0  0  0
 27 26  3  0  0  0  0
 28 29  1  0  0  0  0
 30 31  2  0  0  0  0
 31 29  1  0  0  0  0
 33 34  1  0  0  0  0
 33 32  1  0  0  0  0
 34 31  1  0  0  0  0
 34 32  1  0  0  0  0
 35 37  1  0  0  0  0
 35 33  1  0  0  0  0
 36 37  2  0  0  0  0
M  END
>  <MODEL>
5

>  <REMARK>
 VINA RESULT:      -6.1      2.420      8.650
  Name = 
  10 active torsions:
  status: ('A' for Active; 'I' for Inactive)
    1  A    between atoms: N_3  and  C_10
    2  A    between atoms: O_4  and  C_15
    3  A    between atoms: C_8  and  C_29
    4  A    between atoms: N_11  and  C_31
    5  A    between atoms: C_13  and  C_29
    6  A    between atoms: C_13  and  C_31
    7  A    between atoms: C_16  and  C_21
    8  A    between atoms: C_16  and  C_34
    9  A    between atoms: C_19  and  N_27
   10  A    between atoms: C_23  and  C_34
                            x       y       z     vdW  Elec       q    Type
                         _______ _______ _______ _____ _____    ______ ____

>  <TORSDO>
F 10

$$$$
=
 OpenBabel11062412253D

 37 42  0  0  1  0  0  0  0  0999 V2000
  184.5160  178.6000  141.7720 N   0  0  0  0  0  0  0  0  0  0  0  0
  187.8600  177.9700  143.0510 C   0  0  1  0  0  3  0  0  0  0  0  0
  189.7510  176.4720  141.9520 C   0  0  1  0  0  3  0  0  0  0  0  0
  187.5150  177.1270  144.2980 C   0  0  0  0  0  2  0  0  0  0  0  0
  185.8370  178.6720  141.5000 C   0  0  0  0  0  0  0  0  0  0  0  0
  185.6010  178.3250  143.6170 C   0  0  1  0  0  3  0  0  0  0  0  0
  187.5640  177.9220  139.7040 C   0  0  1  0  0  3  0  0  0  0  0  0
  188.3650  177.1190  141.8990 C   0  0  2  0  0  3  0  0  0  0  0  0
  188.6900  178.0150  140.7260 C   0  0  1  0  0  3  0  0  0  0  0  0
  186.3590  178.6280  140.1600 N   0  0  0  0  0  2  0  0  0  0  0  0
  186.5390  178.5330  142.6870 C   0  0  1  0  0  3  0  0  0  0  0  0
  184.3710  178.3450  143.0690 N   0  0  0  0  0  2  0  0  0  0  0  0
  186.0820  177.5030  144.7420 C   0  0  0  0  0  2  0  0  0  0  0  0
  190.2750  177.1350  140.2820 P   0  0  0  0  0  2  0  0  0  0  0  0
  191.9340  177.6880  142.5660 C   0  0  0  0  0  2  0  0  0  0  0  0
  190.7570  178.5090  143.0810 C   0  0  0  0  0  2  0  0  0  0  0  0
  190.6770  176.9980  143.0580 C   0  0  0  0  0  0  0  0  0  0  0  0
  190.7030  176.3150  144.4410 C   0  0  0  0  0  2  0  0  0  0  0  0
  192.0550  174.2350  144.7220 C   0  0  0  0  0  1  0  0  0  0  0  0
  192.0560  175.7460  144.8680 C   0  0  2  0  0  3  0  0  0  0  0  0
  192.3860  176.1290  146.2400 N   0  0  0  0  0  2  0  0  0  0  0  0
  191.4700  176.7070  147.1820 C   0  0  0  0  0  0  0  0  0  0  0  0
  190.2340  176.9170  146.8440 N   0  0  0  0  0  0  0  0  0  0  0  0
  191.9120  177.0470  148.4650 O   0  0  0  0  0  0  0  0  0  0  0  0
  193.0180  176.3970  149.0720 C   0  0  0  0  0  1  0  0  0  0  0  0
  188.5200  177.9480  148.4420 N   0  0  0  0  0  0  0  0  0  0  0  0
  189.2940  177.4830  147.7210 C   0  0  0  0  0  0  0  0  0  0  0  0
  189.0570  179.3200  138.4460 O   0  0  0  0  0  1  0  0  0  0  0  0
  187.9900  178.4290  138.3200 C   0  0  1  0  0  3  0  0  0  0  0  0
  189.4720  177.3620  136.6930 C   0  0  0  0  0  2  0  0  0  0  0  0
  188.3100  177.3150  137.3460 C   0  0  0  0  0  0  0  0  0  0  0  0
  186.2970  176.1630  136.5840 N   0  0  0  0  0  2  0  0  0  0  0  0
  187.4540  175.4730  135.9980 C   0  0  1  0  0  3  0  0  0  0  0  0
  187.5440  176.0200  137.3520 C   0  0  1  0  0  3  0  0  0  0  0  0
  187.2440  174.0400  136.0710 N   0  0  0  0  0  2  0  0  0  0  0  0
  187.9390  171.9880  136.9090 O   0  0  0  0  0  0  0  0  0  0  0  0
  188.1210  173.2320  136.8450 C   0  0  0  0  0  3  0  0  0  0  0  0
  1 12  1  0  0  0  0
  2  4  1  1  0  0  0
  3 17  1  1  0  0  0
  4 13  1  0  0  0  0
  5  1  2  0  0  0  0
  5 11  1  0  0  0  0
  6 13  1  6  0  0  0
  7 29  1  6  0  0  0
  7 10  1  0  0  0  0
  7  9  1  0  0  0  0
  8  3  1  0  0  0  0
  8  2  1  0  0  0  0
  9  8  1  0  0  0  0
 10  5  1  0  0  0  0
 11  2  1  0  0  0  0
 11  6  1  0  0  0  0
 12  6  1  0  0  0  0
 14  9  1  0  0  0  0
 14  3  1  0  0  0  0
 15 17  1  0  0  0  0
 15 16  1  0  0  0  0
 17 16  1  0  0  0  0
 17 18  1  0  0  0  0
 18 20  1  0  0  0  0
 19 20  1  0  0  0  0
 20 21  1  0  0  0  0
 21 22  1  0  0  0  0
 22 24  1  0  0  0  0
 23 22  2  0  0  0  0
 23 27  1  0  0  0  0
 24 25  1  0  0  0  0
 27 26  3  0  0  0  0
 29 28  1  0  0  0  0
 30 31  2  0  0  0  0
 31 34  1  0  0  0  0
 31 29  1  0  0  0  0
 32 34  1  0  0  0  0
 33 35  1  0  0  0  0
 33 32  1  0  0  0  0
 33 34  1  0  0  0  0
 35 37  1  0  0  0  0
 37 36  2  0  0  0  0
M  END
>  <MODEL>
6

>  <REMARK>
 VINA RESULT:      -6.0      2.808      8.629
  Name = 
  10 active torsions:
  status: ('A' for Active; 'I' for Inactive)
    1  A    between atoms: N_3  and  C_10
    2  A    between atoms: O_4  and  C_15
    3  A    between atoms: C_8  and  C_29
    4  A    between atoms: N_11  and  C_31
    5  A    between atoms: C_13  and  C_29
    6  A    between atoms: C_13  and  C_31
    7  A    between atoms: C_16  and  C_21
    8  A    between atoms: C_16  and  C_34
    9  A    between atoms: C_19  and  N_27
   10  A    between atoms: C_23  and  C_34
                            x       y       z     vdW  Elec       q    Type
                         _______ _______ _______ _____ _____    ______ ____

>  <TORSDO>
F 10

$$$$
=
 OpenBabel11062412253D

 37 42  0  0  1  0  0  0  0  0999 V2000
  191.5800  176.3360  136.2790 N   0  0  0  0  0  0  0  0  0  0  0  0
  190.7890  176.8050  139.7950 C   0  0  1  0  0  3  0  0  0  0  0  0
  189.0560  178.5160  140.8440 C   0  0  1  0  0  3  0  0  0  0  0  0
  192.1210  177.4070  140.2920 C   0  0  0  0  0  2  0  0  0  0  0  0
  190.5920  176.3430  137.2000 C   0  0  0  0  0  0  0  0  0  0  0  0
  192.4840  176.3040  138.2380 C   0  0  1  0  0  3  0  0  0  0  0  0
  188.2760  177.4370  137.6560 C   0  0  1  0  0  3  0  0  0  0  0  0
  189.7070  177.8580  139.6260 C   0  0  2  0  0  3  0  0  0  0  0  0
  188.4370  177.1900  139.1510 C   0  0  1  0  0  3  0  0  0  0  0  0
  189.2230  176.6340  136.8700 N   0  0  0  0  0  2  0  0  0  0  0  0
  191.1650  176.2860  138.4600 C   0  0  1  0  0  3  0  0  0  0  0  0
  192.7460  176.3540  136.9180 N   0  0  0  0  0  2  0  0  0  0  0  0
  193.2420  176.9250  139.3400 C   0  0  0  0  0  2  0  0  0  0  0  0
  187.3090  178.1700  140.2690 P   0  0  0  0  0  2  0  0  0  0  0  0
  188.1150  177.6410  143.0730 C   0  0  0  0  0  2  0  0  0  0  0  0
  188.6770  176.4630  142.2850 C   0  0  0  0  0  2  0  0  0  0  0  0
  189.3310  177.8240  142.1880 C   0  0  0  0  0  0  0  0  0  0  0  0
  190.7170  177.9380  142.8520 C   0  0  0  0  0  2  0  0  0  0  0  0
  191.6850  179.6930  144.3420 C   0  0  0  0  0  1  0  0  0  0  0  0
  190.7240  178.5210  144.2660 C   0  0  2  0  0  3  0  0  0  0  0  0
  191.0720  177.5060  145.2590 N   0  0  0  0  0  2  0  0  0  0  0  0
  190.3330  177.2330  146.4600 C   0  0  0  0  0  0  0  0  0  0  0  0
  189.2540  177.9030  146.7280 N   0  0  0  0  0  0  0  0  0  0  0  0
  190.7800  176.2430  147.3410 O   0  0  0  0  0  0  0  0  0  0  0  0
  192.1290  175.8030  147.3530 C   0  0  0  0  0  1  0  0  0  0  0  0
  187.8670  177.5020  148.8420 N   0  0  0  0  0  0  0  0  0  0  0  0
  188.4940  177.6830  147.8870 C   0  0  0  0  0  0  0  0  0  0  0  0
  186.3790  178.3040  136.4650 O   0  0  0  0  0  1  0  0  0  0  0  0
  186.8390  177.1930  137.1750 C   0  0  1  0  0  3  0  0  0  0  0  0
  186.5220  176.0190  135.0540 C   0  0  0  0  0  2  0  0  0  0  0  0
  186.6840  175.9180  136.3740 C   0  0  0  0  0  0  0  0  0  0  0  0
  185.8320  173.8700  137.3930 N   0  0  0  0  0  2  0  0  0  0  0  0
  186.4870  173.5010  136.1300 C   0  0  1  0  0  3  0  0  0  0  0  0
  187.0460  174.5760  136.9500 C   0  0  1  0  0  3  0  0  0  0  0  0
  187.2640  172.2930  136.3290 N   0  0  0  0  0  2  0  0  0  0  0  0
  187.8320  170.1700  135.5760 O   0  0  0  0  0  0  0  0  0  0  0  0
  187.1580  171.2190  135.4040 C   0  0  0  0  0  3  0  0  0  0  0  0
  1 12  1  0  0  0  0
  1  5  2  0  0  0  0
  2  4  1  6  0  0  0
  3 17  1  1  0  0  0
  5 11  1  0  0  0  0
  6 11  1  0  0  0  0
  6 13  1  1  0  0  0
  7 29  1  6  0  0  0
  7  9  1  0  0  0  0
  8  2  1  0  0  0  0
  8  3  1  0  0  0  0
  9  8  1  0  0  0  0
  9 14  1  0  0  0  0
 10  5  1  0  0  0  0
 10  7  1  0  0  0  0
 11  2  1  0  0  0  0
 12  6  1  0  0  0  0
 13  4  1  0  0  0  0
 14  3  1  0  0  0  0
 16 15  1  0  0  0  0
 17 16  1  0  0  0  0
 17 18  1  0  0  0  0
 17 15  1  0  0  0  0
 18 20  1  0  0  0  0
 20 19  1  0  0  0  0
 20 21  1  0  0  0  0
 21 22  1  0  0  0  0
 22 23  2  0  0  0  0
 22 24  1  0  0  0  0
 23 27  1  0  0  0  0
 24 25  1  0  0  0  0
 27 26  3  0  0  0  0
 28 29  1  0  0  0  0
 30 31  2  0  0  0  0
 31 34  1  0  0  0  0
 31 29  1  0  0  0  0
 33 35  1  0  0  0  0
 33 34  1  0  0  0  0
 33 32  1  0  0  0  0
 34 32  1  0  0  0  0
 37 36  2  0  0  0  0
 37 35  1  0  0  0  0
M  END
>  <MODEL>
7

>  <REMARK>
 VINA RESULT:      -6.0      3.720      9.750
  Name = 
  10 active torsions:
  status: ('A' for Active; 'I' for Inactive)
    1  A    between atoms: N_3  and  C_10
    2  A    between atoms: O_4  and  C_15
    3  A    between atoms: C_8  and  C_29
    4  A    between atoms: N_11  and  C_31
    5  A    between atoms: C_13  and  C_29
    6  A    between atoms: C_13  and  C_31
    7  A    between atoms: C_16  and  C_21
    8  A    between atoms: C_16  and  C_34
    9  A    between atoms: C_19  and  N_27
   10  A    between atoms: C_23  and  C_34
                            x       y       z     vdW  Elec       q    Type
                         _______ _______ _______ _____ _____    ______ ____

>  <TORSDO>
F 10

$$$$
=
 OpenBabel11062412253D

 37 42  0  0  1  0  0  0  0  0999 V2000
  184.9340  178.8810  146.8150 N   0  0  0  0  0  0  0  0  0  0  0  0
  187.9920  177.9370  145.0920 C   0  0  1  0  0  3  0  0  0  0  0  0
  188.2120  176.5820  142.8240 C   0  0  1  0  0  3  0  0  0  0  0  0
  188.5580  176.9100  146.0960 C   0  0  0  0  0  2  0  0  0  0  0  0
  185.6170  178.9540  145.6520 C   0  0  0  0  0  0  0  0  0  0  0  0
  186.9690  178.2670  147.1880 C   0  0  1  0  0  3  0  0  0  0  0  0
  185.3250  178.4570  143.1150 C   0  0  1  0  0  3  0  0  0  0  0  0
  187.3530  177.2730  143.8840 C   0  0  2  0  0  3  0  0  0  0  0  0
  186.8350  178.3410  142.9490 C   0  0  1  0  0  3  0  0  0  0  0  0
  184.9680  179.1170  144.3780 N   0  0  0  0  0  2  0  0  0  0  0  0
  186.9340  178.5960  145.8920 C   0  0  1  0  0  3  0  0  0  0  0  0
  185.7560  178.4180  147.7530 N   0  0  0  0  0  2  0  0  0  0  0  0
  187.9950  177.2540  147.4950 C   0  0  0  0  0  2  0  0  0  0  0  0
  187.4260  177.4960  141.3930 P   0  0  0  0  0  2  0  0  0  0  0  0
  190.3130  176.8130  144.2910 C   0  0  0  0  0  2  0  0  0  0  0  0
  190.5330  175.6760  143.3000 C   0  0  0  0  0  2  0  0  0  0  0  0
  189.7160  176.8850  142.9000 C   0  0  0  0  0  0  0  0  0  0  0  0
  190.3760  177.8120  141.8600 C   0  0  0  0  0  2  0  0  0  0  0  0
  192.5390  177.5050  140.6490 C   0  0  0  0  0  1  0  0  0  0  0  0
  191.0760  177.1050  140.6980 C   0  0  2  0  0  3  0  0  0  0  0  0
  190.4200  177.3970  139.4240 N   0  0  0  0  0  2  0  0  0  0  0  0
  190.3720  176.5130  138.2940 C   0  0  0  0  0  0  0  0  0  0  0  0
  190.9290  175.3420  138.3590 N   0  0  0  0  0  0  0  0  0  0  0  0
  189.7240  176.9160  137.1210 O   0  0  0  0  0  0  0  0  0  0  0  0
  188.6110  177.7970  137.1450 C   0  0  0  0  0  1  0  0  0  0  0  0
  190.9100  173.6930  136.4010 N   0  0  0  0  0  0  0  0  0  0  0  0
  190.9180  174.4380  137.2850 C   0  0  0  0  0  0  0  0  0  0  0  0
  185.5400  179.2170  140.8470 O   0  0  0  0  0  1  0  0  0  0  0  0
  184.6610  179.1730  141.9310 C   0  0  1  0  0  3  0  0  0  0  0  0
  183.3160  177.6000  140.6300 C   0  0  0  0  0  2  0  0  0  0  0  0
  183.3270  178.5740  141.5400 C   0  0  0  0  0  0  0  0  0  0  0  0
  181.1890  179.7410  141.7040 N   0  0  0  0  0  2  0  0  0  0  0  0
  180.9080  178.2990  141.6680 C   0  0  1  0  0  3  0  0  0  0  0  0
  182.0930  178.7910  142.3730 C   0  0  1  0  0  3  0  0  0  0  0  0
  179.8700  177.9890  142.6320 N   0  0  0  0  0  2  0  0  0  0  0  0
  178.9320  178.4000  144.7170 O   0  0  0  0  0  0  0  0  0  0  0  0
  179.8330  178.6690  143.8800 C   0  0  0  0  0  3  0  0  0  0  0  0
  1 12  1  0  0  0  0
  2 11  1  0  0  0  0
  2  4  1  1  0  0  0
  3 17  1  1  0  0  0
  3  8  1  0  0  0  0
  4 13  1  0  0  0  0
  5 11  1  0  0  0  0
  5  1  2  0  0  0  0
  6 13  1  6  0  0  0
  6 12  1  0  0  0  0
  7 29  1  6  0  0  0
  7 10  1  0  0  0  0
  8  2  1  0  0  0  0
  9  7  1  0  0  0  0
  9  8  1  0  0  0  0
 10  5  1  0  0  0  0
 11  6  1  0  0  0  0
 14  3  1  0  0  0  0
 14  9  1  0  0  0  0
 16 15  1  0  0  0  0
 17 16  1  0  0  0  0
 17 15  1  0  0  0  0
 18 17  1  0  0  0  0
 19 20  1  0  0  0  0
 20 18  1  0  0  0  0
 21 20  1  0  0  0  0
 22 23  2  0  0  0  0
 22 21  1  0  0  0  0
 24 25  1  0  0  0  0
 24 22  1  0  0  0  0
 26 27  3  0  0  0  0
 27 23  1  0  0  0  0
 28 29  1  0  0  0  0
 30 31  2  0  0  0  0
 31 29  1  0  0  0  0
 31 34  1  0  0  0  0
 32 34  1  0  0  0  0
 33 32  1  0  0  0  0
 33 34  1  0  0  0  0
 33 35  1  0  0  0  0
 35 37  1  0  0  0  0
 37 36  2  0  0  0  0
M  END
>  <MODEL>
8

>  <REMARK>
 VINA RESULT:      -5.9      3.616      7.141
  Name = 
  10 active torsions:
  status: ('A' for Active; 'I' for Inactive)
    1  A    between atoms: N_3  and  C_10
    2  A    between atoms: O_4  and  C_15
    3  A    between atoms: C_8  and  C_29
    4  A    between atoms: N_11  and  C_31
    5  A    between atoms: C_13  and  C_29
    6  A    between atoms: C_13  and  C_31
    7  A    between atoms: C_16  and  C_21
    8  A    between atoms: C_16  and  C_34
    9  A    between atoms: C_19  and  N_27
   10  A    between atoms: C_23  and  C_34
                            x       y       z     vdW  Elec       q    Type
                         _______ _______ _______ _____ _____    ______ ____

>  <TORSDO>
F 10

$$$$
=
 OpenBabel11062412253D

 37 42  0  0  1  0  0  0  0  0999 V2000
  184.0300  178.9790  139.5940 N   0  0  0  0  0  0  0  0  0  0  0  0
  186.9140  178.4260  141.7350 C   0  0  1  0  0  3  0  0  0  0  0  0
  188.9660  176.8080  141.2910 C   0  0  1  0  0  3  0  0  0  0  0  0
  186.2340  177.7070  142.9210 C   0  0  0  0  0  2  0  0  0  0  0  0
  185.3780  179.0080  139.6640 C   0  0  0  0  0  0  0  0  0  0  0  0
  184.6000  178.8630  141.6720 C   0  0  1  0  0  3  0  0  0  0  0  0
  187.4750  178.0710  138.4420 C   0  0  1  0  0  3  0  0  0  0  0  0
  187.6640  177.4650  140.8290 C   0  0  2  0  0  3  0  0  0  0  0  0
  188.3080  178.2440  139.7060 C   0  0  1  0  0  3  0  0  0  0  0  0
  186.2200  178.8320  138.5110 N   0  0  0  0  0  2  0  0  0  0  0  0
  185.7500  178.9700  140.9980 C   0  0  1  0  0  3  0  0  0  0  0  0
  183.5510  178.8470  140.8280 N   0  0  0  0  0  2  0  0  0  0  0  0
  184.7490  178.1420  142.9500 C   0  0  0  0  0  2  0  0  0  0  0  0
  189.9200  177.3060  139.7600 P   0  0  0  0  0  2  0  0  0  0  0  0
  190.9090  178.1490  142.3140 C   0  0  0  0  0  2  0  0  0  0  0  0
  189.6180  178.9350  142.5100 C   0  0  0  0  0  2  0  0  0  0  0  0
  189.6000  177.4220  142.5480 C   0  0  0  0  0  0  0  0  0  0  0  0
  189.3390  176.8000  143.9340 C   0  0  0  0  0  2  0  0  0  0  0  0
  191.5140  177.1120  145.1210 C   0  0  0  0  0  1  0  0  0  0  0  0
  190.0430  177.4850  145.1060 C   0  0  2  0  0  3  0  0  0  0  0  0
  189.4130  177.1410  146.3800 N   0  0  0  0  0  2  0  0  0  0  0  0
  188.0930  177.5350  146.7850 C   0  0  0  0  0  0  0  0  0  0  0  0
  187.3510  178.2430  145.9890 N   0  0  0  0  0  0  0  0  0  0  0  0
  187.6070  177.1540  148.0400 O   0  0  0  0  0  0  0  0  0  0  0  0
  187.9300  177.8770  149.2190 C   0  0  0  0  0  1  0  0  0  0  0  0
  184.9880  179.0020  146.6150 N   0  0  0  0  0  0  0  0  0  0  0  0
  186.0550  178.6600  146.3320 C   0  0  0  0  0  0  0  0  0  0  0  0
  189.3950  179.1740  137.5130 O   0  0  0  0  0  1  0  0  0  0  0  0
  188.2560  178.4410  137.1730 C   0  0  1  0  0  3  0  0  0  0  0  0
  189.6940  177.3120  135.5500 C   0  0  0  0  0  2  0  0  0  0  0  0
  188.6020  177.2460  136.3120 C   0  0  0  0  0  0  0  0  0  0  0  0
  186.6760  175.8180  135.8520 N   0  0  0  0  0  2  0  0  0  0  0  0
  187.8620  175.1620  135.2850 C   0  0  1  0  0  3  0  0  0  0  0  0
  187.9720  175.8990  136.5450 C   0  0  1  0  0  3  0  0  0  0  0  0
  187.8010  173.7400  135.5650 N   0  0  0  0  0  2  0  0  0  0  0  0
  187.9300  172.0340  137.1350 O   0  0  0  0  0  0  0  0  0  0  0  0
  187.9830  173.2680  136.8930 C   0  0  0  0  0  3  0  0  0  0  0  0
  1  5  2  0  0  0  0
  1 12  1  0  0  0  0
  2  4  1  1  0  0  0
  3 17  1  1  0  0  0
  4 13  1  0  0  0  0
  5 11  1  0  0  0  0
  6 13  1  6  0  0  0
  7 29  1  6  0  0  0
  7 10  1  0  0  0  0
  7  9  1  0  0  0  0
  8  3  1  0  0  0  0
  8  2  1  0  0  0  0
  9 14  1  0  0  0  0
  9  8  1  0  0  0  0
 10  5  1  0  0  0  0
 11  6  1  0  0  0  0
 11  2  1  0  0  0  0
 12  6  1  0  0  0  0
 14  3  1  0  0  0  0
 15 16  1  0  0  0  0
 15 17  1  0  0  0  0
 16 17  1  0  0  0  0
 17 18  1  0  0  0  0
 18 20  1  0  0  0  0
 20 19  1  0  0  0  0
 20 21  1  0  0  0  0
 21 22  1  0  0  0  0
 22 24  1  0  0  0  0
 23 27  1  0  0  0  0
 23 22  2  0  0  0  0
 24 25  1  0  0  0  0
 27 26  3  0  0  0  0
 29 28  1  0  0  0  0
 30 31  2  0  0  0  0
 31 34  1  0  0  0  0
 31 29  1  0  0  0  0
 32 34  1  0  0  0  0
 33 35  1  0  0  0  0
 33 32  1  0  0  0  0
 33 34  1  0  0  0  0
 35 37  1  0  0  0  0
 37 36  2  0  0  0  0
M  END
>  <MODEL>
9

>  <REMARK>
 VINA RESULT:      -5.8      2.767      8.156
  Name = 
  10 active torsions:
  status: ('A' for Active; 'I' for Inactive)
    1  A    between atoms: N_3  and  C_10
    2  A    between atoms: O_4  and  C_15
    3  A    between atoms: C_8  and  C_29
    4  A    between atoms: N_11  and  C_31
    5  A    between atoms: C_13  and  C_29
    6  A    between atoms: C_13  and  C_31
    7  A    between atoms: C_16  and  C_21
    8  A    between atoms: C_16  and  C_34
    9  A    between atoms: C_19  and  N_27
   10  A    between atoms: C_23  and  C_34
                            x       y       z     vdW  Elec       q    Type
                         _______ _______ _______ _____ _____    ______ ____

>  <TORSDO>
F 10

$$$$
