=
 OpenBabel11062415593D

 36 41  0  0  1  0  0  0  0  0999 V2000
  184.5780  178.8200  138.9770 C   0  0  0  0  0  3  0  0  0  0  0  0
  184.0570  178.8940  140.2750 C   0  0  0  0  0  0  0  0  0  0  0  0
  186.7510  178.3750  139.8080 C   0  0  0  0  0  0  0  0  0  0  0  0
  185.8940  178.5670  138.7720 N   0  0  0  0  0  0  0  0  0  0  0  0
  184.9280  178.7090  141.3840 C   0  0  0  0  0  0  0  0  0  0  0  0
  186.2820  178.4440  141.1190 C   0  0  0  0  0  3  0  0  0  0  0  0
  184.9860  178.7950  145.1980 C   0  0  0  0  0  0  0  0  0  0  0  0
  183.1370  178.9180  143.1340 C   0  0  0  0  0  3  0  0  0  0  0  0
  183.6570  178.9120  145.4630 N   0  0  0  0  0  0  0  0  0  0  0  0
  184.4990  178.7970  142.8140 C   0  0  0  0  0  0  0  0  0  0  0  0
  182.7320  178.9740  144.4680 C   0  0  0  0  0  3  0  0  0  0  0  0
  185.4180  178.7280  143.8690 C   0  0  0  0  0  3  0  0  0  0  0  0
  185.7360  179.3910  147.3630 O   0  0  0  0  0  0  0  0  0  0  0  0
  185.9540  178.7390  146.3080 C   0  0  0  0  0  0  0  0  0  0  0  0
  187.1950  177.9140  146.2170 C   0  0  0  0  0  2  0  0  0  0  0  0
  188.9080  178.3000  147.8210 O   0  0  0  0  0  0  0  0  0  0  0  0
  189.0390  176.9390  147.4950 C   0  0  0  0  0  2  0  0  0  0  0  0
  187.7150  177.5870  147.6030 C   0  0  2  0  0  3  0  0  0  0  0  0
  188.4400  178.0310  139.4940 S   0  0  0  0  0  0  0  0  0  0  0  0
  188.5630  176.8390  138.5840 O   0  0  0  0  0  0  0  0  0  0  0  0
  189.0770  179.2190  138.8280 O   0  0  0  0  0  0  0  0  0  0  0  0
  190.5860  177.0950  143.3720 C   0  0  0  0  0  0  0  0  0  0  0  0
  189.6140  178.0990  143.3550 C   0  0  0  0  0  3  0  0  0  0  0  0
  190.8810  176.4140  142.2310 N   0  0  0  0  0  0  0  0  0  0  0  0
  190.2480  176.6840  141.0570 C   0  0  0  0  0  3  0  0  0  0  0  0
  188.9530  178.3900  142.1600 C   0  0  0  0  0  3  0  0  0  0  0  0
  189.2650  177.6780  141.0010 C   0  0  0  0  0  0  0  0  0  0  0  0
  191.2630  176.7780  144.5810 N   0  0  0  0  0  1  0  0  0  0  0  0
  182.5840  179.1390  140.4100 C   0  0  0  0  0  2  0  0  0  0  0  0
  180.4370  177.8190  140.8390 C   0  0  0  0  0  2  0  0  0  0  0  0
  179.8750  176.9880  138.5770 C   0  0  0  0  0  2  0  0  0  0  0  0
  180.9260  176.0180  138.0640 C   0  0  0  0  0  2  0  0  0  0  0  0
  182.5210  176.5640  139.8870 C   0  0  0  0  0  2  0  0  0  0  0  0
  180.4730  178.1670  139.3500 C   0  0  2  0  0  3  0  0  0  0  0  0
  181.7660  177.8850  140.1220 C   0  0  2  0  0  0  0  0  0  0  0  0
  181.6850  175.4600  139.2500 C   0  0  0  0  0  2  0  0  0  0  0  0
  1  2  1  0  0  0  0
  2 29  1  0  0  0  0
  2  5  2  0  0  0  0
  3  6  2  0  0  0  0
  4  1  2  0  0  0  0
  4  3  1  0  0  0  0
  5 10  1  0  0  0  0
  6  5  1  0  0  0  0
  7  9  1  0  0  0  0
  7 14  1  0  0  0  0
  8 11  1  0  0  0  0
 10  8  2  0  0  0  0
 10 12  1  0  0  0  0
 11  9  2  0  0  0  0
 12  7  2  0  0  0  0
 14 13  2  0  0  0  0
 15 14  1  0  0  0  0
 17 18  1  0  0  0  0
 17 16  1  0  0  0  0
 18 15  1  6  0  0  0
 18 16  1  0  0  0  0
 19  3  1  0  0  0  0
 19 27  1  0  0  0  0
 20 19  2  0  0  0  0
 21 19  2  0  0  0  0
 22 28  1  0  0  0  0
 23 22  1  0  0  0  0
 24 22  2  0  0  0  0
 25 24  1  0  0  0  0
 26 23  2  0  0  0  0
 27 25  2  0  0  0  0
 27 26  1  0  0  0  0
 32 31  1  0  0  0  0
 32 36  1  0  0  0  0
 33 35  1  0  0  0  0
 34 31  1  6  0  0  0
 34 35  1  0  0  0  0
 34 30  1  0  0  0  0
 35 29  1  1  0  0  0
 35 30  1  0  0  0  0
 36 33  1  0  0  0  0
M  END
>  <MODEL>
1

>  <REMARK>
 VINA RESULT:      -9.3      0.000      0.000
  Name = 
  8 active torsions:
  status: ('A' for Active; 'I' for Inactive)
    1  A    between atoms: C_1  and  C_27
    2  A    between atoms: C_5  and  C_28
    3  A    between atoms: C_6  and  C_13
    4  A    between atoms: C_6  and  C_34
    5  A    between atoms: S_7  and  C_17
    6  A    between atoms: S_7  and  C_30
    7  A    between atoms: C_20  and  C_24
    8  A    between atoms: C_24  and  C_27
                            x       y       z     vdW  Elec       q    Type
                         _______ _______ _______ _____ _____    ______ ____

>  <TORSDO>
F 8

$$$$
=
 OpenBabel11062415593D

 36 41  0  0  1  0  0  0  0  0999 V2000
  188.8020  176.8940  142.6140 C   0  0  0  0  0  3  0  0  0  0  0  0
  187.6750  177.2600  143.3600 C   0  0  0  0  0  0  0  0  0  0  0  0
  187.8710  177.8100  140.6390 C   0  0  0  0  0  0  0  0  0  0  0  0
  188.8770  177.1720  141.2890 N   0  0  0  0  0  0  0  0  0  0  0  0
  186.5970  177.9200  142.7090 C   0  0  0  0  0  0  0  0  0  0  0  0
  186.7240  178.1900  141.3360 C   0  0  0  0  0  3  0  0  0  0  0  0
  182.9710  178.9310  143.3360 C   0  0  0  0  0  0  0  0  0  0  0  0
  185.3150  178.5590  144.7730 C   0  0  0  0  0  3  0  0  0  0  0  0
  183.0030  179.1420  144.6790 N   0  0  0  0  0  0  0  0  0  0  0  0
  185.3290  178.3300  143.3880 C   0  0  0  0  0  0  0  0  0  0  0  0
  184.1390  178.9670  145.4050 C   0  0  0  0  0  3  0  0  0  0  0  0
  184.1390  178.5300  142.6760 C   0  0  0  0  0  3  0  0  0  0  0  0
  180.8880  179.9950  142.9720 O   0  0  0  0  0  0  0  0  0  0  0  0
  181.7150  179.1250  142.5900 C   0  0  0  0  0  0  0  0  0  0  0  0
  181.3990  178.3180  141.3750 C   0  0  0  0  0  2  0  0  0  0  0  0
  179.4360  177.1550  142.0470 O   0  0  0  0  0  0  0  0  0  0  0  0
  179.5780  176.8370  140.6850 C   0  0  0  0  0  2  0  0  0  0  0  0
  179.8980  178.1830  141.2050 C   0  0  2  0  0  3  0  0  0  0  0  0
  188.0190  178.1660  138.9290 S   0  0  0  0  0  0  0  0  0  0  0  0
  186.7070  178.6690  138.3920 O   0  0  0  0  0  0  0  0  0  0  0  0
  189.0650  179.2250  138.7280 O   0  0  0  0  0  0  0  0  0  0  0  0
  189.2040  174.4160  136.6810 C   0  0  0  0  0  0  0  0  0  0  0  0
  187.8580  174.7930  136.7180 C   0  0  0  0  0  3  0  0  0  0  0  0
  190.1390  175.1700  137.3180 N   0  0  0  0  0  0  0  0  0  0  0  0
  189.8010  176.2980  138.0000 C   0  0  0  0  0  3  0  0  0  0  0  0
  187.4910  175.9470  137.4120 C   0  0  0  0  0  3  0  0  0  0  0  0
  188.4660  176.7110  138.0560 C   0  0  0  0  0  0  0  0  0  0  0  0
  189.5980  173.2490  135.9700 N   0  0  0  0  0  1  0  0  0  0  0  0
  187.6930  176.9490  144.8270 C   0  0  0  0  0  2  0  0  0  0  0  0
  188.8260  178.1390  146.7850 C   0  0  0  0  0  2  0  0  0  0  0  0
  190.7270  176.6340  147.2810 C   0  0  0  0  0  2  0  0  0  0  0  0
  191.7140  176.5870  146.1280 C   0  0  0  0  0  2  0  0  0  0  0  0
  190.1770  177.7730  144.5800 C   0  0  0  0  0  2  0  0  0  0  0  0
  189.2670  176.6760  146.8190 C   0  0  2  0  0  3  0  0  0  0  0  0
  188.9960  177.3830  145.4880 C   0  0  2  0  0  0  0  0  0  0  0  0
  191.5270  177.8310  145.2830 C   0  0  0  0  0  2  0  0  0  0  0  0
  1  2  1  0  0  0  0
  2 29  1  0  0  0  0
  3  4  1  0  0  0  0
  3  6  2  0  0  0  0
  4  1  2  0  0  0  0
  5  2  2  0  0  0  0
  5 10  1  0  0  0  0
  6  5  1  0  0  0  0
  7  9  1  0  0  0  0
  8 11  1  0  0  0  0
  9 11  2  0  0  0  0
 10  8  2  0  0  0  0
 12  7  2  0  0  0  0
 12 10  1  0  0  0  0
 14 13  2  0  0  0  0
 14  7  1  0  0  0  0
 15 14  1  0  0  0  0
 17 18  1  0  0  0  0
 17 16  1  0  0  0  0
 18 15  1  1  0  0  0
 18 16  1  0  0  0  0
 19  3  1  0  0  0  0
 20 19  2  0  0  0  0
 21 19  2  0  0  0  0
 22 23  2  0  0  0  0
 22 24  1  0  0  0  0
 23 26  1  0  0  0  0
 24 25  2  0  0  0  0
 25 27  1  0  0  0  0
 26 27  2  0  0  0  0
 27 19  1  0  0  0  0
 28 22  1  0  0  0  0
 32 31  1  0  0  0  0
 33 36  1  0  0  0  0
 33 35  1  0  0  0  0
 34 30  1  1  0  0  0
 34 31  1  0  0  0  0
 35 29  1  6  0  0  0
 35 30  1  0  0  0  0
 35 34  1  0  0  0  0
 36 32  1  0  0  0  0
M  END
>  <MODEL>
2

>  <REMARK>
 VINA RESULT:      -9.1      3.046      7.184
  Name = 
  8 active torsions:
  status: ('A' for Active; 'I' for Inactive)
    1  A    between atoms: C_1  and  C_27
    2  A    between atoms: C_5  and  C_28
    3  A    between atoms: C_6  and  C_13
    4  A    between atoms: C_6  and  C_34
    5  A    between atoms: S_7  and  C_17
    6  A    between atoms: S_7  and  C_30
    7  A    between atoms: C_20  and  C_24
    8  A    between atoms: C_24  and  C_27
                            x       y       z     vdW  Elec       q    Type
                         _______ _______ _______ _____ _____    ______ ____

>  <TORSDO>
F 8

$$$$
=
 OpenBabel11062415593D

 36 41  0  0  1  0  0  0  0  0999 V2000
  189.3920  176.5850  142.3200 C   0  0  0  0  0  3  0  0  0  0  0  0
  188.2210  176.9730  142.9820 C   0  0  0  0  0  0  0  0  0  0  0  0
  188.6810  177.6300  140.3180 C   0  0  0  0  0  0  0  0  0  0  0  0
  189.5970  176.9160  141.0210 N   0  0  0  0  0  0  0  0  0  0  0  0
  187.2350  177.7120  142.2720 C   0  0  0  0  0  0  0  0  0  0  0  0
  187.4960  178.0350  140.9300 C   0  0  0  0  0  3  0  0  0  0  0  0
  183.5660  178.6860  142.6540 C   0  0  0  0  0  0  0  0  0  0  0  0
  185.8540  178.5140  144.2120 C   0  0  0  0  0  3  0  0  0  0  0  0
  183.5360  179.0270  143.9700 N   0  0  0  0  0  0  0  0  0  0  0  0
  185.9310  178.1530  142.8570 C   0  0  0  0  0  0  0  0  0  0  0  0
  184.6440  178.9510  144.7530 C   0  0  0  0  0  3  0  0  0  0  0  0
  184.7680  178.2530  142.0830 C   0  0  0  0  0  3  0  0  0  0  0  0
  181.2370  179.0300  142.4000 O   0  0  0  0  0  0  0  0  0  0  0  0
  182.3380  178.7750  141.8430 C   0  0  0  0  0  0  0  0  0  0  0  0
  182.3660  178.5810  140.3630 C   0  0  0  0  0  2  0  0  0  0  0  0
  182.8000  176.3120  139.7970 O   0  0  0  0  0  0  0  0  0  0  0  0
  182.2100  176.8510  138.6410 C   0  0  0  0  0  2  0  0  0  0  0  0
  181.7620  177.2400  139.9940 C   0  0  2  0  0  3  0  0  0  0  0  0
  188.9970  178.0520  138.6460 S   0  0  0  0  0  0  0  0  0  0  0  0
  188.9590  179.5460  138.4760 O   0  0  0  0  0  0  0  0  0  0  0  0
  190.3590  177.5520  138.2530 O   0  0  0  0  0  0  0  0  0  0  0  0
  185.8620  176.1740  135.9680 C   0  0  0  0  0  0  0  0  0  0  0  0
  185.6390  177.4520  136.4890 C   0  0  0  0  0  3  0  0  0  0  0  0
  187.0090  175.5080  136.2710 N   0  0  0  0  0  0  0  0  0  0  0  0
  187.9600  176.0560  137.0760 C   0  0  0  0  0  3  0  0  0  0  0  0
  186.6030  178.0320  137.3150 C   0  0  0  0  0  3  0  0  0  0  0  0
  187.7760  177.3350  137.6110 C   0  0  0  0  0  0  0  0  0  0  0  0
  184.8960  175.5720  135.1170 N   0  0  0  0  0  1  0  0  0  0  0  0
  188.0940  176.5980  144.4280 C   0  0  0  0  0  2  0  0  0  0  0  0
  189.2170  178.4980  145.7190 C   0  0  0  0  0  2  0  0  0  0  0  0
  190.1160  177.3220  147.7020 C   0  0  0  0  0  2  0  0  0  0  0  0
  191.1910  176.3200  147.3140 C   0  0  0  0  0  2  0  0  0  0  0  0
  190.6800  176.4980  144.8910 C   0  0  0  0  0  2  0  0  0  0  0  0
  188.9500  177.3640  146.7090 C   0  0  2  0  0  3  0  0  0  0  0  0
  189.2930  177.0640  145.2480 C   0  0  2  0  0  0  0  0  0  0  0  0
  191.7450  176.7100  145.9600 C   0  0  0  0  0  2  0  0  0  0  0  0
  1  2  1  0  0  0  0
  2 29  1  0  0  0  0
  3  6  2  0  0  0  0
  3  4  1  0  0  0  0
  4  1  2  0  0  0  0
  5 10  1  0  0  0  0
  5  2  2  0  0  0  0
  6  5  1  0  0  0  0
  7  9  1  0  0  0  0
  8 11  1  0  0  0  0
  9 11  2  0  0  0  0
 10  8  2  0  0  0  0
 12  7  2  0  0  0  0
 12 10  1  0  0  0  0
 14 13  2  0  0  0  0
 14  7  1  0  0  0  0
 15 14  1  0  0  0  0
 16 18  1  0  0  0  0
 17 16  1  0  0  0  0
 17 18  1  0  0  0  0
 18 15  1  1  0  0  0
 19  3  1  0  0  0  0
 20 19  2  0  0  0  0
 21 19  2  0  0  0  0
 22 24  2  0  0  0  0
 22 23  1  0  0  0  0
 23 26  2  0  0  0  0
 24 25  1  0  0  0  0
 25 27  2  0  0  0  0
 26 27  1  0  0  0  0
 27 19  1  0  0  0  0
 28 22  1  0  0  0  0
 32 31  1  0  0  0  0
 33 35  1  0  0  0  0
 33 36  1  0  0  0  0
 34 30  1  6  0  0  0
 34 31  1  0  0  0  0
 35 29  1  6  0  0  0
 35 30  1  0  0  0  0
 35 34  1  0  0  0  0
 36 32  1  0  0  0  0
M  END
>  <MODEL>
3

>  <REMARK>
 VINA RESULT:      -9.0      2.574      7.411
  Name = 
  8 active torsions:
  status: ('A' for Active; 'I' for Inactive)
    1  A    between atoms: C_1  and  C_27
    2  A    between atoms: C_5  and  C_28
    3  A    between atoms: C_6  and  C_13
    4  A    between atoms: C_6  and  C_34
    5  A    between atoms: S_7  and  C_17
    6  A    between atoms: S_7  and  C_30
    7  A    between atoms: C_20  and  C_24
    8  A    between atoms: C_24  and  C_27
                            x       y       z     vdW  Elec       q    Type
                         _______ _______ _______ _____ _____    ______ ____

>  <TORSDO>
F 8

$$$$
=
 OpenBabel11062415593D

 36 41  0  0  1  0  0  0  0  0999 V2000
  183.6850  179.2970  144.9270 C   0  0  0  0  0  3  0  0  0  0  0  0
  184.6010  179.1660  143.8760 C   0  0  0  0  0  0  0  0  0  0  0  0
  181.8710  178.7960  143.4900 C   0  0  0  0  0  0  0  0  0  0  0  0
  182.3580  179.1120  144.7170 N   0  0  0  0  0  0  0  0  0  0  0  0
  184.1240  178.8470  142.5750 C   0  0  0  0  0  0  0  0  0  0  0  0
  182.7410  178.6600  142.4100 C   0  0  0  0  0  3  0  0  0  0  0  0
  187.1720  178.3990  140.3240 C   0  0  0  0  0  0  0  0  0  0  0  0
  184.4440  178.8390  140.0830 C   0  0  0  0  0  3  0  0  0  0  0  0
  186.5950  178.5260  139.0990 N   0  0  0  0  0  0  0  0  0  0  0  0
  184.9970  178.7150  141.3680 C   0  0  0  0  0  0  0  0  0  0  0  0
  185.2610  178.7420  138.9560 C   0  0  0  0  0  3  0  0  0  0  0  0
  186.3770  178.5000  141.4710 C   0  0  0  0  0  3  0  0  0  0  0  0
  189.3450  178.2120  139.4030 O   0  0  0  0  0  0  0  0  0  0  0  0
  188.6220  178.1580  140.4330 C   0  0  0  0  0  0  0  0  0  0  0  0
  189.2650  177.8570  141.7460 C   0  0  0  0  0  2  0  0  0  0  0  0
  190.1960  175.7920  142.4680 O   0  0  0  0  0  0  0  0  0  0  0  0
  191.1610  176.7500  142.8250 C   0  0  0  0  0  2  0  0  0  0  0  0
  190.3890  176.8560  141.5690 C   0  0  2  0  0  3  0  0  0  0  0  0
  180.1490  178.5480  143.2700 S   0  0  0  0  0  0  0  0  0  0  0  0
  179.6810  177.4010  144.1240 O   0  0  0  0  0  0  0  0  0  0  0  0
  179.4090  179.7910  143.6770 O   0  0  0  0  0  0  0  0  0  0  0  0
  179.2760  177.6150  138.9240 C   0  0  0  0  0  0  0  0  0  0  0  0
  179.4380  176.5620  139.8290 C   0  0  0  0  0  3  0  0  0  0  0  0
  179.3860  178.9020  139.3510 N   0  0  0  0  0  0  0  0  0  0  0  0
  179.6510  179.2000  140.6530 C   0  0  0  0  0  3  0  0  0  0  0  0
  179.7090  176.8470  141.1680 C   0  0  0  0  0  3  0  0  0  0  0  0
  179.8130  178.1740  141.5900 C   0  0  0  0  0  0  0  0  0  0  0  0
  178.9910  177.3430  137.5590 N   0  0  0  0  0  1  0  0  0  0  0  0
  186.0530  179.3490  144.2050 C   0  0  0  0  0  2  0  0  0  0  0  0
  186.5610  176.9170  144.8050 C   0  0  0  0  0  2  0  0  0  0  0  0
  188.6660  177.1250  146.0900 C   0  0  0  0  0  2  0  0  0  0  0  0
  188.4530  177.8920  147.3850 C   0  0  0  0  0  2  0  0  0  0  0  0
  186.1760  178.6370  146.7330 C   0  0  0  0  0  2  0  0  0  0  0  0
  187.8690  177.7000  144.9150 C   0  0  2  0  0  3  0  0  0  0  0  0
  186.5300  178.3570  145.2600 C   0  0  2  0  0  0  0  0  0  0  0  0
  186.9830  177.8310  147.7430 C   0  0  0  0  0  2  0  0  0  0  0  0
  2 29  1  0  0  0  0
  2  1  2  0  0  0  0
  3  4  2  0  0  0  0
  4  1  1  0  0  0  0
  5  2  1  0  0  0  0
  6  5  2  0  0  0  0
  6  3  1  0  0  0  0
  7 14  1  0  0  0  0
  7 12  1  0  0  0  0
  8 10  1  0  0  0  0
  9  7  2  0  0  0  0
 10 12  2  0  0  0  0
 10  5  1  0  0  0  0
 11  9  1  0  0  0  0
 11  8  2  0  0  0  0
 13 14  2  0  0  0  0
 14 15  1  0  0  0  0
 16 17  1  0  0  0  0
 18 15  1  1  0  0  0
 18 16  1  0  0  0  0
 18 17  1  0  0  0  0
 19  3  1  0  0  0  0
 19 21  2  0  0  0  0
 19 20  2  0  0  0  0
 22 24  2  0  0  0  0
 22 23  1  0  0  0  0
 23 26  2  0  0  0  0
 24 25  1  0  0  0  0
 25 27  2  0  0  0  0
 26 27  1  0  0  0  0
 27 19  1  0  0  0  0
 28 22  1  0  0  0  0
 30 35  1  0  0  0  0
 31 32  1  0  0  0  0
 32 36  1  0  0  0  0
 33 36  1  0  0  0  0
 34 30  1  6  0  0  0
 34 35  1  0  0  0  0
 34 31  1  0  0  0  0
 35 29  1  6  0  0  0
 35 33  1  0  0  0  0
M  END
>  <MODEL>
4

>  <REMARK>
 VINA RESULT:      -8.9      3.042      8.209
  Name = 
  8 active torsions:
  status: ('A' for Active; 'I' for Inactive)
    1  A    between atoms: C_1  and  C_27
    2  A    between atoms: C_5  and  C_28
    3  A    between atoms: C_6  and  C_13
    4  A    between atoms: C_6  and  C_34
    5  A    between atoms: S_7  and  C_17
    6  A    between atoms: S_7  and  C_30
    7  A    between atoms: C_20  and  C_24
    8  A    between atoms: C_24  and  C_27
                            x       y       z     vdW  Elec       q    Type
                         _______ _______ _______ _____ _____    ______ ____

>  <TORSDO>
F 8

$$$$
=
 OpenBabel11062415593D

 36 41  0  0  1  0  0  0  0  0999 V2000
  188.8870  178.3220  139.7270 C   0  0  0  0  0  3  0  0  0  0  0  0
  189.5740  177.7320  138.6600 C   0  0  0  0  0  0  0  0  0  0  0  0
  190.0570  176.9910  141.2970 C   0  0  0  0  0  0  0  0  0  0  0  0
  189.1380  177.9460  141.0060 N   0  0  0  0  0  0  0  0  0  0  0  0
  190.5360  176.7210  138.9270 C   0  0  0  0  0  0  0  0  0  0  0  0
  190.7640  176.3690  140.2680 C   0  0  0  0  0  3  0  0  0  0  0  0
  193.2270  175.7760  136.3930 C   0  0  0  0  0  0  0  0  0  0  0  0
  190.7900  174.8170  137.3070 C   0  0  0  0  0  3  0  0  0  0  0  0
  192.6890  174.6400  135.8730 N   0  0  0  0  0  0  0  0  0  0  0  0
  191.3080  175.9940  137.8730 C   0  0  0  0  0  0  0  0  0  0  0  0
  191.4970  174.1520  136.3040 C   0  0  0  0  0  3  0  0  0  0  0  0
  192.5360  176.4680  137.3940 C   0  0  0  0  0  3  0  0  0  0  0  0
  194.7950  177.4960  135.9560 O   0  0  0  0  0  0  0  0  0  0  0  0
  194.5270  176.2660  135.9010 C   0  0  0  0  0  0  0  0  0  0  0  0
  195.5510  175.3330  135.3430 C   0  0  0  0  0  2  0  0  0  0  0  0
  197.5420  175.8320  136.5430 O   0  0  0  0  0  0  0  0  0  0  0  0
  197.8450  174.6490  135.8460 C   0  0  0  0  0  2  0  0  0  0  0  0
  196.5080  174.8860  136.4300 C   0  0  2  0  0  3  0  0  0  0  0  0
  190.3630  176.5490  142.9660 S   0  0  0  0  0  0  0  0  0  0  0  0
  190.5750  175.0640  143.0750 O   0  0  0  0  0  0  0  0  0  0  0  0
  191.5980  177.2540  143.4510 O   0  0  0  0  0  0  0  0  0  0  0  0
  186.7960  177.6980  145.5110 C   0  0  0  0  0  0  0  0  0  0  0  0
  188.0850  177.9520  145.9880 C   0  0  0  0  0  3  0  0  0  0  0  0
  186.6240  177.1100  144.2970 N   0  0  0  0  0  0  0  0  0  0  0  0
  187.6840  176.7560  143.5200 C   0  0  0  0  0  3  0  0  0  0  0  0
  189.1850  177.5970  145.2060 C   0  0  0  0  0  3  0  0  0  0  0  0
  188.9890  176.9980  143.9600 C   0  0  0  0  0  0  0  0  0  0  0  0
  185.6630  178.0620  146.2890 N   0  0  0  0  0  1  0  0  0  0  0  0
  189.2620  178.2360  137.2820 C   0  0  0  0  0  2  0  0  0  0  0  0
  187.5870  178.0050  135.3650 C   0  0  0  0  0  2  0  0  0  0  0  0
  187.9760  175.6810  134.6090 C   0  0  0  0  0  2  0  0  0  0  0  0
  187.5980  174.6760  135.6840 C   0  0  0  0  0  2  0  0  0  0  0  0
  187.3630  176.4240  137.4320 C   0  0  0  0  0  2  0  0  0  0  0  0
  188.6580  176.9320  135.1700 C   0  0  2  0  0  3  0  0  0  0  0  0
  188.2280  177.3660  136.5740 C   0  0  2  0  0  0  0  0  0  0  0  0
  186.6350  175.3410  136.6460 C   0  0  0  0  0  2  0  0  0  0  0  0
  1  4  1  0  0  0  0
  2  5  1  0  0  0  0
  2  1  2  0  0  0  0
  3 19  1  0  0  0  0
  4  3  2  0  0  0  0
  5  6  2  0  0  0  0
  6  3  1  0  0  0  0
  7 12  1  0  0  0  0
  8 10  1  0  0  0  0
  9 11  1  0  0  0  0
  9  7  2  0  0  0  0
 10  5  1  0  0  0  0
 11  8  2  0  0  0  0
 12 10  2  0  0  0  0
 14 13  2  0  0  0  0
 14  7  1  0  0  0  0
 15 14  1  0  0  0  0
 17 18  1  0  0  0  0
 17 16  1  0  0  0  0
 18 15  1  6  0  0  0
 18 16  1  0  0  0  0
 19 20  2  0  0  0  0
 19 21  2  0  0  0  0
 19 27  1  0  0  0  0
 22 23  1  0  0  0  0
 22 28  1  0  0  0  0
 24 22  2  0  0  0  0
 25 27  2  0  0  0  0
 25 24  1  0  0  0  0
 26 23  2  0  0  0  0
 27 26  1  0  0  0  0
 29  2  1  0  0  0  0
 30 35  1  0  0  0  0
 31 32  1  0  0  0  0
 32 36  1  0  0  0  0
 34 31  1  1  0  0  0
 34 30  1  0  0  0  0
 34 35  1  0  0  0  0
 35 29  1  1  0  0  0
 35 33  1  0  0  0  0
 36 33  1  0  0  0  0
M  END
>  <MODEL>
5

>  <REMARK>
 VINA RESULT:      -8.8      4.839      8.903
  Name = 
  8 active torsions:
  status: ('A' for Active; 'I' for Inactive)
    1  A    between atoms: C_1  and  C_27
    2  A    between atoms: C_5  and  C_28
    3  A    between atoms: C_6  and  C_13
    4  A    between atoms: C_6  and  C_34
    5  A    between atoms: S_7  and  C_17
    6  A    between atoms: S_7  and  C_30
    7  A    between atoms: C_20  and  C_24
    8  A    between atoms: C_24  and  C_27
                            x       y       z     vdW  Elec       q    Type
                         _______ _______ _______ _____ _____    ______ ____

>  <TORSDO>
F 8

$$$$
=
 OpenBabel11062415593D

 36 41  0  0  1  0  0  0  0  0999 V2000
  186.1740  178.6050  140.1230 C   0  0  0  0  0  3  0  0  0  0  0  0
  186.2540  178.7030  141.5170 C   0  0  0  0  0  0  0  0  0  0  0  0
  183.8360  178.2400  140.2210 C   0  0  0  0  0  0  0  0  0  0  0  0
  184.9840  178.3780  139.5110 N   0  0  0  0  0  0  0  0  0  0  0  0
  185.0720  178.5530  142.2930 C   0  0  0  0  0  0  0  0  0  0  0  0
  183.8640  178.3240  141.6130 C   0  0  0  0  0  3  0  0  0  0  0  0
  186.0710  178.2890  145.9660 C   0  0  0  0  0  0  0  0  0  0  0  0
  183.8550  178.9810  144.4480 C   0  0  0  0  0  3  0  0  0  0  0  0
  184.9080  178.6600  146.5650 N   0  0  0  0  0  0  0  0  0  0  0  0
  185.0340  178.6030  143.7870 C   0  0  0  0  0  0  0  0  0  0  0  0
  183.8090  179.0030  145.8430 C   0  0  0  0  0  3  0  0  0  0  0  0
  186.1420  178.2500  144.5690 C   0  0  0  0  0  3  0  0  0  0  0  0
  187.1420  177.9120  148.0440 O   0  0  0  0  0  0  0  0  0  0  0  0
  187.2410  177.9330  146.7880 C   0  0  0  0  0  0  0  0  0  0  0  0
  188.5530  177.5820  146.1650 C   0  0  0  0  0  2  0  0  0  0  0  0
  190.2880  177.5010  147.7890 O   0  0  0  0  0  0  0  0  0  0  0  0
  190.7870  176.7500  146.7110 C   0  0  0  0  0  2  0  0  0  0  0  0
  189.3610  176.7000  147.0970 C   0  0  2  0  0  3  0  0  0  0  0  0
  182.3190  177.9670  139.3870 S   0  0  0  0  0  0  0  0  0  0  0  0
  182.5800  177.4250  138.0080 O   0  0  0  0  0  0  0  0  0  0  0  0
  181.5000  176.9670  140.1540 O   0  0  0  0  0  0  0  0  0  0  0  0
  180.0290  181.8600  139.0440 C   0  0  0  0  0  0  0  0  0  0  0  0
  180.9150  181.4970  138.0250 C   0  0  0  0  0  3  0  0  0  0  0  0
  179.8660  181.0500  140.1240 N   0  0  0  0  0  0  0  0  0  0  0  0
  180.5480  179.8780  140.2440 C   0  0  0  0  0  3  0  0  0  0  0  0
  181.6230  180.2990  138.1300 C   0  0  0  0  0  3  0  0  0  0  0  0
  181.4380  179.4770  139.2440 C   0  0  0  0  0  0  0  0  0  0  0  0
  179.2930  183.0720  138.9500 N   0  0  0  0  0  1  0  0  0  0  0  0
  187.6020  178.9940  142.1070 C   0  0  0  0  0  2  0  0  0  0  0  0
  189.0580  177.5930  140.5420 C   0  0  0  0  0  2  0  0  0  0  0  0
  191.0980  177.2440  141.8990 C   0  0  0  0  0  2  0  0  0  0  0  0
  190.8070  176.4130  143.1360 C   0  0  0  0  0  2  0  0  0  0  0  0
  188.3470  176.5830  142.8430 C   0  0  0  0  0  2  0  0  0  0  0  0
  189.9830  178.2430  141.5710 C   0  0  2  0  0  3  0  0  0  0  0  0
  188.5610  177.8190  141.9500 C   0  0  2  0  0  0  0  0  0  0  0  0
  189.5330  175.6280  142.8990 C   0  0  0  0  0  2  0  0  0  0  0  0
  1  2  1  0  0  0  0
  2 29  1  0  0  0  0
  2  5  2  0  0  0  0
  3  6  2  0  0  0  0
  4  1  2  0  0  0  0
  4  3  1  0  0  0  0
  5 10  1  0  0  0  0
  6  5  1  0  0  0  0
  7  9  1  0  0  0  0
  7 14  1  0  0  0  0
  8 11  1  0  0  0  0
 10  8  2  0  0  0  0
 10 12  1  0  0  0  0
 11  9  2  0  0  0  0
 12  7  2  0  0  0  0
 14 13  2  0  0  0  0
 15 14  1  0  0  0  0
 17 18  1  0  0  0  0
 17 16  1  0  0  0  0
 18 15  1  6  0  0  0
 18 16  1  0  0  0  0
 19 21  2  0  0  0  0
 19  3  1  0  0  0  0
 20 19  2  0  0  0  0
 22 24  1  0  0  0  0
 23 26  1  0  0  0  0
 23 22  2  0  0  0  0
 24 25  2  0  0  0  0
 26 27  2  0  0  0  0
 27 19  1  0  0  0  0
 27 25  1  0  0  0  0
 28 22  1  0  0  0  0
 30 35  1  0  0  0  0
 31 32  1  0  0  0  0
 33 36  1  0  0  0  0
 34 30  1  6  0  0  0
 34 31  1  0  0  0  0
 34 35  1  0  0  0  0
 35 29  1  1  0  0  0
 35 33  1  0  0  0  0
 36 32  1  0  0  0  0
M  END
>  <MODEL>
6

>  <REMARK>
 VINA RESULT:      -8.7      2.952      6.871
  Name = 
  8 active torsions:
  status: ('A' for Active; 'I' for Inactive)
    1  A    between atoms: C_1  and  C_27
    2  A    between atoms: C_5  and  C_28
    3  A    between atoms: C_6  and  C_13
    4  A    between atoms: C_6  and  C_34
    5  A    between atoms: S_7  and  C_17
    6  A    between atoms: S_7  and  C_30
    7  A    between atoms: C_20  and  C_24
    8  A    between atoms: C_24  and  C_27
                            x       y       z     vdW  Elec       q    Type
                         _______ _______ _______ _____ _____    ______ ____

>  <TORSDO>
F 8

$$$$
=
 OpenBabel11062415593D

 36 41  0  0  1  0  0  0  0  0999 V2000
  191.1500  177.3900  141.3920 C   0  0  0  0  0  3  0  0  0  0  0  0
  189.9030  177.8660  141.8170 C   0  0  0  0  0  0  0  0  0  0  0  0
  190.2460  176.7000  139.3140 C   0  0  0  0  0  0  0  0  0  0  0  0
  191.2950  176.8240  140.1670 N   0  0  0  0  0  0  0  0  0  0  0  0
  188.7810  177.7420  140.9530 C   0  0  0  0  0  0  0  0  0  0  0  0
  188.9830  177.1540  139.6930 C   0  0  0  0  0  3  0  0  0  0  0  0
  185.6070  178.5310  142.9180 C   0  0  0  0  0  0  0  0  0  0  0  0
  186.5210  178.6250  140.3010 C   0  0  0  0  0  3  0  0  0  0  0  0
  184.7940  178.9560  141.9140 N   0  0  0  0  0  0  0  0  0  0  0  0
  187.3960  178.1800  141.3060 C   0  0  0  0  0  0  0  0  0  0  0  0
  185.2190  179.0100  140.6240 C   0  0  0  0  0  3  0  0  0  0  0  0
  186.9150  178.1320  142.6210 C   0  0  0  0  0  3  0  0  0  0  0  0
  183.9530  178.9270  144.5650 O   0  0  0  0  0  0  0  0  0  0  0  0
  185.1070  178.4960  144.3040 C   0  0  0  0  0  0  0  0  0  0  0  0
  185.9370  177.9470  145.4180 C   0  0  0  0  0  2  0  0  0  0  0  0
  185.6860  179.6390  147.0690 O   0  0  0  0  0  0  0  0  0  0  0  0
  186.4120  178.6260  147.7190 C   0  0  0  0  0  2  0  0  0  0  0  0
  185.3320  178.3140  146.7590 C   0  0  2  0  0  3  0  0  0  0  0  0
  190.4840  175.9800  137.7340 S   0  0  0  0  0  0  0  0  0  0  0  0
  189.7090  174.6950  137.6310 O   0  0  0  0  0  0  0  0  0  0  0  0
  189.9960  176.9280  136.6740 O   0  0  0  0  0  0  0  0  0  0  0  0
  194.8840  175.1170  137.0920 C   0  0  0  0  0  0  0  0  0  0  0  0
  194.0180  174.0610  137.3900 C   0  0  0  0  0  3  0  0  0  0  0  0
  194.4040  176.3860  137.0020 N   0  0  0  0  0  0  0  0  0  0  0  0
  193.0850  176.6640  137.1940 C   0  0  0  0  0  3  0  0  0  0  0  0
  192.6620  174.3250  137.5900 C   0  0  0  0  0  3  0  0  0  0  0  0
  192.1860  175.6340  137.4880 C   0  0  0  0  0  0  0  0  0  0  0  0
  196.2670  174.8650  136.8760 N   0  0  0  0  0  1  0  0  0  0  0  0
  189.8420  178.5110  143.1690 C   0  0  0  0  0  2  0  0  0  0  0  0
  190.4230  176.1200  143.8620 C   0  0  0  0  0  2  0  0  0  0  0  0
  191.6820  176.4760  145.9620 C   0  0  0  0  0  2  0  0  0  0  0  0
  190.8010  177.0760  147.0440 C   0  0  0  0  0  2  0  0  0  0  0  0
  188.9550  177.5740  145.4600 C   0  0  0  0  0  2  0  0  0  0  0  0
  191.4020  177.0550  144.5720 C   0  0  2  0  0  3  0  0  0  0  0  0
  189.9610  177.4910  144.2970 C   0  0  2  0  0  0  0  0  0  0  0  0
  189.3540  176.7860  146.7010 C   0  0  0  0  0  2  0  0  0  0  0  0
  1  2  1  0  0  0  0
  2 29  1  0  0  0  0
  3  6  2  0  0  0  0
  3  4  1  0  0  0  0
  4  1  2  0  0  0  0
  5 10  1  0  0  0  0
  5  2  2  0  0  0  0
  6  5  1  0  0  0  0
  7 14  1  0  0  0  0
  8 11  2  0  0  0  0
  8 10  1  0  0  0  0
  9  7  2  0  0  0  0
 10 12  2  0  0  0  0
 11  9  1  0  0  0  0
 12  7  1  0  0  0  0
 14 13  2  0  0  0  0
 14 15  1  0  0  0  0
 16 17  1  0  0  0  0
 18 15  1  6  0  0  0
 18 16  1  0  0  0  0
 18 17  1  0  0  0  0
 19  3  1  0  0  0  0
 20 19  2  0  0  0  0
 21 19  2  0  0  0  0
 22 23  1  0  0  0  0
 23 26  2  0  0  0  0
 24 22  2  0  0  0  0
 24 25  1  0  0  0  0
 25 27  2  0  0  0  0
 27 26  1  0  0  0  0
 27 19  1  0  0  0  0
 28 22  1  0  0  0  0
 30 35  1  0  0  0  0
 31 32  1  0  0  0  0
 33 36  1  0  0  0  0
 34 30  1  6  0  0  0
 34 31  1  0  0  0  0
 35 29  1  6  0  0  0
 35 34  1  0  0  0  0
 35 33  1  0  0  0  0
 36 32  1  0  0  0  0
M  END
>  <MODEL>
7

>  <REMARK>
 VINA RESULT:      -8.6      3.024      6.760
  Name = 
  8 active torsions:
  status: ('A' for Active; 'I' for Inactive)
    1  A    between atoms: C_1  and  C_27
    2  A    between atoms: C_5  and  C_28
    3  A    between atoms: C_6  and  C_13
    4  A    between atoms: C_6  and  C_34
    5  A    between atoms: S_7  and  C_17
    6  A    between atoms: S_7  and  C_30
    7  A    between atoms: C_20  and  C_24
    8  A    between atoms: C_24  and  C_27
                            x       y       z     vdW  Elec       q    Type
                         _______ _______ _______ _____ _____    ______ ____

>  <TORSDO>
F 8

$$$$
=
 OpenBabel11062415593D

 36 41  0  0  1  0  0  0  0  0999 V2000
  187.0740  178.6250  140.2650 C   0  0  0  0  0  3  0  0  0  0  0  0
  186.8980  178.6750  141.6540 C   0  0  0  0  0  0  0  0  0  0  0  0
  184.7340  178.5650  139.9090 C   0  0  0  0  0  0  0  0  0  0  0  0
  186.0050  178.5720  139.4330 N   0  0  0  0  0  0  0  0  0  0  0  0
  185.5800  178.6580  142.1870 C   0  0  0  0  0  0  0  0  0  0  0  0
  184.5060  178.6080  141.2840 C   0  0  0  0  0  3  0  0  0  0  0  0
  185.8950  178.3570  145.9780 C   0  0  0  0  0  0  0  0  0  0  0  0
  183.9660  178.9820  144.0850 C   0  0  0  0  0  3  0  0  0  0  0  0
  184.6250  178.6620  146.3570 N   0  0  0  0  0  0  0  0  0  0  0  0
  185.2650  178.6730  143.6490 C   0  0  0  0  0  0  0  0  0  0  0  0
  183.6630  178.9700  145.4480 C   0  0  0  0  0  3  0  0  0  0  0  0
  186.2250  178.3530  144.6180 C   0  0  0  0  0  3  0  0  0  0  0  0
  186.8040  178.5160  148.1590 O   0  0  0  0  0  0  0  0  0  0  0  0
  186.9090  178.0360  146.9980 C   0  0  0  0  0  0  0  0  0  0  0  0
  188.0640  177.1400  146.6940 C   0  0  0  0  0  2  0  0  0  0  0  0
  189.9910  178.2450  145.8450 O   0  0  0  0  0  0  0  0  0  0  0  0
  190.4960  177.0750  146.4400 C   0  0  0  0  0  2  0  0  0  0  0  0
  189.3720  177.8270  147.0360 C   0  0  2  0  0  3  0  0  0  0  0  0
  183.3820  178.5150  138.7940 S   0  0  0  0  0  0  0  0  0  0  0  0
  182.8980  179.9100  138.5080 O   0  0  0  0  0  0  0  0  0  0  0  0
  183.8200  177.8780  137.5050 O   0  0  0  0  0  0  0  0  0  0  0  0
  179.9920  176.1100  140.5960 C   0  0  0  0  0  0  0  0  0  0  0  0
  180.0290  177.4930  140.7960 C   0  0  0  0  0  3  0  0  0  0  0  0
  180.9690  175.5010  139.8720 N   0  0  0  0  0  0  0  0  0  0  0  0
  181.9960  176.2080  139.3260 C   0  0  0  0  0  3  0  0  0  0  0  0
  181.0740  178.2350  140.2430 C   0  0  0  0  0  3  0  0  0  0  0  0
  182.0650  177.5940  139.4980 C   0  0  0  0  0  0  0  0  0  0  0  0
  178.9310  175.3390  141.1440 N   0  0  0  0  0  1  0  0  0  0  0  0
  188.1340  178.7710  142.4980 C   0  0  0  0  0  2  0  0  0  0  0  0
  189.6090  177.4340  140.8960 C   0  0  0  0  0  2  0  0  0  0  0  0
  191.5770  176.9180  142.3050 C   0  0  0  0  0  2  0  0  0  0  0  0
  191.2070  176.0120  143.4670 C   0  0  0  0  0  2  0  0  0  0  0  0
  188.7680  176.2890  143.0880 C   0  0  0  0  0  2  0  0  0  0  0  0
  190.5100  177.9760  142.0060 C   0  0  2  0  0  3  0  0  0  0  0  0
  189.0610  177.5770  142.2960 C   0  0  2  0  0  0  0  0  0  0  0  0
  189.9200  175.2910  143.1230 C   0  0  0  0  0  2  0  0  0  0  0  0
  1  2  1  0  0  0  0
  2  5  2  0  0  0  0
  2 29  1  0  0  0  0
  3  6  2  0  0  0  0
  4  3  1  0  0  0  0
  4  1  2  0  0  0  0
  5 10  1  0  0  0  0
  6  5  1  0  0  0  0
  7  9  1  0  0  0  0
  7 14  1  0  0  0  0
  8 11  1  0  0  0  0
 10  8  2  0  0  0  0
 10 12  1  0  0  0  0
 11  9  2  0  0  0  0
 12  7  2  0  0  0  0
 14 13  2  0  0  0  0
 15 14  1  0  0  0  0
 16 17  1  0  0  0  0
 16 18  1  0  0  0  0
 17 18  1  0  0  0  0
 18 15  1  6  0  0  0
 19 27  1  0  0  0  0
 19  3  1  0  0  0  0
 20 19  2  0  0  0  0
 21 19  2  0  0  0  0
 22 23  1  0  0  0  0
 22 28  1  0  0  0  0
 24 22  2  0  0  0  0
 25 27  2  0  0  0  0
 25 24  1  0  0  0  0
 26 23  2  0  0  0  0
 27 26  1  0  0  0  0
 30 35  1  0  0  0  0
 31 32  1  0  0  0  0
 33 36  1  0  0  0  0
 34 30  1  6  0  0  0
 34 35  1  0  0  0  0
 34 31  1  0  0  0  0
 35 29  1  1  0  0  0
 35 33  1  0  0  0  0
 36 32  1  0  0  0  0
M  END
>  <MODEL>
8

>  <REMARK>
 VINA RESULT:      -8.4      2.494      6.535
  Name = 
  8 active torsions:
  status: ('A' for Active; 'I' for Inactive)
    1  A    between atoms: C_1  and  C_27
    2  A    between atoms: C_5  and  C_28
    3  A    between atoms: C_6  and  C_13
    4  A    between atoms: C_6  and  C_34
    5  A    between atoms: S_7  and  C_17
    6  A    between atoms: S_7  and  C_30
    7  A    between atoms: C_20  and  C_24
    8  A    between atoms: C_24  and  C_27
                            x       y       z     vdW  Elec       q    Type
                         _______ _______ _______ _____ _____    ______ ____

>  <TORSDO>
F 8

$$$$
=
 OpenBabel11062415593D

 36 41  0  0  1  0  0  0  0  0999 V2000
  191.3180  177.7400  141.8630 C   0  0  0  0  0  3  0  0  0  0  0  0
  190.1050  177.9770  142.5200 C   0  0  0  0  0  0  0  0  0  0  0  0
  190.1900  176.9810  139.9240 C   0  0  0  0  0  0  0  0  0  0  0  0
  191.3370  177.2540  140.5970 N   0  0  0  0  0  0  0  0  0  0  0  0
  188.8840  177.6920  141.8490 C   0  0  0  0  0  0  0  0  0  0  0  0
  188.9560  177.1950  140.5370 C   0  0  0  0  0  3  0  0  0  0  0  0
  185.1850  178.5070  142.3090 C   0  0  0  0  0  0  0  0  0  0  0  0
  187.3290  177.6050  143.8200 C   0  0  0  0  0  3  0  0  0  0  0  0
  185.0360  178.2380  143.6340 N   0  0  0  0  0  0  0  0  0  0  0  0
  187.5290  177.8700  142.4560 C   0  0  0  0  0  0  0  0  0  0  0  0
  186.0710  177.7960  144.3950 C   0  0  0  0  0  3  0  0  0  0  0  0
  186.4380  178.3320  141.7090 C   0  0  0  0  0  3  0  0  0  0  0  0
  184.2140  179.4480  140.3660 O   0  0  0  0  0  0  0  0  0  0  0  0
  184.0330  178.9770  141.5200 C   0  0  0  0  0  0  0  0  0  0  0  0
  182.6400  178.8980  142.0520 C   0  0  0  0  0  2  0  0  0  0  0  0
  180.4010  179.5270  141.5580 O   0  0  0  0  0  0  0  0  0  0  0  0
  180.5310  178.2430  141.0000 C   0  0  0  0  0  2  0  0  0  0  0  0
  181.6380  179.2230  140.9620 C   0  0  2  0  0  3  0  0  0  0  0  0
  190.2630  176.3720  138.2820 S   0  0  0  0  0  0  0  0  0  0  0  0
  191.3290  177.1000  137.5090 O   0  0  0  0  0  0  0  0  0  0  0  0
  190.5950  174.9070  138.3070 O   0  0  0  0  0  0  0  0  0  0  0  0
  186.2730  176.9850  136.2260 C   0  0  0  0  0  0  0  0  0  0  0  0
  187.0950  178.0900  136.4650 C   0  0  0  0  0  3  0  0  0  0  0  0
  186.6730  175.7440  136.6140 N   0  0  0  0  0  0  0  0  0  0  0  0
  187.8670  175.5420  137.2350 C   0  0  0  0  0  3  0  0  0  0  0  0
  188.3240  177.9040  137.0990 C   0  0  0  0  0  3  0  0  0  0  0  0
  188.7200  176.6220  137.4860 C   0  0  0  0  0  0  0  0  0  0  0  0
  185.0230  177.1550  135.5720 N   0  0  0  0  0  1  0  0  0  0  0  0
  190.1760  178.5520  143.9040 C   0  0  0  0  0  2  0  0  0  0  0  0
  190.6150  176.0920  144.4440 C   0  0  0  0  0  2  0  0  0  0  0  0
  191.9930  176.2450  146.4940 C   0  0  0  0  0  2  0  0  0  0  0  0
  191.2080  176.8450  147.6480 C   0  0  0  0  0  2  0  0  0  0  0  0
  189.3310  177.5560  146.1850 C   0  0  0  0  0  2  0  0  0  0  0  0
  191.6910  176.9170  145.1500 C   0  0  2  0  0  3  0  0  0  0  0  0
  190.2730  177.4660  144.9710 C   0  0  2  0  0  0  0  0  0  0  0  0
  189.7290  176.6750  147.3630 C   0  0  0  0  0  2  0  0  0  0  0  0
  1  2  1  0  0  0  0
  2 29  1  0  0  0  0
  3  6  2  0  0  0  0
  3  4  1  0  0  0  0
  4  1  2  0  0  0  0
  5 10  1  0  0  0  0
  5  2  2  0  0  0  0
  6  5  1  0  0  0  0
  7  9  1  0  0  0  0
  8 11  1  0  0  0  0
  9 11  2  0  0  0  0
 10  8  2  0  0  0  0
 12  7  2  0  0  0  0
 12 10  1  0  0  0  0
 13 14  2  0  0  0  0
 14 15  1  0  0  0  0
 14  7  1  0  0  0  0
 17 16  1  0  0  0  0
 18 17  1  0  0  0  0
 18 16  1  0  0  0  0
 18 15  1  1  0  0  0
 19 21  2  0  0  0  0
 19  3  1  0  0  0  0
 20 19  2  0  0  0  0
 22 23  2  0  0  0  0
 22 24  1  0  0  0  0
 23 26  1  0  0  0  0
 24 25  2  0  0  0  0
 25 27  1  0  0  0  0
 26 27  2  0  0  0  0
 27 19  1  0  0  0  0
 28 22  1  0  0  0  0
 30 35  1  0  0  0  0
 31 32  1  0  0  0  0
 33 36  1  0  0  0  0
 34 30  1  6  0  0  0
 34 31  1  0  0  0  0
 35 29  1  6  0  0  0
 35 34  1  0  0  0  0
 35 33  1  0  0  0  0
 36 32  1  0  0  0  0
M  END
>  <MODEL>
9

>  <REMARK>
 VINA RESULT:      -8.4      2.833      7.694
  Name = 
  8 active torsions:
  status: ('A' for Active; 'I' for Inactive)
    1  A    between atoms: C_1  and  C_27
    2  A    between atoms: C_5  and  C_28
    3  A    between atoms: C_6  and  C_13
    4  A    between atoms: C_6  and  C_34
    5  A    between atoms: S_7  and  C_17
    6  A    between atoms: S_7  and  C_30
    7  A    between atoms: C_20  and  C_24
    8  A    between atoms: C_24  and  C_27
                            x       y       z     vdW  Elec       q    Type
                         _______ _______ _______ _____ _____    ______ ____

>  <TORSDO>
F 8

$$$$
