=
 OpenBabel11062415363D

 35 37  0  0  1  0  0  0  0  0999 V2000
  183.0130  179.2420  138.5250 C   0  0  2  0  0  3  0  0  0  0  0  0
  181.9580  178.1540  138.2360 C   0  0  1  0  0  0  0  0  0  0  0  0
  182.7560  178.4940  141.3710 C   0  0  0  0  0  2  0  0  0  0  0  0
  185.3910  179.2050  138.8180 O   0  0  0  0  0  1  0  0  0  0  0  0
  184.1990  178.6710  139.3300 C   0  0  1  0  0  3  0  0  0  0  0  0
  184.0680  179.0350  140.8150 C   0  0  2  0  0  3  0  0  0  0  0  0
  181.5680  179.2070  140.7090 C   0  0  0  0  0  2  0  0  0  0  0  0
  181.6190  179.3360  139.1600 C   0  0  1  0  0  0  0  0  0  0  0  0
  181.6010  178.1790  136.7720 C   0  0  0  0  0  0  0  0  0  0  0  0
  180.4350  178.4780  136.4030 O   0  0  0  0  0  1  0  0  0  0  0  0
  182.5800  177.9090  135.8070 O   0  0  0  0  0  0  0  0  0  0  0  0
  180.8320  180.4890  138.5410 C   0  0  2  0  0  3  0  0  0  0  0  0
  181.6740  181.5770  138.3350 O   0  0  0  0  0  1  0  0  0  0  0  0
  179.7010  180.8930  139.4640 C   0  0  0  0  0  1  0  0  0  0  0  0
  183.1010  175.8820  138.4080 C   0  0  0  0  0  1  0  0  0  0  0  0
  181.9870  176.7710  138.9580 C   0  0  2  0  0  3  0  0  0  0  0  0
  180.5560  175.3200  140.4760 C   0  0  0  0  0  1  0  0  0  0  0  0
  179.6050  176.8970  138.9930 O   0  0  0  0  0  1  0  0  0  0  0  0
  180.6690  175.9990  139.1280 C   0  0  1  0  0  0  0  0  0  0  0  0
  179.1190  175.1320  136.9050 S   0  0  0  0  0  1  0  0  0  0  0  0
  180.5490  174.9050  138.0430 C   0  0  0  0  0  2  0  0  0  0  0  0
  185.2410  178.5370  141.6760 C   0  0  0  0  0  2  0  0  0  0  0  0
  184.8230  177.8170  142.8500 O   0  0  0  0  0  0  0  0  0  0  0  0
  187.4940  176.4560  143.6540 Cl  0  0  0  0  0  0  0  0  0  0  0  0
  184.5010  178.8420  144.9740 C   0  0  0  0  0  3  0  0  0  0  0  0
  185.3000  178.0590  144.1440 C   0  0  0  0  0  0  0  0  0  0  0  0
  186.9280  177.9100  145.9610 C   0  0  0  0  0  0  0  0  0  0  0  0
  186.5330  177.5660  144.6360 C   0  0  0  0  0  0  0  0  0  0  0  0
  184.9040  179.1730  146.2300 N   0  0  0  0  0  0  0  0  0  0  0  0
  186.0690  178.7090  146.7360 C   0  0  0  0  0  3  0  0  0  0  0  0
  188.1490  176.8210  147.6920 O   0  0  0  0  0  0  0  0  0  0  0  0
  188.1790  177.4490  146.6040 C   0  0  0  0  0  0  0  0  0  0  0  0
  189.5150  177.7980  146.0150 C   0  0  0  0  0  2  0  0  0  0  0  0
  191.8090  177.1370  145.9930 O   0  0  0  0  0  1  0  0  0  0  0  0
  190.6180  176.9920  146.6980 C   0  0  0  0  0  2  0  0  0  0  0  0
  1  8  1  0  0  0  0
  1  5  1  0  0  0  0
  2  1  1  0  0  0  0
  2 16  1  0  0  0  0
  2  8  1  0  0  0  0
  4  5  1  0  0  0  0
  5  6  1  0  0  0  0
  6  3  1  0  0  0  0
  6 22  1  0  0  0  0
  7  3  1  0  0  0  0
  8  7  1  0  0  0  0
  9  2  1  0  0  0  0
 10  9  1  0  0  0  0
 11  9  2  0  0  0  0
 12  8  1  0  0  0  0
 12 14  1  0  0  0  0
 13 12  1  0  0  0  0
 15 16  1  0  0  0  0
 16 19  1  0  0  0  0
 18 19  1  0  0  0  0
 19 17  1  0  0  0  0
 20 21  1  0  0  0  0
 21 19  1  0  0  0  0
 22 23  1  0  0  0  0
 23 26  1  0  0  0  0
 24 28  1  0  0  0  0
 25 29  1  0  0  0  0
 26 28  1  0  0  0  0
 26 25  2  0  0  0  0
 27 32  1  0  0  0  0
 27 30  1  0  0  0  0
 28 27  2  0  0  0  0
 29 30  2  0  0  0  0
 32 31  2  0  0  0  0
 33 32  1  0  0  0  0
 33 35  1  0  0  0  0
 34 35  1  0  0  0  0
M  END
>  <MODEL>
1

>  <REMARK>
 VINA RESULT:      -6.7      0.000      0.000
  Name = 
  11 active torsions:
  status: ('A' for Active; 'I' for Inactive)
    1  A    between atoms: C_4  and  O_5
    2  A    between atoms: C_4  and  C_26
    3  A    between atoms: O_5  and  C_9
    4  A    between atoms: C_6  and  C_11
    5  A    between atoms: C_11  and  C_34
    6  A    between atoms: C_12  and  C_23
    7  A    between atoms: C_23  and  C_35
    8  A    between atoms: C_24  and  C_32
    9  A    between atoms: C_24  and  C_34
   10  A    between atoms: C_25  and  C_33
   11  A    between atoms: C_28  and  C_35
                            x       y       z     vdW  Elec       q    Type
                         _______ _______ _______ _____ _____    ______ ____

>  <TORSDO>
F 11

$$$$
=
 OpenBabel11062415363D

 35 37  0  0  1  0  0  0  0  0999 V2000
  182.8930  179.2200  138.7460 C   0  0  2  0  0  3  0  0  0  0  0  0
  181.7590  178.2450  138.3640 C   0  0  1  0  0  0  0  0  0  0  0  0
  182.5220  178.2920  141.5250 C   0  0  0  0  0  2  0  0  0  0  0  0
  185.2540  178.9690  139.0670 O   0  0  0  0  0  1  0  0  0  0  0  0
  184.0130  178.4980  139.5220 C   0  0  1  0  0  3  0  0  0  0  0  0
  183.8830  178.7630  141.0280 C   0  0  2  0  0  3  0  0  0  0  0  0
  181.4070  179.1460  140.9010 C   0  0  0  0  0  2  0  0  0  0  0  0
  181.4990  179.3810  139.3670 C   0  0  1  0  0  0  0  0  0  0  0  0
  181.4350  178.4050  136.9000 C   0  0  0  0  0  0  0  0  0  0  0  0
  182.2760  178.0830  136.0200 O   0  0  0  0  0  0  0  0  0  0  0  0
  180.1750  178.8760  136.5080 O   0  0  0  0  0  1  0  0  0  0  0  0
  180.8180  180.6360  138.8240 C   0  0  2  0  0  3  0  0  0  0  0  0
  181.7750  181.6060  138.5430 O   0  0  0  0  0  1  0  0  0  0  0  0
  179.8390  181.1730  139.8470 C   0  0  0  0  0  1  0  0  0  0  0  0
  182.6710  175.8640  138.3370 C   0  0  0  0  0  1  0  0  0  0  0  0
  181.6640  176.8160  138.9820 C   0  0  2  0  0  3  0  0  0  0  0  0
  180.0330  175.6240  140.5240 C   0  0  0  0  0  1  0  0  0  0  0  0
  179.3020  177.1300  138.8540 O   0  0  0  0  0  1  0  0  0  0  0  0
  180.2790  176.1680  139.1330 C   0  0  1  0  0  0  0  0  0  0  0  0
  179.1160  175.3940  136.6540 S   0  0  0  0  0  1  0  0  0  0  0  0
  180.1290  174.9940  138.1390 C   0  0  0  0  0  2  0  0  0  0  0  0
  184.9950  178.1110  141.8660 C   0  0  0  0  0  2  0  0  0  0  0  0
  186.2110  178.8800  141.9000 O   0  0  0  0  0  0  0  0  0  0  0  0
  187.7540  177.8110  144.3710 Cl  0  0  0  0  0  0  0  0  0  0  0  0
  187.9790  178.4210  140.3750 C   0  0  0  0  0  3  0  0  0  0  0  0
  187.4900  178.3580  141.6780 C   0  0  0  0  0  0  0  0  0  0  0  0
  189.5650  177.2420  142.3330 C   0  0  0  0  0  0  0  0  0  0  0  0
  188.2900  177.7730  142.6890 C   0  0  0  0  0  0  0  0  0  0  0  0
  189.1900  177.8930  140.0510 N   0  0  0  0  0  0  0  0  0  0  0  0
  189.9850  177.3380  140.9940 C   0  0  0  0  0  3  0  0  0  0  0  0
  190.6960  175.3790  143.2930 O   0  0  0  0  0  0  0  0  0  0  0  0
  190.5070  176.6210  143.2900 C   0  0  0  0  0  0  0  0  0  0  0  0
  191.1910  177.4520  144.3370 C   0  0  0  0  0  2  0  0  0  0  0  0
  192.0340  176.0550  146.0800 O   0  0  0  0  0  1  0  0  0  0  0  0
  190.9530  176.8540  145.7220 C   0  0  0  0  0  2  0  0  0  0  0  0
  1  8  1  0  0  0  0
  1  5  1  0  0  0  0
  2  1  1  0  0  0  0
  2 16  1  0  0  0  0
  2  8  1  0  0  0  0
  4  5  1  0  0  0  0
  5  6  1  0  0  0  0
  6  3  1  0  0  0  0
  6 22  1  0  0  0  0
  7  3  1  0  0  0  0
  8  7  1  0  0  0  0
  9  2  1  0  0  0  0
 10  9  2  0  0  0  0
 11  9  1  0  0  0  0
 12  8  1  0  0  0  0
 12 14  1  0  0  0  0
 13 12  1  0  0  0  0
 15 16  1  0  0  0  0
 16 19  1  0  0  0  0
 18 19  1  0  0  0  0
 19 17  1  0  0  0  0
 20 21  1  0  0  0  0
 21 19  1  0  0  0  0
 22 23  1  0  0  0  0
 25 26  1  0  0  0  0
 26 23  1  0  0  0  0
 26 28  2  0  0  0  0
 27 28  1  0  0  0  0
 27 32  1  0  0  0  0
 28 24  1  0  0  0  0
 29 25  2  0  0  0  0
 29 30  1  0  0  0  0
 30 27  2  0  0  0  0
 32 31  2  0  0  0  0
 32 33  1  0  0  0  0
 33 35  1  0  0  0  0
 35 34  1  0  0  0  0
M  END
>  <MODEL>
2

>  <REMARK>
 VINA RESULT:      -5.8      2.123      2.691
  Name = 
  11 active torsions:
  status: ('A' for Active; 'I' for Inactive)
    1  A    between atoms: C_4  and  O_5
    2  A    between atoms: C_4  and  C_26
    3  A    between atoms: O_5  and  C_9
    4  A    between atoms: C_6  and  C_11
    5  A    between atoms: C_11  and  C_34
    6  A    between atoms: C_12  and  C_23
    7  A    between atoms: C_23  and  C_35
    8  A    between atoms: C_24  and  C_32
    9  A    between atoms: C_24  and  C_34
   10  A    between atoms: C_25  and  C_33
   11  A    between atoms: C_28  and  C_35
                            x       y       z     vdW  Elec       q    Type
                         _______ _______ _______ _____ _____    ______ ____

>  <TORSDO>
F 11

$$$$
=
 OpenBabel11062415363D

 35 37  0  0  1  0  0  0  0  0999 V2000
  181.2630  178.6720  138.5520 C   0  0  2  0  0  3  0  0  0  0  0  0
  181.0440  177.5110  137.5580 C   0  0  1  0  0  0  0  0  0  0  0  0
  183.3590  176.9950  139.7830 C   0  0  0  0  0  2  0  0  0  0  0  0
  182.8000  180.5080  138.6380 O   0  0  0  0  0  1  0  0  0  0  0  0
  182.7420  179.1060  138.5850 C   0  0  1  0  0  3  0  0  0  0  0  0
  183.4510  178.5150  139.8100 C   0  0  2  0  0  3  0  0  0  0  0  0
  181.8980  176.5510  139.9510 C   0  0  0  0  0  2  0  0  0  0  0  0
  180.8510  177.2860  139.0670 C   0  0  1  0  0  0  0  0  0  0  0  0
  179.8760  177.8340  136.6610 C   0  0  0  0  0  0  0  0  0  0  0  0
  179.7590  178.9810  136.1540 O   0  0  0  0  0  0  0  0  0  0  0  0
  178.9330  176.8460  136.3520 O   0  0  0  0  0  1  0  0  0  0  0  0
  179.4160  177.3210  139.5910 C   0  0  2  0  0  3  0  0  0  0  0  0
  179.2440  178.4230  140.4220 O   0  0  0  0  0  1  0  0  0  0  0  0
  179.1200  176.0530  140.3650 C   0  0  0  0  0  1  0  0  0  0  0  0
  182.8050  177.4310  135.7170 C   0  0  0  0  0  1  0  0  0  0  0  0
  182.2400  176.7190  136.9450 C   0  0  2  0  0  3  0  0  0  0  0  0
  183.2630  174.4090  137.2180 C   0  0  0  0  0  1  0  0  0  0  0  0
  180.9320  174.7700  137.3750 O   0  0  0  0  0  1  0  0  0  0  0  0
  182.0830  175.2080  136.7100 C   0  0  1  0  0  0  0  0  0  0  0  0
  182.9980  173.5390  134.5950 S   0  0  0  0  0  1  0  0  0  0  0  0
  181.9360  174.9170  135.2000 C   0  0  0  0  0  2  0  0  0  0  0  0
  184.9230  178.9440  139.9360 C   0  0  0  0  0  2  0  0  0  0  0  0
  185.2280  179.5770  141.1920 O   0  0  0  0  0  0  0  0  0  0  0  0
  187.9850  178.1530  141.1230 Cl  0  0  0  0  0  0  0  0  0  0  0  0
  184.7220  178.8750  143.4090 C   0  0  0  0  0  3  0  0  0  0  0  0
  185.6270  178.8980  142.3500 C   0  0  0  0  0  0  0  0  0  0  0  0
  187.1880  177.6300  143.7390 C   0  0  0  0  0  0  0  0  0  0  0  0
  186.8810  178.2590  142.4970 C   0  0  0  0  0  0  0  0  0  0  0  0
  185.0400  178.2840  144.5920 N   0  0  0  0  0  0  0  0  0  0  0  0
  186.2240  177.6530  144.7630 C   0  0  0  0  0  3  0  0  0  0  0  0
  188.8160  175.9470  143.3040 O   0  0  0  0  0  0  0  0  0  0  0  0
  188.4510  176.9120  144.0210 C   0  0  0  0  0  0  0  0  0  0  0  0
  189.2790  177.2660  145.2230 C   0  0  0  0  0  2  0  0  0  0  0  0
  190.4870  178.9130  143.9880 O   0  0  0  0  0  1  0  0  0  0  0  0
  190.6470  177.7830  144.7850 C   0  0  0  0  0  2  0  0  0  0  0  0
  1  5  1  0  0  0  0
  1  8  1  0  0  0  0
  2  1  1  0  0  0  0
  2  8  1  0  0  0  0
  3  6  1  0  0  0  0
  3  7  1  0  0  0  0
  5  4  1  0  0  0  0
  5  6  1  0  0  0  0
  6 22  1  0  0  0  0
  8 12  1  0  0  0  0
  8  7  1  0  0  0  0
  9  2  1  0  0  0  0
 10  9  2  0  0  0  0
 11  9  1  0  0  0  0
 12 14  1  0  0  0  0
 12 13  1  0  0  0  0
 15 16  1  0  0  0  0
 16  2  1  0  0  0  0
 19 16  1  0  0  0  0
 19 17  1  0  0  0  0
 19 18  1  0  0  0  0
 20 21  1  0  0  0  0
 21 19  1  0  0  0  0
 22 23  1  0  0  0  0
 23 26  1  0  0  0  0
 24 28  1  0  0  0  0
 25 29  1  0  0  0  0
 26 28  1  0  0  0  0
 26 25  2  0  0  0  0
 27 32  1  0  0  0  0
 27 30  1  0  0  0  0
 28 27  2  0  0  0  0
 29 30  2  0  0  0  0
 31 32  2  0  0  0  0
 32 33  1  0  0  0  0
 34 35  1  0  0  0  0
 35 33  1  0  0  0  0
M  END
>  <MODEL>
3

>  <REMARK>
 VINA RESULT:      -5.6      2.083      2.833
  Name = 
  11 active torsions:
  status: ('A' for Active; 'I' for Inactive)
    1  A    between atoms: C_4  and  O_5
    2  A    between atoms: C_4  and  C_26
    3  A    between atoms: O_5  and  C_9
    4  A    between atoms: C_6  and  C_11
    5  A    between atoms: C_11  and  C_34
    6  A    between atoms: C_12  and  C_23
    7  A    between atoms: C_23  and  C_35
    8  A    between atoms: C_24  and  C_32
    9  A    between atoms: C_24  and  C_34
   10  A    between atoms: C_25  and  C_33
   11  A    between atoms: C_28  and  C_35
                            x       y       z     vdW  Elec       q    Type
                         _______ _______ _______ _____ _____    ______ ____

>  <TORSDO>
F 11

$$$$
=
 OpenBabel11062415363D

 35 37  0  0  1  0  0  0  0  0999 V2000
  182.1280  178.7110  137.5740 C   0  0  2  0  0  3  0  0  0  0  0  0
  181.2450  178.6750  138.8390 C   0  0  1  0  0  0  0  0  0  0  0  0
  184.3560  179.4670  139.3600 C   0  0  0  0  0  2  0  0  0  0  0  0
  183.6040  177.1310  136.5410 O   0  0  0  0  0  1  0  0  0  0  0  0
  183.3780  177.8230  137.7410 C   0  0  1  0  0  3  0  0  0  0  0  0
  184.6060  178.6790  138.0800 C   0  0  2  0  0  3  0  0  0  0  0  0
  183.2380  180.4960  139.1370 C   0  0  0  0  0  2  0  0  0  0  0  0
  181.9560  179.9750  138.4270 C   0  0  1  0  0  0  0  0  0  0  0  0
  179.8150  178.4070  138.4430 C   0  0  0  0  0  0  0  0  0  0  0  0
  178.9320  179.2910  138.6010 O   0  0  0  0  0  1  0  0  0  0  0  0
  179.4670  177.1840  137.8560 O   0  0  0  0  0  0  0  0  0  0  0  0
  181.1190  181.0100  137.6770 C   0  0  2  0  0  3  0  0  0  0  0  0
  181.1800  180.7640  136.3090 O   0  0  0  0  0  1  0  0  0  0  0  0
  181.6440  182.4010  137.9640 C   0  0  0  0  0  1  0  0  0  0  0  0
  181.6220  176.5450  140.1880 C   0  0  0  0  0  1  0  0  0  0  0  0
  181.7580  178.0670  140.1800 C   0  0  2  0  0  3  0  0  0  0  0  0
  182.4050  178.8710  142.5030 C   0  0  0  0  0  1  0  0  0  0  0  0
  180.7260  179.9450  141.2310 O   0  0  0  0  0  1  0  0  0  0  0  0
  181.2840  178.6910  141.5030 C   0  0  1  0  0  0  0  0  0  0  0  0
  179.7570  178.2990  143.8720 S   0  0  0  0  0  1  0  0  0  0  0  0
  180.2110  177.7940  142.1600 C   0  0  0  0  0  2  0  0  0  0  0  0
  185.9040  177.8660  138.2160 C   0  0  0  0  0  2  0  0  0  0  0  0
  187.0390  178.6610  138.6040 O   0  0  0  0  0  0  0  0  0  0  0  0
  186.8060  178.3560  141.6840 Cl  0  0  0  0  0  0  0  0  0  0  0  0
  189.2990  177.9190  138.5240 C   0  0  0  0  0  3  0  0  0  0  0  0
  188.1600  178.1700  139.2850 C   0  0  0  0  0  0  0  0  0  0  0  0
  189.3770  177.3790  141.2520 C   0  0  0  0  0  0  0  0  0  0  0  0
  188.1870  177.9130  140.6770 C   0  0  0  0  0  0  0  0  0  0  0  0
  190.4200  177.3940  139.0880 N   0  0  0  0  0  0  0  0  0  0  0  0
  190.4850  177.1480  140.4160 C   0  0  0  0  0  3  0  0  0  0  0  0
  189.3280  175.9280  143.1390 O   0  0  0  0  0  0  0  0  0  0  0  0
  189.5480  177.0810  142.6910 C   0  0  0  0  0  0  0  0  0  0  0  0
  189.9010  178.1720  143.6610 C   0  0  0  0  0  2  0  0  0  0  0  0
  191.8600  178.0660  145.0220 O   0  0  0  0  0  1  0  0  0  0  0  0
  191.4170  178.3420  143.7320 C   0  0  0  0  0  2  0  0  0  0  0  0
  1  5  1  0  0  0  0
  1  8  1  0  0  0  0
  1  2  1  0  0  0  0
  2 16  1  0  0  0  0
  4  5  1  0  0  0  0
  5  6  1  0  0  0  0
  6 22  1  0  0  0  0
  6  3  1  0  0  0  0
  7  3  1  0  0  0  0
  8  2  1  0  0  0  0
  8  7  1  0  0  0  0
  9 10  1  0  0  0  0
  9  2  1  0  0  0  0
 11  9  2  0  0  0  0
 12 14  1  0  0  0  0
 12  8  1  0  0  0  0
 13 12  1  0  0  0  0
 16 15  1  0  0  0  0
 16 19  1  0  0  0  0
 18 19  1  0  0  0  0
 19 21  1  0  0  0  0
 19 17  1  0  0  0  0
 21 20  1  0  0  0  0
 22 23  1  0  0  0  0
 23 26  1  0  0  0  0
 25 29  2  0  0  0  0
 25 26  1  0  0  0  0
 26 28  2  0  0  0  0
 27 32  1  0  0  0  0
 28 27  1  0  0  0  0
 28 24  1  0  0  0  0
 29 30  1  0  0  0  0
 30 27  2  0  0  0  0
 32 31  2  0  0  0  0
 32 33  1  0  0  0  0
 33 35  1  0  0  0  0
 35 34  1  0  0  0  0
M  END
>  <MODEL>
4

>  <REMARK>
 VINA RESULT:      -5.6      3.219      4.217
  Name = 
  11 active torsions:
  status: ('A' for Active; 'I' for Inactive)
    1  A    between atoms: C_4  and  O_5
    2  A    between atoms: C_4  and  C_26
    3  A    between atoms: O_5  and  C_9
    4  A    between atoms: C_6  and  C_11
    5  A    between atoms: C_11  and  C_34
    6  A    between atoms: C_12  and  C_23
    7  A    between atoms: C_23  and  C_35
    8  A    between atoms: C_24  and  C_32
    9  A    between atoms: C_24  and  C_34
   10  A    between atoms: C_25  and  C_33
   11  A    between atoms: C_28  and  C_35
                            x       y       z     vdW  Elec       q    Type
                         _______ _______ _______ _____ _____    ______ ____

>  <TORSDO>
F 11

$$$$
=
 OpenBabel11062415363D

 35 37  0  0  1  0  0  0  0  0999 V2000
  182.1790  178.0320  137.0770 C   0  0  2  0  0  3  0  0  0  0  0  0
  181.0070  177.7870  138.0510 C   0  0  1  0  0  0  0  0  0  0  0  0
  183.5010  179.4590  139.3000 C   0  0  0  0  0  2  0  0  0  0  0  0
  184.2570  176.9100  136.6730 O   0  0  0  0  0  1  0  0  0  0  0  0
  183.5140  177.5490  137.6780 C   0  0  1  0  0  3  0  0  0  0  0  0
  184.3150  178.7330  138.2360 C   0  0  2  0  0  3  0  0  0  0  0  0
  182.2650  180.1130  138.6650 C   0  0  0  0  0  2  0  0  0  0  0  0
  181.4340  179.2210  137.6990 C   0  0  1  0  0  0  0  0  0  0  0  0
  179.8810  177.1040  137.3160 C   0  0  0  0  0  0  0  0  0  0  0  0
  178.9310  177.7770  136.8360 O   0  0  0  0  0  0  0  0  0  0  0  0
  179.9060  175.7170  137.1260 O   0  0  0  0  0  1  0  0  0  0  0  0
  180.6090  179.9450  136.6370 C   0  0  2  0  0  3  0  0  0  0  0  0
  181.2050  179.7860  135.3900 O   0  0  0  0  0  1  0  0  0  0  0  0
  180.5200  181.4190  136.9700 C   0  0  0  0  0  1  0  0  0  0  0  0
  181.7240  175.9520  139.6700 C   0  0  0  0  0  1  0  0  0  0  0  0
  181.2470  177.3980  139.5430 C   0  0  2  0  0  3  0  0  0  0  0  0
  179.1350  178.7160  140.0530 C   0  0  0  0  0  1  0  0  0  0  0  0
  179.5060  176.5550  140.9390 O   0  0  0  0  0  1  0  0  0  0  0  0
  180.1630  177.7370  140.5780 C   0  0  1  0  0  0  0  0  0  0  0  0
  180.0220  179.9410  142.3720 S   0  0  0  0  0  1  0  0  0  0  0  0
  180.8050  178.3630  141.8360 C   0  0  0  0  0  2  0  0  0  0  0  0
  185.6840  178.3340  138.8120 C   0  0  0  0  0  2  0  0  0  0  0  0
  185.9780  178.9600  140.0740 O   0  0  0  0  0  0  0  0  0  0  0  0
  185.1760  179.2200  143.0600 Cl  0  0  0  0  0  0  0  0  0  0  0  0
  188.0750  177.9370  140.5430 C   0  0  0  0  0  3  0  0  0  0  0  0
  186.8750  178.4570  141.0230 C   0  0  0  0  0  0  0  0  0  0  0  0
  187.5990  177.8670  143.2830 C   0  0  0  0  0  0  0  0  0  0  0  0
  186.6230  178.4400  142.4160 C   0  0  0  0  0  0  0  0  0  0  0  0
  188.9870  177.3790  141.3840 N   0  0  0  0  0  0  0  0  0  0  0  0
  188.7840  177.3580  142.7210 C   0  0  0  0  0  3  0  0  0  0  0  0
  188.4520  178.0580  145.4980 O   0  0  0  0  0  0  0  0  0  0  0  0
  187.4710  177.8020  144.7550 C   0  0  0  0  0  0  0  0  0  0  0  0
  186.1910  177.3430  145.3920 C   0  0  0  0  0  2  0  0  0  0  0  0
  184.6550  178.8630  146.4050 O   0  0  0  0  0  1  0  0  0  0  0  0
  185.8670  178.2100  146.6060 C   0  0  0  0  0  2  0  0  0  0  0  0
  1  5  1  0  0  0  0
  1  8  1  0  0  0  0
  1  2  1  0  0  0  0
  2 16  1  0  0  0  0
  4  5  1  0  0  0  0
  5  6  1  0  0  0  0
  6 22  1  0  0  0  0
  6  3  1  0  0  0  0
  7  3  1  0  0  0  0
  8  2  1  0  0  0  0
  8  7  1  0  0  0  0
  9  2  1  0  0  0  0
 10  9  2  0  0  0  0
 11  9  1  0  0  0  0
 12 14  1  0  0  0  0
 12  8  1  0  0  0  0
 13 12  1  0  0  0  0
 16 15  1  0  0  0  0
 16 19  1  0  0  0  0
 17 19  1  0  0  0  0
 19 18  1  0  0  0  0
 19 21  1  0  0  0  0
 21 20  1  0  0  0  0
 22 23  1  0  0  0  0
 23 26  1  0  0  0  0
 25 26  2  0  0  0  0
 25 29  1  0  0  0  0
 26 28  1  0  0  0  0
 27 32  1  0  0  0  0
 28 24  1  0  0  0  0
 28 27  2  0  0  0  0
 29 30  2  0  0  0  0
 30 27  1  0  0  0  0
 32 33  1  0  0  0  0
 32 31  2  0  0  0  0
 33 35  1  0  0  0  0
 34 35  1  0  0  0  0
M  END
>  <MODEL>
5

>  <REMARK>
 VINA RESULT:      -5.6      2.604      3.601
  Name = 
  11 active torsions:
  status: ('A' for Active; 'I' for Inactive)
    1  A    between atoms: C_4  and  O_5
    2  A    between atoms: C_4  and  C_26
    3  A    between atoms: O_5  and  C_9
    4  A    between atoms: C_6  and  C_11
    5  A    between atoms: C_11  and  C_34
    6  A    between atoms: C_12  and  C_23
    7  A    between atoms: C_23  and  C_35
    8  A    between atoms: C_24  and  C_32
    9  A    between atoms: C_24  and  C_34
   10  A    between atoms: C_25  and  C_33
   11  A    between atoms: C_28  and  C_35
                            x       y       z     vdW  Elec       q    Type
                         _______ _______ _______ _____ _____    ______ ____

>  <TORSDO>
F 11

$$$$
=
 OpenBabel11062415363D

 35 37  0  0  1  0  0  0  0  0999 V2000
  190.3250  177.5050  137.7040 C   0  0  2  0  0  3  0  0  0  0  0  0
  189.4720  176.5960  136.7940 C   0  0  1  0  0  0  0  0  0  0  0  0
  188.4860  176.7520  139.8900 C   0  0  0  0  0  2  0  0  0  0  0  0
  192.1450  177.1010  139.2100 O   0  0  0  0  0  1  0  0  0  0  0  0
  190.8110  176.7450  138.9550 C   0  0  1  0  0  3  0  0  0  0  0  0
  189.9430  177.0970  140.1710 C   0  0  2  0  0  3  0  0  0  0  0  0
  187.9370  177.6500  138.7710 C   0  0  0  0  0  2  0  0  0  0  0  0
  188.8310  177.7980  137.5070 C   0  0  1  0  0  0  0  0  0  0  0  0
  189.9680  176.7030  135.3750 C   0  0  0  0  0  0  0  0  0  0  0  0
  189.5830  177.6440  134.6320 O   0  0  0  0  0  0  0  0  0  0  0  0
  190.8950  175.7750  134.8840 O   0  0  0  0  0  1  0  0  0  0  0  0
  188.6450  179.0700  136.6810 C   0  0  2  0  0  3  0  0  0  0  0  0
  189.0650  180.1740  137.4160 O   0  0  0  0  0  1  0  0  0  0  0  0
  187.1860  179.2330  136.3120 C   0  0  0  0  0  1  0  0  0  0  0  0
  190.0830  174.2050  137.4340 C   0  0  0  0  0  1  0  0  0  0  0  0
  188.9440  175.2110  137.2820 C   0  0  2  0  0  3  0  0  0  0  0  0
  186.7790  175.6380  136.0200 C   0  0  0  0  0  1  0  0  0  0  0  0
  188.1780  173.7980  135.5180 O   0  0  0  0  0  1  0  0  0  0  0  0
  187.7250  174.5950  136.5750 C   0  0  1  0  0  0  0  0  0  0  0  0
  185.8900  172.4280  136.7520 S   0  0  0  0  0  1  0  0  0  0  0  0
  186.9250  173.7170  137.5630 C   0  0  0  0  0  2  0  0  0  0  0  0
  190.3980  176.4100  141.4700 C   0  0  0  0  0  2  0  0  0  0  0  0
  190.8600  177.3330  142.4730 O   0  0  0  0  0  0  0  0  0  0  0  0
  187.9930  178.2090  143.2770 Cl  0  0  0  0  0  0  0  0  0  0  0  0
  191.5340  176.8650  144.7070 C   0  0  0  0  0  3  0  0  0  0  0  0
  190.5270  177.2650  143.8310 C   0  0  0  0  0  0  0  0  0  0  0  0
  189.0140  177.4240  145.7450 C   0  0  0  0  0  0  0  0  0  0  0  0
  189.2420  177.5650  144.3450 C   0  0  0  0  0  0  0  0  0  0  0  0
  191.2920  176.7210  146.0380 N   0  0  0  0  0  0  0  0  0  0  0  0
  190.0810  177.0110  146.5640 C   0  0  0  0  0  3  0  0  0  0  0  0
  187.7000  178.0940  147.6150 O   0  0  0  0  0  0  0  0  0  0  0  0
  187.7290  177.7220  146.4150 C   0  0  0  0  0  0  0  0  0  0  0  0
  186.4260  177.5010  145.7010 C   0  0  0  0  0  2  0  0  0  0  0  0
  184.5980  178.3680  146.9690 O   0  0  0  0  0  1  0  0  0  0  0  0
  185.4870  178.6800  145.9440 C   0  0  0  0  0  2  0  0  0  0  0  0
  1  5  1  0  0  0  0
  2 16  1  0  0  0  0
  2  8  1  0  0  0  0
  2  1  1  0  0  0  0
  3  6  1  0  0  0  0
  5  4  1  0  0  0  0
  5  6  1  0  0  0  0
  6 22  1  0  0  0  0
  7  3  1  0  0  0  0
  8  1  1  0  0  0  0
  8  7  1  0  0  0  0
  9  2  1  0  0  0  0
 10  9  2  0  0  0  0
 11  9  1  0  0  0  0
 12 13  1  0  0  0  0
 12  8  1  0  0  0  0
 14 12  1  0  0  0  0
 16 15  1  0  0  0  0
 17 19  1  0  0  0  0
 18 19  1  0  0  0  0
 19 16  1  0  0  0  0
 19 21  1  0  0  0  0
 20 21  1  0  0  0  0
 22 23  1  0  0  0  0
 23 26  1  0  0  0  0
 24 28  1  0  0  0  0
 25 29  1  0  0  0  0
 26 28  1  0  0  0  0
 26 25  2  0  0  0  0
 27 32  1  0  0  0  0
 27 30  1  0  0  0  0
 28 27  2  0  0  0  0
 29 30  2  0  0  0  0
 32 31  2  0  0  0  0
 33 35  1  0  0  0  0
 33 32  1  0  0  0  0
 35 34  1  0  0  0  0
M  END
>  <MODEL>
6

>  <REMARK>
 VINA RESULT:      -5.2      5.333      6.689
  Name = 
  11 active torsions:
  status: ('A' for Active; 'I' for Inactive)
    1  A    between atoms: C_4  and  O_5
    2  A    between atoms: C_4  and  C_26
    3  A    between atoms: O_5  and  C_9
    4  A    between atoms: C_6  and  C_11
    5  A    between atoms: C_11  and  C_34
    6  A    between atoms: C_12  and  C_23
    7  A    between atoms: C_23  and  C_35
    8  A    between atoms: C_24  and  C_32
    9  A    between atoms: C_24  and  C_34
   10  A    between atoms: C_25  and  C_33
   11  A    between atoms: C_28  and  C_35
                            x       y       z     vdW  Elec       q    Type
                         _______ _______ _______ _____ _____    ______ ____

>  <TORSDO>
F 11

$$$$
=
 OpenBabel11062415363D

 35 37  0  0  1  0  0  0  0  0999 V2000
  182.0760  179.2030  138.2950 C   0  0  2  0  0  3  0  0  0  0  0  0
  182.0440  177.9270  137.4280 C   0  0  1  0  0  0  0  0  0  0  0  0
  183.3600  177.5480  140.3780 C   0  0  0  0  0  2  0  0  0  0  0  0
  183.7390  180.8760  138.7190 O   0  0  0  0  0  1  0  0  0  0  0  0
  183.5010  179.4950  138.8070 C   0  0  1  0  0  3  0  0  0  0  0  0
  183.6550  179.0380  140.2640 C   0  0  2  0  0  3  0  0  0  0  0  0
  181.8820  177.2770  140.0590 C   0  0  0  0  0  2  0  0  0  0  0  0
  181.3170  177.9610  138.7820 C   0  0  1  0  0  0  0  0  0  0  0  0
  181.3130  178.2160  136.1410 C   0  0  0  0  0  0  0  0  0  0  0  0
  181.4230  179.3390  135.5820 O   0  0  0  0  0  1  0  0  0  0  0  0
  180.5360  177.2200  135.5370 O   0  0  0  0  0  0  0  0  0  0  0  0
  179.8100  178.2140  138.7490 C   0  0  2  0  0  3  0  0  0  0  0  0
  179.5630  179.5450  138.4310 O   0  0  0  0  0  1  0  0  0  0  0  0
  179.2060  177.8970  140.1010 C   0  0  0  0  0  1  0  0  0  0  0  0
  184.3510  177.4540  136.4520 C   0  0  0  0  0  1  0  0  0  0  0  0
  183.2500  176.9390  137.3780 C   0  0  2  0  0  3  0  0  0  0  0  0
  183.8860  174.5510  137.9710 C   0  0  0  0  0  1  0  0  0  0  0  0
  181.6480  175.1770  137.5320 O   0  0  0  0  0  1  0  0  0  0  0  0
  182.9710  175.4440  137.1600 C   0  0  1  0  0  0  0  0  0  0  0  0
  184.4660  173.8150  135.3690 S   0  0  0  0  0  1  0  0  0  0  0  0
  183.1600  175.0780  135.6710 C   0  0  0  0  0  2  0  0  0  0  0  0
  185.0410  179.3400  140.8600 C   0  0  0  0  0  2  0  0  0  0  0  0
  186.1130  178.6500  140.1910 O   0  0  0  0  0  0  0  0  0  0  0  0
  186.0910  178.3020  143.2750 Cl  0  0  0  0  0  0  0  0  0  0  0  0
  188.4240  178.1290  139.9710 C   0  0  0  0  0  3  0  0  0  0  0  0
  187.3130  178.2640  140.8000 C   0  0  0  0  0  0  0  0  0  0  0  0
  188.7140  177.5780  142.6820 C   0  0  0  0  0  0  0  0  0  0  0  0
  187.4470  178.0000  142.1840 C   0  0  0  0  0  0  0  0  0  0  0  0
  189.6210  177.7090  140.4630 N   0  0  0  0  0  0  0  0  0  0  0  0
  189.7870  177.4600  141.7810 C   0  0  0  0  0  3  0  0  0  0  0  0
  188.1740  176.6450  144.8060 O   0  0  0  0  0  0  0  0  0  0  0  0
  188.9960  177.2880  144.1050 C   0  0  0  0  0  0  0  0  0  0  0  0
  190.2310  177.8290  144.7670 C   0  0  0  0  0  2  0  0  0  0  0  0
  192.0540  177.1680  146.1600 O   0  0  0  0  0  1  0  0  0  0  0  0
  191.1080  176.6810  145.2620 C   0  0  0  0  0  2  0  0  0  0  0  0
  1  8  1  0  0  0  0
  1  5  1  0  0  0  0
  2  1  1  0  0  0  0
  2  8  1  0  0  0  0
  4  5  1  0  0  0  0
  5  6  1  0  0  0  0
  6  3  1  0  0  0  0
  6 22  1  0  0  0  0
  7  3  1  0  0  0  0
  8  7  1  0  0  0  0
  9  2  1  0  0  0  0
 10  9  1  0  0  0  0
 11  9  2  0  0  0  0
 12  8  1  0  0  0  0
 12 14  1  0  0  0  0
 13 12  1  0  0  0  0
 15 16  1  0  0  0  0
 16  2  1  0  0  0  0
 19 16  1  0  0  0  0
 19 18  1  0  0  0  0
 19 17  1  0  0  0  0
 20 21  1  0  0  0  0
 21 19  1  0  0  0  0
 23 26  1  0  0  0  0
 23 22  1  0  0  0  0
 25 29  2  0  0  0  0
 25 26  1  0  0  0  0
 26 28  2  0  0  0  0
 27 32  1  0  0  0  0
 28 27  1  0  0  0  0
 28 24  1  0  0  0  0
 29 30  1  0  0  0  0
 30 27  2  0  0  0  0
 32 33  1  0  0  0  0
 32 31  2  0  0  0  0
 33 35  1  0  0  0  0
 35 34  1  0  0  0  0
M  END
>  <MODEL>
7

>  <REMARK>
 VINA RESULT:      -5.0      2.654      3.183
  Name = 
  11 active torsions:
  status: ('A' for Active; 'I' for Inactive)
    1  A    between atoms: C_4  and  O_5
    2  A    between atoms: C_4  and  C_26
    3  A    between atoms: O_5  and  C_9
    4  A    between atoms: C_6  and  C_11
    5  A    between atoms: C_11  and  C_34
    6  A    between atoms: C_12  and  C_23
    7  A    between atoms: C_23  and  C_35
    8  A    between atoms: C_24  and  C_32
    9  A    between atoms: C_24  and  C_34
   10  A    between atoms: C_25  and  C_33
   11  A    between atoms: C_28  and  C_35
                            x       y       z     vdW  Elec       q    Type
                         _______ _______ _______ _____ _____    ______ ____

>  <TORSDO>
F 11

$$$$
=
 OpenBabel11062415363D

 35 37  0  0  1  0  0  0  0  0999 V2000
  181.4310  177.2840  138.3540 C   0  0  2  0  0  3  0  0  0  0  0  0
  180.7800  178.4710  137.6110 C   0  0  1  0  0  0  0  0  0  0  0  0
  183.3710  179.2390  139.4210 C   0  0  0  0  0  2  0  0  0  0  0  0
  181.2230  176.4060  140.5730 O   0  0  0  0  0  1  0  0  0  0  0  0
  181.5550  177.5710  139.8640 C   0  0  1  0  0  3  0  0  0  0  0  0
  182.9860  177.9980  140.2160 C   0  0  2  0  0  3  0  0  0  0  0  0
  183.4430  178.9050  137.9230 C   0  0  0  0  0  2  0  0  0  0  0  0
  182.2480  178.0980  137.3410 C   0  0  1  0  0  0  0  0  0  0  0  0
  179.6690  177.9600  136.7300 C   0  0  0  0  0  0  0  0  0  0  0  0
  179.4200  178.5170  135.6280 O   0  0  0  0  0  0  0  0  0  0  0  0
  178.9310  176.8330  137.1130 O   0  0  0  0  0  1  0  0  0  0  0  0
  182.5270  177.2640  136.0920 C   0  0  2  0  0  3  0  0  0  0  0  0
  182.1660  175.9400  136.3200 O   0  0  0  0  0  1  0  0  0  0  0  0
  184.0000  177.3330  135.7470 C   0  0  0  0  0  1  0  0  0  0  0  0
  179.4090  179.8490  139.2600 C   0  0  0  0  0  1  0  0  0  0  0  0
  180.5920  179.8610  138.2930 C   0  0  2  0  0  3  0  0  0  0  0  0
  181.4690  182.2250  137.9790 C   0  0  0  0  0  1  0  0  0  0  0  0
  181.0860  180.7800  136.1470 O   0  0  0  0  0  1  0  0  0  0  0  0
  180.6010  181.1220  137.4150 C   0  0  1  0  0  0  0  0  0  0  0  0
  178.9330  182.7790  135.8120 S   0  0  0  0  0  1  0  0  0  0  0  0
  179.1680  181.6810  137.2720 C   0  0  0  0  0  2  0  0  0  0  0  0
  183.1990  178.2570  141.7170 C   0  0  0  0  0  2  0  0  0  0  0  0
  184.5810  178.2100  142.1150 O   0  0  0  0  0  0  0  0  0  0  0  0
  187.1590  176.6880  142.9330 Cl  0  0  0  0  0  0  0  0  0  0  0  0
  184.2620  179.1830  144.2630 C   0  0  0  0  0  3  0  0  0  0  0  0
  185.0390  178.3860  143.4260 C   0  0  0  0  0  0  0  0  0  0  0  0
  186.6150  178.0960  145.2730 C   0  0  0  0  0  0  0  0  0  0  0  0
  186.2340  177.8150  143.9290 C   0  0  0  0  0  0  0  0  0  0  0  0
  184.6520  179.4540  145.5380 N   0  0  0  0  0  0  0  0  0  0  0  0
  185.7790  178.9150  146.0540 C   0  0  0  0  0  3  0  0  0  0  0  0
  187.7650  177.0600  147.0830 O   0  0  0  0  0  0  0  0  0  0  0  0
  187.8250  177.5520  145.9280 C   0  0  0  0  0  0  0  0  0  0  0  0
  189.1670  177.6540  145.2610 C   0  0  0  0  0  2  0  0  0  0  0  0
  191.5110  177.4190  145.6460 O   0  0  0  0  0  1  0  0  0  0  0  0
  190.2620  177.1720  146.2090 C   0  0  0  0  0  2  0  0  0  0  0  0
  1  5  1  0  0  0  0
  2 16  1  0  0  0  0
  2  1  1  0  0  0  0
  3  6  1  0  0  0  0
  5  6  1  0  0  0  0
  5  4  1  0  0  0  0
  6 22  1  0  0  0  0
  7  3  1  0  0  0  0
  8  2  1  0  0  0  0
  8  7  1  0  0  0  0
  8  1  1  0  0  0  0
  9 11  1  0  0  0  0
  9  2  1  0  0  0  0
 10  9  2  0  0  0  0
 12 13  1  0  0  0  0
 12  8  1  0  0  0  0
 14 12  1  0  0  0  0
 16 15  1  0  0  0  0
 18 19  1  0  0  0  0
 19 17  1  0  0  0  0
 19 16  1  0  0  0  0
 20 21  1  0  0  0  0
 21 19  1  0  0  0  0
 22 23  1  0  0  0  0
 23 26  1  0  0  0  0
 24 28  1  0  0  0  0
 25 29  1  0  0  0  0
 26 28  1  0  0  0  0
 26 25  2  0  0  0  0
 27 32  1  0  0  0  0
 27 30  1  0  0  0  0
 28 27  2  0  0  0  0
 29 30  2  0  0  0  0
 32 31  2  0  0  0  0
 33 32  1  0  0  0  0
 33 35  1  0  0  0  0
 34 35  1  0  0  0  0
M  END
>  <MODEL>
8

>  <REMARK>
 VINA RESULT:      -4.9      1.953      3.635
  Name = 
  11 active torsions:
  status: ('A' for Active; 'I' for Inactive)
    1  A    between atoms: C_4  and  O_5
    2  A    between atoms: C_4  and  C_26
    3  A    between atoms: O_5  and  C_9
    4  A    between atoms: C_6  and  C_11
    5  A    between atoms: C_11  and  C_34
    6  A    between atoms: C_12  and  C_23
    7  A    between atoms: C_23  and  C_35
    8  A    between atoms: C_24  and  C_32
    9  A    between atoms: C_24  and  C_34
   10  A    between atoms: C_25  and  C_33
   11  A    between atoms: C_28  and  C_35
                            x       y       z     vdW  Elec       q    Type
                         _______ _______ _______ _____ _____    ______ ____

>  <TORSDO>
F 11

$$$$
=
 OpenBabel11062415363D

 35 37  0  0  1  0  0  0  0  0999 V2000
  182.5500  178.5480  140.0110 C   0  0  2  0  0  3  0  0  0  0  0  0
  181.3690  179.2180  139.2770 C   0  0  1  0  0  0  0  0  0  0  0  0
  183.6170  177.8940  137.3360 C   0  0  0  0  0  2  0  0  0  0  0  0
  184.7500  179.2790  140.6170 O   0  0  0  0  0  1  0  0  0  0  0  0
  183.9010  179.1000  139.5130 C   0  0  1  0  0  3  0  0  0  0  0  0
  184.5480  178.1260  138.5190 C   0  0  2  0  0  3  0  0  0  0  0  0
  182.3480  177.1620  137.7980 C   0  0  0  0  0  2  0  0  0  0  0  0
  181.6580  177.7210  139.0750 C   0  0  1  0  0  0  0  0  0  0  0  0
  180.3540  179.6870  140.2880 C   0  0  0  0  0  0  0  0  0  0  0  0
  179.1270  179.6950  140.0060 O   0  0  0  0  0  0  0  0  0  0  0  0
  180.7680  180.0810  141.5670 O   0  0  0  0  0  1  0  0  0  0  0  0
  180.8090  176.7400  139.8810 C   0  0  2  0  0  3  0  0  0  0  0  0
  181.5720  175.6280  140.2230 O   0  0  0  0  0  1  0  0  0  0  0  0
  179.6140  176.3010  139.0620 C   0  0  0  0  0  1  0  0  0  0  0  0
  181.9520  181.5240  138.3610 C   0  0  0  0  0  1  0  0  0  0  0  0
  181.5830  180.0860  137.9990 C   0  0  2  0  0  3  0  0  0  0  0  0
  181.1380  179.8490  135.5080 C   0  0  0  0  0  1  0  0  0  0  0  0
  179.6710  178.9520  137.1320 O   0  0  0  0  0  1  0  0  0  0  0  0
  180.5290  180.0290  136.8820 C   0  0  1  0  0  0  0  0  0  0  0  0
  179.5370  182.0880  135.1880 S   0  0  0  0  0  1  0  0  0  0  0  0
  179.7050  181.3360  136.8600 C   0  0  0  0  0  2  0  0  0  0  0  0
  185.9250  178.5890  138.0120 C   0  0  0  0  0  2  0  0  0  0  0  0
  186.8200  177.5010  137.7160 O   0  0  0  0  0  0  0  0  0  0  0  0
  188.9020  175.9480  136.0190 Cl  0  0  0  0  0  0  0  0  0  0  0  0
  188.3150  177.8760  139.5300 C   0  0  0  0  0  3  0  0  0  0  0  0
  188.1040  177.3580  138.2540 C   0  0  0  0  0  0  0  0  0  0  0  0
  190.4540  176.6820  138.2110 C   0  0  0  0  0  0  0  0  0  0  0  0
  189.1790  176.7360  137.5740 C   0  0  0  0  0  0  0  0  0  0  0  0
  189.5430  177.8300  140.1140 N   0  0  0  0  0  0  0  0  0  0  0  0
  190.5880  177.2320  139.4980 C   0  0  0  0  0  3  0  0  0  0  0  0
  192.5500  176.7430  137.0840 O   0  0  0  0  0  0  0  0  0  0  0  0
  191.6540  176.0480  137.6230 C   0  0  0  0  0  0  0  0  0  0  0  0
  191.7840  174.5520  137.5800 C   0  0  0  0  0  2  0  0  0  0  0  0
  194.0470  174.5420  138.3410 O   0  0  0  0  0  1  0  0  0  0  0  0
  193.2290  174.1590  137.2820 C   0  0  0  0  0  2  0  0  0  0  0  0
  2  1  1  0  0  0  0
  2  9  1  0  0  0  0
  3  7  1  0  0  0  0
  3  6  1  0  0  0  0
  5  1  1  0  0  0  0
  5  4  1  0  0  0  0
  6  5  1  0  0  0  0
  7  8  1  0  0  0  0
  8  2  1  0  0  0  0
  8 12  1  0  0  0  0
  8  1  1  0  0  0  0
  9 11  1  0  0  0  0
 10  9  2  0  0  0  0
 12 13  1  0  0  0  0
 14 12  1  0  0  0  0
 16 15  1  0  0  0  0
 16  2  1  0  0  0  0
 17 19  1  0  0  0  0
 19 18  1  0  0  0  0
 19 16  1  0  0  0  0
 20 21  1  0  0  0  0
 21 19  1  0  0  0  0
 22  6  1  0  0  0  0
 23 22  1  0  0  0  0
 23 26  1  0  0  0  0
 24 28  1  0  0  0  0
 25 29  1  0  0  0  0
 26 25  2  0  0  0  0
 27 30  1  0  0  0  0
 28 27  2  0  0  0  0
 28 26  1  0  0  0  0
 30 29  2  0  0  0  0
 31 32  2  0  0  0  0
 32 27  1  0  0  0  0
 33 32  1  0  0  0  0
 35 33  1  0  0  0  0
 35 34  1  0  0  0  0
M  END
>  <MODEL>
9

>  <REMARK>
 VINA RESULT:      -4.4      4.665      6.236
  Name = 
  11 active torsions:
  status: ('A' for Active; 'I' for Inactive)
    1  A    between atoms: C_4  and  O_5
    2  A    between atoms: C_4  and  C_26
    3  A    between atoms: O_5  and  C_9
    4  A    between atoms: C_6  and  C_11
    5  A    between atoms: C_11  and  C_34
    6  A    between atoms: C_12  and  C_23
    7  A    between atoms: C_23  and  C_35
    8  A    between atoms: C_24  and  C_32
    9  A    between atoms: C_24  and  C_34
   10  A    between atoms: C_25  and  C_33
   11  A    between atoms: C_28  and  C_35
                            x       y       z     vdW  Elec       q    Type
                         _______ _______ _______ _____ _____    ______ ____

>  <TORSDO>
F 11

$$$$
