=
 OpenBabel11062417163D

 26 31  0  0  1  0  0  0  0  0999 V2000
  186.6960  178.5720  141.0670 O   0  0  0  0  0  0  0  0  0  0  0  0
  186.9260  177.5770  141.9990 N   0  0  0  0  0  0  0  0  0  0  0  0
  187.9650  178.4770  141.5550 C   0  0  1  0  0  3  0  0  0  0  0  0
  188.8280  177.8050  140.5790 N   0  0  0  0  0  0  0  0  0  0  0  0
  190.6200  176.3160  140.2370 O   0  0  0  0  0  0  0  0  0  0  0  0
  189.9500  177.0170  141.0500 C   0  0  0  0  0  0  0  0  0  0  0  0
  187.6840  176.9600  138.1080 S   0  0  0  0  0  0  0  0  0  0  0  0
  188.8130  179.1730  137.1580 N   0  0  0  0  0  0  0  0  0  0  0  0
  189.1060  179.1210  138.5420 C   0  0  0  0  0  3  0  0  0  0  0  0
  188.6080  178.0720  139.1730 C   0  0  0  0  0  0  0  0  0  0  0  0
  188.0390  178.0400  136.6770 C   0  0  0  0  0  3  0  0  0  0  0  0
  191.7040  176.5230  142.6370 C   0  0  1  0  0  3  0  0  0  0  0  0
  190.5870  175.6580  143.0440 N   0  0  0  0  0  2  0  0  0  0  0  0
  190.3120  177.0020  142.5180 C   0  0  2  0  0  0  0  0  0  0  0  0
  191.4010  177.9760  142.9020 C   0  0  0  0  0  2  0  0  0  0  0  0
  186.4560  178.0800  143.2800 C   0  0  0  0  0  2  0  0  0  0  0  0
  187.1200  177.3320  144.4270 C   0  0  0  0  0  2  0  0  0  0  0  0
  187.6760  178.2920  145.4720 C   0  0  2  0  0  3  0  0  0  0  0  0
  185.0790  179.1390  146.0840 F   0  0  0  0  0  0  0  0  0  0  0  0
  187.6400  176.9420  147.6910 C   0  0  0  0  0  3  0  0  0  0  0  0
  189.1750  178.1240  145.5760 C   0  0  0  0  0  3  0  0  0  0  0  0
  188.9340  176.6570  147.5360 C   0  0  0  0  0  3  0  0  0  0  0  0
  186.8200  179.1820  147.5580 O   0  0  0  0  0  0  0  0  0  0  0  0
  185.6580  178.4850  147.1580 C   0  0  2  0  0  3  0  0  0  0  0  0
  187.0190  177.9970  146.8270 C   0  0  1  0  0  0  0  0  0  0  0  0
  189.7440  177.3420  146.5050 C   0  0  0  0  0  3  0  0  0  0  0  0
  1  3  1  0  0  0  0
  1  2  1  0  0  0  0
  2 16  1  0  0  0  0
  3  4  1  6  0  0  0
  3  2  1  0  0  0  0
  4  6  1  0  0  0  0
  5  6  2  0  0  0  0
  7 10  1  0  0  0  0
  8  9  1  0  0  0  0
  9 10  2  0  0  0  0
 10  4  1  0  0  0  0
 11  8  2  0  0  0  0
 11  7  1  0  0  0  0
 12 15  1  1  0  0  0
 12 13  1  0  0  0  0
 14  6  1  6  0  0  0
 14 12  1  0  0  0  0
 14 15  1  0  0  0  0
 14 13  1  0  0  0  0
 16 17  1  0  0  0  0
 18 17  1  6  0  0  0
 18 21  1  0  0  0  0
 18 25  1  0  0  0  0
 21 26  2  0  0  0  0
 22 20  2  0  0  0  0
 24 19  1  6  0  0  0
 24 23  1  0  0  0  0
 25 24  1  0  0  0  0
 25 23  1  0  0  0  0
 25 20  1  1  0  0  0
 26 22  1  0  0  0  0
M  END
>  <MODEL>
1

>  <REMARK>
 VINA RESULT:      -7.2      0.000      0.000
  Name = 
  6 active torsions:
  status: ('A' for Active; 'I' for Inactive)
    1  A    between atoms: C_1  and  C_7
    2  A    between atoms: C_1  and  N_18
    3  A    between atoms: C_4  and  C_7
    4  A    between atoms: C_13  and  C_24
    5  A    between atoms: N_15  and  C_20
    6  A    between atoms: N_15  and  C_21
                            x       y       z     vdW  Elec       q    Type
                         _______ _______ _______ _____ _____    ______ ____

>  <TORSDO>
F 6

$$$$
=
 OpenBabel11062417163D

 26 31  0  0  1  0  0  0  0  0999 V2000
  190.2830  176.3780  140.3780 O   0  0  0  0  0  0  0  0  0  0  0  0
  189.7880  177.6640  140.2680 N   0  0  0  0  0  0  0  0  0  0  0  0
  189.2850  176.5700  139.4710 C   0  0  1  0  0  3  0  0  0  0  0  0
  189.8440  176.6360  138.1170 N   0  0  0  0  0  0  0  0  0  0  0  0
  189.6750  177.5770  135.9650 O   0  0  0  0  0  0  0  0  0  0  0  0
  189.1410  177.3890  137.0960 C   0  0  0  0  0  0  0  0  0  0  0  0
  192.6830  176.4640  137.9190 S   0  0  0  0  0  0  0  0  0  0  0  0
  192.1890  173.9770  137.1150 N   0  0  0  0  0  0  0  0  0  0  0  0
  190.9370  174.5760  137.3970 C   0  0  0  0  0  3  0  0  0  0  0  0
  191.0070  175.8280  137.8180 C   0  0  0  0  0  0  0  0  0  0  0  0
  193.3240  174.8630  137.3130 C   0  0  0  0  0  3  0  0  0  0  0  0
  187.0970  178.1930  136.0900 C   0  0  1  0  0  3  0  0  0  0  0  0
  187.6050  179.3400  136.8570 N   0  0  0  0  0  2  0  0  0  0  0  0
  187.7790  177.9790  137.3830 C   0  0  2  0  0  0  0  0  0  0  0  0
  186.6200  177.0890  137.0000 C   0  0  0  0  0  2  0  0  0  0  0  0
  188.8480  177.8520  141.3620 C   0  0  0  0  0  2  0  0  0  0  0  0
  189.5890  178.0640  142.6750 C   0  0  0  0  0  2  0  0  0  0  0  0
  189.3360  176.9190  143.6490 C   0  0  2  0  0  3  0  0  0  0  0  0
  192.0160  177.0060  144.4530 F   0  0  0  0  0  0  0  0  0  0  0  0
  188.7410  178.0850  145.8940 C   0  0  0  0  0  3  0  0  0  0  0  0
  187.8710  176.5470  143.6340 C   0  0  0  0  0  3  0  0  0  0  0  0
  187.4430  177.9060  145.6390 C   0  0  0  0  0  3  0  0  0  0  0  0
  190.3050  176.2840  145.7780 O   0  0  0  0  0  0  0  0  0  0  0  0
  191.1710  177.3620  145.4910 C   0  0  2  0  0  3  0  0  0  0  0  0
  189.7520  177.3580  145.0600 C   0  0  1  0  0  0  0  0  0  0  0  0
  187.0000  177.0330  144.5300 C   0  0  0  0  0  3  0  0  0  0  0  0
  2  1  1  0  0  0  0
  2 16  1  0  0  0  0
  3  4  1  6  0  0  0
  3  2  1  0  0  0  0
  3  1  1  0  0  0  0
  5  6  2  0  0  0  0
  6  4  1  0  0  0  0
  8 11  2  0  0  0  0
  8  9  1  0  0  0  0
  9 10  2  0  0  0  0
 10  7  1  0  0  0  0
 10  4  1  0  0  0  0
 11  7  1  0  0  0  0
 12 13  1  0  0  0  0
 12 15  1  1  0  0  0
 12 14  1  0  0  0  0
 13 14  1  0  0  0  0
 14  6  1  6  0  0  0
 15 14  1  0  0  0  0
 16 17  1  0  0  0  0
 18 17  1  6  0  0  0
 18 25  1  0  0  0  0
 21 18  1  0  0  0  0
 21 26  2  0  0  0  0
 22 20  2  0  0  0  0
 24 19  1  6  0  0  0
 24 23  1  0  0  0  0
 25 24  1  0  0  0  0
 25 23  1  0  0  0  0
 25 20  1  1  0  0  0
 26 22  1  0  0  0  0
M  END
>  <MODEL>
2

>  <REMARK>
 VINA RESULT:      -6.8      3.152      4.918
  Name = 
  6 active torsions:
  status: ('A' for Active; 'I' for Inactive)
    1  A    between atoms: C_1  and  C_7
    2  A    between atoms: C_1  and  N_18
    3  A    between atoms: C_4  and  C_7
    4  A    between atoms: C_13  and  C_24
    5  A    between atoms: N_15  and  C_20
    6  A    between atoms: N_15  and  C_21
                            x       y       z     vdW  Elec       q    Type
                         _______ _______ _______ _____ _____    ______ ____

>  <TORSDO>
F 6

$$$$
=
 OpenBabel11062417163D

 26 31  0  0  1  0  0  0  0  0999 V2000
  186.6930  178.5220  141.1040 O   0  0  0  0  0  0  0  0  0  0  0  0
  187.0140  177.6440  142.1220 N   0  0  0  0  0  0  0  0  0  0  0  0
  187.9820  178.5450  141.5420 C   0  0  1  0  0  3  0  0  0  0  0  0
  188.8450  177.8210  140.6030 N   0  0  0  0  0  0  0  0  0  0  0  0
  190.5970  176.2710  140.3400 O   0  0  0  0  0  0  0  0  0  0  0  0
  189.9320  177.0130  141.1190 C   0  0  0  0  0  0  0  0  0  0  0  0
  187.8730  176.8590  138.1010 S   0  0  0  0  0  0  0  0  0  0  0  0
  188.8550  179.1480  137.1660 N   0  0  0  0  0  0  0  0  0  0  0  0
  189.0950  179.1350  138.5620 C   0  0  0  0  0  3  0  0  0  0  0  0
  188.6590  178.0540  139.1870 C   0  0  0  0  0  0  0  0  0  0  0  0
  188.1960  177.9510  136.6710 C   0  0  0  0  0  3  0  0  0  0  0  0
  191.7150  176.7840  142.7350 C   0  0  1  0  0  3  0  0  0  0  0  0
  190.7480  175.7390  143.1030 N   0  0  0  0  0  2  0  0  0  0  0  0
  190.2650  177.0300  142.5940 C   0  0  2  0  0  0  0  0  0  0  0  0
  191.1710  178.1620  143.0170 C   0  0  0  0  0  2  0  0  0  0  0  0
  186.5660  178.2530  143.3640 C   0  0  0  0  0  2  0  0  0  0  0  0
  187.6410  178.1410  144.4350 C   0  0  0  0  0  2  0  0  0  0  0  0
  187.1670  177.3030  145.6160 C   0  0  2  0  0  3  0  0  0  0  0  0
  189.8080  176.5370  146.1400 F   0  0  0  0  0  0  0  0  0  0  0  0
  187.3400  178.8930  147.6640 C   0  0  0  0  0  3  0  0  0  0  0  0
  185.6770  177.4780  145.8040 C   0  0  0  0  0  3  0  0  0  0  0  0
  186.0350  179.1560  147.5660 C   0  0  0  0  0  3  0  0  0  0  0  0
  188.1720  176.6550  147.7250 O   0  0  0  0  0  0  0  0  0  0  0  0
  189.2970  177.3060  147.1720 C   0  0  2  0  0  3  0  0  0  0  0  0
  187.9120  177.7500  146.8820 C   0  0  1  0  0  0  0  0  0  0  0  0
  185.1650  178.3580  146.6760 C   0  0  0  0  0  3  0  0  0  0  0  0
  1  3  1  0  0  0  0
  1  2  1  0  0  0  0
  2 16  1  0  0  0  0
  3  4  1  6  0  0  0
  3  2  1  0  0  0  0
  4  6  1  0  0  0  0
  5  6  2  0  0  0  0
  7 10  1  0  0  0  0
  8  9  1  0  0  0  0
  9 10  2  0  0  0  0
 10  4  1  0  0  0  0
 11  8  2  0  0  0  0
 11  7  1  0  0  0  0
 12 15  1  1  0  0  0
 12 13  1  0  0  0  0
 14  6  1  6  0  0  0
 14 12  1  0  0  0  0
 14 15  1  0  0  0  0
 14 13  1  0  0  0  0
 16 17  1  0  0  0  0
 18 17  1  6  0  0  0
 18 21  1  0  0  0  0
 18 25  1  0  0  0  0
 21 26  2  0  0  0  0
 22 20  2  0  0  0  0
 24 19  1  6  0  0  0
 24 23  1  0  0  0  0
 25 24  1  0  0  0  0
 25 20  1  1  0  0  0
 25 23  1  0  0  0  0
 26 22  1  0  0  0  0
M  END
>  <MODEL>
3

>  <REMARK>
 VINA RESULT:      -6.8      1.347      2.045
  Name = 
  6 active torsions:
  status: ('A' for Active; 'I' for Inactive)
    1  A    between atoms: C_1  and  C_7
    2  A    between atoms: C_1  and  N_18
    3  A    between atoms: C_4  and  C_7
    4  A    between atoms: C_13  and  C_24
    5  A    between atoms: N_15  and  C_20
    6  A    between atoms: N_15  and  C_21
                            x       y       z     vdW  Elec       q    Type
                         _______ _______ _______ _____ _____    ______ ____

>  <TORSDO>
F 6

$$$$
=
 OpenBabel11062417163D

 26 31  0  0  1  0  0  0  0  0999 V2000
  189.4700  177.9520  140.3380 O   0  0  0  0  0  0  0  0  0  0  0  0
  189.5240  176.5950  140.5990 N   0  0  0  0  0  0  0  0  0  0  0  0
  190.4450  177.2480  139.6980 C   0  0  1  0  0  3  0  0  0  0  0  0
  190.0520  176.9970  138.3080 N   0  0  0  0  0  0  0  0  0  0  0  0
  190.5050  175.8190  136.3200 O   0  0  0  0  0  0  0  0  0  0  0  0
  190.8950  176.1640  137.4720 C   0  0  0  0  0  0  0  0  0  0  0  0
  187.2870  176.9480  137.6140 S   0  0  0  0  0  0  0  0  0  0  0  0
  187.7370  179.4460  136.8210 N   0  0  0  0  0  0  0  0  0  0  0  0
  188.9590  178.9510  137.3370 C   0  0  0  0  0  3  0  0  0  0  0  0
  188.9050  177.7070  137.7830 C   0  0  0  0  0  0  0  0  0  0  0  0
  186.6510  178.4810  136.8490 C   0  0  0  0  0  3  0  0  0  0  0  0
  193.0890  175.3980  136.8090 C   0  0  1  0  0  3  0  0  0  0  0  0
  192.5380  174.2900  137.6030 N   0  0  0  0  0  2  0  0  0  0  0  0
  192.2340  175.6780  137.9800 C   0  0  2  0  0  0  0  0  0  0  0  0
  193.3910  176.5980  137.6710 C   0  0  0  0  0  2  0  0  0  0  0  0
  190.2200  176.4340  141.8650 C   0  0  0  0  0  2  0  0  0  0  0  0
  189.2270  176.3110  143.0120 C   0  0  0  0  0  2  0  0  0  0  0  0
  189.1630  177.5920  143.8350 C   0  0  2  0  0  3  0  0  0  0  0  0
  186.4140  177.2220  144.2080 F   0  0  0  0  0  0  0  0  0  0  0  0
  189.4880  176.8120  146.2920 C   0  0  0  0  0  3  0  0  0  0  0  0
  190.5520  178.1660  143.9980 C   0  0  0  0  0  3  0  0  0  0  0  0
  190.7800  177.1420  146.2230 C   0  0  0  0  0  3  0  0  0  0  0  0
  187.7630  178.3410  145.6670 O   0  0  0  0  0  0  0  0  0  0  0  0
  187.0990  177.1220  145.4070 C   0  0  2  0  0  3  0  0  0  0  0  0
  188.5610  177.2760  145.2110 C   0  0  1  0  0  0  0  0  0  0  0  0
  191.3030  177.9250  145.0820 C   0  0  0  0  0  3  0  0  0  0  0  0
  1  2  1  0  0  0  0
  2 16  1  0  0  0  0
  3  4  1  6  0  0  0
  3  1  1  0  0  0  0
  3  2  1  0  0  0  0
  5  6  2  0  0  0  0
  6  4  1  0  0  0  0
  7 10  1  0  0  0  0
  8 11  2  0  0  0  0
  8  9  1  0  0  0  0
  9 10  2  0  0  0  0
 10  4  1  0  0  0  0
 11  7  1  0  0  0  0
 12 13  1  0  0  0  0
 12 15  1  1  0  0  0
 12 14  1  0  0  0  0
 13 14  1  0  0  0  0
 14  6  1  6  0  0  0
 15 14  1  0  0  0  0
 16 17  1  0  0  0  0
 18 17  1  6  0  0  0
 18 21  1  0  0  0  0
 18 25  1  0  0  0  0
 21 26  2  0  0  0  0
 22 20  2  0  0  0  0
 24 19  1  6  0  0  0
 24 23  1  0  0  0  0
 25 24  1  0  0  0  0
 25 23  1  0  0  0  0
 25 20  1  1  0  0  0
 26 22  1  0  0  0  0
M  END
>  <MODEL>
4

>  <REMARK>
 VINA RESULT:      -6.7      2.676      3.307
  Name = 
  6 active torsions:
  status: ('A' for Active; 'I' for Inactive)
    1  A    between atoms: C_1  and  C_7
    2  A    between atoms: C_1  and  N_18
    3  A    between atoms: C_4  and  C_7
    4  A    between atoms: C_13  and  C_24
    5  A    between atoms: N_15  and  C_20
    6  A    between atoms: N_15  and  C_21
                            x       y       z     vdW  Elec       q    Type
                         _______ _______ _______ _____ _____    ______ ____

>  <TORSDO>
F 6

$$$$
=
 OpenBabel11062417163D

 26 31  0  0  1  0  0  0  0  0999 V2000
  189.6800  178.1560  140.1490 O   0  0  0  0  0  0  0  0  0  0  0  0
  189.8910  176.8470  140.5400 N   0  0  0  0  0  0  0  0  0  0  0  0
  190.6450  177.4690  139.4770 C   0  0  1  0  0  3  0  0  0  0  0  0
  190.1330  177.0310  138.1740 N   0  0  0  0  0  0  0  0  0  0  0  0
  190.4300  175.6020  136.3270 O   0  0  0  0  0  0  0  0  0  0  0  0
  190.9150  176.1020  137.3820 C   0  0  0  0  0  0  0  0  0  0  0  0
  187.3450  176.8060  137.6210 S   0  0  0  0  0  0  0  0  0  0  0  0
  187.6270  179.2750  136.6720 N   0  0  0  0  0  0  0  0  0  0  0  0
  188.8960  178.8700  137.1540 C   0  0  0  0  0  3  0  0  0  0  0  0
  188.9280  177.6530  137.6690 C   0  0  0  0  0  0  0  0  0  0  0  0
  186.5950  178.2610  136.8070 C   0  0  0  0  0  3  0  0  0  0  0  0
  193.0510  175.2600  136.6280 C   0  0  1  0  0  3  0  0  0  0  0  0
  192.5990  174.2760  137.6220 N   0  0  0  0  0  2  0  0  0  0  0  0
  192.3050  175.7020  137.8240 C   0  0  2  0  0  0  0  0  0  0  0  0
  193.4100  176.5740  137.2760 C   0  0  0  0  0  2  0  0  0  0  0  0
  190.7290  176.8900  141.7280 C   0  0  0  0  0  2  0  0  0  0  0  0
  190.0150  177.6070  142.8640 C   0  0  0  0  0  2  0  0  0  0  0  0
  189.4820  176.6230  143.8980 C   0  0  2  0  0  3  0  0  0  0  0  0
  191.9680  176.6190  145.1840 F   0  0  0  0  0  0  0  0  0  0  0  0
  188.6060  178.1150  145.8370 C   0  0  0  0  0  3  0  0  0  0  0  0
  188.0150  176.3590  143.6460 C   0  0  0  0  0  3  0  0  0  0  0  0
  187.3640  177.9980  145.3610 C   0  0  0  0  0  3  0  0  0  0  0  0
  189.9850  176.2050  146.2320 O   0  0  0  0  0  0  0  0  0  0  0  0
  190.9880  177.1700  145.9920 C   0  0  2  0  0  3  0  0  0  0  0  0
  189.6760  177.2130  145.3010 C   0  0  1  0  0  0  0  0  0  0  0  0
  187.0470  177.0220  144.2970 C   0  0  0  0  0  3  0  0  0  0  0  0
  1  2  1  0  0  0  0
  2 16  1  0  0  0  0
  3  4  1  6  0  0  0
  3  1  1  0  0  0  0
  3  2  1  0  0  0  0
  5  6  2  0  0  0  0
  6  4  1  0  0  0  0
  7 10  1  0  0  0  0
  8 11  2  0  0  0  0
  8  9  1  0  0  0  0
  9 10  2  0  0  0  0
 10  4  1  0  0  0  0
 11  7  1  0  0  0  0
 12 15  1  1  0  0  0
 12 13  1  0  0  0  0
 12 14  1  0  0  0  0
 13 14  1  0  0  0  0
 14  6  1  6  0  0  0
 15 14  1  0  0  0  0
 16 17  1  0  0  0  0
 18 17  1  6  0  0  0
 18 25  1  0  0  0  0
 21 18  1  0  0  0  0
 21 26  2  0  0  0  0
 22 20  2  0  0  0  0
 24 19  1  6  0  0  0
 24 23  1  0  0  0  0
 25 20  1  1  0  0  0
 25 24  1  0  0  0  0
 25 23  1  0  0  0  0
 26 22  1  0  0  0  0
M  END
>  <MODEL>
5

>  <REMARK>
 VINA RESULT:      -6.5      3.101      3.997
  Name = 
  6 active torsions:
  status: ('A' for Active; 'I' for Inactive)
    1  A    between atoms: C_1  and  C_7
    2  A    between atoms: C_1  and  N_18
    3  A    between atoms: C_4  and  C_7
    4  A    between atoms: C_13  and  C_24
    5  A    between atoms: N_15  and  C_20
    6  A    between atoms: N_15  and  C_21
                            x       y       z     vdW  Elec       q    Type
                         _______ _______ _______ _____ _____    ______ ____

>  <TORSDO>
F 6

$$$$
=
 OpenBabel11062417163D

 26 31  0  0  1  0  0  0  0  0999 V2000
  185.4900  177.9880  142.3920 O   0  0  0  0  0  0  0  0  0  0  0  0
  186.6780  177.5020  142.9060 N   0  0  0  0  0  0  0  0  0  0  0  0
  186.6100  178.7180  142.1280 C   0  0  1  0  0  3  0  0  0  0  0  0
  187.0640  178.4640  140.7570 N   0  0  0  0  0  0  0  0  0  0  0  0
  186.5330  178.5480  138.4650 O   0  0  0  0  0  0  0  0  0  0  0  0
  186.1280  178.6220  139.6610 C   0  0  0  0  0  0  0  0  0  0  0  0
  189.3470  178.2070  139.0690 S   0  0  0  0  0  0  0  0  0  0  0  0
  190.2810  176.6920  141.0460 N   0  0  0  0  0  0  0  0  0  0  0  0
  189.0010  177.1490  141.4450 C   0  0  0  0  0  3  0  0  0  0  0  0
  188.3950  177.9280  140.5660 C   0  0  0  0  0  0  0  0  0  0  0  0
  190.6810  177.1410  139.7230 C   0  0  0  0  0  3  0  0  0  0  0  0
  183.9350  178.7830  138.6600 C   0  0  1  0  0  3  0  0  0  0  0  0
  184.1640  180.1070  139.2570 N   0  0  0  0  0  2  0  0  0  0  0  0
  184.6680  178.9050  139.9360 C   0  0  2  0  0  0  0  0  0  0  0  0
  183.7520  177.7240  139.7180 C   0  0  0  0  0  2  0  0  0  0  0  0
  186.7300  177.9010  144.3030 C   0  0  0  0  0  2  0  0  0  0  0  0
  187.8180  177.1340  145.0400 C   0  0  0  0  0  2  0  0  0  0  0  0
  188.7690  178.0770  145.7690 C   0  0  2  0  0  3  0  0  0  0  0  0
  187.0340  178.1380  147.9650 F   0  0  0  0  0  0  0  0  0  0  0  0
  190.3030  176.5130  147.1660 C   0  0  0  0  0  3  0  0  0  0  0  0
  190.0120  178.2950  144.9370 C   0  0  0  0  0  3  0  0  0  0  0  0
  191.2430  176.5960  146.2220 C   0  0  0  0  0  3  0  0  0  0  0  0
  189.2880  178.4600  148.1060 O   0  0  0  0  0  0  0  0  0  0  0  0
  188.2370  177.5350  148.2950 C   0  0  2  0  0  3  0  0  0  0  0  0
  189.1450  177.4630  147.1250 C   0  0  1  0  0  0  0  0  0  0  0  0
  191.1330  177.5850  145.1270 C   0  0  0  0  0  3  0  0  0  0  0  0
  1  2  1  0  0  0  0
  2 16  1  0  0  0  0
  3  4  1  6  0  0  0
  3  1  1  0  0  0  0
  3  2  1  0  0  0  0
  5  6  2  0  0  0  0
  6  4  1  0  0  0  0
  7 11  1  0  0  0  0
  7 10  1  0  0  0  0
  8  9  1  0  0  0  0
 10  4  1  0  0  0  0
 10  9  2  0  0  0  0
 11  8  2  0  0  0  0
 12 13  1  0  0  0  0
 12 15  1  1  0  0  0
 12 14  1  0  0  0  0
 13 14  1  0  0  0  0
 14  6  1  6  0  0  0
 15 14  1  0  0  0  0
 16 17  1  0  0  0  0
 18 17  1  6  0  0  0
 18 25  1  0  0  0  0
 21 26  2  0  0  0  0
 21 18  1  0  0  0  0
 22 20  2  0  0  0  0
 23 24  1  0  0  0  0
 24 19  1  6  0  0  0
 25 20  1  6  0  0  0
 25 23  1  0  0  0  0
 25 24  1  0  0  0  0
 26 22  1  0  0  0  0
M  END
>  <MODEL>
6

>  <REMARK>
 VINA RESULT:      -6.5      2.324      4.085
  Name = 
  6 active torsions:
  status: ('A' for Active; 'I' for Inactive)
    1  A    between atoms: C_1  and  C_7
    2  A    between atoms: C_1  and  N_18
    3  A    between atoms: C_4  and  C_7
    4  A    between atoms: C_13  and  C_24
    5  A    between atoms: N_15  and  C_20
    6  A    between atoms: N_15  and  C_21
                            x       y       z     vdW  Elec       q    Type
                         _______ _______ _______ _____ _____    ______ ____

>  <TORSDO>
F 6

$$$$
=
 OpenBabel11062417163D

 26 31  0  0  1  0  0  0  0  0999 V2000
  187.3790  178.3240  138.7100 O   0  0  0  0  0  0  0  0  0  0  0  0
  188.1770  177.4470  139.4210 N   0  0  0  0  0  0  0  0  0  0  0  0
  188.4130  177.7540  138.0290 C   0  0  1  0  0  3  0  0  0  0  0  0
  187.9160  176.6650  137.1820 N   0  0  0  0  0  0  0  0  0  0  0  0
  188.2800  174.4850  136.3710 O   0  0  0  0  0  0  0  0  0  0  0  0
  188.7450  175.4930  136.9780 C   0  0  0  0  0  0  0  0  0  0  0  0
  185.1090  176.1880  137.0340 S   0  0  0  0  0  0  0  0  0  0  0  0
  185.2860  177.5620  134.7640 N   0  0  0  0  0  0  0  0  0  0  0  0
  186.5870  177.5180  135.3220 C   0  0  0  0  0  3  0  0  0  0  0  0
  186.6730  176.8670  136.4690 C   0  0  0  0  0  0  0  0  0  0  0  0
  184.2850  176.8540  135.5450 C   0  0  0  0  0  3  0  0  0  0  0  0
  191.0110  174.8110  136.4900 C   0  0  1  0  0  3  0  0  0  0  0  0
  190.6690  174.0920  137.7270 N   0  0  0  0  0  2  0  0  0  0  0  0
  190.1590  175.4530  137.5120 C   0  0  2  0  0  0  0  0  0  0  0  0
  191.1440  176.2930  136.7320 C   0  0  0  0  0  2  0  0  0  0  0  0
  189.1100  178.2530  140.1910 C   0  0  0  0  0  2  0  0  0  0  0  0
  188.6450  178.3790  141.6350 C   0  0  0  0  0  2  0  0  0  0  0  0
  189.0470  177.1610  142.4590 C   0  0  2  0  0  3  0  0  0  0  0  0
  191.7200  177.5350  141.7180 F   0  0  0  0  0  0  0  0  0  0  0  0
  189.6760  178.1230  144.7900 C   0  0  0  0  0  3  0  0  0  0  0  0
  187.8400  176.6120  143.1840 C   0  0  0  0  0  3  0  0  0  0  0  0
  188.4640  177.7990  145.2460 C   0  0  0  0  0  3  0  0  0  0  0  0
  191.0580  176.5370  143.6590 O   0  0  0  0  0  0  0  0  0  0  0  0
  191.5470  177.7280  143.0780 C   0  0  2  0  0  3  0  0  0  0  0  0
  190.1250  177.5720  143.4710 C   0  0  1  0  0  0  0  0  0  0  0  0
  187.5590  176.9390  144.4540 C   0  0  0  0  0  3  0  0  0  0  0  0
  1  2  1  0  0  0  0
  2 16  1  0  0  0  0
  3  4  1  6  0  0  0
  3  1  1  0  0  0  0
  3  2  1  0  0  0  0
  5  6  2  0  0  0  0
  6  4  1  0  0  0  0
  8  9  1  0  0  0  0
  8 11  2  0  0  0  0
  9 10  2  0  0  0  0
 10  7  1  0  0  0  0
 10  4  1  0  0  0  0
 11  7  1  0  0  0  0
 12 15  1  1  0  0  0
 12 14  1  0  0  0  0
 12 13  1  0  0  0  0
 14  6  1  6  0  0  0
 14 13  1  0  0  0  0
 15 14  1  0  0  0  0
 16 17  1  0  0  0  0
 18 17  1  1  0  0  0
 18 21  1  0  0  0  0
 18 25  1  0  0  0  0
 20 22  2  0  0  0  0
 21 26  2  0  0  0  0
 24 19  1  6  0  0  0
 24 25  1  0  0  0  0
 24 23  1  0  0  0  0
 25 23  1  0  0  0  0
 25 20  1  1  0  0  0
 26 22  1  0  0  0  0
M  END
>  <MODEL>
7

>  <REMARK>
 VINA RESULT:      -6.4      3.144      4.649
  Name = 
  6 active torsions:
  status: ('A' for Active; 'I' for Inactive)
    1  A    between atoms: C_1  and  C_7
    2  A    between atoms: C_1  and  N_18
    3  A    between atoms: C_4  and  C_7
    4  A    between atoms: C_13  and  C_24
    5  A    between atoms: N_15  and  C_20
    6  A    between atoms: N_15  and  C_21
                            x       y       z     vdW  Elec       q    Type
                         _______ _______ _______ _____ _____    ______ ____

>  <TORSDO>
F 6

$$$$
=
 OpenBabel11062417163D

 26 31  0  0  1  0  0  0  0  0999 V2000
  189.1270  177.0200  140.0680 O   0  0  0  0  0  0  0  0  0  0  0  0
  190.2680  176.3670  140.4970 N   0  0  0  0  0  0  0  0  0  0  0  0
  190.3140  177.5190  139.6260 C   0  0  1  0  0  3  0  0  0  0  0  0
  190.5540  177.0940  138.2430 N   0  0  0  0  0  0  0  0  0  0  0  0
  189.8010  177.1480  136.0130 O   0  0  0  0  0  0  0  0  0  0  0  0
  189.5530  177.3770  137.2320 C   0  0  0  0  0  0  0  0  0  0  0  0
  191.6110  174.5720  137.4360 S   0  0  0  0  0  0  0  0  0  0  0  0
  193.9600  175.7450  137.8590 N   0  0  0  0  0  0  0  0  0  0  0  0
  192.9610  176.7090  138.1370 C   0  0  0  0  0  3  0  0  0  0  0  0
  191.7210  176.2830  137.9690 C   0  0  0  0  0  0  0  0  0  0  0  0
  193.4340  174.4480  137.4670 C   0  0  0  0  0  3  0  0  0  0  0  0
  187.4940  178.3100  136.3790 C   0  0  1  0  0  3  0  0  0  0  0  0
  188.0610  179.3770  137.2180 N   0  0  0  0  0  2  0  0  0  0  0  0
  188.2190  177.9730  137.6210 C   0  0  2  0  0  0  0  0  0  0  0  0
  187.0230  177.1450  137.2130 C   0  0  0  0  0  2  0  0  0  0  0  0
  190.5500  176.8470  141.8400 C   0  0  0  0  0  2  0  0  0  0  0  0
  189.3330  176.6790  142.7370 C   0  0  0  0  0  2  0  0  0  0  0  0
  189.1930  177.8420  143.7130 C   0  0  2  0  0  3  0  0  0  0  0  0
  186.4420  177.3610  143.9010 F   0  0  0  0  0  0  0  0  0  0  0  0
  189.4300  176.7600  146.0630 C   0  0  0  0  0  3  0  0  0  0  0  0
  190.5550  178.4230  144.0150 C   0  0  0  0  0  3  0  0  0  0  0  0
  190.7130  177.1280  146.1000 C   0  0  0  0  0  3  0  0  0  0  0  0
  187.6900  178.3150  145.5550 O   0  0  0  0  0  0  0  0  0  0  0  0
  187.0750  177.1240  145.1100 C   0  0  2  0  0  3  0  0  0  0  0  0
  188.5390  177.3370  145.0060 C   0  0  1  0  0  0  0  0  0  0  0  0
  191.2630  178.0630  145.0950 C   0  0  0  0  0  3  0  0  0  0  0  0
  1  2  1  0  0  0  0
  2 16  1  0  0  0  0
  3  4  1  6  0  0  0
  3  1  1  0  0  0  0
  3  2  1  0  0  0  0
  5  6  2  0  0  0  0
  6  4  1  0  0  0  0
  7 11  1  0  0  0  0
  7 10  1  0  0  0  0
  8  9  1  0  0  0  0
 10  9  2  0  0  0  0
 10  4  1  0  0  0  0
 11  8  2  0  0  0  0
 12 15  1  1  0  0  0
 12 13  1  0  0  0  0
 12 14  1  0  0  0  0
 13 14  1  0  0  0  0
 14  6  1  6  0  0  0
 15 14  1  0  0  0  0
 16 17  1  0  0  0  0
 18 17  1  6  0  0  0
 18 21  1  0  0  0  0
 18 25  1  0  0  0  0
 20 22  2  0  0  0  0
 21 26  2  0  0  0  0
 24 19  1  6  0  0  0
 24 23  1  0  0  0  0
 25 24  1  0  0  0  0
 25 23  1  0  0  0  0
 25 20  1  1  0  0  0
 26 22  1  0  0  0  0
M  END
>  <MODEL>
8

>  <REMARK>
 VINA RESULT:      -6.3      2.752      4.365
  Name = 
  6 active torsions:
  status: ('A' for Active; 'I' for Inactive)
    1  A    between atoms: C_1  and  C_7
    2  A    between atoms: C_1  and  N_18
    3  A    between atoms: C_4  and  C_7
    4  A    between atoms: C_13  and  C_24
    5  A    between atoms: N_15  and  C_20
    6  A    between atoms: N_15  and  C_21
                            x       y       z     vdW  Elec       q    Type
                         _______ _______ _______ _____ _____    ______ ____

>  <TORSDO>
F 6

$$$$
=
 OpenBabel11062417163D

 26 31  0  0  1  0  0  0  0  0999 V2000
  189.5350  178.2420  141.2010 O   0  0  0  0  0  0  0  0  0  0  0  0
  188.8130  178.4250  142.3670 N   0  0  0  0  0  0  0  0  0  0  0  0
  188.3470  177.5820  141.2910 C   0  0  1  0  0  3  0  0  0  0  0  0
  187.3230  178.2830  140.5100 N   0  0  0  0  0  0  0  0  0  0  0  0
  185.4100  179.6550  140.5600 O   0  0  0  0  0  0  0  0  0  0  0  0
  186.2220  178.9270  141.2000 C   0  0  0  0  0  0  0  0  0  0  0  0
  188.8990  178.4050  138.1370 S   0  0  0  0  0  0  0  0  0  0  0  0
  186.5780  177.9630  136.9160 N   0  0  0  0  0  0  0  0  0  0  0  0
  186.3160  177.9780  138.3080 C   0  0  0  0  0  3  0  0  0  0  0  0
  187.3790  178.1850  139.0670 C   0  0  0  0  0  0  0  0  0  0  0  0
  187.9690  178.2080  136.5750 C   0  0  0  0  0  3  0  0  0  0  0  0
  184.6040  178.6730  142.9770 C   0  0  1  0  0  3  0  0  0  0  0  0
  185.3600  179.8820  143.3380 N   0  0  0  0  0  2  0  0  0  0  0  0
  186.0520  178.7570  142.6930 C   0  0  2  0  0  0  0  0  0  0  0  0
  185.4530  177.4330  143.1060 C   0  0  0  0  0  2  0  0  0  0  0  0
  189.3940  177.5450  143.3670 C   0  0  0  0  0  2  0  0  0  0  0  0
  189.2580  178.1480  144.7580 C   0  0  0  0  0  2  0  0  0  0  0  0
  188.8510  177.0980  145.7850 C   0  0  2  0  0  3  0  0  0  0  0  0
  191.4840  176.1490  145.8630 F   0  0  0  0  0  0  0  0  0  0  0  0
  189.3060  178.2180  148.0850 C   0  0  0  0  0  3  0  0  0  0  0  0
  187.3980  177.2810  146.1580 C   0  0  0  0  0  3  0  0  0  0  0  0
  188.0140  178.5400  148.1800 C   0  0  0  0  0  3  0  0  0  0  0  0
  190.0140  175.9890  147.6000 O   0  0  0  0  0  0  0  0  0  0  0  0
  191.1160  176.7020  147.0780 C   0  0  2  0  0  3  0  0  0  0  0  0
  189.7360  177.2450  147.0310 C   0  0  1  0  0  0  0  0  0  0  0  0
  187.0200  177.9770  147.2410 C   0  0  0  0  0  3  0  0  0  0  0  0
  1  3  1  0  0  0  0
  1  2  1  0  0  0  0
  2 16  1  0  0  0  0
  3  4  1  6  0  0  0
  3  2  1  0  0  0  0
  4  6  1  0  0  0  0
  5  6  2  0  0  0  0
  7 10  1  0  0  0  0
  8  9  1  0  0  0  0
  9 10  2  0  0  0  0
 10  4  1  0  0  0  0
 11  8  2  0  0  0  0
 11  7  1  0  0  0  0
 12 15  1  1  0  0  0
 12 13  1  0  0  0  0
 14  6  1  6  0  0  0
 14 12  1  0  0  0  0
 14 15  1  0  0  0  0
 14 13  1  0  0  0  0
 16 17  1  0  0  0  0
 18 17  1  6  0  0  0
 18 21  1  0  0  0  0
 18 25  1  0  0  0  0
 20 22  2  0  0  0  0
 21 26  2  0  0  0  0
 24 19  1  6  0  0  0
 24 23  1  0  0  0  0
 25 24  1  0  0  0  0
 25 23  1  0  0  0  0
 25 20  1  1  0  0  0
 26 22  1  0  0  0  0
M  END
>  <MODEL>
9

>  <REMARK>
 VINA RESULT:      -6.1      2.326      3.926
  Name = 
  6 active torsions:
  status: ('A' for Active; 'I' for Inactive)
    1  A    between atoms: C_1  and  C_7
    2  A    between atoms: C_1  and  N_18
    3  A    between atoms: C_4  and  C_7
    4  A    between atoms: C_13  and  C_24
    5  A    between atoms: N_15  and  C_20
    6  A    between atoms: N_15  and  C_21
                            x       y       z     vdW  Elec       q    Type
                         _______ _______ _______ _____ _____    ______ ____

>  <TORSDO>
F 6

$$$$
