=
 OpenBabel11062412553D

 50 55  0  0  1  0  0  0  0  0999 V2000
  186.0960  176.6870  138.1360 O   0  0  0  0  0  0  0  0  0  0  0  0
  185.0570  176.7360  137.1750 C   0  0  1  0  0  0  0  0  0  0  0  0
  185.5770  178.9390  138.1620 O   0  0  0  0  0  1  0  0  0  0  0  0
  186.0160  177.8700  137.3760 C   0  0  1  0  0  0  0  0  0  0  0  0
  183.6540  173.8550  136.5360 C   0  0  0  0  0  0  0  0  0  0  0  0
  185.5320  176.5350  134.8160 O   0  0  0  0  0  1  0  0  0  0  0  0
  187.0190  172.5750  137.0240 C   0  0  0  0  0  3  0  0  0  0  0  0
  185.2330  175.7750  135.9490 C   0  0  2  0  0  0  0  0  0  0  0  0
  184.6460  173.1560  136.9990 N   0  0  0  0  0  0  0  0  0  0  0  0
  188.3480  172.8790  136.7290 C   0  0  0  0  0  3  0  0  0  0  0  0
  187.6730  175.0370  135.8800 C   0  0  0  0  0  3  0  0  0  0  0  0
  183.9120  175.0410  135.6360 C   0  0  0  0  0  2  0  0  0  0  0  0
  188.6740  174.1050  136.1510 C   0  0  0  0  0  3  0  0  0  0  0  0
  186.0100  173.4990  136.7420 C   0  0  0  0  0  0  0  0  0  0  0  0
  186.3320  174.7470  136.1720 C   0  0  0  0  0  0  0  0  0  0  0  0
  181.9920  172.1120  137.0700 C   0  0  0  0  0  1  0  0  0  0  0  0
  182.3510  173.4670  136.8500 O   0  0  0  0  0  0  0  0  0  0  0  0
  183.6750  176.9470  137.8090 C   0  0  0  0  0  2  0  0  0  0  0  0
  182.7830  177.8060  136.9320 C   0  0  0  0  0  2  0  0  0  0  0  0
  181.6540  178.3620  137.7710 C   0  0  0  0  0  2  0  0  0  0  0  0
  182.2020  179.2130  138.9000 C   0  0  0  0  0  2  0  0  0  0  0  0
  183.4980  178.1930  141.2450 C   0  0  0  0  0  1  0  0  0  0  0  0
  179.8180  177.5070  141.0040 C   0  0  0  0  0  1  0  0  0  0  0  0
  181.3270  179.0860  140.1450 C   0  0  2  0  0  3  0  0  0  0  0  0
  182.0200  178.5490  141.3250 C   0  0  0  0  0  0  0  0  0  0  0  0
  181.1750  177.6550  140.4910 N   0  0  0  0  0  0  0  0  0  0  0  0
  181.4680  178.9780  142.6840 C   0  0  0  0  0  1  0  0  0  0  0  0
  187.2830  178.0660  136.5400 C   0  0  0  0  0  2  0  0  0  0  0  0
  188.3790  178.8070  137.3060 C   0  0  0  0  0  2  0  0  0  0  0  0
  189.5210  177.8750  137.6810 C   0  0  0  0  0  2  0  0  0  0  0  0
  189.7630  177.8800  139.1820 C   0  0  2  0  0  3  0  0  0  0  0  0
  190.7710  175.7260  139.0890 O   0  0  0  0  0  0  0  0  0  0  0  0
  190.8230  176.8950  139.5500 C   0  0  0  0  0  0  0  0  0  0  0  0
  191.8530  177.2620  140.4060 O   0  0  0  0  0  1  0  0  0  0  0  0
  188.5470  177.5690  139.8530 O   0  0  0  0  0  0  0  0  0  0  0  0
  188.1210  178.2300  141.0090 C   0  0  0  0  0  0  0  0  0  0  0  0
  186.9250  178.6200  141.0790 O   0  0  0  0  0  0  0  0  0  0  0  0
  189.0820  178.5510  142.1190 C   0  0  0  0  0  2  0  0  0  0  0  0
  189.0200  177.5170  143.2450 C   0  0  1  0  0  3  0  0  0  0  0  0
  189.9190  177.7670  144.4010 C   0  0  2  0  0  0  0  0  0  0  0  0
  188.4200  178.1830  144.4980 C   0  0  2  0  0  0  0  0  0  0  0  0
  187.2610  177.1810  144.6420 C   0  0  1  0  0  3  0  0  0  0  0  0
  190.9100  178.9180  144.2680 C   0  0  0  0  0  1  0  0  0  0  0  0
  188.0260  177.5400  145.8420 C   0  0  0  0  0  2  0  0  0  0  0  0
  190.4650  176.4320  144.9240 C   0  0  0  0  0  2  0  0  0  0  0  0
  191.2340  176.6550  147.2650 C   0  0  0  0  0  1  0  0  0  0  0  0
  191.6720  176.6460  145.8160 C   0  0  0  0  0  2  0  0  0  0  0  0
  185.9450  177.9400  144.6250 C   0  0  0  0  0  2  0  0  0  0  0  0
  184.6070  178.5370  146.5100 O   0  0  0  0  0  1  0  0  0  0  0  0
  185.8200  178.8000  145.8720 C   0  0  0  0  0  2  0  0  0  0  0  0
  2  4  1  0  0  0  0
  2 18  1  1  0  0  0
  2  1  1  0  0  0  0
  4  1  1  0  0  0  0
  4  3  1  1  0  0  0
  5 17  1  0  0  0  0
  5  9  2  0  0  0  0
  8  6  1  6  0  0  0
  8 15  1  0  0  0  0
  8  2  1  0  0  0  0
 10  7  2  0  0  0  0
 11 13  2  0  0  0  0
 11 15  1  0  0  0  0
 12  8  1  0  0  0  0
 12  5  1  0  0  0  0
 13 10  1  0  0  0  0
 14  9  1  0  0  0  0
 14  7  1  0  0  0  0
 15 14  2  0  0  0  0
 17 16  1  0  0  0  0
 19 20  1  0  0  0  0
 19 18  1  0  0  0  0
 20 21  1  0  0  0  0
 22 25  1  0  0  0  0
 24 21  1  6  0  0  0
 24 26  1  0  0  0  0
 24 25  1  0  0  0  0
 25 27  1  0  0  0  0
 26 23  1  0  0  0  0
 26 25  1  0  0  0  0
 28 29  1  0  0  0  0
 28  4  1  0  0  0  0
 29 30  1  0  0  0  0
 31 30  1  6  0  0  0
 31 33  1  0  0  0  0
 31 35  1  0  0  0  0
 32 33  2  0  0  0  0
 33 34  1  0  0  0  0
 35 36  1  0  0  0  0
 36 37  2  0  0  0  0
 36 38  1  0  0  0  0
 39 38  1  6  0  0  0
 39 40  1  0  0  0  0
 39 41  1  0  0  0  0
 40 43  1  6  0  0  0
 40 41  1  0  0  0  0
 40 45  1  0  0  0  0
 41 42  1  0  0  0  0
 41 44  1  6  0  0  0
 42 48  1  1  0  0  0
 42 44  1  0  0  0  0
 45 47  1  0  0  0  0
 47 46  1  0  0  0  0
 48 50  1  0  0  0  0
 50 49  1  0  0  0  0
M  END
>  <MODEL>
1

>  <REMARK>
 VINA RESULT:      -7.4      0.000      0.000
  Name = 
  20 active torsions:
  status: ('A' for Active; 'I' for Inactive)
    1  A    between atoms: C_1  and  C_41
    2  A    between atoms: C_2  and  O_20
    3  A    between atoms: C_2  and  C_41
    4  A    between atoms: C_3  and  O_36
    5  A    between atoms: C_4  and  C_21
    6  A    between atoms: C_4  and  C_37
    7  A    between atoms: C_5  and  C_24
    8  A    between atoms: C_11  and  C_25
    9  A    between atoms: C_14  and  C_26
   10  A    between atoms: C_14  and  C_46
   11  A    between atoms: C_18  and  C_23
   12  A    between atoms: C_18  and  C_32
   13  A    between atoms: C_19  and  C_23
   14  A    between atoms: C_19  and  C_44
   15  A    between atoms: O_20  and  C_26
   16  A    between atoms: C_24  and  C_27
   17  A    between atoms: C_25  and  C_44
   18  A    between atoms: C_26  and  C_29
   19  A    between atoms: C_30  and  C_34
   20  A    between atoms: C_30  and  C_46
                            x       y       z     vdW  Elec       q    Type
                         _______ _______ _______ _____ _____    ______ ____

>  <TORSDO>
F 20

$$$$
=
 OpenBabel11062412553D

 50 55  0  0  1  0  0  0  0  0999 V2000
  184.8550  177.2130  138.9390 O   0  0  0  0  0  0  0  0  0  0  0  0
  184.2860  177.7730  137.7700 C   0  0  1  0  0  0  0  0  0  0  0  0
  185.3120  179.4570  139.2560 O   0  0  0  0  0  1  0  0  0  0  0  0
  185.5040  178.3510  138.4220 C   0  0  1  0  0  0  0  0  0  0  0  0
  182.0560  176.0400  136.1250 C   0  0  0  0  0  0  0  0  0  0  0  0
  185.4440  177.4510  135.6750 O   0  0  0  0  0  1  0  0  0  0  0  0
  184.0000  173.2040  137.2980 C   0  0  0  0  0  3  0  0  0  0  0  0
  184.4340  176.9060  136.4710 C   0  0  2  0  0  0  0  0  0  0  0  0
  182.3630  174.9140  136.6970 N   0  0  0  0  0  0  0  0  0  0  0  0
  185.3210  172.7970  137.4860 C   0  0  0  0  0  3  0  0  0  0  0  0
  186.0870  175.0300  136.9710 C   0  0  0  0  0  3  0  0  0  0  0  0
  183.1440  176.9630  135.6260 C   0  0  0  0  0  2  0  0  0  0  0  0
  186.3640  173.7070  137.3160 C   0  0  0  0  0  3  0  0  0  0  0  0
  183.7170  174.5230  136.9390 C   0  0  0  0  0  0  0  0  0  0  0  0
  184.7630  175.4530  136.7800 C   0  0  0  0  0  0  0  0  0  0  0  0
  179.8540  176.6930  137.0240 C   0  0  0  0  0  1  0  0  0  0  0  0
  180.7100  176.3590  135.9430 O   0  0  0  0  0  0  0  0  0  0  0  0
  182.9840  178.5370  138.0530 C   0  0  0  0  0  2  0  0  0  0  0  0
  182.2490  177.9630  139.2500 C   0  0  0  0  0  2  0  0  0  0  0  0
  181.5210  179.0820  139.9630 C   0  0  0  0  0  2  0  0  0  0  0  0
  180.1970  178.5860  140.5130 C   0  0  0  0  0  2  0  0  0  0  0  0
  179.0690  180.6760  142.1190 C   0  0  0  0  0  1  0  0  0  0  0  0
  181.8840  178.7650  143.6970 C   0  0  0  0  0  1  0  0  0  0  0  0
  180.2830  178.3870  142.0250 C   0  0  2  0  0  3  0  0  0  0  0  0
  179.7050  179.4820  142.8170 C   0  0  0  0  0  0  0  0  0  0  0  0
  181.1750  179.4170  142.6030 N   0  0  0  0  0  0  0  0  0  0  0  0
  179.1750  179.1060  144.2000 C   0  0  0  0  0  1  0  0  0  0  0  0
  186.9350  178.0140  137.9940 C   0  0  0  0  0  2  0  0  0  0  0  0
  187.9400  178.1840  139.1330 C   0  0  0  0  0  2  0  0  0  0  0  0
  189.3680  178.2320  138.6110 C   0  0  0  0  0  2  0  0  0  0  0  0
  190.2800  177.3270  139.4240 C   0  0  2  0  0  3  0  0  0  0  0  0
  190.5860  175.2240  138.3510 O   0  0  0  0  0  1  0  0  0  0  0  0
  191.0250  176.3890  138.5330 C   0  0  0  0  0  0  0  0  0  0  0  0
  192.2030  176.7940  137.9200 O   0  0  0  0  0  0  0  0  0  0  0  0
  189.4980  176.5970  140.3640 O   0  0  0  0  0  0  0  0  0  0  0  0
  189.7390  176.6210  141.7410 C   0  0  0  0  0  0  0  0  0  0  0  0
  190.5240  175.7680  142.2340 O   0  0  0  0  0  0  0  0  0  0  0  0
  189.0190  177.5870  142.6390 C   0  0  0  0  0  2  0  0  0  0  0  0
  189.1010  177.1710  144.1090 C   0  0  1  0  0  3  0  0  0  0  0  0
  189.9150  178.0520  144.9850 C   0  0  2  0  0  0  0  0  0  0  0  0
  188.3660  178.2200  144.9630 C   0  0  2  0  0  0  0  0  0  0  0  0
  187.3860  177.2160  145.5970 C   0  0  1  0  0  3  0  0  0  0  0  0
  190.7020  179.1660  144.3030 C   0  0  0  0  0  1  0  0  0  0  0  0
  188.0490  178.1920  146.4710 C   0  0  0  0  0  2  0  0  0  0  0  0
  190.6620  177.1990  146.0190 C   0  0  0  0  0  2  0  0  0  0  0  0
  192.0850  175.1880  146.2540 C   0  0  0  0  0  1  0  0  0  0  0  0
  191.7380  176.3600  145.3590 C   0  0  0  0  0  2  0  0  0  0  0  0
  185.9630  177.6650  145.3130 C   0  0  0  0  0  2  0  0  0  0  0  0
  184.2590  178.8020  146.5370 O   0  0  0  0  0  1  0  0  0  0  0  0
  185.6070  178.8600  146.1810 C   0  0  0  0  0  2  0  0  0  0  0  0
  2 18  1  1  0  0  0
  2  4  1  0  0  0  0
  2  1  1  0  0  0  0
  4  1  1  0  0  0  0
  4  3  1  1  0  0  0
  5  9  2  0  0  0  0
  7 10  1  0  0  0  0
  8  6  1  6  0  0  0
  8 15  1  0  0  0  0
  8  2  1  0  0  0  0
  9 14  1  0  0  0  0
 11 13  1  0  0  0  0
 12  5  1  0  0  0  0
 12  8  1  0  0  0  0
 13 10  2  0  0  0  0
 14  7  2  0  0  0  0
 15 14  1  0  0  0  0
 15 11  2  0  0  0  0
 17  5  1  0  0  0  0
 17 16  1  0  0  0  0
 18 19  1  0  0  0  0
 19 20  1  0  0  0  0
 20 21  1  0  0  0  0
 22 25  1  0  0  0  0
 24 21  1  6  0  0  0
 24 26  1  0  0  0  0
 24 25  1  0  0  0  0
 25 27  1  0  0  0  0
 26 25  1  0  0  0  0
 26 23  1  0  0  0  0
 28  4  1  0  0  0  0
 28 29  1  0  0  0  0
 30 29  1  0  0  0  0
 31 30  1  6  0  0  0
 31 35  1  0  0  0  0
 32 33  1  0  0  0  0
 33 31  1  0  0  0  0
 34 33  2  0  0  0  0
 35 36  1  0  0  0  0
 36 37  2  0  0  0  0
 36 38  1  0  0  0  0
 39 38  1  6  0  0  0
 39 41  1  0  0  0  0
 39 40  1  0  0  0  0
 40 43  1  6  0  0  0
 40 45  1  0  0  0  0
 41 40  1  0  0  0  0
 41 42  1  0  0  0  0
 41 44  1  6  0  0  0
 42 48  1  6  0  0  0
 42 44  1  0  0  0  0
 47 45  1  0  0  0  0
 47 46  1  0  0  0  0
 48 50  1  0  0  0  0
 50 49  1  0  0  0  0
M  END
>  <MODEL>
2

>  <REMARK>
 VINA RESULT:      -7.0      1.537      2.264
  Name = 
  20 active torsions:
  status: ('A' for Active; 'I' for Inactive)
    1  A    between atoms: C_1  and  C_41
    2  A    between atoms: C_2  and  O_20
    3  A    between atoms: C_2  and  C_41
    4  A    between atoms: C_3  and  O_36
    5  A    between atoms: C_4  and  C_21
    6  A    between atoms: C_4  and  C_37
    7  A    between atoms: C_5  and  C_24
    8  A    between atoms: C_11  and  C_25
    9  A    between atoms: C_14  and  C_26
   10  A    between atoms: C_14  and  C_46
   11  A    between atoms: C_18  and  C_23
   12  A    between atoms: C_18  and  C_32
   13  A    between atoms: C_19  and  C_23
   14  A    between atoms: C_19  and  C_44
   15  A    between atoms: O_20  and  C_26
   16  A    between atoms: C_24  and  C_27
   17  A    between atoms: C_25  and  C_44
   18  A    between atoms: C_26  and  C_29
   19  A    between atoms: C_30  and  C_34
   20  A    between atoms: C_30  and  C_46
                            x       y       z     vdW  Elec       q    Type
                         _______ _______ _______ _____ _____    ______ ____

>  <TORSDO>
F 20

$$$$
=
 OpenBabel11062412553D

 50 55  0  0  1  0  0  0  0  0999 V2000
  189.1920  178.7200  142.4460 O   0  0  0  0  0  0  0  0  0  0  0  0
  187.9910  177.9820  142.5730 C   0  0  1  0  0  0  0  0  0  0  0  0
  188.4020  178.7830  140.2740 O   0  0  0  0  0  1  0  0  0  0  0  0
  188.8160  177.9570  141.3240 C   0  0  1  0  0  0  0  0  0  0  0  0
  186.8970  177.7230  145.6420 C   0  0  0  0  0  0  0  0  0  0  0  0
  188.0120  175.5810  142.8420 O   0  0  0  0  0  1  0  0  0  0  0  0
  190.4350  177.5500  146.4490 C   0  0  0  0  0  3  0  0  0  0  0  0
  188.0510  176.7720  143.5710 C   0  0  2  0  0  0  0  0  0  0  0  0
  188.0480  177.9940  146.1820 N   0  0  0  0  0  0  0  0  0  0  0  0
  191.6260  176.9820  145.9940 C   0  0  0  0  0  3  0  0  0  0  0  0
  190.5060  176.2290  143.9900 C   0  0  0  0  0  3  0  0  0  0  0  0
  186.8070  176.7560  144.4840 C   0  0  0  0  0  2  0  0  0  0  0  0
  191.6600  176.3160  144.7700 C   0  0  0  0  0  3  0  0  0  0  0  0
  189.2740  177.4540  145.6800 C   0  0  0  0  0  0  0  0  0  0  0  0
  189.3020  176.7960  144.4340 C   0  0  0  0  0  0  0  0  0  0  0  0
  184.7360  178.8790  145.3650 C   0  0  0  0  0  1  0  0  0  0  0  0
  185.7480  178.3060  146.1770 O   0  0  0  0  0  0  0  0  0  0  0  0
  186.7400  178.8690  142.4980 C   0  0  0  0  0  2  0  0  0  0  0  0
  185.5830  178.1480  141.8310 C   0  0  0  0  0  2  0  0  0  0  0  0
  184.6630  179.1700  141.2010 C   0  0  0  0  0  2  0  0  0  0  0  0
  184.2260  178.7120  139.8220 C   0  0  0  0  0  2  0  0  0  0  0  0
  183.2430  177.6730  137.3380 C   0  0  0  0  0  1  0  0  0  0  0  0
  180.9770  177.2160  140.2920 C   0  0  0  0  0  1  0  0  0  0  0  0
  183.2740  177.5220  139.9260 C   0  0  2  0  0  3  0  0  0  0  0  0
  182.7810  177.0230  138.6350 C   0  0  0  0  0  0  0  0  0  0  0  0
  181.9320  177.9290  139.4530 N   0  0  0  0  0  0  0  0  0  0  0  0
  182.3950  175.5450  138.5870 C   0  0  0  0  0  1  0  0  0  0  0  0
  189.8640  176.8820  141.0210 C   0  0  0  0  0  2  0  0  0  0  0  0
  190.0770  176.6820  139.5210 C   0  0  0  0  0  2  0  0  0  0  0  0
  191.5210  176.9500  139.1250 C   0  0  0  0  0  2  0  0  0  0  0  0
  191.9460  176.0620  137.9650 C   0  0  2  0  0  3  0  0  0  0  0  0
  193.8610  176.7560  136.7330 O   0  0  0  0  0  0  0  0  0  0  0  0
  193.4200  176.1510  137.7440 C   0  0  0  0  0  0  0  0  0  0  0  0
  194.2990  175.5590  138.6410 O   0  0  0  0  0  1  0  0  0  0  0  0
  191.2460  176.4590  136.7910 O   0  0  0  0  0  0  0  0  0  0  0  0
  190.5830  175.5550  135.9550 C   0  0  0  0  0  0  0  0  0  0  0  0
  190.6750  175.7040  134.7070 O   0  0  0  0  0  0  0  0  0  0  0  0
  189.7060  174.4740  136.5200 C   0  0  0  0  0  2  0  0  0  0  0  0
  188.2810  174.5470  135.9690 C   0  0  1  0  0  3  0  0  0  0  0  0
  187.3770  173.4370  136.3660 C   0  0  2  0  0  0  0  0  0  0  0  0
  187.3080  174.7890  137.1380 C   0  0  2  0  0  0  0  0  0  0  0  0
  186.7100  176.0800  136.5520 C   0  0  1  0  0  3  0  0  0  0  0  0
  188.0040  172.2780  137.1340 C   0  0  0  0  0  1  0  0  0  0  0  0
  185.7930  175.0710  137.0960 C   0  0  0  0  0  2  0  0  0  0  0  0
  186.4550  173.0810  135.1930 C   0  0  0  0  0  2  0  0  0  0  0  0
  184.3900  171.7720  135.5740 C   0  0  0  0  0  1  0  0  0  0  0  0
  185.8850  171.6850  135.3490 C   0  0  0  0  0  2  0  0  0  0  0  0
  186.8860  177.2080  137.5540 C   0  0  0  0  0  2  0  0  0  0  0  0
  188.2240  178.1130  135.7970 O   0  0  0  0  0  1  0  0  0  0  0  0
  187.3790  178.4620  136.8520 C   0  0  0  0  0  2  0  0  0  0  0  0
  1  2  1  0  0  0  0
  2 18  1  6  0  0  0
  2  8  1  0  0  0  0
  4  3  1  6  0  0  0
  4  1  1  0  0  0  0
  4  2  1  0  0  0  0
  5 17  1  0  0  0  0
  5  9  2  0  0  0  0
  8  6  1  6  0  0  0
  8 15  1  0  0  0  0
  8 12  1  0  0  0  0
 10  7  1  0  0  0  0
 11 15  2  0  0  0  0
 11 13  1  0  0  0  0
 12  5  1  0  0  0  0
 13 10  2  0  0  0  0
 14  9  1  0  0  0  0
 14  7  2  0  0  0  0
 15 14  1  0  0  0  0
 16 17  1  0  0  0  0
 19 18  1  0  0  0  0
 20 19  1  0  0  0  0
 21 20  1  0  0  0  0
 22 25  1  0  0  0  0
 24 21  1  6  0  0  0
 25 26  1  0  0  0  0
 25 24  1  0  0  0  0
 26 24  1  0  0  0  0
 26 23  1  0  0  0  0
 27 25  1  0  0  0  0
 28  4  1  0  0  0  0
 29 28  1  0  0  0  0
 30 29  1  0  0  0  0
 31 30  1  1  0  0  0
 32 33  2  0  0  0  0
 33 31  1  0  0  0  0
 33 34  1  0  0  0  0
 35 31  1  0  0  0  0
 36 38  1  0  0  0  0
 36 35  1  0  0  0  0
 37 36  2  0  0  0  0
 39 40  1  0  0  0  0
 39 38  1  1  0  0  0
 39 41  1  0  0  0  0
 40 43  1  1  0  0  0
 40 41  1  0  0  0  0
 41 44  1  1  0  0  0
 42 44  1  0  0  0  0
 42 41  1  0  0  0  0
 42 48  1  1  0  0  0
 45 47  1  0  0  0  0
 45 40  1  0  0  0  0
 47 46  1  0  0  0  0
 49 50  1  0  0  0  0
 50 48  1  0  0  0  0
M  END
>  <MODEL>
3

>  <REMARK>
 VINA RESULT:      -6.7      2.267      7.819
  Name = 
  20 active torsions:
  status: ('A' for Active; 'I' for Inactive)
    1  A    between atoms: C_1  and  C_41
    2  A    between atoms: C_2  and  O_20
    3  A    between atoms: C_2  and  C_41
    4  A    between atoms: C_3  and  O_36
    5  A    between atoms: C_4  and  C_21
    6  A    between atoms: C_4  and  C_37
    7  A    between atoms: C_5  and  C_24
    8  A    between atoms: C_11  and  C_25
    9  A    between atoms: C_14  and  C_26
   10  A    between atoms: C_14  and  C_46
   11  A    between atoms: C_18  and  C_23
   12  A    between atoms: C_18  and  C_32
   13  A    between atoms: C_19  and  C_23
   14  A    between atoms: C_19  and  C_44
   15  A    between atoms: O_20  and  C_26
   16  A    between atoms: C_24  and  C_27
   17  A    between atoms: C_25  and  C_44
   18  A    between atoms: C_26  and  C_29
   19  A    between atoms: C_30  and  C_34
   20  A    between atoms: C_30  and  C_46
                            x       y       z     vdW  Elec       q    Type
                         _______ _______ _______ _____ _____    ______ ____

>  <TORSDO>
F 20

$$$$
=
 OpenBabel11062412553D

 50 55  0  0  1  0  0  0  0  0999 V2000
  184.9620  179.2560  138.4320 O   0  0  0  0  0  0  0  0  0  0  0  0
  184.8230  177.8460  138.4150 C   0  0  1  0  0  0  0  0  0  0  0  0
  186.7840  178.6160  139.7040 O   0  0  0  0  0  1  0  0  0  0  0  0
  185.3900  178.5800  139.5920 C   0  0  1  0  0  0  0  0  0  0  0  0
  183.1830  175.9730  136.2980 C   0  0  0  0  0  0  0  0  0  0  0  0
  182.9710  177.1470  139.7980 O   0  0  0  0  0  1  0  0  0  0  0  0
  181.2510  179.0010  135.7520 C   0  0  0  0  0  3  0  0  0  0  0  0
  183.3470  177.3180  138.4640 C   0  0  2  0  0  0  0  0  0  0  0  0
  182.6150  176.9750  135.6970 N   0  0  0  0  0  0  0  0  0  0  0  0
  180.6860  180.0680  136.4510 C   0  0  0  0  0  3  0  0  0  0  0  0
  181.7950  179.3410  138.4700 C   0  0  0  0  0  3  0  0  0  0  0  0
  183.2440  175.9250  137.8080 C   0  0  0  0  0  2  0  0  0  0  0  0
  180.9510  180.2340  137.8090 C   0  0  0  0  0  3  0  0  0  0  0  0
  182.0850  178.0950  136.4110 C   0  0  0  0  0  0  0  0  0  0  0  0
  182.3710  178.2630  137.7800 C   0  0  0  0  0  0  0  0  0  0  0  0
  182.8750  174.1230  134.6960 C   0  0  0  0  0  1  0  0  0  0  0  0
  183.6940  174.9270  135.5290 O   0  0  0  0  0  0  0  0  0  0  0  0
  185.8680  177.1600  137.5230 C   0  0  0  0  0  2  0  0  0  0  0  0
  186.0720  177.9120  136.2210 C   0  0  0  0  0  2  0  0  0  0  0  0
  187.5550  178.0810  135.9770 C   0  0  0  0  0  2  0  0  0  0  0  0
  188.0390  177.0840  134.9410 C   0  0  0  0  0  2  0  0  0  0  0  0
  187.9830  174.4120  135.9790 C   0  0  0  0  0  1  0  0  0  0  0  0
  190.7730  176.5780  137.2410 C   0  0  0  0  0  1  0  0  0  0  0  0
  189.3890  176.4970  135.3470 C   0  0  2  0  0  3  0  0  0  0  0  0
  189.3220  175.1310  135.8850 C   0  0  0  0  0  0  0  0  0  0  0  0
  189.4090  176.2900  136.8130 N   0  0  0  0  0  0  0  0  0  0  0  0
  190.5740  174.2730  135.7050 C   0  0  0  0  0  1  0  0  0  0  0  0
  184.5610  179.0040  140.8060 C   0  0  0  0  0  2  0  0  0  0  0  0
  185.2200  178.6130  142.1280 C   0  0  0  0  0  2  0  0  0  0  0  0
  184.7450  179.5010  143.2690 C   0  0  0  0  0  2  0  0  0  0  0  0
  183.8770  178.7220  144.2450 C   0  0  2  0  0  3  0  0  0  0  0  0
  181.5800  178.1180  144.4090 O   0  0  0  0  0  1  0  0  0  0  0  0
  182.4290  178.9160  143.9350 C   0  0  0  0  0  0  0  0  0  0  0  0
  182.0230  179.9630  143.1180 O   0  0  0  0  0  0  0  0  0  0  0  0
  184.1600  179.1550  145.5710 O   0  0  0  0  0  0  0  0  0  0  0  0
  185.2850  178.7380  146.2870 C   0  0  0  0  0  0  0  0  0  0  0  0
  185.6090  179.3670  147.3300 O   0  0  0  0  0  0  0  0  0  0  0  0
  186.1500  177.6140  145.7890 C   0  0  0  0  0  2  0  0  0  0  0  0
  187.6110  178.0400  145.6390 C   0  0  1  0  0  3  0  0  0  0  0  0
  188.5900  177.2990  146.4760 C   0  0  2  0  0  0  0  0  0  0  0  0
  188.3990  176.8910  144.9840 C   0  0  2  0  0  0  0  0  0  0  0  0
  188.9010  177.7300  143.7960 C   0  0  1  0  0  3  0  0  0  0  0  0
  188.0210  176.3210  147.4990 C   0  0  0  0  0  1  0  0  0  0  0  0
  189.8620  176.8710  144.4990 C   0  0  0  0  0  2  0  0  0  0  0  0
  189.6830  178.2600  146.9610 C   0  0  0  0  0  2  0  0  0  0  0  0
  191.5610  176.7240  147.4450 C   0  0  0  0  0  1  0  0  0  0  0  0
  190.5160  177.6310  148.0590 C   0  0  0  0  0  2  0  0  0  0  0  0
  188.4700  177.0640  142.5010 C   0  0  0  0  0  2  0  0  0  0  0  0
  189.3420  176.8980  140.2850 O   0  0  0  0  0  1  0  0  0  0  0  0
  189.6820  176.7690  141.6330 C   0  0  0  0  0  2  0  0  0  0  0  0
  1  4  1  0  0  0  0
  2 18  1  6  0  0  0
  2  1  1  0  0  0  0
  2  8  1  0  0  0  0
  2  4  1  0  0  0  0
  4  3  1  1  0  0  0
  4 28  1  0  0  0  0
  5 12  1  0  0  0  0
  7 14  2  0  0  0  0
  7 10  1  0  0  0  0
  8  6  1  1  0  0  0
  9  5  2  0  0  0  0
  9 14  1  0  0  0  0
 10 13  2  0  0  0  0
 12  8  1  0  0  0  0
 13 11  1  0  0  0  0
 14 15  1  0  0  0  0
 15  8  1  0  0  0  0
 15 11  2  0  0  0  0
 16 17  1  0  0  0  0
 17  5  1  0  0  0  0
 19 18  1  0  0  0  0
 20 19  1  0  0  0  0
 21 20  1  0  0  0  0
 24 21  1  1  0  0  0
 24 25  1  0  0  0  0
 24 26  1  0  0  0  0
 25 22  1  0  0  0  0
 25 26  1  0  0  0  0
 26 23  1  0  0  0  0
 27 25  1  0  0  0  0
 28 29  1  0  0  0  0
 29 30  1  0  0  0  0
 31 30  1  6  0  0  0
 31 35  1  0  0  0  0
 33 31  1  0  0  0  0
 33 32  1  0  0  0  0
 34 33  2  0  0  0  0
 35 36  1  0  0  0  0
 36 37  2  0  0  0  0
 38 36  1  0  0  0  0
 39 38  1  1  0  0  0
 39 40  1  0  0  0  0
 40 45  1  0  0  0  0
 40 43  1  1  0  0  0
 41 44  1  6  0  0  0
 41 39  1  0  0  0  0
 41 40  1  0  0  0  0
 42 48  1  6  0  0  0
 42 44  1  0  0  0  0
 42 41  1  0  0  0  0
 45 47  1  0  0  0  0
 46 47  1  0  0  0  0
 49 50  1  0  0  0  0
 50 48  1  0  0  0  0
M  END
>  <MODEL>
4

>  <REMARK>
 VINA RESULT:      -6.6      2.024      6.469
  Name = 
  20 active torsions:
  status: ('A' for Active; 'I' for Inactive)
    1  A    between atoms: C_1  and  C_41
    2  A    between atoms: C_2  and  O_20
    3  A    between atoms: C_2  and  C_41
    4  A    between atoms: C_3  and  O_36
    5  A    between atoms: C_4  and  C_21
    6  A    between atoms: C_4  and  C_37
    7  A    between atoms: C_5  and  C_24
    8  A    between atoms: C_11  and  C_25
    9  A    between atoms: C_14  and  C_26
   10  A    between atoms: C_14  and  C_46
   11  A    between atoms: C_18  and  C_23
   12  A    between atoms: C_18  and  C_32
   13  A    between atoms: C_19  and  C_23
   14  A    between atoms: C_19  and  C_44
   15  A    between atoms: O_20  and  C_26
   16  A    between atoms: C_24  and  C_27
   17  A    between atoms: C_25  and  C_44
   18  A    between atoms: C_26  and  C_29
   19  A    between atoms: C_30  and  C_34
   20  A    between atoms: C_30  and  C_46
                            x       y       z     vdW  Elec       q    Type
                         _______ _______ _______ _____ _____    ______ ____

>  <TORSDO>
F 20

$$$$
=
 OpenBabel11062412553D

 50 55  0  0  1  0  0  0  0  0999 V2000
  188.5200  178.6280  137.2570 O   0  0  0  0  0  0  0  0  0  0  0  0
  188.7900  177.2560  137.4830 C   0  0  1  0  0  0  0  0  0  0  0  0
  186.7040  178.0280  138.5560 O   0  0  0  0  0  1  0  0  0  0  0  0
  187.3950  177.7880  137.3640 C   0  0  1  0  0  0  0  0  0  0  0  0
  188.6100  174.1050  136.6380 C   0  0  0  0  0  0  0  0  0  0  0  0
  189.5650  177.3740  135.1990 O   0  0  0  0  0  1  0  0  0  0  0  0
  192.1330  174.0930  137.5230 C   0  0  0  0  0  3  0  0  0  0  0  0
  189.4390  176.4940  136.2760 C   0  0  2  0  0  0  0  0  0  0  0  0
  189.7310  173.7830  137.2110 N   0  0  0  0  0  0  0  0  0  0  0  0
  193.2860  174.8700  137.3990 C   0  0  0  0  0  3  0  0  0  0  0  0
  191.9710  176.6870  136.5010 C   0  0  0  0  0  3  0  0  0  0  0  0
  188.5170  175.3540  135.7920 C   0  0  0  0  0  2  0  0  0  0  0  0
  193.2060  176.1620  136.8820 C   0  0  0  0  0  3  0  0  0  0  0  0
  190.8960  174.6080  137.1300 C   0  0  0  0  0  0  0  0  0  0  0  0
  190.8040  175.9180  136.6210 C   0  0  0  0  0  0  0  0  0  0  0  0
  187.6490  171.8660  137.0230 C   0  0  0  0  0  1  0  0  0  0  0  0
  187.5110  173.2570  136.7820 O   0  0  0  0  0  0  0  0  0  0  0  0
  189.2460  176.9720  138.9210 C   0  0  0  0  0  2  0  0  0  0  0  0
  190.2190  178.0260  139.4170 C   0  0  0  0  0  2  0  0  0  0  0  0
  191.3150  177.3500  140.2120 C   0  0  0  0  0  2  0  0  0  0  0  0
  190.7260  176.5930  141.3880 C   0  0  0  0  0  2  0  0  0  0  0  0
  189.0770  176.1980  143.6990 C   0  0  0  0  0  1  0  0  0  0  0  0
  191.3350  179.1910  143.8170 C   0  0  0  0  0  1  0  0  0  0  0  0
  191.2860  177.1240  142.7060 C   0  0  2  0  0  3  0  0  0  0  0  0
  190.4090  176.9150  143.8670 C   0  0  0  0  0  0  0  0  0  0  0  0
  190.4330  178.2360  143.1840 N   0  0  0  0  0  0  0  0  0  0  0  0
  191.1040  176.8090  145.2250 C   0  0  0  0  0  1  0  0  0  0  0  0
  186.5940  177.7830  136.0590 C   0  0  0  0  0  2  0  0  0  0  0  0
  185.4500  176.7700  136.0800 C   0  0  0  0  0  2  0  0  0  0  0  0
  184.2230  177.3340  136.7810 C   0  0  0  0  0  2  0  0  0  0  0  0
  183.7580  176.4130  137.8980 C   0  0  2  0  0  3  0  0  0  0  0  0
  184.2090  174.0760  137.8290 O   0  0  0  0  0  1  0  0  0  0  0  0
  183.5240  175.0320  137.3810 C   0  0  0  0  0  0  0  0  0  0  0  0
  182.5660  174.8050  136.4030 O   0  0  0  0  0  0  0  0  0  0  0  0
  182.5630  176.9350  138.4690 O   0  0  0  0  0  0  0  0  0  0  0  0
  182.4620  177.3250  139.8080 C   0  0  0  0  0  0  0  0  0  0  0  0
  181.4170  177.0330  140.4470 O   0  0  0  0  0  0  0  0  0  0  0  0
  183.5360  178.1490  140.4590 C   0  0  0  0  0  2  0  0  0  0  0  0
  183.6070  177.9060  141.9680 C   0  0  1  0  0  3  0  0  0  0  0  0
  184.6950  178.6180  142.6870 C   0  0  2  0  0  0  0  0  0  0  0  0
  183.2570  179.2160  142.6990 C   0  0  2  0  0  0  0  0  0  0  0  0
  182.0860  178.6160  143.4980 C   0  0  1  0  0  3  0  0  0  0  0  0
  185.7090  179.3710  141.8310 C   0  0  0  0  0  1  0  0  0  0  0  0
  183.0560  179.4610  144.2070 C   0  0  0  0  0  2  0  0  0  0  0  0
  185.2500  177.7180  143.7980 C   0  0  0  0  0  2  0  0  0  0  0  0
  186.6870  177.6380  145.8110 C   0  0  0  0  0  1  0  0  0  0  0  0
  186.3870  178.3970  144.5360 C   0  0  0  0  0  2  0  0  0  0  0  0
  180.8270  179.4140  143.2080 C   0  0  0  0  0  2  0  0  0  0  0  0
  178.9310  178.2460  142.3490 O   0  0  0  0  0  1  0  0  0  0  0  0
  179.5950  178.5850  143.5290 C   0  0  0  0  0  2  0  0  0  0  0  0
  1  4  1  0  0  0  0
  1  2  1  0  0  0  0
  2 18  1  1  0  0  0
  4  2  1  0  0  0  0
  4  3  1  1  0  0  0
  5 17  1  0  0  0  0
  5  9  2  0  0  0  0
  8  6  1  6  0  0  0
  8 15  1  0  0  0  0
  8  2  1  0  0  0  0
 10  7  1  0  0  0  0
 11 15  2  0  0  0  0
 11 13  1  0  0  0  0
 12  8  1  0  0  0  0
 12  5  1  0  0  0  0
 13 10  2  0  0  0  0
 14  9  1  0  0  0  0
 14  7  2  0  0  0  0
 15 14  1  0  0  0  0
 17 16  1  0  0  0  0
 18 19  1  0  0  0  0
 19 20  1  0  0  0  0
 20 21  1  0  0  0  0
 22 25  1  0  0  0  0
 24 21  1  6  0  0  0
 24 26  1  0  0  0  0
 24 25  1  0  0  0  0
 25 27  1  0  0  0  0
 26 23  1  0  0  0  0
 26 25  1  0  0  0  0
 28 29  1  0  0  0  0
 28  4  1  0  0  0  0
 29 30  1  0  0  0  0
 31 30  1  6  0  0  0
 31 35  1  0  0  0  0
 33 32  1  0  0  0  0
 33 31  1  0  0  0  0
 34 33  2  0  0  0  0
 35 36  1  0  0  0  0
 36 37  2  0  0  0  0
 36 38  1  0  0  0  0
 39 38  1  6  0  0  0
 39 40  1  0  0  0  0
 39 41  1  0  0  0  0
 40 43  1  6  0  0  0
 40 41  1  0  0  0  0
 40 45  1  0  0  0  0
 41 42  1  0  0  0  0
 41 44  1  6  0  0  0
 42 48  1  6  0  0  0
 42 44  1  0  0  0  0
 45 47  1  0  0  0  0
 47 46  1  0  0  0  0
 48 50  1  0  0  0  0
 49 50  1  0  0  0  0
M  END
>  <MODEL>
5

>  <REMARK>
 VINA RESULT:      -6.5      2.767      6.381
  Name = 
  20 active torsions:
  status: ('A' for Active; 'I' for Inactive)
    1  A    between atoms: C_1  and  C_41
    2  A    between atoms: C_2  and  O_20
    3  A    between atoms: C_2  and  C_41
    4  A    between atoms: C_3  and  O_36
    5  A    between atoms: C_4  and  C_21
    6  A    between atoms: C_4  and  C_37
    7  A    between atoms: C_5  and  C_24
    8  A    between atoms: C_11  and  C_25
    9  A    between atoms: C_14  and  C_26
   10  A    between atoms: C_14  and  C_46
   11  A    between atoms: C_18  and  C_23
   12  A    between atoms: C_18  and  C_32
   13  A    between atoms: C_19  and  C_23
   14  A    between atoms: C_19  and  C_44
   15  A    between atoms: O_20  and  C_26
   16  A    between atoms: C_24  and  C_27
   17  A    between atoms: C_25  and  C_44
   18  A    between atoms: C_26  and  C_29
   19  A    between atoms: C_30  and  C_34
   20  A    between atoms: C_30  and  C_46
                            x       y       z     vdW  Elec       q    Type
                         _______ _______ _______ _____ _____    ______ ____

>  <TORSDO>
F 20

$$$$
=
 OpenBabel11062412553D

 50 55  0  0  1  0  0  0  0  0999 V2000
  185.5690  176.9480  138.0120 O   0  0  0  0  0  0  0  0  0  0  0  0
  184.9360  177.3450  136.8090 C   0  0  1  0  0  0  0  0  0  0  0  0
  185.4540  179.2380  138.3070 O   0  0  0  0  0  1  0  0  0  0  0  0
  185.9470  178.2050  137.5020 C   0  0  1  0  0  0  0  0  0  0  0  0
  183.2260  175.2060  135.0260 C   0  0  0  0  0  0  0  0  0  0  0  0
  186.2850  177.2700  134.8070 O   0  0  0  0  0  1  0  0  0  0  0  0
  185.6080  172.8130  136.3680 C   0  0  0  0  0  3  0  0  0  0  0  0
  185.3500  176.5300  135.5340 C   0  0  2  0  0  0  0  0  0  0  0  0
  183.7100  174.1620  135.6310 N   0  0  0  0  0  0  0  0  0  0  0  0
  186.9670  172.6800  136.6560 C   0  0  0  0  0  3  0  0  0  0  0  0
  187.3050  175.0220  136.1730 C   0  0  0  0  0  3  0  0  0  0  0  0
  184.1400  176.3300  134.5970 C   0  0  0  0  0  2  0  0  0  0  0  0
  187.8150  173.7810  136.5510 C   0  0  0  0  0  3  0  0  0  0  0  0
  185.0930  174.0500  135.9750 C   0  0  0  0  0  0  0  0  0  0  0  0
  185.9400  175.1720  135.8820 C   0  0  0  0  0  0  0  0  0  0  0  0
  180.8700  175.1400  135.7540 C   0  0  0  0  0  1  0  0  0  0  0  0
  181.8600  175.2480  134.7440 O   0  0  0  0  0  0  0  0  0  0  0  0
  183.4770  177.7720  137.0210 C   0  0  0  0  0  2  0  0  0  0  0  0
  182.8370  177.0240  138.1750 C   0  0  0  0  0  2  0  0  0  0  0  0
  181.5670  177.7380  138.5830 C   0  0  0  0  0  2  0  0  0  0  0  0
  181.8940  179.0500  139.2700 C   0  0  0  0  0  2  0  0  0  0  0  0
  183.4010  178.2630  141.5790 C   0  0  0  0  0  1  0  0  0  0  0  0
  179.6860  177.8130  141.8420 C   0  0  0  0  0  1  0  0  0  0  0  0
  181.1670  179.1530  140.6090 C   0  0  2  0  0  3  0  0  0  0  0  0
  181.9650  178.7310  141.7690 C   0  0  0  0  0  0  0  0  0  0  0  0
  180.9790  177.7950  141.1670 N   0  0  0  0  0  0  0  0  0  0  0  0
  181.6020  179.3760  143.1060 C   0  0  0  0  0  1  0  0  0  0  0  0
  187.4350  178.2220  137.1440 C   0  0  0  0  0  2  0  0  0  0  0  0
  188.3330  178.2540  138.3800 C   0  0  0  0  0  2  0  0  0  0  0  0
  188.9180  176.8810  138.6760 C   0  0  0  0  0  2  0  0  0  0  0  0
  190.2820  176.9980  139.3400 C   0  0  2  0  0  3  0  0  0  0  0  0
  192.4030  176.7130  138.2970 O   0  0  0  0  0  1  0  0  0  0  0  0
  191.2990  176.1920  138.6030 C   0  0  0  0  0  0  0  0  0  0  0  0
  191.0250  174.8790  138.2440 O   0  0  0  0  0  0  0  0  0  0  0  0
  190.1840  176.5540  140.6890 O   0  0  0  0  0  0  0  0  0  0  0  0
  189.7870  177.3860  141.7410 C   0  0  0  0  0  0  0  0  0  0  0  0
  190.4940  178.3900  142.0200 O   0  0  0  0  0  0  0  0  0  0  0  0
  188.5880  177.0540  142.5830 C   0  0  0  0  0  2  0  0  0  0  0  0
  188.5510  177.8740  143.8740 C   0  0  1  0  0  3  0  0  0  0  0  0
  187.6790  177.3420  144.9530 C   0  0  2  0  0  0  0  0  0  0  0  0
  189.2100  177.0560  145.0000 C   0  0  2  0  0  0  0  0  0  0  0  0
  190.2700  178.1200  145.3380 C   0  0  1  0  0  3  0  0  0  0  0  0
  186.8020  176.1450  144.6030 C   0  0  0  0  0  1  0  0  0  0  0  0
  189.5410  177.4850  146.4430 C   0  0  0  0  0  2  0  0  0  0  0  0
  187.0090  178.5070  145.6920 C   0  0  0  0  0  2  0  0  0  0  0  0
  184.7380  179.2770  145.0810 C   0  0  0  0  0  1  0  0  0  0  0  0
  185.5260  178.2570  145.8760 C   0  0  0  0  0  2  0  0  0  0  0  0
  191.6510  177.5020  145.2120 C   0  0  0  0  0  2  0  0  0  0  0  0
  191.8220  175.5010  143.9220 O   0  0  0  0  0  1  0  0  0  0  0  0
  191.5490  175.9860  145.2020 C   0  0  0  0  0  2  0  0  0  0  0  0
  2 18  1  1  0  0  0
  2  4  1  0  0  0  0
  2  1  1  0  0  0  0
  4  1  1  0  0  0  0
  4  3  1  1  0  0  0
  5  9  2  0  0  0  0
  7 10  1  0  0  0  0
  8  6  1  6  0  0  0
  8 15  1  0  0  0  0
  8  2  1  0  0  0  0
  9 14  1  0  0  0  0
 11 13  1  0  0  0  0
 12  5  1  0  0  0  0
 12  8  1  0  0  0  0
 13 10  2  0  0  0  0
 14  7  2  0  0  0  0
 15 14  1  0  0  0  0
 15 11  2  0  0  0  0
 17  5  1  0  0  0  0
 17 16  1  0  0  0  0
 18 19  1  0  0  0  0
 19 20  1  0  0  0  0
 20 21  1  0  0  0  0
 22 25  1  0  0  0  0
 24 21  1  6  0  0  0
 24 26  1  0  0  0  0
 24 25  1  0  0  0  0
 25 27  1  0  0  0  0
 26 25  1  0  0  0  0
 26 23  1  0  0  0  0
 28  4  1  0  0  0  0
 28 29  1  0  0  0  0
 29 30  1  0  0  0  0
 31 30  1  6  0  0  0
 31 35  1  0  0  0  0
 32 33  1  0  0  0  0
 33 31  1  0  0  0  0
 34 33  2  0  0  0  0
 35 36  1  0  0  0  0
 36 37  2  0  0  0  0
 36 38  1  0  0  0  0
 39 38  1  6  0  0  0
 39 40  1  0  0  0  0
 39 41  1  0  0  0  0
 40 43  1  6  0  0  0
 40 41  1  0  0  0  0
 40 45  1  0  0  0  0
 41 42  1  0  0  0  0
 41 44  1  6  0  0  0
 42 48  1  1  0  0  0
 42 44  1  0  0  0  0
 45 47  1  0  0  0  0
 46 47  1  0  0  0  0
 49 50  1  0  0  0  0
 50 48  1  0  0  0  0
M  END
>  <MODEL>
6

>  <REMARK>
 VINA RESULT:      -6.1      1.666      2.812
  Name = 
  20 active torsions:
  status: ('A' for Active; 'I' for Inactive)
    1  A    between atoms: C_1  and  C_41
    2  A    between atoms: C_2  and  O_20
    3  A    between atoms: C_2  and  C_41
    4  A    between atoms: C_3  and  O_36
    5  A    between atoms: C_4  and  C_21
    6  A    between atoms: C_4  and  C_37
    7  A    between atoms: C_5  and  C_24
    8  A    between atoms: C_11  and  C_25
    9  A    between atoms: C_14  and  C_26
   10  A    between atoms: C_14  and  C_46
   11  A    between atoms: C_18  and  C_23
   12  A    between atoms: C_18  and  C_32
   13  A    between atoms: C_19  and  C_23
   14  A    between atoms: C_19  and  C_44
   15  A    between atoms: O_20  and  C_26
   16  A    between atoms: C_24  and  C_27
   17  A    between atoms: C_25  and  C_44
   18  A    between atoms: C_26  and  C_29
   19  A    between atoms: C_30  and  C_34
   20  A    between atoms: C_30  and  C_46
                            x       y       z     vdW  Elec       q    Type
                         _______ _______ _______ _____ _____    ______ ____

>  <TORSDO>
F 20

$$$$
=
 OpenBabel11062412553D

 50 55  0  0  1  0  0  0  0  0999 V2000
  188.2630  179.1280  137.1660 O   0  0  0  0  0  0  0  0  0  0  0  0
  188.8050  177.8690  137.5230 C   0  0  1  0  0  0  0  0  0  0  0  0
  187.0170  178.6280  139.0470 O   0  0  0  0  0  1  0  0  0  0  0  0
  187.3660  178.2170  137.7570 C   0  0  1  0  0  0  0  0  0  0  0  0
  188.0060  174.7610  136.9070 C   0  0  0  0  0  0  0  0  0  0  0  0
  189.3680  177.7320  135.1780 O   0  0  0  0  0  1  0  0  0  0  0  0
  191.5430  174.1700  137.4900 C   0  0  0  0  0  3  0  0  0  0  0  0
  189.1950  176.9430  136.3180 C   0  0  2  0  0  0  0  0  0  0  0  0
  189.1040  174.2750  137.4040 N   0  0  0  0  0  0  0  0  0  0  0  0
  192.7950  174.7230  137.2180 C   0  0  0  0  0  3  0  0  0  0  0  0
  191.7330  176.6960  136.3150 C   0  0  0  0  0  3  0  0  0  0  0  0
  188.0500  175.9620  135.9910 C   0  0  0  0  0  2  0  0  0  0  0  0
  192.8900  175.9810  136.6240 C   0  0  0  0  0  3  0  0  0  0  0  0
  190.3810  174.8750  137.1700 C   0  0  0  0  0  0  0  0  0  0  0  0
  190.4670  176.1530  136.5840 C   0  0  0  0  0  0  0  0  0  0  0  0
  186.6580  172.7180  137.2140 C   0  0  0  0  0  1  0  0  0  0  0  0
  186.7970  174.1300  137.2000 O   0  0  0  0  0  0  0  0  0  0  0  0
  189.6930  177.9390  138.7720 C   0  0  0  0  0  2  0  0  0  0  0  0
  189.2470  176.9480  139.8310 C   0  0  0  0  0  2  0  0  0  0  0  0
  189.6340  177.4760  141.1950 C   0  0  0  0  0  2  0  0  0  0  0  0
  189.6400  176.3540  142.2160 C   0  0  0  0  0  2  0  0  0  0  0  0
  187.6140  177.1510  144.0820 C   0  0  0  0  0  1  0  0  0  0  0  0
  190.9160  178.8960  144.4360 C   0  0  0  0  0  1  0  0  0  0  0  0
  190.1390  176.8590  143.5680 C   0  0  2  0  0  3  0  0  0  0  0  0
  189.0750  177.2690  144.4950 C   0  0  0  0  0  0  0  0  0  0  0  0
  189.8070  178.2950  143.7060 N   0  0  0  0  0  0  0  0  0  0  0  0
  189.4000  177.1600  145.9850 C   0  0  0  0  0  1  0  0  0  0  0  0
  186.2380  177.8580  136.7870 C   0  0  0  0  0  2  0  0  0  0  0  0
  184.9930  177.3410  137.5060 C   0  0  0  0  0  2  0  0  0  0  0  0
  183.9930  176.7470  136.5250 C   0  0  0  0  0  2  0  0  0  0  0  0
  183.4020  175.4520  137.0610 C   0  0  2  0  0  3  0  0  0  0  0  0
  184.0400  174.6030  134.9310 O   0  0  0  0  0  0  0  0  0  0  0  0
  183.5150  174.3610  136.0490 C   0  0  0  0  0  0  0  0  0  0  0  0
  183.0310  173.0910  136.3320 O   0  0  0  0  0  1  0  0  0  0  0  0
  182.0370  175.6670  137.4040 O   0  0  0  0  0  0  0  0  0  0  0  0
  181.5460  175.5320  138.7060 C   0  0  0  0  0  0  0  0  0  0  0  0
  180.5120  174.8380  138.8950 O   0  0  0  0  0  0  0  0  0  0  0  0
  182.1800  176.2630  139.8550 C   0  0  0  0  0  2  0  0  0  0  0  0
  181.4970  177.6050  140.1260 C   0  0  1  0  0  3  0  0  0  0  0  0
  182.3130  178.6090  140.8570 C   0  0  2  0  0  0  0  0  0  0  0  0
  182.2060  178.6980  139.3050 C   0  0  2  0  0  0  0  0  0  0  0  0
  180.9390  179.1500  138.5580 C   0  0  1  0  0  3  0  0  0  0  0  0
  183.6620  178.1430  141.3940 C   0  0  0  0  0  1  0  0  0  0  0  0
  181.8200  180.1790  139.1250 C   0  0  0  0  0  2  0  0  0  0  0  0
  181.4140  179.4000  141.8170 C   0  0  0  0  0  2  0  0  0  0  0  0
  180.0660  178.2700  143.5580 C   0  0  0  0  0  1  0  0  0  0  0  0
  181.4410  178.8010  143.2090 C   0  0  0  0  0  2  0  0  0  0  0  0
  181.1780  179.0370  137.0620 C   0  0  0  0  0  2  0  0  0  0  0  0
  180.9350  180.1890  134.9860 O   0  0  0  0  0  1  0  0  0  0  0  0
  180.7080  180.2990  136.3590 C   0  0  0  0  0  2  0  0  0  0  0  0
  1  2  1  0  0  0  0
  1  4  1  0  0  0  0
  2  4  1  0  0  0  0
  2 18  1  1  0  0  0
  4  3  1  1  0  0  0
  5 17  1  0  0  0  0
  5  9  2  0  0  0  0
  8  6  1  6  0  0  0
  8 15  1  0  0  0  0
  8  2  1  0  0  0  0
 10  7  1  0  0  0  0
 11 15  2  0  0  0  0
 11 13  1  0  0  0  0
 12  8  1  0  0  0  0
 12  5  1  0  0  0  0
 13 10  2  0  0  0  0
 14  9  1  0  0  0  0
 14  7  2  0  0  0  0
 15 14  1  0  0  0  0
 17 16  1  0  0  0  0
 18 19  1  0  0  0  0
 19 20  1  0  0  0  0
 20 21  1  0  0  0  0
 22 25  1  0  0  0  0
 24 21  1  6  0  0  0
 24 26  1  0  0  0  0
 24 25  1  0  0  0  0
 25 27  1  0  0  0  0
 26 23  1  0  0  0  0
 26 25  1  0  0  0  0
 28 29  1  0  0  0  0
 28  4  1  0  0  0  0
 30 29  1  0  0  0  0
 31 30  1  6  0  0  0
 31 35  1  0  0  0  0
 32 33  2  0  0  0  0
 33 34  1  0  0  0  0
 33 31  1  0  0  0  0
 35 36  1  0  0  0  0
 36 37  2  0  0  0  0
 36 38  1  0  0  0  0
 39 38  1  6  0  0  0
 39 40  1  0  0  0  0
 40 43  1  1  0  0  0
 40 45  1  0  0  0  0
 41 44  1  6  0  0  0
 41 39  1  0  0  0  0
 41 40  1  0  0  0  0
 42 48  1  6  0  0  0
 42 44  1  0  0  0  0
 42 41  1  0  0  0  0
 45 47  1  0  0  0  0
 47 46  1  0  0  0  0
 49 50  1  0  0  0  0
 50 48  1  0  0  0  0
M  END
>  <MODEL>
7

>  <REMARK>
 VINA RESULT:      -5.9      2.518      7.391
  Name = 
  20 active torsions:
  status: ('A' for Active; 'I' for Inactive)
    1  A    between atoms: C_1  and  C_41
    2  A    between atoms: C_2  and  O_20
    3  A    between atoms: C_2  and  C_41
    4  A    between atoms: C_3  and  O_36
    5  A    between atoms: C_4  and  C_21
    6  A    between atoms: C_4  and  C_37
    7  A    between atoms: C_5  and  C_24
    8  A    between atoms: C_11  and  C_25
    9  A    between atoms: C_14  and  C_26
   10  A    between atoms: C_14  and  C_46
   11  A    between atoms: C_18  and  C_23
   12  A    between atoms: C_18  and  C_32
   13  A    between atoms: C_19  and  C_23
   14  A    between atoms: C_19  and  C_44
   15  A    between atoms: O_20  and  C_26
   16  A    between atoms: C_24  and  C_27
   17  A    between atoms: C_25  and  C_44
   18  A    between atoms: C_26  and  C_29
   19  A    between atoms: C_30  and  C_34
   20  A    between atoms: C_30  and  C_46
                            x       y       z     vdW  Elec       q    Type
                         _______ _______ _______ _____ _____    ______ ____

>  <TORSDO>
F 20

$$$$
=
 OpenBabel11062412553D

 50 55  0  0  1  0  0  0  0  0999 V2000
  189.0610  179.0310  137.2100 O   0  0  0  0  0  0  0  0  0  0  0  0
  189.4250  177.6900  137.4810 C   0  0  1  0  0  0  0  0  0  0  0  0
  187.8470  178.6250  139.1350 O   0  0  0  0  0  1  0  0  0  0  0  0
  188.0680  178.2330  137.8110 C   0  0  1  0  0  0  0  0  0  0  0  0
  188.4140  174.6340  136.9170 C   0  0  0  0  0  0  0  0  0  0  0  0
  189.6720  177.5870  135.0810 O   0  0  0  0  0  1  0  0  0  0  0  0
  191.9670  173.8810  137.0200 C   0  0  0  0  0  3  0  0  0  0  0  0
  189.6140  176.7790  136.2190 C   0  0  2  0  0  0  0  0  0  0  0  0
  189.5450  174.0900  137.2570 N   0  0  0  0  0  0  0  0  0  0  0  0
  193.1960  174.3870  136.5970 C   0  0  0  0  0  3  0  0  0  0  0  0
  192.1160  176.4250  135.8780 C   0  0  0  0  0  3  0  0  0  0  0  0
  188.3920  175.8540  136.0260 C   0  0  0  0  0  2  0  0  0  0  0  0
  193.2690  175.6540  136.0200 C   0  0  0  0  0  3  0  0  0  0  0  0
  190.8060  174.6410  136.8680 C   0  0  0  0  0  0  0  0  0  0  0  0
  190.8720  175.9290  136.3010 C   0  0  0  0  0  0  0  0  0  0  0  0
  186.9660  172.6590  137.2160 C   0  0  0  0  0  1  0  0  0  0  0  0
  187.2260  174.0470  137.3540 O   0  0  0  0  0  0  0  0  0  0  0  0
  190.3740  177.5660  138.6810 C   0  0  0  0  0  2  0  0  0  0  0  0
  189.8510  176.5800  139.7090 C   0  0  0  0  0  2  0  0  0  0  0  0
  190.8120  176.5270  140.8760 C   0  0  0  0  0  2  0  0  0  0  0  0
  190.8070  177.8450  141.6270 C   0  0  0  0  0  2  0  0  0  0  0  0
  191.5600  177.2600  144.3300 C   0  0  0  0  0  1  0  0  0  0  0  0
  188.0310  176.3830  143.4090 C   0  0  0  0  0  1  0  0  0  0  0  0
  189.6790  177.8750  142.6550 C   0  0  2  0  0  3  0  0  0  0  0  0
  190.0980  177.5590  144.0280 C   0  0  0  0  0  0  0  0  0  0  0  0
  189.4660  176.5090  143.1860 N   0  0  0  0  0  0  0  0  0  0  0  0
  189.2550  178.1690  145.1480 C   0  0  0  0  0  1  0  0  0  0  0  0
  186.8530  178.0920  136.8910 C   0  0  0  0  0  2  0  0  0  0  0  0
  185.5330  178.1110  137.6610 C   0  0  0  0  0  2  0  0  0  0  0  0
  184.4320  177.3950  136.8930 C   0  0  0  0  0  2  0  0  0  0  0  0
  184.7680  175.9240  136.6970 C   0  0  2  0  0  3  0  0  0  0  0  0
  183.6720  176.1510  134.5950 O   0  0  0  0  0  0  0  0  0  0  0  0
  184.4990  175.5050  135.2900 C   0  0  0  0  0  0  0  0  0  0  0  0
  185.1450  174.3990  134.7530 O   0  0  0  0  0  1  0  0  0  0  0  0
  183.9940  175.1430  137.6010 O   0  0  0  0  0  0  0  0  0  0  0  0
  182.7650  175.5650  138.1170 C   0  0  0  0  0  0  0  0  0  0  0  0
  181.7770  175.6450  137.3400 O   0  0  0  0  0  0  0  0  0  0  0  0
  182.6320  175.9960  139.5500 C   0  0  0  0  0  2  0  0  0  0  0  0
  182.1750  177.4520  139.6680 C   0  0  1  0  0  3  0  0  0  0  0  0
  180.7520  177.6540  140.0470 C   0  0  2  0  0  0  0  0  0  0  0  0
  181.8540  177.7530  141.1440 C   0  0  2  0  0  0  0  0  0  0  0  0
  182.8430  178.9270  141.2610 C   0  0  1  0  0  3  0  0  0  0  0  0
  179.8730  176.4090  140.1140 C   0  0  0  0  0  1  0  0  0  0  0  0
  181.4890  179.0990  141.8010 C   0  0  0  0  0  2  0  0  0  0  0  0
  180.1890  178.8670  139.2960 C   0  0  0  0  0  2  0  0  0  0  0  0
  180.6120  180.5220  137.5050 C   0  0  0  0  0  1  0  0  0  0  0  0
  180.9970  179.1620  138.0470 C   0  0  0  0  0  2  0  0  0  0  0  0
  183.8160  178.6450  142.3930 C   0  0  0  0  0  2  0  0  0  0  0  0
  185.2910  179.6860  140.8320 O   0  0  0  0  0  1  0  0  0  0  0  0
  185.2470  178.7930  141.9040 C   0  0  0  0  0  2  0  0  0  0  0  0
  1  2  1  0  0  0  0
  1  4  1  0  0  0  0
  2  4  1  0  0  0  0
  2 18  1  1  0  0  0
  4  3  1  1  0  0  0
  5  9  2  0  0  0  0
  5 17  1  0  0  0  0
  8  6  1  6  0  0  0
  8 15  1  0  0  0  0
  8  2  1  0  0  0  0
 10  7  2  0  0  0  0
 11 13  2  0  0  0  0
 11 15  1  0  0  0  0
 12  8  1  0  0  0  0
 12  5  1  0  0  0  0
 13 10  1  0  0  0  0
 14  7  1  0  0  0  0
 14  9  1  0  0  0  0
 15 14  2  0  0  0  0
 16 17  1  0  0  0  0
 18 19  1  0  0  0  0
 19 20  1  0  0  0  0
 20 21  1  0  0  0  0
 24 21  1  6  0  0  0
 24 26  1  0  0  0  0
 24 25  1  0  0  0  0
 25 22  1  0  0  0  0
 25 27  1  0  0  0  0
 26 23  1  0  0  0  0
 26 25  1  0  0  0  0
 28 29  1  0  0  0  0
 28  4  1  0  0  0  0
 30 29  1  0  0  0  0
 31 30  1  6  0  0  0
 31 35  1  0  0  0  0
 32 33  2  0  0  0  0
 33 31  1  0  0  0  0
 34 33  1  0  0  0  0
 35 36  1  0  0  0  0
 36 38  1  0  0  0  0
 37 36  2  0  0  0  0
 39 38  1  1  0  0  0
 39 40  1  0  0  0  0
 39 41  1  0  0  0  0
 40 43  1  1  0  0  0
 40 41  1  0  0  0  0
 41 42  1  0  0  0  0
 41 44  1  1  0  0  0
 42 44  1  0  0  0  0
 42 48  1  1  0  0  0
 45 40  1  0  0  0  0
 46 47  1  0  0  0  0
 47 45  1  0  0  0  0
 49 50  1  0  0  0  0
 50 48  1  0  0  0  0
M  END
>  <MODEL>
8

>  <REMARK>
 VINA RESULT:      -5.8      2.453      7.224
  Name = 
  20 active torsions:
  status: ('A' for Active; 'I' for Inactive)
    1  A    between atoms: C_1  and  C_41
    2  A    between atoms: C_2  and  O_20
    3  A    between atoms: C_2  and  C_41
    4  A    between atoms: C_3  and  O_36
    5  A    between atoms: C_4  and  C_21
    6  A    between atoms: C_4  and  C_37
    7  A    between atoms: C_5  and  C_24
    8  A    between atoms: C_11  and  C_25
    9  A    between atoms: C_14  and  C_26
   10  A    between atoms: C_14  and  C_46
   11  A    between atoms: C_18  and  C_23
   12  A    between atoms: C_18  and  C_32
   13  A    between atoms: C_19  and  C_23
   14  A    between atoms: C_19  and  C_44
   15  A    between atoms: O_20  and  C_26
   16  A    between atoms: C_24  and  C_27
   17  A    between atoms: C_25  and  C_44
   18  A    between atoms: C_26  and  C_29
   19  A    between atoms: C_30  and  C_34
   20  A    between atoms: C_30  and  C_46
                            x       y       z     vdW  Elec       q    Type
                         _______ _______ _______ _____ _____    ______ ____

>  <TORSDO>
F 20

$$$$
=
 OpenBabel11062412553D

 50 55  0  0  1  0  0  0  0  0999 V2000
  189.6190  178.5500  137.4650 O   0  0  0  0  0  0  0  0  0  0  0  0
  189.1510  177.8170  138.5830 C   0  0  1  0  0  0  0  0  0  0  0  0
  187.3440  178.9330  137.3240 O   0  0  0  0  0  1  0  0  0  0  0  0
  188.3480  177.9600  137.3260 C   0  0  1  0  0  0  0  0  0  0  0  0
  191.5340  177.1660  140.7210 C   0  0  0  0  0  0  0  0  0  0  0  0
  189.0560  175.4030  138.6180 O   0  0  0  0  0  1  0  0  0  0  0  0
  193.5450  176.7500  137.7240 C   0  0  0  0  0  3  0  0  0  0  0  0
  189.9140  176.4770  138.8710 C   0  0  2  0  0  0  0  0  0  0  0  0
  192.4900  177.3150  139.8540 N   0  0  0  0  0  0  0  0  0  0  0  0
  193.4800  176.2090  136.4400 C   0  0  0  0  0  3  0  0  0  0  0  0
  191.1190  175.7890  136.7320 C   0  0  0  0  0  3  0  0  0  0  0  0
  190.2960  176.3770  140.3630 C   0  0  0  0  0  2  0  0  0  0  0  0
  192.2700  175.7220  135.9470 C   0  0  0  0  0  3  0  0  0  0  0  0
  192.3990  176.8070  138.5200 C   0  0  0  0  0  0  0  0  0  0  0  0
  191.1690  176.3320  138.0250 C   0  0  0  0  0  0  0  0  0  0  0  0
  191.6760  176.9120  143.1710 C   0  0  0  0  0  1  0  0  0  0  0  0
  191.6910  177.7090  141.9970 O   0  0  0  0  0  0  0  0  0  0  0  0
  188.7000  178.7210  139.7380 C   0  0  0  0  0  2  0  0  0  0  0  0
  187.8560  177.9630  140.7450 C   0  0  0  0  0  2  0  0  0  0  0  0
  186.9700  178.9420  141.4830 C   0  0  0  0  0  2  0  0  0  0  0  0
  186.1760  178.2300  142.5610 C   0  0  0  0  0  2  0  0  0  0  0  0
  187.9280  176.2090  143.5920 C   0  0  0  0  0  1  0  0  0  0  0  0
  186.0920  178.2240  146.1680 C   0  0  0  0  0  1  0  0  0  0  0  0
  186.7730  178.5040  143.9400 C   0  0  2  0  0  3  0  0  0  0  0  0
  187.6560  177.4420  144.4420 C   0  0  0  0  0  0  0  0  0  0  0  0
  186.2450  177.5130  144.9050 N   0  0  0  0  0  0  0  0  0  0  0  0
  188.7440  177.8790  145.4230 C   0  0  0  0  0  1  0  0  0  0  0  0
  188.3490  176.9260  136.1970 C   0  0  0  0  0  2  0  0  0  0  0  0
  187.0950  177.0100  135.3280 C   0  0  0  0  0  2  0  0  0  0  0  0
  186.3170  175.7020  135.3500 C   0  0  0  0  0  2  0  0  0  0  0  0
  185.6870  175.4620  136.7130 C   0  0  2  0  0  3  0  0  0  0  0  0
  187.0020  173.4820  136.8500 O   0  0  0  0  0  0  0  0  0  0  0  0
  185.9320  174.0610  137.1680 C   0  0  0  0  0  0  0  0  0  0  0  0
  184.9780  173.3950  137.9270 O   0  0  0  0  0  1  0  0  0  0  0  0
  184.2880  175.7170  136.6320 O   0  0  0  0  0  0  0  0  0  0  0  0
  183.7360  176.9940  136.7650 C   0  0  0  0  0  0  0  0  0  0  0  0
  183.0450  177.4570  135.8200 O   0  0  0  0  0  0  0  0  0  0  0  0
  184.0220  177.8420  137.9720 C   0  0  0  0  0  2  0  0  0  0  0  0
  183.4310  177.2380  139.2480 C   0  0  1  0  0  3  0  0  0  0  0  0
  182.5940  178.1520  140.0670 C   0  0  2  0  0  0  0  0  0  0  0  0
  181.9000  177.1530  139.0940 C   0  0  2  0  0  0  0  0  0  0  0  0
  181.8240  175.6350  139.3360 C   0  0  1  0  0  3  0  0  0  0  0  0
  182.5510  179.6160  139.6410 C   0  0  0  0  0  1  0  0  0  0  0  0
  180.8670  176.5020  140.0330 C   0  0  0  0  0  2  0  0  0  0  0  0
  182.8270  177.8650  141.5560 C   0  0  0  0  0  2  0  0  0  0  0  0
  181.0540  178.7190  143.0560 C   0  0  0  0  0  1  0  0  0  0  0  0
  182.3890  179.0340  142.4150 C   0  0  0  0  0  2  0  0  0  0  0  0
  181.1480  174.9760  138.1460 C   0  0  0  0  0  2  0  0  0  0  0  0
  179.8540  175.4940  136.2080 O   0  0  0  0  0  1  0  0  0  0  0  0
  180.1840  175.9480  137.4860 C   0  0  0  0  0  2  0  0  0  0  0  0
  1  2  1  0  0  0  0
  2  8  1  0  0  0  0
  2 18  1  1  0  0  0
  4  3  1  1  0  0  0
  4  1  1  0  0  0  0
  4  2  1  0  0  0  0
  5 17  1  0  0  0  0
  7 14  1  0  0  0  0
  8  6  1  6  0  0  0
  8 12  1  0  0  0  0
  9  5  2  0  0  0  0
 10  7  2  0  0  0  0
 11 15  1  0  0  0  0
 12  5  1  0  0  0  0
 13 10  1  0  0  0  0
 13 11  2  0  0  0  0
 14  9  1  0  0  0  0
 15 14  2  0  0  0  0
 15  8  1  0  0  0  0
 17 16  1  0  0  0  0
 18 19  1  0  0  0  0
 19 20  1  0  0  0  0
 20 21  1  0  0  0  0
 22 25  1  0  0  0  0
 24 21  1  6  0  0  0
 24 25  1  0  0  0  0
 24 26  1  0  0  0  0
 25 26  1  0  0  0  0
 25 27  1  0  0  0  0
 26 23  1  0  0  0  0
 28  4  1  0  0  0  0
 29 30  1  0  0  0  0
 29 28  1  0  0  0  0
 31 30  1  6  0  0  0
 31 33  1  0  0  0  0
 32 33  2  0  0  0  0
 33 34  1  0  0  0  0
 35 31  1  0  0  0  0
 35 36  1  0  0  0  0
 36 38  1  0  0  0  0
 37 36  2  0  0  0  0
 39 38  1  6  0  0  0
 39 40  1  0  0  0  0
 40 43  1  6  0  0  0
 40 45  1  0  0  0  0
 41 39  1  0  0  0  0
 41 42  1  0  0  0  0
 41 44  1  6  0  0  0
 41 40  1  0  0  0  0
 42 48  1  6  0  0  0
 42 44  1  0  0  0  0
 45 47  1  0  0  0  0
 47 46  1  0  0  0  0
 49 50  1  0  0  0  0
 50 48  1  0  0  0  0
M  END
>  <MODEL>
9

>  <REMARK>
 VINA RESULT:      -5.7      2.696      7.322
  Name = 
  20 active torsions:
  status: ('A' for Active; 'I' for Inactive)
    1  A    between atoms: C_1  and  C_41
    2  A    between atoms: C_2  and  O_20
    3  A    between atoms: C_2  and  C_41
    4  A    between atoms: C_3  and  O_36
    5  A    between atoms: C_4  and  C_21
    6  A    between atoms: C_4  and  C_37
    7  A    between atoms: C_5  and  C_24
    8  A    between atoms: C_11  and  C_25
    9  A    between atoms: C_14  and  C_26
   10  A    between atoms: C_14  and  C_46
   11  A    between atoms: C_18  and  C_23
   12  A    between atoms: C_18  and  C_32
   13  A    between atoms: C_19  and  C_23
   14  A    between atoms: C_19  and  C_44
   15  A    between atoms: O_20  and  C_26
   16  A    between atoms: C_24  and  C_27
   17  A    between atoms: C_25  and  C_44
   18  A    between atoms: C_26  and  C_29
   19  A    between atoms: C_30  and  C_34
   20  A    between atoms: C_30  and  C_46
                            x       y       z     vdW  Elec       q    Type
                         _______ _______ _______ _____ _____    ______ ____

>  <TORSDO>
F 20

$$$$
