=
 OpenBabel11062417283D

 47 51  0  0  1  0  0  0  0  0999 V2000
  188.5620  178.4840  138.4530 C   0  0  2  0  0  0  0  0  0  0  0  0
  189.1900  178.3120  142.0260 C   0  0  0  0  0  3  0  0  0  0  0  0
  189.9130  177.9350  138.7210 C   0  0  2  0  0  3  0  0  0  0  0  0
  190.7170  176.7720  140.9610 N   0  0  0  0  0  0  0  0  0  0  0  0
  187.7430  178.6790  139.6560 N   0  0  0  0  0  2  0  0  0  0  0  0
  190.4790  176.5340  138.5270 C   0  0  0  0  0  2  0  0  0  0  0  0
  188.7440  177.6050  139.6530 C   0  0  1  0  0  0  0  0  0  0  0  0
  189.5660  177.6490  140.9290 C   0  0  0  0  0  0  0  0  0  0  0  0
  191.1540  176.2160  139.8540 C   0  0  0  0  0  3  0  0  0  0  0  0
  187.8270  177.7390  137.4360 N   0  0  0  0  0  2  0  0  0  0  0  0
  186.9960  178.4100  136.4810 C   0  0  0  0  0  0  0  0  0  0  0  0
  187.0720  179.6590  136.3550 O   0  0  0  0  0  0  0  0  0  0  0  0
  183.9390  176.6160  135.0240 C   0  0  0  0  0  1  0  0  0  0  0  0
  185.9510  177.6980  135.7270 C   0  0  0  0  0  3  0  0  0  0  0  0
  184.7720  177.2100  136.1220 C   0  0  0  0  0  0  0  0  0  0  0  0
  184.3060  177.0980  137.5360 C   0  0  0  0  0  0  0  0  0  0  0  0
  183.5820  176.0530  137.8760 C   0  0  0  0  0  0  0  0  0  0  0  0
  182.3470  174.8510  139.4050 F   0  0  0  0  0  0  0  0  0  0  0  0
  182.9030  174.9770  138.1740 C   0  0  0  0  0  0  0  0  0  0  0  0
  184.6740  178.0750  138.4850 O   0  0  0  0  0  0  0  0  0  0  0  0
  184.5170  180.3370  139.0060 O   0  0  0  0  0  0  0  0  0  0  0  0
  182.4720  179.1500  138.9460 C   0  0  0  0  0  1  0  0  0  0  0  0
  183.9510  179.2320  138.8200 C   0  0  0  0  0  0  0  0  0  0  0  0
  182.9550  173.8550  137.2880 N   0  0  0  0  0  2  0  0  0  0  0  0
  185.2270  172.9660  138.3040 O   0  0  0  0  0  0  0  0  0  0  0  0
  183.9980  171.5020  136.7580 O   0  0  0  0  0  0  0  0  0  0  0  0
  184.3950  172.9260  137.0540 S   0  0  0  0  0  0  0  0  0  0  0  0
  185.2970  173.5710  135.7190 N   0  0  0  0  0  2  0  0  0  0  0  0
  186.6180  173.9340  136.2140 C   0  0  0  0  0  2  0  0  0  0  0  0
  188.9070  174.5180  135.4020 C   0  0  0  0  0  1  0  0  0  0  0  0
  187.4260  174.5970  135.1070 C   0  0  0  0  0  2  0  0  0  0  0  0
  189.9940  178.2970  143.2040 N   0  0  0  0  0  2  0  0  0  0  0  0
  189.6160  177.5590  144.4060 C   0  0  2  0  0  3  0  0  0  0  0  0
  190.5640  176.4740  144.6760 N   0  0  0  0  0  2  0  0  0  0  0  0
  192.0630  175.5440  146.3960 C   0  0  0  0  0  2  0  0  0  0  0  0
  190.1690  177.0950  146.9990 C   0  0  0  0  0  2  0  0  0  0  0  0
  192.4730  175.5940  147.8790 C   0  0  0  0  0  2  0  0  0  0  0  0
  192.2540  176.9760  148.4990 C   0  0  0  0  0  2  0  0  0  0  0  0
  190.8010  177.4430  148.3600 C   0  0  0  0  0  2  0  0  0  0  0  0
  191.2240  176.7520  145.9450 C   0  0  0  0  0  3  0  0  0  0  0  0
  188.1640  177.0590  144.2920 C   0  0  0  0  0  2  0  0  0  0  0  0
  184.6160  178.4570  146.2460 C   0  0  0  0  0  2  0  0  0  0  0  0
  185.8680  178.1360  144.0930 C   0  0  0  0  0  2  0  0  0  0  0  0
  187.1040  177.9360  144.9810 C   0  0  1  0  0  3  0  0  0  0  0  0
  185.9770  178.3230  146.9200 C   0  0  0  0  0  2  0  0  0  0  0  0
  184.8220  178.9800  144.8280 C   0  0  0  0  0  2  0  0  0  0  0  0
  186.7530  177.3700  146.2280 O   0  0  0  0  0  0  0  0  0  0  0  0
  1 10  1  6  0  0  0
  1  3  1  0  0  0  0
  1  7  1  0  0  0  0
  1  5  1  0  0  0  0
  2 32  1  0  0  0  0
  3  6  1  6  0  0  0
  3  7  1  0  0  0  0
  6  9  1  0  0  0  0
  7  5  1  1  0  0  0
  7  8  1  0  0  0  0
  8  4  1  0  0  0  0
  8  2  2  0  0  0  0
  9  4  2  0  0  0  0
 11 10  1  0  0  0  0
 12 11  2  0  0  0  0
 13 15  1  0  0  0  0
 14 15  2  0  0  0  0
 14 11  1  0  0  0  0
 15 16  1  0  0  0  0
 16 17  2  0  0  0  0
 16 20  1  0  0  0  0
 17 19  2  0  0  0  0
 19 18  1  0  0  0  0
 20 23  1  0  0  0  0
 23 22  1  0  0  0  0
 23 21  2  0  0  0  0
 24 19  1  0  0  0  0
 26 27  2  0  0  0  0
 27 24  1  0  0  0  0
 27 25  2  0  0  0  0
 28 29  1  0  0  0  0
 28 27  1  0  0  0  0
 31 30  1  0  0  0  0
 31 29  1  0  0  0  0
 32 33  1  0  0  0  0
 33 41  1  6  0  0  0
 33 34  1  0  0  0  0
 34 40  1  0  0  0  0
 35 37  1  0  0  0  0
 36 39  1  0  0  0  0
 37 38  1  0  0  0  0
 39 38  1  0  0  0  0
 40 35  1  0  0  0  0
 40 36  1  0  0  0  0
 42 45  1  0  0  0  0
 43 46  1  0  0  0  0
 43 44  1  0  0  0  0
 44 41  1  6  0  0  0
 44 47  1  0  0  0  0
 46 42  1  0  0  0  0
 47 45  1  0  0  0  0
M  END
>  <MODEL>
1

>  <REMARK>
 VINA RESULT:      -7.3      0.000      0.000
  Name = 
  16 active torsions:
  status: ('A' for Active; 'I' for Inactive)
    1  A    between atoms: N_1  and  C_31
    2  A    between atoms: N_1  and  S_37
    3  A    between atoms: C_4  and  O_43
    4  A    between atoms: C_4  and  C_46
    5  A    between atoms: C_7  and  N_20
    6  A    between atoms: N_9  and  C_27
    7  A    between atoms: N_9  and  S_37
    8  A    between atoms: C_10  and  N_39
    9  A    between atoms: C_18  and  C_22
   10  A    between atoms: C_22  and  C_26
   11  A    between atoms: C_24  and  C_32
   12  A    between atoms: C_26  and  N_29
   13  A    between atoms: C_26  and  N_39
   14  A    between atoms: C_27  and  C_36
   15  A    between atoms: N_29  and  C_44
   16  A    between atoms: O_43  and  C_47
                            x       y       z     vdW  Elec       q    Type
                         _______ _______ _______ _____ _____    ______ ____

>  <TORSDO>
F 16

$$$$
=
 OpenBabel11062417283D

 47 51  0  0  1  0  0  0  0  0999 V2000
  187.8270  177.8260  137.4120 C   0  0  2  0  0  0  0  0  0  0  0  0
  188.3220  178.2510  140.9840 C   0  0  0  0  0  3  0  0  0  0  0  0
  189.2370  177.5520  137.7800 C   0  0  2  0  0  3  0  0  0  0  0  0
  190.1240  176.8580  140.1780 N   0  0  0  0  0  0  0  0  0  0  0  0
  186.9370  178.0430  138.5590 N   0  0  0  0  0  2  0  0  0  0  0  0
  190.0310  176.2530  137.7980 C   0  0  0  0  0  2  0  0  0  0  0  0
  188.0990  177.1620  138.7270 C   0  0  1  0  0  0  0  0  0  0  0  0
  188.8470  177.5170  139.9990 C   0  0  0  0  0  0  0  0  0  0  0  0
  190.6920  176.2370  139.1690 C   0  0  0  0  0  3  0  0  0  0  0  0
  187.2670  176.8370  136.4960 N   0  0  0  0  0  2  0  0  0  0  0  0
  186.1680  177.1600  135.6360 C   0  0  0  0  0  0  0  0  0  0  0  0
  185.8240  178.3610  135.4870 O   0  0  0  0  0  0  0  0  0  0  0  0
  183.7970  174.3360  134.5940 C   0  0  0  0  0  1  0  0  0  0  0  0
  185.3350  176.1160  135.0180 C   0  0  0  0  0  3  0  0  0  0  0  0
  184.5710  175.1700  135.5720 C   0  0  0  0  0  0  0  0  0  0  0  0
  184.5430  174.8130  137.0220 C   0  0  0  0  0  0  0  0  0  0  0  0
  183.8160  175.5490  137.8340 C   0  0  0  0  0  0  0  0  0  0  0  0
  183.0510  176.1000  139.9360 F   0  0  0  0  0  0  0  0  0  0  0  0
  183.0470  176.2840  138.5920 C   0  0  0  0  0  0  0  0  0  0  0  0
  185.2510  173.6860  137.4890 O   0  0  0  0  0  0  0  0  0  0  0  0
  185.8850  171.9070  136.1290 O   0  0  0  0  0  0  0  0  0  0  0  0
  187.6190  173.3840  136.7700 C   0  0  0  0  0  1  0  0  0  0  0  0
  186.2010  172.9370  136.7740 C   0  0  0  0  0  0  0  0  0  0  0  0
  182.0460  177.1030  137.9810 N   0  0  0  0  0  2  0  0  0  0  0  0
  181.8110  179.7270  138.1980 O   0  0  0  0  0  0  0  0  0  0  0  0
  179.8220  178.3450  138.6270 O   0  0  0  0  0  0  0  0  0  0  0  0
  181.3160  178.4410  138.7990 S   0  0  0  0  0  0  0  0  0  0  0  0
  181.7150  178.3820  140.4870 N   0  0  0  0  0  2  0  0  0  0  0  0
  180.4660  178.3650  141.2350 C   0  0  0  0  0  2  0  0  0  0  0  0
  180.2250  178.7560  143.6900 C   0  0  0  0  0  1  0  0  0  0  0  0
  180.5110  179.3990  142.3510 C   0  0  0  0  0  2  0  0  0  0  0  0
  189.0670  178.5320  142.1680 N   0  0  0  0  0  2  0  0  0  0  0  0
  188.7970  177.8730  143.4430 C   0  0  2  0  0  3  0  0  0  0  0  0
  189.8320  176.8830  143.7520 N   0  0  0  0  0  2  0  0  0  0  0  0
  191.5150  176.2240  145.4280 C   0  0  0  0  0  2  0  0  0  0  0  0
  189.1980  176.9570  146.1040 C   0  0  0  0  0  2  0  0  0  0  0  0
  191.8490  176.1640  146.9290 C   0  0  0  0  0  2  0  0  0  0  0  0
  191.1680  177.2810  147.7250 C   0  0  0  0  0  2  0  0  0  0  0  0
  189.6460  177.2660  147.5450 C   0  0  0  0  0  2  0  0  0  0  0  0
  190.3320  177.1510  145.0950 C   0  0  0  0  0  3  0  0  0  0  0  0
  187.3810  177.2670  143.4430 C   0  0  0  0  0  2  0  0  0  0  0  0
  183.6950  178.8250  144.9740 C   0  0  0  0  0  2  0  0  0  0  0  0
  185.0610  178.1950  142.9640 C   0  0  0  0  0  2  0  0  0  0  0  0
  186.2590  178.2030  143.9240 C   0  0  1  0  0  3  0  0  0  0  0  0
  185.0250  178.8670  145.7170 C   0  0  0  0  0  2  0  0  0  0  0  0
  183.9520  179.1050  143.4970 C   0  0  0  0  0  2  0  0  0  0  0  0
  185.8670  177.8440  145.2350 O   0  0  0  0  0  0  0  0  0  0  0  0
  1 10  1  6  0  0  0
  1  3  1  0  0  0  0
  1  5  1  0  0  0  0
  1  7  1  0  0  0  0
  2 32  1  0  0  0  0
  3  6  1  6  0  0  0
  3  7  1  0  0  0  0
  6  9  1  0  0  0  0
  7  5  1  1  0  0  0
  7  8  1  0  0  0  0
  8  4  1  0  0  0  0
  8  2  2  0  0  0  0
  9  4  2  0  0  0  0
 11 10  1  0  0  0  0
 12 11  2  0  0  0  0
 13 15  1  0  0  0  0
 14 15  2  0  0  0  0
 14 11  1  0  0  0  0
 15 16  1  0  0  0  0
 16 20  1  0  0  0  0
 16 17  2  0  0  0  0
 17 19  2  0  0  0  0
 19 18  1  0  0  0  0
 21 23  2  0  0  0  0
 22 23  1  0  0  0  0
 23 20  1  0  0  0  0
 24 19  1  0  0  0  0
 24 27  1  0  0  0  0
 25 27  2  0  0  0  0
 26 27  2  0  0  0  0
 27 28  1  0  0  0  0
 28 29  1  0  0  0  0
 29 31  1  0  0  0  0
 31 30  1  0  0  0  0
 32 33  1  0  0  0  0
 33 41  1  6  0  0  0
 33 34  1  0  0  0  0
 34 40  1  0  0  0  0
 35 37  1  0  0  0  0
 36 39  1  0  0  0  0
 37 38  1  0  0  0  0
 39 38  1  0  0  0  0
 40 35  1  0  0  0  0
 40 36  1  0  0  0  0
 42 45  1  0  0  0  0
 43 46  1  0  0  0  0
 43 44  1  0  0  0  0
 44 41  1  6  0  0  0
 44 47  1  0  0  0  0
 46 42  1  0  0  0  0
 47 45  1  0  0  0  0
M  END
>  <MODEL>
2

>  <REMARK>
 VINA RESULT:      -7.1      2.215      4.371
  Name = 
  16 active torsions:
  status: ('A' for Active; 'I' for Inactive)
    1  A    between atoms: N_1  and  C_31
    2  A    between atoms: N_1  and  S_37
    3  A    between atoms: C_4  and  O_43
    4  A    between atoms: C_4  and  C_46
    5  A    between atoms: C_7  and  N_20
    6  A    between atoms: N_9  and  C_27
    7  A    between atoms: N_9  and  S_37
    8  A    between atoms: C_10  and  N_39
    9  A    between atoms: C_18  and  C_22
   10  A    between atoms: C_22  and  C_26
   11  A    between atoms: C_24  and  C_32
   12  A    between atoms: C_26  and  N_29
   13  A    between atoms: C_26  and  N_39
   14  A    between atoms: C_27  and  C_36
   15  A    between atoms: N_29  and  C_44
   16  A    between atoms: O_43  and  C_47
                            x       y       z     vdW  Elec       q    Type
                         _______ _______ _______ _____ _____    ______ ____

>  <TORSDO>
F 16

$$$$
=
 OpenBabel11062417283D

 47 51  0  0  1  0  0  0  0  0999 V2000
  188.7180  177.0350  139.5000 C   0  0  2  0  0  0  0  0  0  0  0  0
  186.1990  177.5470  136.9340 C   0  0  0  0  0  3  0  0  0  0  0  0
  189.2020  176.5430  138.1870 C   0  0  2  0  0  3  0  0  0  0  0  0
  188.3230  177.3060  135.8060 N   0  0  0  0  0  0  0  0  0  0  0  0
  187.4340  177.7430  139.4400 N   0  0  0  0  0  2  0  0  0  0  0  0
  190.2900  177.0710  137.2610 C   0  0  0  0  0  2  0  0  0  0  0  0
  188.3180  177.7900  138.2690 C   0  0  1  0  0  0  0  0  0  0  0  0
  187.5320  177.4890  137.0050 C   0  0  0  0  0  0  0  0  0  0  0  0
  189.6220  177.1310  135.8940 C   0  0  0  0  0  3  0  0  0  0  0  0
  189.7140  177.8170  140.2250 N   0  0  0  0  0  2  0  0  0  0  0  0
  190.3150  177.3210  141.4270 C   0  0  0  0  0  0  0  0  0  0  0  0
  190.1700  176.1130  141.7450 O   0  0  0  0  0  0  0  0  0  0  0  0
  191.9030  179.2440  144.3370 C   0  0  0  0  0  1  0  0  0  0  0  0
  190.9910  178.2150  142.3810 C   0  0  0  0  0  3  0  0  0  0  0  0
  191.0210  178.2000  143.7170 C   0  0  0  0  0  0  0  0  0  0  0  0
  190.1690  177.3460  144.5970 C   0  0  0  0  0  0  0  0  0  0  0  0
  188.8680  177.3470  144.4020 C   0  0  0  0  0  0  0  0  0  0  0  0
  186.7320  176.6930  144.9630 F   0  0  0  0  0  0  0  0  0  0  0  0
  187.5880  177.3510  144.1410 C   0  0  0  0  0  0  0  0  0  0  0  0
  190.7620  176.5300  145.5850 O   0  0  0  0  0  0  0  0  0  0  0  0
  191.9760  176.6890  147.5630 O   0  0  0  0  0  0  0  0  0  0  0  0
  189.7040  177.3350  147.6950 C   0  0  0  0  0  1  0  0  0  0  0  0
  190.8880  176.8280  146.9520 C   0  0  0  0  0  0  0  0  0  0  0  0
  187.1370  177.8430  142.8770 N   0  0  0  0  0  2  0  0  0  0  0  0
  185.7510  179.8070  141.7770 O   0  0  0  0  0  0  0  0  0  0  0  0
  184.6540  177.6220  142.0440 O   0  0  0  0  0  0  0  0  0  0  0  0
  185.6000  178.6120  142.6750 S   0  0  0  0  0  0  0  0  0  0  0  0
  184.9860  179.1040  144.2220 N   0  0  0  0  0  2  0  0  0  0  0  0
  183.7100  179.7700  143.9970 C   0  0  0  0  0  2  0  0  0  0  0  0
  181.4120  178.9920  143.4050 C   0  0  0  0  0  1  0  0  0  0  0  0
  182.5640  178.8410  144.3730 C   0  0  0  0  0  2  0  0  0  0  0  0
  185.5170  177.2760  135.7100 N   0  0  0  0  0  2  0  0  0  0  0  0
  184.3410  176.4140  135.6390 C   0  0  2  0  0  3  0  0  0  0  0  0
  184.5600  175.3010  134.7110 N   0  0  0  0  0  2  0  0  0  0  0  0
  182.8300  173.7590  135.5470 C   0  0  0  0  0  2  0  0  0  0  0  0
  184.9690  174.1560  136.8230 C   0  0  0  0  0  2  0  0  0  0  0  0
  182.4870  172.6960  136.6070 C   0  0  0  0  0  2  0  0  0  0  0  0
  183.7210  171.9220  137.0790 C   0  0  0  0  0  2  0  0  0  0  0  0
  184.8050  172.8540  137.6300 C   0  0  0  0  0  2  0  0  0  0  0  0
  184.3360  174.0550  135.4340 C   0  0  0  0  0  3  0  0  0  0  0  0
  183.0920  177.2410  135.2840 C   0  0  0  0  0  2  0  0  0  0  0  0
  181.1010  178.5190  138.8560 C   0  0  0  0  0  2  0  0  0  0  0  0
  182.5760  176.8210  137.7390 C   0  0  0  0  0  2  0  0  0  0  0  0
  182.0740  177.4290  136.4210 C   0  0  1  0  0  3  0  0  0  0  0  0
  180.6690  178.8980  137.4440 C   0  0  0  0  0  2  0  0  0  0  0  0
  181.5540  177.0630  138.8540 C   0  0  0  0  0  2  0  0  0  0  0  0
  181.7730  178.8020  136.5720 O   0  0  0  0  0  0  0  0  0  0  0  0
  1 10  1  1  0  0  0
  2  8  2  0  0  0  0
  3  6  1  1  0  0  0
  3  7  1  0  0  0  0
  3  1  1  0  0  0  0
  4  9  2  0  0  0  0
  4  8  1  0  0  0  0
  5  1  1  0  0  0  0
  7  8  1  6  0  0  0
  7  5  1  0  0  0  0
  7  1  1  0  0  0  0
  9  6  1  0  0  0  0
 10 11  1  0  0  0  0
 11 12  2  0  0  0  0
 11 14  1  0  0  0  0
 14 15  2  0  0  0  0
 15 13  1  0  0  0  0
 15 16  1  0  0  0  0
 16 20  1  0  0  0  0
 17 16  2  0  0  0  0
 19 17  2  0  0  0  0
 19 18  1  0  0  0  0
 20 23  1  0  0  0  0
 23 21  2  0  0  0  0
 23 22  1  0  0  0  0
 24 19  1  0  0  0  0
 25 27  2  0  0  0  0
 26 27  2  0  0  0  0
 27 24  1  0  0  0  0
 27 28  1  0  0  0  0
 29 28  1  0  0  0  0
 29 31  1  0  0  0  0
 30 31  1  0  0  0  0
 32  2  1  0  0  0  0
 33 41  1  6  0  0  0
 33 32  1  0  0  0  0
 34 40  1  0  0  0  0
 34 33  1  0  0  0  0
 35 37  1  0  0  0  0
 36 39  1  0  0  0  0
 37 38  1  0  0  0  0
 38 39  1  0  0  0  0
 40 35  1  0  0  0  0
 40 36  1  0  0  0  0
 43 46  1  0  0  0  0
 44 41  1  6  0  0  0
 44 47  1  0  0  0  0
 44 43  1  0  0  0  0
 45 42  1  0  0  0  0
 46 42  1  0  0  0  0
 47 45  1  0  0  0  0
M  END
>  <MODEL>
3

>  <REMARK>
 VINA RESULT:      -7.1      3.023      9.349
  Name = 
  16 active torsions:
  status: ('A' for Active; 'I' for Inactive)
    1  A    between atoms: N_1  and  C_31
    2  A    between atoms: N_1  and  S_37
    3  A    between atoms: C_4  and  O_43
    4  A    between atoms: C_4  and  C_46
    5  A    between atoms: C_7  and  N_20
    6  A    between atoms: N_9  and  C_27
    7  A    between atoms: N_9  and  S_37
    8  A    between atoms: C_10  and  N_39
    9  A    between atoms: C_18  and  C_22
   10  A    between atoms: C_22  and  C_26
   11  A    between atoms: C_24  and  C_32
   12  A    between atoms: C_26  and  N_29
   13  A    between atoms: C_26  and  N_39
   14  A    between atoms: C_27  and  C_36
   15  A    between atoms: N_29  and  C_44
   16  A    between atoms: O_43  and  C_47
                            x       y       z     vdW  Elec       q    Type
                         _______ _______ _______ _____ _____    ______ ____

>  <TORSDO>
F 16

$$$$
=
 OpenBabel11062417283D

 47 51  0  0  1  0  0  0  0  0999 V2000
  188.0500  177.7940  137.4310 C   0  0  2  0  0  0  0  0  0  0  0  0
  188.6140  178.1160  141.0040 C   0  0  0  0  0  3  0  0  0  0  0  0
  189.4700  177.5230  137.7630 C   0  0  2  0  0  3  0  0  0  0  0  0
  190.4120  176.7650  140.1200 N   0  0  0  0  0  0  0  0  0  0  0  0
  187.1820  177.9680  138.6010 N   0  0  0  0  0  2  0  0  0  0  0  0
  190.2770  176.2320  137.7250 C   0  0  0  0  0  2  0  0  0  0  0  0
  188.3560  177.0940  138.7200 C   0  0  1  0  0  0  0  0  0  0  0  0
  189.1260  177.4170  139.9870 C   0  0  0  0  0  0  0  0  0  0  0  0
  190.9650  176.1810  139.0820 C   0  0  0  0  0  3  0  0  0  0  0  0
  187.4820  176.8280  136.4970 N   0  0  0  0  0  2  0  0  0  0  0  0
  186.3500  177.1590  135.6840 C   0  0  0  0  0  0  0  0  0  0  0  0
  185.9770  178.3570  135.5910 O   0  0  0  0  0  0  0  0  0  0  0  0
  183.9270  174.3970  134.5950 C   0  0  0  0  0  1  0  0  0  0  0  0
  185.5170  176.1210  135.0540 C   0  0  0  0  0  3  0  0  0  0  0  0
  184.6560  175.2510  135.5900 C   0  0  0  0  0  0  0  0  0  0  0  0
  184.4800  174.9880  137.0500 C   0  0  0  0  0  0  0  0  0  0  0  0
  183.9950  175.9480  137.8060 C   0  0  0  0  0  0  0  0  0  0  0  0
  183.3810  176.8040  139.8540 F   0  0  0  0  0  0  0  0  0  0  0  0
  183.4700  176.9190  138.5050 C   0  0  0  0  0  0  0  0  0  0  0  0
  184.7940  173.7200  137.5850 O   0  0  0  0  0  0  0  0  0  0  0  0
  186.8330  172.7010  138.0520 O   0  0  0  0  0  0  0  0  0  0  0  0
  185.9450  172.2900  135.8970 C   0  0  0  0  0  1  0  0  0  0  0  0
  185.8950  172.9160  137.2450 C   0  0  0  0  0  0  0  0  0  0  0  0
  182.7870  177.9750  137.8250 N   0  0  0  0  0  2  0  0  0  0  0  0
  180.5270  177.3120  139.0250 O   0  0  0  0  0  0  0  0  0  0  0  0
  180.8070  179.6410  138.2880 O   0  0  0  0  0  0  0  0  0  0  0  0
  181.0750  178.1990  137.9430 S   0  0  0  0  0  0  0  0  0  0  0  0
  180.3300  177.8130  136.4240 N   0  0  0  0  0  2  0  0  0  0  0  0
  181.1200  176.7600  135.8000 C   0  0  0  0  0  2  0  0  0  0  0  0
  180.5070  174.3620  136.1360 C   0  0  0  0  0  1  0  0  0  0  0  0
  180.2110  175.6220  135.3540 C   0  0  0  0  0  2  0  0  0  0  0  0
  189.3810  178.3690  142.1810 N   0  0  0  0  0  2  0  0  0  0  0  0
  189.0720  177.7520  143.4680 C   0  0  2  0  0  3  0  0  0  0  0  0
  190.0660  176.7300  143.8120 N   0  0  0  0  0  2  0  0  0  0  0  0
  191.6540  176.0040  145.5500 C   0  0  0  0  0  2  0  0  0  0  0  0
  189.3730  176.9020  146.1420 C   0  0  0  0  0  2  0  0  0  0  0  0
  191.9420  175.9580  147.0620 C   0  0  0  0  0  2  0  0  0  0  0  0
  191.3140  177.1350  147.8120 C   0  0  0  0  0  2  0  0  0  0  0  0
  189.8010  177.2150  147.5890 C   0  0  0  0  0  2  0  0  0  0  0  0
  190.5450  176.9970  145.1620 C   0  0  0  0  0  3  0  0  0  0  0  0
  187.6350  177.2010  143.4670 C   0  0  0  0  0  2  0  0  0  0  0  0
  184.0170  178.8130  145.1030 C   0  0  0  0  0  2  0  0  0  0  0  0
  185.3860  178.3180  143.0570 C   0  0  0  0  0  2  0  0  0  0  0  0
  186.5610  178.1480  144.0300 C   0  0  1  0  0  3  0  0  0  0  0  0
  185.3320  178.6910  145.8660 C   0  0  0  0  0  2  0  0  0  0  0  0
  184.3230  179.2340  143.6690 C   0  0  0  0  0  2  0  0  0  0  0  0
  186.1200  177.6760  145.2880 O   0  0  0  0  0  0  0  0  0  0  0  0
  1 10  1  6  0  0  0
  1  3  1  0  0  0  0
  1  5  1  0  0  0  0
  1  7  1  0  0  0  0
  2 32  1  0  0  0  0
  3  6  1  6  0  0  0
  3  7  1  0  0  0  0
  6  9  1  0  0  0  0
  7  5  1  1  0  0  0
  7  8  1  0  0  0  0
  8  4  1  0  0  0  0
  8  2  2  0  0  0  0
  9  4  2  0  0  0  0
 11 10  1  0  0  0  0
 12 11  2  0  0  0  0
 13 15  1  0  0  0  0
 14 15  2  0  0  0  0
 14 11  1  0  0  0  0
 15 16  1  0  0  0  0
 16 20  1  0  0  0  0
 16 17  2  0  0  0  0
 17 19  2  0  0  0  0
 19 18  1  0  0  0  0
 22 23  1  0  0  0  0
 23 20  1  0  0  0  0
 23 21  2  0  0  0  0
 24 27  1  0  0  0  0
 24 19  1  0  0  0  0
 27 26  2  0  0  0  0
 27 25  2  0  0  0  0
 28 27  1  0  0  0  0
 29 28  1  0  0  0  0
 31 29  1  0  0  0  0
 31 30  1  0  0  0  0
 32 33  1  0  0  0  0
 33 41  1  6  0  0  0
 33 34  1  0  0  0  0
 34 40  1  0  0  0  0
 35 37  1  0  0  0  0
 36 39  1  0  0  0  0
 37 38  1  0  0  0  0
 39 38  1  0  0  0  0
 40 35  1  0  0  0  0
 40 36  1  0  0  0  0
 42 45  1  0  0  0  0
 43 46  1  0  0  0  0
 43 44  1  0  0  0  0
 44 41  1  6  0  0  0
 44 47  1  0  0  0  0
 46 42  1  0  0  0  0
 47 45  1  0  0  0  0
M  END
>  <MODEL>
4

>  <REMARK>
 VINA RESULT:      -6.5      2.104      3.716
  Name = 
  16 active torsions:
  status: ('A' for Active; 'I' for Inactive)
    1  A    between atoms: N_1  and  C_31
    2  A    between atoms: N_1  and  S_37
    3  A    between atoms: C_4  and  O_43
    4  A    between atoms: C_4  and  C_46
    5  A    between atoms: C_7  and  N_20
    6  A    between atoms: N_9  and  C_27
    7  A    between atoms: N_9  and  S_37
    8  A    between atoms: C_10  and  N_39
    9  A    between atoms: C_18  and  C_22
   10  A    between atoms: C_22  and  C_26
   11  A    between atoms: C_24  and  C_32
   12  A    between atoms: C_26  and  N_29
   13  A    between atoms: C_26  and  N_39
   14  A    between atoms: C_27  and  C_36
   15  A    between atoms: N_29  and  C_44
   16  A    between atoms: O_43  and  C_47
                            x       y       z     vdW  Elec       q    Type
                         _______ _______ _______ _____ _____    ______ ____

>  <TORSDO>
F 16

$$$$
=
 OpenBabel11062417283D

 47 51  0  0  1  0  0  0  0  0999 V2000
  185.5680  179.0520  142.1900 C   0  0  2  0  0  0  0  0  0  0  0  0
  182.7340  179.2990  139.9310 C   0  0  0  0  0  3  0  0  0  0  0  0
  184.3360  179.4130  142.9330 C   0  0  2  0  0  3  0  0  0  0  0  0
  181.8450  178.9630  142.1530 N   0  0  0  0  0  0  0  0  0  0  0  0
  185.3430  178.7280  140.7760 N   0  0  0  0  0  2  0  0  0  0  0  0
  183.5040  178.6210  143.9330 C   0  0  0  0  0  2  0  0  0  0  0  0
  184.2680  178.4580  141.7390 C   0  0  1  0  0  0  0  0  0  0  0  0
  182.9460  178.9850  141.2130 C   0  0  1  0  0  3  0  0  0  0  0  0
  182.0750  178.7710  143.4320 C   0  0  0  0  0  3  0  0  0  0  0  0
  186.3540  178.0130  142.8460 N   0  0  0  0  0  2  0  0  0  0  0  0
  187.7460  177.8410  142.5550 C   0  0  0  0  0  0  0  0  0  0  0  0
  188.3640  178.7270  141.9090 O   0  0  0  0  0  0  0  0  0  0  0  0
  190.1010  174.8970  143.2410 C   0  0  0  0  0  1  0  0  0  0  0  0
  188.4560  176.5900  142.8710 C   0  0  0  0  0  3  0  0  0  0  0  0
  189.7390  176.2540  142.7130 C   0  0  0  0  0  0  0  0  0  0  0  0
  190.7590  177.0410  141.9580 C   0  0  0  0  0  0  0  0  0  0  0  0
  190.7420  176.9920  140.6430 C   0  0  0  0  0  0  0  0  0  0  0  0
  191.6100  177.5380  138.5810 F   0  0  0  0  0  0  0  0  0  0  0  0
  190.6550  176.9440  139.3410 C   0  0  0  0  0  0  0  0  0  0  0  0
  191.6890  177.8460  142.6490 O   0  0  0  0  0  0  0  0  0  0  0  0
  191.8710  177.6620  144.9620 O   0  0  0  0  0  0  0  0  0  0  0  0
  191.0430  179.7270  144.1550 C   0  0  0  0  0  1  0  0  0  0  0  0
  191.5570  178.3450  143.9560 C   0  0  0  0  0  0  0  0  0  0  0  0
  189.4450  176.4770  138.7400 N   0  0  0  0  0  2  0  0  0  0  0  0
  187.9810  178.6740  138.6090 O   0  0  0  0  0  0  0  0  0  0  0  0
  189.2270  177.9900  136.6030 O   0  0  0  0  0  0  0  0  0  0  0  0
  188.4290  177.5000  137.7840 S   0  0  0  0  0  0  0  0  0  0  0  0
  187.0510  176.6030  137.2290 N   0  0  0  0  0  2  0  0  0  0  0  0
  185.9400  177.5360  137.1030 C   0  0  0  0  0  2  0  0  0  0  0  0
  184.6090  175.6600  136.1310 C   0  0  0  0  0  1  0  0  0  0  0  0
  184.6190  176.7810  137.1460 C   0  0  0  0  0  2  0  0  0  0  0  0
  181.4610  179.7690  139.4910 N   0  0  0  0  0  0  0  0  0  0  0  0
  181.2340  180.2790  138.1420 C   0  0  2  0  0  3  0  0  0  0  0  0
  179.9310  180.9430  138.0450 N   0  0  0  0  0  2  0  0  0  0  0  0
  180.2460  182.0440  135.8630 C   0  0  0  0  0  2  0  0  0  0  0  0
  181.3780  182.9010  137.9470 C   0  0  0  0  0  2  0  0  0  0  0  0
  180.8290  183.2710  135.1370 C   0  0  0  0  0  2  0  0  0  0  0  0
  180.8470  184.5200  136.0220 C   0  0  0  0  0  2  0  0  0  0  0  0
  181.6200  184.2890  137.3240 C   0  0  0  0  0  2  0  0  0  0  0  0
  180.1230  182.2290  137.3860 C   0  0  0  0  0  3  0  0  0  0  0  0
  181.4000  179.1510  137.1080 C   0  0  0  0  0  2  0  0  0  0  0  0
  179.8730  175.1480  137.0350 C   0  0  0  0  0  2  0  0  0  0  0  0
  179.6960  177.5030  136.1830 C   0  0  0  0  0  2  0  0  0  0  0  0
  180.5840  177.8760  137.3790 C   0  0  1  0  0  3  0  0  0  0  0  0
  180.6570  175.7530  138.1950 C   0  0  0  0  0  2  0  0  0  0  0  0
  178.9310  176.2100  136.4760 C   0  0  0  0  0  2  0  0  0  0  0  0
  181.4540  176.8150  137.7210 O   0  0  0  0  0  0  0  0  0  0  0  0
  1 10  1  1  0  0  0
  1  3  1  0  0  0  0
  3  6  1  1  0  0  0
  4  9  2  0  0  0  0
  5  1  1  0  0  0  0
  7  5  1  6  0  0  0
  7  1  1  0  0  0  0
  7  3  1  0  0  0  0
  8  2  1  6  0  0  0
  8  7  1  0  0  0  0
  8  4  1  0  0  0  0
  9  6  1  0  0  0  0
 11 10  1  0  0  0  0
 11 14  1  0  0  0  0
 12 11  2  0  0  0  0
 15 14  2  0  0  0  0
 15 13  1  0  0  0  0
 16 20  1  0  0  0  0
 16 15  1  0  0  0  0
 17 16  2  0  0  0  0
 18 19  1  0  0  0  0
 19 17  2  0  0  0  0
 20 23  1  0  0  0  0
 23 22  1  0  0  0  0
 23 21  2  0  0  0  0
 24 19  1  0  0  0  0
 26 27  2  0  0  0  0
 27 25  2  0  0  0  0
 27 24  1  0  0  0  0
 28 27  1  0  0  0  0
 29 31  1  0  0  0  0
 29 28  1  0  0  0  0
 30 31  1  0  0  0  0
 32  2  2  0  0  0  0
 33 41  1  6  0  0  0
 33 32  1  0  0  0  0
 34 33  1  0  0  0  0
 35 40  1  0  0  0  0
 37 35  1  0  0  0  0
 37 38  1  0  0  0  0
 38 39  1  0  0  0  0
 39 36  1  0  0  0  0
 40 36  1  0  0  0  0
 40 34  1  0  0  0  0
 42 45  1  0  0  0  0
 43 46  1  0  0  0  0
 43 44  1  0  0  0  0
 44 41  1  6  0  0  0
 44 47  1  0  0  0  0
 46 42  1  0  0  0  0
 47 45  1  0  0  0  0
M  END
>  <MODEL>
5

>  <REMARK>
 VINA RESULT:      -6.4      3.917      9.778
  Name = 
  16 active torsions:
  status: ('A' for Active; 'I' for Inactive)
    1  A    between atoms: N_1  and  C_31
    2  A    between atoms: N_1  and  S_37
    3  A    between atoms: C_4  and  O_43
    4  A    between atoms: C_4  and  C_46
    5  A    between atoms: C_7  and  N_20
    6  A    between atoms: N_9  and  C_27
    7  A    between atoms: N_9  and  S_37
    8  A    between atoms: C_10  and  N_39
    9  A    between atoms: C_18  and  C_22
   10  A    between atoms: C_22  and  C_26
   11  A    between atoms: C_24  and  C_32
   12  A    between atoms: C_26  and  N_29
   13  A    between atoms: C_26  and  N_39
   14  A    between atoms: C_27  and  C_36
   15  A    between atoms: N_29  and  C_44
   16  A    between atoms: O_43  and  C_47
                            x       y       z     vdW  Elec       q    Type
                         _______ _______ _______ _____ _____    ______ ____

>  <TORSDO>
F 16

$$$$
=
 OpenBabel11062417283D

 47 51  0  0  1  0  0  0  0  0999 V2000
  185.6780  179.0260  142.1820 C   0  0  2  0  0  0  0  0  0  0  0  0
  182.6250  179.1340  140.2190 C   0  0  0  0  0  3  0  0  0  0  0  0
  184.5370  179.4770  143.0150 C   0  0  2  0  0  3  0  0  0  0  0  0
  181.9720  179.0130  142.5420 N   0  0  0  0  0  0  0  0  0  0  0  0
  185.3010  178.5840  140.8340 N   0  0  0  0  0  2  0  0  0  0  0  0
  183.8060  178.7940  144.1630 C   0  0  0  0  0  2  0  0  0  0  0  0
  184.3310  178.4220  141.9250 C   0  0  1  0  0  0  0  0  0  0  0  0
  182.9670  178.9290  141.4940 C   0  0  1  0  0  3  0  0  0  0  0  0
  182.3330  178.9290  143.8020 C   0  0  0  0  0  3  0  0  0  0  0  0
  186.5180  178.0320  142.8430 N   0  0  0  0  0  2  0  0  0  0  0  0
  187.8590  177.7840  142.4050 C   0  0  0  0  0  0  0  0  0  0  0  0
  188.4100  178.5790  141.6000 O   0  0  0  0  0  0  0  0  0  0  0  0
  190.2310  174.8860  143.2150 C   0  0  0  0  0  1  0  0  0  0  0  0
  188.5750  176.5480  142.7610 C   0  0  0  0  0  3  0  0  0  0  0  0
  189.8690  176.2320  142.6610 C   0  0  0  0  0  0  0  0  0  0  0  0
  190.9070  177.0310  141.9430 C   0  0  0  0  0  0  0  0  0  0  0  0
  191.0110  176.8960  140.6390 C   0  0  0  0  0  0  0  0  0  0  0  0
  192.0300  177.3590  138.6250 F   0  0  0  0  0  0  0  0  0  0  0  0
  191.0460  176.7580  139.3400 C   0  0  0  0  0  0  0  0  0  0  0  0
  191.7240  177.9360  142.6540 O   0  0  0  0  0  0  0  0  0  0  0  0
  191.8170  177.7320  144.9700 O   0  0  0  0  0  0  0  0  0  0  0  0
  190.9160  179.7600  144.1500 C   0  0  0  0  0  1  0  0  0  0  0  0
  191.5100  178.4110  143.9590 C   0  0  0  0  0  0  0  0  0  0  0  0
  189.9220  176.1780  138.6720 N   0  0  0  0  0  2  0  0  0  0  0  0
  191.1530  175.8560  136.3550 O   0  0  0  0  0  0  0  0  0  0  0  0
  190.4780  173.8450  137.5980 O   0  0  0  0  0  0  0  0  0  0  0  0
  190.0850  175.2500  137.2210 S   0  0  0  0  0  0  0  0  0  0  0  0
  188.5730  175.2260  136.3700 N   0  0  0  0  0  2  0  0  0  0  0  0
  187.5510  175.7400  137.2720 C   0  0  0  0  0  2  0  0  0  0  0  0
  186.2010  177.1790  135.7400 C   0  0  0  0  0  1  0  0  0  0  0  0
  186.2290  175.8900  136.5310 C   0  0  0  0  0  2  0  0  0  0  0  0
  181.3170  179.5900  139.8740 N   0  0  0  0  0  0  0  0  0  0  0  0
  180.7990  179.5340  138.5100 C   0  0  2  0  0  3  0  0  0  0  0  0
  181.8820  179.3160  137.5460 N   0  0  0  0  0  2  0  0  0  0  0  0
  180.2510  177.4920  137.2570 C   0  0  0  0  0  2  0  0  0  0  0  0
  182.7290  177.0960  137.0080 C   0  0  0  0  0  2  0  0  0  0  0  0
  180.0520  176.0290  136.8180 C   0  0  0  0  0  2  0  0  0  0  0  0
  181.0600  175.5980  135.7490 C   0  0  0  0  0  2  0  0  0  0  0  0
  182.5070  175.7940  136.2130 C   0  0  0  0  0  2  0  0  0  0  0  0
  181.5910  178.0970  136.8020 C   0  0  0  0  0  3  0  0  0  0  0  0
  179.9750  180.7960  138.1980 C   0  0  0  0  0  2  0  0  0  0  0  0
  180.8660  184.2730  135.8580 C   0  0  0  0  0  2  0  0  0  0  0  0
  180.0930  181.8850  135.9010 C   0  0  0  0  0  2  0  0  0  0  0  0
  180.6770  181.8470  137.3210 C   0  0  1  0  0  3  0  0  0  0  0  0
  181.4570  183.9830  137.2340 C   0  0  0  0  0  2  0  0  0  0  0  0
  180.7900  182.9680  135.0730 C   0  0  0  0  0  2  0  0  0  0  0  0
  180.6000  183.1150  137.9410 O   0  0  0  0  0  0  0  0  0  0  0  0
  1 10  1  1  0  0  0
  1  3  1  0  0  0  0
  3  6  1  1  0  0  0
  4  9  2  0  0  0  0
  5  1  1  0  0  0  0
  7  5  1  6  0  0  0
  7  1  1  0  0  0  0
  7  3  1  0  0  0  0
  8  2  1  6  0  0  0
  8  7  1  0  0  0  0
  8  4  1  0  0  0  0
  9  6  1  0  0  0  0
 11 14  1  0  0  0  0
 11 10  1  0  0  0  0
 12 11  2  0  0  0  0
 15 14  2  0  0  0  0
 15 13  1  0  0  0  0
 16 20  1  0  0  0  0
 16 15  1  0  0  0  0
 17 16  2  0  0  0  0
 18 19  1  0  0  0  0
 19 17  2  0  0  0  0
 20 23  1  0  0  0  0
 23 22  1  0  0  0  0
 23 21  2  0  0  0  0
 24 19  1  0  0  0  0
 25 27  2  0  0  0  0
 27 26  2  0  0  0  0
 27 24  1  0  0  0  0
 28 27  1  0  0  0  0
 28 29  1  0  0  0  0
 30 31  1  0  0  0  0
 31 29  1  0  0  0  0
 32  2  2  0  0  0  0
 33 41  1  6  0  0  0
 33 32  1  0  0  0  0
 34 33  1  0  0  0  0
 37 35  1  0  0  0  0
 38 39  1  0  0  0  0
 38 37  1  0  0  0  0
 39 36  1  0  0  0  0
 40 36  1  0  0  0  0
 40 35  1  0  0  0  0
 40 34  1  0  0  0  0
 42 45  1  0  0  0  0
 43 44  1  0  0  0  0
 44 47  1  0  0  0  0
 44 41  1  1  0  0  0
 45 47  1  0  0  0  0
 46 42  1  0  0  0  0
 46 43  1  0  0  0  0
M  END
>  <MODEL>
6

>  <REMARK>
 VINA RESULT:      -6.3      3.935      9.533
  Name = 
  16 active torsions:
  status: ('A' for Active; 'I' for Inactive)
    1  A    between atoms: N_1  and  C_31
    2  A    between atoms: N_1  and  S_37
    3  A    between atoms: C_4  and  O_43
    4  A    between atoms: C_4  and  C_46
    5  A    between atoms: C_7  and  N_20
    6  A    between atoms: N_9  and  C_27
    7  A    between atoms: N_9  and  S_37
    8  A    between atoms: C_10  and  N_39
    9  A    between atoms: C_18  and  C_22
   10  A    between atoms: C_22  and  C_26
   11  A    between atoms: C_24  and  C_32
   12  A    between atoms: C_26  and  N_29
   13  A    between atoms: C_26  and  N_39
   14  A    between atoms: C_27  and  C_36
   15  A    between atoms: N_29  and  C_44
   16  A    between atoms: O_43  and  C_47
                            x       y       z     vdW  Elec       q    Type
                         _______ _______ _______ _____ _____    ______ ____

>  <TORSDO>
F 16

$$$$
=
 OpenBabel11062417283D

 47 51  0  0  1  0  0  0  0  0999 V2000
  186.6140  178.2560  137.9270 C   0  0  2  0  0  0  0  0  0  0  0  0
  183.2560  179.3400  138.7840 C   0  0  0  0  0  3  0  0  0  0  0  0
  186.6160  178.9980  139.2110 C   0  0  2  0  0  3  0  0  0  0  0  0
  184.5450  179.3390  140.8280 N   0  0  0  0  0  0  0  0  0  0  0  0
  185.2750  177.9940  137.3860 N   0  0  0  0  0  2  0  0  0  0  0  0
  186.8560  178.5250  140.6390 C   0  0  0  0  0  2  0  0  0  0  0  0
  185.4390  178.0910  138.8420 C   0  0  1  0  0  0  0  0  0  0  0  0
  184.3740  178.9980  139.4310 C   0  0  0  0  0  0  0  0  0  0  0  0
  185.6910  179.1070  141.4270 C   0  0  0  0  0  3  0  0  0  0  0  0
  187.4110  177.0340  137.9660 N   0  0  0  0  0  2  0  0  0  0  0  0
  188.6630  176.9430  137.2760 C   0  0  0  0  0  0  0  0  0  0  0  0
  189.2050  177.9850  136.8250 O   0  0  0  0  0  0  0  0  0  0  0  0
  190.7300  173.7510  136.8010 C   0  0  0  0  0  1  0  0  0  0  0  0
  189.2800  175.6450  136.9570 C   0  0  0  0  0  3  0  0  0  0  0  0
  190.5020  175.1720  137.2220 C   0  0  0  0  0  0  0  0  0  0  0  0
  191.6450  175.9690  137.7600 C   0  0  0  0  0  0  0  0  0  0  0  0
  191.5340  176.4940  138.9600 C   0  0  0  0  0  0  0  0  0  0  0  0
  192.3320  177.7860  140.6930 F   0  0  0  0  0  0  0  0  0  0  0  0
  191.3910  176.9580  140.1730 C   0  0  0  0  0  0  0  0  0  0  0  0
  192.8270  176.1130  137.0030 O   0  0  0  0  0  0  0  0  0  0  0  0
  194.5740  175.4720  138.4000 O   0  0  0  0  0  0  0  0  0  0  0  0
  194.7820  174.8340  136.1320 C   0  0  0  0  0  1  0  0  0  0  0  0
  194.0640  175.4940  137.2530 C   0  0  0  0  0  0  0  0  0  0  0  0
  190.3740  176.4050  141.0140 N   0  0  0  0  0  2  0  0  0  0  0  0
  191.3040  175.9940  143.4540 O   0  0  0  0  0  0  0  0  0  0  0  0
  190.5150  178.2510  142.8800 O   0  0  0  0  0  0  0  0  0  0  0  0
  190.2650  176.7750  142.7010 S   0  0  0  0  0  0  0  0  0  0  0  0
  188.6810  176.3750  143.2850 N   0  0  0  0  0  2  0  0  0  0  0  0
  188.2240  177.4830  144.1120 C   0  0  0  0  0  2  0  0  0  0  0  0
  186.7560  177.5680  146.1310 C   0  0  0  0  0  1  0  0  0  0  0  0
  186.8400  177.1810  144.6710 C   0  0  0  0  0  2  0  0  0  0  0  0
  182.2780  180.1780  139.3990 N   0  0  0  0  0  2  0  0  0  0  0  0
  180.8710  180.1620  139.0100 C   0  0  2  0  0  3  0  0  0  0  0  0
  180.6950  180.7000  137.6570 N   0  0  0  0  0  2  0  0  0  0  0  0
  179.1250  182.4460  136.9110 C   0  0  0  0  0  2  0  0  0  0  0  0
  181.5580  182.9550  137.3320 C   0  0  0  0  0  2  0  0  0  0  0  0
  178.9330  183.9530  136.6620 C   0  0  0  0  0  2  0  0  0  0  0  0
  179.7990  184.8130  137.5870 C   0  0  0  0  0  2  0  0  0  0  0  0
  181.2860  184.4660  137.4650 C   0  0  0  0  0  2  0  0  0  0  0  0
  180.3580  182.1130  137.7700 C   0  0  0  0  0  3  0  0  0  0  0  0
  180.0180  180.9030  140.0550 C   0  0  0  0  0  2  0  0  0  0  0  0
  180.0060  178.6280  143.6860 C   0  0  0  0  0  2  0  0  0  0  0  0
  180.0920  178.6200  141.1770 C   0  0  0  0  0  2  0  0  0  0  0  0
  179.5900  180.0680  141.2740 C   0  0  1  0  0  3  0  0  0  0  0  0
  179.4260  180.0310  143.5440 C   0  0  0  0  0  2  0  0  0  0  0  0
  179.6810  177.8340  142.4250 C   0  0  0  0  0  2  0  0  0  0  0  0
  180.0440  180.6890  142.4610 O   0  0  0  0  0  0  0  0  0  0  0  0
  1 10  1  6  0  0  0
  1  7  1  0  0  0  0
  1  3  1  0  0  0  0
  2 32  1  0  0  0  0
  2  8  2  0  0  0  0
  3  6  1  1  0  0  0
  4  9  2  0  0  0  0
  5  1  1  0  0  0  0
  6  9  1  0  0  0  0
  7  5  1  6  0  0  0
  7  3  1  0  0  0  0
  7  8  1  0  0  0  0
  8  4  1  0  0  0  0
 11 10  1  0  0  0  0
 12 11  2  0  0  0  0
 13 15  1  0  0  0  0
 14 15  2  0  0  0  0
 14 11  1  0  0  0  0
 15 16  1  0  0  0  0
 16 17  2  0  0  0  0
 17 19  2  0  0  0  0
 19 18  1  0  0  0  0
 19 24  1  0  0  0  0
 20 23  1  0  0  0  0
 20 16  1  0  0  0  0
 22 23  1  0  0  0  0
 23 21  2  0  0  0  0
 24 27  1  0  0  0  0
 27 26  2  0  0  0  0
 27 28  1  0  0  0  0
 27 25  2  0  0  0  0
 28 29  1  0  0  0  0
 29 31  1  0  0  0  0
 31 30  1  0  0  0  0
 33 32  1  0  0  0  0
 33 41  1  1  0  0  0
 34 40  1  0  0  0  0
 34 33  1  0  0  0  0
 35 40  1  0  0  0  0
 36 39  1  0  0  0  0
 36 40  1  0  0  0  0
 37 35  1  0  0  0  0
 37 38  1  0  0  0  0
 39 38  1  0  0  0  0
 43 44  1  0  0  0  0
 43 46  1  0  0  0  0
 44 41  1  6  0  0  0
 44 47  1  0  0  0  0
 45 42  1  0  0  0  0
 46 42  1  0  0  0  0
 47 45  1  0  0  0  0
M  END
>  <MODEL>
7

>  <REMARK>
 VINA RESULT:      -6.2      4.379      9.615
  Name = 
  16 active torsions:
  status: ('A' for Active; 'I' for Inactive)
    1  A    between atoms: N_1  and  C_31
    2  A    between atoms: N_1  and  S_37
    3  A    between atoms: C_4  and  O_43
    4  A    between atoms: C_4  and  C_46
    5  A    between atoms: C_7  and  N_20
    6  A    between atoms: N_9  and  C_27
    7  A    between atoms: N_9  and  S_37
    8  A    between atoms: C_10  and  N_39
    9  A    between atoms: C_18  and  C_22
   10  A    between atoms: C_22  and  C_26
   11  A    between atoms: C_24  and  C_32
   12  A    between atoms: C_26  and  N_29
   13  A    between atoms: C_26  and  N_39
   14  A    between atoms: C_27  and  C_36
   15  A    between atoms: N_29  and  C_44
   16  A    between atoms: O_43  and  C_47
                            x       y       z     vdW  Elec       q    Type
                         _______ _______ _______ _____ _____    ______ ____

>  <TORSDO>
F 16

$$$$
=
 OpenBabel11062417283D

 47 51  0  0  1  0  0  0  0  0999 V2000
  186.7880  178.3090  137.9370 C   0  0  2  0  0  0  0  0  0  0  0  0
  183.3530  179.4250  138.3150 C   0  0  0  0  0  3  0  0  0  0  0  0
  186.5990  178.9870  139.2430 C   0  0  2  0  0  3  0  0  0  0  0  0
  184.3050  179.2940  140.5320 N   0  0  0  0  0  0  0  0  0  0  0  0
  185.5470  178.1040  137.1810 N   0  0  0  0  0  2  0  0  0  0  0  0
  186.6050  178.4390  140.6640 C   0  0  0  0  0  2  0  0  0  0  0  0
  185.4810  178.1270  138.6480 C   0  0  1  0  0  0  0  0  0  0  0  0
  184.3500  179.0260  139.1100 C   0  0  0  0  0  0  0  0  0  0  0  0
  185.3390  179.0080  141.2890 C   0  0  0  0  0  3  0  0  0  0  0  0
  187.5510  177.0700  138.0360 N   0  0  0  0  0  2  0  0  0  0  0  0
  188.6790  176.8240  137.1880 C   0  0  0  0  0  0  0  0  0  0  0  0
  189.1700  177.7650  136.5120 O   0  0  0  0  0  0  0  0  0  0  0  0
  190.4980  173.4550  137.0200 C   0  0  0  0  0  1  0  0  0  0  0  0
  189.2070  175.4660  136.9750 C   0  0  0  0  0  3  0  0  0  0  0  0
  190.3580  174.9090  137.3630 C   0  0  0  0  0  0  0  0  0  0  0  0
  191.5170  175.6330  137.9660 C   0  0  0  0  0  0  0  0  0  0  0  0
  191.3060  176.3780  139.0300 C   0  0  0  0  0  0  0  0  0  0  0  0
  192.0220  177.8470  140.6530 F   0  0  0  0  0  0  0  0  0  0  0  0
  191.0520  177.0690  140.1090 C   0  0  0  0  0  0  0  0  0  0  0  0
  192.8090  175.4830  137.4210 O   0  0  0  0  0  0  0  0  0  0  0  0
  194.3680  176.8410  136.3520 O   0  0  0  0  0  0  0  0  0  0  0  0
  192.6270  176.0000  134.9890 C   0  0  0  0  0  1  0  0  0  0  0  0
  193.3260  176.1430  136.2930 C   0  0  0  0  0  0  0  0  0  0  0  0
  189.8430  176.8160  140.8300 N   0  0  0  0  0  2  0  0  0  0  0  0
  190.6860  175.5270  142.9780 O   0  0  0  0  0  0  0  0  0  0  0  0
  190.3210  177.9520  143.1500 O   0  0  0  0  0  0  0  0  0  0  0  0
  189.8050  176.6680  142.5530 S   0  0  0  0  0  0  0  0  0  0  0  0
  188.1760  176.3900  143.0800 N   0  0  0  0  0  2  0  0  0  0  0  0
  187.7580  177.5540  143.8500 C   0  0  0  0  0  2  0  0  0  0  0  0
  186.1390  178.3370  145.5830 C   0  0  0  0  0  1  0  0  0  0  0  0
  186.8020  177.1300  144.9570 C   0  0  0  0  0  2  0  0  0  0  0  0
  182.3030  180.2530  138.8140 N   0  0  0  0  0  2  0  0  0  0  0  0
  180.9010  179.8440  138.7940 C   0  0  2  0  0  3  0  0  0  0  0  0
  180.7270  178.6040  138.0310 N   0  0  0  0  0  2  0  0  0  0  0  0
  179.9330  178.1830  140.3250 C   0  0  0  0  0  2  0  0  0  0  0  0
  181.0250  176.3690  138.9550 C   0  0  0  0  0  2  0  0  0  0  0  0
  179.6760  177.1100  141.3980 C   0  0  0  0  0  2  0  0  0  0  0  0
  179.3370  175.7460  140.7910 C   0  0  0  0  0  2  0  0  0  0  0  0
  180.4300  175.2550  139.8380 C   0  0  0  0  0  2  0  0  0  0  0  0
  180.1290  177.6080  138.9110 C   0  0  0  0  0  3  0  0  0  0  0  0
  180.0160  180.9890  138.2690 C   0  0  0  0  0  2  0  0  0  0  0  0
  180.9310  184.4080  135.8530 C   0  0  0  0  0  2  0  0  0  0  0  0
  180.1040  182.0390  135.9530 C   0  0  0  0  0  2  0  0  0  0  0  0
  180.7210  182.0090  137.3590 C   0  0  1  0  0  3  0  0  0  0  0  0
  181.5490  184.1240  137.2190 C   0  0  0  0  0  2  0  0  0  0  0  0
  180.8050  183.0920  135.0920 C   0  0  0  0  0  2  0  0  0  0  0  0
  180.6890  183.2880  137.9600 O   0  0  0  0  0  0  0  0  0  0  0  0
  1 10  1  1  0  0  0
  1  7  1  0  0  0  0
  1  3  1  0  0  0  0
  2 32  1  0  0  0  0
  2  8  2  0  0  0  0
  3  6  1  1  0  0  0
  4  9  2  0  0  0  0
  5  1  1  0  0  0  0
  6  9  1  0  0  0  0
  7  5  1  6  0  0  0
  7  8  1  0  0  0  0
  7  3  1  0  0  0  0
  8  4  1  0  0  0  0
 11 10  1  0  0  0  0
 12 11  2  0  0  0  0
 13 15  1  0  0  0  0
 14 11  1  0  0  0  0
 14 15  2  0  0  0  0
 15 16  1  0  0  0  0
 16 17  2  0  0  0  0
 17 19  2  0  0  0  0
 19 18  1  0  0  0  0
 19 24  1  0  0  0  0
 20 16  1  0  0  0  0
 22 23  1  0  0  0  0
 23 21  2  0  0  0  0
 23 20  1  0  0  0  0
 24 27  1  0  0  0  0
 27 25  2  0  0  0  0
 27 28  1  0  0  0  0
 27 26  2  0  0  0  0
 28 29  1  0  0  0  0
 29 31  1  0  0  0  0
 31 30  1  0  0  0  0
 33 41  1  6  0  0  0
 33 32  1  0  0  0  0
 34 33  1  0  0  0  0
 34 40  1  0  0  0  0
 35 37  1  0  0  0  0
 36 39  1  0  0  0  0
 38 37  1  0  0  0  0
 39 38  1  0  0  0  0
 40 36  1  0  0  0  0
 40 35  1  0  0  0  0
 42 45  1  0  0  0  0
 43 44  1  0  0  0  0
 44 47  1  0  0  0  0
 44 41  1  1  0  0  0
 45 47  1  0  0  0  0
 46 42  1  0  0  0  0
 46 43  1  0  0  0  0
M  END
>  <MODEL>
8

>  <REMARK>
 VINA RESULT:      -6.2      4.031      9.419
  Name = 
  16 active torsions:
  status: ('A' for Active; 'I' for Inactive)
    1  A    between atoms: N_1  and  C_31
    2  A    between atoms: N_1  and  S_37
    3  A    between atoms: C_4  and  O_43
    4  A    between atoms: C_4  and  C_46
    5  A    between atoms: C_7  and  N_20
    6  A    between atoms: N_9  and  C_27
    7  A    between atoms: N_9  and  S_37
    8  A    between atoms: C_10  and  N_39
    9  A    between atoms: C_18  and  C_22
   10  A    between atoms: C_22  and  C_26
   11  A    between atoms: C_24  and  C_32
   12  A    between atoms: C_26  and  N_29
   13  A    between atoms: C_26  and  N_39
   14  A    between atoms: C_27  and  C_36
   15  A    between atoms: N_29  and  C_44
   16  A    between atoms: O_43  and  C_47
                            x       y       z     vdW  Elec       q    Type
                         _______ _______ _______ _____ _____    ______ ____

>  <TORSDO>
F 16

$$$$
=
 OpenBabel11062417283D

 47 51  0  0  1  0  0  0  0  0999 V2000
  186.0340  178.9410  139.2710 C   0  0  2  0  0  0  0  0  0  0  0  0
  182.6720  180.2040  138.7340 C   0  0  0  0  0  3  0  0  0  0  0  0
  185.2860  178.9990  140.5510 C   0  0  2  0  0  3  0  0  0  0  0  0
  182.6510  179.0000  140.8290 N   0  0  0  0  0  0  0  0  0  0  0  0
  185.2220  179.2450  138.0870 N   0  0  0  0  0  2  0  0  0  0  0  0
  184.7540  177.8900  141.4490 C   0  0  0  0  0  2  0  0  0  0  0  0
  184.5670  178.6330  139.2500 C   0  0  1  0  0  0  0  0  0  0  0  0
  183.2870  179.3760  139.5830 C   0  0  0  0  0  0  0  0  0  0  0  0
  183.3080  178.2830  141.7120 C   0  0  0  0  0  3  0  0  0  0  0  0
  186.7760  177.6970  139.0920 N   0  0  0  0  0  2  0  0  0  0  0  0
  187.9120  177.6300  138.2230 C   0  0  0  0  0  0  0  0  0  0  0  0
  188.4280  178.6910  137.7850 O   0  0  0  0  0  0  0  0  0  0  0  0
  189.7440  174.4210  137.2070 C   0  0  0  0  0  1  0  0  0  0  0  0
  188.4210  176.3470  137.7100 C   0  0  0  0  0  3  0  0  0  0  0  0
  189.6380  175.8000  137.7890 C   0  0  0  0  0  0  0  0  0  0  0  0
  190.8730  176.4890  138.2680 C   0  0  0  0  0  0  0  0  0  0  0  0
  190.9310  176.8680  139.5260 C   0  0  0  0  0  0  0  0  0  0  0  0
  191.9900  177.9150  141.2840 F   0  0  0  0  0  0  0  0  0  0  0  0
  190.9560  177.1870  140.7930 C   0  0  0  0  0  0  0  0  0  0  0  0
  191.9610  176.6860  137.3920 O   0  0  0  0  0  0  0  0  0  0  0  0
  193.9980  176.0250  138.3030 O   0  0  0  0  0  0  0  0  0  0  0  0
  193.4440  175.0650  136.2130 C   0  0  0  0  0  1  0  0  0  0  0  0
  193.1620  175.9560  137.3690 C   0  0  0  0  0  0  0  0  0  0  0  0
  190.0230  176.5690  141.6840 N   0  0  0  0  0  2  0  0  0  0  0  0
  191.0820  176.5170  144.1050 O   0  0  0  0  0  0  0  0  0  0  0  0
  189.8460  178.5310  143.4240 O   0  0  0  0  0  0  0  0  0  0  0  0
  189.8880  177.0260  143.3470 S   0  0  0  0  0  0  0  0  0  0  0  0
  188.4320  176.3650  144.0190 N   0  0  0  0  0  2  0  0  0  0  0  0
  187.3740  177.3480  143.8300 C   0  0  0  0  0  2  0  0  0  0  0  0
  187.8010  177.5420  146.2830 C   0  0  0  0  0  1  0  0  0  0  0  0
  186.7910  177.7520  145.1770 C   0  0  0  0  0  2  0  0  0  0  0  0
  181.4550  180.8570  139.0960 N   0  0  0  0  0  2  0  0  0  0  0  0
  180.1920  180.6020  138.4110 C   0  0  2  0  0  3  0  0  0  0  0  0
  179.3520  181.8040  138.3930 N   0  0  0  0  0  2  0  0  0  0  0  0
  179.4410  184.2250  137.9460 C   0  0  0  0  0  2  0  0  0  0  0  0
  180.0290  182.5350  136.1690 C   0  0  0  0  0  2  0  0  0  0  0  0
  179.8680  185.3120  136.9420 C   0  0  0  0  0  2  0  0  0  0  0  0
  181.0690  184.8850  136.0950 C   0  0  0  0  0  2  0  0  0  0  0  0
  180.8030  183.5780  135.3410 C   0  0  0  0  0  2  0  0  0  0  0  0
  180.0660  182.8470  137.6670 C   0  0  0  0  0  3  0  0  0  0  0  0
  179.4770  179.3920  139.0380 C   0  0  0  0  0  2  0  0  0  0  0  0
  181.0790  175.9630  137.0300 C   0  0  0  0  0  2  0  0  0  0  0  0
  180.1340  178.2810  136.8450 C   0  0  0  0  0  2  0  0  0  0  0  0
  179.6330  178.0630  138.2800 C   0  0  1  0  0  3  0  0  0  0  0  0
  180.4110  175.9280  138.4000 C   0  0  0  0  0  2  0  0  0  0  0  0
  180.3140  176.9350  136.1380 C   0  0  0  0  0  2  0  0  0  0  0  0
  180.4950  177.2020  138.9980 O   0  0  0  0  0  0  0  0  0  0  0  0
  1 10  1  6  0  0  0
  1  3  1  0  0  0  0
  2 32  1  0  0  0  0
  2  8  2  0  0  0  0
  3  6  1  1  0  0  0
  4  9  2  0  0  0  0
  5  1  1  0  0  0  0
  6  9  1  0  0  0  0
  7  5  1  1  0  0  0
  7  1  1  0  0  0  0
  7  8  1  0  0  0  0
  7  3  1  0  0  0  0
  8  4  1  0  0  0  0
 11 10  1  0  0  0  0
 12 11  2  0  0  0  0
 13 15  1  0  0  0  0
 14 15  2  0  0  0  0
 14 11  1  0  0  0  0
 15 16  1  0  0  0  0
 16 17  2  0  0  0  0
 17 19  2  0  0  0  0
 19 18  1  0  0  0  0
 19 24  1  0  0  0  0
 20 16  1  0  0  0  0
 22 23  1  0  0  0  0
 23 20  1  0  0  0  0
 23 21  2  0  0  0  0
 24 27  1  0  0  0  0
 27 26  2  0  0  0  0
 27 28  1  0  0  0  0
 27 25  2  0  0  0  0
 29 28  1  0  0  0  0
 29 31  1  0  0  0  0
 31 30  1  0  0  0  0
 33 41  1  1  0  0  0
 33 32  1  0  0  0  0
 34 33  1  0  0  0  0
 36 40  1  0  0  0  0
 37 35  1  0  0  0  0
 38 37  1  0  0  0  0
 39 38  1  0  0  0  0
 39 36  1  0  0  0  0
 40 35  1  0  0  0  0
 40 34  1  0  0  0  0
 42 45  1  0  0  0  0
 43 44  1  0  0  0  0
 44 47  1  0  0  0  0
 44 41  1  1  0  0  0
 45 47  1  0  0  0  0
 46 43  1  0  0  0  0
 46 42  1  0  0  0  0
M  END
>  <MODEL>
9

>  <REMARK>
 VINA RESULT:      -6.1      4.305     10.140
  Name = 
  16 active torsions:
  status: ('A' for Active; 'I' for Inactive)
    1  A    between atoms: N_1  and  C_31
    2  A    between atoms: N_1  and  S_37
    3  A    between atoms: C_4  and  O_43
    4  A    between atoms: C_4  and  C_46
    5  A    between atoms: C_7  and  N_20
    6  A    between atoms: N_9  and  C_27
    7  A    between atoms: N_9  and  S_37
    8  A    between atoms: C_10  and  N_39
    9  A    between atoms: C_18  and  C_22
   10  A    between atoms: C_22  and  C_26
   11  A    between atoms: C_24  and  C_32
   12  A    between atoms: C_26  and  N_29
   13  A    between atoms: C_26  and  N_39
   14  A    between atoms: C_27  and  C_36
   15  A    between atoms: N_29  and  C_44
   16  A    between atoms: O_43  and  C_47
                            x       y       z     vdW  Elec       q    Type
                         _______ _______ _______ _____ _____    ______ ____

>  <TORSDO>
F 16

$$$$
