=
 OpenBabel11062415463D

 27 28  0  0  1  0  0  0  0  0999 V2000
  189.5430  177.6550  146.5770 C   0  0  1  0  0  3  0  0  0  0  0  0
  190.4980  176.6170  146.2060 N   0  0  0  0  0  0  0  0  0  0  0  0
  192.4290  175.3050  146.4720 N   0  0  0  0  0  1  0  0  0  0  0  0
  191.8490  177.0490  148.1070 N   0  0  0  0  0  1  0  0  0  0  0  0
  191.5500  176.3340  146.9110 C   0  0  0  0  0  0  0  0  0  0  0  0
  189.3940  178.5500  145.5130 O   0  0  0  0  0  0  0  0  0  0  0  0
  191.0130  178.6520  143.7640 C   0  0  0  0  0  2  0  0  0  0  0  0
  188.8240  177.7610  143.3300 C   0  0  1  0  0  3  0  0  0  0  0  0
  189.5460  177.8600  141.9980 C   0  0  0  0  0  2  0  0  0  0  0  0
  187.9920  176.1940  143.4570 Cl  0  0  0  0  0  0  0  0  0  0  0  0
  190.9750  178.2930  142.2910 C   0  0  2  0  0  3  0  0  0  0  0  0
  189.8900  177.8670  144.3990 C   0  0  2  0  0  3  0  0  0  0  0  0
  191.8400  177.2240  142.0500 O   0  0  0  0  0  0  0  0  0  0  0  0
  192.1810  177.3360  140.7020 C   0  0  0  0  0  1  0  0  0  0  0  0
  188.1970  177.0240  146.9220 C   0  0  0  0  0  2  0  0  0  0  0  0
  187.2260  178.0680  147.3700 C   0  0  0  0  0  0  0  0  0  0  0  0
  187.4930  178.7380  148.4020 O   0  0  0  0  0  0  0  0  0  0  0  0
  185.9710  178.2970  146.6190 C   0  0  0  0  0  0  0  0  0  0  0  0
  184.9240  178.5810  147.2570 O   0  0  0  0  0  0  0  0  0  0  0  0
  185.8950  178.2140  145.2230 O   0  0  0  0  0  0  0  0  0  0  0  0
  185.2750  179.1970  144.4060 C   0  0  0  0  0  2  0  0  0  0  0  0
  184.2010  178.5530  143.5440 C   0  0  0  0  0  2  0  0  0  0  0  0
  184.6980  179.1610  140.5340 C   0  0  0  0  0  0  0  0  0  0  0  0
  185.6710  179.0160  141.6590 C   0  0  0  0  0  2  0  0  0  0  0  0
  184.6470  179.8470  139.4800 O   0  0  0  0  0  0  0  0  0  0  0  0
  183.8210  178.1640  141.1760 N   0  0  0  0  0  2  0  0  0  0  0  0
  184.7930  178.0380  142.2380 C   0  0  2  0  0  3  0  0  0  0  0  0
  1 15  1  6  0  0  0
  2  1  1  0  0  0  0
  2  5  2  0  0  0  0
  3  5  1  0  0  0  0
  5  4  1  0  0  0  0
  6  1  1  0  0  0  0
  7 12  1  0  0  0  0
  8 10  1  6  0  0  0
  8 12  1  0  0  0  0
  9 11  1  0  0  0  0
  9  8  1  0  0  0  0
 11 13  1  1  0  0  0
 11  7  1  0  0  0  0
 12  6  1  1  0  0  0
 14 13  1  0  0  0  0
 15 16  1  0  0  0  0
 16 17  2  0  0  0  0
 18 19  2  0  0  0  0
 18 16  1  0  0  0  0
 20 18  1  0  0  0  0
 21 20  1  0  0  0  0
 22 21  1  0  0  0  0
 23 26  1  0  0  0  0
 23 24  1  0  0  0  0
 24 27  1  0  0  0  0
 25 23  2  0  0  0  0
 26 27  1  0  0  0  0
 27 22  1  1  0  0  0
M  END
>  <MODEL>
1

>  <REMARK>
 VINA RESULT:      -7.0      0.000      0.000
  Name = 
  11 active torsions:
  status: ('A' for Active; 'I' for Inactive)
    1  A    between atoms: O_1  and  C_23
    2  A    between atoms: O_2  and  C_5
    3  A    between atoms: O_2  and  C_24
    4  A    between atoms: N_4  and  C_5
    5  A    between atoms: C_5  and  C_6
    6  A    between atoms: C_6  and  C_8
    7  A    between atoms: C_8  and  C_17
    8  A    between atoms: C_13  and  O_18
    9  A    between atoms: C_13  and  C_20
   10  A    between atoms: C_17  and  O_18
   11  A    between atoms: C_19  and  C_20
                            x       y       z     vdW  Elec       q    Type
                         _______ _______ _______ _____ _____    ______ ____

>  <TORSDO>
F 11

$$$$
=
 OpenBabel11062415463D

 27 28  0  0  1  0  0  0  0  0999 V2000
  190.2620  177.9120  142.4630 C   0  0  1  0  0  3  0  0  0  0  0  0
  191.3400  177.7680  141.4920 N   0  0  0  0  0  0  0  0  0  0  0  0
  192.3470  176.9530  139.5320 N   0  0  0  0  0  1  0  0  0  0  0  0
  190.0560  176.2980  140.1430 N   0  0  0  0  0  1  0  0  0  0  0  0
  191.2430  177.0350  140.4250 C   0  0  0  0  0  0  0  0  0  0  0  0
  190.7840  178.3990  143.6660 O   0  0  0  0  0  0  0  0  0  0  0  0
  189.8420  178.1150  145.8390 C   0  0  0  0  0  2  0  0  0  0  0  0
  191.6650  176.7230  145.1230 C   0  0  1  0  0  3  0  0  0  0  0  0
  191.4180  176.4280  146.5920 C   0  0  0  0  0  2  0  0  0  0  0  0
  191.8870  175.2040  144.2250 Cl  0  0  0  0  0  0  0  0  0  0  0  0
  190.1780  177.2070  147.0050 C   0  0  2  0  0  3  0  0  0  0  0  0
  190.4330  177.4430  144.6220 C   0  0  2  0  0  3  0  0  0  0  0  0
  189.1230  176.3160  147.2200 O   0  0  0  0  0  0  0  0  0  0  0  0
  188.0400  177.1230  147.5720 C   0  0  0  0  0  1  0  0  0  0  0  0
  189.2020  178.8690  141.9270 C   0  0  0  0  0  2  0  0  0  0  0  0
  187.8600  178.2110  141.9090 C   0  0  0  0  0  0  0  0  0  0  0  0
  187.6660  177.2130  142.6500 O   0  0  0  0  0  0  0  0  0  0  0  0
  186.7870  178.7220  141.0260 C   0  0  0  0  0  0  0  0  0  0  0  0
  186.8570  178.4940  139.7900 O   0  0  0  0  0  0  0  0  0  0  0  0
  185.6900  179.4490  141.5050 O   0  0  0  0  0  0  0  0  0  0  0  0
  184.3790  178.9150  141.6250 C   0  0  0  0  0  2  0  0  0  0  0  0
  184.1930  178.3000  143.0020 C   0  0  0  0  0  2  0  0  0  0  0  0
  184.6610  178.7550  146.0440 C   0  0  0  0  0  0  0  0  0  0  0  0
  185.5900  178.9460  144.8890 C   0  0  0  0  0  2  0  0  0  0  0  0
  184.7910  178.4090  147.2470 O   0  0  0  0  0  0  0  0  0  0  0  0
  183.5260  179.1380  145.1830 N   0  0  0  0  0  2  0  0  0  0  0  0
  184.4570  179.3290  144.0940 C   0  0  2  0  0  3  0  0  0  0  0  0
  1 15  1  6  0  0  0
  1  6  1  0  0  0  0
  2  1  1  0  0  0  0
  3  5  1  0  0  0  0
  4  5  1  0  0  0  0
  5  2  2  0  0  0  0
  7 11  1  0  0  0  0
  8 10  1  6  0  0  0
  8  9  1  0  0  0  0
  9 11  1  0  0  0  0
 11 13  1  6  0  0  0
 12  6  1  6  0  0  0
 12  8  1  0  0  0  0
 12  7  1  0  0  0  0
 13 14  1  0  0  0  0
 16 15  1  0  0  0  0
 16 17  2  0  0  0  0
 18 20  1  0  0  0  0
 18 16  1  0  0  0  0
 19 18  2  0  0  0  0
 20 21  1  0  0  0  0
 21 22  1  0  0  0  0
 23 25  2  0  0  0  0
 24 23  1  0  0  0  0
 26 23  1  0  0  0  0
 27 22  1  6  0  0  0
 27 24  1  0  0  0  0
 27 26  1  0  0  0  0
M  END
>  <MODEL>
2

>  <REMARK>
 VINA RESULT:      -6.6      2.709      5.201
  Name = 
  11 active torsions:
  status: ('A' for Active; 'I' for Inactive)
    1  A    between atoms: O_1  and  C_23
    2  A    between atoms: O_2  and  C_5
    3  A    between atoms: O_2  and  C_24
    4  A    between atoms: N_4  and  C_5
    5  A    between atoms: C_5  and  C_6
    6  A    between atoms: C_6  and  C_8
    7  A    between atoms: C_8  and  C_17
    8  A    between atoms: C_13  and  O_18
    9  A    between atoms: C_13  and  C_20
   10  A    between atoms: C_17  and  O_18
   11  A    between atoms: C_19  and  C_20
                            x       y       z     vdW  Elec       q    Type
                         _______ _______ _______ _____ _____    ______ ____

>  <TORSDO>
F 11

$$$$
=
 OpenBabel11062415463D

 27 28  0  0  1  0  0  0  0  0999 V2000
  186.2650  178.5930  141.1700 C   0  0  1  0  0  3  0  0  0  0  0  0
  185.2960  179.5220  140.6000 N   0  0  0  0  0  0  0  0  0  0  0  0
  183.8330  180.3270  138.9470 N   0  0  0  0  0  1  0  0  0  0  0  0
  185.1290  178.2670  138.5940 N   0  0  0  0  0  1  0  0  0  0  0  0
  184.7700  179.3690  139.4240 C   0  0  0  0  0  0  0  0  0  0  0  0
  187.5580  179.0760  140.9450 O   0  0  0  0  0  0  0  0  0  0  0  0
  189.3690  177.9800  142.0460 C   0  0  0  0  0  2  0  0  0  0  0  0
  189.1920  177.9080  139.6510 C   0  0  1  0  0  3  0  0  0  0  0  0
  190.5260  177.2880  140.0270 C   0  0  0  0  0  2  0  0  0  0  0  0
  188.3830  176.9120  138.4200 Cl  0  0  0  0  0  0  0  0  0  0  0  0
  190.5750  177.2100  141.5450 C   0  0  2  0  0  3  0  0  0  0  0  0
  188.3650  177.9360  140.9170 C   0  0  2  0  0  3  0  0  0  0  0  0
  190.4710  175.8750  141.9420 O   0  0  0  0  0  0  0  0  0  0  0  0
  190.5480  175.9090  143.3360 C   0  0  0  0  0  1  0  0  0  0  0  0
  186.0170  178.4370  142.6670 C   0  0  0  0  0  2  0  0  0  0  0  0
  184.5560  178.2900  142.9460 C   0  0  0  0  0  0  0  0  0  0  0  0
  183.8220  177.7710  142.0660 O   0  0  0  0  0  0  0  0  0  0  0  0
  183.9880  178.7570  144.2310 C   0  0  0  0  0  0  0  0  0  0  0  0
  182.7370  178.7500  144.3800 O   0  0  0  0  0  0  0  0  0  0  0  0
  184.7790  179.2060  145.2940 O   0  0  0  0  0  0  0  0  0  0  0  0
  185.0800  178.4240  146.4420 C   0  0  0  0  0  2  0  0  0  0  0  0
  186.2850  177.5400  146.1670 C   0  0  0  0  0  2  0  0  0  0  0  0
  189.2240  177.0340  147.0520 C   0  0  0  0  0  0  0  0  0  0  0  0
  188.6880  177.8390  145.9130 C   0  0  0  0  0  2  0  0  0  0  0  0
  190.2590  176.3450  147.2490 O   0  0  0  0  0  0  0  0  0  0  0  0
  188.0320  177.3830  147.8480 N   0  0  0  0  0  2  0  0  0  0  0  0
  187.5540  178.1660  146.7320 C   0  0  2  0  0  3  0  0  0  0  0  0
  1 15  1  1  0  0  0
  2  1  1  0  0  0  0
  3  5  1  0  0  0  0
  4  5  1  0  0  0  0
  5  2  2  0  0  0  0
  6  1  1  0  0  0  0
  8 10  1  6  0  0  0
  8  9  1  0  0  0  0
  8 12  1  0  0  0  0
  9 11  1  0  0  0  0
 11 13  1  6  0  0  0
 11  7  1  0  0  0  0
 12  6  1  6  0  0  0
 12  7  1  0  0  0  0
 13 14  1  0  0  0  0
 15 16  1  0  0  0  0
 16 18  1  0  0  0  0
 17 16  2  0  0  0  0
 18 19  2  0  0  0  0
 18 20  1  0  0  0  0
 20 21  1  0  0  0  0
 22 21  1  0  0  0  0
 23 25  2  0  0  0  0
 23 26  1  0  0  0  0
 24 27  1  0  0  0  0
 24 23  1  0  0  0  0
 27 22  1  6  0  0  0
 27 26  1  0  0  0  0
M  END
>  <MODEL>
3

>  <REMARK>
 VINA RESULT:      -6.6      2.403      6.261
  Name = 
  11 active torsions:
  status: ('A' for Active; 'I' for Inactive)
    1  A    between atoms: O_1  and  C_23
    2  A    between atoms: O_2  and  C_5
    3  A    between atoms: O_2  and  C_24
    4  A    between atoms: N_4  and  C_5
    5  A    between atoms: C_5  and  C_6
    6  A    between atoms: C_6  and  C_8
    7  A    between atoms: C_8  and  C_17
    8  A    between atoms: C_13  and  O_18
    9  A    between atoms: C_13  and  C_20
   10  A    between atoms: C_17  and  O_18
   11  A    between atoms: C_19  and  C_20
                            x       y       z     vdW  Elec       q    Type
                         _______ _______ _______ _____ _____    ______ ____

>  <TORSDO>
F 11

$$$$
=
 OpenBabel11062415463D

 27 28  0  0  1  0  0  0  0  0999 V2000
  186.9170  177.8480  144.3260 C   0  0  1  0  0  3  0  0  0  0  0  0
  185.4850  178.0970  144.4420 N   0  0  0  0  0  0  0  0  0  0  0  0
  183.5560  179.0370  145.4000 N   0  0  0  0  0  1  0  0  0  0  0  0
  185.7820  179.4800  146.3460 N   0  0  0  0  0  1  0  0  0  0  0  0
  184.9650  178.8500  145.3620 C   0  0  0  0  0  0  0  0  0  0  0  0
  187.3210  176.9850  145.3500 O   0  0  0  0  0  0  0  0  0  0  0  0
  189.6660  176.8440  144.9360 C   0  0  0  0  0  2  0  0  0  0  0  0
  188.8500  177.0600  147.1850 C   0  0  1  0  0  3  0  0  0  0  0  0
  190.3460  176.8120  147.2670 C   0  0  0  0  0  2  0  0  0  0  0  0
  188.3870  178.3680  148.2980 Cl  0  0  0  0  0  0  0  0  0  0  0  0
  190.8810  176.8140  145.8430 C   0  0  2  0  0  3  0  0  0  0  0  0
  188.5650  177.4730  145.7580 C   0  0  2  0  0  3  0  0  0  0  0  0
  191.6440  177.9660  145.6370 O   0  0  0  0  0  0  0  0  0  0  0  0
  191.7490  178.0830  144.2510 C   0  0  0  0  0  1  0  0  0  0  0  0
  187.2290  177.2300  142.9670 C   0  0  0  0  0  2  0  0  0  0  0  0
  187.8580  178.2400  142.0620 C   0  0  0  0  0  0  0  0  0  0  0  0
  188.9440  178.7710  142.4120 O   0  0  0  0  0  0  0  0  0  0  0  0
  187.2060  178.6120  140.7860 C   0  0  0  0  0  0  0  0  0  0  0  0
  186.0110  179.0090  140.8070 O   0  0  0  0  0  0  0  0  0  0  0  0
  187.8600  178.5440  139.5500 O   0  0  0  0  0  0  0  0  0  0  0  0
  188.5980  177.4120  139.1070 C   0  0  0  0  0  2  0  0  0  0  0  0
  189.4890  177.7990  137.9390 C   0  0  0  0  0  2  0  0  0  0  0  0
  190.6580  174.9370  137.5880 C   0  0  0  0  0  0  0  0  0  0  0  0
  190.8120  176.1510  136.7300 C   0  0  0  0  0  2  0  0  0  0  0  0
  190.6080  173.6970  137.3810 O   0  0  0  0  0  0  0  0  0  0  0  0
  190.5880  175.8020  138.7810 N   0  0  0  0  0  2  0  0  0  0  0  0
  190.7550  176.9510  137.9210 C   0  0  2  0  0  3  0  0  0  0  0  0
  1 15  1  6  0  0  0
  1  2  1  0  0  0  0
  1  6  1  0  0  0  0
  2  5  2  0  0  0  0
  5  3  1  0  0  0  0
  5  4  1  0  0  0  0
  7 12  1  0  0  0  0
  7 11  1  0  0  0  0
  8  9  1  0  0  0  0
  8 10  1  1  0  0  0
 11 13  1  1  0  0  0
 11  9  1  0  0  0  0
 12  6  1  6  0  0  0
 12  8  1  0  0  0  0
 14 13  1  0  0  0  0
 16 17  2  0  0  0  0
 16 15  1  0  0  0  0
 18 19  2  0  0  0  0
 18 16  1  0  0  0  0
 20 18  1  0  0  0  0
 21 20  1  0  0  0  0
 22 21  1  0  0  0  0
 23 26  1  0  0  0  0
 24 23  1  0  0  0  0
 24 27  1  0  0  0  0
 25 23  2  0  0  0  0
 27 22  1  6  0  0  0
 27 26  1  0  0  0  0
M  END
>  <MODEL>
4

>  <REMARK>
 VINA RESULT:      -6.4      3.399      6.016
  Name = 
  11 active torsions:
  status: ('A' for Active; 'I' for Inactive)
    1  A    between atoms: O_1  and  C_23
    2  A    between atoms: O_2  and  C_5
    3  A    between atoms: O_2  and  C_24
    4  A    between atoms: N_4  and  C_5
    5  A    between atoms: C_5  and  C_6
    6  A    between atoms: C_6  and  C_8
    7  A    between atoms: C_8  and  C_17
    8  A    between atoms: C_13  and  O_18
    9  A    between atoms: C_13  and  C_20
   10  A    between atoms: C_17  and  O_18
   11  A    between atoms: C_19  and  C_20
                            x       y       z     vdW  Elec       q    Type
                         _______ _______ _______ _____ _____    ______ ____

>  <TORSDO>
F 11

$$$$
=
 OpenBabel11062415463D

 27 28  0  0  1  0  0  0  0  0999 V2000
  188.5570  177.9590  140.9840 C   0  0  1  0  0  3  0  0  0  0  0  0
  187.3900  178.7110  140.5380 N   0  0  0  0  0  0  0  0  0  0  0  0
  185.1740  179.4800  140.6670 N   0  0  0  0  0  1  0  0  0  0  0  0
  186.0860  177.9590  142.3710 N   0  0  0  0  0  1  0  0  0  0  0  0
  186.2610  178.7170  141.1770 C   0  0  0  0  0  0  0  0  0  0  0  0
  189.6170  178.1780  140.0980 O   0  0  0  0  0  0  0  0  0  0  0  0
  190.9980  176.4050  139.3000 C   0  0  0  0  0  2  0  0  0  0  0  0
  189.4110  177.4520  137.8310 C   0  0  1  0  0  3  0  0  0  0  0  0
  190.2510  176.5050  136.9920 C   0  0  0  0  0  2  0  0  0  0  0  0
  187.6910  177.2770  137.4110 Cl  0  0  0  0  0  0  0  0  0  0  0  0
  191.1590  175.7440  137.9460 C   0  0  2  0  0  3  0  0  0  0  0  0
  189.6330  177.0510  139.2730 C   0  0  2  0  0  3  0  0  0  0  0  0
  190.7380  174.4150  138.0240 O   0  0  0  0  0  0  0  0  0  0  0  0
  190.4810  174.0420  136.7030 C   0  0  0  0  0  1  0  0  0  0  0  0
  188.9510  178.3960  142.3910 C   0  0  0  0  0  2  0  0  0  0  0  0
  189.7240  177.3190  143.0810 C   0  0  0  0  0  0  0  0  0  0  0  0
  189.4300  176.1180  142.8440 O   0  0  0  0  0  0  0  0  0  0  0  0
  190.8060  177.6630  144.0310 C   0  0  0  0  0  0  0  0  0  0  0  0
  191.4460  178.7340  143.8600 O   0  0  0  0  0  0  0  0  0  0  0  0
  191.1520  176.8500  145.1170 O   0  0  0  0  0  0  0  0  0  0  0  0
  190.5240  176.9220  146.3900 C   0  0  0  0  0  2  0  0  0  0  0  0
  189.3820  177.9240  146.3490 C   0  0  0  0  0  2  0  0  0  0  0  0
  186.3770  178.3900  147.0050 C   0  0  0  0  0  0  0  0  0  0  0  0
  187.0100  177.5840  145.9170 C   0  0  0  0  0  2  0  0  0  0  0  0
  185.3200  179.0640  147.1170 O   0  0  0  0  0  0  0  0  0  0  0  0
  187.5100  178.0660  147.8920 N   0  0  0  0  0  2  0  0  0  0  0  0
  188.0840  177.2820  146.8220 C   0  0  2  0  0  3  0  0  0  0  0  0
  1 15  1  1  0  0  0
  2  1  1  0  0  0  0
  2  5  2  0  0  0  0
  3  5  1  0  0  0  0
  5  4  1  0  0  0  0
  6  1  1  0  0  0  0
  8 10  1  6  0  0  0
  8 12  1  0  0  0  0
  9  8  1  0  0  0  0
  9 11  1  0  0  0  0
 11 13  1  1  0  0  0
 11  7  1  0  0  0  0
 12  7  1  0  0  0  0
 12  6  1  1  0  0  0
 14 13  1  0  0  0  0
 15 16  1  0  0  0  0
 16 18  1  0  0  0  0
 17 16  2  0  0  0  0
 18 20  1  0  0  0  0
 19 18  2  0  0  0  0
 20 21  1  0  0  0  0
 22 21  1  0  0  0  0
 23 25  2  0  0  0  0
 23 26  1  0  0  0  0
 24 27  1  0  0  0  0
 24 23  1  0  0  0  0
 27 22  1  6  0  0  0
 27 26  1  0  0  0  0
M  END
>  <MODEL>
5

>  <REMARK>
 VINA RESULT:      -6.3      2.903      6.286
  Name = 
  11 active torsions:
  status: ('A' for Active; 'I' for Inactive)
    1  A    between atoms: O_1  and  C_23
    2  A    between atoms: O_2  and  C_5
    3  A    between atoms: O_2  and  C_24
    4  A    between atoms: N_4  and  C_5
    5  A    between atoms: C_5  and  C_6
    6  A    between atoms: C_6  and  C_8
    7  A    between atoms: C_8  and  C_17
    8  A    between atoms: C_13  and  O_18
    9  A    between atoms: C_13  and  C_20
   10  A    between atoms: C_17  and  O_18
   11  A    between atoms: C_19  and  C_20
                            x       y       z     vdW  Elec       q    Type
                         _______ _______ _______ _____ _____    ______ ____

>  <TORSDO>
F 11

$$$$
=
 OpenBabel11062415463D

 27 28  0  0  1  0  0  0  0  0999 V2000
  188.9580  176.9580  143.3410 C   0  0  1  0  0  3  0  0  0  0  0  0
  189.9050  176.6680  144.4110 N   0  0  0  0  0  0  0  0  0  0  0  0
  191.6970  177.1370  145.8570 N   0  0  0  0  0  1  0  0  0  0  0  0
  190.9560  178.7820  144.1860 N   0  0  0  0  0  1  0  0  0  0  0  0
  190.8150  177.5060  144.8040 C   0  0  0  0  0  0  0  0  0  0  0  0
  189.3040  176.2210  142.2040 O   0  0  0  0  0  0  0  0  0  0  0  0
  188.4480  177.2840  140.2470 C   0  0  0  0  0  2  0  0  0  0  0  0
  190.7860  176.7520  140.4060 C   0  0  1  0  0  3  0  0  0  0  0  0
  190.5260  177.2430  138.9930 C   0  0  0  0  0  2  0  0  0  0  0  0
  192.2650  177.5010  141.0500 Cl  0  0  0  0  0  0  0  0  0  0  0  0
  189.0790  177.7070  138.9360 C   0  0  2  0  0  3  0  0  0  0  0  0
  189.5910  177.1800  141.2300 C   0  0  2  0  0  3  0  0  0  0  0  0
  189.0450  179.1000  138.8320 O   0  0  0  0  0  0  0  0  0  0  0  0
  189.0700  179.3570  137.4600 C   0  0  0  0  0  1  0  0  0  0  0  0
  187.5440  176.6010  143.7860 C   0  0  0  0  0  2  0  0  0  0  0  0
  186.9960  177.6550  144.6940 C   0  0  0  0  0  0  0  0  0  0  0  0
  187.6370  177.9470  145.7370 O   0  0  0  0  0  0  0  0  0  0  0  0
  185.7180  178.3300  144.3730 C   0  0  0  0  0  0  0  0  0  0  0  0
  185.2980  179.2330  145.1450 O   0  0  0  0  0  0  0  0  0  0  0  0
  184.9520  178.0130  143.2450 O   0  0  0  0  0  0  0  0  0  0  0  0
  184.3910  178.9840  142.3720 C   0  0  0  0  0  2  0  0  0  0  0  0
  183.3990  178.3230  141.4300 C   0  0  0  0  0  2  0  0  0  0  0  0
  184.9140  178.6270  138.7290 C   0  0  0  0  0  0  0  0  0  0  0  0
  183.5740  178.0310  139.0190 C   0  0  0  0  0  2  0  0  0  0  0  0
  185.8320  178.3990  137.8990 O   0  0  0  0  0  0  0  0  0  0  0  0
  184.7110  179.5920  139.8260 N   0  0  0  0  0  2  0  0  0  0  0  0
  183.4150  179.0010  140.0660 C   0  0  2  0  0  3  0  0  0  0  0  0
  1 15  1  1  0  0  0
  1  2  1  0  0  0  0
  2  5  2  0  0  0  0
  4  5  1  0  0  0  0
  5  3  1  0  0  0  0
  6  1  1  0  0  0  0
  7 12  1  0  0  0  0
  8 10  1  1  0  0  0
  8 12  1  0  0  0  0
  9  8  1  0  0  0  0
 11 13  1  1  0  0  0
 11  9  1  0  0  0  0
 11  7  1  0  0  0  0
 12  6  1  1  0  0  0
 14 13  1  0  0  0  0
 15 16  1  0  0  0  0
 16 17  2  0  0  0  0
 18 16  1  0  0  0  0
 18 19  2  0  0  0  0
 20 18  1  0  0  0  0
 21 20  1  0  0  0  0
 22 21  1  0  0  0  0
 23 24  1  0  0  0  0
 23 26  1  0  0  0  0
 24 27  1  0  0  0  0
 25 23  2  0  0  0  0
 26 27  1  0  0  0  0
 27 22  1  1  0  0  0
M  END
>  <MODEL>
6

>  <REMARK>
 VINA RESULT:      -6.2      2.433      3.266
  Name = 
  11 active torsions:
  status: ('A' for Active; 'I' for Inactive)
    1  A    between atoms: O_1  and  C_23
    2  A    between atoms: O_2  and  C_5
    3  A    between atoms: O_2  and  C_24
    4  A    between atoms: N_4  and  C_5
    5  A    between atoms: C_5  and  C_6
    6  A    between atoms: C_6  and  C_8
    7  A    between atoms: C_8  and  C_17
    8  A    between atoms: C_13  and  O_18
    9  A    between atoms: C_13  and  C_20
   10  A    between atoms: C_17  and  O_18
   11  A    between atoms: C_19  and  C_20
                            x       y       z     vdW  Elec       q    Type
                         _______ _______ _______ _____ _____    ______ ____

>  <TORSDO>
F 11

$$$$
=
 OpenBabel11062415463D

 27 28  0  0  1  0  0  0  0  0999 V2000
  187.8460  176.9590  144.7490 C   0  0  1  0  0  3  0  0  0  0  0  0
  189.1180  176.9990  145.4600 N   0  0  0  0  0  0  0  0  0  0  0  0
  190.4940  177.1350  147.3600 N   0  0  0  0  0  1  0  0  0  0  0  0
  188.0430  177.2040  147.5650 N   0  0  0  0  0  1  0  0  0  0  0  0
  189.2090  177.1030  146.7500 C   0  0  0  0  0  0  0  0  0  0  0  0
  187.4490  178.2630  144.4350 O   0  0  0  0  0  0  0  0  0  0  0  0
  185.7190  178.6420  142.8370 C   0  0  0  0  0  2  0  0  0  0  0  0
  185.3410  179.1230  145.1600 C   0  0  1  0  0  3  0  0  0  0  0  0
  184.1380  179.6360  144.3880 C   0  0  0  0  0  2  0  0  0  0  0  0
  184.8050  178.2520  146.6150 Cl  0  0  0  0  0  0  0  0  0  0  0  0
  184.3170  179.2080  142.9390 C   0  0  2  0  0  3  0  0  0  0  0  0
  186.0690  178.1770  144.2310 C   0  0  2  0  0  3  0  0  0  0  0  0
  183.3890  178.2090  142.6350 O   0  0  0  0  0  0  0  0  0  0  0  0
  182.7850  178.6310  141.4490 C   0  0  0  0  0  1  0  0  0  0  0  0
  187.9880  176.1340  143.4740 C   0  0  0  0  0  2  0  0  0  0  0  0
  189.3250  176.3610  142.8460 C   0  0  0  0  0  0  0  0  0  0  0  0
  190.1790  175.4380  142.8930 O   0  0  0  0  0  0  0  0  0  0  0  0
  189.6380  177.6530  142.1940 C   0  0  0  0  0  0  0  0  0  0  0  0
  190.7090  178.2420  142.4950 O   0  0  0  0  0  0  0  0  0  0  0  0
  188.7950  178.2520  141.2510 O   0  0  0  0  0  0  0  0  0  0  0  0
  188.5690  177.7310  139.9480 C   0  0  0  0  0  2  0  0  0  0  0  0
  189.7790  177.9960  139.0670 C   0  0  0  0  0  2  0  0  0  0  0  0
  192.4340  176.7370  138.0440 C   0  0  0  0  0  0  0  0  0  0  0  0
  191.8130  176.7000  139.4030 C   0  0  0  0  0  2  0  0  0  0  0  0
  193.6110  176.7500  137.6000 O   0  0  0  0  0  0  0  0  0  0  0  0
  191.0880  176.7530  137.4400 N   0  0  0  0  0  2  0  0  0  0  0  0
  190.5240  176.7000  138.7700 C   0  0  2  0  0  3  0  0  0  0  0  0
  1 15  1  6  0  0  0
  1  2  1  0  0  0  0
  2  5  2  0  0  0  0
  5  3  1  0  0  0  0
  5  4  1  0  0  0  0
  6  1  1  0  0  0  0
  7 11  1  0  0  0  0
  7 12  1  0  0  0  0
  8 10  1  1  0  0  0
  9  8  1  0  0  0  0
 11 13  1  1  0  0  0
 11  9  1  0  0  0  0
 12  6  1  1  0  0  0
 12  8  1  0  0  0  0
 14 13  1  0  0  0  0
 16 17  2  0  0  0  0
 16 15  1  0  0  0  0
 18 19  2  0  0  0  0
 18 16  1  0  0  0  0
 20 18  1  0  0  0  0
 21 20  1  0  0  0  0
 22 21  1  0  0  0  0
 23 24  1  0  0  0  0
 25 23  2  0  0  0  0
 26 23  1  0  0  0  0
 26 27  1  0  0  0  0
 27 22  1  1  0  0  0
 27 24  1  0  0  0  0
M  END
>  <MODEL>
7

>  <REMARK>
 VINA RESULT:      -6.2      2.829      6.060
  Name = 
  11 active torsions:
  status: ('A' for Active; 'I' for Inactive)
    1  A    between atoms: O_1  and  C_23
    2  A    between atoms: O_2  and  C_5
    3  A    between atoms: O_2  and  C_24
    4  A    between atoms: N_4  and  C_5
    5  A    between atoms: C_5  and  C_6
    6  A    between atoms: C_6  and  C_8
    7  A    between atoms: C_8  and  C_17
    8  A    between atoms: C_13  and  O_18
    9  A    between atoms: C_13  and  C_20
   10  A    between atoms: C_17  and  O_18
   11  A    between atoms: C_19  and  C_20
                            x       y       z     vdW  Elec       q    Type
                         _______ _______ _______ _____ _____    ______ ____

>  <TORSDO>
F 11

$$$$
=
 OpenBabel11062415463D

 27 28  0  0  1  0  0  0  0  0999 V2000
  187.8740  177.0290  144.6700 C   0  0  1  0  0  3  0  0  0  0  0  0
  189.1160  177.0240  145.4340 N   0  0  0  0  0  0  0  0  0  0  0  0
  190.4130  177.0690  147.3930 N   0  0  0  0  0  1  0  0  0  0  0  0
  187.9580  177.1640  147.4990 N   0  0  0  0  0  1  0  0  0  0  0  0
  189.1550  177.0780  146.7300 C   0  0  0  0  0  0  0  0  0  0  0  0
  187.3910  178.3380  144.5790 O   0  0  0  0  0  0  0  0  0  0  0  0
  185.6780  178.6710  142.9530 C   0  0  0  0  0  2  0  0  0  0  0  0
  185.2350  179.0970  145.2760 C   0  0  1  0  0  3  0  0  0  0  0  0
  184.0260  179.5720  144.4880 C   0  0  0  0  0  2  0  0  0  0  0  0
  184.7090  178.1790  146.7050 Cl  0  0  0  0  0  0  0  0  0  0  0  0
  184.2510  179.1760  143.0370 C   0  0  2  0  0  3  0  0  0  0  0  0
  186.0200  178.1990  144.3470 C   0  0  2  0  0  3  0  0  0  0  0  0
  183.3720  178.1440  142.6980 O   0  0  0  0  0  0  0  0  0  0  0  0
  182.8470  178.5140  141.4590 C   0  0  0  0  0  1  0  0  0  0  0  0
  188.1190  176.4630  143.2750 C   0  0  0  0  0  2  0  0  0  0  0  0
  189.2100  177.2170  142.5850 C   0  0  0  0  0  0  0  0  0  0  0  0
  189.0440  178.4420  142.3500 O   0  0  0  0  0  0  0  0  0  0  0  0
  190.4560  176.5280  142.1790 C   0  0  0  0  0  0  0  0  0  0  0  0
  191.3590  176.3500  143.0390 O   0  0  0  0  0  0  0  0  0  0  0  0
  190.6770  176.0600  140.8790 O   0  0  0  0  0  0  0  0  0  0  0  0
  190.9660  176.9050  139.7730 C   0  0  0  0  0  2  0  0  0  0  0  0
  190.2430  176.4040  138.5340 C   0  0  0  0  0  2  0  0  0  0  0  0
  187.6800  178.1390  138.8520 C   0  0  0  0  0  0  0  0  0  0  0  0
  189.1200  178.5350  138.8900 C   0  0  0  0  0  2  0  0  0  0  0  0
  186.6290  178.5370  139.4180 O   0  0  0  0  0  0  0  0  0  0  0  0
  188.0060  177.0850  137.8730 N   0  0  0  0  0  2  0  0  0  0  0  0
  189.3870  177.5070  137.9240 C   0  0  2  0  0  3  0  0  0  0  0  0
  1 15  1  6  0  0  0
  1  2  1  0  0  0  0
  2  5  2  0  0  0  0
  5  3  1  0  0  0  0
  5  4  1  0  0  0  0
  6  1  1  0  0  0  0
  7 11  1  0  0  0  0
  7 12  1  0  0  0  0
  8 10  1  1  0  0  0
  9  8  1  0  0  0  0
 11 13  1  1  0  0  0
 11  9  1  0  0  0  0
 12  6  1  1  0  0  0
 12  8  1  0  0  0  0
 14 13  1  0  0  0  0
 16 15  1  0  0  0  0
 17 16  2  0  0  0  0
 18 16  1  0  0  0  0
 18 19  2  0  0  0  0
 20 18  1  0  0  0  0
 21 20  1  0  0  0  0
 22 21  1  0  0  0  0
 23 24  1  0  0  0  0
 23 25  2  0  0  0  0
 26 27  1  0  0  0  0
 26 23  1  0  0  0  0
 27 22  1  1  0  0  0
 27 24  1  0  0  0  0
M  END
>  <MODEL>
8

>  <REMARK>
 VINA RESULT:      -6.2      2.545      5.602
  Name = 
  11 active torsions:
  status: ('A' for Active; 'I' for Inactive)
    1  A    between atoms: O_1  and  C_23
    2  A    between atoms: O_2  and  C_5
    3  A    between atoms: O_2  and  C_24
    4  A    between atoms: N_4  and  C_5
    5  A    between atoms: C_5  and  C_6
    6  A    between atoms: C_6  and  C_8
    7  A    between atoms: C_8  and  C_17
    8  A    between atoms: C_13  and  O_18
    9  A    between atoms: C_13  and  C_20
   10  A    between atoms: C_17  and  O_18
   11  A    between atoms: C_19  and  C_20
                            x       y       z     vdW  Elec       q    Type
                         _______ _______ _______ _____ _____    ______ ____

>  <TORSDO>
F 11

$$$$
=
 OpenBabel11062415463D

 27 28  0  0  1  0  0  0  0  0999 V2000
  189.1080  177.8830  140.9490 C   0  0  1  0  0  3  0  0  0  0  0  0
  188.1780  177.4710  139.9040 N   0  0  0  0  0  0  0  0  0  0  0  0
  187.2190  177.5300  137.7600 N   0  0  0  0  0  1  0  0  0  0  0  0
  189.0650  179.0400  138.3620 N   0  0  0  0  0  1  0  0  0  0  0  0
  188.1630  177.9940  138.7170 C   0  0  0  0  0  0  0  0  0  0  0  0
  188.4680  178.7770  141.8130 O   0  0  0  0  0  0  0  0  0  0  0  0
  186.1170  179.1250  141.6000 C   0  0  0  0  0  2  0  0  0  0  0  0
  187.0030  178.0370  143.5510 C   0  0  1  0  0  3  0  0  0  0  0  0
  185.5230  178.2720  143.7950 C   0  0  0  0  0  2  0  0  0  0  0  0
  187.4500  176.3900  144.0510 Cl  0  0  0  0  0  0  0  0  0  0  0  0
  184.9380  178.8340  142.5080 C   0  0  2  0  0  3  0  0  0  0  0  0
  187.2190  178.2010  142.0630 C   0  0  2  0  0  3  0  0  0  0  0  0
  184.1200  177.8700  141.9130 O   0  0  0  0  0  0  0  0  0  0  0  0
  183.2840  178.5890  141.0580 C   0  0  0  0  0  1  0  0  0  0  0  0
  189.5940  176.6630  141.7240 C   0  0  0  0  0  2  0  0  0  0  0  0
  190.9270  176.9300  142.3450 C   0  0  0  0  0  0  0  0  0  0  0  0
  191.7880  177.5640  141.6810 O   0  0  0  0  0  0  0  0  0  0  0  0
  191.2270  176.4480  143.7130 C   0  0  0  0  0  0  0  0  0  0  0  0
  191.8000  175.3350  143.8520 O   0  0  0  0  0  0  0  0  0  0  0  0
  190.9040  177.1760  144.8640 O   0  0  0  0  0  0  0  0  0  0  0  0
  191.3020  176.7990  146.1750 C   0  0  0  0  0  2  0  0  0  0  0  0
  190.0860  176.3860  146.9870 C   0  0  0  0  0  2  0  0  0  0  0  0
  187.4540  178.0010  147.3720 C   0  0  0  0  0  0  0  0  0  0  0  0
  188.2530  177.2150  148.3600 C   0  0  0  0  0  2  0  0  0  0  0  0
  186.2320  178.2540  147.2120 O   0  0  0  0  0  0  0  0  0  0  0  0
  188.6970  178.3540  146.6610 N   0  0  0  0  0  2  0  0  0  0  0  0
  189.4380  177.5980  147.6450 C   0  0  2  0  0  3  0  0  0  0  0  0
  1 15  1  1  0  0  0
  1  6  1  0  0  0  0
  2  1  1  0  0  0  0
  3  5  1  0  0  0  0
  4  5  1  0  0  0  0
  5  2  2  0  0  0  0
  7 12  1  0  0  0  0
  7 11  1  0  0  0  0
  8  9  1  0  0  0  0
  8 10  1  6  0  0  0
 11 13  1  6  0  0  0
 11  9  1  0  0  0  0
 12  6  1  1  0  0  0
 12  8  1  0  0  0  0
 14 13  1  0  0  0  0
 15 16  1  0  0  0  0
 16 18  1  0  0  0  0
 17 16  2  0  0  0  0
 18 19  2  0  0  0  0
 18 20  1  0  0  0  0
 20 21  1  0  0  0  0
 21 22  1  0  0  0  0
 23 24  1  0  0  0  0
 25 23  2  0  0  0  0
 26 23  1  0  0  0  0
 26 27  1  0  0  0  0
 27 22  1  6  0  0  0
 27 24  1  0  0  0  0
M  END
>  <MODEL>
9

>  <REMARK>
 VINA RESULT:      -6.2      2.471      6.879
  Name = 
  11 active torsions:
  status: ('A' for Active; 'I' for Inactive)
    1  A    between atoms: O_1  and  C_23
    2  A    between atoms: O_2  and  C_5
    3  A    between atoms: O_2  and  C_24
    4  A    between atoms: N_4  and  C_5
    5  A    between atoms: C_5  and  C_6
    6  A    between atoms: C_6  and  C_8
    7  A    between atoms: C_8  and  C_17
    8  A    between atoms: C_13  and  O_18
    9  A    between atoms: C_13  and  C_20
   10  A    between atoms: C_17  and  O_18
   11  A    between atoms: C_19  and  C_20
                            x       y       z     vdW  Elec       q    Type
                         _______ _______ _______ _____ _____    ______ ____

>  <TORSDO>
F 11

$$$$
