=
 OpenBabel11062416493D

 34 35  0  0  1  0  0  0  0  0999 V2000
  183.9540  177.7140  139.1840 O   0  0  0  0  0  1  0  0  0  0  0  0
  184.7030  178.8920  139.3400 C   0  0  1  0  0  0  0  0  0  0  0  0
  185.7250  178.9960  138.2830 N   0  0  0  0  0  2  0  0  0  0  0  0
  186.0610  177.7180  137.7990 N   0  0  0  0  0  2  0  0  0  0  0  0
  189.4960  176.4600  137.0800 C   0  0  0  0  0  0  0  0  0  0  0  0
  188.4690  177.0140  137.7610 C   0  0  0  0  0  0  0  0  0  0  0  0
  189.3740  176.2420  135.5870 C   0  0  2  0  0  3  0  0  0  0  0  0
  187.2470  177.4470  137.0450 C   0  0  0  0  0  0  0  0  0  0  0  0
  190.6350  176.2360  134.9860 O   0  0  0  0  0  1  0  0  0  0  0  0
  187.2410  177.5260  135.7080 C   0  0  0  0  0  3  0  0  0  0  0  0
  188.5080  177.3150  134.9320 C   0  0  0  0  0  2  0  0  0  0  0  0
  190.6880  175.8950  137.7980 C   0  0  0  0  0  2  0  0  0  0  0  0
  190.5570  174.5120  137.9270 O   0  0  0  0  0  1  0  0  0  0  0  0
  188.9070  178.3980  139.7540 C   0  0  0  0  0  1  0  0  0  0  0  0
  188.5110  177.1620  139.1520 O   0  0  0  0  0  0  0  0  0  0  0  0
  183.8030  180.0470  139.2610 N   0  0  0  0  0  2  0  0  0  0  0  0
  181.7580  180.8700  138.2270 C   0  0  0  0  0  1  0  0  0  0  0  0
  182.4840  179.6560  138.7650 C   0  0  0  0  0  2  0  0  0  0  0  0
  185.3470  178.9310  140.7400 C   0  0  0  0  0  2  0  0  0  0  0  0
  184.3300  179.0010  141.8760 C   0  0  0  0  0  2  0  0  0  0  0  0
  185.0250  179.2260  143.2010 C   0  0  0  0  0  2  0  0  0  0  0  0
  185.6390  177.9310  143.6970 C   0  0  0  0  0  2  0  0  0  0  0  0
  186.7120  178.2300  144.7410 C   0  0  2  0  0  3  0  0  0  0  0  0
  188.6640  177.3630  146.0810 C   0  0  0  0  0  2  0  0  0  0  0  0
  187.5700  176.9920  145.0590 C   0  0  2  0  0  3  0  0  0  0  0  0
  189.2430  177.2410  143.1660 C   0  0  0  0  0  2  0  0  0  0  0  0
  190.3090  177.7250  144.1740 C   0  0  1  0  0  0  0  0  0  0  0  0
  190.1770  179.1150  144.2730 O   0  0  0  0  0  1  0  0  0  0  0  0
  190.0990  177.1330  145.5830 C   0  0  0  0  0  2  0  0  0  0  0  0
  188.1640  176.3500  143.7940 C   0  0  0  0  0  2  0  0  0  0  0  0
  191.6130  177.4540  143.6880 O   0  0  0  0  0  0  0  0  0  0  0  0
  191.5960  177.3800  142.2800 C   0  0  0  0  0  1  0  0  0  0  0  0
  186.0570  178.7150  145.9670 C   0  0  0  0  0  0  0  0  0  0  0  0
  185.5280  179.0870  146.9320 N   0  0  0  0  0  0  0  0  0  0  0  0
  2  1  1  6  0  0  0
  2 19  1  0  0  0  0
  3  2  1  0  0  0  0
  4  3  1  0  0  0  0
  5  6  2  0  0  0  0
  5 12  1  0  0  0  0
  6 15  1  0  0  0  0
  7  9  1  6  0  0  0
  7  5  1  0  0  0  0
  8  6  1  0  0  0  0
  8  4  1  0  0  0  0
 10  8  2  0  0  0  0
 11  7  1  0  0  0  0
 11 10  1  0  0  0  0
 12 13  1  0  0  0  0
 15 14  1  0  0  0  0
 16  2  1  0  0  0  0
 17 18  1  0  0  0  0
 18 16  1  0  0  0  0
 19 20  1  0  0  0  0
 20 21  1  0  0  0  0
 21 22  1  0  0  0  0
 23 22  1  6  0  0  0
 23 33  1  0  0  0  0
 25 23  1  6  0  0  0
 25 24  1  0  0  0  0
 26 30  1  0  0  0  0
 26 27  1  0  0  0  0
 27 28  1  1  0  0  0
 27 29  1  0  0  0  0
 29 24  1  0  0  0  0
 30 25  1  0  0  0  0
 31 27  1  0  0  0  0
 32 31  1  0  0  0  0
 33 34  3  0  0  0  0
M  END
>  <MODEL>
1

>  <REMARK>
 VINA RESULT:      -6.9      0.000      0.000
  Name = 
  15 active torsions:
  status: ('A' for Active; 'I' for Inactive)
    1  A    between atoms: C_1  and  C_7
    2  A    between atoms: C_1  and  C_12
    3  A    between atoms: C_1  and  C_33
    4  A    between atoms: N_2  and  N_24
    5  A    between atoms: N_2  and  C_30
    6  A    between atoms: C_3  and  C_10
    7  A    between atoms: O_4  and  C_17
    8  A    between atoms: C_6  and  O_19
    9  A    between atoms: N_9  and  C_18
   10  A    between atoms: N_9  and  C_30
   11  A    between atoms: C_16  and  C_23
   12  A    between atoms: C_16  and  C_33
   13  A    between atoms: C_20  and  N_24
   14  A    between atoms: C_23  and  C_27
   15  A    between atoms: C_27  and  C_30
                            x       y       z     vdW  Elec       q    Type
                         _______ _______ _______ _____ _____    ______ ____

>  <TORSDO>
F 15

$$$$
=
 OpenBabel11062416493D

 34 35  0  0  1  0  0  0  0  0999 V2000
  183.7620  177.5120  138.8120 O   0  0  0  0  0  1  0  0  0  0  0  0
  183.9930  178.6690  139.5770 C   0  0  1  0  0  0  0  0  0  0  0  0
  185.2140  179.3550  139.1150 N   0  0  0  0  0  2  0  0  0  0  0  0
  185.8520  178.5990  138.1130 N   0  0  0  0  0  2  0  0  0  0  0  0
  188.5300  176.0940  137.4440 C   0  0  0  0  0  0  0  0  0  0  0  0
  187.3050  176.6620  137.4530 C   0  0  0  0  0  0  0  0  0  0  0  0
  189.6270  176.6610  138.3190 C   0  0  2  0  0  3  0  0  0  0  0  0
  187.0220  177.8090  138.3480 C   0  0  0  0  0  0  0  0  0  0  0  0
  190.5650  175.6750  138.6350 O   0  0  0  0  0  1  0  0  0  0  0  0
  187.8830  178.1320  139.3220 C   0  0  0  0  0  3  0  0  0  0  0  0
  189.0650  177.2550  139.6090 C   0  0  0  0  0  2  0  0  0  0  0  0
  188.8780  175.0170  136.4560 C   0  0  0  0  0  2  0  0  0  0  0  0
  189.5870  175.5630  135.3850 O   0  0  0  0  0  1  0  0  0  0  0  0
  185.3970  175.1690  136.9990 C   0  0  0  0  0  1  0  0  0  0  0  0
  186.2860  176.2170  136.6030 O   0  0  0  0  0  0  0  0  0  0  0  0
  182.8470  179.5720  139.4390 N   0  0  0  0  0  2  0  0  0  0  0  0
  180.6930  179.6180  140.5750 C   0  0  0  0  0  1  0  0  0  0  0  0
  181.5850  178.8550  139.6190 C   0  0  0  0  0  2  0  0  0  0  0  0
  184.0920  178.3070  141.0710 C   0  0  0  0  0  2  0  0  0  0  0  0
  185.3440  178.8560  141.7490 C   0  0  0  0  0  2  0  0  0  0  0  0
  185.0110  179.4110  143.1160 C   0  0  0  0  0  2  0  0  0  0  0  0
  185.0840  178.3150  144.1610 C   0  0  0  0  0  2  0  0  0  0  0  0
  186.3580  178.4670  144.9870 C   0  0  2  0  0  3  0  0  0  0  0  0
  188.3220  177.3200  146.0770 C   0  0  0  0  0  2  0  0  0  0  0  0
  187.1140  177.1330  145.1360 C   0  0  2  0  0  3  0  0  0  0  0  0
  188.6360  177.3780  143.1200 C   0  0  0  0  0  2  0  0  0  0  0  0
  189.8270  177.6800  144.0570 C   0  0  1  0  0  0  0  0  0  0  0  0
  189.8420  179.0640  144.2660 O   0  0  0  0  0  1  0  0  0  0  0  0
  189.6800  176.9990  145.4330 C   0  0  0  0  0  2  0  0  0  0  0  0
  187.5320  176.5420  143.7790 C   0  0  0  0  0  2  0  0  0  0  0  0
  191.0520  177.3300  143.4350 O   0  0  0  0  0  0  0  0  0  0  0  0
  191.4130  176.0140  143.7910 C   0  0  0  0  0  1  0  0  0  0  0  0
  186.0000  178.9910  146.3160 C   0  0  0  0  0  0  0  0  0  0  0  0
  185.7330  179.4030  147.3680 N   0  0  0  0  0  0  0  0  0  0  0  0
  2  1  1  6  0  0  0
  2 19  1  0  0  0  0
  3  2  1  0  0  0  0
  4  8  1  0  0  0  0
  4  3  1  0  0  0  0
  5  6  2  0  0  0  0
  5  7  1  0  0  0  0
  6  8  1  0  0  0  0
  7  9  1  1  0  0  0
  7 11  1  0  0  0  0
  8 10  2  0  0  0  0
 10 11  1  0  0  0  0
 12  5  1  0  0  0  0
 13 12  1  0  0  0  0
 15 14  1  0  0  0  0
 15  6  1  0  0  0  0
 16  2  1  0  0  0  0
 16 18  1  0  0  0  0
 18 17  1  0  0  0  0
 19 20  1  0  0  0  0
 20 21  1  0  0  0  0
 21 22  1  0  0  0  0
 23 22  1  6  0  0  0
 23 33  1  0  0  0  0
 25 23  1  6  0  0  0
 25 24  1  0  0  0  0
 26 30  1  0  0  0  0
 26 27  1  0  0  0  0
 27 28  1  1  0  0  0
 27 29  1  0  0  0  0
 29 24  1  0  0  0  0
 30 25  1  0  0  0  0
 31 32  1  0  0  0  0
 31 27  1  0  0  0  0
 33 34  3  0  0  0  0
M  END
>  <MODEL>
2

>  <REMARK>
 VINA RESULT:      -6.9      1.293      2.061
  Name = 
  15 active torsions:
  status: ('A' for Active; 'I' for Inactive)
    1  A    between atoms: C_1  and  C_7
    2  A    between atoms: C_1  and  C_12
    3  A    between atoms: C_1  and  C_33
    4  A    between atoms: N_2  and  N_24
    5  A    between atoms: N_2  and  C_30
    6  A    between atoms: C_3  and  C_10
    7  A    between atoms: O_4  and  C_17
    8  A    between atoms: C_6  and  O_19
    9  A    between atoms: N_9  and  C_18
   10  A    between atoms: N_9  and  C_30
   11  A    between atoms: C_16  and  C_23
   12  A    between atoms: C_16  and  C_33
   13  A    between atoms: C_20  and  N_24
   14  A    between atoms: C_23  and  C_27
   15  A    between atoms: C_27  and  C_30
                            x       y       z     vdW  Elec       q    Type
                         _______ _______ _______ _____ _____    ______ ____

>  <TORSDO>
F 15

$$$$
=
 OpenBabel11062416493D

 34 35  0  0  1  0  0  0  0  0999 V2000
  184.2950  180.5510  138.9930 O   0  0  0  0  0  1  0  0  0  0  0  0
  184.2570  179.3710  139.7550 C   0  0  1  0  0  0  0  0  0  0  0  0
  185.2340  179.4390  140.8560 N   0  0  0  0  0  2  0  0  0  0  0  0
  185.0650  178.3480  141.7300 N   0  0  0  0  0  2  0  0  0  0  0  0
  185.7410  178.2060  145.3940 C   0  0  0  0  0  0  0  0  0  0  0  0
  185.2130  178.6180  144.2210 C   0  0  0  0  0  0  0  0  0  0  0  0
  186.9220  177.2600  145.3930 C   0  0  2  0  0  3  0  0  0  0  0  0
  185.8140  178.1830  142.9380 C   0  0  0  0  0  0  0  0  0  0  0  0
  187.6720  177.4070  146.5620 O   0  0  0  0  0  1  0  0  0  0  0  0
  187.0150  177.5900  142.9240 C   0  0  0  0  0  3  0  0  0  0  0  0
  187.8250  177.4900  144.1820 C   0  0  0  0  0  2  0  0  0  0  0  0
  185.0740  178.5280  146.7000 C   0  0  0  0  0  2  0  0  0  0  0  0
  185.7080  179.6130  147.3060 O   0  0  0  0  0  1  0  0  0  0  0  0
  182.7630  178.8660  144.0990 C   0  0  0  0  0  1  0  0  0  0  0  0
  184.0750  179.4320  144.1770 O   0  0  0  0  0  0  0  0  0  0  0  0
  182.9110  179.2010  140.3110 N   0  0  0  0  0  2  0  0  0  0  0  0
  181.1250  177.5490  140.4320 C   0  0  0  0  0  1  0  0  0  0  0  0
  182.1380  178.2290  139.5370 C   0  0  0  0  0  2  0  0  0  0  0  0
  184.5190  178.1480  138.8550 C   0  0  0  0  0  2  0  0  0  0  0  0
  185.8640  178.1990  138.1360 C   0  0  0  0  0  2  0  0  0  0  0  0
  186.0590  176.9660  137.2810 C   0  0  0  0  0  2  0  0  0  0  0  0
  187.4460  176.9650  136.6690 C   0  0  0  0  0  2  0  0  0  0  0  0
  188.4640  176.4600  137.6870 C   0  0  2  0  0  3  0  0  0  0  0  0
  190.8770  176.6740  138.3890 C   0  0  0  0  0  2  0  0  0  0  0  0
  189.6460  177.4340  137.8550 C   0  0  2  0  0  3  0  0  0  0  0  0
  189.1040  178.2230  140.2060 C   0  0  0  0  0  2  0  0  0  0  0  0
  190.2680  177.3690  140.7590 C   0  0  1  0  0  0  0  0  0  0  0  0
  189.7470  176.1000  141.0390 O   0  0  0  0  0  1  0  0  0  0  0  0
  191.4070  177.1930  139.7340 C   0  0  0  0  0  2  0  0  0  0  0  0
  189.2900  178.6390  138.7420 C   0  0  0  0  0  2  0  0  0  0  0  0
  190.7480  177.9110  141.9780 O   0  0  0  0  0  0  0  0  0  0  0  0
  191.2780  176.8830  142.7850 C   0  0  0  0  0  1  0  0  0  0  0  0
  188.9580  175.1440  137.2490 C   0  0  0  0  0  0  0  0  0  0  0  0
  189.3330  174.1000  136.9050 N   0  0  0  0  0  0  0  0  0  0  0  0
  2  1  1  6  0  0  0
  2 16  1  0  0  0  0
  2  3  1  0  0  0  0
  3  4  1  0  0  0  0
  4  8  1  0  0  0  0
  5 12  1  0  0  0  0
  6  5  2  0  0  0  0
  7  5  1  0  0  0  0
  7  9  1  1  0  0  0
  8  6  1  0  0  0  0
 10  8  2  0  0  0  0
 10 11  1  0  0  0  0
 11  7  1  0  0  0  0
 12 13  1  0  0  0  0
 14 15  1  0  0  0  0
 15  6  1  0  0  0  0
 18 16  1  0  0  0  0
 18 17  1  0  0  0  0
 19  2  1  0  0  0  0
 20 19  1  0  0  0  0
 21 20  1  0  0  0  0
 22 21  1  0  0  0  0
 23 22  1  6  0  0  0
 24 29  1  0  0  0  0
 25 23  1  1  0  0  0
 25 24  1  0  0  0  0
 25 30  1  0  0  0  0
 26 27  1  0  0  0  0
 27 28  1  1  0  0  0
 27 31  1  0  0  0  0
 29 27  1  0  0  0  0
 30 26  1  0  0  0  0
 31 32  1  0  0  0  0
 33 23  1  0  0  0  0
 34 33  3  0  0  0  0
M  END
>  <MODEL>
3

>  <REMARK>
 VINA RESULT:      -6.9      2.317      6.913
  Name = 
  15 active torsions:
  status: ('A' for Active; 'I' for Inactive)
    1  A    between atoms: C_1  and  C_7
    2  A    between atoms: C_1  and  C_12
    3  A    between atoms: C_1  and  C_33
    4  A    between atoms: N_2  and  N_24
    5  A    between atoms: N_2  and  C_30
    6  A    between atoms: C_3  and  C_10
    7  A    between atoms: O_4  and  C_17
    8  A    between atoms: C_6  and  O_19
    9  A    between atoms: N_9  and  C_18
   10  A    between atoms: N_9  and  C_30
   11  A    between atoms: C_16  and  C_23
   12  A    between atoms: C_16  and  C_33
   13  A    between atoms: C_20  and  N_24
   14  A    between atoms: C_23  and  C_27
   15  A    between atoms: C_27  and  C_30
                            x       y       z     vdW  Elec       q    Type
                         _______ _______ _______ _____ _____    ______ ____

>  <TORSDO>
F 15

$$$$
=
 OpenBabel11062416493D

 34 35  0  0  1  0  0  0  0  0999 V2000
  183.6410  177.3550  140.8210 O   0  0  0  0  0  1  0  0  0  0  0  0
  183.9980  178.6690  141.1700 C   0  0  1  0  0  0  0  0  0  0  0  0
  184.3550  179.4410  139.9660 N   0  0  0  0  0  2  0  0  0  0  0  0
  185.5850  178.9960  139.4450 N   0  0  0  0  0  2  0  0  0  0  0  0
  187.2480  177.2290  136.6150 C   0  0  0  0  0  0  0  0  0  0  0  0
  187.0480  178.1340  137.5970 C   0  0  0  0  0  0  0  0  0  0  0  0
  186.1050  176.3420  136.1690 C   0  0  2  0  0  3  0  0  0  0  0  0
  185.7060  178.2900  138.2060 C   0  0  0  0  0  0  0  0  0  0  0  0
  186.2870  175.9330  134.8460 O   0  0  0  0  0  1  0  0  0  0  0  0
  184.6360  177.7250  137.6320 C   0  0  0  0  0  3  0  0  0  0  0  0
  184.7590  177.0530  136.2970 C   0  0  0  0  0  2  0  0  0  0  0  0
  188.6230  176.9630  136.0740 C   0  0  0  0  0  2  0  0  0  0  0  0
  189.1420  175.7970  136.6390 O   0  0  0  0  0  1  0  0  0  0  0  0
  188.9040  178.4750  139.1840 C   0  0  0  0  0  1  0  0  0  0  0  0
  188.0950  178.9200  138.0920 O   0  0  0  0  0  0  0  0  0  0  0  0
  182.8630  179.3120  141.8400 N   0  0  0  0  0  2  0  0  0  0  0  0
  180.6540  178.7000  142.6620 C   0  0  0  0  0  1  0  0  0  0  0  0
  181.6020  178.6640  141.4830 C   0  0  0  0  0  2  0  0  0  0  0  0
  185.1570  178.6530  142.1840 C   0  0  0  0  0  2  0  0  0  0  0  0
  184.8870  179.4920  143.4300 C   0  0  0  0  0  2  0  0  0  0  0  0
  185.1640  178.6900  144.6830 C   0  0  0  0  0  2  0  0  0  0  0  0
  186.1920  177.6130  144.4010 C   0  0  0  0  0  2  0  0  0  0  0  0
  187.4910  177.9270  145.1370 C   0  0  2  0  0  3  0  0  0  0  0  0
  189.8210  177.1720  145.7400 C   0  0  0  0  0  2  0  0  0  0  0  0
  188.5330  176.8030  144.9770 C   0  0  2  0  0  3  0  0  0  0  0  0
  189.5770  177.6130  142.8090 C   0  0  0  0  0  2  0  0  0  0  0  0
  190.8230  178.0900  143.5890 C   0  0  1  0  0  0  0  0  0  0  0  0
  190.5740  179.4080  143.9900 O   0  0  0  0  0  1  0  0  0  0  0  0
  191.0770  177.2530  144.8600 C   0  0  0  0  0  2  0  0  0  0  0  0
  188.8180  176.4740  143.5010 C   0  0  0  0  0  2  0  0  0  0  0  0
  191.9620  178.1090  142.7450 O   0  0  0  0  0  0  0  0  0  0  0  0
  191.6710  177.4540  141.5300 C   0  0  0  0  0  1  0  0  0  0  0  0
  187.1900  178.1310  146.5630 C   0  0  0  0  0  0  0  0  0  0  0  0
  186.9430  178.2780  147.6890 N   0  0  0  0  0  0  0  0  0  0  0  0
  2  1  1  6  0  0  0
  2 16  1  0  0  0  0
  2 19  1  0  0  0  0
  3  2  1  0  0  0  0
  4  3  1  0  0  0  0
  5  6  2  0  0  0  0
  6 15  1  0  0  0  0
  6  8  1  0  0  0  0
  7  9  1  6  0  0  0
  7 11  1  0  0  0  0
  7  5  1  0  0  0  0
  8  4  1  0  0  0  0
 10  8  2  0  0  0  0
 11 10  1  0  0  0  0
 12  5  1  0  0  0  0
 12 13  1  0  0  0  0
 15 14  1  0  0  0  0
 18 16  1  0  0  0  0
 18 17  1  0  0  0  0
 19 20  1  0  0  0  0
 20 21  1  0  0  0  0
 22 21  1  0  0  0  0
 23 22  1  6  0  0  0
 23 33  1  0  0  0  0
 25 23  1  6  0  0  0
 25 24  1  0  0  0  0
 26 30  1  0  0  0  0
 26 27  1  0  0  0  0
 27 28  1  1  0  0  0
 27 29  1  0  0  0  0
 29 24  1  0  0  0  0
 30 25  1  0  0  0  0
 31 27  1  0  0  0  0
 32 31  1  0  0  0  0
 33 34  3  0  0  0  0
M  END
>  <MODEL>
4

>  <REMARK>
 VINA RESULT:      -6.7      1.715      2.238
  Name = 
  15 active torsions:
  status: ('A' for Active; 'I' for Inactive)
    1  A    between atoms: C_1  and  C_7
    2  A    between atoms: C_1  and  C_12
    3  A    between atoms: C_1  and  C_33
    4  A    between atoms: N_2  and  N_24
    5  A    between atoms: N_2  and  C_30
    6  A    between atoms: C_3  and  C_10
    7  A    between atoms: O_4  and  C_17
    8  A    between atoms: C_6  and  O_19
    9  A    between atoms: N_9  and  C_18
   10  A    between atoms: N_9  and  C_30
   11  A    between atoms: C_16  and  C_23
   12  A    between atoms: C_16  and  C_33
   13  A    between atoms: C_20  and  N_24
   14  A    between atoms: C_23  and  C_27
   15  A    between atoms: C_27  and  C_30
                            x       y       z     vdW  Elec       q    Type
                         _______ _______ _______ _____ _____    ______ ____

>  <TORSDO>
F 15

$$$$
=
 OpenBabel11062416493D

 34 35  0  0  1  0  0  0  0  0999 V2000
  185.5620  180.1440  142.3570 O   0  0  0  0  0  1  0  0  0  0  0  0
  185.4170  178.8440  141.8410 C   0  0  1  0  0  0  0  0  0  0  0  0
  186.7150  178.1450  141.8410 N   0  0  0  0  0  2  0  0  0  0  0  0
  186.9350  177.5170  143.0820 N   0  0  0  0  0  2  0  0  0  0  0  0
  189.3180  177.1480  145.9240 C   0  0  0  0  0  0  0  0  0  0  0  0
  188.1600  177.3740  145.2660 C   0  0  0  0  0  0  0  0  0  0  0  0
  190.6190  177.0930  145.1530 C   0  0  2  0  0  3  0  0  0  0  0  0
  188.1660  177.6100  143.8040 C   0  0  0  0  0  0  0  0  0  0  0  0
  191.6940  177.4400  145.9750 O   0  0  0  0  0  1  0  0  0  0  0  0
  189.3190  177.8480  143.1650 C   0  0  0  0  0  3  0  0  0  0  0  0
  190.5930  178.0190  143.9390 C   0  0  0  0  0  2  0  0  0  0  0  0
  189.3240  176.7790  147.3800 C   0  0  0  0  0  2  0  0  0  0  0  0
  189.2910  177.9330  148.1650 O   0  0  0  0  0  1  0  0  0  0  0  0
  186.3050  178.5700  146.3670 C   0  0  0  0  0  1  0  0  0  0  0  0
  186.9280  177.3580  145.9300 O   0  0  0  0  0  0  0  0  0  0  0  0
  184.4650  178.1010  142.6730 N   0  0  0  0  0  2  0  0  0  0  0  0
  182.3300  179.0160  143.4030 C   0  0  0  0  0  1  0  0  0  0  0  0
  183.8220  178.9780  143.6510 C   0  0  0  0  0  2  0  0  0  0  0  0
  184.8150  178.8980  140.4240 C   0  0  0  0  0  2  0  0  0  0  0  0
  185.7720  178.4180  139.3370 C   0  0  0  0  0  2  0  0  0  0  0  0
  185.0050  177.9030  138.1390 C   0  0  0  0  0  2  0  0  0  0  0  0
  185.9380  177.7150  136.9590 C   0  0  0  0  0  2  0  0  0  0  0  0
  187.2260  177.0370  137.4160 C   0  0  2  0  0  3  0  0  0  0  0  0
  189.4500  176.5370  136.3380 C   0  0  0  0  0  2  0  0  0  0  0  0
  188.4710  177.6540  136.7530 C   0  0  2  0  0  3  0  0  0  0  0  0
  189.8170  178.0600  138.8670 C   0  0  0  0  0  2  0  0  0  0  0  0
  190.7320  176.8660  138.5120 C   0  0  1  0  0  0  0  0  0  0  0  0
  190.1480  175.7230  139.0730 O   0  0  0  0  0  1  0  0  0  0  0  0
  190.8380  176.6380  136.9890 C   0  0  0  0  0  2  0  0  0  0  0  0
  189.1500  178.7060  137.6470 C   0  0  0  0  0  2  0  0  0  0  0  0
  192.0110  177.0250  139.1020 O   0  0  0  0  0  0  0  0  0  0  0  0
  191.8730  177.3970  140.4550 C   0  0  0  0  0  1  0  0  0  0  0  0
  187.1460  175.6030  137.0940 C   0  0  0  0  0  0  0  0  0  0  0  0
  187.0710  174.4690  136.8510 N   0  0  0  0  0  0  0  0  0  0  0  0
  2  3  1  0  0  0  0
  2  1  1  1  0  0  0
  2 16  1  0  0  0  0
  3  4  1  0  0  0  0
  4  8  1  0  0  0  0
  5 12  1  0  0  0  0
  6  5  2  0  0  0  0
  6 15  1  0  0  0  0
  7  5  1  0  0  0  0
  7  9  1  1  0  0  0
  8  6  1  0  0  0  0
 10  8  2  0  0  0  0
 10 11  1  0  0  0  0
 11  7  1  0  0  0  0
 12 13  1  0  0  0  0
 15 14  1  0  0  0  0
 16 18  1  0  0  0  0
 17 18  1  0  0  0  0
 19  2  1  0  0  0  0
 20 19  1  0  0  0  0
 21 20  1  0  0  0  0
 22 21  1  0  0  0  0
 23 22  1  6  0  0  0
 24 25  1  0  0  0  0
 24 29  1  0  0  0  0
 25 23  1  1  0  0  0
 25 30  1  0  0  0  0
 27 26  1  0  0  0  0
 27 28  1  1  0  0  0
 27 31  1  0  0  0  0
 29 27  1  0  0  0  0
 30 26  1  0  0  0  0
 31 32  1  0  0  0  0
 33 23  1  0  0  0  0
 34 33  3  0  0  0  0
M  END
>  <MODEL>
5

>  <REMARK>
 VINA RESULT:      -6.6      2.279      7.177
  Name = 
  15 active torsions:
  status: ('A' for Active; 'I' for Inactive)
    1  A    between atoms: C_1  and  C_7
    2  A    between atoms: C_1  and  C_12
    3  A    between atoms: C_1  and  C_33
    4  A    between atoms: N_2  and  N_24
    5  A    between atoms: N_2  and  C_30
    6  A    between atoms: C_3  and  C_10
    7  A    between atoms: O_4  and  C_17
    8  A    between atoms: C_6  and  O_19
    9  A    between atoms: N_9  and  C_18
   10  A    between atoms: N_9  and  C_30
   11  A    between atoms: C_16  and  C_23
   12  A    between atoms: C_16  and  C_33
   13  A    between atoms: C_20  and  N_24
   14  A    between atoms: C_23  and  C_27
   15  A    between atoms: C_27  and  C_30
                            x       y       z     vdW  Elec       q    Type
                         _______ _______ _______ _____ _____    ______ ____

>  <TORSDO>
F 15

$$$$
=
 OpenBabel11062416493D

 34 35  0  0  1  0  0  0  0  0999 V2000
  190.0530  175.5630  142.5110 O   0  0  0  0  0  1  0  0  0  0  0  0
  190.5050  176.8940  142.5050 C   0  0  1  0  0  0  0  0  0  0  0  0
  189.4800  177.7880  143.0730 N   0  0  0  0  0  2  0  0  0  0  0  0
  188.3420  177.0510  143.4530 N   0  0  0  0  0  2  0  0  0  0  0  0
  185.3220  178.5030  145.0860 C   0  0  0  0  0  0  0  0  0  0  0  0
  186.3970  177.7080  144.8960 C   0  0  0  0  0  0  0  0  0  0  0  0
  184.7970  179.3400  143.9390 C   0  0  2  0  0  3  0  0  0  0  0  0
  187.0340  177.6210  143.5610 C   0  0  0  0  0  0  0  0  0  0  0  0
  183.4360  179.6060  144.1070 O   0  0  0  0  0  1  0  0  0  0  0  0
  186.4150  178.1240  142.4850 C   0  0  0  0  0  3  0  0  0  0  0  0
  185.0150  178.6510  142.5940 C   0  0  0  0  0  2  0  0  0  0  0  0
  184.7400  178.7060  146.4550 C   0  0  0  0  0  2  0  0  0  0  0  0
  185.5780  179.5270  147.2130 O   0  0  0  0  0  1  0  0  0  0  0  0
  188.1360  177.4340  146.6230 C   0  0  0  0  0  1  0  0  0  0  0  0
  186.9610  176.9760  145.9480 O   0  0  0  0  0  0  0  0  0  0  0  0
  191.7300  176.9880  143.3060 N   0  0  0  0  0  2  0  0  0  0  0  0
  191.6670  176.6560  145.7180 C   0  0  0  0  0  1  0  0  0  0  0  0
  191.7470  175.9800  144.3660 C   0  0  0  0  0  2  0  0  0  0  0  0
  190.8820  177.3200  141.0730 C   0  0  0  0  0  2  0  0  0  0  0  0
  189.8350  176.9410  140.0290 C   0  0  0  0  0  2  0  0  0  0  0  0
  189.1040  178.1700  139.5360 C   0  0  0  0  0  2  0  0  0  0  0  0
  189.2040  178.2690  138.0260 C   0  0  0  0  0  2  0  0  0  0  0  0
  188.8610  176.9240  137.3920 C   0  0  2  0  0  3  0  0  0  0  0  0
  189.1330  175.4180  135.3870 C   0  0  0  0  0  2  0  0  0  0  0  0
  189.6830  176.6610  136.1160 C   0  0  2  0  0  3  0  0  0  0  0  0
  191.5060  175.2440  137.1720 C   0  0  0  0  0  2  0  0  0  0  0  0
  190.8880  173.9780  136.5360 C   0  0  1  0  0  0  0  0  0  0  0  0
  189.9440  173.4840  137.4440 O   0  0  0  0  0  1  0  0  0  0  0  0
  190.1530  174.2820  135.2140 C   0  0  0  0  0  2  0  0  0  0  0  0
  191.1890  176.5330  136.4050 C   0  0  0  0  0  2  0  0  0  0  0  0
  191.8750  172.9760  136.3600 O   0  0  0  0  0  0  0  0  0  0  0  0
  193.1410  173.4800  136.7220 C   0  0  0  0  0  1  0  0  0  0  0  0
  187.4240  176.9030  137.0750 C   0  0  0  0  0  0  0  0  0  0  0  0
  186.2930  176.8890  136.8100 N   0  0  0  0  0  0  0  0  0  0  0  0
  2  1  1  6  0  0  0
  2  3  1  0  0  0  0
  2 16  1  0  0  0  0
  3  4  1  0  0  0  0
  4  8  1  0  0  0  0
  5 12  1  0  0  0  0
  6  5  2  0  0  0  0
  6 15  1  0  0  0  0
  7  9  1  1  0  0  0
  7  5  1  0  0  0  0
  8  6  1  0  0  0  0
 10 11  1  0  0  0  0
 10  8  2  0  0  0  0
 11  7  1  0  0  0  0
 12 13  1  0  0  0  0
 15 14  1  0  0  0  0
 16 18  1  0  0  0  0
 18 17  1  0  0  0  0
 19  2  1  0  0  0  0
 20 19  1  0  0  0  0
 21 20  1  0  0  0  0
 22 21  1  0  0  0  0
 23 33  1  6  0  0  0
 23 22  1  0  0  0  0
 24 25  1  0  0  0  0
 25 30  1  0  0  0  0
 25 23  1  1  0  0  0
 27 26  1  0  0  0  0
 27 28  1  1  0  0  0
 29 24  1  0  0  0  0
 29 27  1  0  0  0  0
 30 26  1  0  0  0  0
 31 27  1  0  0  0  0
 31 32  1  0  0  0  0
 34 33  3  0  0  0  0
M  END
>  <MODEL>
6

>  <REMARK>
 VINA RESULT:      -6.5      2.769      8.695
  Name = 
  15 active torsions:
  status: ('A' for Active; 'I' for Inactive)
    1  A    between atoms: C_1  and  C_7
    2  A    between atoms: C_1  and  C_12
    3  A    between atoms: C_1  and  C_33
    4  A    between atoms: N_2  and  N_24
    5  A    between atoms: N_2  and  C_30
    6  A    between atoms: C_3  and  C_10
    7  A    between atoms: O_4  and  C_17
    8  A    between atoms: C_6  and  O_19
    9  A    between atoms: N_9  and  C_18
   10  A    between atoms: N_9  and  C_30
   11  A    between atoms: C_16  and  C_23
   12  A    between atoms: C_16  and  C_33
   13  A    between atoms: C_20  and  N_24
   14  A    between atoms: C_23  and  C_27
   15  A    between atoms: C_27  and  C_30
                            x       y       z     vdW  Elec       q    Type
                         _______ _______ _______ _____ _____    ______ ____

>  <TORSDO>
F 15

$$$$
=
 OpenBabel11062416493D

 34 35  0  0  1  0  0  0  0  0999 V2000
  189.0560  179.3130  138.4410 O   0  0  0  0  0  1  0  0  0  0  0  0
  188.1170  178.3030  138.7140 C   0  0  1  0  0  0  0  0  0  0  0  0
  186.8850  178.5230  137.9360 N   0  0  0  0  0  2  0  0  0  0  0  0
  186.5350  177.3560  137.2300 N   0  0  0  0  0  2  0  0  0  0  0  0
  183.9490  174.6750  137.0860 C   0  0  0  0  0  0  0  0  0  0  0  0
  185.0570  175.3820  136.7700 C   0  0  0  0  0  0  0  0  0  0  0  0
  182.9140  175.2770  138.0110 C   0  0  2  0  0  3  0  0  0  0  0  0
  185.2380  176.7560  137.2920 C   0  0  0  0  0  0  0  0  0  0  0  0
  181.6540  174.7260  137.7650 O   0  0  0  0  0  1  0  0  0  0  0  0
  184.2130  177.4000  137.8670 C   0  0  0  0  0  3  0  0  0  0  0  0
  182.8400  176.7950  137.8600 C   0  0  0  0  0  2  0  0  0  0  0  0
  183.8040  173.2380  136.6760 C   0  0  0  0  0  2  0  0  0  0  0  0
  184.4590  172.4120  137.5910 O   0  0  0  0  0  1  0  0  0  0  0  0
  186.2980  175.2880  134.6420 C   0  0  0  0  0  1  0  0  0  0  0  0
  186.0740  174.8330  135.9800 O   0  0  0  0  0  0  0  0  0  0  0  0
  188.6930  177.0030  138.3540 N   0  0  0  0  0  2  0  0  0  0  0  0
  190.9570  176.1210  138.5220 C   0  0  0  0  0  1  0  0  0  0  0  0
  190.0630  177.1500  137.8630 C   0  0  0  0  0  2  0  0  0  0  0  0
  187.8180  178.2500  140.2240 C   0  0  0  0  0  2  0  0  0  0  0  0
  186.3770  178.6090  140.5720 C   0  0  0  0  0  2  0  0  0  0  0  0
  186.2920  179.1770  141.9720 C   0  0  0  0  0  2  0  0  0  0  0  0
  185.8690  178.0990  142.9510 C   0  0  0  0  0  2  0  0  0  0  0  0
  186.5610  178.3150  144.2940 C   0  0  2  0  0  3  0  0  0  0  0  0
  188.2170  177.4050  145.9640 C   0  0  0  0  0  2  0  0  0  0  0  0
  187.3050  177.0540  144.7710 C   0  0  2  0  0  3  0  0  0  0  0  0
  189.2910  177.2150  143.1970 C   0  0  0  0  0  2  0  0  0  0  0  0
  190.1820  177.6790  144.3710 C   0  0  1  0  0  0  0  0  0  0  0  0
  190.0850  179.0740  144.4310 O   0  0  0  0  0  1  0  0  0  0  0  0
  189.7080  177.1180  145.7280 C   0  0  0  0  0  2  0  0  0  0  0  0
  188.0880  176.3710  143.6360 C   0  0  0  0  0  2  0  0  0  0  0  0
  191.5400  177.3560  144.1240 O   0  0  0  0  0  0  0  0  0  0  0  0
  191.6670  175.9760  143.8670 C   0  0  0  0  0  1  0  0  0  0  0  0
  185.5500  178.7070  145.2900 C   0  0  0  0  0  0  0  0  0  0  0  0
  184.7480  179.0010  146.0770 N   0  0  0  0  0  0  0  0  0  0  0  0
  2  1  1  6  0  0  0
  2 19  1  0  0  0  0
  3  2  1  0  0  0  0
  4  8  1  0  0  0  0
  4  3  1  0  0  0  0
  5  7  1  0  0  0  0
  6  5  2  0  0  0  0
  6  8  1  0  0  0  0
  7  9  1  6  0  0  0
  8 10  2  0  0  0  0
 11 10  1  0  0  0  0
 11  7  1  0  0  0  0
 12  5  1  0  0  0  0
 12 13  1  0  0  0  0
 14 15  1  0  0  0  0
 15  6  1  0  0  0  0
 16  2  1  0  0  0  0
 18 16  1  0  0  0  0
 18 17  1  0  0  0  0
 19 20  1  0  0  0  0
 20 21  1  0  0  0  0
 21 22  1  0  0  0  0
 23 22  1  6  0  0  0
 23 33  1  0  0  0  0
 25 23  1  6  0  0  0
 25 24  1  0  0  0  0
 26 30  1  0  0  0  0
 26 27  1  0  0  0  0
 27 28  1  1  0  0  0
 27 29  1  0  0  0  0
 29 24  1  0  0  0  0
 30 25  1  0  0  0  0
 31 27  1  0  0  0  0
 32 31  1  0  0  0  0
 33 34  3  0  0  0  0
M  END
>  <MODEL>
7

>  <REMARK>
 VINA RESULT:      -6.4      2.436      4.483
  Name = 
  15 active torsions:
  status: ('A' for Active; 'I' for Inactive)
    1  A    between atoms: C_1  and  C_7
    2  A    between atoms: C_1  and  C_12
    3  A    between atoms: C_1  and  C_33
    4  A    between atoms: N_2  and  N_24
    5  A    between atoms: N_2  and  C_30
    6  A    between atoms: C_3  and  C_10
    7  A    between atoms: O_4  and  C_17
    8  A    between atoms: C_6  and  O_19
    9  A    between atoms: N_9  and  C_18
   10  A    between atoms: N_9  and  C_30
   11  A    between atoms: C_16  and  C_23
   12  A    between atoms: C_16  and  C_33
   13  A    between atoms: C_20  and  N_24
   14  A    between atoms: C_23  and  C_27
   15  A    between atoms: C_27  and  C_30
                            x       y       z     vdW  Elec       q    Type
                         _______ _______ _______ _____ _____    ______ ____

>  <TORSDO>
F 15

$$$$
=
 OpenBabel11062416493D

 34 35  0  0  1  0  0  0  0  0999 V2000
  186.8650  179.1040  136.9430 O   0  0  0  0  0  1  0  0  0  0  0  0
  186.7340  177.7850  137.4090 C   0  0  1  0  0  0  0  0  0  0  0  0
  185.6560  177.6990  138.4110 N   0  0  0  0  0  2  0  0  0  0  0  0
  185.5620  178.9030  139.1350 N   0  0  0  0  0  2  0  0  0  0  0  0
  182.8400  178.7870  141.6790 C   0  0  0  0  0  0  0  0  0  0  0  0
  183.4570  179.0030  140.4970 C   0  0  0  0  0  0  0  0  0  0  0  0
  183.6660  178.5020  142.9150 C   0  0  2  0  0  3  0  0  0  0  0  0
  184.9370  179.0050  140.4180 C   0  0  0  0  0  0  0  0  0  0  0  0
  182.9740  178.8830  144.0670 O   0  0  0  0  0  1  0  0  0  0  0  0
  185.6720  179.0420  141.5370 C   0  0  0  0  0  3  0  0  0  0  0  0
  185.0100  179.2250  142.8710 C   0  0  0  0  0  2  0  0  0  0  0  0
  181.3470  178.6520  141.7600 C   0  0  0  0  0  2  0  0  0  0  0  0
  180.7600  179.9100  141.9080 O   0  0  0  0  0  1  0  0  0  0  0  0
  182.6020  180.4910  138.7260 C   0  0  0  0  0  1  0  0  0  0  0  0
  182.7300  179.1940  139.3160 O   0  0  0  0  0  0  0  0  0  0  0  0
  186.4160  176.9060  136.2790 N   0  0  0  0  0  2  0  0  0  0  0  0
  185.3760  174.7040  136.2580 C   0  0  0  0  0  1  0  0  0  0  0  0
  186.6070  175.5000  136.6330 C   0  0  0  0  0  2  0  0  0  0  0  0
  188.0730  177.2900  137.9890 C   0  0  0  0  0  2  0  0  0  0  0  0
  189.0660  178.4130  138.2710 C   0  0  0  0  0  2  0  0  0  0  0  0
  189.1660  178.6760  139.7580 C   0  0  0  0  0  2  0  0  0  0  0  0
  188.7230  177.4530  140.5380 C   0  0  0  0  0  2  0  0  0  0  0  0
  189.2380  177.5350  141.9720 C   0  0  2  0  0  3  0  0  0  0  0  0
  190.4980  175.6310  143.0440 C   0  0  0  0  0  2  0  0  0  0  0  0
  190.6170  176.8680  142.1300 C   0  0  2  0  0  3  0  0  0  0  0  0
  191.4400  178.2490  144.0950 C   0  0  0  0  0  2  0  0  0  0  0  0
  191.2110  177.0450  145.0360 C   0  0  1  0  0  0  0  0  0  0  0  0
  189.8910  177.1300  145.4960 O   0  0  0  0  0  1  0  0  0  0  0  0
  191.3670  175.6930  144.3090 C   0  0  0  0  0  2  0  0  0  0  0  0
  191.6880  177.8500  142.6350 C   0  0  0  0  0  2  0  0  0  0  0  0
  192.0630  177.1260  146.1660 O   0  0  0  0  0  0  0  0  0  0  0  0
  191.3560  176.7540  147.3280 C   0  0  0  0  0  1  0  0  0  0  0  0
  188.2620  176.8850  142.8630 C   0  0  0  0  0  0  0  0  0  0  0  0
  187.4850  176.3870  143.5680 N   0  0  0  0  0  0  0  0  0  0  0  0
  2  1  1  6  0  0  0
  2 19  1  0  0  0  0
  2  3  1  0  0  0  0
  3  4  1  0  0  0  0
  4  8  1  0  0  0  0
  5 12  1  0  0  0  0
  5  7  1  0  0  0  0
  6  5  2  0  0  0  0
  7  9  1  1  0  0  0
  8  6  1  0  0  0  0
  8 10  2  0  0  0  0
 10 11  1  0  0  0  0
 11  7  1  0  0  0  0
 12 13  1  0  0  0  0
 14 15  1  0  0  0  0
 15  6  1  0  0  0  0
 16 18  1  0  0  0  0
 16  2  1  0  0  0  0
 17 18  1  0  0  0  0
 19 20  1  0  0  0  0
 20 21  1  0  0  0  0
 21 22  1  0  0  0  0
 23 22  1  6  0  0  0
 23 33  1  0  0  0  0
 24 29  1  0  0  0  0
 25 23  1  1  0  0  0
 25 30  1  0  0  0  0
 25 24  1  0  0  0  0
 26 27  1  0  0  0  0
 27 28  1  1  0  0  0
 27 31  1  0  0  0  0
 29 27  1  0  0  0  0
 30 26  1  0  0  0  0
 31 32  1  0  0  0  0
 33 34  3  0  0  0  0
M  END
>  <MODEL>
8

>  <REMARK>
 VINA RESULT:      -6.3      2.404      6.004
  Name = 
  15 active torsions:
  status: ('A' for Active; 'I' for Inactive)
    1  A    between atoms: C_1  and  C_7
    2  A    between atoms: C_1  and  C_12
    3  A    between atoms: C_1  and  C_33
    4  A    between atoms: N_2  and  N_24
    5  A    between atoms: N_2  and  C_30
    6  A    between atoms: C_3  and  C_10
    7  A    between atoms: O_4  and  C_17
    8  A    between atoms: C_6  and  O_19
    9  A    between atoms: N_9  and  C_18
   10  A    between atoms: N_9  and  C_30
   11  A    between atoms: C_16  and  C_23
   12  A    between atoms: C_16  and  C_33
   13  A    between atoms: C_20  and  N_24
   14  A    between atoms: C_23  and  C_27
   15  A    between atoms: C_27  and  C_30
                            x       y       z     vdW  Elec       q    Type
                         _______ _______ _______ _____ _____    ______ ____

>  <TORSDO>
F 15

$$$$
=
 OpenBabel11062416493D

 34 35  0  0  1  0  0  0  0  0999 V2000
  184.2960  177.6340  141.6920 O   0  0  0  0  0  1  0  0  0  0  0  0
  184.9880  178.8490  141.8310 C   0  0  1  0  0  0  0  0  0  0  0  0
  184.9350  179.6170  140.5740 N   0  0  0  0  0  2  0  0  0  0  0  0
  185.7030  178.9830  139.5790 N   0  0  0  0  0  2  0  0  0  0  0  0
  185.5000  176.5300  136.7790 C   0  0  0  0  0  0  0  0  0  0  0  0
  186.0210  177.4570  137.6130 C   0  0  0  0  0  0  0  0  0  0  0  0
  184.0070  176.2840  136.7710 C   0  0  2  0  0  3  0  0  0  0  0  0
  185.1320  178.2590  138.4840 C   0  0  0  0  0  0  0  0  0  0  0  0
  183.5970  175.7880  135.5310 O   0  0  0  0  0  1  0  0  0  0  0  0
  183.8070  178.2560  138.2820 C   0  0  0  0  0  3  0  0  0  0  0  0
  183.2260  177.5570  137.0890 C   0  0  0  0  0  2  0  0  0  0  0  0
  186.3880  175.6170  135.9830 C   0  0  0  0  0  2  0  0  0  0  0  0
  186.8210  174.5570  136.7800 O   0  0  0  0  0  1  0  0  0  0  0  0
  188.0580  178.6600  136.9190 C   0  0  0  0  0  1  0  0  0  0  0  0
  187.4030  177.6620  137.7060 O   0  0  0  0  0  0  0  0  0  0  0  0
  184.3710  179.6330  142.9060 N   0  0  0  0  0  2  0  0  0  0  0  0
  183.4580  178.9970  145.0720 C   0  0  0  0  0  1  0  0  0  0  0  0
  183.3110  178.8750  143.5710 C   0  0  0  0  0  2  0  0  0  0  0  0
  186.4450  178.5850  142.2590 C   0  0  0  0  0  2  0  0  0  0  0  0
  186.6000  177.3730  143.1730 C   0  0  0  0  0  2  0  0  0  0  0  0
  187.1560  177.7870  144.5180 C   0  0  0  0  0  2  0  0  0  0  0  0
  188.3760  176.9560  144.8610 C   0  0  0  0  0  2  0  0  0  0  0  0
  189.4980  177.8600  145.3640 C   0  0  2  0  0  3  0  0  0  0  0  0
  191.4800  178.4400  143.9160 C   0  0  0  0  0  2  0  0  0  0  0  0
  190.8810  177.3910  144.8760 C   0  0  2  0  0  3  0  0  0  0  0  0
  190.0940  176.0140  142.8940 C   0  0  0  0  0  2  0  0  0  0  0  0
  190.5890  177.1180  141.9320 C   0  0  1  0  0  0  0  0  0  0  0  0
  189.5290  178.0160  141.7610 O   0  0  0  0  0  1  0  0  0  0  0  0
  191.7840  177.9070  142.5080 C   0  0  0  0  0  2  0  0  0  0  0  0
  190.8340  175.9930  144.2370 C   0  0  0  0  0  2  0  0  0  0  0  0
  190.8950  176.5710  140.6610 O   0  0  0  0  0  0  0  0  0  0  0  0
  190.5070  177.4690  139.6460 C   0  0  0  0  0  1  0  0  0  0  0  0
  189.4660  177.8790  146.8360 C   0  0  0  0  0  0  0  0  0  0  0  0
  189.4340  177.8790  147.9970 N   0  0  0  0  0  0  0  0  0  0  0  0
  2  1  1  6  0  0  0
  2 19  1  0  0  0  0
  2 16  1  0  0  0  0
  3  2  1  0  0  0  0
  4  3  1  0  0  0  0
  5  6  2  0  0  0  0
  6 15  1  0  0  0  0
  6  8  1  0  0  0  0
  7  9  1  6  0  0  0
  7  5  1  0  0  0  0
  7 11  1  0  0  0  0
  8  4  1  0  0  0  0
 10  8  2  0  0  0  0
 11 10  1  0  0  0  0
 12  5  1  0  0  0  0
 12 13  1  0  0  0  0
 14 15  1  0  0  0  0
 16 18  1  0  0  0  0
 18 17  1  0  0  0  0
 19 20  1  0  0  0  0
 20 21  1  0  0  0  0
 21 22  1  0  0  0  0
 23 22  1  1  0  0  0
 23 33  1  0  0  0  0
 24 25  1  0  0  0  0
 25 23  1  6  0  0  0
 26 30  1  0  0  0  0
 27 28  1  6  0  0  0
 27 29  1  0  0  0  0
 27 26  1  0  0  0  0
 29 24  1  0  0  0  0
 30 25  1  0  0  0  0
 31 27  1  0  0  0  0
 32 31  1  0  0  0  0
 33 34  3  0  0  0  0
M  END
>  <MODEL>
9

>  <REMARK>
 VINA RESULT:      -6.3      2.184      3.742
  Name = 
  15 active torsions:
  status: ('A' for Active; 'I' for Inactive)
    1  A    between atoms: C_1  and  C_7
    2  A    between atoms: C_1  and  C_12
    3  A    between atoms: C_1  and  C_33
    4  A    between atoms: N_2  and  N_24
    5  A    between atoms: N_2  and  C_30
    6  A    between atoms: C_3  and  C_10
    7  A    between atoms: O_4  and  C_17
    8  A    between atoms: C_6  and  O_19
    9  A    between atoms: N_9  and  C_18
   10  A    between atoms: N_9  and  C_30
   11  A    between atoms: C_16  and  C_23
   12  A    between atoms: C_16  and  C_33
   13  A    between atoms: C_20  and  N_24
   14  A    between atoms: C_23  and  C_27
   15  A    between atoms: C_27  and  C_30
                            x       y       z     vdW  Elec       q    Type
                         _______ _______ _______ _____ _____    ______ ____

>  <TORSDO>
F 15

$$$$
