=
 OpenBabel11062415333D

 35 39  0  0  1  0  0  0  0  0999 V2000
  187.5070  177.8310  136.1740 O   0  0  0  0  0  0  0  0  0  0  0  0
  188.7030  174.5630  137.1590 N   0  0  0  0  0  0  0  0  0  0  0  0
  189.8330  175.1210  137.6290 C   0  0  0  0  0  0  0  0  0  0  0  0
  193.2150  173.9330  136.9310 O   0  0  0  0  0  0  0  0  0  0  0  0
  189.8490  176.4710  138.2920 C   0  0  1  0  0  3  0  0  0  0  0  0
  186.3550  177.0220  136.2400 C   0  0  2  0  0  3  0  0  0  0  0  0
  191.0140  176.7640  139.2150 C   0  0  0  0  0  0  0  0  0  0  0  0
  189.5490  177.5340  137.2580 C   0  0  2  0  0  3  0  0  0  0  0  0
  192.7040  176.2230  137.4450 C   0  0  1  0  0  3  0  0  0  0  0  0
  186.6850  175.5090  136.1460 C   0  0  1  0  0  3  0  0  0  0  0  0
  187.4460  175.1160  137.2850 O   0  0  0  0  0  0  0  0  0  0  0  0
  190.4050  173.3480  136.3840 C   0  0  0  0  0  3  0  0  0  0  0  0
  192.2900  176.6490  138.8130 C   0  0  0  0  0  3  0  0  0  0  0  0
  189.0670  178.8880  137.7430 C   0  0  0  0  0  2  0  0  0  0  0  0
  194.1360  176.4250  137.2880 N   0  0  0  0  0  1  0  0  0  0  0  0
  189.0230  173.4930  136.4110 C   0  0  0  0  0  3  0  0  0  0  0  0
  188.0680  177.7920  137.4510 C   0  0  1  0  0  3  0  0  0  0  0  0
  192.3250  174.7930  137.1810 C   0  0  0  0  0  0  0  0  0  0  0  0
  190.9090  174.4080  137.1300 C   0  0  0  0  0  0  0  0  0  0  0  0
  190.7220  177.1990  140.6040 C   0  0  0  0  0  0  0  0  0  0  0  0
  190.1390  178.0240  143.2340 C   0  0  0  0  0  0  0  0  0  0  0  0
  191.4660  177.9430  142.8010 C   0  0  0  0  0  3  0  0  0  0  0  0
  189.3940  177.2830  141.0480 C   0  0  0  0  0  3  0  0  0  0  0  0
  191.7560  177.5340  141.4950 C   0  0  0  0  0  3  0  0  0  0  0  0
  189.1030  177.6990  142.3510 C   0  0  0  0  0  3  0  0  0  0  0  0
  189.8680  178.4280  144.5410 O   0  0  0  0  0  0  0  0  0  0  0  0
  188.7920  177.9710  145.1980 O   0  0  0  0  0  0  0  0  0  0  0  0
  189.2270  176.9170  145.8580 O   0  0  0  0  0  1  0  0  0  0  0  0
  185.1710  174.4890  136.1000 P   0  0  1  0  0  0  0  0  0  0  0  0
  183.9480  175.1660  137.2590 C   0  0  0  0  0  1  0  0  0  0  0  0
  184.5880  174.4850  134.7040 O   0  0  0  0  0  0  0  0  0  0  0  0
  185.5540  172.8440  136.5730 N   0  0  0  0  0  2  0  0  0  0  0  0
  185.3950  172.7700  137.9160 O   0  0  0  0  0  1  0  0  0  0  0  0
  185.9960  178.5200  134.5940 O   0  0  0  0  0  1  0  0  0  0  0  0
  185.4550  177.4210  135.1710 N   0  0  0  0  0  2  0  0  0  0  0  0
  1  6  1  0  0  0  0
  1 17  1  0  0  0  0
  2 11  1  0  0  0  0
  2  3  1  0  0  0  0
  4 18  2  0  0  0  0
  5  3  1  6  0  0  0
  5  7  1  0  0  0  0
  6 35  1  6  0  0  0
  7 20  1  0  0  0  0
  8 17  1  0  0  0  0
  8 14  1  1  0  0  0
  8  5  1  0  0  0  0
  9 15  1  1  0  0  0
  9 13  1  0  0  0  0
 10 29  1  1  0  0  0
 10  6  1  0  0  0  0
 10 11  1  0  0  0  0
 12 16  2  0  0  0  0
 12 19  1  0  0  0  0
 13  7  2  0  0  0  0
 16  2  1  0  0  0  0
 17 14  1  6  0  0  0
 18  9  1  0  0  0  0
 19 18  1  0  0  0  0
 19  3  2  0  0  0  0
 20 23  2  0  0  0  0
 20 24  1  0  0  0  0
 21 26  1  0  0  0  0
 22 21  1  0  0  0  0
 23 25  1  0  0  0  0
 24 22  2  0  0  0  0
 25 21  2  0  0  0  0
 26 27  1  0  0  0  0
 27 28  1  0  0  0  0
 29 32  1  0  0  0  0
 29 30  1  1  0  0  0
 31 29  2  0  0  0  0
 32 33  1  0  0  0  0
 34 35  1  0  0  0  0
M  END
>  <MODEL>
1

>  <REMARK>
 VINA RESULT:      -7.1      0.000      0.000
  Name = 
  6 active torsions:
  status: ('A' for Active; 'I' for Inactive)
    1  A    between atoms: N_1  and  P_5
    2  A    between atoms: P_5  and  C_21
    3  A    between atoms: O_7  and  O_25
    4  A    between atoms: C_11  and  N_18
    5  A    between atoms: C_12  and  C_13
    6  A    between atoms: C_15  and  O_25
                            x       y       z     vdW  Elec       q    Type
                         _______ _______ _______ _____ _____    ______ ____

>  <TORSDO>
F 6

$$$$
=
 OpenBabel11062415333D

 35 39  0  0  1  0  0  0  0  0999 V2000
  186.0590  179.1570  140.0820 O   0  0  0  0  0  0  0  0  0  0  0  0
  184.0890  178.1150  142.9290 N   0  0  0  0  0  0  0  0  0  0  0  0
  182.9640  178.3080  142.2180 C   0  0  0  0  0  0  0  0  0  0  0  0
  180.0200  180.1240  143.3870 O   0  0  0  0  0  0  0  0  0  0  0  0
  182.8830  178.0200  140.7430 C   0  0  1  0  0  3  0  0  0  0  0  0
  186.9490  178.4320  140.8990 C   0  0  2  0  0  3  0  0  0  0  0  0
  181.5030  177.7740  140.1700 C   0  0  0  0  0  0  0  0  0  0  0  0
  183.7350  179.0230  139.9960 C   0  0  2  0  0  3  0  0  0  0  0  0
  180.6170  179.9400  141.0680 C   0  0  1  0  0  3  0  0  0  0  0  0
  186.4610  178.3350  142.3690 C   0  0  1  0  0  3  0  0  0  0  0  0
  185.2540  177.5800  142.4220 O   0  0  0  0  0  0  0  0  0  0  0  0
  182.6860  179.2690  144.2220 C   0  0  0  0  0  3  0  0  0  0  0  0
  180.4990  178.6520  140.3250 C   0  0  0  0  0  3  0  0  0  0  0  0
  184.1770  178.6780  138.5870 C   0  0  0  0  0  2  0  0  0  0  0  0
  179.4200  180.7360  140.8470 N   0  0  0  0  0  1  0  0  0  0  0  0
  183.9430  178.6810  144.1390 C   0  0  0  0  0  3  0  0  0  0  0  0
  185.0300  178.2710  139.7670 C   0  0  1  0  0  3  0  0  0  0  0  0
  180.8490  179.7040  142.5340 C   0  0  0  0  0  0  0  0  0  0  0  0
  182.0890  179.0570  142.9850 C   0  0  0  0  0  0  0  0  0  0  0  0
  181.2680  176.5230  139.4080 C   0  0  0  0  0  0  0  0  0  0  0  0
  180.8440  174.1540  137.9410 C   0  0  0  0  0  0  0  0  0  0  0  0
  180.0240  174.4620  139.0310 C   0  0  0  0  0  3  0  0  0  0  0  0
  182.0860  176.2040  138.3120 C   0  0  0  0  0  3  0  0  0  0  0  0
  180.2330  175.6390  139.7580 C   0  0  0  0  0  3  0  0  0  0  0  0
  181.8720  175.0320  137.5810 C   0  0  0  0  0  3  0  0  0  0  0  0
  180.6250  172.9750  137.2300 O   0  0  0  0  0  0  0  0  0  0  0  0
  180.4450  171.8070  137.8630 O   0  0  0  0  0  0  0  0  0  0  0  0
  179.6460  171.1190  137.0730 O   0  0  0  0  0  1  0  0  0  0  0  0
  187.6900  177.5060  143.4350 P   0  0  1  0  0  0  0  0  0  0  0  0
  187.0990  177.5010  145.1520 C   0  0  0  0  0  1  0  0  0  0  0  0
  187.9010  176.0800  142.9760 O   0  0  0  0  0  0  0  0  0  0  0  0
  189.2140  178.3710  143.3600 N   0  0  0  0  0  2  0  0  0  0  0  0
  189.7360  178.3650  144.6100 O   0  0  0  0  0  1  0  0  0  0  0  0
  188.7000  178.9070  139.5620 O   0  0  0  0  0  1  0  0  0  0  0  0
  188.2550  179.0670  140.8310 N   0  0  0  0  0  2  0  0  0  0  0  0
  1  6  1  0  0  0  0
  2 16  1  0  0  0  0
  3  2  1  0  0  0  0
  3 19  2  0  0  0  0
  5  7  1  6  0  0  0
  5  3  1  0  0  0  0
  6 35  1  1  0  0  0
  6 10  1  0  0  0  0
  7 13  2  0  0  0  0
  8 14  1  6  0  0  0
  8  5  1  0  0  0  0
  9 15  1  1  0  0  0
  9 18  1  0  0  0  0
 10 11  1  0  0  0  0
 10 29  1  1  0  0  0
 11  2  1  0  0  0  0
 13  9  1  0  0  0  0
 16 12  2  0  0  0  0
 17 14  1  6  0  0  0
 17  8  1  0  0  0  0
 17  1  1  0  0  0  0
 18 19  1  0  0  0  0
 18  4  2  0  0  0  0
 19 12  1  0  0  0  0
 20 24  1  0  0  0  0
 20  7  1  0  0  0  0
 21 22  1  0  0  0  0
 22 24  2  0  0  0  0
 23 20  2  0  0  0  0
 25 21  2  0  0  0  0
 25 23  1  0  0  0  0
 26 27  1  0  0  0  0
 26 21  1  0  0  0  0
 28 27  1  0  0  0  0
 29 30  1  1  0  0  0
 31 29  2  0  0  0  0
 32 29  1  0  0  0  0
 32 33  1  0  0  0  0
 34 35  1  0  0  0  0
M  END
>  <MODEL>
2

>  <REMARK>
 VINA RESULT:      -6.4      5.424     10.135
  Name = 
  6 active torsions:
  status: ('A' for Active; 'I' for Inactive)
    1  A    between atoms: N_1  and  P_5
    2  A    between atoms: P_5  and  C_21
    3  A    between atoms: O_7  and  O_25
    4  A    between atoms: C_11  and  N_18
    5  A    between atoms: C_12  and  C_13
    6  A    between atoms: C_15  and  O_25
                            x       y       z     vdW  Elec       q    Type
                         _______ _______ _______ _____ _____    ______ ____

>  <TORSDO>
F 6

$$$$
=
 OpenBabel11062415333D

 35 39  0  0  1  0  0  0  0  0999 V2000
  179.8580  174.8510  138.7660 O   0  0  0  0  0  0  0  0  0  0  0  0
  181.9770  177.3150  137.1830 N   0  0  0  0  0  0  0  0  0  0  0  0
  181.5690  178.2360  138.0740 C   0  0  0  0  0  0  0  0  0  0  0  0
  180.4440  181.6110  137.2490 O   0  0  0  0  0  0  0  0  0  0  0  0
  181.2760  177.8930  139.5090 C   0  0  1  0  0  3  0  0  0  0  0  0
  180.8070  174.1060  138.0380 C   0  0  2  0  0  3  0  0  0  0  0  0
  181.3350  179.0310  140.5080 C   0  0  0  0  0  0  0  0  0  0  0  0
  180.0330  177.0320  139.5680 C   0  0  2  0  0  3  0  0  0  0  0  0
  179.7080  180.4180  139.2000 C   0  0  1  0  0  3  0  0  0  0  0  0
  181.4750  174.9360  136.9100 C   0  0  1  0  0  3  0  0  0  0  0  0
  182.2360  175.9950  137.4830 O   0  0  0  0  0  0  0  0  0  0  0  0
  181.4550  179.1540  136.0330 C   0  0  0  0  0  3  0  0  0  0  0  0
  180.6190  180.1560  140.3510 C   0  0  0  0  0  3  0  0  0  0  0  0
  179.7990  176.1990  140.8130 C   0  0  0  0  0  2  0  0  0  0  0  0
  178.9310  181.6190  139.4620 N   0  0  0  0  0  1  0  0  0  0  0  0
  181.9210  177.8470  135.9490 C   0  0  0  0  0  3  0  0  0  0  0  0
  180.5940  175.6270  139.6610 C   0  0  1  0  0  3  0  0  0  0  0  0
  180.4760  180.5390  137.9140 C   0  0  0  0  0  0  0  0  0  0  0  0
  181.2010  179.3760  137.3820 C   0  0  0  0  0  0  0  0  0  0  0  0
  182.2080  178.8800  141.6980 C   0  0  0  0  0  0  0  0  0  0  0  0
  183.8880  178.5850  143.9410 C   0  0  0  0  0  0  0  0  0  0  0  0
  182.5390  178.9080  144.1110 C   0  0  0  0  0  3  0  0  0  0  0  0
  183.5640  178.5550  141.5380 C   0  0  0  0  0  3  0  0  0  0  0  0
  181.7040  179.0530  142.9980 C   0  0  0  0  0  3  0  0  0  0  0  0
  184.3970  178.4030  142.6500 C   0  0  0  0  0  3  0  0  0  0  0  0
  184.7080  178.4490  145.0610 O   0  0  0  0  0  0  0  0  0  0  0  0
  184.2340  178.6640  146.2970 O   0  0  0  0  0  0  0  0  0  0  0  0
  185.2690  179.1120  146.9770 O   0  0  0  0  0  1  0  0  0  0  0  0
  182.6020  173.9160  135.8980 P   0  0  1  0  0  0  0  0  0  0  0  0
  181.6380  172.9620  134.6910 C   0  0  0  0  0  1  0  0  0  0  0  0
  183.5870  174.7990  135.1640 O   0  0  0  0  0  0  0  0  0  0  0  0
  183.4800  172.8040  136.9330 N   0  0  0  0  0  2  0  0  0  0  0  0
  184.4030  173.5330  137.6050 O   0  0  0  0  0  1  0  0  0  0  0  0
  180.5480  171.8760  138.2410 O   0  0  0  0  0  1  0  0  0  0  0  0
  180.1470  172.9320  137.4930 N   0  0  0  0  0  2  0  0  0  0  0  0
  1 17  1  0  0  0  0
  2 11  1  0  0  0  0
  2  3  1  0  0  0  0
  4 18  2  0  0  0  0
  5  3  1  6  0  0  0
  5  8  1  0  0  0  0
  5  7  1  0  0  0  0
  6 35  1  6  0  0  0
  6  1  1  0  0  0  0
  7 20  1  0  0  0  0
  8 17  1  0  0  0  0
  8 14  1  1  0  0  0
  9 15  1  1  0  0  0
  9 13  1  0  0  0  0
 10 29  1  1  0  0  0
 10 11  1  0  0  0  0
 10  6  1  0  0  0  0
 12 19  1  0  0  0  0
 13  7  2  0  0  0  0
 16 12  2  0  0  0  0
 16  2  1  0  0  0  0
 17 14  1  1  0  0  0
 18  9  1  0  0  0  0
 19 18  1  0  0  0  0
 19  3  2  0  0  0  0
 20 24  1  0  0  0  0
 21 22  1  0  0  0  0
 21 26  1  0  0  0  0
 23 20  2  0  0  0  0
 23 25  1  0  0  0  0
 24 22  2  0  0  0  0
 25 21  2  0  0  0  0
 26 27  1  0  0  0  0
 27 28  1  0  0  0  0
 29 30  1  6  0  0  0
 29 32  1  0  0  0  0
 31 29  2  0  0  0  0
 32 33  1  0  0  0  0
 35 34  1  0  0  0  0
M  END
>  <MODEL>
3

>  <REMARK>
 VINA RESULT:      -6.3      6.564      8.707
  Name = 
  6 active torsions:
  status: ('A' for Active; 'I' for Inactive)
    1  A    between atoms: N_1  and  P_5
    2  A    between atoms: P_5  and  C_21
    3  A    between atoms: O_7  and  O_25
    4  A    between atoms: C_11  and  N_18
    5  A    between atoms: C_12  and  C_13
    6  A    between atoms: C_15  and  O_25
                            x       y       z     vdW  Elec       q    Type
                         _______ _______ _______ _____ _____    ______ ____

>  <TORSDO>
F 6

$$$$
=
 OpenBabel11062415333D

 35 39  0  0  1  0  0  0  0  0999 V2000
  186.2050  179.1800  140.5070 O   0  0  0  0  0  0  0  0  0  0  0  0
  183.9640  178.1630  143.1550 N   0  0  0  0  0  0  0  0  0  0  0  0
  182.9130  178.3730  142.3430 C   0  0  0  0  0  0  0  0  0  0  0  0
  179.8990  180.2300  143.2380 O   0  0  0  0  0  0  0  0  0  0  0  0
  182.9650  178.0870  140.8660 C   0  0  1  0  0  3  0  0  0  0  0  0
  187.0040  178.4400  141.4010 C   0  0  2  0  0  3  0  0  0  0  0  0
  181.6400  177.8630  140.1670 C   0  0  0  0  0  0  0  0  0  0  0  0
  183.8970  179.0800  140.2050 C   0  0  2  0  0  3  0  0  0  0  0  0
  180.7070  180.0400  140.9840 C   0  0  1  0  0  3  0  0  0  0  0  0
  186.3800  178.3480  142.8190 C   0  0  1  0  0  3  0  0  0  0  0  0
  185.1630  177.6120  142.7570 O   0  0  0  0  0  0  0  0  0  0  0  0
  182.4630  179.3360  144.3150 C   0  0  0  0  0  3  0  0  0  0  0  0
  180.6390  178.7550  140.2300 C   0  0  0  0  0  3  0  0  0  0  0  0
  184.4630  178.7300  138.8420 C   0  0  0  0  0  2  0  0  0  0  0  0
  179.5470  180.8540  140.6550 N   0  0  0  0  0  1  0  0  0  0  0  0
  183.7130  178.7300  144.3480 C   0  0  0  0  0  3  0  0  0  0  0  0
  185.1970  178.3090  140.0940 C   0  0  1  0  0  3  0  0  0  0  0  0
  180.7980  179.7990  142.4650 C   0  0  0  0  0  0  0  0  0  0  0  0
  181.9810  179.1340  143.0270 C   0  0  0  0  0  0  0  0  0  0  0  0
  181.4600  176.6160  139.3830 C   0  0  0  0  0  0  0  0  0  0  0  0
  181.1010  174.2390  137.9130 C   0  0  0  0  0  0  0  0  0  0  0  0
  182.0030  175.2090  137.4690 C   0  0  0  0  0  3  0  0  0  0  0  0
  180.5560  175.6350  139.8200 C   0  0  0  0  0  3  0  0  0  0  0  0
  182.1840  176.3890  138.1990 C   0  0  0  0  0  3  0  0  0  0  0  0
  180.3820  174.4530  139.0940 C   0  0  0  0  0  3  0  0  0  0  0  0
  180.9290  173.0700  137.1710 O   0  0  0  0  0  0  0  0  0  0  0  0
  181.1710  171.8670  137.7080 O   0  0  0  0  0  0  0  0  0  0  0  0
  182.3440  171.5140  137.2220 O   0  0  0  0  0  1  0  0  0  0  0  0
  187.4930  177.5010  143.9930 P   0  0  1  0  0  0  0  0  0  0  0  0
  188.1660  176.0030  143.2180 C   0  0  0  0  0  1  0  0  0  0  0  0
  188.6330  178.4160  144.3840 O   0  0  0  0  0  0  0  0  0  0  0  0
  186.5970  177.0450  145.4300 N   0  0  0  0  0  2  0  0  0  0  0  0
  186.7320  178.0580  146.3190 O   0  0  0  0  0  1  0  0  0  0  0  0
  189.1440  178.2840  140.7090 O   0  0  0  0  0  1  0  0  0  0  0  0
  188.3200  179.0560  141.4560 N   0  0  0  0  0  2  0  0  0  0  0  0
  1  6  1  0  0  0  0
  2 16  1  0  0  0  0
  3 19  2  0  0  0  0
  3  2  1  0  0  0  0
  5  7  1  6  0  0  0
  5  3  1  0  0  0  0
  6 35  1  1  0  0  0
  6 10  1  0  0  0  0
  7 13  2  0  0  0  0
  8 14  1  6  0  0  0
  8  5  1  0  0  0  0
  9 15  1  1  0  0  0
  9 18  1  0  0  0  0
 10 29  1  1  0  0  0
 11 10  1  0  0  0  0
 11  2  1  0  0  0  0
 12 16  2  0  0  0  0
 13  9  1  0  0  0  0
 17 14  1  6  0  0  0
 17  8  1  0  0  0  0
 17  1  1  0  0  0  0
 18 19  1  0  0  0  0
 18  4  2  0  0  0  0
 19 12  1  0  0  0  0
 20 23  1  0  0  0  0
 20  7  1  0  0  0  0
 21 25  1  0  0  0  0
 22 21  2  0  0  0  0
 22 24  1  0  0  0  0
 24 20  2  0  0  0  0
 25 23  2  0  0  0  0
 26 27  1  0  0  0  0
 26 21  1  0  0  0  0
 28 27  1  0  0  0  0
 29 30  1  6  0  0  0
 29 31  2  0  0  0  0
 29 32  1  0  0  0  0
 32 33  1  0  0  0  0
 34 35  1  0  0  0  0
M  END
>  <MODEL>
4

>  <REMARK>
 VINA RESULT:      -6.2      5.438     10.113
  Name = 
  6 active torsions:
  status: ('A' for Active; 'I' for Inactive)
    1  A    between atoms: N_1  and  P_5
    2  A    between atoms: P_5  and  C_21
    3  A    between atoms: O_7  and  O_25
    4  A    between atoms: C_11  and  N_18
    5  A    between atoms: C_12  and  C_13
    6  A    between atoms: C_15  and  O_25
                            x       y       z     vdW  Elec       q    Type
                         _______ _______ _______ _____ _____    ______ ____

>  <TORSDO>
F 6

$$$$
=
 OpenBabel11062415333D

 35 39  0  0  1  0  0  0  0  0999 V2000
  187.0890  177.7310  136.9850 O   0  0  0  0  0  0  0  0  0  0  0  0
  188.6930  174.5090  137.3300 N   0  0  0  0  0  0  0  0  0  0  0  0
  189.8150  175.1160  137.7550 C   0  0  0  0  0  0  0  0  0  0  0  0
  193.1820  174.4140  136.5280 O   0  0  0  0  0  0  0  0  0  0  0  0
  189.7870  176.3540  138.6100 C   0  0  1  0  0  3  0  0  0  0  0  0
  186.0330  176.7990  137.0510 C   0  0  2  0  0  3  0  0  0  0  0  0
  191.0240  176.6400  139.4360 C   0  0  0  0  0  0  0  0  0  0  0  0
  189.2660  177.5110  137.7860 C   0  0  2  0  0  3  0  0  0  0  0  0
  192.5280  176.5410  137.4330 C   0  0  1  0  0  3  0  0  0  0  0  0
  186.4880  175.3600  136.6940 C   0  0  1  0  0  3  0  0  0  0  0  0
  187.4150  174.8970  137.6720 O   0  0  0  0  0  0  0  0  0  0  0  0
  190.3930  173.6070  136.2030 C   0  0  0  0  0  3  0  0  0  0  0  0
  192.2470  176.7230  138.8870 C   0  0  0  0  0  3  0  0  0  0  0  0
  188.7240  178.7230  138.5190 C   0  0  0  0  0  2  0  0  0  0  0  0
  193.9050  176.9180  137.1570 N   0  0  0  0  0  1  0  0  0  0  0  0
  189.0170  173.5950  136.3990 C   0  0  0  0  0  3  0  0  0  0  0  0
  187.8020  177.5760  138.1730 C   0  0  1  0  0  3  0  0  0  0  0  0
  192.2540  175.1280  136.9990 C   0  0  0  0  0  0  0  0  0  0  0  0
  190.8830  174.6010  137.0420 C   0  0  0  0  0  0  0  0  0  0  0  0
  190.8640  176.8430  140.8970 C   0  0  0  0  0  0  0  0  0  0  0  0
  190.5860  177.2380  143.6740 C   0  0  0  0  0  0  0  0  0  0  0  0
  189.5750  176.6000  142.9500 C   0  0  0  0  0  3  0  0  0  0  0  0
  191.8740  177.4830  141.6330 C   0  0  0  0  0  3  0  0  0  0  0  0
  189.7130  176.4020  141.5720 C   0  0  0  0  0  3  0  0  0  0  0  0
  191.7390  177.6740  143.0110 C   0  0  0  0  0  3  0  0  0  0  0  0
  190.4300  177.4320  145.0460 O   0  0  0  0  0  0  0  0  0  0  0  0
  189.2500  177.7990  145.5640 O   0  0  0  0  0  0  0  0  0  0  0  0
  189.4010  177.6650  146.8660 O   0  0  0  0  0  1  0  0  0  0  0  0
  185.0810  174.1970  136.6570 P   0  0  1  0  0  0  0  0  0  0  0  0
  185.5970  172.5970  137.3460 C   0  0  0  0  0  1  0  0  0  0  0  0
  183.9310  174.7440  137.4740 O   0  0  0  0  0  0  0  0  0  0  0  0
  184.5540  173.9610  135.0010 N   0  0  0  0  0  2  0  0  0  0  0  0
  184.7340  172.6500  134.7110 O   0  0  0  0  0  1  0  0  0  0  0  0
  184.0000  177.7670  136.9350 O   0  0  0  0  0  1  0  0  0  0  0  0
  184.9760  177.2420  136.1560 N   0  0  0  0  0  2  0  0  0  0  0  0
  1  6  1  0  0  0  0
  1 17  1  0  0  0  0
  2 11  1  0  0  0  0
  2  3  1  0  0  0  0
  4 18  2  0  0  0  0
  5  3  1  6  0  0  0
  5  7  1  0  0  0  0
  6 35  1  6  0  0  0
  7 20  1  0  0  0  0
  8 17  1  0  0  0  0
  8 14  1  1  0  0  0
  8  5  1  0  0  0  0
  9 15  1  1  0  0  0
  9 13  1  0  0  0  0
 10 29  1  1  0  0  0
 10  6  1  0  0  0  0
 10 11  1  0  0  0  0
 12 16  2  0  0  0  0
 12 19  1  0  0  0  0
 13  7  2  0  0  0  0
 16  2  1  0  0  0  0
 17 14  1  1  0  0  0
 18 19  1  0  0  0  0
 18  9  1  0  0  0  0
 19  3  2  0  0  0  0
 20 24  2  0  0  0  0
 20 23  1  0  0  0  0
 21 26  1  0  0  0  0
 22 21  2  0  0  0  0
 23 25  2  0  0  0  0
 24 22  1  0  0  0  0
 25 21  1  0  0  0  0
 26 27  1  0  0  0  0
 27 28  1  0  0  0  0
 29 30  1  1  0  0  0
 29 31  2  0  0  0  0
 32 29  1  0  0  0  0
 33 32  1  0  0  0  0
 35 34  1  0  0  0  0
M  END
>  <MODEL>
5

>  <REMARK>
 VINA RESULT:      -6.2      1.179      1.507
  Name = 
  6 active torsions:
  status: ('A' for Active; 'I' for Inactive)
    1  A    between atoms: N_1  and  P_5
    2  A    between atoms: P_5  and  C_21
    3  A    between atoms: O_7  and  O_25
    4  A    between atoms: C_11  and  N_18
    5  A    between atoms: C_12  and  C_13
    6  A    between atoms: C_15  and  O_25
                            x       y       z     vdW  Elec       q    Type
                         _______ _______ _______ _____ _____    ______ ____

>  <TORSDO>
F 6

$$$$
=
 OpenBabel11062415333D

 35 39  0  0  1  0  0  0  0  0999 V2000
  186.3240  178.2990  140.8290 O   0  0  0  0  0  0  0  0  0  0  0  0
  185.2530  177.1300  137.5790 N   0  0  0  0  0  0  0  0  0  0  0  0
  183.9840  177.0730  138.0210 C   0  0  0  0  0  0  0  0  0  0  0  0
  181.7190  174.2460  137.5570 O   0  0  0  0  0  0  0  0  0  0  0  0
  183.4240  178.0730  138.9960 C   0  0  1  0  0  3  0  0  0  0  0  0
  187.3570  178.6710  139.9460 C   0  0  2  0  0  3  0  0  0  0  0  0
  181.9180  178.2330  139.0200 C   0  0  0  0  0  0  0  0  0  0  0  0
  184.0850  177.8730  140.3420 C   0  0  2  0  0  3  0  0  0  0  0  0
  181.5470  175.7830  139.3960 C   0  0  1  0  0  3  0  0  0  0  0  0
  187.3430  177.8430  138.6330 C   0  0  1  0  0  3  0  0  0  0  0  0
  186.1520  178.1230  137.9050 O   0  0  0  0  0  0  0  0  0  0  0  0
  184.4270  175.1560  136.9480 C   0  0  0  0  0  3  0  0  0  0  0  0
  181.0920  177.1900  139.2040 C   0  0  0  0  0  3  0  0  0  0  0  0
  184.0350  179.0150  141.3400 C   0  0  0  0  0  2  0  0  0  0  0  0
  180.4150  174.9580  139.7890 N   0  0  0  0  0  1  0  0  0  0  0  0
  185.5400  175.9890  136.9280 C   0  0  0  0  0  3  0  0  0  0  0  0
  185.1740  178.9270  140.3500 C   0  0  1  0  0  3  0  0  0  0  0  0
  182.2020  175.2480  138.1530 C   0  0  0  0  0  0  0  0  0  0  0  0
  183.4590  175.8400  137.6750 C   0  0  0  0  0  0  0  0  0  0  0  0
  181.3510  179.5920  138.8420 C   0  0  0  0  0  0  0  0  0  0  0  0
  180.2470  182.1640  138.5090 C   0  0  0  0  0  0  0  0  0  0  0  0
  181.6210  181.9620  138.3480 C   0  0  0  0  0  3  0  0  0  0  0  0
  179.9720  179.8050  139.0020 C   0  0  0  0  0  3  0  0  0  0  0  0
  182.1690  180.6860  138.5120 C   0  0  0  0  0  3  0  0  0  0  0  0
  179.4240  181.0790  138.8310 C   0  0  0  0  0  3  0  0  0  0  0  0
  179.7170  183.4440  138.3470 O   0  0  0  0  0  0  0  0  0  0  0  0
  180.3470  184.3650  137.6050 O   0  0  0  0  0  0  0  0  0  0  0  0
  179.6350  185.4620  137.7600 O   0  0  0  0  0  1  0  0  0  0  0  0
  188.7660  178.2490  137.5640 P   0  0  1  0  0  0  0  0  0  0  0  0
  188.3950  177.7710  135.8520 C   0  0  0  0  0  1  0  0  0  0  0  0
  189.0500  179.7350  137.6170 O   0  0  0  0  0  0  0  0  0  0  0  0
  190.1830  177.3700  138.1060 N   0  0  0  0  0  2  0  0  0  0  0  0
  189.7840  176.1030  138.3750 O   0  0  0  0  0  1  0  0  0  0  0  0
  188.5020  177.4470  141.4530 O   0  0  0  0  0  1  0  0  0  0  0  0
  188.6260  178.5210  140.6370 N   0  0  0  0  0  2  0  0  0  0  0  0
  2 11  1  0  0  0  0
  2  3  1  0  0  0  0
  4 18  2  0  0  0  0
  5  3  1  6  0  0  0
  5  7  1  0  0  0  0
  5  8  1  0  0  0  0
  6 35  1  1  0  0  0
  6  1  1  0  0  0  0
  7 13  2  0  0  0  0
  8 17  1  0  0  0  0
  8 14  1  1  0  0  0
  9 15  1  6  0  0  0
 10 29  1  6  0  0  0
 10  6  1  0  0  0  0
 11 10  1  0  0  0  0
 12 19  1  0  0  0  0
 13  9  1  0  0  0  0
 16 12  2  0  0  0  0
 16  2  1  0  0  0  0
 17  1  1  0  0  0  0
 17 14  1  1  0  0  0
 18  9  1  0  0  0  0
 19  3  2  0  0  0  0
 19 18  1  0  0  0  0
 20 23  1  0  0  0  0
 20  7  1  0  0  0  0
 21 25  1  0  0  0  0
 22 21  2  0  0  0  0
 22 24  1  0  0  0  0
 24 20  2  0  0  0  0
 25 23  2  0  0  0  0
 26 21  1  0  0  0  0
 27 28  1  0  0  0  0
 27 26  1  0  0  0  0
 29 30  1  6  0  0  0
 29 31  2  0  0  0  0
 29 32  1  0  0  0  0
 32 33  1  0  0  0  0
 35 34  1  0  0  0  0
M  END
>  <MODEL>
6

>  <REMARK>
 VINA RESULT:      -6.0      4.952      8.774
  Name = 
  6 active torsions:
  status: ('A' for Active; 'I' for Inactive)
    1  A    between atoms: N_1  and  P_5
    2  A    between atoms: P_5  and  C_21
    3  A    between atoms: O_7  and  O_25
    4  A    between atoms: C_11  and  N_18
    5  A    between atoms: C_12  and  C_13
    6  A    between atoms: C_15  and  O_25
                            x       y       z     vdW  Elec       q    Type
                         _______ _______ _______ _____ _____    ______ ____

>  <TORSDO>
F 6

$$$$
=
 OpenBabel11062415333D

 35 39  0  0  1  0  0  0  0  0999 V2000
  186.2940  178.2270  139.2480 O   0  0  0  0  0  0  0  0  0  0  0  0
  184.5400  176.1460  136.8690 N   0  0  0  0  0  0  0  0  0  0  0  0
  183.3690  176.4900  137.4340 C   0  0  0  0  0  0  0  0  0  0  0  0
  180.7230  174.1590  138.3830 O   0  0  0  0  0  0  0  0  0  0  0  0
  183.1160  177.8650  137.9890 C   0  0  1  0  0  3  0  0  0  0  0  0
  187.1970  178.0470  138.1810 C   0  0  2  0  0  3  0  0  0  0  0  0
  181.6690  178.2950  138.1150 C   0  0  0  0  0  0  0  0  0  0  0  0
  183.9700  178.0660  139.2220 C   0  0  2  0  0  3  0  0  0  0  0  0
  181.0660  176.2730  139.4690 C   0  0  1  0  0  3  0  0  0  0  0  0
  186.8530  176.8070  137.3150 C   0  0  1  0  0  3  0  0  0  0  0  0
  185.5980  177.0070  136.6720 O   0  0  0  0  0  0  0  0  0  0  0  0
  183.3780  174.2660  137.1660 C   0  0  0  0  0  3  0  0  0  0  0  0
  180.7640  177.5650  138.7880 C   0  0  0  0  0  3  0  0  0  0  0  0
  184.2360  179.4850  139.6850 C   0  0  0  0  0  2  0  0  0  0  0  0
  179.9250  175.8770  140.2790 N   0  0  0  0  0  1  0  0  0  0  0  0
  184.5650  174.8130  136.6950 C   0  0  0  0  0  3  0  0  0  0  0  0
  185.1670  178.8290  138.6900 C   0  0  1  0  0  3  0  0  0  0  0  0
  181.4240  175.2040  138.4750 C   0  0  0  0  0  0  0  0  0  0  0  0
  182.6430  175.3350  137.6660 C   0  0  0  0  0  0  0  0  0  0  0  0
  181.2530  179.5690  137.4780 C   0  0  0  0  0  0  0  0  0  0  0  0
  180.4650  182.0010  136.2920 C   0  0  0  0  0  0  0  0  0  0  0  0
  180.5210  180.8320  135.5280 C   0  0  0  0  0  3  0  0  0  0  0  0
  181.1940  180.7480  138.2370 C   0  0  0  0  0  3  0  0  0  0  0  0
  180.9100  179.6240  136.1160 C   0  0  0  0  0  3  0  0  0  0  0  0
  180.7980  181.9530  137.6510 C   0  0  0  0  0  3  0  0  0  0  0  0
  180.0800  183.1970  135.6890 O   0  0  0  0  0  0  0  0  0  0  0  0
  180.9740  183.9790  135.0670 O   0  0  0  0  0  0  0  0  0  0  0  0
  181.0680  185.0490  135.8300 O   0  0  0  0  0  1  0  0  0  0  0  0
  188.1090  176.5180  136.0210 P   0  0  1  0  0  0  0  0  0  0  0  0
  187.3340  175.7050  134.5940 C   0  0  0  0  0  1  0  0  0  0  0  0
  188.7130  177.8330  135.5790 O   0  0  0  0  0  0  0  0  0  0  0  0
  189.3760  175.4810  136.6490 N   0  0  0  0  0  2  0  0  0  0  0  0
  190.5540  176.1060  136.4130 O   0  0  0  0  0  1  0  0  0  0  0  0
  189.0760  179.1790  138.7000 O   0  0  0  0  0  1  0  0  0  0  0  0
  188.5380  177.9370  138.7300 N   0  0  0  0  0  2  0  0  0  0  0  0
  2  3  1  0  0  0  0
  3 19  2  0  0  0  0
  4 18  2  0  0  0  0
  5  3  1  1  0  0  0
  5  7  1  0  0  0  0
  5  8  1  0  0  0  0
  6 35  1  1  0  0  0
  6  1  1  0  0  0  0
  7 13  2  0  0  0  0
  8 14  1  1  0  0  0
  9 15  1  6  0  0  0
 10 29  1  6  0  0  0
 10  6  1  0  0  0  0
 11  2  1  0  0  0  0
 11 10  1  0  0  0  0
 12 19  1  0  0  0  0
 13  9  1  0  0  0  0
 16  2  1  0  0  0  0
 16 12  2  0  0  0  0
 17  8  1  0  0  0  0
 17  1  1  0  0  0  0
 17 14  1  1  0  0  0
 18  9  1  0  0  0  0
 19 18  1  0  0  0  0
 20  7  1  0  0  0  0
 20 23  1  0  0  0  0
 21 25  1  0  0  0  0
 22 24  1  0  0  0  0
 22 21  2  0  0  0  0
 24 20  2  0  0  0  0
 25 23  2  0  0  0  0
 26 21  1  0  0  0  0
 27 26  1  0  0  0  0
 27 28  1  0  0  0  0
 29 30  1  6  0  0  0
 29 32  1  0  0  0  0
 31 29  2  0  0  0  0
 33 32  1  0  0  0  0
 34 35  1  0  0  0  0
M  END
>  <MODEL>
7

>  <REMARK>
 VINA RESULT:      -5.9      4.518      8.945
  Name = 
  6 active torsions:
  status: ('A' for Active; 'I' for Inactive)
    1  A    between atoms: N_1  and  P_5
    2  A    between atoms: P_5  and  C_21
    3  A    between atoms: O_7  and  O_25
    4  A    between atoms: C_11  and  N_18
    5  A    between atoms: C_12  and  C_13
    6  A    between atoms: C_15  and  O_25
                            x       y       z     vdW  Elec       q    Type
                         _______ _______ _______ _____ _____    ______ ____

>  <TORSDO>
F 6

$$$$
=
 OpenBabel11062415333D

 35 39  0  0  1  0  0  0  0  0999 V2000
  185.6950  177.4920  136.0250 O   0  0  0  0  0  0  0  0  0  0  0  0
  187.0600  174.2470  136.8450 N   0  0  0  0  0  0  0  0  0  0  0  0
  188.2750  174.8010  137.0070 C   0  0  0  0  0  0  0  0  0  0  0  0
  191.3810  173.5180  135.5790 O   0  0  0  0  0  0  0  0  0  0  0  0
  188.4620  176.1780  137.5840 C   0  0  1  0  0  3  0  0  0  0  0  0
  184.5840  176.7110  136.4000 C   0  0  2  0  0  3  0  0  0  0  0  0
  189.8160  176.4860  138.1890 C   0  0  0  0  0  0  0  0  0  0  0  0
  187.9330  177.2020  136.6040 C   0  0  2  0  0  3  0  0  0  0  0  0
  191.0290  175.8380  136.0940 C   0  0  1  0  0  3  0  0  0  0  0  0
  184.8680  175.1880  136.3000 C   0  0  1  0  0  3  0  0  0  0  0  0
  185.8750  174.8290  137.2410 O   0  0  0  0  0  0  0  0  0  0  0  0
  188.5170  172.9660  135.7440 C   0  0  0  0  0  3  0  0  0  0  0  0
  190.9580  176.3290  137.5000 C   0  0  0  0  0  3  0  0  0  0  0  0
  187.5930  178.5840  137.1270 C   0  0  0  0  0  2  0  0  0  0  0  0
  192.3840  176.0040  135.5920 N   0  0  0  0  0  1  0  0  0  0  0  0
  187.1820  173.1400  136.0930 C   0  0  0  0  0  3  0  0  0  0  0  0
  186.5430  177.4970  137.1320 C   0  0  1  0  0  3  0  0  0  0  0  0
  190.5860  174.4050  135.9940 C   0  0  0  0  0  0  0  0  0  0  0  0
  189.1940  174.0460  136.2990 C   0  0  0  0  0  0  0  0  0  0  0  0
  189.8680  176.9850  139.5860 C   0  0  0  0  0  0  0  0  0  0  0  0
  189.9390  177.9400  142.2360 C   0  0  0  0  0  0  0  0  0  0  0  0
  191.1120  177.5040  141.6150 C   0  0  0  0  0  3  0  0  0  0  0  0
  188.6950  177.4250  140.2180 C   0  0  0  0  0  3  0  0  0  0  0  0
  191.0780  177.0310  140.2980 C   0  0  0  0  0  3  0  0  0  0  0  0
  188.7300  177.9040  141.5310 C   0  0  0  0  0  3  0  0  0  0  0  0
  189.9890  178.4030  143.5500 O   0  0  0  0  0  0  0  0  0  0  0  0
  189.8870  177.5590  144.5870 O   0  0  0  0  0  0  0  0  0  0  0  0
  188.6870  177.7810  145.0810 O   0  0  0  0  0  1  0  0  0  0  0  0
  183.3780  174.1980  136.6630 P   0  0  1  0  0  0  0  0  0  0  0  0
  182.3360  174.1020  135.1780 C   0  0  0  0  0  1  0  0  0  0  0  0
  183.7720  172.8000  137.0870 O   0  0  0  0  0  0  0  0  0  0  0  0
  182.4640  174.9580  137.9520 N   0  0  0  0  0  2  0  0  0  0  0  0
  181.1590  174.9170  137.5910 O   0  0  0  0  0  1  0  0  0  0  0  0
  182.6630  177.8860  136.3030 O   0  0  0  0  0  1  0  0  0  0  0  0
  183.4580  177.0810  135.5590 N   0  0  0  0  0  2  0  0  0  0  0  0
  1  6  1  0  0  0  0
  1 17  1  0  0  0  0
  2  3  1  0  0  0  0
  2 11  1  0  0  0  0
  4 18  2  0  0  0  0
  5  3  1  6  0  0  0
  5  7  1  0  0  0  0
  6 35  1  6  0  0  0
  7 20  1  0  0  0  0
  8 14  1  1  0  0  0
  8 17  1  0  0  0  0
  8  5  1  0  0  0  0
  9 15  1  1  0  0  0
  9 13  1  0  0  0  0
 10  6  1  0  0  0  0
 10 29  1  1  0  0  0
 10 11  1  0  0  0  0
 12 16  2  0  0  0  0
 12 19  1  0  0  0  0
 13  7  2  0  0  0  0
 16  2  1  0  0  0  0
 17 14  1  6  0  0  0
 18  9  1  0  0  0  0
 18 19  1  0  0  0  0
 19  3  2  0  0  0  0
 20 23  2  0  0  0  0
 20 24  1  0  0  0  0
 21 26  1  0  0  0  0
 22 21  1  0  0  0  0
 23 25  1  0  0  0  0
 24 22  2  0  0  0  0
 25 21  2  0  0  0  0
 26 27  1  0  0  0  0
 27 28  1  0  0  0  0
 29 30  1  6  0  0  0
 29 31  2  0  0  0  0
 29 32  1  0  0  0  0
 33 32  1  0  0  0  0
 35 34  1  0  0  0  0
M  END
>  <MODEL>
8

>  <REMARK>
 VINA RESULT:      -5.7      1.862      2.132
  Name = 
  6 active torsions:
  status: ('A' for Active; 'I' for Inactive)
    1  A    between atoms: N_1  and  P_5
    2  A    between atoms: P_5  and  C_21
    3  A    between atoms: O_7  and  O_25
    4  A    between atoms: C_11  and  N_18
    5  A    between atoms: C_12  and  C_13
    6  A    between atoms: C_15  and  O_25
                            x       y       z     vdW  Elec       q    Type
                         _______ _______ _______ _____ _____    ______ ____

>  <TORSDO>
F 6

$$$$
=
 OpenBabel11062415333D

 35 39  0  0  1  0  0  0  0  0999 V2000
  192.3360  176.3280  135.2110 O   0  0  0  0  0  0  0  0  0  0  0  0
  191.4890  175.9970  138.7100 N   0  0  0  0  0  0  0  0  0  0  0  0
  190.2010  176.2520  138.4200 C   0  0  0  0  0  0  0  0  0  0  0  0
  188.0740  178.6290  140.1980 O   0  0  0  0  0  0  0  0  0  0  0  0
  189.5520  175.7760  137.1490 C   0  0  1  0  0  3  0  0  0  0  0  0
  193.4010  175.6010  135.7800 C   0  0  2  0  0  3  0  0  0  0  0  0
  188.0410  175.6590  137.1570 C   0  0  0  0  0  0  0  0  0  0  0  0
  190.1460  176.5280  135.9780 C   0  0  2  0  0  3  0  0  0  0  0  0
  187.7450  178.0360  137.8940 C   0  0  1  0  0  3  0  0  0  0  0  0
  193.4910  175.7840  137.3180 C   0  0  1  0  0  3  0  0  0  0  0  0
  192.3300  175.2310  137.9320 O   0  0  0  0  0  0  0  0  0  0  0  0
  190.7750  177.5160  140.1790 C   0  0  0  0  0  3  0  0  0  0  0  0
  187.2470  176.6890  137.4920 C   0  0  0  0  0  3  0  0  0  0  0  0
  189.9980  175.9280  134.5940 C   0  0  0  0  0  2  0  0  0  0  0  0
  186.6250  178.9620  137.9670 N   0  0  0  0  0  1  0  0  0  0  0  0
  191.8550  176.7430  139.7670 C   0  0  0  0  0  3  0  0  0  0  0  0
  191.1920  175.5680  135.4480 C   0  0  1  0  0  3  0  0  0  0  0  0
  188.4860  177.9760  139.2000 C   0  0  0  0  0  0  0  0  0  0  0  0
  189.7440  177.2230  139.2940 C   0  0  0  0  0  0  0  0  0  0  0  0
  187.4330  174.3620  136.7710 C   0  0  0  0  0  0  0  0  0  0  0  0
  186.2990  171.8930  136.0230 C   0  0  0  0  0  0  0  0  0  0  0  0
  185.5870  172.7730  136.8420 C   0  0  0  0  0  3  0  0  0  0  0  0
  188.1400  173.4710  135.9500 C   0  0  0  0  0  3  0  0  0  0  0  0
  186.1480  174.0000  137.2130 C   0  0  0  0  0  3  0  0  0  0  0  0
  187.5760  172.2490  135.5730 C   0  0  0  0  0  3  0  0  0  0  0  0
  185.7270  170.6720  135.6660 O   0  0  0  0  0  0  0  0  0  0  0  0
  184.5700  170.6200  134.9910 O   0  0  0  0  0  0  0  0  0  0  0  0
  183.7320  170.0190  135.8100 O   0  0  0  0  0  1  0  0  0  0  0  0
  194.9530  174.9410  138.0140 P   0  0  1  0  0  0  0  0  0  0  0  0
  194.6630  173.1480  138.0450 C   0  0  0  0  0  1  0  0  0  0  0  0
  196.1740  175.2340  137.1700 O   0  0  0  0  0  0  0  0  0  0  0  0
  195.2320  175.5010  139.6520 N   0  0  0  0  0  2  0  0  0  0  0  0
  196.4880  175.1210  139.9920 O   0  0  0  0  0  1  0  0  0  0  0  0
  194.5640  177.3650  134.9920 O   0  0  0  0  0  1  0  0  0  0  0  0
  194.6360  176.0200  135.1380 N   0  0  0  0  0  2  0  0  0  0  0  0
  1 17  1  0  0  0  0
  1  6  1  0  0  0  0
  2 16  1  0  0  0  0
  3  2  1  0  0  0  0
  3 19  2  0  0  0  0
  5  7  1  1  0  0  0
  5  3  1  0  0  0  0
  6 35  1  6  0  0  0
  6 10  1  0  0  0  0
  7 13  2  0  0  0  0
  8 14  1  6  0  0  0
  8  5  1  0  0  0  0
  9 15  1  1  0  0  0
  9 18  1  0  0  0  0
 10 11  1  0  0  0  0
 10 29  1  1  0  0  0
 11  2  1  0  0  0  0
 13  9  1  0  0  0  0
 16 12  2  0  0  0  0
 17 14  1  6  0  0  0
 17  8  1  0  0  0  0
 18 19  1  0  0  0  0
 18  4  2  0  0  0  0
 19 12  1  0  0  0  0
 20  7  1  0  0  0  0
 20 24  1  0  0  0  0
 21 22  1  0  0  0  0
 22 24  2  0  0  0  0
 23 20  2  0  0  0  0
 25 23  1  0  0  0  0
 25 21  2  0  0  0  0
 26 21  1  0  0  0  0
 27 26  1  0  0  0  0
 27 28  1  0  0  0  0
 29 30  1  1  0  0  0
 29 32  1  0  0  0  0
 31 29  2  0  0  0  0
 32 33  1  0  0  0  0
 34 35  1  0  0  0  0
M  END
>  <MODEL>
9

>  <REMARK>
 VINA RESULT:      -5.5      3.461      7.922
  Name = 
  6 active torsions:
  status: ('A' for Active; 'I' for Inactive)
    1  A    between atoms: N_1  and  P_5
    2  A    between atoms: P_5  and  C_21
    3  A    between atoms: O_7  and  O_25
    4  A    between atoms: C_11  and  N_18
    5  A    between atoms: C_12  and  C_13
    6  A    between atoms: C_15  and  O_25
                            x       y       z     vdW  Elec       q    Type
                         _______ _______ _______ _____ _____    ______ ____

>  <TORSDO>
F 6

$$$$
