=
 OpenBabel11062413403D

 42 46  0  0  1  0  0  0  0  0999 V2000
  186.8520  178.5070  140.7030 O   0  0  0  0  0  0  0  0  0  0  0  0
  190.1870  176.3050  138.9150 C   0  0  0  0  0  1  0  0  0  0  0  0
  189.0540  177.0250  139.5810 C   0  0  0  0  0  0  0  0  0  0  0  0
  186.8920  178.2570  139.4690 C   0  0  0  0  0  0  0  0  0  0  0  0
  185.7810  178.7430  138.5920 C   0  0  0  0  0  2  0  0  0  0  0  0
  186.2880  179.1130  137.3070 O   0  0  0  0  0  0  0  0  0  0  0  0
  187.9320  177.2090  137.3750 C   0  0  2  0  0  3  0  0  0  0  0  0
  188.0130  177.4890  138.8570 C   0  0  0  0  0  0  0  0  0  0  0  0
  187.5960  178.6280  135.4760 O   0  0  0  0  0  0  0  0  0  0  0  0
  187.2680  178.3500  136.6600 C   0  0  0  0  0  0  0  0  0  0  0  0
  186.5220  174.9800  136.9450 C   0  0  0  0  0  0  0  0  0  0  0  0
  187.1690  175.9770  137.1550 C   0  0  0  0  0  0  0  0  0  0  0  0
  184.2450  171.5310  136.0010 C   0  0  0  0  0  3  0  0  0  0  0  0
  186.3270  172.5680  136.6620 C   0  0  0  0  0  3  0  0  0  0  0  0
  183.6270  172.7860  135.9950 C   0  0  0  0  0  3  0  0  0  0  0  0
  185.5930  171.4150  136.3430 C   0  0  0  0  0  3  0  0  0  0  0  0
  184.3450  173.9400  136.3430 C   0  0  0  0  0  0  0  0  0  0  0  0
  185.7150  173.8290  136.6570 C   0  0  0  0  0  0  0  0  0  0  0  0
  183.6440  175.2690  136.3750 C   0  0  0  0  0  2  0  0  0  0  0  0
  183.4300  175.9900  138.6990 C   0  0  0  0  0  3  0  0  0  0  0  0
  181.0830  175.0240  137.6470 S   0  0  0  0  0  0  0  0  0  0  0  0
  181.5220  177.2510  139.2900 N   0  0  0  0  0  0  0  0  0  0  0  0
  182.5730  176.3980  139.8430 C   0  0  0  0  0  2  0  0  0  0  0  0
  180.4650  176.4330  138.6820 C   0  0  0  0  0  2  0  0  0  0  0  0
  182.8500  175.4290  137.6370 C   0  0  0  0  0  0  0  0  0  0  0  0
  180.9400  178.1380  140.3070 C   0  0  0  0  0  3  0  0  0  0  0  0
  179.7820  177.5040  141.0770 C   0  0  0  0  0  1  0  0  0  0  0  0
  182.0140  178.6260  141.2680 C   0  0  0  0  0  1  0  0  0  0  0  0
  189.0770  177.2170  140.9700 O   0  0  0  0  0  0  0  0  0  0  0  0
  189.4060  177.1660  143.8930 C   0  0  0  0  0  0  0  0  0  0  0  0
  190.0560  177.9880  141.6630 C   0  0  2  0  0  3  0  0  0  0  0  0
  191.6800  176.7530  143.2430 C   0  0  0  0  0  2  0  0  0  0  0  0
  191.3570  177.1640  141.7970 C   0  0  0  0  0  2  0  0  0  0  0  0
  190.4530  176.3940  143.9570 N   0  0  0  0  0  0  0  0  0  0  0  0
  189.4740  178.3900  143.0260 C   0  0  0  0  0  2  0  0  0  0  0  0
  188.1890  176.7470  144.5230 N   0  0  0  0  0  2  0  0  0  0  0  0
  186.0590  177.6480  143.5910 C   0  0  0  0  0  3  0  0  0  0  0  0
  184.6320  179.0160  144.9890 C   0  0  0  0  0  3  0  0  0  0  0  0
  186.7030  178.1260  145.8730 C   0  0  0  0  0  3  0  0  0  0  0  0
  186.9710  177.5030  144.6520 C   0  0  0  0  0  0  0  0  0  0  0  0
  184.8930  178.4020  143.7610 C   0  0  0  0  0  3  0  0  0  0  0  0
  185.5400  178.8770  146.0440 C   0  0  0  0  0  3  0  0  0  0  0  0
  2  3  1  0  0  0  0
  3 29  1  0  0  0  0
  4  1  2  0  0  0  0
  5  4  1  0  0  0  0
  6  5  1  0  0  0  0
  7 12  1  1  0  0  0
  7  8  1  0  0  0  0
  8  4  1  0  0  0  0
  8  3  2  0  0  0  0
  9 10  2  0  0  0  0
 10  6  1  0  0  0  0
 10  7  1  0  0  0  0
 11 12  3  0  0  0  0
 13 16  1  0  0  0  0
 15 13  2  0  0  0  0
 15 17  1  0  0  0  0
 16 14  2  0  0  0  0
 17 19  1  0  0  0  0
 17 18  2  0  0  0  0
 18 14  1  0  0  0  0
 18 11  1  0  0  0  0
 19 25  1  0  0  0  0
 20 23  1  0  0  0  0
 21 24  1  0  0  0  0
 22 23  1  0  0  0  0
 22 26  1  0  0  0  0
 24 22  1  0  0  0  0
 25 21  1  0  0  0  0
 25 20  2  0  0  0  0
 26 27  1  0  0  0  0
 26 28  1  0  0  0  0
 30 34  2  0  0  0  0
 30 36  1  0  0  0  0
 31 29  1  1  0  0  0
 31 33  1  0  0  0  0
 31 35  1  0  0  0  0
 32 34  1  0  0  0  0
 33 32  1  0  0  0  0
 35 30  1  0  0  0  0
 36 40  1  0  0  0  0
 37 41  2  0  0  0  0
 37 40  1  0  0  0  0
 38 42  2  0  0  0  0
 39 42  1  0  0  0  0
 40 39  2  0  0  0  0
 41 38  1  0  0  0  0
M  END
>  <MODEL>
1

>  <REMARK>
 VINA RESULT:      -7.8      0.000      0.000
  Name = 
  8 active torsions:
  status: ('A' for Active; 'I' for Inactive)
    1  A    between atoms: C_3  and  N_30
    2  A    between atoms: O_4  and  C_11
    3  A    between atoms: O_4  and  C_22
    4  A    between atoms: C_7  and  C_29
    5  A    between atoms: C_12  and  C_28
    6  A    between atoms: C_12  and  C_42
    7  A    between atoms: C_14  and  C_26
    8  A    between atoms: C_32  and  N_38
                            x       y       z     vdW  Elec       q    Type
                         _______ _______ _______ _____ _____    ______ ____

>  <TORSDO>
F 8

$$$$
=
 OpenBabel11062413403D

 42 46  0  0  1  0  0  0  0  0999 V2000
  188.1540  174.8300  136.8120 O   0  0  0  0  0  0  0  0  0  0  0  0
  184.8110  177.5490  137.5890 C   0  0  0  0  0  1  0  0  0  0  0  0
  185.9160  176.5690  137.3360 C   0  0  0  0  0  0  0  0  0  0  0  0
  188.3360  175.9800  137.2920 C   0  0  0  0  0  0  0  0  0  0  0  0
  189.7320  176.4340  137.5860 C   0  0  0  0  0  2  0  0  0  0  0  0
  189.8630  177.8350  137.3320 O   0  0  0  0  0  0  0  0  0  0  0  0
  187.5350  178.2390  138.1990 C   0  0  2  0  0  3  0  0  0  0  0  0
  187.2010  176.9030  137.5800 C   0  0  0  0  0  0  0  0  0  0  0  0
  189.0580  179.9780  137.5710 O   0  0  0  0  0  0  0  0  0  0  0  0
  188.8560  178.7400  137.6870 C   0  0  0  0  0  0  0  0  0  0  0  0
  187.6020  177.9680  140.8570 C   0  0  0  0  0  0  0  0  0  0  0  0
  187.5920  178.0980  139.6570 C   0  0  0  0  0  0  0  0  0  0  0  0
  187.4720  177.3270  145.0450 C   0  0  0  0  0  3  0  0  0  0  0  0
  188.5110  176.9800  142.8900 C   0  0  0  0  0  3  0  0  0  0  0  0
  186.5110  178.1470  144.4460 C   0  0  0  0  0  3  0  0  0  0  0  0
  188.4800  176.7480  144.2730 C   0  0  0  0  0  3  0  0  0  0  0  0
  186.5530  178.4110  143.0680 C   0  0  0  0  0  0  0  0  0  0  0  0
  187.5520  177.8000  142.2810 C   0  0  0  0  0  0  0  0  0  0  0  0
  185.5370  179.3350  142.4570 C   0  0  0  0  0  2  0  0  0  0  0  0
  183.4640  179.0040  143.7040 C   0  0  0  0  0  3  0  0  0  0  0  0
  183.3780  177.9520  141.1670 S   0  0  0  0  0  0  0  0  0  0  0  0
  181.4250  179.3860  142.5730 N   0  0  0  0  0  0  0  0  0  0  0  0
  182.0100  178.6910  143.7190 C   0  0  0  0  0  2  0  0  0  0  0  0
  181.6610  178.6280  141.3380 C   0  0  0  0  0  2  0  0  0  0  0  0
  184.1530  178.7740  142.5860 C   0  0  0  0  0  0  0  0  0  0  0  0
  179.9840  179.6190  142.7460 C   0  0  0  0  0  3  0  0  0  0  0  0
  179.1700  179.3600  141.4790 C   0  0  0  0  0  1  0  0  0  0  0  0
  179.4450  178.7920  143.9040 C   0  0  0  0  0  1  0  0  0  0  0  0
  185.6100  175.2930  136.8410 O   0  0  0  0  0  0  0  0  0  0  0  0
  182.9010  174.2240  136.4230 C   0  0  0  0  0  0  0  0  0  0  0  0
  185.0550  174.2360  137.6190 C   0  0  2  0  0  3  0  0  0  0  0  0
  184.1370  172.1660  136.3800 C   0  0  0  0  0  2  0  0  0  0  0  0
  185.3750  172.8810  136.9470 C   0  0  0  0  0  2  0  0  0  0  0  0
  183.2180  173.1370  135.7810 N   0  0  0  0  0  0  0  0  0  0  0  0
  183.5450  174.4800  137.7550 C   0  0  0  0  0  2  0  0  0  0  0  0
  182.0750  175.2010  135.7780 N   0  0  0  0  0  2  0  0  0  0  0  0
  180.7210  176.3870  137.5050 C   0  0  0  0  0  3  0  0  0  0  0  0
  180.5060  178.7960  137.4020 C   0  0  0  0  0  3  0  0  0  0  0  0
  181.8180  177.6230  135.7390 C   0  0  0  0  0  3  0  0  0  0  0  0
  181.5340  176.4030  136.3570 C   0  0  0  0  0  0  0  0  0  0  0  0
  180.2110  177.5800  138.0250 C   0  0  0  0  0  3  0  0  0  0  0  0
  181.3100  178.8140  136.2580 C   0  0  0  0  0  3  0  0  0  0  0  0
  1  4  2  0  0  0  0
  3  8  2  0  0  0  0
  3  2  1  0  0  0  0
  4  8  1  0  0  0  0
  4  5  1  0  0  0  0
  6  5  1  0  0  0  0
  6 10  1  0  0  0  0
  7 12  1  1  0  0  0
  8  7  1  0  0  0  0
  9 10  2  0  0  0  0
 10  7  1  0  0  0  0
 11 18  1  0  0  0  0
 12 11  3  0  0  0  0
 14 16  1  0  0  0  0
 15 13  1  0  0  0  0
 16 13  2  0  0  0  0
 17 15  2  0  0  0  0
 18 14  2  0  0  0  0
 18 17  1  0  0  0  0
 19 25  1  0  0  0  0
 19 17  1  0  0  0  0
 20 23  1  0  0  0  0
 21 24  1  0  0  0  0
 21 25  1  0  0  0  0
 22 26  1  0  0  0  0
 22 23  1  0  0  0  0
 24 22  1  0  0  0  0
 25 20  2  0  0  0  0
 26 28  1  0  0  0  0
 27 26  1  0  0  0  0
 29  3  1  0  0  0  0
 30 35  1  0  0  0  0
 31 29  1  6  0  0  0
 31 35  1  0  0  0  0
 32 33  1  0  0  0  0
 33 31  1  0  0  0  0
 34 32  1  0  0  0  0
 34 30  2  0  0  0  0
 36 40  1  0  0  0  0
 36 30  1  0  0  0  0
 37 41  1  0  0  0  0
 38 41  2  0  0  0  0
 39 42  2  0  0  0  0
 39 40  1  0  0  0  0
 40 37  2  0  0  0  0
 42 38  1  0  0  0  0
M  END
>  <MODEL>
2

>  <REMARK>
 VINA RESULT:      -7.7      2.790      7.216
  Name = 
  8 active torsions:
  status: ('A' for Active; 'I' for Inactive)
    1  A    between atoms: C_3  and  N_30
    2  A    between atoms: O_4  and  C_11
    3  A    between atoms: O_4  and  C_22
    4  A    between atoms: C_7  and  C_29
    5  A    between atoms: C_12  and  C_28
    6  A    between atoms: C_12  and  C_42
    7  A    between atoms: C_14  and  C_26
    8  A    between atoms: C_32  and  N_38
                            x       y       z     vdW  Elec       q    Type
                         _______ _______ _______ _____ _____    ______ ____

>  <TORSDO>
F 8

$$$$
=
 OpenBabel11062413403D

 42 46  0  0  1  0  0  0  0  0999 V2000
  184.5220  178.0890  141.8030 O   0  0  0  0  0  0  0  0  0  0  0  0
  186.5480  178.4010  137.9340 C   0  0  0  0  0  1  0  0  0  0  0  0
  185.9050  178.2610  139.2800 C   0  0  0  0  0  0  0  0  0  0  0  0
  183.8770  178.1520  140.7230 C   0  0  0  0  0  0  0  0  0  0  0  0
  182.3800  178.1390  140.7660 C   0  0  0  0  0  2  0  0  0  0  0  0
  181.8460  178.9710  139.7330 O   0  0  0  0  0  0  0  0  0  0  0  0
  183.6860  178.2600  138.1700 C   0  0  2  0  0  3  0  0  0  0  0  0
  184.5600  178.2370  139.4000 C   0  0  0  0  0  0  0  0  0  0  0  0
  181.8310  179.6330  137.5280 O   0  0  0  0  0  0  0  0  0  0  0  0
  182.4040  178.9920  138.4490 C   0  0  0  0  0  0  0  0  0  0  0  0
  183.1690  175.7570  137.3890 C   0  0  0  0  0  0  0  0  0  0  0  0
  183.3900  176.8850  137.7580 C   0  0  0  0  0  0  0  0  0  0  0  0
  182.3390  171.8480  135.9750 C   0  0  0  0  0  3  0  0  0  0  0  0
  181.7840  174.1960  136.1320 C   0  0  0  0  0  3  0  0  0  0  0  0
  183.4910  172.0730  136.7340 C   0  0  0  0  0  3  0  0  0  0  0  0
  181.4860  172.9080  135.6630 C   0  0  0  0  0  3  0  0  0  0  0  0
  183.8140  173.3640  137.1810 C   0  0  0  0  0  0  0  0  0  0  0  0
  182.9360  174.4300  136.8940 C   0  0  0  0  0  0  0  0  0  0  0  0
  185.0830  173.5870  137.9550 C   0  0  0  0  0  2  0  0  0  0  0  0
  186.5000  174.8440  136.4130 C   0  0  0  0  0  3  0  0  0  0  0  0
  187.4360  172.3110  136.9190 S   0  0  0  0  0  0  0  0  0  0  0  0
  188.8390  174.7280  136.7240 N   0  0  0  0  0  0  0  0  0  0  0  0
  187.8090  175.0270  135.7300 C   0  0  0  0  0  2  0  0  0  0  0  0
  189.0170  173.2770  136.8560 C   0  0  0  0  0  2  0  0  0  0  0  0
  186.2630  173.6880  137.0350 C   0  0  0  0  0  0  0  0  0  0  0  0
  190.1250  175.3580  136.3900 C   0  0  0  0  0  3  0  0  0  0  0  0
  190.0320  176.8730  136.2160 C   0  0  0  0  0  1  0  0  0  0  0  0
  191.1780  175.0060  137.4300 C   0  0  0  0  0  1  0  0  0  0  0  0
  186.7080  178.1520  140.4240 O   0  0  0  0  0  0  0  0  0  0  0  0
  188.6380  177.2160  142.4380 C   0  0  0  0  0  0  0  0  0  0  0  0
  188.0400  178.6500  140.5260 C   0  0  2  0  0  3  0  0  0  0  0  0
  189.9820  176.9510  140.4670 C   0  0  0  0  0  2  0  0  0  0  0  0
  188.9790  177.7860  139.6540 C   0  0  0  0  0  2  0  0  0  0  0  0
  189.3450  176.4300  141.6790 N   0  0  0  0  0  0  0  0  0  0  0  0
  188.4450  178.6410  142.0070 C   0  0  0  0  0  2  0  0  0  0  0  0
  187.9490  176.6630  143.5670 N   0  0  0  0  0  2  0  0  0  0  0  0
  187.7050  177.5650  145.8790 C   0  0  0  0  0  3  0  0  0  0  0  0
  185.6960  178.7740  146.4800 C   0  0  0  0  0  3  0  0  0  0  0  0
  185.9570  177.8930  144.2390 C   0  0  0  0  0  3  0  0  0  0  0  0
  187.2130  177.3810  144.5740 C   0  0  0  0  0  0  0  0  0  0  0  0
  186.9480  178.2610  146.8270 C   0  0  0  0  0  3  0  0  0  0  0  0
  185.2020  178.5880  145.1840 C   0  0  0  0  0  3  0  0  0  0  0  0
  2  3  1  0  0  0  0
  3  8  2  0  0  0  0
  3 29  1  0  0  0  0
  4  5  1  0  0  0  0
  4  1  2  0  0  0  0
  6  5  1  0  0  0  0
  7 12  1  1  0  0  0
  7 10  1  0  0  0  0
  7  8  1  0  0  0  0
  8  4  1  0  0  0  0
  9 10  2  0  0  0  0
 10  6  1  0  0  0  0
 11 12  3  0  0  0  0
 13 15  1  0  0  0  0
 14 18  2  0  0  0  0
 15 17  2  0  0  0  0
 16 13  2  0  0  0  0
 16 14  1  0  0  0  0
 17 19  1  0  0  0  0
 18 17  1  0  0  0  0
 18 11  1  0  0  0  0
 20 25  2  0  0  0  0
 21 25  1  0  0  0  0
 22 24  1  0  0  0  0
 23 20  1  0  0  0  0
 23 22  1  0  0  0  0
 24 21  1  0  0  0  0
 25 19  1  0  0  0  0
 26 22  1  0  0  0  0
 26 28  1  0  0  0  0
 27 26  1  0  0  0  0
 30 36  1  0  0  0  0
 31 29  1  1  0  0  0
 31 35  1  0  0  0  0
 32 34  1  0  0  0  0
 33 32  1  0  0  0  0
 33 31  1  0  0  0  0
 34 30  2  0  0  0  0
 35 30  1  0  0  0  0
 36 40  1  0  0  0  0
 37 41  1  0  0  0  0
 38 41  2  0  0  0  0
 39 40  1  0  0  0  0
 39 42  2  0  0  0  0
 40 37  2  0  0  0  0
 42 38  1  0  0  0  0
M  END
>  <MODEL>
3

>  <REMARK>
 VINA RESULT:      -7.7      2.434      4.837
  Name = 
  8 active torsions:
  status: ('A' for Active; 'I' for Inactive)
    1  A    between atoms: C_3  and  N_30
    2  A    between atoms: O_4  and  C_11
    3  A    between atoms: O_4  and  C_22
    4  A    between atoms: C_7  and  C_29
    5  A    between atoms: C_12  and  C_28
    6  A    between atoms: C_12  and  C_42
    7  A    between atoms: C_14  and  C_26
    8  A    between atoms: C_32  and  N_38
                            x       y       z     vdW  Elec       q    Type
                         _______ _______ _______ _____ _____    ______ ____

>  <TORSDO>
F 8

$$$$
=
 OpenBabel11062413403D

 42 46  0  0  1  0  0  0  0  0999 V2000
  184.4900  177.8550  137.6000 O   0  0  0  0  0  0  0  0  0  0  0  0
  181.5510  175.5510  139.8860 C   0  0  0  0  0  1  0  0  0  0  0  0
  182.5950  176.2880  139.1030 C   0  0  0  0  0  0  0  0  0  0  0  0
  183.7220  178.4050  138.4330 C   0  0  0  0  0  0  0  0  0  0  0  0
  183.8060  179.8870  138.6310 C   0  0  0  0  0  2  0  0  0  0  0  0
  182.5080  180.4260  138.8950 O   0  0  0  0  0  0  0  0  0  0  0  0
  181.8990  178.3840  140.2340 C   0  0  2  0  0  3  0  0  0  0  0  0
  182.7340  177.6250  139.2310 C   0  0  0  0  0  0  0  0  0  0  0  0
  180.5160  180.3300  140.0450 O   0  0  0  0  0  0  0  0  0  0  0  0
  181.5970  179.7650  139.7270 C   0  0  0  0  0  0  0  0  0  0  0  0
  183.2590  178.5430  142.5290 C   0  0  0  0  0  0  0  0  0  0  0  0
  182.6270  178.4720  141.5030 C   0  0  0  0  0  0  0  0  0  0  0  0
  185.5440  178.8550  146.0860 C   0  0  0  0  0  3  0  0  0  0  0  0
  183.4170  178.6260  144.9590 C   0  0  0  0  0  3  0  0  0  0  0  0
  186.1960  178.8420  144.8490 C   0  0  0  0  0  3  0  0  0  0  0  0
  184.1550  178.7390  146.1470 C   0  0  0  0  0  3  0  0  0  0  0  0
  185.4700  178.6980  143.6570 C   0  0  0  0  0  0  0  0  0  0  0  0
  184.0630  178.6130  143.7150 C   0  0  0  0  0  0  0  0  0  0  0  0
  186.2000  178.6380  142.3450 C   0  0  0  0  0  2  0  0  0  0  0  0
  188.5530  178.2570  141.8110 C   0  0  0  0  0  3  0  0  0  0  0  0
  187.5560  176.4650  143.6400 S   0  0  0  0  0  0  0  0  0  0  0  0
  190.0260  177.7880  143.5980 N   0  0  0  0  0  0  0  0  0  0  0  0
  189.8640  177.6430  142.1520 C   0  0  0  0  0  2  0  0  0  0  0  0
  189.2630  176.7520  144.3050 C   0  0  0  0  0  2  0  0  0  0  0  0
  187.4680  177.8480  142.4700 C   0  0  0  0  0  0  0  0  0  0  0  0
  191.4370  177.7300  144.0030 C   0  0  0  0  0  3  0  0  0  0  0  0
  192.0290  179.0980  144.3420 C   0  0  0  0  0  1  0  0  0  0  0  0
  191.6200  176.7680  145.1680 C   0  0  0  0  0  1  0  0  0  0  0  0
  183.4340  175.5800  138.2300 O   0  0  0  0  0  0  0  0  0  0  0  0
  185.1840  173.9470  136.5200 C   0  0  0  0  0  0  0  0  0  0  0  0
  183.0280  175.0510  136.9700 C   0  0  2  0  0  3  0  0  0  0  0  0
  183.2620  172.5100  136.5860 C   0  0  0  0  0  2  0  0  0  0  0  0
  182.4140  173.6480  137.1760 C   0  0  0  0  0  2  0  0  0  0  0  0
  184.6870  172.7760  136.7950 N   0  0  0  0  0  0  0  0  0  0  0  0
  184.2530  175.0240  136.0440 C   0  0  0  0  0  2  0  0  0  0  0  0
  186.5600  174.2110  136.8210 N   0  0  0  0  0  2  0  0  0  0  0  0
  187.7110  175.6960  135.1810 C   0  0  0  0  0  3  0  0  0  0  0  0
  188.7930  177.7170  135.9580 C   0  0  0  0  0  3  0  0  0  0  0  0
  187.6660  176.2610  137.5320 C   0  0  0  0  0  3  0  0  0  0  0  0
  187.3110  175.3950  136.4950 C   0  0  0  0  0  0  0  0  0  0  0  0
  188.4480  176.8540  134.9150 C   0  0  0  0  0  3  0  0  0  0  0  0
  188.4010  177.4170  137.2670 C   0  0  0  0  0  3  0  0  0  0  0  0
  1  4  2  0  0  0  0
  3  8  2  0  0  0  0
  3  2  1  0  0  0  0
  4  5  1  0  0  0  0
  4  8  1  0  0  0  0
  5  6  1  0  0  0  0
  6 10  1  0  0  0  0
  7 12  1  1  0  0  0
  8  7  1  0  0  0  0
 10  9  2  0  0  0  0
 10  7  1  0  0  0  0
 11 18  1  0  0  0  0
 12 11  3  0  0  0  0
 13 16  1  0  0  0  0
 14 16  2  0  0  0  0
 15 13  2  0  0  0  0
 17 18  2  0  0  0  0
 17 15  1  0  0  0  0
 18 14  1  0  0  0  0
 19 25  1  0  0  0  0
 19 17  1  0  0  0  0
 20 23  1  0  0  0  0
 20 25  2  0  0  0  0
 21 24  1  0  0  0  0
 22 26  1  0  0  0  0
 22 24  1  0  0  0  0
 23 22  1  0  0  0  0
 25 21  1  0  0  0  0
 26 27  1  0  0  0  0
 26 28  1  0  0  0  0
 29  3  1  0  0  0  0
 30 34  2  0  0  0  0
 30 36  1  0  0  0  0
 31 33  1  0  0  0  0
 31 29  1  1  0  0  0
 32 34  1  0  0  0  0
 32 33  1  0  0  0  0
 35 30  1  0  0  0  0
 35 31  1  0  0  0  0
 37 40  1  0  0  0  0
 38 42  2  0  0  0  0
 40 36  1  0  0  0  0
 40 39  2  0  0  0  0
 41 37  2  0  0  0  0
 41 38  1  0  0  0  0
 42 39  1  0  0  0  0
M  END
>  <MODEL>
4

>  <REMARK>
 VINA RESULT:      -7.6      2.745      8.797
  Name = 
  8 active torsions:
  status: ('A' for Active; 'I' for Inactive)
    1  A    between atoms: C_3  and  N_30
    2  A    between atoms: O_4  and  C_11
    3  A    between atoms: O_4  and  C_22
    4  A    between atoms: C_7  and  C_29
    5  A    between atoms: C_12  and  C_28
    6  A    between atoms: C_12  and  C_42
    7  A    between atoms: C_14  and  C_26
    8  A    between atoms: C_32  and  N_38
                            x       y       z     vdW  Elec       q    Type
                         _______ _______ _______ _____ _____    ______ ____

>  <TORSDO>
F 8

$$$$
=
 OpenBabel11062413403D

 42 46  0  0  1  0  0  0  0  0999 V2000
  182.5070  175.6810  139.3110 O   0  0  0  0  0  0  0  0  0  0  0  0
  183.7610  179.8640  138.9850 C   0  0  0  0  0  1  0  0  0  0  0  0
  183.3240  178.4410  139.1600 C   0  0  0  0  0  0  0  0  0  0  0  0
  183.3400  176.0550  138.4430 C   0  0  0  0  0  0  0  0  0  0  0  0
  183.8990  175.0470  137.4880 C   0  0  0  0  0  2  0  0  0  0  0  0
  184.1130  175.6420  136.2060 O   0  0  0  0  0  0  0  0  0  0  0  0
  184.8260  177.7980  137.2920 C   0  0  2  0  0  3  0  0  0  0  0  0
  183.7880  177.4740  138.3400 C   0  0  0  0  0  0  0  0  0  0  0  0
  184.9320  177.3790  134.9360 O   0  0  0  0  0  0  0  0  0  0  0  0
  184.6320  176.9360  136.0770 C   0  0  0  0  0  0  0  0  0  0  0  0
  187.2800  177.4010  138.2720 C   0  0  0  0  0  0  0  0  0  0  0  0
  186.1640  177.5740  137.8480 C   0  0  0  0  0  0  0  0  0  0  0  0
  191.2510  176.6630  139.5610 C   0  0  0  0  0  3  0  0  0  0  0  0
  189.4640  176.3670  137.9590 C   0  0  0  0  0  3  0  0  0  0  0  0
  190.4250  177.4970  140.3220 C   0  0  0  0  0  3  0  0  0  0  0  0
  190.7780  176.1030  138.3740 C   0  0  0  0  0  3  0  0  0  0  0  0
  189.1200  177.7920  139.8990 C   0  0  0  0  0  0  0  0  0  0  0  0
  188.6300  177.2000  138.7160 C   0  0  0  0  0  0  0  0  0  0  0  0
  188.2700  178.7300  140.7100 C   0  0  0  0  0  2  0  0  0  0  0  0
  188.2160  177.2070  142.6180 C   0  0  0  0  0  3  0  0  0  0  0  0
  185.7660  178.3120  142.0480 S   0  0  0  0  0  0  0  0  0  0  0  0
  186.9950  177.8760  144.5270 N   0  0  0  0  0  0  0  0  0  0  0  0
  187.5340  176.7030  143.8400 C   0  0  0  0  0  2  0  0  0  0  0  0
  185.7380  178.3040  143.9020 C   0  0  0  0  0  2  0  0  0  0  0  0
  187.5310  177.9920  141.7860 C   0  0  0  0  0  0  0  0  0  0  0  0
  186.7780  177.6250  145.9590 C   0  0  0  0  0  3  0  0  0  0  0  0
  188.0740  177.4640  146.7520 C   0  0  0  0  0  1  0  0  0  0  0  0
  185.9140  178.7190  146.5680 C   0  0  0  0  0  1  0  0  0  0  0  0
  182.4250  178.1140  140.1840 O   0  0  0  0  0  0  0  0  0  0  0  0
  179.6030  178.5810  139.4960 C   0  0  0  0  0  0  0  0  0  0  0  0
  181.5970  179.0550  140.8640 C   0  0  2  0  0  3  0  0  0  0  0  0
  179.3670  178.2160  141.8570 C   0  0  0  0  0  2  0  0  0  0  0  0
  180.8870  178.3540  142.0450 C   0  0  0  0  0  2  0  0  0  0  0  0
  179.0530  177.9030  140.4610 N   0  0  0  0  0  0  0  0  0  0  0  0
  180.6050  179.6420  139.8500 C   0  0  0  0  0  2  0  0  0  0  0  0
  179.3520  178.1940  138.1380 N   0  0  0  0  0  2  0  0  0  0  0  0
  179.1440  180.0430  136.4770 C   0  0  0  0  0  3  0  0  0  0  0  0
  180.6660  180.1310  134.5970 C   0  0  0  0  0  3  0  0  0  0  0  0
  180.8510  178.3480  136.2250 C   0  0  0  0  0  3  0  0  0  0  0  0
  179.7790  178.8780  136.9460 C   0  0  0  0  0  0  0  0  0  0  0  0
  179.5880  180.6660  135.3070 C   0  0  0  0  0  3  0  0  0  0  0  0
  181.2960  178.9710  135.0580 C   0  0  0  0  0  3  0  0  0  0  0  0
  2  3  1  0  0  0  0
  3 29  1  0  0  0  0
  4  1  2  0  0  0  0
  5  4  1  0  0  0  0
  6  5  1  0  0  0  0
  7 12  1  1  0  0  0
  7  8  1  0  0  0  0
  8  4  1  0  0  0  0
  8  3  2  0  0  0  0
  9 10  2  0  0  0  0
 10  6  1  0  0  0  0
 10  7  1  0  0  0  0
 11 18  1  0  0  0  0
 12 11  3  0  0  0  0
 13 15  1  0  0  0  0
 14 16  1  0  0  0  0
 14 18  2  0  0  0  0
 16 13  2  0  0  0  0
 17 15  2  0  0  0  0
 17 19  1  0  0  0  0
 18 17  1  0  0  0  0
 19 25  1  0  0  0  0
 20 23  1  0  0  0  0
 21 24  1  0  0  0  0
 22 26  1  0  0  0  0
 23 22  1  0  0  0  0
 24 22  1  0  0  0  0
 25 21  1  0  0  0  0
 25 20  2  0  0  0  0
 26 28  1  0  0  0  0
 26 27  1  0  0  0  0
 30 35  1  0  0  0  0
 30 34  2  0  0  0  0
 31 29  1  6  0  0  0
 31 33  1  0  0  0  0
 32 33  1  0  0  0  0
 34 32  1  0  0  0  0
 35 31  1  0  0  0  0
 36 30  1  0  0  0  0
 37 40  1  0  0  0  0
 38 42  2  0  0  0  0
 38 41  1  0  0  0  0
 39 40  2  0  0  0  0
 40 36  1  0  0  0  0
 41 37  2  0  0  0  0
 42 39  1  0  0  0  0
M  END
>  <MODEL>
5

>  <REMARK>
 VINA RESULT:      -7.6      2.778      8.002
  Name = 
  8 active torsions:
  status: ('A' for Active; 'I' for Inactive)
    1  A    between atoms: C_3  and  N_30
    2  A    between atoms: O_4  and  C_11
    3  A    between atoms: O_4  and  C_22
    4  A    between atoms: C_7  and  C_29
    5  A    between atoms: C_12  and  C_28
    6  A    between atoms: C_12  and  C_42
    7  A    between atoms: C_14  and  C_26
    8  A    between atoms: C_32  and  N_38
                            x       y       z     vdW  Elec       q    Type
                         _______ _______ _______ _____ _____    ______ ____

>  <TORSDO>
F 8

$$$$
=
 OpenBabel11062413403D

 42 46  0  0  1  0  0  0  0  0999 V2000
  185.6630  175.4920  137.2740 O   0  0  0  0  0  0  0  0  0  0  0  0
  184.4390  179.3770  138.8810 C   0  0  0  0  0  1  0  0  0  0  0  0
  184.8060  178.0210  138.3600 C   0  0  0  0  0  0  0  0  0  0  0  0
  186.5060  176.3790  137.5720 C   0  0  0  0  0  0  0  0  0  0  0  0
  187.9610  176.1030  137.3530 C   0  0  0  0  0  2  0  0  0  0  0  0
  188.6390  177.2980  136.9560 O   0  0  0  0  0  0  0  0  0  0  0  0
  187.1990  178.6640  138.5030 C   0  0  2  0  0  3  0  0  0  0  0  0
  186.0980  177.6960  138.1400 C   0  0  0  0  0  0  0  0  0  0  0  0
  189.0550  179.5400  137.2700 O   0  0  0  0  0  0  0  0  0  0  0  0
  188.3500  178.5330  137.5470 C   0  0  0  0  0  0  0  0  0  0  0  0
  188.0480  178.1980  140.9940 C   0  0  0  0  0  0  0  0  0  0  0  0
  187.6570  178.3880  139.8680 C   0  0  0  0  0  0  0  0  0  0  0  0
  189.6420  177.6390  144.8820 C   0  0  0  0  0  3  0  0  0  0  0  0
  189.8370  178.4790  142.6230 C   0  0  0  0  0  3  0  0  0  0  0  0
  188.3510  177.1840  144.5970 C   0  0  0  0  0  3  0  0  0  0  0  0
  190.3870  178.2960  143.9010 C   0  0  0  0  0  3  0  0  0  0  0  0
  187.7810  177.3910  143.3310 C   0  0  0  0  0  0  0  0  0  0  0  0
  188.5440  178.0260  142.3290 C   0  0  0  0  0  0  0  0  0  0  0  0
  186.3740  176.9350  143.0670 C   0  0  0  0  0  2  0  0  0  0  0  0
  184.6410  178.4280  142.2090 C   0  0  0  0  0  3  0  0  0  0  0  0
  185.1490  178.7880  144.8850 S   0  0  0  0  0  0  0  0  0  0  0  0
  182.7010  178.7340  143.5240 N   0  0  0  0  0  0  0  0  0  0  0  0
  183.4960  179.3440  142.4590 C   0  0  0  0  0  2  0  0  0  0  0  0
  183.3080  179.0000  144.8330 C   0  0  0  0  0  2  0  0  0  0  0  0
  185.4010  178.0630  143.2430 C   0  0  0  0  0  0  0  0  0  0  0  0
  181.3100  179.2080  143.5140 C   0  0  0  0  0  3  0  0  0  0  0  0
  180.7350  179.3780  142.1090 C   0  0  0  0  0  1  0  0  0  0  0  0
  180.4260  178.2890  144.3430 C   0  0  0  0  0  1  0  0  0  0  0  0
  183.7980  177.0830  138.0990 O   0  0  0  0  0  0  0  0  0  0  0  0
  180.8580  176.9670  138.1450 C   0  0  0  0  0  0  0  0  0  0  0  0
  183.0550  176.3940  139.1020 C   0  0  2  0  0  3  0  0  0  0  0  0
  181.3380  174.6230  138.3430 C   0  0  0  0  0  2  0  0  0  0  0  0
  182.8120  174.9360  138.6500 C   0  0  0  0  0  2  0  0  0  0  0  0
  180.7040  175.7620  137.6760 N   0  0  0  0  0  0  0  0  0  0  0  0
  181.7450  177.1590  139.3410 C   0  0  0  0  0  2  0  0  0  0  0  0
  180.3060  178.0750  137.4220 N   0  0  0  0  0  2  0  0  0  0  0  0
  179.3710  179.9390  138.7900 C   0  0  0  0  0  3  0  0  0  0  0  0
  180.2860  182.1670  138.5500 C   0  0  0  0  0  3  0  0  0  0  0  0
  181.1800  180.3400  137.2360 C   0  0  0  0  0  3  0  0  0  0  0  0
  180.2790  179.4540  137.8310 C   0  0  0  0  0  0  0  0  0  0  0  0
  179.3760  181.2910  139.1470 C   0  0  0  0  0  3  0  0  0  0  0  0
  181.1870  181.6890  137.5930 C   0  0  0  0  0  3  0  0  0  0  0  0
  1  4  2  0  0  0  0
  3  2  1  0  0  0  0
  4  8  1  0  0  0  0
  5  4  1  0  0  0  0
  6  5  1  0  0  0  0
  6 10  1  0  0  0  0
  7 12  1  1  0  0  0
  8  3  2  0  0  0  0
  8  7  1  0  0  0  0
  9 10  2  0  0  0  0
 10  7  1  0  0  0  0
 11 18  1  0  0  0  0
 12 11  3  0  0  0  0
 14 16  1  0  0  0  0
 15 13  1  0  0  0  0
 16 13  2  0  0  0  0
 17 15  2  0  0  0  0
 18 14  2  0  0  0  0
 18 17  1  0  0  0  0
 19 25  1  0  0  0  0
 19 17  1  0  0  0  0
 20 23  1  0  0  0  0
 20 25  2  0  0  0  0
 22 24  1  0  0  0  0
 23 22  1  0  0  0  0
 24 21  1  0  0  0  0
 25 21  1  0  0  0  0
 26 22  1  0  0  0  0
 26 28  1  0  0  0  0
 27 26  1  0  0  0  0
 29  3  1  0  0  0  0
 30 35  1  0  0  0  0
 31 29  1  6  0  0  0
 31 35  1  0  0  0  0
 32 33  1  0  0  0  0
 33 31  1  0  0  0  0
 34 30  2  0  0  0  0
 34 32  1  0  0  0  0
 36 40  1  0  0  0  0
 36 30  1  0  0  0  0
 37 41  1  0  0  0  0
 38 41  2  0  0  0  0
 39 42  2  0  0  0  0
 39 40  1  0  0  0  0
 40 37  2  0  0  0  0
 42 38  1  0  0  0  0
M  END
>  <MODEL>
6

>  <REMARK>
 VINA RESULT:      -7.3      3.076      7.483
  Name = 
  8 active torsions:
  status: ('A' for Active; 'I' for Inactive)
    1  A    between atoms: C_3  and  N_30
    2  A    between atoms: O_4  and  C_11
    3  A    between atoms: O_4  and  C_22
    4  A    between atoms: C_7  and  C_29
    5  A    between atoms: C_12  and  C_28
    6  A    between atoms: C_12  and  C_42
    7  A    between atoms: C_14  and  C_26
    8  A    between atoms: C_32  and  N_38
                            x       y       z     vdW  Elec       q    Type
                         _______ _______ _______ _____ _____    ______ ____

>  <TORSDO>
F 8

$$$$
=
 OpenBabel11062413403D

 42 46  0  0  1  0  0  0  0  0999 V2000
  186.8690  174.9770  136.8320 O   0  0  0  0  0  0  0  0  0  0  0  0
  184.3060  178.4010  137.7660 C   0  0  0  0  0  1  0  0  0  0  0  0
  185.1340  177.1900  137.4600 C   0  0  0  0  0  0  0  0  0  0  0  0
  187.3410  176.0460  137.3010 C   0  0  0  0  0  0  0  0  0  0  0  0
  188.8170  176.1530  137.5270 C   0  0  0  0  0  2  0  0  0  0  0  0
  189.2640  177.4860  137.2650 O   0  0  0  0  0  0  0  0  0  0  0  0
  187.1420  178.4210  138.2420 C   0  0  2  0  0  3  0  0  0  0  0  0
  186.4720  177.2080  137.6420 C   0  0  0  0  0  0  0  0  0  0  0  0
  189.0010  179.7570  137.5400 O   0  0  0  0  0  0  0  0  0  0  0  0
  188.5180  178.6000  137.6670 C   0  0  0  0  0  0  0  0  0  0  0  0
  187.2740  178.0970  140.8920 C   0  0  0  0  0  0  0  0  0  0  0  0
  187.2320  178.2560  139.6960 C   0  0  0  0  0  0  0  0  0  0  0  0
  187.2690  177.3190  145.0590 C   0  0  0  0  0  3  0  0  0  0  0  0
  188.2480  177.0500  142.8640 C   0  0  0  0  0  3  0  0  0  0  0  0
  186.2860  178.1510  144.5150 C   0  0  0  0  0  3  0  0  0  0  0  0
  188.2580  176.7730  144.2400 C   0  0  0  0  0  3  0  0  0  0  0  0
  186.2870  178.4600  143.1460 C   0  0  0  0  0  0  0  0  0  0  0  0
  187.2660  177.8830  142.3110 C   0  0  0  0  0  0  0  0  0  0  0  0
  185.2480  179.3960  142.5950 C   0  0  0  0  0  2  0  0  0  0  0  0
  183.1270  179.0280  143.7500 C   0  0  0  0  0  3  0  0  0  0  0  0
  183.2060  177.8950  141.2480 S   0  0  0  0  0  0  0  0  0  0  0  0
  181.1350  179.2990  142.5080 N   0  0  0  0  0  0  0  0  0  0  0  0
  181.6860  178.6620  143.7040 C   0  0  0  0  0  2  0  0  0  0  0  0
  181.4590  178.5110  141.3120 C   0  0  0  0  0  2  0  0  0  0  0  0
  183.8790  178.7890  142.6750 C   0  0  0  0  0  0  0  0  0  0  0  0
  179.6800  179.4840  142.6030 C   0  0  0  0  0  3  0  0  0  0  0  0
  179.1390  179.3280  144.0230 C   0  0  0  0  0  1  0  0  0  0  0  0
  179.2730  180.8300  142.0230 C   0  0  0  0  0  1  0  0  0  0  0  0
  184.5120  176.0290  136.9820 O   0  0  0  0  0  0  0  0  0  0  0  0
  182.6740  173.7400  136.7740 C   0  0  0  0  0  0  0  0  0  0  0  0
  183.3660  176.0160  136.1330 C   0  0  2  0  0  3  0  0  0  0  0  0
  181.0740  175.4800  137.1910 C   0  0  0  0  0  2  0  0  0  0  0  0
  182.1440  176.5500  136.9130 C   0  0  0  0  0  2  0  0  0  0  0  0
  181.7070  174.2000  137.5140 N   0  0  0  0  0  0  0  0  0  0  0  0
  183.1580  174.5810  135.6280 C   0  0  0  0  0  2  0  0  0  0  0  0
  183.3390  172.5320  137.1630 N   0  0  0  0  0  2  0  0  0  0  0  0
  185.6880  172.2390  136.3790 C   0  0  0  0  0  3  0  0  0  0  0  0
  186.2400  170.3710  134.9410 C   0  0  0  0  0  3  0  0  0  0  0  0
  183.9660  170.6740  135.7190 C   0  0  0  0  0  3  0  0  0  0  0  0
  184.3470  171.8170  136.4260 C   0  0  0  0  0  0  0  0  0  0  0  0
  186.6300  171.5170  135.6400 C   0  0  0  0  0  3  0  0  0  0  0  0
  184.9060  169.9520  134.9820 C   0  0  0  0  0  3  0  0  0  0  0  0
  1  4  2  0  0  0  0
  3  8  2  0  0  0  0
  3  2  1  0  0  0  0
  4  5  1  0  0  0  0
  4  8  1  0  0  0  0
  6  5  1  0  0  0  0
  6 10  1  0  0  0  0
  7 12  1  1  0  0  0
  8  7  1  0  0  0  0
  9 10  2  0  0  0  0
 10  7  1  0  0  0  0
 11 18  1  0  0  0  0
 12 11  3  0  0  0  0
 14 16  1  0  0  0  0
 15 13  1  0  0  0  0
 16 13  2  0  0  0  0
 17 15  2  0  0  0  0
 18 14  2  0  0  0  0
 18 17  1  0  0  0  0
 19 25  1  0  0  0  0
 19 17  1  0  0  0  0
 21 24  1  0  0  0  0
 21 25  1  0  0  0  0
 22 26  1  0  0  0  0
 22 23  1  0  0  0  0
 23 20  1  0  0  0  0
 24 22  1  0  0  0  0
 25 20  2  0  0  0  0
 26 27  1  0  0  0  0
 28 26  1  0  0  0  0
 29  3  1  0  0  0  0
 30 36  1  0  0  0  0
 30 34  2  0  0  0  0
 31 33  1  0  0  0  0
 31 29  1  1  0  0  0
 32 34  1  0  0  0  0
 33 32  1  0  0  0  0
 35 31  1  0  0  0  0
 35 30  1  0  0  0  0
 37 40  1  0  0  0  0
 38 42  2  0  0  0  0
 38 41  1  0  0  0  0
 39 40  2  0  0  0  0
 40 36  1  0  0  0  0
 41 37  2  0  0  0  0
 42 39  1  0  0  0  0
M  END
>  <MODEL>
7

>  <REMARK>
 VINA RESULT:      -7.2      2.841      7.864
  Name = 
  8 active torsions:
  status: ('A' for Active; 'I' for Inactive)
    1  A    between atoms: C_3  and  N_30
    2  A    between atoms: O_4  and  C_11
    3  A    between atoms: O_4  and  C_22
    4  A    between atoms: C_7  and  C_29
    5  A    between atoms: C_12  and  C_28
    6  A    between atoms: C_12  and  C_42
    7  A    between atoms: C_14  and  C_26
    8  A    between atoms: C_32  and  N_38
                            x       y       z     vdW  Elec       q    Type
                         _______ _______ _______ _____ _____    ______ ____

>  <TORSDO>
F 8

$$$$
=
 OpenBabel11062413403D

 42 46  0  0  1  0  0  0  0  0999 V2000
  187.0460  178.5230  139.7410 O   0  0  0  0  0  0  0  0  0  0  0  0
  190.5760  176.0330  139.0270 C   0  0  0  0  0  1  0  0  0  0  0  0
  189.3640  176.8610  139.3310 C   0  0  0  0  0  0  0  0  0  0  0  0
  187.3170  178.0740  138.5960 C   0  0  0  0  0  0  0  0  0  0  0  0
  186.4190  178.4170  137.4480 C   0  0  0  0  0  2  0  0  0  0  0  0
  187.1830  178.5680  136.2480 O   0  0  0  0  0  0  0  0  0  0  0  0
  188.7050  176.6890  136.9450 C   0  0  2  0  0  3  0  0  0  0  0  0
  188.5050  177.2080  138.3490 C   0  0  0  0  0  0  0  0  0  0  0  0
  188.8040  177.7810  134.8160 O   0  0  0  0  0  0  0  0  0  0  0  0
  188.2390  177.7030  135.9400 C   0  0  0  0  0  0  0  0  0  0  0  0
  187.3240  174.4270  136.6000 C   0  0  0  0  0  0  0  0  0  0  0  0
  187.9510  175.4430  136.7760 C   0  0  0  0  0  0  0  0  0  0  0  0
  185.0980  170.9420  135.6680 C   0  0  0  0  0  3  0  0  0  0  0  0
  187.0910  172.2920  135.4480 C   0  0  0  0  0  3  0  0  0  0  0  0
  184.5620  171.8830  136.5520 C   0  0  0  0  0  3  0  0  0  0  0  0
  186.3660  171.1370  135.1200 C   0  0  0  0  0  3  0  0  0  0  0  0
  185.2930  173.0260  136.9110 C   0  0  0  0  0  0  0  0  0  0  0  0
  186.5620  173.2410  136.3340 C   0  0  0  0  0  0  0  0  0  0  0  0
  184.7140  173.9980  137.9020 C   0  0  0  0  0  2  0  0  0  0  0  0
  183.7090  175.1140  135.9760 C   0  0  0  0  0  3  0  0  0  0  0  0
  182.1600  175.2620  138.2400 S   0  0  0  0  0  0  0  0  0  0  0  0
  181.4030  174.7770  135.5870 N   0  0  0  0  0  0  0  0  0  0  0  0
  182.5120  175.6870  135.3030 C   0  0  0  0  0  2  0  0  0  0  0  0
  180.8690  175.0240  136.9310 C   0  0  0  0  0  2  0  0  0  0  0  0
  183.6310  174.8240  137.2750 C   0  0  0  0  0  0  0  0  0  0  0  0
  180.3260  174.8950  134.5940 C   0  0  0  0  0  3  0  0  0  0  0  0
  179.3440  173.7240  134.6200 C   0  0  0  0  0  1  0  0  0  0  0  0
  179.5860  176.2140  134.7630 C   0  0  0  0  0  1  0  0  0  0  0  0
  189.1230  177.2780  140.6480 O   0  0  0  0  0  0  0  0  0  0  0  0
  189.1500  177.1150  143.5850 C   0  0  0  0  0  0  0  0  0  0  0  0
  190.0670  177.9680  141.4630 C   0  0  2  0  0  3  0  0  0  0  0  0
  191.4520  176.5910  143.1510 C   0  0  0  0  0  2  0  0  0  0  0  0
  191.3000  177.0650  141.6960 C   0  0  0  0  0  2  0  0  0  0  0  0
  190.1410  176.2820  143.7250 N   0  0  0  0  0  0  0  0  0  0  0  0
  189.3730  178.3600  142.7760 C   0  0  0  0  0  2  0  0  0  0  0  0
  187.8540  176.7480  144.0750 N   0  0  0  0  0  2  0  0  0  0  0  0
  185.9360  177.8800  142.9520 C   0  0  0  0  0  3  0  0  0  0  0  0
  184.3940  179.2000  144.2710 C   0  0  0  0  0  3  0  0  0  0  0  0
  186.2620  178.0890  145.3400 C   0  0  0  0  0  3  0  0  0  0  0  0
  186.6720  177.5700  144.1100 C   0  0  0  0  0  0  0  0  0  0  0  0
  184.8000  178.6910  143.0350 C   0  0  0  0  0  3  0  0  0  0  0  0
  185.1280  178.8970  145.4230 C   0  0  0  0  0  3  0  0  0  0  0  0
  2  3  1  0  0  0  0
  3 29  1  0  0  0  0
  4  1  2  0  0  0  0
  5  4  1  0  0  0  0
  6  5  1  0  0  0  0
  7 12  1  1  0  0  0
  7  8  1  0  0  0  0
  8  4  1  0  0  0  0
  8  3  2  0  0  0  0
  9 10  2  0  0  0  0
 10  6  1  0  0  0  0
 10  7  1  0  0  0  0
 11 12  3  0  0  0  0
 13 15  1  0  0  0  0
 14 18  2  0  0  0  0
 15 17  2  0  0  0  0
 16 14  1  0  0  0  0
 16 13  2  0  0  0  0
 17 19  1  0  0  0  0
 18 11  1  0  0  0  0
 18 17  1  0  0  0  0
 20 25  2  0  0  0  0
 22 24  1  0  0  0  0
 23 22  1  0  0  0  0
 23 20  1  0  0  0  0
 24 21  1  0  0  0  0
 25 19  1  0  0  0  0
 25 21  1  0  0  0  0
 26 27  1  0  0  0  0
 26 28  1  0  0  0  0
 26 22  1  0  0  0  0
 30 34  2  0  0  0  0
 30 36  1  0  0  0  0
 31 29  1  6  0  0  0
 31 33  1  0  0  0  0
 31 35  1  0  0  0  0
 32 34  1  0  0  0  0
 33 32  1  0  0  0  0
 35 30  1  0  0  0  0
 36 40  1  0  0  0  0
 37 41  2  0  0  0  0
 37 40  1  0  0  0  0
 38 42  2  0  0  0  0
 39 42  1  0  0  0  0
 40 39  2  0  0  0  0
 41 38  1  0  0  0  0
M  END
>  <MODEL>
8

>  <REMARK>
 VINA RESULT:      -7.2      1.698      2.417
  Name = 
  8 active torsions:
  status: ('A' for Active; 'I' for Inactive)
    1  A    between atoms: C_3  and  N_30
    2  A    between atoms: O_4  and  C_11
    3  A    between atoms: O_4  and  C_22
    4  A    between atoms: C_7  and  C_29
    5  A    between atoms: C_12  and  C_28
    6  A    between atoms: C_12  and  C_42
    7  A    between atoms: C_14  and  C_26
    8  A    between atoms: C_32  and  N_38
                            x       y       z     vdW  Elec       q    Type
                         _______ _______ _______ _____ _____    ______ ____

>  <TORSDO>
F 8

$$$$
=
 OpenBabel11062413403D

 42 46  0  0  1  0  0  0  0  0999 V2000
  184.4350  178.2590  143.5130 O   0  0  0  0  0  0  0  0  0  0  0  0
  184.9290  179.0640  139.2380 C   0  0  0  0  0  1  0  0  0  0  0  0
  184.8110  178.7500  140.6980 C   0  0  0  0  0  0  0  0  0  0  0  0
  183.4500  178.5080  142.7700 C   0  0  0  0  0  0  0  0  0  0  0  0
  182.0780  178.5490  143.3690 C   0  0  0  0  0  2  0  0  0  0  0  0
  181.2830  179.5460  142.7220 O   0  0  0  0  0  0  0  0  0  0  0  0
  182.3500  179.0040  140.5090 C   0  0  2  0  0  3  0  0  0  0  0  0
  183.6080  178.7620  141.3090 C   0  0  0  0  0  0  0  0  0  0  0  0
  180.5250  180.5300  140.7840 O   0  0  0  0  0  0  0  0  0  0  0  0
  181.3330  179.7360  141.3360 C   0  0  0  0  0  0  0  0  0  0  0  0
  181.3310  176.6770  139.6790 C   0  0  0  0  0  0  0  0  0  0  0  0
  181.7980  177.7180  140.0710 C   0  0  0  0  0  0  0  0  0  0  0  0
  179.6640  173.0400  138.2780 C   0  0  0  0  0  3  0  0  0  0  0  0
  180.1220  174.5980  140.0690 C   0  0  0  0  0  3  0  0  0  0  0  0
  180.2830  173.9060  137.3710 C   0  0  0  0  0  3  0  0  0  0  0  0
  179.5730  173.3850  139.6270 C   0  0  0  0  0  3  0  0  0  0  0  0
  180.8070  175.1350  137.7990 C   0  0  0  0  0  0  0  0  0  0  0  0
  180.7450  175.4710  139.1670 C   0  0  0  0  0  0  0  0  0  0  0  0
  181.4240  176.0690  136.7960 C   0  0  0  0  0  2  0  0  0  0  0  0
  183.3610  176.0950  135.3080 C   0  0  0  0  0  3  0  0  0  0  0  0
  183.7680  174.6130  137.5860 S   0  0  0  0  0  0  0  0  0  0  0  0
  185.4930  176.3930  136.2820 N   0  0  0  0  0  0  0  0  0  0  0  0
  184.8170  175.8790  135.0910 C   0  0  0  0  0  2  0  0  0  0  0  0
  185.4260  175.4130  137.3720 C   0  0  0  0  0  2  0  0  0  0  0  0
  182.8090  175.6270  136.4280 C   0  0  0  0  0  0  0  0  0  0  0  0
  186.8950  176.7410  136.0120 C   0  0  0  0  0  3  0  0  0  0  0  0
  187.1800  178.2390  136.1130 C   0  0  0  0  0  1  0  0  0  0  0  0
  187.8260  175.9600  136.9260 C   0  0  0  0  0  1  0  0  0  0  0  0
  185.9630  178.4400  141.4350 O   0  0  0  0  0  0  0  0  0  0  0  0
  188.4340  177.3150  142.5690 C   0  0  0  0  0  0  0  0  0  0  0  0
  187.2610  178.9650  141.1640 C   0  0  2  0  0  3  0  0  0  0  0  0
  189.0580  177.3530  140.2510 C   0  0  0  0  0  2  0  0  0  0  0  0
  187.8540  178.2530  139.9270 C   0  0  0  0  0  2  0  0  0  0  0  0
  188.8470  176.6590  141.5230 N   0  0  0  0  0  0  0  0  0  0  0  0
  188.1270  178.7770  142.4190 C   0  0  0  0  0  2  0  0  0  0  0  0
  188.1450  176.5970  143.7760 N   0  0  0  0  0  2  0  0  0  0  0  0
  186.4690  177.5340  145.3660 C   0  0  0  0  0  3  0  0  0  0  0  0
  187.1840  178.2520  147.5650 C   0  0  0  0  0  3  0  0  0  0  0  0
  188.7930  177.3350  146.0050 C   0  0  0  0  0  3  0  0  0  0  0  0
  187.7860  177.1540  145.0540 C   0  0  0  0  0  0  0  0  0  0  0  0
  186.1700  178.0800  146.6190 C   0  0  0  0  0  3  0  0  0  0  0  0
  188.4960  177.8790  147.2550 C   0  0  0  0  0  3  0  0  0  0  0  0
  2  3  1  0  0  0  0
  3  8  2  0  0  0  0
  3 29  1  0  0  0  0
  4  5  1  0  0  0  0
  4  1  2  0  0  0  0
  6  5  1  0  0  0  0
  7 12  1  1  0  0  0
  7  8  1  0  0  0  0
  7 10  1  0  0  0  0
  8  4  1  0  0  0  0
  9 10  2  0  0  0  0
 10  6  1  0  0  0  0
 11 12  3  0  0  0  0
 13 16  1  0  0  0  0
 15 17  1  0  0  0  0
 15 13  2  0  0  0  0
 16 14  2  0  0  0  0
 17 18  2  0  0  0  0
 18 11  1  0  0  0  0
 18 14  1  0  0  0  0
 19 17  1  0  0  0  0
 20 25  2  0  0  0  0
 22 24  1  0  0  0  0
 23 20  1  0  0  0  0
 23 22  1  0  0  0  0
 24 21  1  0  0  0  0
 25 19  1  0  0  0  0
 25 21  1  0  0  0  0
 26 27  1  0  0  0  0
 26 22  1  0  0  0  0
 26 28  1  0  0  0  0
 30 36  1  0  0  0  0
 31 29  1  1  0  0  0
 31 35  1  0  0  0  0
 32 34  1  0  0  0  0
 33 32  1  0  0  0  0
 33 31  1  0  0  0  0
 34 30  2  0  0  0  0
 35 30  1  0  0  0  0
 36 40  1  0  0  0  0
 37 41  1  0  0  0  0
 39 42  2  0  0  0  0
 40 37  2  0  0  0  0
 40 39  1  0  0  0  0
 41 38  2  0  0  0  0
 42 38  1  0  0  0  0
M  END
>  <MODEL>
9

>  <REMARK>
 VINA RESULT:      -7.1      2.399      5.088
  Name = 
  8 active torsions:
  status: ('A' for Active; 'I' for Inactive)
    1  A    between atoms: C_3  and  N_30
    2  A    between atoms: O_4  and  C_11
    3  A    between atoms: O_4  and  C_22
    4  A    between atoms: C_7  and  C_29
    5  A    between atoms: C_12  and  C_28
    6  A    between atoms: C_12  and  C_42
    7  A    between atoms: C_14  and  C_26
    8  A    between atoms: C_32  and  N_38
                            x       y       z     vdW  Elec       q    Type
                         _______ _______ _______ _____ _____    ______ ____

>  <TORSDO>
F 8

$$$$
