=
 OpenBabel11062413103D

 40 42  0  0  1  0  0  0  0  0999 V2000
  187.9470  177.2150  142.1890 C   0  0  1  0  0  3  0  0  0  0  0  0
  187.9130  178.6840  141.7920 C   0  0  0  0  0  1  0  0  0  0  0  0
  189.2910  176.5860  141.8300 C   0  0  0  0  0  2  0  0  0  0  0  0
  190.0480  177.3110  140.7090 C   0  0  2  0  0  3  0  0  0  0  0  0
  189.2220  177.8800  138.3480 C   0  0  0  0  0  2  0  0  0  0  0  0
  190.3920  176.8940  136.4910 O   0  0  0  0  0  0  0  0  0  0  0  0
  190.7200  175.7460  137.2310 C   0  0  0  0  0  2  0  0  0  0  0  0
  191.0080  176.1230  138.6880 C   0  0  0  0  0  2  0  0  0  0  0  0
  189.7750  176.8020  139.2870 C   0  0  0  0  0  3  0  0  0  0  0  0
  189.1220  177.3070  136.9330 C   0  0  0  0  0  2  0  0  0  0  0  0
  191.8300  177.5200  141.0530 S   0  0  0  0  0  0  0  0  0  0  0  0
  191.2270  177.1070  145.5870 C   0  0  0  0  0  0  0  0  0  0  0  0
  191.5670  175.9870  144.8150 C   0  0  0  0  0  3  0  0  0  0  0  0
  191.2650  178.4780  143.5830 C   0  0  0  0  0  3  0  0  0  0  0  0
  191.6020  177.3590  142.8190 C   0  0  0  0  0  0  0  0  0  0  0  0
  191.7520  176.1120  143.4360 C   0  0  0  0  0  3  0  0  0  0  0  0
  191.0780  178.3540  144.9610 C   0  0  0  0  0  3  0  0  0  0  0  0
  192.1030  176.6160  147.8940 N   0  0  0  0  0  1  0  0  0  0  0  0
  189.8840  177.1810  147.5390 O   0  0  0  0  0  0  0  0  0  0  0  0
  191.0210  176.9760  147.0400 C   0  0  0  0  0  0  0  0  0  0  0  0
  187.6890  177.0640  143.6840 C   0  0  0  0  0  2  0  0  0  0  0  0
  187.2300  178.2700  144.2320 O   0  0  0  0  0  0  0  0  0  0  0  0
  187.0550  178.0040  145.5930 C   0  0  0  0  0  2  0  0  0  0  0  0
  185.5900  178.1530  145.9650 C   0  0  0  0  0  2  0  0  0  0  0  0
  183.6990  178.3770  144.4100 C   0  0  2  0  0  3  0  0  0  0  0  0
  183.5930  179.3490  145.4230 O   0  0  0  0  0  0  0  0  0  0  0  0
  184.8910  179.0570  144.9670 C   0  0  1  0  0  3  0  0  0  0  0  0
  183.3490  179.0040  143.0660 C   0  0  2  0  0  3  0  0  0  0  0  0
  181.0650  179.3310  143.6140 O   0  0  0  0  0  0  0  0  0  0  0  0
  181.8760  178.9490  142.7820 C   0  0  0  0  0  0  0  0  0  0  0  0
  181.4050  178.4030  141.4700 C   0  0  0  0  0  2  0  0  0  0  0  0
  180.3780  179.3180  140.8030 C   0  0  0  0  0  2  0  0  0  0  0  0
  180.5390  179.3650  139.2880 C   0  0  0  0  0  2  0  0  0  0  0  0
  182.0650  181.4240  138.5440 C   0  0  0  0  0  3  0  0  0  0  0  0
  181.3730  180.4980  138.8800 C   0  0  0  0  0  0  0  0  0  0  0  0
  184.1730  178.3940  141.9350 C   0  0  0  0  0  2  0  0  0  0  0  0
  184.6790  179.3860  141.0900 O   0  0  0  0  0  0  0  0  0  0  0  0
  185.8360  179.0330  138.5950 O   0  0  0  0  0  0  0  0  0  0  0  0
  183.7200  177.6110  139.1850 O   0  0  0  0  0  0  0  0  0  0  0  0
  184.7510  178.6490  139.5690 P   0  0  0  0  0  0  0  0  0  0  0  0
  1  2  1  1  0  0  0
  1 21  1  0  0  0  0
  3  1  1  0  0  0  0
  4 11  1  0  0  0  0
  4  3  1  1  0  0  0
  5  9  1  0  0  0  0
  6 10  1  0  0  0  0
  6  7  1  0  0  0  0
  7  8  1  0  0  0  0
  8  9  1  0  0  0  0
  9  4  1  0  0  0  0
 10  5  1  0  0  0  0
 11 15  1  0  0  0  0
 12 20  1  0  0  0  0
 13 12  2  0  0  0  0
 14 17  2  0  0  0  0
 15 16  2  0  0  0  0
 15 14  1  0  0  0  0
 16 13  1  0  0  0  0
 17 12  1  0  0  0  0
 20 19  2  0  0  0  0
 20 18  1  0  0  0  0
 21 22  1  0  0  0  0
 22 23  1  0  0  0  0
 23 24  1  0  0  0  0
 25 28  1  6  0  0  0
 25 27  1  0  0  0  0
 25 26  1  0  0  0  0
 27 26  1  0  0  0  0
 27 24  1  1  0  0  0
 28 36  1  6  0  0  0
 30 28  1  0  0  0  0
 30 29  2  0  0  0  0
 31 30  1  0  0  0  0
 32 31  1  0  0  0  0
 33 32  1  0  0  0  0
 34 35  3  0  0  0  0
 35 33  1  0  0  0  0
 37 36  1  0  0  0  0
 38 40  2  0  0  0  0
 39 40  2  0  0  0  0
 40 37  1  0  0  0  0
M  END
>  <MODEL>
1

>  <REMARK>
 VINA RESULT:      -6.7      0.000      0.000
  Name = 
  20 active torsions:
  status: ('A' for Active; 'I' for Inactive)
    1  A    between atoms: C_2  and  C_8
    2  A    between atoms: C_3  and  C_32
    3  A    between atoms: C_3  and  C_33
    4  A    between atoms: C_5  and  C_38
    5  A    between atoms: O_6  and  P_35
    6  A    between atoms: O_6  and  C_40
    7  A    between atoms: C_8  and  C_13
    8  A    between atoms: C_8  and  C_40
    9  A    between atoms: C_12  and  C_21
   10  A    between atoms: C_12  and  C_30
   11  A    between atoms: C_13  and  C_39
   12  A    between atoms: C_20  and  O_28
   13  A    between atoms: C_20  and  C_37
   14  A    between atoms: C_21  and  C_39
   15  A    between atoms: C_22  and  C_27
   16  A    between atoms: C_24  and  S_31
   17  A    between atoms: C_27  and  S_31
   18  A    between atoms: C_27  and  C_32
   19  A    between atoms: O_28  and  C_33
   20  A    between atoms: C_34  and  C_37
                            x       y       z     vdW  Elec       q    Type
                         _______ _______ _______ _____ _____    ______ ____

>  <TORSDO>
F 20

$$$$
=
 OpenBabel11062413103D

 40 42  0  0  1  0  0  0  0  0999 V2000
  191.2120  177.2250  141.2820 C   0  0  1  0  0  3  0  0  0  0  0  0
  192.5620  177.3050  140.5840 C   0  0  0  0  0  1  0  0  0  0  0  0
  191.1940  178.1010  142.5320 C   0  0  0  0  0  2  0  0  0  0  0  0
  190.3320  177.5510  143.6770 C   0  0  2  0  0  3  0  0  0  0  0  0
  190.2200  177.5320  146.2390 C   0  0  0  0  0  2  0  0  0  0  0  0
  191.3180  175.7260  147.3890 O   0  0  0  0  0  0  0  0  0  0  0  0
  192.2960  175.6060  146.3880 C   0  0  0  0  0  2  0  0  0  0  0  0
  191.6780  175.8710  145.0120 C   0  0  0  0  0  2  0  0  0  0  0  0
  191.0730  177.2760  144.9920 C   0  0  0  0  0  3  0  0  0  0  0  0
  191.0010  177.0940  147.4790 C   0  0  0  0  0  2  0  0  0  0  0  0
  189.2520  176.1670  143.1730 S   0  0  0  0  0  0  0  0  0  0  0  0
  185.4210  178.3470  144.4610 C   0  0  0  0  0  0  0  0  0  0  0  0
  186.2050  177.6760  145.4100 C   0  0  0  0  0  3  0  0  0  0  0  0
  186.9890  177.6880  142.7270 C   0  0  0  0  0  3  0  0  0  0  0  0
  187.7640  177.0210  143.6770 C   0  0  0  0  0  0  0  0  0  0  0  0
  187.3710  177.0140  145.0190 C   0  0  0  0  0  3  0  0  0  0  0  0
  185.8210  178.3480  143.1160 C   0  0  0  0  0  3  0  0  0  0  0  0
  183.4340  179.7940  143.9220 N   0  0  0  0  0  1  0  0  0  0  0  0
  183.7820  178.9650  146.0580 O   0  0  0  0  0  0  0  0  0  0  0  0
  184.1840  179.0370  144.8680 C   0  0  0  0  0  0  0  0  0  0  0  0
  190.0990  177.6560  140.3340 C   0  0  0  0  0  2  0  0  0  0  0  0
  190.2600  177.0580  139.0760 O   0  0  0  0  0  0  0  0  0  0  0  0
  189.7590  177.9940  138.1650 C   0  0  0  0  0  2  0  0  0  0  0  0
  188.6120  177.3870  137.3770 C   0  0  0  0  0  2  0  0  0  0  0  0
  186.3450  177.6410  138.2930 C   0  0  2  0  0  3  0  0  0  0  0  0
  187.1750  178.6560  138.8050 O   0  0  0  0  0  0  0  0  0  0  0  0
  187.3910  178.2840  137.4660 C   0  0  1  0  0  3  0  0  0  0  0  0
  184.9880  178.2310  137.9290 C   0  0  2  0  0  3  0  0  0  0  0  0
  184.3760  180.1300  139.2100 O   0  0  0  0  0  0  0  0  0  0  0  0
  184.3340  178.9130  139.0960 C   0  0  0  0  0  0  0  0  0  0  0  0
  183.6430  178.0840  140.1330 C   0  0  0  0  0  2  0  0  0  0  0  0
  182.3710  178.7550  140.6500 C   0  0  0  0  0  2  0  0  0  0  0  0
  181.1130  178.1970  139.9970 C   0  0  0  0  0  2  0  0  0  0  0  0
  180.8570  179.0770  137.4900 C   0  0  0  0  0  3  0  0  0  0  0  0
  180.9690  178.6840  138.6220 C   0  0  0  0  0  0  0  0  0  0  0  0
  184.0770  177.1830  137.2950 C   0  0  0  0  0  2  0  0  0  0  0  0
  184.6740  175.9190  137.3130 O   0  0  0  0  0  0  0  0  0  0  0  0
  182.2310  175.3330  138.4840 O   0  0  0  0  0  0  0  0  0  0  0  0
  183.4590  173.4280  137.1770 O   0  0  0  0  0  0  0  0  0  0  0  0
  183.4060  174.8570  137.6690 P   0  0  0  0  0  0  0  0  0  0  0  0
  1  2  1  6  0  0  0
  1  3  1  0  0  0  0
  4  3  1  6  0  0  0
  4  9  1  0  0  0  0
  5 10  1  0  0  0  0
  6 10  1  0  0  0  0
  7  6  1  0  0  0  0
  8  7  1  0  0  0  0
  9  8  1  0  0  0  0
  9  5  1  0  0  0  0
 11 15  1  0  0  0  0
 11  4  1  0  0  0  0
 12 20  1  0  0  0  0
 12 13  1  0  0  0  0
 14 17  1  0  0  0  0
 14 15  2  0  0  0  0
 15 16  1  0  0  0  0
 16 13  2  0  0  0  0
 17 12  2  0  0  0  0
 18 20  1  0  0  0  0
 20 19  2  0  0  0  0
 21  1  1  0  0  0  0
 22 21  1  0  0  0  0
 23 22  1  0  0  0  0
 24 23  1  0  0  0  0
 25 28  1  6  0  0  0
 25 26  1  0  0  0  0
 27 24  1  1  0  0  0
 27 25  1  0  0  0  0
 27 26  1  0  0  0  0
 28 36  1  1  0  0  0
 28 30  1  0  0  0  0
 30 29  2  0  0  0  0
 30 31  1  0  0  0  0
 31 32  1  0  0  0  0
 33 32  1  0  0  0  0
 34 35  3  0  0  0  0
 35 33  1  0  0  0  0
 36 37  1  0  0  0  0
 37 40  1  0  0  0  0
 39 40  2  0  0  0  0
 40 38  2  0  0  0  0
M  END
>  <MODEL>
2

>  <REMARK>
 VINA RESULT:      -6.6      2.666      6.063
  Name = 
  20 active torsions:
  status: ('A' for Active; 'I' for Inactive)
    1  A    between atoms: C_2  and  C_8
    2  A    between atoms: C_3  and  C_32
    3  A    between atoms: C_3  and  C_33
    4  A    between atoms: C_5  and  C_38
    5  A    between atoms: O_6  and  P_35
    6  A    between atoms: O_6  and  C_40
    7  A    between atoms: C_8  and  C_13
    8  A    between atoms: C_8  and  C_40
    9  A    between atoms: C_12  and  C_21
   10  A    between atoms: C_12  and  C_30
   11  A    between atoms: C_13  and  C_39
   12  A    between atoms: C_20  and  O_28
   13  A    between atoms: C_20  and  C_37
   14  A    between atoms: C_21  and  C_39
   15  A    between atoms: C_22  and  C_27
   16  A    between atoms: C_24  and  S_31
   17  A    between atoms: C_27  and  S_31
   18  A    between atoms: C_27  and  C_32
   19  A    between atoms: O_28  and  C_33
   20  A    between atoms: C_34  and  C_37
                            x       y       z     vdW  Elec       q    Type
                         _______ _______ _______ _____ _____    ______ ____

>  <TORSDO>
F 20

$$$$
=
 OpenBabel11062413103D

 40 42  0  0  1  0  0  0  0  0999 V2000
  192.1880  177.2300  139.0160 C   0  0  1  0  0  3  0  0  0  0  0  0
  193.2640  177.2060  140.0930 C   0  0  0  0  0  1  0  0  0  0  0  0
  192.7100  176.6290  137.7140 C   0  0  0  0  0  2  0  0  0  0  0  0
  191.8570  175.4780  137.1630 C   0  0  2  0  0  3  0  0  0  0  0  0
  192.3080  173.2750  135.9280 C   0  0  0  0  0  2  0  0  0  0  0  0
  194.4750  172.2670  136.2050 O   0  0  0  0  0  0  0  0  0  0  0  0
  194.6120  172.7790  137.5060 C   0  0  0  0  0  2  0  0  0  0  0  0
  193.9860  174.1740  137.5920 C   0  0  0  0  0  2  0  0  0  0  0  0
  192.5060  174.0880  137.2120 C   0  0  0  0  0  3  0  0  0  0  0  0
  193.1090  171.9770  136.0300 C   0  0  0  0  0  2  0  0  0  0  0  0
  191.1010  175.8460  135.5420 S   0  0  0  0  0  0  0  0  0  0  0  0
  187.2660  177.4940  137.4580 C   0  0  0  0  0  0  0  0  0  0  0  0
  188.2180  178.3690  136.9180 C   0  0  0  0  0  3  0  0  0  0  0  0
  188.6600  175.6110  136.8160 C   0  0  0  0  0  3  0  0  0  0  0  0
  189.6050  176.4890  136.2810 C   0  0  0  0  0  0  0  0  0  0  0  0
  189.3840  177.8690  136.3330 C   0  0  0  0  0  3  0  0  0  0  0  0
  187.4950  176.1110  137.4020 C   0  0  0  0  0  3  0  0  0  0  0  0
  186.1060  178.7370  139.3130 N   0  0  0  0  0  1  0  0  0  0  0  0
  184.9210  177.8330  137.5380 O   0  0  0  0  0  0  0  0  0  0  0  0
  186.0400  178.0190  138.0840 C   0  0  0  0  0  0  0  0  0  0  0  0
  190.9550  176.4640  139.4810 C   0  0  0  0  0  2  0  0  0  0  0  0
  190.1450  177.2740  140.2900 O   0  0  0  0  0  0  0  0  0  0  0  0
  190.0730  176.6020  141.5140 C   0  0  0  0  0  2  0  0  0  0  0  0
  189.9520  177.6030  142.6490 C   0  0  0  0  0  2  0  0  0  0  0  0
  188.8410  178.0430  144.7980 C   0  0  2  0  0  3  0  0  0  0  0  0
  187.8830  177.6430  143.8470 O   0  0  0  0  0  0  0  0  0  0  0  0
  189.1360  177.0070  143.7810 C   0  0  1  0  0  3  0  0  0  0  0  0
  188.5460  177.3660  146.1300 C   0  0  2  0  0  3  0  0  0  0  0  0
  187.2230  178.2950  147.8650 O   0  0  0  0  0  0  0  0  0  0  0  0
  187.2530  177.8370  146.7320 C   0  0  0  0  0  0  0  0  0  0  0  0
  185.9920  177.7230  145.9330 C   0  0  0  0  0  2  0  0  0  0  0  0
  185.2350  179.0480  145.8650 C   0  0  0  0  0  2  0  0  0  0  0  0
  183.9370  178.9360  145.0740 C   0  0  0  0  0  2  0  0  0  0  0  0
  184.4150  178.3060  142.5240 C   0  0  0  0  0  3  0  0  0  0  0  0
  184.2000  178.5850  143.6750 C   0  0  0  0  0  0  0  0  0  0  0  0
  189.7150  177.5120  147.1000 C   0  0  0  0  0  2  0  0  0  0  0  0
  190.1160  176.2680  147.5970 O   0  0  0  0  0  0  0  0  0  0  0  0
  192.0290  176.0090  145.6070 O   0  0  0  0  0  0  0  0  0  0  0  0
  192.8360  176.0360  148.0960 O   0  0  0  0  0  0  0  0  0  0  0  0
  191.7180  176.1020  147.0800 P   0  0  0  0  0  0  0  0  0  0  0  0
  1 21  1  0  0  0  0
  1  2  1  1  0  0  0
  3  1  1  0  0  0  0
  4  9  1  0  0  0  0
  4  3  1  6  0  0  0
  5 10  1  0  0  0  0
  5  9  1  0  0  0  0
  6  7  1  0  0  0  0
  7  8  1  0  0  0  0
  9  8  1  0  0  0  0
 10  6  1  0  0  0  0
 11 15  1  0  0  0  0
 11  4  1  0  0  0  0
 12 20  1  0  0  0  0
 13 12  2  0  0  0  0
 14 17  2  0  0  0  0
 15 16  2  0  0  0  0
 15 14  1  0  0  0  0
 16 13  1  0  0  0  0
 17 12  1  0  0  0  0
 19 20  2  0  0  0  0
 20 18  1  0  0  0  0
 21 22  1  0  0  0  0
 22 23  1  0  0  0  0
 23 24  1  0  0  0  0
 25 28  1  1  0  0  0
 26 25  1  0  0  0  0
 27 24  1  6  0  0  0
 27 26  1  0  0  0  0
 27 25  1  0  0  0  0
 28 30  1  0  0  0  0
 28 36  1  1  0  0  0
 30 29  2  0  0  0  0
 31 30  1  0  0  0  0
 32 31  1  0  0  0  0
 33 32  1  0  0  0  0
 34 35  3  0  0  0  0
 35 33  1  0  0  0  0
 36 37  1  0  0  0  0
 38 40  2  0  0  0  0
 40 37  1  0  0  0  0
 40 39  2  0  0  0  0
M  END
>  <MODEL>
3

>  <REMARK>
 VINA RESULT:      -6.5      3.692      7.265
  Name = 
  20 active torsions:
  status: ('A' for Active; 'I' for Inactive)
    1  A    between atoms: C_2  and  C_8
    2  A    between atoms: C_3  and  C_32
    3  A    between atoms: C_3  and  C_33
    4  A    between atoms: C_5  and  C_38
    5  A    between atoms: O_6  and  P_35
    6  A    between atoms: O_6  and  C_40
    7  A    between atoms: C_8  and  C_13
    8  A    between atoms: C_8  and  C_40
    9  A    between atoms: C_12  and  C_21
   10  A    between atoms: C_12  and  C_30
   11  A    between atoms: C_13  and  C_39
   12  A    between atoms: C_20  and  O_28
   13  A    between atoms: C_20  and  C_37
   14  A    between atoms: C_21  and  C_39
   15  A    between atoms: C_22  and  C_27
   16  A    between atoms: C_24  and  S_31
   17  A    between atoms: C_27  and  S_31
   18  A    between atoms: C_27  and  C_32
   19  A    between atoms: O_28  and  C_33
   20  A    between atoms: C_34  and  C_37
                            x       y       z     vdW  Elec       q    Type
                         _______ _______ _______ _____ _____    ______ ____

>  <TORSDO>
F 20

$$$$
=
 OpenBabel11062413103D

 40 42  0  0  1  0  0  0  0  0999 V2000
  187.2460  177.0660  145.1260 C   0  0  1  0  0  3  0  0  0  0  0  0
  186.8730  176.6400  143.7130 C   0  0  0  0  0  1  0  0  0  0  0  0
  188.3820  178.0840  145.1050 C   0  0  0  0  0  2  0  0  0  0  0  0
  189.7280  177.5210  144.6250 C   0  0  2  0  0  3  0  0  0  0  0  0
  191.7520  176.0080  145.0600 C   0  0  0  0  0  2  0  0  0  0  0  0
  192.7430  176.0760  147.2510 O   0  0  0  0  0  0  0  0  0  0  0  0
  191.5140  176.3720  147.8630 C   0  0  0  0  0  2  0  0  0  0  0  0
  190.6830  177.2890  146.9590 C   0  0  0  0  0  2  0  0  0  0  0  0
  190.4510  176.5980  145.6140 C   0  0  0  0  0  3  0  0  0  0  0  0
  192.4580  175.2250  146.1680 C   0  0  0  0  0  2  0  0  0  0  0  0
  190.8300  178.7870  143.9060 S   0  0  0  0  0  0  0  0  0  0  0  0
  190.8070  176.7870  139.7710 C   0  0  0  0  0  0  0  0  0  0  0  0
  189.6000  177.1060  140.4090 C   0  0  0  0  0  3  0  0  0  0  0  0
  192.0260  177.7020  141.6640 C   0  0  0  0  0  3  0  0  0  0  0  0
  190.8190  178.0150  142.2930 C   0  0  0  0  0  0  0  0  0  0  0  0
  189.6060  177.7150  141.6660 C   0  0  0  0  0  3  0  0  0  0  0  0
  192.0210  177.0900  140.4080 C   0  0  0  0  0  3  0  0  0  0  0  0
  191.7110  176.5550  137.4350 N   0  0  0  0  0  1  0  0  0  0  0  0
  189.9970  175.2000  138.2080 O   0  0  0  0  0  0  0  0  0  0  0  0
  190.8040  176.1350  138.4510 C   0  0  0  0  0  0  0  0  0  0  0  0
  186.0350  177.6570  145.8390 C   0  0  0  0  0  2  0  0  0  0  0  0
  185.5210  178.7460  145.1200 O   0  0  0  0  0  0  0  0  0  0  0  0
  184.1620  178.7830  145.4470 C   0  0  0  0  0  2  0  0  0  0  0  0
  183.3320  178.9660  144.1880 C   0  0  0  0  0  2  0  0  0  0  0  0
  183.6050  179.0930  141.7490 C   0  0  2  0  0  3  0  0  0  0  0  0
  184.8000  179.4940  142.3770 O   0  0  0  0  0  0  0  0  0  0  0  0
  184.0930  178.4410  142.9850 C   0  0  1  0  0  3  0  0  0  0  0  0
  183.9330  178.2070  140.5540 C   0  0  2  0  0  3  0  0  0  0  0  0
  184.4040  180.0180  139.0970 O   0  0  0  0  0  0  0  0  0  0  0  0
  184.7540  178.9260  139.5230 C   0  0  0  0  0  0  0  0  0  0  0  0
  186.0040  178.2840  139.0060 C   0  0  0  0  0  2  0  0  0  0  0  0
  185.7990  177.6570  137.6270 C   0  0  0  0  0  2  0  0  0  0  0  0
  187.1160  177.3080  136.9460 C   0  0  0  0  0  2  0  0  0  0  0  0
  188.9530  179.1920  137.3940 C   0  0  0  0  0  3  0  0  0  0  0  0
  188.1270  178.3400  137.1880 C   0  0  0  0  0  0  0  0  0  0  0  0
  182.6720  177.5910  139.9530 C   0  0  0  0  0  2  0  0  0  0  0  0
  182.8500  176.2280  139.6970 O   0  0  0  0  0  0  0  0  0  0  0  0
  182.0940  177.1210  137.1830 O   0  0  0  0  0  0  0  0  0  0  0  0
  181.5620  174.6400  137.8210 O   0  0  0  0  0  0  0  0  0  0  0  0
  182.1460  175.9890  138.1770 P   0  0  0  0  0  0  0  0  0  0  0  0
  1  2  1  6  0  0  0
  1 21  1  0  0  0  0
  3  1  1  0  0  0  0
  4  3  1  1  0  0  0
  4  9  1  0  0  0  0
  5  9  1  0  0  0  0
  5 10  1  0  0  0  0
  6  7  1  0  0  0  0
  8  7  1  0  0  0  0
  9  8  1  0  0  0  0
 10  6  1  0  0  0  0
 11  4  1  0  0  0  0
 12 17  2  0  0  0  0
 12 13  1  0  0  0  0
 13 16  2  0  0  0  0
 14 15  2  0  0  0  0
 15 11  1  0  0  0  0
 16 15  1  0  0  0  0
 17 14  1  0  0  0  0
 18 20  1  0  0  0  0
 19 20  2  0  0  0  0
 20 12  1  0  0  0  0
 22 23  1  0  0  0  0
 22 21  1  0  0  0  0
 24 23  1  0  0  0  0
 25 28  1  6  0  0  0
 25 26  1  0  0  0  0
 25 27  1  0  0  0  0
 26 27  1  0  0  0  0
 27 24  1  1  0  0  0
 28 36  1  6  0  0  0
 29 30  2  0  0  0  0
 30 28  1  0  0  0  0
 31 30  1  0  0  0  0
 32 31  1  0  0  0  0
 33 35  1  0  0  0  0
 33 32  1  0  0  0  0
 35 34  3  0  0  0  0
 37 36  1  0  0  0  0
 38 40  2  0  0  0  0
 39 40  2  0  0  0  0
 40 37  1  0  0  0  0
M  END
>  <MODEL>
4

>  <REMARK>
 VINA RESULT:      -6.4      2.582      5.803
  Name = 
  20 active torsions:
  status: ('A' for Active; 'I' for Inactive)
    1  A    between atoms: C_2  and  C_8
    2  A    between atoms: C_3  and  C_32
    3  A    between atoms: C_3  and  C_33
    4  A    between atoms: C_5  and  C_38
    5  A    between atoms: O_6  and  P_35
    6  A    between atoms: O_6  and  C_40
    7  A    between atoms: C_8  and  C_13
    8  A    between atoms: C_8  and  C_40
    9  A    between atoms: C_12  and  C_21
   10  A    between atoms: C_12  and  C_30
   11  A    between atoms: C_13  and  C_39
   12  A    between atoms: C_20  and  O_28
   13  A    between atoms: C_20  and  C_37
   14  A    between atoms: C_21  and  C_39
   15  A    between atoms: C_22  and  C_27
   16  A    between atoms: C_24  and  S_31
   17  A    between atoms: C_27  and  S_31
   18  A    between atoms: C_27  and  C_32
   19  A    between atoms: O_28  and  C_33
   20  A    between atoms: C_34  and  C_37
                            x       y       z     vdW  Elec       q    Type
                         _______ _______ _______ _____ _____    ______ ____

>  <TORSDO>
F 20

$$$$
=
 OpenBabel11062413103D

 40 42  0  0  1  0  0  0  0  0999 V2000
  183.0990  179.2250  140.2750 C   0  0  1  0  0  3  0  0  0  0  0  0
  184.0290  179.3490  139.0760 C   0  0  0  0  0  1  0  0  0  0  0  0
  181.6420  179.1500  139.8270 C   0  0  0  0  0  2  0  0  0  0  0  0
  181.4450  179.2080  138.3050 C   0  0  2  0  0  3  0  0  0  0  0  0
  181.4460  181.7730  138.3140 C   0  0  0  0  0  2  0  0  0  0  0  0
  181.0460  182.8940  136.2230 O   0  0  0  0  0  0  0  0  0  0  0  0
  180.2250  181.8540  135.7550 C   0  0  0  0  0  2  0  0  0  0  0  0
  180.7600  180.5030  136.2390 C   0  0  0  0  0  2  0  0  0  0  0  0
  180.8020  180.4940  137.7680 C   0  0  0  0  0  3  0  0  0  0  0  0
  180.8290  182.9830  137.6110 C   0  0  0  0  0  2  0  0  0  0  0  0
  180.6860  177.6980  137.6140 S   0  0  0  0  0  0  0  0  0  0  0  0
  184.7680  175.7850  136.7320 C   0  0  0  0  0  0  0  0  0  0  0  0
  183.9880  175.3250  137.8020 C   0  0  0  0  0  3  0  0  0  0  0  0
  183.0420  177.4100  136.1980 C   0  0  0  0  0  3  0  0  0  0  0  0
  182.2720  176.9470  137.2670 C   0  0  0  0  0  0  0  0  0  0  0  0
  182.7460  175.9050  138.0710 C   0  0  0  0  0  3  0  0  0  0  0  0
  184.2850  176.8320  135.9310 C   0  0  0  0  0  3  0  0  0  0  0  0
  187.2190  175.5300  137.2390 N   0  0  0  0  0  1  0  0  0  0  0  0
  186.2130  174.3550  135.5130 O   0  0  0  0  0  0  0  0  0  0  0  0
  186.0830  175.1820  136.4530 C   0  0  0  0  0  0  0  0  0  0  0  0
  183.4520  177.9870  141.0930 C   0  0  0  0  0  2  0  0  0  0  0  0
  184.1220  178.3470  142.2710 O   0  0  0  0  0  0  0  0  0  0  0  0
  183.1170  178.7940  143.1340 C   0  0  0  0  0  2  0  0  0  0  0  0
  183.7370  179.4500  144.3550 C   0  0  0  0  0  2  0  0  0  0  0  0
  185.7530  178.8980  145.6500 C   0  0  2  0  0  3  0  0  0  0  0  0
  184.6350  178.9120  146.5050 O   0  0  0  0  0  0  0  0  0  0  0  0
  184.4280  178.4030  145.2100 C   0  0  1  0  0  3  0  0  0  0  0  0
  186.6410  177.7080  145.9950 C   0  0  2  0  0  3  0  0  0  0  0  0
  187.1150  178.8590  148.0150 O   0  0  0  0  0  0  0  0  0  0  0  0
  187.3670  177.9020  147.2950 C   0  0  0  0  0  0  0  0  0  0  0  0
  188.4190  176.9160  147.6980 C   0  0  0  0  0  2  0  0  0  0  0  0
  189.7990  177.5630  147.8080 C   0  0  0  0  0  2  0  0  0  0  0  0
  190.9150  176.6340  147.3460 C   0  0  0  0  0  2  0  0  0  0  0  0
  191.5190  177.0400  144.7780 C   0  0  0  0  0  3  0  0  0  0  0  0
  191.2430  176.8610  145.9370 C   0  0  0  0  0  0  0  0  0  0  0  0
  187.5940  177.3740  144.8520 C   0  0  0  0  0  2  0  0  0  0  0  0
  186.9700  177.5380  143.6110 O   0  0  0  0  0  0  0  0  0  0  0  0
  188.4450  178.6690  141.5540 O   0  0  0  0  0  0  0  0  0  0  0  0
  189.1590  176.3090  142.4290 O   0  0  0  0  0  0  0  0  0  0  0  0
  188.2390  177.5070  142.4920 P   0  0  0  0  0  0  0  0  0  0  0  0
  1  2  1  6  0  0  0
  1 21  1  0  0  0  0
  3  1  1  0  0  0  0
  4  3  1  1  0  0  0
  6 10  1  0  0  0  0
  7  6  1  0  0  0  0
  7  8  1  0  0  0  0
  8  9  1  0  0  0  0
  9  4  1  0  0  0  0
  9  5  1  0  0  0  0
 10  5  1  0  0  0  0
 11  4  1  0  0  0  0
 12 13  1  0  0  0  0
 13 16  2  0  0  0  0
 14 15  2  0  0  0  0
 15 11  1  0  0  0  0
 15 16  1  0  0  0  0
 17 14  1  0  0  0  0
 17 12  2  0  0  0  0
 19 20  2  0  0  0  0
 20 12  1  0  0  0  0
 20 18  1  0  0  0  0
 21 22  1  0  0  0  0
 22 23  1  0  0  0  0
 23 24  1  0  0  0  0
 25 28  1  1  0  0  0
 25 26  1  0  0  0  0
 27 24  1  6  0  0  0
 27 25  1  0  0  0  0
 27 26  1  0  0  0  0
 28 36  1  6  0  0  0
 28 30  1  0  0  0  0
 30 31  1  0  0  0  0
 30 29  2  0  0  0  0
 31 32  1  0  0  0  0
 33 32  1  0  0  0  0
 34 35  3  0  0  0  0
 35 33  1  0  0  0  0
 37 36  1  0  0  0  0
 38 40  2  0  0  0  0
 39 40  2  0  0  0  0
 40 37  1  0  0  0  0
M  END
>  <MODEL>
5

>  <REMARK>
 VINA RESULT:      -6.2      3.874      8.966
  Name = 
  20 active torsions:
  status: ('A' for Active; 'I' for Inactive)
    1  A    between atoms: C_2  and  C_8
    2  A    between atoms: C_3  and  C_32
    3  A    between atoms: C_3  and  C_33
    4  A    between atoms: C_5  and  C_38
    5  A    between atoms: O_6  and  P_35
    6  A    between atoms: O_6  and  C_40
    7  A    between atoms: C_8  and  C_13
    8  A    between atoms: C_8  and  C_40
    9  A    between atoms: C_12  and  C_21
   10  A    between atoms: C_12  and  C_30
   11  A    between atoms: C_13  and  C_39
   12  A    between atoms: C_20  and  O_28
   13  A    between atoms: C_20  and  C_37
   14  A    between atoms: C_21  and  C_39
   15  A    between atoms: C_22  and  C_27
   16  A    between atoms: C_24  and  S_31
   17  A    between atoms: C_27  and  S_31
   18  A    between atoms: C_27  and  C_32
   19  A    between atoms: O_28  and  C_33
   20  A    between atoms: C_34  and  C_37
                            x       y       z     vdW  Elec       q    Type
                         _______ _______ _______ _____ _____    ______ ____

>  <TORSDO>
F 20

$$$$
=
 OpenBabel11062413103D

 40 42  0  0  1  0  0  0  0  0999 V2000
  191.1560  177.2510  141.4010 C   0  0  1  0  0  3  0  0  0  0  0  0
  192.5020  177.5000  140.7350 C   0  0  0  0  0  1  0  0  0  0  0  0
  190.9470  178.2060  142.5730 C   0  0  0  0  0  2  0  0  0  0  0  0
  190.1040  177.6270  143.7180 C   0  0  2  0  0  3  0  0  0  0  0  0
  189.9560  177.5130  146.2760 C   0  0  0  0  0  2  0  0  0  0  0  0
  191.2250  175.8000  147.3900 O   0  0  0  0  0  0  0  0  0  0  0  0
  192.2260  175.8180  146.4040 C   0  0  0  0  0  2  0  0  0  0  0  0
  191.6030  176.0590  145.0260 C   0  0  0  0  0  2  0  0  0  0  0  0
  190.8500  177.3910  145.0380 C   0  0  0  0  0  3  0  0  0  0  0  0
  190.7610  177.1210  147.5160 C   0  0  0  0  0  2  0  0  0  0  0  0
  189.0860  176.1950  143.2180 S   0  0  0  0  0  0  0  0  0  0  0  0
  185.1630  178.3230  144.3020 C   0  0  0  0  0  0  0  0  0  0  0  0
  185.5890  178.2620  142.9680 C   0  0  0  0  0  3  0  0  0  0  0  0
  187.1370  177.0740  144.9680 C   0  0  0  0  0  3  0  0  0  0  0  0
  187.5550  177.0180  143.6370 C   0  0  0  0  0  0  0  0  0  0  0  0
  186.7810  177.6140  142.6370 C   0  0  0  0  0  3  0  0  0  0  0  0
  185.9470  177.7240  145.3000 C   0  0  0  0  0  3  0  0  0  0  0  0
  183.1610  179.7060  143.6610 N   0  0  0  0  0  1  0  0  0  0  0  0
  183.4970  179.0040  145.8430 O   0  0  0  0  0  0  0  0  0  0  0  0
  183.9120  179.0150  144.6560 C   0  0  0  0  0  0  0  0  0  0  0  0
  190.0260  177.4170  140.3920 C   0  0  0  0  0  2  0  0  0  0  0  0
  189.9460  176.2980  139.5500 O   0  0  0  0  0  0  0  0  0  0  0  0
  189.3400  176.7690  138.3820 C   0  0  0  0  0  2  0  0  0  0  0  0
  188.2840  177.8050  138.7270 C   0  0  0  0  0  2  0  0  0  0  0  0
  185.8750  177.7700  138.2410 C   0  0  2  0  0  3  0  0  0  0  0  0
  186.4240  178.9920  137.8090 O   0  0  0  0  0  0  0  0  0  0  0  0
  187.2260  177.8480  137.6410 C   0  0  1  0  0  3  0  0  0  0  0  0
  184.8930  177.2560  137.1960 C   0  0  2  0  0  3  0  0  0  0  0  0
  182.7330  177.8470  136.4140 O   0  0  0  0  0  0  0  0  0  0  0  0
  183.5360  177.8830  137.3360 C   0  0  0  0  0  0  0  0  0  0  0  0
  183.1790  178.5720  138.6160 C   0  0  0  0  0  2  0  0  0  0  0  0
  181.9640  177.9360  139.2910 C   0  0  0  0  0  2  0  0  0  0  0  0
  182.2690  176.5540  139.8550 C   0  0  0  0  0  2  0  0  0  0  0  0
  180.2310  174.8760  139.4610 C   0  0  0  0  0  3  0  0  0  0  0  0
  181.1500  175.6330  139.6340 C   0  0  0  0  0  0  0  0  0  0  0  0
  184.8220  175.7320  137.1990 C   0  0  0  0  0  2  0  0  0  0  0  0
  185.5490  175.1910  136.1340 O   0  0  0  0  0  0  0  0  0  0  0  0
  185.8860  172.9310  137.7040 O   0  0  0  0  0  0  0  0  0  0  0  0
  188.0110  174.0080  136.6220 O   0  0  0  0  0  0  0  0  0  0  0  0
  186.5150  173.9980  136.8430 P   0  0  0  0  0  0  0  0  0  0  0  0
  1  2  1  6  0  0  0
  1  3  1  0  0  0  0
  4  3  1  6  0  0  0
  4  9  1  0  0  0  0
  5 10  1  0  0  0  0
  6 10  1  0  0  0  0
  7  6  1  0  0  0  0
  8  9  1  0  0  0  0
  8  7  1  0  0  0  0
  9  5  1  0  0  0  0
 11 15  1  0  0  0  0
 11  4  1  0  0  0  0
 12 20  1  0  0  0  0
 12 17  1  0  0  0  0
 13 12  2  0  0  0  0
 14 17  2  0  0  0  0
 15 14  1  0  0  0  0
 16 13  1  0  0  0  0
 16 15  2  0  0  0  0
 18 20  1  0  0  0  0
 20 19  2  0  0  0  0
 21  1  1  0  0  0  0
 22 21  1  0  0  0  0
 23 24  1  0  0  0  0
 23 22  1  0  0  0  0
 25 28  1  6  0  0  0
 26 25  1  0  0  0  0
 27 26  1  0  0  0  0
 27 25  1  0  0  0  0
 27 24  1  1  0  0  0
 28 36  1  1  0  0  0
 28 30  1  0  0  0  0
 29 30  2  0  0  0  0
 30 31  1  0  0  0  0
 31 32  1  0  0  0  0
 32 33  1  0  0  0  0
 34 35  3  0  0  0  0
 35 33  1  0  0  0  0
 37 40  1  0  0  0  0
 37 36  1  0  0  0  0
 39 40  2  0  0  0  0
 40 38  2  0  0  0  0
M  END
>  <MODEL>
6

>  <REMARK>
 VINA RESULT:      -6.2      3.084      6.453
  Name = 
  20 active torsions:
  status: ('A' for Active; 'I' for Inactive)
    1  A    between atoms: C_2  and  C_8
    2  A    between atoms: C_3  and  C_32
    3  A    between atoms: C_3  and  C_33
    4  A    between atoms: C_5  and  C_38
    5  A    between atoms: O_6  and  P_35
    6  A    between atoms: O_6  and  C_40
    7  A    between atoms: C_8  and  C_13
    8  A    between atoms: C_8  and  C_40
    9  A    between atoms: C_12  and  C_21
   10  A    between atoms: C_12  and  C_30
   11  A    between atoms: C_13  and  C_39
   12  A    between atoms: C_20  and  O_28
   13  A    between atoms: C_20  and  C_37
   14  A    between atoms: C_21  and  C_39
   15  A    between atoms: C_22  and  C_27
   16  A    between atoms: C_24  and  S_31
   17  A    between atoms: C_27  and  S_31
   18  A    between atoms: C_27  and  C_32
   19  A    between atoms: O_28  and  C_33
   20  A    between atoms: C_34  and  C_37
                            x       y       z     vdW  Elec       q    Type
                         _______ _______ _______ _____ _____    ______ ____

>  <TORSDO>
F 20

$$$$
=
 OpenBabel11062413103D

 40 42  0  0  1  0  0  0  0  0999 V2000
  183.6470  178.7540  140.0790 C   0  0  1  0  0  3  0  0  0  0  0  0
  185.0740  178.8680  140.5960 C   0  0  0  0  0  1  0  0  0  0  0  0
  183.5220  177.6100  139.0770 C   0  0  0  0  0  2  0  0  0  0  0  0
  183.1600  178.0540  137.6530 C   0  0  2  0  0  3  0  0  0  0  0  0
  180.6880  177.8530  138.3030 C   0  0  0  0  0  2  0  0  0  0  0  0
  179.4430  179.8910  138.5940 O   0  0  0  0  0  0  0  0  0  0  0  0
  180.2160  180.5690  137.6370 C   0  0  0  0  0  2  0  0  0  0  0  0
  181.6740  180.1040  137.7120 C   0  0  0  0  0  2  0  0  0  0  0  0
  181.7360  178.5950  137.4680 C   0  0  0  0  0  3  0  0  0  0  0  0
  179.3390  178.5590  138.1550 C   0  0  0  0  0  2  0  0  0  0  0  0
  183.6240  176.8370  136.3730 S   0  0  0  0  0  0  0  0  0  0  0  0
  188.0370  176.8470  137.6460 C   0  0  0  0  0  0  0  0  0  0  0  0
  187.3720  175.6360  137.4120 C   0  0  0  0  0  3  0  0  0  0  0  0
  186.0010  178.0500  137.0920 C   0  0  0  0  0  3  0  0  0  0  0  0
  185.3450  176.8400  136.8620 C   0  0  0  0  0  0  0  0  0  0  0  0
  186.0310  175.6320  137.0230 C   0  0  0  0  0  3  0  0  0  0  0  0
  187.3410  178.0550  137.4830 C   0  0  0  0  0  3  0  0  0  0  0  0
  190.1140  175.6360  138.3870 N   0  0  0  0  0  1  0  0  0  0  0  0
  190.0790  177.9410  138.1470 O   0  0  0  0  0  0  0  0  0  0  0  0
  189.4490  176.8550  138.0660 C   0  0  0  0  0  0  0  0  0  0  0  0
  182.6800  178.5350  141.2370 C   0  0  0  0  0  2  0  0  0  0  0  0
  183.3800  178.2990  142.4290 O   0  0  0  0  0  0  0  0  0  0  0  0
  182.6720  179.0030  143.4080 C   0  0  0  0  0  2  0  0  0  0  0  0
  183.6380  179.5920  144.4220 C   0  0  0  0  0  2  0  0  0  0  0  0
  185.6800  178.9010  145.6040 C   0  0  2  0  0  3  0  0  0  0  0  0
  184.5970  178.9100  146.5030 O   0  0  0  0  0  0  0  0  0  0  0  0
  184.3210  178.4780  145.1930 C   0  0  1  0  0  3  0  0  0  0  0  0
  186.5340  177.6630  145.8520 C   0  0  2  0  0  3  0  0  0  0  0  0
  187.2930  178.2770  148.0140 O   0  0  0  0  0  0  0  0  0  0  0  0
  187.5940  177.9050  146.8880 C   0  0  0  0  0  0  0  0  0  0  0  0
  189.0310  177.7010  146.5230 C   0  0  0  0  0  2  0  0  0  0  0  0
  189.8440  177.1350  147.6870 C   0  0  0  0  0  2  0  0  0  0  0  0
  191.1410  176.4820  147.2270 C   0  0  0  0  0  2  0  0  0  0  0  0
  191.6820  177.0860  144.6840 C   0  0  0  0  0  3  0  0  0  0  0  0
  191.4370  176.8180  145.8320 C   0  0  0  0  0  0  0  0  0  0  0  0
  187.1190  177.1200  144.5510 C   0  0  0  0  0  2  0  0  0  0  0  0
  187.2540  178.1340  143.5980 O   0  0  0  0  0  0  0  0  0  0  0  0
  189.0130  176.1850  142.7060 O   0  0  0  0  0  0  0  0  0  0  0  0
  188.5200  178.2140  141.1300 O   0  0  0  0  0  0  0  0  0  0  0  0
  188.2980  177.4840  142.4350 P   0  0  0  0  0  0  0  0  0  0  0  0
  1  2  1  1  0  0  0
  1 21  1  0  0  0  0
  3  1  1  0  0  0  0
  4  3  1  1  0  0  0
  7  8  1  0  0  0  0
  7  6  1  0  0  0  0
  9  4  1  0  0  0  0
  9  8  1  0  0  0  0
  9  5  1  0  0  0  0
 10  5  1  0  0  0  0
 10  6  1  0  0  0  0
 11 15  1  0  0  0  0
 11  4  1  0  0  0  0
 12 20  1  0  0  0  0
 13 12  2  0  0  0  0
 14 17  2  0  0  0  0
 15 16  2  0  0  0  0
 15 14  1  0  0  0  0
 16 13  1  0  0  0  0
 17 12  1  0  0  0  0
 20 19  2  0  0  0  0
 20 18  1  0  0  0  0
 21 22  1  0  0  0  0
 22 23  1  0  0  0  0
 23 24  1  0  0  0  0
 25 28  1  1  0  0  0
 25 26  1  0  0  0  0
 27 24  1  6  0  0  0
 27 25  1  0  0  0  0
 27 26  1  0  0  0  0
 28 36  1  6  0  0  0
 28 30  1  0  0  0  0
 30 29  2  0  0  0  0
 31 30  1  0  0  0  0
 31 32  1  0  0  0  0
 33 32  1  0  0  0  0
 34 35  3  0  0  0  0
 35 33  1  0  0  0  0
 37 36  1  0  0  0  0
 39 40  2  0  0  0  0
 40 38  2  0  0  0  0
 40 37  1  0  0  0  0
M  END
>  <MODEL>
7

>  <REMARK>
 VINA RESULT:      -6.1      3.090      8.063
  Name = 
  20 active torsions:
  status: ('A' for Active; 'I' for Inactive)
    1  A    between atoms: C_2  and  C_8
    2  A    between atoms: C_3  and  C_32
    3  A    between atoms: C_3  and  C_33
    4  A    between atoms: C_5  and  C_38
    5  A    between atoms: O_6  and  P_35
    6  A    between atoms: O_6  and  C_40
    7  A    between atoms: C_8  and  C_13
    8  A    between atoms: C_8  and  C_40
    9  A    between atoms: C_12  and  C_21
   10  A    between atoms: C_12  and  C_30
   11  A    between atoms: C_13  and  C_39
   12  A    between atoms: C_20  and  O_28
   13  A    between atoms: C_20  and  C_37
   14  A    between atoms: C_21  and  C_39
   15  A    between atoms: C_22  and  C_27
   16  A    between atoms: C_24  and  S_31
   17  A    between atoms: C_27  and  S_31
   18  A    between atoms: C_27  and  C_32
   19  A    between atoms: O_28  and  C_33
   20  A    between atoms: C_34  and  C_37
                            x       y       z     vdW  Elec       q    Type
                         _______ _______ _______ _____ _____    ______ ____

>  <TORSDO>
F 20

$$$$
=
 OpenBabel11062413103D

 40 42  0  0  1  0  0  0  0  0999 V2000
  188.0080  177.4000  142.2620 C   0  0  1  0  0  3  0  0  0  0  0  0
  188.0690  178.8680  141.8660 C   0  0  0  0  0  1  0  0  0  0  0  0
  189.2660  176.6630  141.8130 C   0  0  0  0  0  2  0  0  0  0  0  0
  190.0700  177.3890  140.7260 C   0  0  2  0  0  3  0  0  0  0  0  0
  189.3660  178.1000  138.3640 C   0  0  0  0  0  2  0  0  0  0  0  0
  190.4790  177.0520  136.5070 O   0  0  0  0  0  0  0  0  0  0  0  0
  190.6720  175.8580  137.2210 C   0  0  0  0  0  2  0  0  0  0  0  0
  190.9590  176.1650  138.6940 C   0  0  0  0  0  2  0  0  0  0  0  0
  189.7840  176.9480  139.2840 C   0  0  0  0  0  3  0  0  0  0  0  0
  189.2450  177.5790  136.9320 C   0  0  0  0  0  2  0  0  0  0  0  0
  191.8570  177.4930  141.0900 S   0  0  0  0  0  0  0  0  0  0  0  0
  191.2190  177.0710  145.6190 C   0  0  0  0  0  0  0  0  0  0  0  0
  191.1500  178.3320  145.0100 C   0  0  0  0  0  3  0  0  0  0  0  0
  191.6700  176.0700  143.4520 C   0  0  0  0  0  3  0  0  0  0  0  0
  191.6010  177.3290  142.8530 C   0  0  0  0  0  0  0  0  0  0  0  0
  191.3430  178.4610  143.6330 C   0  0  0  0  0  3  0  0  0  0  0  0
  191.4800  175.9400  144.8290 C   0  0  0  0  0  3  0  0  0  0  0  0
  192.0980  176.4950  147.9050 N   0  0  0  0  0  1  0  0  0  0  0  0
  189.9120  177.1970  147.5920 O   0  0  0  0  0  0  0  0  0  0  0  0
  191.0270  176.9320  147.0730 C   0  0  0  0  0  0  0  0  0  0  0  0
  187.8400  177.2650  143.7710 C   0  0  0  0  0  2  0  0  0  0  0  0
  186.4940  177.0560  144.1040 O   0  0  0  0  0  0  0  0  0  0  0  0
  186.1210  178.1930  144.8270 C   0  0  0  0  0  2  0  0  0  0  0  0
  184.6950  178.5820  144.4810 C   0  0  0  0  0  2  0  0  0  0  0  0
  183.4520  179.2370  142.4630 C   0  0  2  0  0  3  0  0  0  0  0  0
  184.8350  179.3190  142.2110 O   0  0  0  0  0  0  0  0  0  0  0  0
  184.4080  178.2560  143.0270 C   0  0  1  0  0  3  0  0  0  0  0  0
  182.7530  178.6170  141.2590 C   0  0  2  0  0  3  0  0  0  0  0  0
  183.5250  180.0470  139.5310 O   0  0  0  0  0  0  0  0  0  0  0  0
  183.4730  178.9070  139.9740 C   0  0  0  0  0  0  0  0  0  0  0  0
  184.1170  177.7810  139.2270 C   0  0  0  0  0  2  0  0  0  0  0  0
  185.2690  178.2610  138.3460 C   0  0  0  0  0  2  0  0  0  0  0  0
  185.6590  177.2350  137.2890 C   0  0  0  0  0  2  0  0  0  0  0  0
  183.7920  177.0500  135.3900 C   0  0  0  0  0  3  0  0  0  0  0  0
  184.6360  177.1370  136.2440 C   0  0  0  0  0  0  0  0  0  0  0  0
  181.2840  179.0260  141.1970 C   0  0  0  0  0  2  0  0  0  0  0  0
  180.6590  178.4890  140.0660 O   0  0  0  0  0  0  0  0  0  0  0  0
  179.3300  177.1420  142.0920 O   0  0  0  0  0  0  0  0  0  0  0  0
  179.4690  176.0040  139.7400 O   0  0  0  0  0  0  0  0  0  0  0  0
  179.7850  177.1660  140.6550 P   0  0  0  0  0  0  0  0  0  0  0  0
  1  2  1  1  0  0  0
  1 21  1  0  0  0  0
  3  1  1  0  0  0  0
  4 11  1  0  0  0  0
  4  3  1  1  0  0  0
  5  9  1  0  0  0  0
  6 10  1  0  0  0  0
  6  7  1  0  0  0  0
  7  8  1  0  0  0  0
  8  9  1  0  0  0  0
  9  4  1  0  0  0  0
 10  5  1  0  0  0  0
 11 15  1  0  0  0  0
 12 20  1  0  0  0  0
 13 12  1  0  0  0  0
 14 17  1  0  0  0  0
 15 14  2  0  0  0  0
 15 16  1  0  0  0  0
 16 13  2  0  0  0  0
 17 12  2  0  0  0  0
 20 19  2  0  0  0  0
 20 18  1  0  0  0  0
 21 22  1  0  0  0  0
 22 23  1  0  0  0  0
 24 23  1  0  0  0  0
 25 28  1  6  0  0  0
 25 27  1  0  0  0  0
 26 25  1  0  0  0  0
 26 27  1  0  0  0  0
 27 24  1  1  0  0  0
 28 36  1  6  0  0  0
 29 30  2  0  0  0  0
 30 28  1  0  0  0  0
 31 30  1  0  0  0  0
 32 31  1  0  0  0  0
 33 32  1  0  0  0  0
 34 35  3  0  0  0  0
 35 33  1  0  0  0  0
 37 40  1  0  0  0  0
 37 36  1  0  0  0  0
 39 40  2  0  0  0  0
 40 38  2  0  0  0  0
M  END
>  <MODEL>
8

>  <REMARK>
 VINA RESULT:      -6.1      2.081      3.013
  Name = 
  20 active torsions:
  status: ('A' for Active; 'I' for Inactive)
    1  A    between atoms: C_2  and  C_8
    2  A    between atoms: C_3  and  C_32
    3  A    between atoms: C_3  and  C_33
    4  A    between atoms: C_5  and  C_38
    5  A    between atoms: O_6  and  P_35
    6  A    between atoms: O_6  and  C_40
    7  A    between atoms: C_8  and  C_13
    8  A    between atoms: C_8  and  C_40
    9  A    between atoms: C_12  and  C_21
   10  A    between atoms: C_12  and  C_30
   11  A    between atoms: C_13  and  C_39
   12  A    between atoms: C_20  and  O_28
   13  A    between atoms: C_20  and  C_37
   14  A    between atoms: C_21  and  C_39
   15  A    between atoms: C_22  and  C_27
   16  A    between atoms: C_24  and  S_31
   17  A    between atoms: C_27  and  S_31
   18  A    between atoms: C_27  and  C_32
   19  A    between atoms: O_28  and  C_33
   20  A    between atoms: C_34  and  C_37
                            x       y       z     vdW  Elec       q    Type
                         _______ _______ _______ _____ _____    ______ ____

>  <TORSDO>
F 20

$$$$
=
 OpenBabel11062413103D

 40 42  0  0  1  0  0  0  0  0999 V2000
  187.5760  177.1260  145.1030 C   0  0  1  0  0  3  0  0  0  0  0  0
  187.8620  176.3810  143.8070 C   0  0  0  0  0  1  0  0  0  0  0  0
  188.8620  177.6890  145.7010 C   0  0  0  0  0  2  0  0  0  0  0  0
  190.0940  177.5500  144.7950 C   0  0  2  0  0  3  0  0  0  0  0  0
  191.1530  176.6060  146.9320 C   0  0  0  0  0  2  0  0  0  0  0  0
  192.4110  174.5640  146.7430 O   0  0  0  0  0  0  0  0  0  0  0  0
  192.8060  174.8600  145.4280 C   0  0  0  0  0  2  0  0  0  0  0  0
  191.6710  175.5710  144.6840 C   0  0  0  0  0  2  0  0  0  0  0  0
  191.3080  176.8580  145.4280 C   0  0  0  0  0  3  0  0  0  0  0  0
  192.3480  175.7910  147.4290 C   0  0  0  0  0  2  0  0  0  0  0  0
  190.5350  179.0950  143.9280 S   0  0  0  0  0  0  0  0  0  0  0  0
  190.5080  177.0880  139.7970 C   0  0  0  0  0  0  0  0  0  0  0  0
  191.7110  177.2450  140.4980 C   0  0  0  0  0  3  0  0  0  0  0  0
  189.3220  178.1530  141.6310 C   0  0  0  0  0  3  0  0  0  0  0  0
  190.5250  178.3070  142.3220 C   0  0  0  0  0  0  0  0  0  0  0  0
  191.7210  177.8540  141.7550 C   0  0  0  0  0  3  0  0  0  0  0  0
  189.3130  177.5460  140.3730 C   0  0  0  0  0  3  0  0  0  0  0  0
  190.5540  175.0370  138.3400 N   0  0  0  0  0  1  0  0  0  0  0  0
  190.4360  177.1650  137.4290 O   0  0  0  0  0  0  0  0  0  0  0  0
  190.4960  176.4550  138.4660 C   0  0  0  0  0  0  0  0  0  0  0  0
  186.5830  178.2570  144.8570 C   0  0  0  0  0  2  0  0  0  0  0  0
  185.5260  178.1970  145.7750 O   0  0  0  0  0  0  0  0  0  0  0  0
  184.4650  178.8550  145.1470 C   0  0  0  0  0  2  0  0  0  0  0  0
  184.9400  179.4810  143.8470 C   0  0  0  0  0  2  0  0  0  0  0  0
  184.3060  178.5530  141.6610 C   0  0  2  0  0  3  0  0  0  0  0  0
  183.4470  178.0450  142.6540 O   0  0  0  0  0  0  0  0  0  0  0  0
  183.8490  179.3860  142.7970 C   0  0  1  0  0  3  0  0  0  0  0  0
  183.4940  178.9100  140.4220 C   0  0  2  0  0  3  0  0  0  0  0  0
  183.0120  176.6710  139.8070 O   0  0  0  0  0  0  0  0  0  0  0  0
  182.5770  177.7970  140.0050 C   0  0  0  0  0  0  0  0  0  0  0  0
  181.1190  178.0830  139.8170 C   0  0  0  0  0  2  0  0  0  0  0  0
  180.2370  177.0050  140.4440 C   0  0  0  0  0  2  0  0  0  0  0  0
  179.1530  177.5890  141.3400 C   0  0  0  0  0  2  0  0  0  0  0  0
  180.2020  178.7090  143.5240 C   0  0  0  0  0  3  0  0  0  0  0  0
  179.7310  178.2070  142.5360 C   0  0  0  0  0  0  0  0  0  0  0  0
  184.3950  179.3680  139.2780 C   0  0  0  0  0  2  0  0  0  0  0  0
  185.7170  178.9620  139.4850 O   0  0  0  0  0  0  0  0  0  0  0  0
  187.2180  178.9050  137.1550 O   0  0  0  0  0  0  0  0  0  0  0  0
  185.5280  176.9540  137.5800 O   0  0  0  0  0  0  0  0  0  0  0  0
  186.1740  178.2480  138.0220 P   0  0  0  0  0  0  0  0  0  0  0  0
  1  2  1  6  0  0  0
  1  3  1  0  0  0  0
  4  9  1  0  0  0  0
  4  3  1  1  0  0  0
  5 10  1  0  0  0  0
  6 10  1  0  0  0  0
  7  6  1  0  0  0  0
  8  9  1  0  0  0  0
  8  7  1  0  0  0  0
  9  5  1  0  0  0  0
 11  4  1  0  0  0  0
 12 17  2  0  0  0  0
 12 13  1  0  0  0  0
 13 16  2  0  0  0  0
 14 15  2  0  0  0  0
 15 11  1  0  0  0  0
 16 15  1  0  0  0  0
 17 14  1  0  0  0  0
 18 20  1  0  0  0  0
 19 20  2  0  0  0  0
 20 12  1  0  0  0  0
 21  1  1  0  0  0  0
 21 22  1  0  0  0  0
 23 22  1  0  0  0  0
 24 23  1  0  0  0  0
 25 28  1  6  0  0  0
 25 26  1  0  0  0  0
 25 27  1  0  0  0  0
 26 27  1  0  0  0  0
 27 24  1  1  0  0  0
 28 36  1  6  0  0  0
 29 30  2  0  0  0  0
 30 28  1  0  0  0  0
 31 30  1  0  0  0  0
 31 32  1  0  0  0  0
 32 33  1  0  0  0  0
 33 35  1  0  0  0  0
 35 34  3  0  0  0  0
 36 37  1  0  0  0  0
 38 40  2  0  0  0  0
 39 40  2  0  0  0  0
 40 37  1  0  0  0  0
M  END
>  <MODEL>
9

>  <REMARK>
 VINA RESULT:      -6.0      2.322      5.213
  Name = 
  20 active torsions:
  status: ('A' for Active; 'I' for Inactive)
    1  A    between atoms: C_2  and  C_8
    2  A    between atoms: C_3  and  C_32
    3  A    between atoms: C_3  and  C_33
    4  A    between atoms: C_5  and  C_38
    5  A    between atoms: O_6  and  P_35
    6  A    between atoms: O_6  and  C_40
    7  A    between atoms: C_8  and  C_13
    8  A    between atoms: C_8  and  C_40
    9  A    between atoms: C_12  and  C_21
   10  A    between atoms: C_12  and  C_30
   11  A    between atoms: C_13  and  C_39
   12  A    between atoms: C_20  and  O_28
   13  A    between atoms: C_20  and  C_37
   14  A    between atoms: C_21  and  C_39
   15  A    between atoms: C_22  and  C_27
   16  A    between atoms: C_24  and  S_31
   17  A    between atoms: C_27  and  S_31
   18  A    between atoms: C_27  and  C_32
   19  A    between atoms: O_28  and  C_33
   20  A    between atoms: C_34  and  C_37
                            x       y       z     vdW  Elec       q    Type
                         _______ _______ _______ _____ _____    ______ ____

>  <TORSDO>
F 20

$$$$
