=
 OpenBabel11062412213D

 43 47  0  0  1  0  0  0  0  0999 V2000
  187.7270  177.7370  144.8870 C   0  0  0  0  0  0  0  0  0  0  0  0
  188.9130  177.5740  144.3660 C   0  0  0  0  0  0  0  0  0  0  0  0
  186.5380  177.9410  145.3870 C   0  0  0  0  0  3  0  0  0  0  0  0
  185.4770  177.8990  143.2480 N   0  0  0  0  0  0  0  0  0  0  0  0
  183.2640  179.2810  144.2070 C   0  0  0  0  0  2  0  0  0  0  0  0
  184.2930  177.9050  142.3930 C   0  0  0  0  0  2  0  0  0  0  0  0
  183.3880  179.0160  142.7510 N   0  0  0  0  0  0  0  0  0  0  0  0
  183.9770  178.2540  145.0950 C   0  0  0  0  0  2  0  0  0  0  0  0
  185.3480  178.0240  144.5310 C   0  0  0  0  0  0  0  0  0  0  0  0
  182.0790  178.7780  142.1220 C   0  0  2  0  0  3  0  0  0  0  0  0
  183.4400  178.5120  137.8450 C   0  0  0  0  0  1  0  0  0  0  0  0
  181.5480  176.8570  137.7380 C   0  0  2  0  0  3  0  0  0  0  0  0
  181.9500  178.0470  139.7570 C   0  0  0  0  0  0  0  0  0  0  0  0
  182.4670  175.8270  138.0800 O   0  0  0  0  0  0  0  0  0  0  0  0
  182.0190  178.2170  138.2850 C   0  0  1  0  0  3  0  0  0  0  0  0
  181.5910  176.7600  140.0980 O   0  0  0  0  0  0  0  0  0  0  0  0
  182.1720  179.0140  140.6470 C   0  0  0  0  0  3  0  0  0  0  0  0
  181.3640  175.9920  138.9320 C   0  0  1  0  0  0  0  0  0  0  0  0
  178.9590  175.2830  137.9750 O   0  0  0  0  0  0  0  0  0  0  0  0
  180.0660  174.7760  138.8550 S   0  0  0  0  0  0  0  0  0  0  0  0
  180.6110  173.5030  138.2840 O   0  0  0  0  0  0  0  0  0  0  0  0
  179.2990  174.4080  140.7650 S   0  0  0  0  0  1  0  0  0  0  0  0
  179.6000  178.8630  142.6010 C   0  0  0  0  0  1  0  0  0  0  0  0
  180.9290  179.5980  142.7380 C   0  0  0  0  0  2  0  0  0  0  0  0
  189.9950  175.7750  143.0140 C   0  0  0  0  0  1  0  0  0  0  0  0
  189.0290  176.9530  143.0070 C   0  0  2  0  0  3  0  0  0  0  0  0
  189.4470  178.0000  141.9850 C   0  0  0  0  0  2  0  0  0  0  0  0
  188.3600  178.1870  140.9330 C   0  0  0  0  0  2  0  0  0  0  0  0
  191.7860  176.2970  137.9330 C   0  0  0  0  0  0  0  0  0  0  0  0
  191.4000  176.5690  139.4030 C   0  0  0  0  0  2  0  0  0  0  0  0
  188.3390  177.9410  138.0600 S   0  0  0  0  0  0  0  0  0  0  0  0
  193.0810  175.6770  137.5610 C   0  0  0  0  0  1  0  0  0  0  0  0
  188.2510  179.3690  137.5930 O   0  0  0  0  0  0  0  0  0  0  0  0
  188.8580  177.7910  139.6290 N   0  0  0  0  0  0  0  0  0  0  0  0
  190.0910  177.1540  139.1190 C   0  0  0  0  0  0  0  0  0  0  0  0
  189.8120  177.1970  137.8070 C   0  0  0  0  0  0  0  0  0  0  0  0
  190.8670  176.6600  136.9950 C   0  0  0  0  0  3  0  0  0  0  0  0
  187.1250  177.1040  137.7610 O   0  0  0  0  0  0  0  0  0  0  0  0
  190.1020  178.1190  145.0820 C   0  0  0  0  0  2  0  0  0  0  0  0
  190.2530  177.4520  146.3260 O   0  0  0  0  0  0  0  0  0  0  0  0
  191.4270  176.7760  146.6600 C   0  0  0  0  0  0  0  0  0  0  0  0
  191.9250  176.8760  147.8110 O   0  0  0  0  0  1  0  0  0  0  0  0
  192.0350  175.9650  145.7180 O   0  0  0  0  0  0  0  0  0  0  0  0
  1  3  2  0  0  0  0
  2  1  2  0  0  0  0
  2 39  1  0  0  0  0
  4  9  2  0  0  0  0
  5  8  1  0  0  0  0
  6  7  1  0  0  0  0
  6  4  1  0  0  0  0
  7  5  1  0  0  0  0
  9  8  1  0  0  0  0
  9  3  1  0  0  0  0
 10 17  1  6  0  0  0
 10 24  1  0  0  0  0
 10  7  1  0  0  0  0
 12 14  1  6  0  0  0
 12 15  1  0  0  0  0
 12 18  1  0  0  0  0
 13 16  1  0  0  0  0
 13 17  2  0  0  0  0
 14 18  1  0  0  0  0
 15 11  1  1  0  0  0
 15 13  1  0  0  0  0
 18 20  1  6  0  0  0
 18 16  1  0  0  0  0
 19 20  2  0  0  0  0
 20 22  1  0  0  0  0
 21 20  2  0  0  0  0
 23 24  1  0  0  0  0
 26 25  1  1  0  0  0
 26  2  1  0  0  0  0
 27 26  1  0  0  0  0
 28 27  1  0  0  0  0
 29 30  1  0  0  0  0
 31 34  1  0  0  0  0
 32 29  1  0  0  0  0
 33 31  2  0  0  0  0
 34 28  1  0  0  0  0
 35 30  1  0  0  0  0
 35 34  1  0  0  0  0
 36 31  1  0  0  0  0
 36 35  2  0  0  0  0
 37 36  1  0  0  0  0
 37 29  2  0  0  0  0
 38 31  2  0  0  0  0
 39 40  1  0  0  0  0
 40 41  1  0  0  0  0
 41 42  1  0  0  0  0
 43 41  2  0  0  0  0
M  END
>  <MODEL>
1

>  <REMARK>
 VINA RESULT:      -8.1      0.000      0.000
  Name = 
  12 active torsions:
  status: ('A' for Active; 'I' for Inactive)
    1  A    between atoms: C_1  and  O_13
    2  A    between atoms: C_9  and  C_29
    3  A    between atoms: C_9  and  C_31
    4  A    between atoms: O_13  and  C_31
    5  A    between atoms: C_14  and  C_42
    6  A    between atoms: S_15  and  C_34
    7  A    between atoms: C_16  and  C_29
    8  A    between atoms: C_16  and  C_39
    9  A    between atoms: C_23  and  C_28
   10  A    between atoms: C_23  and  N_37
   11  A    between atoms: C_23  and  C_38
   12  A    between atoms: N_26  and  C_39
                            x       y       z     vdW  Elec       q    Type
                         _______ _______ _______ _____ _____    ______ ____

>  <TORSDO>
F 12

$$$$
=
 OpenBabel11062412213D

 43 47  0  0  1  0  0  0  0  0999 V2000
  187.1620  177.5230  144.2690 C   0  0  0  0  0  0  0  0  0  0  0  0
  188.3840  177.0710  144.1750 C   0  0  0  0  0  0  0  0  0  0  0  0
  185.9550  178.0150  144.3490 C   0  0  0  0  0  3  0  0  0  0  0  0
  183.9590  178.2250  143.0540 N   0  0  0  0  0  0  0  0  0  0  0  0
  185.4020  178.6280  140.7120 C   0  0  0  0  0  2  0  0  0  0  0  0
  183.2110  178.7340  141.9080 C   0  0  0  0  0  2  0  0  0  0  0  0
  183.9270  178.4630  140.6460 N   0  0  0  0  0  0  0  0  0  0  0  0
  185.9100  179.2020  142.0400 C   0  0  0  0  0  2  0  0  0  0  0  0
  185.2290  178.4670  143.1550 C   0  0  0  0  0  0  0  0  0  0  0  0
  183.3290  179.2840  139.5800 C   0  0  2  0  0  3  0  0  0  0  0  0
  178.9410  179.5990  140.5060 C   0  0  0  0  0  1  0  0  0  0  0  0
  179.0340  181.2180  138.5820 C   0  0  2  0  0  3  0  0  0  0  0  0
  180.9940  180.0250  139.2040 C   0  0  0  0  0  0  0  0  0  0  0  0
  179.2900  182.2630  139.5100 O   0  0  0  0  0  0  0  0  0  0  0  0
  179.5210  179.8640  139.1310 C   0  0  1  0  0  3  0  0  0  0  0  0
  181.3780  181.3020  138.8560 O   0  0  0  0  0  0  0  0  0  0  0  0
  181.8500  179.0580  139.5310 C   0  0  0  0  0  3  0  0  0  0  0  0
  180.2460  182.0720  138.5000 C   0  0  1  0  0  0  0  0  0  0  0  0
  179.0960  184.1490  137.2500 O   0  0  0  0  0  0  0  0  0  0  0  0
  180.3070  183.2640  137.1780 S   0  0  0  0  0  0  0  0  0  0  0  0
  181.5410  184.0990  137.3180 O   0  0  0  0  0  0  0  0  0  0  0  0
  180.3300  182.2950  135.3260 S   0  0  0  0  0  1  0  0  0  0  0  0
  183.5970  177.7000  137.6300 C   0  0  0  0  0  1  0  0  0  0  0  0
  183.9640  179.0690  138.1930 C   0  0  0  0  0  2  0  0  0  0  0  0
  189.9220  175.4500  143.0620 C   0  0  0  0  0  1  0  0  0  0  0  0
  188.8550  176.5180  142.8650 C   0  0  2  0  0  3  0  0  0  0  0  0
  189.3600  177.6410  141.9710 C   0  0  0  0  0  2  0  0  0  0  0  0
  190.6830  177.2550  141.3190 C   0  0  0  0  0  2  0  0  0  0  0  0
  188.3180  178.3360  137.1300 C   0  0  0  0  0  0  0  0  0  0  0  0
  188.3450  178.5450  138.6600 C   0  0  0  0  0  2  0  0  0  0  0  0
  191.3260  176.5040  138.6100 S   0  0  0  0  0  0  0  0  0  0  0  0
  187.2530  178.9150  136.2750 C   0  0  0  0  0  1  0  0  0  0  0  0
  191.2560  175.0010  138.6440 O   0  0  0  0  0  0  0  0  0  0  0  0
  190.5350  177.2300  139.8750 N   0  0  0  0  0  0  0  0  0  0  0  0
  189.5610  177.7720  138.9050 C   0  0  0  0  0  0  0  0  0  0  0  0
  190.0880  177.2570  137.7820 C   0  0  0  0  0  0  0  0  0  0  0  0
  189.3290  177.5860  136.6090 C   0  0  0  0  0  3  0  0  0  0  0  0
  192.7020  177.0660  138.3790 O   0  0  0  0  0  0  0  0  0  0  0  0
  189.3080  177.2320  145.3350 C   0  0  0  0  0  2  0  0  0  0  0  0
  188.6640  177.9810  146.3540 O   0  0  0  0  0  0  0  0  0  0  0  0
  188.7940  177.6500  147.7030 C   0  0  0  0  0  0  0  0  0  0  0  0
  189.4110  178.4050  148.4970 O   0  0  0  0  0  1  0  0  0  0  0  0
  188.2110  176.4860  148.1760 O   0  0  0  0  0  0  0  0  0  0  0  0
  1  3  2  0  0  0  0
  2  1  2  0  0  0  0
  2 39  1  0  0  0  0
  4  9  2  0  0  0  0
  5  8  1  0  0  0  0
  6  4  1  0  0  0  0
  7  5  1  0  0  0  0
  7  6  1  0  0  0  0
  8  9  1  0  0  0  0
  9  3  1  0  0  0  0
 10 24  1  6  0  0  0
 10  7  1  0  0  0  0
 12 15  1  0  0  0  0
 12 14  1  1  0  0  0
 13 17  2  0  0  0  0
 15 13  1  0  0  0  0
 15 11  1  1  0  0  0
 16 13  1  0  0  0  0
 17 10  1  0  0  0  0
 18 20  1  6  0  0  0
 18 12  1  0  0  0  0
 18 16  1  0  0  0  0
 18 14  1  0  0  0  0
 20 19  2  0  0  0  0
 20 21  2  0  0  0  0
 22 20  1  0  0  0  0
 23 24  1  0  0  0  0
 26 25  1  1  0  0  0
 26  2  1  0  0  0  0
 27 26  1  0  0  0  0
 28 27  1  0  0  0  0
 29 30  1  0  0  0  0
 30 35  1  0  0  0  0
 31 33  2  0  0  0  0
 31 34  1  0  0  0  0
 32 29  1  0  0  0  0
 34 28  1  0  0  0  0
 35 34  1  0  0  0  0
 36 31  1  0  0  0  0
 36 35  2  0  0  0  0
 37 29  2  0  0  0  0
 37 36  1  0  0  0  0
 38 31  2  0  0  0  0
 39 40  1  0  0  0  0
 40 41  1  0  0  0  0
 41 43  2  0  0  0  0
 41 42  1  0  0  0  0
M  END
>  <MODEL>
2

>  <REMARK>
 VINA RESULT:      -8.1      3.508      4.519
  Name = 
  12 active torsions:
  status: ('A' for Active; 'I' for Inactive)
    1  A    between atoms: C_1  and  O_13
    2  A    between atoms: C_9  and  C_29
    3  A    between atoms: C_9  and  C_31
    4  A    between atoms: O_13  and  C_31
    5  A    between atoms: C_14  and  C_42
    6  A    between atoms: S_15  and  C_34
    7  A    between atoms: C_16  and  C_29
    8  A    between atoms: C_16  and  C_39
    9  A    between atoms: C_23  and  C_28
   10  A    between atoms: C_23  and  N_37
   11  A    between atoms: C_23  and  C_38
   12  A    between atoms: N_26  and  C_39
                            x       y       z     vdW  Elec       q    Type
                         _______ _______ _______ _____ _____    ______ ____

>  <TORSDO>
F 12

$$$$
=
 OpenBabel11062412213D

 43 47  0  0  1  0  0  0  0  0999 V2000
  181.2200  178.1710  139.5410 C   0  0  0  0  0  0  0  0  0  0  0  0
  181.2060  177.3730  138.5070 C   0  0  0  0  0  0  0  0  0  0  0  0
  181.2260  178.9340  140.6000 C   0  0  0  0  0  3  0  0  0  0  0  0
  181.9470  179.1050  142.8700 N   0  0  0  0  0  0  0  0  0  0  0  0
  184.6240  179.1470  142.1210 C   0  0  0  0  0  2  0  0  0  0  0  0
  182.9250  178.8910  143.9340 C   0  0  0  0  0  2  0  0  0  0  0  0
  184.2560  179.3930  143.5380 N   0  0  0  0  0  0  0  0  0  0  0  0
  183.6220  178.2760  141.3540 C   0  0  0  0  0  2  0  0  0  0  0  0
  182.2430  178.7860  141.6490 C   0  0  0  0  0  0  0  0  0  0  0  0
  185.2590  178.8520  144.4690 C   0  0  2  0  0  3  0  0  0  0  0  0
  188.9480  177.5350  142.2620 C   0  0  0  0  0  1  0  0  0  0  0  0
  189.5880  176.7450  144.5630 C   0  0  2  0  0  3  0  0  0  0  0  0
  187.4440  177.7110  144.2110 C   0  0  0  0  0  0  0  0  0  0  0  0
  190.1960  178.0080  144.7980 O   0  0  0  0  0  0  0  0  0  0  0  0
  188.4530  176.8650  143.5280 C   0  0  1  0  0  3  0  0  0  0  0  0
  187.8980  178.1440  145.4390 O   0  0  0  0  0  0  0  0  0  0  0  0
  186.2360  177.9960  143.7260 C   0  0  0  0  0  3  0  0  0  0  0  0
  189.1870  177.6220  145.6940 C   0  0  1  0  0  0  0  0  0  0  0  0
  189.5980  178.2810  148.2620 O   0  0  0  0  0  0  0  0  0  0  0  0
  189.6790  177.1090  147.3270 S   0  0  0  0  0  0  0  0  0  0  0  0
  188.7610  176.0270  147.8050 O   0  0  0  0  0  0  0  0  0  0  0  0
  191.6430  176.3930  147.3040 S   0  0  0  0  0  1  0  0  0  0  0  0
  185.1960  178.6270  146.9840 C   0  0  0  0  0  1  0  0  0  0  0  0
  184.6570  178.0880  145.6640 C   0  0  0  0  0  2  0  0  0  0  0  0
  182.8870  175.6360  139.1360 C   0  0  0  0  0  1  0  0  0  0  0  0
  182.4730  176.6810  138.1070 C   0  0  2  0  0  3  0  0  0  0  0  0
  183.5810  177.6990  137.8830 C   0  0  0  0  0  2  0  0  0  0  0  0
  184.3640  177.3720  136.6160 C   0  0  0  0  0  2  0  0  0  0  0  0
  188.4900  174.7060  137.0310 C   0  0  0  0  0  0  0  0  0  0  0  0
  187.0180  174.6970  136.5650 C   0  0  0  0  0  3  0  0  0  0  0  0
  186.9600  178.1620  137.5900 S   0  0  0  0  0  0  0  0  0  0  0  0
  189.3460  173.4970  136.9540 C   0  0  0  0  0  1  0  0  0  0  0  0
  186.6870  178.5600  139.0160 O   0  0  0  0  0  0  0  0  0  0  0  0
  185.7710  177.2110  136.9310 N   0  0  0  0  0  0  0  0  0  0  0  0
  186.7420  176.0970  136.8820 C   0  0  0  0  0  0  0  0  0  0  0  0
  187.8050  176.7350  137.3980 C   0  0  0  0  0  0  0  0  0  0  0  0
  188.9580  175.8880  137.5190 C   0  0  0  0  0  2  0  0  0  0  0  0
  187.3740  179.2920  136.6880 O   0  0  0  0  0  0  0  0  0  0  0  0
  179.9080  177.0790  137.8340 C   0  0  0  0  0  2  0  0  0  0  0  0
  179.1160  176.2520  138.6720 O   0  0  0  0  0  0  0  0  0  0  0  0
  179.3440  174.8800  138.7780 C   0  0  0  0  0  0  0  0  0  0  0  0
  179.5190  174.1730  137.7530 O   0  0  0  0  0  0  0  0  0  0  0  0
  179.4030  174.2960  140.0320 O   0  0  0  0  0  1  0  0  0  0  0  0
  1  3  2  0  0  0  0
  2  1  2  0  0  0  0
  3  9  1  0  0  0  0
  4  6  1  0  0  0  0
  5  7  1  0  0  0  0
  7  6  1  0  0  0  0
  7 10  1  0  0  0  0
  8  9  1  0  0  0  0
  8  5  1  0  0  0  0
  9  4  2  0  0  0  0
 10 17  1  6  0  0  0
 10 24  1  0  0  0  0
 12 14  1  6  0  0  0
 12 18  1  0  0  0  0
 13 16  1  0  0  0  0
 14 18  1  0  0  0  0
 15 11  1  6  0  0  0
 15 13  1  0  0  0  0
 15 12  1  0  0  0  0
 16 18  1  0  0  0  0
 17 13  2  0  0  0  0
 18 20  1  1  0  0  0
 20 21  2  0  0  0  0
 20 19  2  0  0  0  0
 22 20  1  0  0  0  0
 24 23  1  0  0  0  0
 26  2  1  0  0  0  0
 26 25  1  1  0  0  0
 27 26  1  0  0  0  0
 28 34  1  0  0  0  0
 28 27  1  0  0  0  0
 29 37  1  0  0  0  0
 30 35  1  0  0  0  0
 30 29  2  0  0  0  0
 31 33  2  0  0  0  0
 32 29  1  0  0  0  0
 34 31  1  0  0  0  0
 35 34  1  0  0  0  0
 35 36  2  0  0  0  0
 36 37  1  0  0  0  0
 36 31  1  0  0  0  0
 38 31  2  0  0  0  0
 39  2  1  0  0  0  0
 39 40  1  0  0  0  0
 40 41  1  0  0  0  0
 41 43  1  0  0  0  0
 42 41  2  0  0  0  0
M  END
>  <MODEL>
3

>  <REMARK>
 VINA RESULT:      -7.8      2.787      8.460
  Name = 
  12 active torsions:
  status: ('A' for Active; 'I' for Inactive)
    1  A    between atoms: C_1  and  O_13
    2  A    between atoms: C_9  and  C_29
    3  A    between atoms: C_9  and  C_31
    4  A    between atoms: O_13  and  C_31
    5  A    between atoms: C_14  and  C_42
    6  A    between atoms: S_15  and  C_34
    7  A    between atoms: C_16  and  C_29
    8  A    between atoms: C_16  and  C_39
    9  A    between atoms: C_23  and  C_28
   10  A    between atoms: C_23  and  N_37
   11  A    between atoms: C_23  and  C_38
   12  A    between atoms: N_26  and  C_39
                            x       y       z     vdW  Elec       q    Type
                         _______ _______ _______ _____ _____    ______ ____

>  <TORSDO>
F 12

$$$$
=
 OpenBabel11062412213D

 43 47  0  0  1  0  0  0  0  0999 V2000
  182.1420  178.6580  141.3540 C   0  0  0  0  0  0  0  0  0  0  0  0
  182.2390  179.0160  142.6060 C   0  0  0  0  0  0  0  0  0  0  0  0
  182.0710  178.3350  140.0910 C   0  0  0  0  0  3  0  0  0  0  0  0
  184.2060  178.7700  139.1140 N   0  0  0  0  0  0  0  0  0  0  0  0
  183.9640  176.6090  137.3820 C   0  0  0  0  0  2  0  0  0  0  0  0
  185.4240  178.3440  138.4300 C   0  0  0  0  0  2  0  0  0  0  0  0
  185.1060  177.5460  137.2290 N   0  0  0  0  0  0  0  0  0  0  0  0
  183.4130  176.5190  138.8100 C   0  0  0  0  0  2  0  0  0  0  0  0
  183.2580  177.9140  139.3370 C   0  0  0  0  0  0  0  0  0  0  0  0
  186.3280  176.8580  136.7840 C   0  0  2  0  0  3  0  0  0  0  0  0
  189.7910  177.8300  139.4830 C   0  0  0  0  0  1  0  0  0  0  0  0
  191.0290  176.4790  137.7590 C   0  0  2  0  0  3  0  0  0  0  0  0
  188.7140  176.9270  137.4540 C   0  0  0  0  0  0  0  0  0  0  0  0
  190.7740  175.3130  138.5300 O   0  0  0  0  0  0  0  0  0  0  0  0
  189.9450  177.5470  138.0010 C   0  0  1  0  0  3  0  0  0  0  0  0
  188.9480  175.6390  137.0230 O   0  0  0  0  0  0  0  0  0  0  0  0
  187.5340  177.5380  137.3540 C   0  0  0  0  0  3  0  0  0  0  0  0
  190.3090  175.3030  137.2050 C   0  0  1  0  0  0  0  0  0  0  0  0
  190.3930  173.0610  135.7330 O   0  0  0  0  0  0  0  0  0  0  0  0
  191.1890  174.3010  136.0250 S   0  0  0  0  0  0  0  0  0  0  0  0
  191.3800  175.0770  134.7580 O   0  0  0  0  0  0  0  0  0  0  0  0
  193.0550  173.7470  136.7880 S   0  0  0  0  0  1  0  0  0  0  0  0
  186.8010  178.0550  134.6110 C   0  0  0  0  0  1  0  0  0  0  0  0
  186.4470  176.7190  135.2550 C   0  0  0  0  0  2  0  0  0  0  0  0
  183.2070  178.8130  144.8990 C   0  0  0  0  0  1  0  0  0  0  0  0
  183.3950  178.5150  143.4170 C   0  0  2  0  0  3  0  0  0  0  0  0
  184.6970  179.1070  142.8990 C   0  0  0  0  0  2  0  0  0  0  0  0
  185.6040  178.0120  142.3480 C   0  0  0  0  0  2  0  0  0  0  0  0
  187.5970  177.8250  146.8540 C   0  0  0  0  0  0  0  0  0  0  0  0
  186.2950  178.0450  146.0520 C   0  0  0  0  0  3  0  0  0  0  0  0
  188.3160  177.4160  143.1240 S   0  0  0  0  0  0  0  0  0  0  0  0
  187.6390  177.9350  148.3330 C   0  0  0  0  0  1  0  0  0  0  0  0
  189.1120  178.5090  142.4620 O   0  0  0  0  0  0  0  0  0  0  0  0
  186.7010  177.7690  143.2660 N   0  0  0  0  0  0  0  0  0  0  0  0
  186.8790  177.8130  144.7330 C   0  0  0  0  0  0  0  0  0  0  0  0
  188.1910  177.5300  144.7850 C   0  0  0  0  0  0  0  0  0  0  0  0
  188.7070  177.5250  146.1230 C   0  0  0  0  0  2  0  0  0  0  0  0
  188.5690  176.0360  142.5810 O   0  0  0  0  0  0  0  0  0  0  0  0
  181.2690  180.0080  143.1550 C   0  0  0  0  0  2  0  0  0  0  0  0
  179.9440  179.5610  142.9090 O   0  0  0  0  0  0  0  0  0  0  0  0
  179.5450  178.2540  143.1890 C   0  0  0  0  0  0  0  0  0  0  0  0
  179.1610  177.4850  142.2710 O   0  0  0  0  0  0  0  0  0  0  0  0
  179.5980  177.7920  144.4930 O   0  0  0  0  0  1  0  0  0  0  0  0
  1  2  2  0  0  0  0
  2 39  1  0  0  0  0
  2 26  1  0  0  0  0
  3  1  2  0  0  0  0
  4  9  2  0  0  0  0
  5  8  1  0  0  0  0
  6  4  1  0  0  0  0
  7  5  1  0  0  0  0
  7  6  1  0  0  0  0
  8  9  1  0  0  0  0
  9  3  1  0  0  0  0
 10 24  1  6  0  0  0
 10  7  1  0  0  0  0
 10 17  1  0  0  0  0
 12 15  1  0  0  0  0
 12 14  1  1  0  0  0
 13 15  1  0  0  0  0
 15 11  1  1  0  0  0
 16 18  1  0  0  0  0
 16 13  1  0  0  0  0
 17 13  2  0  0  0  0
 18 20  1  6  0  0  0
 18 12  1  0  0  0  0
 18 14  1  0  0  0  0
 19 20  2  0  0  0  0
 20 22  1  0  0  0  0
 21 20  2  0  0  0  0
 23 24  1  0  0  0  0
 26 25  1  1  0  0  0
 27 26  1  0  0  0  0
 28 27  1  0  0  0  0
 28 34  1  0  0  0  0
 29 32  1  0  0  0  0
 30 29  2  0  0  0  0
 31 34  1  0  0  0  0
 31 36  1  0  0  0  0
 33 31  2  0  0  0  0
 34 35  1  0  0  0  0
 35 36  2  0  0  0  0
 35 30  1  0  0  0  0
 36 37  1  0  0  0  0
 37 29  1  0  0  0  0
 38 31  2  0  0  0  0
 40 39  1  0  0  0  0
 40 41  1  0  0  0  0
 41 43  1  0  0  0  0
 42 41  2  0  0  0  0
M  END
>  <MODEL>
4

>  <REMARK>
 VINA RESULT:      -7.8      3.463      8.582
  Name = 
  12 active torsions:
  status: ('A' for Active; 'I' for Inactive)
    1  A    between atoms: C_1  and  O_13
    2  A    between atoms: C_9  and  C_29
    3  A    between atoms: C_9  and  C_31
    4  A    between atoms: O_13  and  C_31
    5  A    between atoms: C_14  and  C_42
    6  A    between atoms: S_15  and  C_34
    7  A    between atoms: C_16  and  C_29
    8  A    between atoms: C_16  and  C_39
    9  A    between atoms: C_23  and  C_28
   10  A    between atoms: C_23  and  N_37
   11  A    between atoms: C_23  and  C_38
   12  A    between atoms: N_26  and  C_39
                            x       y       z     vdW  Elec       q    Type
                         _______ _______ _______ _____ _____    ______ ____

>  <TORSDO>
F 12

$$$$
=
 OpenBabel11062412213D

 43 47  0  0  1  0  0  0  0  0999 V2000
  186.8620  177.7510  144.0520 C   0  0  0  0  0  0  0  0  0  0  0  0
  188.0810  177.2840  144.0160 C   0  0  0  0  0  0  0  0  0  0  0  0
  185.6580  178.2560  144.0700 C   0  0  0  0  0  3  0  0  0  0  0  0
  183.6900  178.3400  142.7200 N   0  0  0  0  0  0  0  0  0  0  0  0
  185.1800  178.5920  140.3870 C   0  0  0  0  0  2  0  0  0  0  0  0
  182.9610  178.7520  141.5230 C   0  0  0  0  0  2  0  0  0  0  0  0
  183.7100  178.4000  140.3000 N   0  0  0  0  0  0  0  0  0  0  0  0
  185.6500  179.2700  141.6790 C   0  0  0  0  0  2  0  0  0  0  0  0
  184.9530  178.6080  142.8310 C   0  0  0  0  0  0  0  0  0  0  0  0
  183.1250  179.1310  139.1640 C   0  0  2  0  0  3  0  0  0  0  0  0
  178.9310  180.0830  140.4740 C   0  0  0  0  0  1  0  0  0  0  0  0
  179.0590  181.6190  138.4850 C   0  0  2  0  0  3  0  0  0  0  0  0
  180.8880  180.1810  138.9740 C   0  0  0  0  0  0  0  0  0  0  0  0
  179.5440  182.6430  139.3420 O   0  0  0  0  0  0  0  0  0  0  0  0
  179.4070  180.2250  139.0420 C   0  0  1  0  0  3  0  0  0  0  0  0
  181.4080  181.3820  138.5400 O   0  0  0  0  0  0  0  0  0  0  0  0
  181.6320  179.1130  139.2590 C   0  0  0  0  0  3  0  0  0  0  0  0
  180.3630  182.2920  138.2580 C   0  0  1  0  0  0  0  0  0  0  0  0
  181.7860  184.1290  136.9150 O   0  0  0  0  0  0  0  0  0  0  0  0
  180.4590  183.4260  136.8880 S   0  0  0  0  0  0  0  0  0  0  0  0
  180.3240  182.6670  135.6040 O   0  0  0  0  0  0  0  0  0  0  0  0
  178.9350  184.8510  137.0160 S   0  0  0  0  0  1  0  0  0  0  0  0
  182.7050  177.4910  137.2900 C   0  0  0  0  0  1  0  0  0  0  0  0
  183.5940  178.6250  137.7860 C   0  0  0  0  0  2  0  0  0  0  0  0
  189.7900  175.7500  143.0360 C   0  0  0  0  0  1  0  0  0  0  0  0
  188.5660  176.6150  142.7660 C   0  0  2  0  0  3  0  0  0  0  0  0
  188.8530  177.6540  141.6920 C   0  0  0  0  0  2  0  0  0  0  0  0
  190.2260  177.4200  141.0710 C   0  0  0  0  0  2  0  0  0  0  0  0
  191.8390  175.9640  136.6460 C   0  0  0  0  0  0  0  0  0  0  0  0
  192.1080  175.9310  138.1660 C   0  0  0  0  0  2  0  0  0  0  0  0
  189.0470  177.8270  138.4720 S   0  0  0  0  0  0  0  0  0  0  0  0
  192.7620  175.3340  135.6690 C   0  0  0  0  0  1  0  0  0  0  0  0
  189.0290  179.3260  138.3330 O   0  0  0  0  0  0  0  0  0  0  0  0
  190.1020  177.2850  139.6320 N   0  0  0  0  0  0  0  0  0  0  0  0
  190.9120  176.6750  138.5560 C   0  0  0  0  0  0  0  0  0  0  0  0
  190.1560  177.0360  137.5060 C   0  0  0  0  0  0  0  0  0  0  0  0
  190.7040  176.6060  136.2520 C   0  0  0  0  0  3  0  0  0  0  0  0
  187.6900  177.1860  138.5670 O   0  0  0  0  0  0  0  0  0  0  0  0
  188.9900  177.5370  145.1710 C   0  0  0  0  0  2  0  0  0  0  0  0
  188.2170  177.7680  146.3400 O   0  0  0  0  0  0  0  0  0  0  0  0
  188.7530  177.6100  147.6190 C   0  0  0  0  0  0  0  0  0  0  0  0
  189.9240  177.1830  147.7800 O   0  0  0  0  0  0  0  0  0  0  0  0
  187.9900  177.9540  148.7220 O   0  0  0  0  0  1  0  0  0  0  0  0
  1  3  2  0  0  0  0
  2  1  2  0  0  0  0
  2 39  1  0  0  0  0
  4  9  2  0  0  0  0
  5  8  1  0  0  0  0
  6  4  1  0  0  0  0
  7  5  1  0  0  0  0
  7  6  1  0  0  0  0
  8  9  1  0  0  0  0
  9  3  1  0  0  0  0
 10 24  1  6  0  0  0
 10 17  1  0  0  0  0
 10  7  1  0  0  0  0
 12 15  1  0  0  0  0
 12 14  1  1  0  0  0
 13 15  1  0  0  0  0
 13 17  2  0  0  0  0
 15 11  1  1  0  0  0
 16 13  1  0  0  0  0
 18 20  1  6  0  0  0
 18 12  1  0  0  0  0
 18 16  1  0  0  0  0
 18 14  1  0  0  0  0
 20 19  2  0  0  0  0
 20 22  1  0  0  0  0
 21 20  2  0  0  0  0
 23 24  1  0  0  0  0
 26 25  1  1  0  0  0
 26  2  1  0  0  0  0
 27 26  1  0  0  0  0
 28 27  1  0  0  0  0
 29 30  1  0  0  0  0
 30 35  1  0  0  0  0
 31 38  2  0  0  0  0
 31 34  1  0  0  0  0
 32 29  1  0  0  0  0
 33 31  2  0  0  0  0
 34 28  1  0  0  0  0
 35 34  1  0  0  0  0
 36 31  1  0  0  0  0
 36 35  2  0  0  0  0
 37 29  2  0  0  0  0
 37 36  1  0  0  0  0
 39 40  1  0  0  0  0
 40 41  1  0  0  0  0
 41 42  2  0  0  0  0
 41 43  1  0  0  0  0
M  END
>  <MODEL>
5

>  <REMARK>
 VINA RESULT:      -7.8      3.415      4.279
  Name = 
  12 active torsions:
  status: ('A' for Active; 'I' for Inactive)
    1  A    between atoms: C_1  and  O_13
    2  A    between atoms: C_9  and  C_29
    3  A    between atoms: C_9  and  C_31
    4  A    between atoms: O_13  and  C_31
    5  A    between atoms: C_14  and  C_42
    6  A    between atoms: S_15  and  C_34
    7  A    between atoms: C_16  and  C_29
    8  A    between atoms: C_16  and  C_39
    9  A    between atoms: C_23  and  C_28
   10  A    between atoms: C_23  and  N_37
   11  A    between atoms: C_23  and  C_38
   12  A    between atoms: N_26  and  C_39
                            x       y       z     vdW  Elec       q    Type
                         _______ _______ _______ _____ _____    ______ ____

>  <TORSDO>
F 12

$$$$
=
 OpenBabel11062412213D

 43 47  0  0  1  0  0  0  0  0999 V2000
  190.9070  176.7670  137.6280 C   0  0  0  0  0  0  0  0  0  0  0  0
  191.2920  176.8680  138.8720 C   0  0  0  0  0  0  0  0  0  0  0  0
  190.5170  176.6210  136.3910 C   0  0  0  0  0  3  0  0  0  0  0  0
  188.4550  176.8110  135.2010 N   0  0  0  0  0  0  0  0  0  0  0  0
  187.1220  175.2320  137.0610 C   0  0  0  0  0  2  0  0  0  0  0  0
  187.1400  176.3110  134.8080 C   0  0  0  0  0  2  0  0  0  0  0  0
  186.3500  175.9120  135.9910 N   0  0  0  0  0  0  0  0  0  0  0  0
  188.5760  174.9220  136.6870 C   0  0  0  0  0  2  0  0  0  0  0  0
  189.1660  176.1500  136.0600 C   0  0  0  0  0  0  0  0  0  0  0  0
  185.2040  175.1060  135.5410 C   0  0  2  0  0  3  0  0  0  0  0  0
  181.1100  176.8280  136.2340 C   0  0  0  0  0  1  0  0  0  0  0  0
  182.4330  178.4260  137.6580 C   0  0  2  0  0  3  0  0  0  0  0  0
  183.5710  176.7610  136.3990 C   0  0  0  0  0  0  0  0  0  0  0  0
  182.2390  177.5560  138.7650 O   0  0  0  0  0  0  0  0  0  0  0  0
  182.3830  177.6460  136.3300 C   0  0  1  0  0  3  0  0  0  0  0  0
  184.2190  176.8810  137.6090 O   0  0  0  0  0  0  0  0  0  0  0  0
  183.9900  175.9710  135.4110 C   0  0  0  0  0  3  0  0  0  0  0  0
  183.5680  177.8430  138.4170 C   0  0  1  0  0  0  0  0  0  0  0  0
  185.9550  178.7140  139.2810 O   0  0  0  0  0  0  0  0  0  0  0  0
  184.4830  178.9460  139.4740 S   0  0  0  0  0  0  0  0  0  0  0  0
  184.1530  180.3630  139.1190 O   0  0  0  0  0  0  0  0  0  0  0  0
  184.0000  178.6020  141.4780 S   0  0  0  0  0  1  0  0  0  0  0  0
  183.7640  173.0560  135.8610 C   0  0  0  0  0  1  0  0  0  0  0  0
  184.9130  173.8810  136.4290 C   0  0  0  0  0  2  0  0  0  0  0  0
  189.3160  178.1850  139.6430 C   0  0  0  0  0  1  0  0  0  0  0  0
  190.2560  177.0250  139.9420 C   0  0  2  0  0  3  0  0  0  0  0  0
  190.9230  177.1940  141.2990 C   0  0  0  0  0  2  0  0  0  0  0  0
  190.4950  176.0830  142.2520 C   0  0  0  0  0  2  0  0  0  0  0  0
  187.2910  177.6510  145.6550 C   0  0  0  0  0  0  0  0  0  0  0  0
  187.4440  176.9660  144.2800 C   0  0  0  0  0  3  0  0  0  0  0  0
  191.0020  177.2910  144.8200 S   0  0  0  0  0  0  0  0  0  0  0  0
  185.9610  177.9440  146.2460 C   0  0  0  0  0  1  0  0  0  0  0  0
  191.7440  178.5520  144.4670 O   0  0  0  0  0  0  0  0  0  0  0  0
  190.1570  176.6440  143.5470 N   0  0  0  0  0  0  0  0  0  0  0  0
  188.9050  176.9630  144.2650 C   0  0  0  0  0  0  0  0  0  0  0  0
  189.4400  177.5110  145.3680 C   0  0  0  0  0  0  0  0  0  0  0  0
  188.4490  177.9730  146.2970 C   0  0  0  0  0  2  0  0  0  0  0  0
  191.8160  176.2680  145.5640 O   0  0  0  0  0  0  0  0  0  0  0  0
  192.7380  176.7020  139.2000 C   0  0  0  0  0  2  0  0  0  0  0  0
  193.4650  176.4320  138.0110 O   0  0  0  0  0  0  0  0  0  0  0  0
  194.0770  175.1980  137.7870 C   0  0  0  0  0  0  0  0  0  0  0  0
  193.4080  174.1330  137.8070 O   0  0  0  0  0  1  0  0  0  0  0  0
  195.4330  175.1510  137.5140 O   0  0  0  0  0  0  0  0  0  0  0  0
  1  2  2  0  0  0  0
  2 39  1  0  0  0  0
  2 26  1  0  0  0  0
  3  1  2  0  0  0  0
  4  9  2  0  0  0  0
  6  4  1  0  0  0  0
  6  7  1  0  0  0  0
  7  5  1  0  0  0  0
  8  5  1  0  0  0  0
  9  3  1  0  0  0  0
  9  8  1  0  0  0  0
 10 17  1  1  0  0  0
 10  7  1  0  0  0  0
 10 24  1  0  0  0  0
 12 18  1  0  0  0  0
 12 14  1  1  0  0  0
 13 16  1  0  0  0  0
 15 11  1  1  0  0  0
 15 13  1  0  0  0  0
 15 12  1  0  0  0  0
 16 18  1  0  0  0  0
 17 13  2  0  0  0  0
 18 14  1  0  0  0  0
 18 20  1  1  0  0  0
 19 20  2  0  0  0  0
 20 22  1  0  0  0  0
 21 20  2  0  0  0  0
 23 24  1  0  0  0  0
 26 25  1  6  0  0  0
 26 27  1  0  0  0  0
 27 28  1  0  0  0  0
 28 34  1  0  0  0  0
 29 32  1  0  0  0  0
 29 37  1  0  0  0  0
 30 29  2  0  0  0  0
 31 36  1  0  0  0  0
 31 38  2  0  0  0  0
 33 31  2  0  0  0  0
 34 35  1  0  0  0  0
 34 31  1  0  0  0  0
 35 30  1  0  0  0  0
 35 36  2  0  0  0  0
 36 37  1  0  0  0  0
 40 39  1  0  0  0  0
 41 42  1  0  0  0  0
 41 40  1  0  0  0  0
 43 41  2  0  0  0  0
M  END
>  <MODEL>
6

>  <REMARK>
 VINA RESULT:      -7.8      3.431      7.350
  Name = 
  12 active torsions:
  status: ('A' for Active; 'I' for Inactive)
    1  A    between atoms: C_1  and  O_13
    2  A    between atoms: C_9  and  C_29
    3  A    between atoms: C_9  and  C_31
    4  A    between atoms: O_13  and  C_31
    5  A    between atoms: C_14  and  C_42
    6  A    between atoms: S_15  and  C_34
    7  A    between atoms: C_16  and  C_29
    8  A    between atoms: C_16  and  C_39
    9  A    between atoms: C_23  and  C_28
   10  A    between atoms: C_23  and  N_37
   11  A    between atoms: C_23  and  C_38
   12  A    between atoms: N_26  and  C_39
                            x       y       z     vdW  Elec       q    Type
                         _______ _______ _______ _____ _____    ______ ____

>  <TORSDO>
F 12

$$$$
=
 OpenBabel11062412213D

 43 47  0  0  1  0  0  0  0  0999 V2000
  180.9330  178.4060  139.9180 C   0  0  0  0  0  0  0  0  0  0  0  0
  181.0360  177.9270  138.7080 C   0  0  0  0  0  0  0  0  0  0  0  0
  180.8360  178.8430  141.1450 C   0  0  0  0  0  3  0  0  0  0  0  0
  181.8190  179.2110  143.2900 N   0  0  0  0  0  0  0  0  0  0  0  0
  184.3920  179.0110  142.2550 C   0  0  0  0  0  2  0  0  0  0  0  0
  182.9010  179.0530  144.2590 C   0  0  0  0  0  2  0  0  0  0  0  0
  184.2010  179.4290  143.6670 N   0  0  0  0  0  0  0  0  0  0  0  0
  183.2680  178.1260  141.7040 C   0  0  0  0  0  2  0  0  0  0  0  0
  181.9580  178.7460  142.0870 C   0  0  0  0  0  0  0  0  0  0  0  0
  185.2760  178.9300  144.5390 C   0  0  2  0  0  3  0  0  0  0  0  0
  188.8450  177.5500  142.1790 C   0  0  0  0  0  1  0  0  0  0  0  0
  189.5670  176.7460  144.4510 C   0  0  2  0  0  3  0  0  0  0  0  0
  187.4280  177.7500  144.1890 C   0  0  0  0  0  0  0  0  0  0  0  0
  190.2070  177.9970  144.6600 O   0  0  0  0  0  0  0  0  0  0  0  0
  188.3920  176.8870  143.4640 C   0  0  1  0  0  3  0  0  0  0  0  0
  187.9400  178.1740  145.3970 O   0  0  0  0  0  0  0  0  0  0  0  0
  186.2060  178.0570  143.7550 C   0  0  0  0  0  3  0  0  0  0  0  0
  189.2300  177.6280  145.5970 C   0  0  1  0  0  0  0  0  0  0  0  0
  189.8280  178.2910  148.1280 O   0  0  0  0  0  0  0  0  0  0  0  0
  189.7810  177.1050  147.2080 S   0  0  0  0  0  0  0  0  0  0  0  0
  188.8240  176.0910  147.7550 O   0  0  0  0  0  0  0  0  0  0  0  0
  191.6900  176.2630  147.0860 S   0  0  0  0  0  1  0  0  0  0  0  0
  185.3900  178.8030  147.0590 C   0  0  0  0  0  1  0  0  0  0  0  0
  184.7740  178.2030  145.8010 C   0  0  0  0  0  2  0  0  0  0  0  0
  182.3490  177.8830  136.5840 C   0  0  0  0  0  1  0  0  0  0  0  0
  182.3970  177.7690  138.1030 C   0  0  2  0  0  3  0  0  0  0  0  0
  183.0150  176.4470  138.5340 C   0  0  0  0  0  2  0  0  0  0  0  0
  183.3860  175.6040  137.3190 C   0  0  0  0  0  2  0  0  0  0  0  0
  187.8960  177.5900  137.1790 C   0  0  0  0  0  0  0  0  0  0  0  0
  186.3970  177.8680  137.4230 C   0  0  0  0  0  2  0  0  0  0  0  0
  185.9280  174.3330  136.8350 S   0  0  0  0  0  0  0  0  0  0  0  0
  188.9140  178.6680  137.2290 C   0  0  0  0  0  1  0  0  0  0  0  0
  185.7750  173.7760  135.4450 O   0  0  0  0  0  0  0  0  0  0  0  0
  184.8290  175.5240  137.1930 N   0  0  0  0  0  0  0  0  0  0  0  0
  185.9480  176.4880  137.2450 C   0  0  0  0  0  0  0  0  0  0  0  0
  186.9540  175.6430  136.9700 C   0  0  0  0  0  0  0  0  0  0  0  0
  188.2310  176.2960  136.9140 C   0  0  0  0  0  3  0  0  0  0  0  0
  186.0450  173.2980  137.9200 O   0  0  0  0  0  0  0  0  0  0  0  0
  179.8090  177.4390  138.0140 C   0  0  0  0  0  2  0  0  0  0  0  0
  179.2360  176.3740  138.7570 O   0  0  0  0  0  0  0  0  0  0  0  0
  179.6110  175.0470  138.5500 C   0  0  0  0  0  0  0  0  0  0  0  0
  179.6200  174.2220  139.4990 O   0  0  0  0  0  1  0  0  0  0  0  0
  179.9540  174.6290  137.2750 O   0  0  0  0  0  0  0  0  0  0  0  0
  1  3  2  0  0  0  0
  2  1  2  0  0  0  0
  3  9  1  0  0  0  0
  4  6  1  0  0  0  0
  5  7  1  0  0  0  0
  7  6  1  0  0  0  0
  7 10  1  0  0  0  0
  8  9  1  0  0  0  0
  8  5  1  0  0  0  0
  9  4  2  0  0  0  0
 10 17  1  6  0  0  0
 10 24  1  0  0  0  0
 12 14  1  6  0  0  0
 12 18  1  0  0  0  0
 13 16  1  0  0  0  0
 14 18  1  0  0  0  0
 15 11  1  6  0  0  0
 15 13  1  0  0  0  0
 15 12  1  0  0  0  0
 16 18  1  0  0  0  0
 17 13  2  0  0  0  0
 18 20  1  1  0  0  0
 20 21  2  0  0  0  0
 20 19  2  0  0  0  0
 22 20  1  0  0  0  0
 24 23  1  0  0  0  0
 26 25  1  6  0  0  0
 26 27  1  0  0  0  0
 26  2  1  0  0  0  0
 28 27  1  0  0  0  0
 29 32  1  0  0  0  0
 29 30  1  0  0  0  0
 31 36  1  0  0  0  0
 31 34  1  0  0  0  0
 31 38  2  0  0  0  0
 33 31  2  0  0  0  0
 34 35  1  0  0  0  0
 34 28  1  0  0  0  0
 35 30  1  0  0  0  0
 36 35  2  0  0  0  0
 37 36  1  0  0  0  0
 37 29  2  0  0  0  0
 39  2  1  0  0  0  0
 39 40  1  0  0  0  0
 41 40  1  0  0  0  0
 41 42  1  0  0  0  0
 43 41  2  0  0  0  0
M  END
>  <MODEL>
7

>  <REMARK>
 VINA RESULT:      -7.6      2.959      8.635
  Name = 
  12 active torsions:
  status: ('A' for Active; 'I' for Inactive)
    1  A    between atoms: C_1  and  O_13
    2  A    between atoms: C_9  and  C_29
    3  A    between atoms: C_9  and  C_31
    4  A    between atoms: O_13  and  C_31
    5  A    between atoms: C_14  and  C_42
    6  A    between atoms: S_15  and  C_34
    7  A    between atoms: C_16  and  C_29
    8  A    between atoms: C_16  and  C_39
    9  A    between atoms: C_23  and  C_28
   10  A    between atoms: C_23  and  N_37
   11  A    between atoms: C_23  and  C_38
   12  A    between atoms: N_26  and  C_39
                            x       y       z     vdW  Elec       q    Type
                         _______ _______ _______ _____ _____    ______ ____

>  <TORSDO>
F 12

$$$$
=
 OpenBabel11062412213D

 43 47  0  0  1  0  0  0  0  0999 V2000
  187.7780  177.6690  144.0210 C   0  0  0  0  0  0  0  0  0  0  0  0
  186.6070  178.0070  144.4880 C   0  0  0  0  0  0  0  0  0  0  0  0
  188.9310  177.2950  143.5350 C   0  0  0  0  0  3  0  0  0  0  0  0
  190.2470  176.6360  141.6540 N   0  0  0  0  0  0  0  0  0  0  0  0
  188.9570  178.4520  139.9900 C   0  0  0  0  0  2  0  0  0  0  0  0
  190.4510  176.4630  140.2180 C   0  0  0  0  0  2  0  0  0  0  0  0
  190.1380  177.7060  139.4850 N   0  0  0  0  0  0  0  0  0  0  0  0
  188.1750  177.7210  141.0880 C   0  0  0  0  0  2  0  0  0  0  0  0
  189.1600  177.1950  142.0880 C   0  0  0  0  0  0  0  0  0  0  0  0
  190.0180  177.3900  138.0530 C   0  0  2  0  0  3  0  0  0  0  0  0
  186.4680  177.9320  135.3490 C   0  0  0  0  0  1  0  0  0  0  0  0
  186.0010  175.5810  136.1110 C   0  0  2  0  0  3  0  0  0  0  0  0
  187.8580  176.7570  137.0150 C   0  0  0  0  0  0  0  0  0  0  0  0
  186.7530  175.1020  135.0040 O   0  0  0  0  0  0  0  0  0  0  0  0
  186.4740  176.9850  136.5320 C   0  0  1  0  0  3  0  0  0  0  0  0
  188.2430  175.4450  136.8400 O   0  0  0  0  0  0  0  0  0  0  0  0
  188.6300  177.6860  137.5790 C   0  0  0  0  0  3  0  0  0  0  0  0
  187.1830  174.6970  136.2770 C   0  0  1  0  0  0  0  0  0  0  0  0
  188.1720  172.3390  137.0900 O   0  0  0  0  0  0  0  0  0  0  0  0
  186.8700  173.0120  136.7620 S   0  0  0  0  0  0  0  0  0  0  0  0
  185.9870  172.9990  137.9710 O   0  0  0  0  0  0  0  0  0  0  0  0
  185.9390  171.9690  135.2090 S   0  0  0  0  0  1  0  0  0  0  0  0
  191.6310  175.9390  136.7590 C   0  0  0  0  0  1  0  0  0  0  0  0
  190.4260  175.9490  137.6930 C   0  0  0  0  0  2  0  0  0  0  0  0
  184.5610  179.4370  144.4280 C   0  0  0  0  0  1  0  0  0  0  0  0
  185.6740  178.7880  143.6150 C   0  0  2  0  0  3  0  0  0  0  0  0
  185.1060  177.8960  142.5220 C   0  0  0  0  0  2  0  0  0  0  0  0
  183.7510  178.4150  142.0530 C   0  0  0  0  0  2  0  0  0  0  0  0
  182.3080  175.8740  138.0830 C   0  0  0  0  0  0  0  0  0  0  0  0
  182.2770  175.9380  139.6250 C   0  0  0  0  0  2  0  0  0  0  0  0
  184.1460  179.0090  139.2600 S   0  0  0  0  0  0  0  0  0  0  0  0
  181.6860  174.7570  137.3290 C   0  0  0  0  0  1  0  0  0  0  0  0
  185.6450  179.0110  139.1170 O   0  0  0  0  0  0  0  0  0  0  0  0
  183.6140  178.2240  140.6210 N   0  0  0  0  0  0  0  0  0  0  0  0
  183.0120  177.1960  139.7470 C   0  0  0  0  0  0  0  0  0  0  0  0
  183.3650  177.7120  138.5580 C   0  0  0  0  0  0  0  0  0  0  0  0
  182.9390  176.9030  137.4520 C   0  0  0  0  0  3  0  0  0  0  0  0
  183.4930  180.3500  139.0630 O   0  0  0  0  0  0  0  0  0  0  0  0
  186.1870  177.5020  145.8270 C   0  0  0  0  0  2  0  0  0  0  0  0
  186.7920  178.2890  146.8420 O   0  0  0  0  0  0  0  0  0  0  0  0
  187.8980  177.8360  147.5620 C   0  0  0  0  0  0  0  0  0  0  0  0
  188.4410  176.7360  147.2880 O   0  0  0  0  0  0  0  0  0  0  0  0
  188.4180  178.6240  148.5740 O   0  0  0  0  0  1  0  0  0  0  0  0
  1  2  2  0  0  0  0
  2 39  1  0  0  0  0
  3  1  2  0  0  0  0
  4  9  2  0  0  0  0
  5  8  1  0  0  0  0
  6  4  1  0  0  0  0
  7  5  1  0  0  0  0
  7  6  1  0  0  0  0
  8  9  1  0  0  0  0
  9  3  1  0  0  0  0
 10 17  1  1  0  0  0
 10  7  1  0  0  0  0
 12 14  1  6  0  0  0
 12 18  1  0  0  0  0
 12 15  1  0  0  0  0
 13 17  2  0  0  0  0
 14 18  1  0  0  0  0
 15 11  1  6  0  0  0
 15 13  1  0  0  0  0
 16 13  1  0  0  0  0
 18 20  1  1  0  0  0
 18 16  1  0  0  0  0
 20 19  2  0  0  0  0
 20 21  2  0  0  0  0
 22 20  1  0  0  0  0
 23 24  1  0  0  0  0
 24 10  1  0  0  0  0
 26 25  1  1  0  0  0
 26  2  1  0  0  0  0
 27 26  1  0  0  0  0
 28 27  1  0  0  0  0
 29 30  1  0  0  0  0
 30 35  1  0  0  0  0
 31 34  1  0  0  0  0
 32 29  1  0  0  0  0
 33 31  2  0  0  0  0
 34 28  1  0  0  0  0
 35 34  1  0  0  0  0
 36 31  1  0  0  0  0
 36 35  2  0  0  0  0
 37 29  2  0  0  0  0
 37 36  1  0  0  0  0
 38 31  2  0  0  0  0
 39 40  1  0  0  0  0
 40 41  1  0  0  0  0
 41 43  1  0  0  0  0
 42 41  2  0  0  0  0
M  END
>  <MODEL>
8

>  <REMARK>
 VINA RESULT:      -7.5      2.913      6.693
  Name = 
  12 active torsions:
  status: ('A' for Active; 'I' for Inactive)
    1  A    between atoms: C_1  and  O_13
    2  A    between atoms: C_9  and  C_29
    3  A    between atoms: C_9  and  C_31
    4  A    between atoms: O_13  and  C_31
    5  A    between atoms: C_14  and  C_42
    6  A    between atoms: S_15  and  C_34
    7  A    between atoms: C_16  and  C_29
    8  A    between atoms: C_16  and  C_39
    9  A    between atoms: C_23  and  C_28
   10  A    between atoms: C_23  and  N_37
   11  A    between atoms: C_23  and  C_38
   12  A    between atoms: N_26  and  C_39
                            x       y       z     vdW  Elec       q    Type
                         _______ _______ _______ _____ _____    ______ ____

>  <TORSDO>
F 12

$$$$
=
 OpenBabel11062412213D

 43 47  0  0  1  0  0  0  0  0999 V2000
  187.7860  177.8490  144.0650 C   0  0  0  0  0  0  0  0  0  0  0  0
  186.5810  177.8920  144.5680 C   0  0  0  0  0  0  0  0  0  0  0  0
  188.9830  177.7630  143.5510 C   0  0  0  0  0  3  0  0  0  0  0  0
  190.3430  177.0820  141.7100 N   0  0  0  0  0  0  0  0  0  0  0  0
  188.7240  178.4210  139.8900 C   0  0  0  0  0  2  0  0  0  0  0  0
  190.5370  176.7530  140.3000 C   0  0  0  0  0  2  0  0  0  0  0  0
  190.0000  177.8180  139.4290 N   0  0  0  0  0  0  0  0  0  0  0  0
  188.1040  177.7270  141.1080 C   0  0  0  0  0  2  0  0  0  0  0  0
  189.1890  177.5080  142.1200 C   0  0  0  0  0  0  0  0  0  0  0  0
  189.8990  177.2960  138.0560 C   0  0  2  0  0  3  0  0  0  0  0  0
  186.5060  177.7630  135.1430 C   0  0  0  0  0  1  0  0  0  0  0  0
  185.9370  175.4730  136.0160 C   0  0  2  0  0  3  0  0  0  0  0  0
  187.7780  176.6560  136.9450 C   0  0  0  0  0  0  0  0  0  0  0  0
  186.7310  174.9120  134.9790 O   0  0  0  0  0  0  0  0  0  0  0  0
  186.4270  176.8880  136.3780 C   0  0  1  0  0  3  0  0  0  0  0  0
  188.1350  175.3270  136.8680 O   0  0  0  0  0  0  0  0  0  0  0  0
  188.5450  177.5970  137.4940 C   0  0  0  0  0  3  0  0  0  0  0  0
  187.0850  174.5730  136.2940 C   0  0  1  0  0  0  0  0  0  0  0  0
  187.9520  172.2730  137.3720 O   0  0  0  0  0  0  0  0  0  0  0  0
  186.7010  172.9280  136.8590 S   0  0  0  0  0  0  0  0  0  0  0  0
  185.6930  173.0040  137.9640 O   0  0  0  0  0  0  0  0  0  0  0  0
  185.9290  171.7810  135.2920 S   0  0  0  0  0  1  0  0  0  0  0  0
  191.4820  175.5780  137.0960 C   0  0  0  0  0  1  0  0  0  0  0  0
  190.2250  175.7960  137.9310 C   0  0  0  0  0  2  0  0  0  0  0  0
  185.6540  179.5160  142.9130 C   0  0  0  0  0  1  0  0  0  0  0  0
  185.4290  178.2110  143.6660 C   0  0  2  0  0  3  0  0  0  0  0  0
  184.1340  178.2540  144.4630 C   0  0  0  0  0  2  0  0  0  0  0  0
  183.2770  179.4400  144.0340 C   0  0  0  0  0  2  0  0  0  0  0  0
  182.0310  177.5840  139.6410 C   0  0  0  0  0  0  0  0  0  0  0  0
  183.2010  177.8910  140.6000 C   0  0  0  0  0  2  0  0  0  0  0  0
  180.6610  179.0950  142.8720 S   0  0  0  0  0  0  0  0  0  0  0  0
  182.2500  177.0030  138.2930 C   0  0  0  0  0  1  0  0  0  0  0  0
  180.1320  180.5020  142.7920 O   0  0  0  0  0  0  0  0  0  0  0  0
  182.3110  179.0200  143.0370 N   0  0  0  0  0  0  0  0  0  0  0  0
  182.3800  178.4150  141.6900 C   0  0  0  0  0  0  0  0  0  0  0  0
  181.0670  178.4020  141.4080 C   0  0  0  0  0  0  0  0  0  0  0  0
  180.7830  177.8790  140.1020 C   0  0  0  0  0  3  0  0  0  0  0  0
  179.9330  178.2020  143.8380 O   0  0  0  0  0  0  0  0  0  0  0  0
  186.3760  177.5030  145.9930 C   0  0  0  0  0  2  0  0  0  0  0  0
  187.1770  178.3250  146.8290 O   0  0  0  0  0  0  0  0  0  0  0  0
  188.1740  177.7920  147.6460 C   0  0  0  0  0  0  0  0  0  0  0  0
  187.9370  177.4970  148.8450 O   0  0  0  0  0  1  0  0  0  0  0  0
  189.4340  177.5630  147.1200 O   0  0  0  0  0  0  0  0  0  0  0  0
  1  2  2  0  0  0  0
  2 39  1  0  0  0  0
  3  1  2  0  0  0  0
  4  9  2  0  0  0  0
  5  8  1  0  0  0  0
  6  4  1  0  0  0  0
  7  5  1  0  0  0  0
  7  6  1  0  0  0  0
  8  9  1  0  0  0  0
  9  3  1  0  0  0  0
 10 17  1  1  0  0  0
 10  7  1  0  0  0  0
 12 14  1  6  0  0  0
 12 18  1  0  0  0  0
 12 15  1  0  0  0  0
 13 17  2  0  0  0  0
 14 18  1  0  0  0  0
 15 11  1  6  0  0  0
 15 13  1  0  0  0  0
 16 13  1  0  0  0  0
 18 20  1  1  0  0  0
 18 16  1  0  0  0  0
 20 19  2  0  0  0  0
 20 21  2  0  0  0  0
 22 20  1  0  0  0  0
 23 24  1  0  0  0  0
 24 10  1  0  0  0  0
 26 25  1  1  0  0  0
 26 27  1  0  0  0  0
 26  2  1  0  0  0  0
 28 27  1  0  0  0  0
 29 37  2  0  0  0  0
 29 30  1  0  0  0  0
 30 35  1  0  0  0  0
 31 34  1  0  0  0  0
 31 38  2  0  0  0  0
 32 29  1  0  0  0  0
 33 31  2  0  0  0  0
 34 28  1  0  0  0  0
 35 34  1  0  0  0  0
 36 35  2  0  0  0  0
 36 31  1  0  0  0  0
 37 36  1  0  0  0  0
 39 40  1  0  0  0  0
 40 41  1  0  0  0  0
 41 42  1  0  0  0  0
 43 41  2  0  0  0  0
M  END
>  <MODEL>
9

>  <REMARK>
 VINA RESULT:      -7.3      2.845      7.218
  Name = 
  12 active torsions:
  status: ('A' for Active; 'I' for Inactive)
    1  A    between atoms: C_1  and  O_13
    2  A    between atoms: C_9  and  C_29
    3  A    between atoms: C_9  and  C_31
    4  A    between atoms: O_13  and  C_31
    5  A    between atoms: C_14  and  C_42
    6  A    between atoms: S_15  and  C_34
    7  A    between atoms: C_16  and  C_29
    8  A    between atoms: C_16  and  C_39
    9  A    between atoms: C_23  and  C_28
   10  A    between atoms: C_23  and  N_37
   11  A    between atoms: C_23  and  C_38
   12  A    between atoms: N_26  and  C_39
                            x       y       z     vdW  Elec       q    Type
                         _______ _______ _______ _____ _____    ______ ____

>  <TORSDO>
F 12

$$$$
