=
 OpenBabel11062413013D

 38 43  0  0  1  0  0  0  0  0999 V2000
  187.5800  178.6060  136.9360 C   0  0  0  0  0  2  0  0  0  0  0  0
  186.6920  177.8320  135.8760 C   0  0  0  0  0  2  0  0  0  0  0  0
  190.1890  176.0130  136.5070 C   0  0  2  0  0  3  0  0  0  0  0  0
  188.9170  178.5360  139.7110 C   0  0  0  0  0  2  0  0  0  0  0  0
  190.8430  175.0310  137.4890 C   0  0  0  0  0  2  0  0  0  0  0  0
  190.3310  176.4860  140.0810 C   0  0  0  0  0  2  0  0  0  0  0  0
  193.0390  176.0190  137.5200 O   0  0  0  0  0  1  0  0  0  0  0  0
  185.5440  178.3390  138.4300 N   0  0  0  0  0  0  0  0  0  0  0  0
  187.9050  175.4230  137.3800 C   0  0  0  0  0  2  0  0  0  0  0  0
  185.7980  176.7380  136.5110 C   0  0  2  0  0  0  0  0  0  0  0  0
  184.4240  176.7620  136.5150 O   0  0  0  0  0  0  0  0  0  0  0  0
  191.4700  176.8790  139.1390 C   0  0  1  0  0  3  0  0  0  0  0  0
  192.5760  177.4160  139.9160 N   0  0  0  0  0  1  0  0  0  0  0  0
  191.9540  175.6690  138.3310 C   0  0  1  0  0  3  0  0  0  0  0  0
  187.7080  177.8290  139.3150 N   0  0  0  0  0  2  0  0  0  0  0  0
  188.7730  175.5750  136.1370 C   0  0  0  0  0  2  0  0  0  0  0  0
  186.9710  178.6910  138.3980 C   0  0  1  0  0  3  0  0  0  0  0  0
  189.6900  177.7120  140.7270 C   0  0  0  0  0  2  0  0  0  0  0  0
  185.2530  177.5140  137.4940 C   0  0  0  0  0  0  0  0  0  0  0  0
  186.4010  175.4400  137.0840 C   0  0  1  0  0  3  0  0  0  0  0  0
  183.6180  171.3430  136.6670 S   0  0  0  0  0  0  0  0  0  0  0  0
  185.6010  174.0400  134.9730 C   0  0  1  0  0  3  0  0  0  0  0  0
  187.9260  173.3590  134.7140 O   0  0  0  0  0  1  0  0  0  0  0  0
  185.7750  174.1630  136.5030 C   0  0  1  0  0  3  0  0  0  0  0  0
  186.1820  171.9910  135.6690 C   0  0  1  0  0  0  0  0  0  0  0  0
  186.5940  172.9560  134.5940 C   0  0  1  0  0  3  0  0  0  0  0  0
  186.3390  172.8190  136.9530 C   0  0  0  0  0  2  0  0  0  0  0  0
  184.7030  171.8120  135.2790 C   0  0  2  0  0  3  0  0  0  0  0  0
  183.0980  173.7300  135.5220 C   0  0  2  0  0  3  0  0  0  0  0  0
  186.9690  170.6900  135.6630 C   0  0  0  0  0  1  0  0  0  0  0  0
  184.3170  173.2100  134.7620 C   0  0  1  0  0  3  0  0  0  0  0  0
  182.3660  172.5240  136.0850 C   0  0  2  0  0  3  0  0  0  0  0  0
  181.5090  172.9280  137.1900 N   0  0  0  0  0  2  0  0  0  0  0  0
  180.7210  171.8720  137.4890 O   0  0  0  0  0  1  0  0  0  0  0  0
  181.7080  175.6530  135.2410 O   0  0  0  0  0  1  0  0  0  0  0  0
  182.1840  174.5150  134.5940 C   0  0  0  0  0  2  0  0  0  0  0  0
  191.4360  174.8960  134.5940 C   0  0  0  0  0  1  0  0  0  0  0  0
  191.0390  176.2100  135.2480 C   0  0  0  0  0  2  0  0  0  0  0  0
  2  1  1  0  0  0  0
  3 38  1  6  0  0  0
  3  5  1  0  0  0  0
  4 18  1  0  0  0  0
  5 14  1  0  0  0  0
  6 18  1  0  0  0  0
 10  2  1  6  0  0  0
 10 11  1  0  0  0  0
 10 20  1  0  0  0  0
 10 19  1  0  0  0  0
 11 19  1  0  0  0  0
 12 13  1  1  0  0  0
 12  6  1  0  0  0  0
 14  7  1  6  0  0  0
 14 12  1  0  0  0  0
 15  4  1  0  0  0  0
 16  3  1  0  0  0  0
 16  9  1  0  0  0  0
 17  1  1  6  0  0  0
 17  8  1  0  0  0  0
 17 15  1  0  0  0  0
 19  8  2  0  0  0  0
 20  9  1  6  0  0  0
 22 24  1  0  0  0  0
 24 27  1  0  0  0  0
 24 20  1  0  0  0  0
 25 27  1  0  0  0  0
 26 23  1  0  0  0  0
 26 22  1  0  0  0  0
 26 25  1  0  0  0  0
 28 25  1  0  0  0  0
 28 21  1  0  0  0  0
 29 32  1  0  0  0  0
 30 25  1  0  0  0  0
 31 22  1  0  0  0  0
 31 28  1  0  0  0  0
 31 29  1  0  0  0  0
 32 21  1  0  0  0  0
 32 33  1  0  0  0  0
 33 34  1  0  0  0  0
 36 35  1  0  0  0  0
 36 29  1  0  0  0  0
 37 38  1  0  0  0  0
M  END
>  <MODEL>
1

>  <REMARK>
 VINA RESULT:      -5.6      0.000      0.000
  Name = 
  4 active torsions:
  status: ('A' for Active; 'I' for Inactive)
    1  A    between atoms: N_3  and  C_37
    2  A    between atoms: C_7  and  C_28
    3  A    between atoms: C_16  and  C_38
    4  A    between atoms: C_23  and  C_36
                            x       y       z     vdW  Elec       q    Type
                         _______ _______ _______ _____ _____    ______ ____

>  <TORSDO>
F 4

$$$$
=
 OpenBabel11062413013D

 38 43  0  0  1  0  0  0  0  0999 V2000
  184.4740  176.7190  135.5340 C   0  0  0  0  0  2  0  0  0  0  0  0
  183.1220  177.4530  135.9120 C   0  0  0  0  0  2  0  0  0  0  0  0
  182.6910  173.4860  135.8260 C   0  0  2  0  0  3  0  0  0  0  0  0
  186.7050  174.8050  136.4580 C   0  0  0  0  0  2  0  0  0  0  0  0
  182.9130  172.2590  136.7220 C   0  0  0  0  0  2  0  0  0  0  0  0
  185.8300  172.6350  137.3880 C   0  0  0  0  0  2  0  0  0  0  0  0
  183.6350  170.7310  135.0080 O   0  0  0  0  0  1  0  0  0  0  0  0
  185.4090  178.0080  137.5120 N   0  0  0  0  0  0  0  0  0  0  0  0
  182.9250  175.0210  137.8050 C   0  0  0  0  0  2  0  0  0  0  0  0
  182.9270  177.6270  137.4390 C   0  0  2  0  0  0  0  0  0  0  0  0
  182.8800  178.8390  138.0840 O   0  0  0  0  0  0  0  0  0  0  0  0
  185.3690  172.0400  136.0560 C   0  0  1  0  0  3  0  0  0  0  0  0
  186.3640  171.0900  135.5820 N   0  0  0  0  0  1  0  0  0  0  0  0
  184.0190  171.3300  136.2110 C   0  0  1  0  0  3  0  0  0  0  0  0
  185.9070  175.6770  137.3070 N   0  0  0  0  0  2  0  0  0  0  0  0
  182.0670  174.6430  136.6030 C   0  0  0  0  0  2  0  0  0  0  0  0
  185.6620  176.9100  136.5680 C   0  0  1  0  0  3  0  0  0  0  0  0
  187.0530  173.5300  137.2070 C   0  0  0  0  0  2  0  0  0  0  0  0
  184.1520  178.1680  137.7060 C   0  0  0  0  0  0  0  0  0  0  0  0
  182.6290  176.4220  138.3530 C   0  0  1  0  0  3  0  0  0  0  0  0
  179.6230  177.8390  142.0490 S   0  0  0  0  0  0  0  0  0  0  0  0
  179.9850  176.6110  138.5230 C   0  0  1  0  0  3  0  0  0  0  0  0
  179.9430  174.1750  138.4560 O   0  0  0  0  0  1  0  0  0  0  0  0
  181.3680  176.5990  139.2120 C   0  0  1  0  0  3  0  0  0  0  0  0
  179.6770  175.5080  140.4490 C   0  0  1  0  0  0  0  0  0  0  0  0
  179.3470  175.3160  138.9960 C   0  0  1  0  0  3  0  0  0  0  0  0
  181.2010  175.7020  140.4340 C   0  0  0  0  0  2  0  0  0  0  0  0
  178.9340  176.8350  140.6920 C   0  0  2  0  0  3  0  0  0  0  0  0
  179.7370  178.9460  139.5920 C   0  0  2  0  0  3  0  0  0  0  0  0
  179.1990  174.3760  141.3440 C   0  0  0  0  0  1  0  0  0  0  0  0
  179.1110  177.5730  139.3530 C   0  0  1  0  0  3  0  0  0  0  0  0
  179.4460  179.3330  141.0310 C   0  0  2  0  0  3  0  0  0  0  0  0
  180.3840  180.3530  141.4760 N   0  0  0  0  0  2  0  0  0  0  0  0
  180.0240  180.7060  142.7300 O   0  0  0  0  0  1  0  0  0  0  0  0
  180.1620  180.7560  138.0910 O   0  0  0  0  0  1  0  0  0  0  0  0
  179.1470  179.9760  138.6400 C   0  0  0  0  0  2  0  0  0  0  0  0
  180.4670  172.6150  134.9540 C   0  0  0  0  0  1  0  0  0  0  0  0
  181.8460  173.1460  134.5940 C   0  0  0  0  0  2  0  0  0  0  0  0
  1  2  1  0  0  0  0
  3 38  1  6  0  0  0
  3 16  1  0  0  0  0
  3  5  1  0  0  0  0
  4 18  1  0  0  0  0
  4 15  1  0  0  0  0
  8 19  2  0  0  0  0
 10  2  1  6  0  0  0
 10 19  1  0  0  0  0
 10 11  1  0  0  0  0
 10 20  1  0  0  0  0
 12 13  1  1  0  0  0
 12 14  1  0  0  0  0
 12  6  1  0  0  0  0
 14  7  1  6  0  0  0
 14  5  1  0  0  0  0
 16  9  1  0  0  0  0
 17  1  1  6  0  0  0
 17 15  1  0  0  0  0
 17  8  1  0  0  0  0
 18  6  1  0  0  0  0
 19 11  1  0  0  0  0
 20  9  1  6  0  0  0
 20 24  1  0  0  0  0
 22 26  1  0  0  0  0
 22 24  1  0  0  0  0
 22 31  1  0  0  0  0
 23 26  1  0  0  0  0
 24 27  1  0  0  0  0
 25 28  1  0  0  0  0
 25 30  1  0  0  0  0
 26 25  1  0  0  0  0
 27 25  1  0  0  0  0
 28 21  1  0  0  0  0
 29 32  1  0  0  0  0
 31 29  1  0  0  0  0
 31 28  1  0  0  0  0
 32 33  1  0  0  0  0
 32 21  1  0  0  0  0
 33 34  1  0  0  0  0
 35 36  1  0  0  0  0
 36 29  1  0  0  0  0
 38 37  1  0  0  0  0
M  END
>  <MODEL>
2

>  <REMARK>
 VINA RESULT:      -5.1      4.452      7.463
  Name = 
  4 active torsions:
  status: ('A' for Active; 'I' for Inactive)
    1  A    between atoms: N_3  and  C_37
    2  A    between atoms: C_7  and  C_28
    3  A    between atoms: C_16  and  C_38
    4  A    between atoms: C_23  and  C_36
                            x       y       z     vdW  Elec       q    Type
                         _______ _______ _______ _____ _____    ______ ____

>  <TORSDO>
F 4

$$$$
=
 OpenBabel11062413013D

 38 43  0  0  1  0  0  0  0  0999 V2000
  184.3030  175.3900  134.9700 C   0  0  0  0  0  2  0  0  0  0  0  0
  184.3110  176.8560  135.5730 C   0  0  0  0  0  2  0  0  0  0  0  0
  180.9850  174.8670  136.5310 C   0  0  2  0  0  3  0  0  0  0  0  0
  184.3120  172.3670  135.5640 C   0  0  0  0  0  2  0  0  0  0  0  0
  180.4780  173.8550  137.5680 C   0  0  0  0  0  2  0  0  0  0  0  0
  182.5200  171.6680  137.1890 C   0  0  0  0  0  2  0  0  0  0  0  0
  179.0420  172.5880  136.1100 O   0  0  0  0  0  1  0  0  0  0  0  0
  186.5080  175.1620  136.2100 N   0  0  0  0  0  0  0  0  0  0  0  0
  183.0180  175.3430  137.9340 C   0  0  0  0  0  2  0  0  0  0  0  0
  184.9020  176.9260  137.0020 C   0  0  2  0  0  0  0  0  0  0  0  0
  186.0530  177.5990  137.3360 O   0  0  0  0  0  0  0  0  0  0  0  0
  181.3340  171.8480  136.2390 C   0  0  1  0  0  3  0  0  0  0  0  0
  180.9400  170.5530  135.7090 N   0  0  0  0  0  1  0  0  0  0  0  0
  180.1440  172.4870  136.9640 C   0  0  1  0  0  3  0  0  0  0  0  0
  184.8850  173.4130  136.3980 N   0  0  0  0  0  2  0  0  0  0  0  0
  181.8430  175.9520  137.1790 C   0  0  0  0  0  2  0  0  0  0  0  0
  185.4430  174.4280  135.5110 C   0  0  1  0  0  3  0  0  0  0  0  0
  183.7790  171.2430  136.4380 C   0  0  0  0  0  2  0  0  0  0  0  0
  186.0520  176.2350  136.7440 C   0  0  0  0  0  0  0  0  0  0  0  0
  184.1500  176.3390  138.2120 C   0  0  1  0  0  3  0  0  0  0  0  0
  183.7530  178.2200  142.7960 S   0  0  0  0  0  0  0  0  0  0  0  0
  184.3530  178.8190  139.1410 C   0  0  1  0  0  3  0  0  0  0  0  0
  182.2520  179.2760  137.9930 O   0  0  0  0  0  1  0  0  0  0  0  0
  183.9490  177.3430  139.3580 C   0  0  1  0  0  3  0  0  0  0  0  0
  182.4760  178.8910  140.3650 C   0  0  1  0  0  0  0  0  0  0  0  0
  183.0200  179.5480  139.1270 C   0  0  1  0  0  3  0  0  0  0  0  0
  182.5840  177.3940  140.0360 C   0  0  0  0  0  2  0  0  0  0  0  0
  183.5550  179.3360  141.3690 C   0  0  2  0  0  3  0  0  0  0  0  0
  185.8970  178.4470  141.1760 C   0  0  2  0  0  3  0  0  0  0  0  0
  181.0760  179.3490  140.7400 C   0  0  0  0  0  1  0  0  0  0  0  0
  184.8370  179.3270  140.5160 C   0  0  1  0  0  3  0  0  0  0  0  0
  185.5580  178.3590  142.6530 C   0  0  2  0  0  3  0  0  0  0  0  0
  186.1960  177.1930  143.2460 N   0  0  0  0  0  2  0  0  0  0  0  0
  186.3980  177.4700  144.5530 O   0  0  0  0  0  1  0  0  0  0  0  0
  187.8310  178.6140  139.7820 O   0  0  0  0  0  1  0  0  0  0  0  0
  187.2830  179.0460  140.9870 C   0  0  0  0  0  2  0  0  0  0  0  0
  180.2230  176.8050  135.0730 C   0  0  0  0  0  1  0  0  0  0  0  0
  179.8360  175.4920  135.7340 C   0  0  0  0  0  2  0  0  0  0  0  0
  1  2  1  0  0  0  0
  3 38  1  1  0  0  0
  3 16  1  0  0  0  0
  3  5  1  0  0  0  0
  4 15  1  0  0  0  0
  4 18  1  0  0  0  0
  8 19  2  0  0  0  0
 10  2  1  6  0  0  0
 10 11  1  0  0  0  0
 10 20  1  0  0  0  0
 12 13  1  1  0  0  0
 12 14  1  0  0  0  0
 12  6  1  0  0  0  0
 14  7  1  6  0  0  0
 14  5  1  0  0  0  0
 16  9  1  0  0  0  0
 17  1  1  1  0  0  0
 17  8  1  0  0  0  0
 17 15  1  0  0  0  0
 18  6  1  0  0  0  0
 19 10  1  0  0  0  0
 19 11  1  0  0  0  0
 20  9  1  6  0  0  0
 20 24  1  0  0  0  0
 22 24  1  0  0  0  0
 22 31  1  0  0  0  0
 23 26  1  0  0  0  0
 24 27  1  0  0  0  0
 25 30  1  0  0  0  0
 25 28  1  0  0  0  0
 26 22  1  0  0  0  0
 26 25  1  0  0  0  0
 27 25  1  0  0  0  0
 28 21  1  0  0  0  0
 29 32  1  0  0  0  0
 31 29  1  0  0  0  0
 31 28  1  0  0  0  0
 32 21  1  0  0  0  0
 32 33  1  0  0  0  0
 33 34  1  0  0  0  0
 35 36  1  0  0  0  0
 36 29  1  0  0  0  0
 37 38  1  0  0  0  0
M  END
>  <MODEL>
3

>  <REMARK>
 VINA RESULT:      -4.9      3.770      8.645
  Name = 
  4 active torsions:
  status: ('A' for Active; 'I' for Inactive)
    1  A    between atoms: N_3  and  C_37
    2  A    between atoms: C_7  and  C_28
    3  A    between atoms: C_16  and  C_38
    4  A    between atoms: C_23  and  C_36
                            x       y       z     vdW  Elec       q    Type
                         _______ _______ _______ _____ _____    ______ ____

>  <TORSDO>
F 4

$$$$
=
 OpenBabel11062413013D

 38 43  0  0  1  0  0  0  0  0999 V2000
  183.4560  179.5270  139.2020 C   0  0  0  0  0  2  0  0  0  0  0  0
  182.6790  178.8610  137.9920 C   0  0  0  0  0  2  0  0  0  0  0  0
  186.5890  178.0650  137.8740 C   0  0  2  0  0  3  0  0  0  0  0  0
  185.1140  179.0650  141.7570 C   0  0  0  0  0  2  0  0  0  0  0  0
  187.6070  177.0840  138.4720 C   0  0  0  0  0  2  0  0  0  0  0  0
  187.0650  177.5130  141.4080 C   0  0  0  0  0  2  0  0  0  0  0  0
  189.4380  178.6280  138.7180 O   0  0  0  0  0  1  0  0  0  0  0  0
  181.7820  178.2490  140.6220 N   0  0  0  0  0  0  0  0  0  0  0  0
  184.6840  176.5970  138.6140 C   0  0  0  0  0  2  0  0  0  0  0  0
  182.2060  177.4170  138.2890 C   0  0  2  0  0  0  0  0  0  0  0  0
  180.8890  177.0290  138.3580 O   0  0  0  0  0  0  0  0  0  0  0  0
  187.9220  178.4800  140.5890 C   0  0  1  0  0  3  0  0  0  0  0  0
  188.9330  179.0740  141.4480 N   0  0  0  0  0  1  0  0  0  0  0  0
  188.6040  177.7540  139.4240 C   0  0  1  0  0  3  0  0  0  0  0  0
  184.1000  178.1740  141.2110 N   0  0  0  0  0  2  0  0  0  0  0  0
  185.3080  177.3510  137.4460 C   0  0  0  0  0  2  0  0  0  0  0  0
  183.0440  179.0030  140.6420 C   0  0  1  0  0  3  0  0  0  0  0  0
  186.2080  178.2530  142.4310 C   0  0  0  0  0  2  0  0  0  0  0  0
  181.6050  177.6800  139.4880 C   0  0  0  0  0  0  0  0  0  0  0  0
  183.2060  176.2510  138.4020 C   0  0  1  0  0  3  0  0  0  0  0  0
  181.4080  171.9060  136.7910 S   0  0  0  0  0  0  0  0  0  0  0  0
  182.7260  175.3190  135.9610 C   0  0  1  0  0  3  0  0  0  0  0  0
  185.1430  175.2530  135.6580 O   0  0  0  0  0  1  0  0  0  0  0  0
  182.8780  175.0680  137.4780 C   0  0  1  0  0  3  0  0  0  0  0  0
  183.7560  173.3360  136.1320 C   0  0  1  0  0  0  0  0  0  0  0  0
  183.9350  174.6170  135.3670 C   0  0  1  0  0  3  0  0  0  0  0  0
  183.7320  173.8090  137.5930 C   0  0  0  0  0  2  0  0  0  0  0  0
  182.3520  172.9500  135.6310 C   0  0  2  0  0  3  0  0  0  0  0  0
  180.3600  174.3380  136.2770 C   0  0  2  0  0  3  0  0  0  0  0  0
  184.8140  172.2870  135.8320 C   0  0  0  0  0  1  0  0  0  0  0  0
  181.6590  174.3160  135.4740 C   0  0  1  0  0  3  0  0  0  0  0  0
  179.9210  172.8970  136.4690 C   0  0  2  0  0  3  0  0  0  0  0  0
  179.0020  172.7970  137.5930 N   0  0  0  0  0  2  0  0  0  0  0  0
  179.6060  173.3780  138.6540 O   0  0  0  0  0  1  0  0  0  0  0  0
  179.6870  176.4470  135.3790 O   0  0  0  0  0  1  0  0  0  0  0  0
  179.2870  175.1220  135.5370 C   0  0  0  0  0  2  0  0  0  0  0  0
  187.3430  178.0210  135.4470 C   0  0  0  0  0  1  0  0  0  0  0  0
  187.1800  178.8590  136.7060 C   0  0  0  0  0  2  0  0  0  0  0  0
  2  1  1  0  0  0  0
  3 38  1  6  0  0  0
  3  5  1  0  0  0  0
  4 18  1  0  0  0  0
  5 14  1  0  0  0  0
  6 18  1  0  0  0  0
  8 17  1  0  0  0  0
 10  2  1  6  0  0  0
 10 11  1  0  0  0  0
 10 20  1  0  0  0  0
 10 19  1  0  0  0  0
 11 19  1  0  0  0  0
 12  6  1  0  0  0  0
 12 13  1  1  0  0  0
 14  7  1  6  0  0  0
 14 12  1  0  0  0  0
 15  4  1  0  0  0  0
 16  3  1  0  0  0  0
 16  9  1  0  0  0  0
 17  1  1  6  0  0  0
 17 15  1  0  0  0  0
 19  8  2  0  0  0  0
 20  9  1  6  0  0  0
 22 24  1  0  0  0  0
 24 27  1  0  0  0  0
 24 20  1  0  0  0  0
 25 27  1  0  0  0  0
 26 23  1  0  0  0  0
 26 22  1  0  0  0  0
 26 25  1  0  0  0  0
 28 25  1  0  0  0  0
 28 21  1  0  0  0  0
 29 32  1  0  0  0  0
 30 25  1  0  0  0  0
 31 28  1  0  0  0  0
 31 22  1  0  0  0  0
 31 29  1  0  0  0  0
 32 21  1  0  0  0  0
 32 33  1  0  0  0  0
 33 34  1  0  0  0  0
 35 36  1  0  0  0  0
 36 29  1  0  0  0  0
 37 38  1  0  0  0  0
M  END
>  <MODEL>
4

>  <REMARK>
 VINA RESULT:      -4.6      2.577      3.731
  Name = 
  4 active torsions:
  status: ('A' for Active; 'I' for Inactive)
    1  A    between atoms: N_3  and  C_37
    2  A    between atoms: C_7  and  C_28
    3  A    between atoms: C_16  and  C_38
    4  A    between atoms: C_23  and  C_36
                            x       y       z     vdW  Elec       q    Type
                         _______ _______ _______ _____ _____    ______ ____

>  <TORSDO>
F 4

$$$$
=
 OpenBabel11062413013D

 38 43  0  0  1  0  0  0  0  0999 V2000
  182.3030  177.9850  139.4400 C   0  0  0  0  0  2  0  0  0  0  0  0
  183.6810  177.3970  139.9560 C   0  0  0  0  0  2  0  0  0  0  0  0
  182.2990  175.3960  136.7920 C   0  0  2  0  0  3  0  0  0  0  0  0
  180.8070  179.3840  137.1390 C   0  0  0  0  0  2  0  0  0  0  0  0
  182.2850  175.4840  135.2590 C   0  0  0  0  0  2  0  0  0  0  0  0
  181.1080  178.2400  134.9170 C   0  0  0  0  0  2  0  0  0  0  0  0
  180.0620  174.6320  134.9050 O   0  0  0  0  0  1  0  0  0  0  0  0
  183.5990  180.1640  139.2940 N   0  0  0  0  0  0  0  0  0  0  0  0
  184.1220  177.1250  136.9120 C   0  0  0  0  0  2  0  0  0  0  0  0
  184.9130  178.0220  139.2560 C   0  0  2  0  0  0  0  0  0  0  0  0
  185.8670  178.7810  139.8900 O   0  0  0  0  0  0  0  0  0  0  0  0
  180.2420  177.0170  135.2230 C   0  0  1  0  0  3  0  0  0  0  0  0
  178.9310  177.1910  134.6180 N   0  0  0  0  0  1  0  0  0  0  0  0
  180.8890  175.7380  134.6810 C   0  0  1  0  0  3  0  0  0  0  0  0
  182.2230  179.5070  137.4500 N   0  0  0  0  0  2  0  0  0  0  0  0
  183.6740  175.7390  137.3600 C   0  0  0  0  0  2  0  0  0  0  0  0
  182.3610  179.4760  138.9020 C   0  0  1  0  0  3  0  0  0  0  0  0
  180.5960  179.4840  135.6370 C   0  0  0  0  0  2  0  0  0  0  0  0
  184.5630  179.3310  139.4330 C   0  0  0  0  0  0  0  0  0  0  0  0
  185.2380  177.7190  137.7800 C   0  0  1  0  0  3  0  0  0  0  0  0
  189.2900  174.8560  138.0640 S   0  0  0  0  0  0  0  0  0  0  0  0
  187.3810  177.5110  136.2260 C   0  0  1  0  0  3  0  0  0  0  0  0
  188.0090  179.7260  137.0250 O   0  0  0  0  0  1  0  0  0  0  0  0
  186.6660  177.1980  137.5590 C   0  0  1  0  0  3  0  0  0  0  0  0
  188.9720  177.6520  137.7980 C   0  0  1  0  0  0  0  0  0  0  0  0
  188.4840  178.4710  136.6370 C   0  0  1  0  0  3  0  0  0  0  0  0
  187.7030  177.4650  138.6440 C   0  0  0  0  0  2  0  0  0  0  0  0
  189.3510  176.3650  137.0430 C   0  0  2  0  0  3  0  0  0  0  0  0
  187.5620  174.9470  135.9960 C   0  0  2  0  0  3  0  0  0  0  0  0
  190.1370  178.2790  138.5470 C   0  0  0  0  0  1  0  0  0  0  0  0
  188.2830  176.2920  135.9370 C   0  0  1  0  0  3  0  0  0  0  0  0
  188.4840  173.9680  136.7000 C   0  0  2  0  0  3  0  0  0  0  0  0
  187.7200  172.8430  137.2200 N   0  0  0  0  0  2  0  0  0  0  0  0
  186.6070  173.3490  137.7950 O   0  0  0  0  0  1  0  0  0  0  0  0
  186.1820  173.5460  134.6380 O   0  0  0  0  0  1  0  0  0  0  0  0
  187.2390  174.4520  134.5940 C   0  0  0  0  0  2  0  0  0  0  0  0
  180.6390  174.1060  138.2210 C   0  0  0  0  0  1  0  0  0  0  0  0
  181.8370  174.0220  137.2870 C   0  0  0  0  0  2  0  0  0  0  0  0
  1  2  1  0  0  0  0
  3 38  1  6  0  0  0
  3 16  1  0  0  0  0
  4 15  1  0  0  0  0
  5  3  1  0  0  0  0
  6 12  1  0  0  0  0
  6 18  1  0  0  0  0
  8 19  2  0  0  0  0
  9 16  1  0  0  0  0
 10 19  1  0  0  0  0
 10 11  1  0  0  0  0
 10  2  1  1  0  0  0
 12 13  1  6  0  0  0
 14  7  1  1  0  0  0
 14 12  1  0  0  0  0
 14  5  1  0  0  0  0
 15 17  1  0  0  0  0
 17  8  1  0  0  0  0
 17  1  1  6  0  0  0
 18  4  1  0  0  0  0
 19 11  1  0  0  0  0
 20  9  1  1  0  0  0
 20 10  1  0  0  0  0
 22 26  1  0  0  0  0
 22 24  1  0  0  0  0
 24 20  1  0  0  0  0
 24 27  1  0  0  0  0
 25 30  1  0  0  0  0
 25 27  1  0  0  0  0
 26 23  1  0  0  0  0
 26 25  1  0  0  0  0
 28 25  1  0  0  0  0
 28 21  1  0  0  0  0
 29 32  1  0  0  0  0
 31 29  1  0  0  0  0
 31 22  1  0  0  0  0
 31 28  1  0  0  0  0
 32 33  1  0  0  0  0
 32 21  1  0  0  0  0
 33 34  1  0  0  0  0
 36 35  1  0  0  0  0
 36 29  1  0  0  0  0
 38 37  1  0  0  0  0
M  END
>  <MODEL>
5

>  <REMARK>
 VINA RESULT:      -3.9      3.124      7.455
  Name = 
  4 active torsions:
  status: ('A' for Active; 'I' for Inactive)
    1  A    between atoms: N_3  and  C_37
    2  A    between atoms: C_7  and  C_28
    3  A    between atoms: C_16  and  C_38
    4  A    between atoms: C_23  and  C_36
                            x       y       z     vdW  Elec       q    Type
                         _______ _______ _______ _____ _____    ______ ____

>  <TORSDO>
F 4

$$$$
=
 OpenBabel11062413013D

 38 43  0  0  1  0  0  0  0  0999 V2000
  190.7450  176.7680  136.8240 C   0  0  0  0  0  2  0  0  0  0  0  0
  190.7730  177.8680  137.9650 C   0  0  0  0  0  2  0  0  0  0  0  0
  187.0550  176.6810  137.1270 C   0  0  2  0  0  3  0  0  0  0  0  0
  190.0810  173.8530  136.0800 C   0  0  0  0  0  2  0  0  0  0  0  0
  186.0720  175.5550  137.4800 C   0  0  0  0  0  2  0  0  0  0  0  0
  187.7550  173.1610  136.7510 C   0  0  0  0  0  2  0  0  0  0  0  0
  185.0460  175.3300  135.3150 O   0  0  0  0  0  1  0  0  0  0  0  0
  192.3270  175.5180  138.3680 N   0  0  0  0  0  0  0  0  0  0  0  0
  188.5310  176.0520  139.0650 C   0  0  0  0  0  2  0  0  0  0  0  0
  190.8410  177.2680  139.3910 C   0  0  2  0  0  0  0  0  0  0  0  0
  191.8960  177.4330  140.2550 O   0  0  0  0  0  0  0  0  0  0  0  0
  187.0110  173.9840  135.6980 C   0  0  1  0  0  3  0  0  0  0  0  0
  186.6260  173.1190  134.5940 N   0  0  0  0  0  1  0  0  0  0  0  0
  185.7580  174.6340  136.2970 C   0  0  1  0  0  3  0  0  0  0  0  0
  190.4890  174.3400  137.3900 N   0  0  0  0  0  2  0  0  0  0  0  0
  187.7950  177.1870  138.3630 C   0  0  0  0  0  2  0  0  0  0  0  0
  191.4670  175.4020  137.1820 C   0  0  1  0  0  3  0  0  0  0  0  0
  189.1130  172.6920  136.2370 C   0  0  0  0  0  2  0  0  0  0  0  0
  191.8880  176.4190  139.1670 C   0  0  0  0  0  0  0  0  0  0  0  0
  189.6380  176.5300  140.0110 C   0  0  1  0  0  3  0  0  0  0  0  0
  188.8570  176.8650  144.9080 S   0  0  0  0  0  0  0  0  0  0  0  0
  189.2450  178.6130  141.6110 C   0  0  1  0  0  3  0  0  0  0  0  0
  187.0820  178.8720  140.5190 O   0  0  0  0  0  1  0  0  0  0  0  0
  189.2150  177.0860  141.3790 C   0  0  1  0  0  3  0  0  0  0  0  0
  187.4230  177.8860  142.6950 C   0  0  1  0  0  0  0  0  0  0  0  0
  187.7750  178.9790  141.7260 C   0  0  1  0  0  3  0  0  0  0  0  0
  187.8870  176.6160  141.9650 C   0  0  0  0  0  2  0  0  0  0  0  0
  188.3760  178.2660  143.8440 C   0  0  2  0  0  3  0  0  0  0  0  0
  190.8600  178.0480  143.5430 C   0  0  2  0  0  3  0  0  0  0  0  0
  185.9590  177.8730  143.1040 C   0  0  0  0  0  1  0  0  0  0  0  0
  189.6100  178.8040  143.0980 C   0  0  1  0  0  3  0  0  0  0  0  0
  190.5720  177.4620  144.9130 C   0  0  2  0  0  3  0  0  0  0  0  0
  191.4820  176.3590  145.1900 N   0  0  0  0  0  2  0  0  0  0  0  0
  192.0540  176.6050  146.3890 O   0  0  0  0  0  1  0  0  0  0  0  0
  191.7310  180.1230  144.3450 O   0  0  0  0  0  1  0  0  0  0  0  0
  192.0570  178.9850  143.6110 C   0  0  0  0  0  2  0  0  0  0  0  0
  187.0670  178.2370  135.1170 C   0  0  0  0  0  1  0  0  0  0  0  0
  186.3600  177.8380  136.4030 C   0  0  0  0  0  2  0  0  0  0  0  0
  1  2  1  0  0  0  0
  3 38  1  1  0  0  0
  3  5  1  0  0  0  0
  3 16  1  0  0  0  0
  4 18  1  0  0  0  0
  4 15  1  0  0  0  0
  8 19  2  0  0  0  0
 10  2  1  6  0  0  0
 10 20  1  0  0  0  0
 10 11  1  0  0  0  0
 12 13  1  6  0  0  0
 12 14  1  0  0  0  0
 12  6  1  0  0  0  0
 14  7  1  6  0  0  0
 14  5  1  0  0  0  0
 16  9  1  0  0  0  0
 17  1  1  1  0  0  0
 17 15  1  0  0  0  0
 17  8  1  0  0  0  0
 18  6  1  0  0  0  0
 19 10  1  0  0  0  0
 19 11  1  0  0  0  0
 20  9  1  6  0  0  0
 20 24  1  0  0  0  0
 21 32  1  0  0  0  0
 22 26  1  0  0  0  0
 22 31  1  0  0  0  0
 23 26  1  0  0  0  0
 24 22  1  0  0  0  0
 24 27  1  0  0  0  0
 25 30  1  0  0  0  0
 25 28  1  0  0  0  0
 26 25  1  0  0  0  0
 27 25  1  0  0  0  0
 28 21  1  0  0  0  0
 29 36  1  0  0  0  0
 29 32  1  0  0  0  0
 31 29  1  0  0  0  0
 31 28  1  0  0  0  0
 32 33  1  0  0  0  0
 33 34  1  0  0  0  0
 36 35  1  0  0  0  0
 37 38  1  0  0  0  0
M  END
>  <MODEL>
6

>  <REMARK>
 VINA RESULT:      -3.8      3.771      8.553
  Name = 
  4 active torsions:
  status: ('A' for Active; 'I' for Inactive)
    1  A    between atoms: N_3  and  C_37
    2  A    between atoms: C_7  and  C_28
    3  A    between atoms: C_16  and  C_38
    4  A    between atoms: C_23  and  C_36
                            x       y       z     vdW  Elec       q    Type
                         _______ _______ _______ _____ _____    ______ ____

>  <TORSDO>
F 4

$$$$
=
 OpenBabel11062413013D

 38 43  0  0  1  0  0  0  0  0999 V2000
  189.4420  175.1620  134.5950 C   0  0  0  0  0  2  0  0  0  0  0  0
  189.6170  176.5270  135.3800 C   0  0  0  0  0  2  0  0  0  0  0  0
  186.0090  174.9210  135.9630 C   0  0  2  0  0  3  0  0  0  0  0  0
  189.0140  172.1170  134.7960 C   0  0  0  0  0  2  0  0  0  0  0  0
  185.3180  173.8710  136.8450 C   0  0  0  0  0  2  0  0  0  0  0  0
  187.0640  171.4830  136.2570 C   0  0  0  0  0  2  0  0  0  0  0  0
  183.8010  173.0050  135.1890 O   0  0  0  0  0  1  0  0  0  0  0  0
  191.5300  174.4780  135.8690 N   0  0  0  0  0  0  0  0  0  0  0  0
  188.0140  174.9330  137.4830 C   0  0  0  0  0  2  0  0  0  0  0  0
  190.1390  176.3380  136.8260 C   0  0  2  0  0  0  0  0  0  0  0  0
  191.3510  176.7980  137.2820 O   0  0  0  0  0  0  0  0  0  0  0  0
  185.9630  171.9420  135.2990 C   0  0  1  0  0  3  0  0  0  0  0  0
  185.4250  170.7890  134.5940 N   0  0  0  0  0  1  0  0  0  0  0  0
  184.8350  172.6470  136.0600 C   0  0  1  0  0  3  0  0  0  0  0  0
  189.6800  172.9630  135.7760 N   0  0  0  0  0  2  0  0  0  0  0  0
  186.9710  175.7880  136.7740 C   0  0  0  0  0  2  0  0  0  0  0  0
  190.4140  173.9910  135.0460 C   0  0  1  0  0  3  0  0  0  0  0  0
  188.2910  170.9810  135.5000 C   0  0  0  0  0  2  0  0  0  0  0  0
  191.1970  175.5300  136.5190 C   0  0  0  0  0  0  0  0  0  0  0  0
  189.2540  175.7190  137.9250 C   0  0  1  0  0  3  0  0  0  0  0  0
  188.8060  177.0600  142.6900 S   0  0  0  0  0  0  0  0  0  0  0  0
  189.7940  177.9900  139.1920 C   0  0  1  0  0  3  0  0  0  0  0  0
  187.9010  178.9500  137.9950 O   0  0  0  0  0  1  0  0  0  0  0  0
  189.1320  176.5940  139.1820 C   0  0  1  0  0  3  0  0  0  0  0  0
  187.8630  178.2420  140.3010 C   0  0  1  0  0  0  0  0  0  0  0  0
  188.6080  178.9390  139.1990 C   0  0  1  0  0  3  0  0  0  0  0  0
  187.7440  176.8020  139.7790 C   0  0  0  0  0  2  0  0  0  0  0  0
  188.9160  178.3610  141.4180 C   0  0  2  0  0  3  0  0  0  0  0  0
  191.0820  177.1010  141.2440 C   0  0  2  0  0  3  0  0  0  0  0  0
  186.5340  178.8910  140.6530 C   0  0  0  0  0  1  0  0  0  0  0  0
  190.2430  178.2300  140.6490 C   0  0  1  0  0  3  0  0  0  0  0  0
  190.6140  176.8930  142.6730 C   0  0  2  0  0  3  0  0  0  0  0  0
  190.9970  175.5680  143.1390 N   0  0  0  0  0  2  0  0  0  0  0  0
  191.5260  175.7170  144.3730 O   0  0  0  0  0  1  0  0  0  0  0  0
  193.0610  177.3450  139.9270 O   0  0  0  0  0  1  0  0  0  0  0  0
  192.5600  177.4640  141.2210 C   0  0  0  0  0  2  0  0  0  0  0  0
  184.4080  176.8920  136.0880 C   0  0  0  0  0  1  0  0  0  0  0  0
  184.9960  175.7930  135.2150 C   0  0  0  0  0  2  0  0  0  0  0  0
  1  2  1  0  0  0  0
  3 38  1  1  0  0  0
  3 16  1  0  0  0  0
  3  5  1  0  0  0  0
  4 18  1  0  0  0  0
  4 15  1  0  0  0  0
  8 19  2  0  0  0  0
 10  2  1  6  0  0  0
 10 11  1  0  0  0  0
 10 20  1  0  0  0  0
 12 13  1  1  0  0  0
 12 14  1  0  0  0  0
 12  6  1  0  0  0  0
 14  7  1  6  0  0  0
 14  5  1  0  0  0  0
 16  9  1  0  0  0  0
 17  1  1  1  0  0  0
 17 15  1  0  0  0  0
 17  8  1  0  0  0  0
 18  6  1  0  0  0  0
 19 10  1  0  0  0  0
 19 11  1  0  0  0  0
 20  9  1  6  0  0  0
 20 24  1  0  0  0  0
 22 26  1  0  0  0  0
 22 31  1  0  0  0  0
 23 26  1  0  0  0  0
 24 22  1  0  0  0  0
 24 27  1  0  0  0  0
 25 30  1  0  0  0  0
 25 28  1  0  0  0  0
 26 25  1  0  0  0  0
 27 25  1  0  0  0  0
 28 21  1  0  0  0  0
 29 32  1  0  0  0  0
 31 29  1  0  0  0  0
 31 28  1  0  0  0  0
 32 21  1  0  0  0  0
 32 33  1  0  0  0  0
 33 34  1  0  0  0  0
 35 36  1  0  0  0  0
 36 29  1  0  0  0  0
 38 37  1  0  0  0  0
M  END
>  <MODEL>
7

>  <REMARK>
 VINA RESULT:      -3.7      3.072      8.109
  Name = 
  4 active torsions:
  status: ('A' for Active; 'I' for Inactive)
    1  A    between atoms: N_3  and  C_37
    2  A    between atoms: C_7  and  C_28
    3  A    between atoms: C_16  and  C_38
    4  A    between atoms: C_23  and  C_36
                            x       y       z     vdW  Elec       q    Type
                         _______ _______ _______ _____ _____    ______ ____

>  <TORSDO>
F 4

$$$$
=
 OpenBabel11062413013D

 38 43  0  0  1  0  0  0  0  0999 V2000
  182.3700  178.1190  139.9130 C   0  0  0  0  0  2  0  0  0  0  0  0
  183.5840  177.1140  140.0770 C   0  0  0  0  0  2  0  0  0  0  0  0
  181.8150  176.7500  136.5170 C   0  0  2  0  0  3  0  0  0  0  0  0
  181.2270  180.5430  138.3930 C   0  0  0  0  0  2  0  0  0  0  0  0
  181.8300  177.3990  135.1250 C   0  0  0  0  0  2  0  0  0  0  0  0
  181.2840  180.2640  135.8910 C   0  0  0  0  0  2  0  0  0  0  0  0
  179.4760  177.2120  134.6560 O   0  0  0  0  0  1  0  0  0  0  0  0
  184.1110  179.8840  140.4660 N   0  0  0  0  0  0  0  0  0  0  0  0
  183.9710  177.9000  137.1160 C   0  0  0  0  0  2  0  0  0  0  0  0
  184.9260  177.6870  139.5580 C   0  0  2  0  0  0  0  0  0  0  0  0
  186.0190  177.9450  140.3500 O   0  0  0  0  0  0  0  0  0  0  0  0
  180.1700  179.2190  135.8000 C   0  0  1  0  0  3  0  0  0  0  0  0
  178.9320  179.8680  135.3990 N   0  0  0  0  0  1  0  0  0  0  0  0
  180.5260  178.1270  134.7850 C   0  0  1  0  0  3  0  0  0  0  0  0
  182.6340  180.2500  138.6190 N   0  0  0  0  0  2  0  0  0  0  0  0
  183.2290  176.5700  137.0660 C   0  0  0  0  0  2  0  0  0  0  0  0
  182.7540  179.6580  139.9470 C   0  0  1  0  0  3  0  0  0  0  0  0
  181.0510  181.2310  137.0490 C   0  0  0  0  0  2  0  0  0  0  0  0
  184.8690  178.8800  140.2230 C   0  0  0  0  0  0  0  0  0  0  0  0
  185.1850  177.8910  138.0530 C   0  0  1  0  0  3  0  0  0  0  0  0
  188.8550  174.5770  137.5540 S   0  0  0  0  0  0  0  0  0  0  0  0
  186.9160  177.4360  136.0910 C   0  0  1  0  0  3  0  0  0  0  0  0
  187.9450  179.5630  136.6890 O   0  0  0  0  0  1  0  0  0  0  0  0
  186.4660  177.2080  137.5510 C   0  0  1  0  0  3  0  0  0  0  0  0
  188.8070  177.3910  137.2940 C   0  0  1  0  0  0  0  0  0  0  0  0
  188.1820  178.2620  136.2400 C   0  0  1  0  0  3  0  0  0  0  0  0
  187.7320  177.3520  138.3900 C   0  0  0  0  0  2  0  0  0  0  0  0
  188.8710  176.0690  136.5070 C   0  0  2  0  0  3  0  0  0  0  0  0
  186.7520  174.8680  135.8900 C   0  0  2  0  0  3  0  0  0  0  0  0
  190.1670  177.8780  137.7680 C   0  0  0  0  0  1  0  0  0  0  0  0
  187.5930  176.1210  135.6510 C   0  0  1  0  0  3  0  0  0  0  0  0
  187.6850  173.7890  136.4100 C   0  0  2  0  0  3  0  0  0  0  0  0
  186.9250  172.7600  137.1050 N   0  0  0  0  0  2  0  0  0  0  0  0
  185.9790  173.3890  137.8370 O   0  0  0  0  0  1  0  0  0  0  0  0
  184.7190  174.2550  134.7950 O   0  0  0  0  0  1  0  0  0  0  0  0
  186.0890  174.4140  134.5980 C   0  0  0  0  0  2  0  0  0  0  0  0
  181.6040  174.4350  137.5440 C   0  0  0  0  0  1  0  0  0  0  0  0
  181.0620  175.4160  136.5160 C   0  0  0  0  0  2  0  0  0  0  0  0
  1  2  1  0  0  0  0
  3 38  1  6  0  0  0
  3 16  1  0  0  0  0
  4 15  1  0  0  0  0
  5  3  1  0  0  0  0
  6 18  1  0  0  0  0
 10  2  1  1  0  0  0
 10 19  1  0  0  0  0
 10 11  1  0  0  0  0
 12 13  1  6  0  0  0
 12  6  1  0  0  0  0
 14  7  1  1  0  0  0
 14  5  1  0  0  0  0
 14 12  1  0  0  0  0
 15 17  1  0  0  0  0
 16  9  1  0  0  0  0
 17  1  1  6  0  0  0
 17  8  1  0  0  0  0
 18  4  1  0  0  0  0
 19 11  1  0  0  0  0
 19  8  2  0  0  0  0
 20  9  1  6  0  0  0
 20 10  1  0  0  0  0
 22 26  1  0  0  0  0
 22 24  1  0  0  0  0
 24 20  1  0  0  0  0
 24 27  1  0  0  0  0
 25 30  1  0  0  0  0
 25 27  1  0  0  0  0
 26 23  1  0  0  0  0
 26 25  1  0  0  0  0
 28 25  1  0  0  0  0
 28 21  1  0  0  0  0
 29 32  1  0  0  0  0
 31 29  1  0  0  0  0
 31 22  1  0  0  0  0
 31 28  1  0  0  0  0
 32 33  1  0  0  0  0
 32 21  1  0  0  0  0
 33 34  1  0  0  0  0
 36 35  1  0  0  0  0
 36 29  1  0  0  0  0
 38 37  1  0  0  0  0
M  END
>  <MODEL>
8

>  <REMARK>
 VINA RESULT:      -3.2      3.448      7.316
  Name = 
  4 active torsions:
  status: ('A' for Active; 'I' for Inactive)
    1  A    between atoms: N_3  and  C_37
    2  A    between atoms: C_7  and  C_28
    3  A    between atoms: C_16  and  C_38
    4  A    between atoms: C_23  and  C_36
                            x       y       z     vdW  Elec       q    Type
                         _______ _______ _______ _____ _____    ______ ____

>  <TORSDO>
F 4

$$$$
=
 OpenBabel11062413013D

 38 43  0  0  1  0  0  0  0  0999 V2000
  185.6960  180.1330  144.5540 C   0  0  0  0  0  2  0  0  0  0  0  0
  184.5970  180.5260  143.4830 C   0  0  0  0  0  2  0  0  0  0  0  0
  187.6560  178.5650  141.8320 C   0  0  2  0  0  3  0  0  0  0  0  0
  187.1620  177.8510  146.0150 C   0  0  0  0  0  2  0  0  0  0  0  0
  188.1470  177.1270  141.6060 C   0  0  0  0  0  2  0  0  0  0  0  0
  188.1250  176.1280  144.4520 C   0  0  0  0  0  2  0  0  0  0  0  0
  190.5000  177.5380  141.9060 O   0  0  0  0  0  1  0  0  0  0  0  0
  183.7500  179.0060  145.7350 N   0  0  0  0  0  0  0  0  0  0  0  0
  185.3600  177.7270  142.4250 C   0  0  0  0  0  2  0  0  0  0  0  0
  183.5320  179.4220  143.2670 C   0  0  2  0  0  0  0  0  0  0  0  0
  182.1980  179.5580  143.5680 O   0  0  0  0  0  0  0  0  0  0  0  0
  189.2590  176.9960  143.9030 C   0  0  1  0  0  3  0  0  0  0  0  0
  190.5020  176.6460  144.5730 N   0  0  0  0  0  1  0  0  0  0  0  0
  189.4200  176.7940  142.3920 C   0  0  1  0  0  3  0  0  0  0  0  0
  185.8070  177.8080  145.4860 N   0  0  0  0  0  2  0  0  0  0  0  0
  186.1590  178.6940  141.5610 C   0  0  0  0  0  2  0  0  0  0  0  0
  185.2140  179.1270  145.6820 C   0  0  1  0  0  3  0  0  0  0  0  0
  187.8050  176.4780  145.9020 C   0  0  0  0  0  2  0  0  0  0  0  0
  183.2300  179.2180  144.5840 C   0  0  0  0  0  0  0  0  0  0  0  0
  183.8780  178.1000  142.5550 C   0  0  1  0  0  3  0  0  0  0  0  0
  180.8460  175.6220  139.4940 S   0  0  0  0  0  0  0  0  0  0  0  0
  182.1360  178.9220  140.7270 C   0  0  1  0  0  3  0  0  0  0  0  0
  184.0590  179.6350  139.4110 O   0  0  0  0  0  1  0  0  0  0  0  0
  182.9580  177.7810  141.3670 C   0  0  1  0  0  3  0  0  0  0  0  0
  182.7810  177.6260  139.0160 C   0  0  1  0  0  0  0  0  0  0  0  0
  182.7750  179.0890  139.3590 C   0  0  1  0  0  3  0  0  0  0  0  0
  183.5430  177.0000  140.1950 C   0  0  0  0  0  2  0  0  0  0  0  0
  181.2690  177.3510  139.1010 C   0  0  2  0  0  3  0  0  0  0  0  0
  180.0920  177.4610  141.3180 C   0  0  2  0  0  3  0  0  0  0  0  0
  183.3760  177.3160  137.6520 C   0  0  0  0  0  1  0  0  0  0  0  0
  180.8190  178.2740  140.2490 C   0  0  1  0  0  3  0  0  0  0  0  0
  179.5720  176.1990  140.6530 C   0  0  2  0  0  3  0  0  0  0  0  0
  179.3080  175.1760  141.6540 N   0  0  0  0  0  2  0  0  0  0  0  0
  179.6010  173.9830  141.0910 O   0  0  0  0  0  1  0  0  0  0  0  0
  179.2500  179.6180  141.9040 O   0  0  0  0  0  1  0  0  0  0  0  0
  178.9390  178.2610  141.9060 C   0  0  0  0  0  2  0  0  0  0  0  0
  188.8800  179.0120  139.6490 C   0  0  0  0  0  1  0  0  0  0  0  0
  188.4460  179.5750  140.9940 C   0  0  0  0  0  2  0  0  0  0  0  0
  2  1  1  0  0  0  0
  3 38  1  6  0  0  0
  5  3  1  0  0  0  0
  5 14  1  0  0  0  0
  6 18  1  0  0  0  0
 10  2  1  6  0  0  0
 10 11  1  0  0  0  0
 10 19  1  0  0  0  0
 11 19  1  0  0  0  0
 12  6  1  0  0  0  0
 12 13  1  1  0  0  0
 14  7  1  6  0  0  0
 14 12  1  0  0  0  0
 15 17  1  0  0  0  0
 15  4  1  0  0  0  0
 16  3  1  0  0  0  0
 16  9  1  0  0  0  0
 17  1  1  6  0  0  0
 17  8  1  0  0  0  0
 18  4  1  0  0  0  0
 19  8  2  0  0  0  0
 20  9  1  6  0  0  0
 20 10  1  0  0  0  0
 21 32  1  0  0  0  0
 22 24  1  0  0  0  0
 24 20  1  0  0  0  0
 25 28  1  0  0  0  0
 25 26  1  0  0  0  0
 25 27  1  0  0  0  0
 26 23  1  0  0  0  0
 26 22  1  0  0  0  0
 27 24  1  0  0  0  0
 28 21  1  0  0  0  0
 28 31  1  0  0  0  0
 29 36  1  0  0  0  0
 30 25  1  0  0  0  0
 31 22  1  0  0  0  0
 31 29  1  0  0  0  0
 32 29  1  0  0  0  0
 32 33  1  0  0  0  0
 34 33  1  0  0  0  0
 35 36  1  0  0  0  0
 37 38  1  0  0  0  0
M  END
>  <MODEL>
9

>  <REMARK>
 VINA RESULT:      -3.1      5.186      6.949
  Name = 
  4 active torsions:
  status: ('A' for Active; 'I' for Inactive)
    1  A    between atoms: N_3  and  C_37
    2  A    between atoms: C_7  and  C_28
    3  A    between atoms: C_16  and  C_38
    4  A    between atoms: C_23  and  C_36
                            x       y       z     vdW  Elec       q    Type
                         _______ _______ _______ _____ _____    ______ ____

>  <TORSDO>
F 4

$$$$
