=
 OpenBabel11062414593D

 31 33  0  0  1  0  0  0  0  0999 V2000
  184.9490  180.0420  142.8560 C   0  0  0  0  0  2  0  0  0  0  0  0
  185.4500  179.7500  144.2810 C   0  0  0  0  0  2  0  0  0  0  0  0
  186.0550  178.0910  141.5230 C   0  0  2  0  0  3  0  0  0  0  0  0
  183.6620  178.2860  141.6920 N   0  0  0  0  0  0  0  0  0  0  0  0
  188.4000  177.7160  141.9010 O   0  0  0  0  0  1  0  0  0  0  0  0
  184.8180  178.8140  141.9810 C   0  0  0  0  0  0  0  0  0  0  0  0
  187.2660  178.3210  142.4440 C   0  0  2  0  0  3  0  0  0  0  0  0
  187.0570  177.8000  143.8730 C   0  0  0  0  0  2  0  0  0  0  0  0
  186.3620  178.4850  140.2190 O   0  0  0  0  0  1  0  0  0  0  0  0
  185.7540  178.2710  144.5300 C   0  0  1  0  0  3  0  0  0  0  0  0
  180.3350  179.5150  142.0860 C   0  0  0  0  0  0  0  0  0  0  0  0
  182.0080  178.8550  143.5680 C   0  0  0  0  0  2  0  0  0  0  0  0
  180.5790  179.3920  143.5440 C   0  0  2  0  0  3  0  0  0  0  0  0
  181.4360  179.1010  141.3040 N   0  0  0  0  0  0  0  0  0  0  0  0
  179.6410  178.3620  144.1440 C   0  0  0  0  0  1  0  0  0  0  0  0
  182.3620  178.7220  142.1180 C   0  0  0  0  0  0  0  0  0  0  0  0
  179.2740  179.9660  141.5810 O   0  0  0  0  0  0  0  0  0  0  0  0
  184.5800  177.6130  146.6050 F   0  0  0  0  0  0  0  0  0  0  0  0
  185.7360  177.9620  145.9850 C   0  0  0  0  0  0  0  0  0  0  0  0
  188.0280  177.7160  147.1970 C   0  0  0  0  0  3  0  0  0  0  0  0
  186.8710  177.8450  146.6140 C   0  0  0  0  0  0  0  0  0  0  0  0
  191.6440  176.6000  146.8080 C   0  0  1  0  0  3  0  0  0  0  0  0
  191.6040  176.3540  145.2980 C   0  0  0  0  0  2  0  0  0  0  0  0
  189.7250  178.1020  145.4370 C   0  0  0  0  0  2  0  0  0  0  0  0
  189.1550  177.1060  146.4420 C   0  0  1  0  0  3  0  0  0  0  0  0
  190.7980  177.4380  144.5630 C   0  0  1  0  0  3  0  0  0  0  0  0
  190.2330  176.6090  147.4140 C   0  0  0  0  0  2  0  0  0  0  0  0
  191.6610  178.4130  144.0610 O   0  0  0  0  0  0  0  0  0  0  0  0
  190.8890  179.5740  143.9970 C   0  0  0  0  0  1  0  0  0  0  0  0
  193.1400  176.0920  148.5960 O   0  0  0  0  0  1  0  0  0  0  0  0
  192.4830  175.5410  147.4950 C   0  0  0  0  0  2  0  0  0  0  0  0
  1  2  1  0  0  0  0
  2 10  1  0  0  0  0
  3  9  1  6  0  0  0
  3  6  1  0  0  0  0
  3  7  1  0  0  0  0
  4  6  2  0  0  0  0
  4 16  1  0  0  0  0
  6  1  1  0  0  0  0
  7  5  1  6  0  0  0
  7  8  1  0  0  0  0
  8 10  1  0  0  0  0
 10 19  1  1  0  0  0
 11 13  1  0  0  0  0
 13 12  1  0  0  0  0
 13 15  1  6  0  0  0
 14 11  1  0  0  0  0
 14 16  2  0  0  0  0
 16 12  1  0  0  0  0
 17 11  2  0  0  0  0
 19 18  1  0  0  0  0
 19 21  2  0  0  0  0
 21 20  2  0  0  0  0
 22 27  1  0  0  0  0
 22 31  1  1  0  0  0
 23 22  1  0  0  0  0
 24 25  1  0  0  0  0
 25 20  1  1  0  0  0
 25 27  1  0  0  0  0
 26 28  1  1  0  0  0
 26 23  1  0  0  0  0
 26 24  1  0  0  0  0
 29 28  1  0  0  0  0
 31 30  1  0  0  0  0
M  END
>  <MODEL>
1

>  <REMARK>
 VINA RESULT:      -9.2      0.000      0.000
  Name = 
  5 active torsions:
  status: ('A' for Active; 'I' for Inactive)
    1  A    between atoms: C_3  and  C_20
    2  A    between atoms: C_5  and  C_31
    3  A    between atoms: O_7  and  C_25
    4  A    between atoms: C_8  and  C_24
    5  A    between atoms: C_18  and  N_19
                            x       y       z     vdW  Elec       q    Type
                         _______ _______ _______ _____ _____    ______ ____

>  <TORSDO>
F 5

$$$$
=
 OpenBabel11062414593D

 31 33  0  0  1  0  0  0  0  0999 V2000
  188.1530  176.4210  143.2970 C   0  0  0  0  0  2  0  0  0  0  0  0
  186.6880  176.8540  143.4810 C   0  0  0  0  0  2  0  0  0  0  0  0
  189.0000  178.2140  141.6010 C   0  0  2  0  0  3  0  0  0  0  0  0
  189.9250  178.0590  143.8180 N   0  0  0  0  0  0  0  0  0  0  0  0
  187.6280  178.6050  139.6650 O   0  0  0  0  0  1  0  0  0  0  0  0
  189.0950  177.5530  142.9490 C   0  0  0  0  0  0  0  0  0  0  0  0
  187.6120  178.0700  140.9540 C   0  0  2  0  0  3  0  0  0  0  0  0
  186.4870  178.7380  141.7590 C   0  0  0  0  0  2  0  0  0  0  0  0
  189.9800  177.6840  140.7590 O   0  0  0  0  0  1  0  0  0  0  0  0
  186.4590  178.3490  143.2410 C   0  0  1  0  0  3  0  0  0  0  0  0
  191.0080  176.9650  147.0380 C   0  0  0  0  0  0  0  0  0  0  0  0
  188.9480  177.5850  146.1410 C   0  0  0  0  0  2  0  0  0  0  0  0
  189.5880  177.1030  147.4420 C   0  0  2  0  0  3  0  0  0  0  0  0
  191.2370  177.3240  145.6910 N   0  0  0  0  0  0  0  0  0  0  0  0
  189.4500  178.1790  148.5020 C   0  0  0  0  0  1  0  0  0  0  0  0
  190.1030  177.6810  145.1920 C   0  0  0  0  0  0  0  0  0  0  0  0
  191.9220  176.5480  147.7950 O   0  0  0  0  0  0  0  0  0  0  0  0
  185.2500  179.5140  145.0580 F   0  0  0  0  0  0  0  0  0  0  0  0
  185.2060  178.8070  143.9000 C   0  0  0  0  0  0  0  0  0  0  0  0
  182.9830  178.5670  142.5660 C   0  0  0  0  0  3  0  0  0  0  0  0
  184.0810  178.6860  143.2550 C   0  0  0  0  0  0  0  0  0  0  0  0
  181.3670  179.0440  139.1540 C   0  0  1  0  0  3  0  0  0  0  0  0
  182.6280  178.8250  138.3160 C   0  0  0  0  0  2  0  0  0  0  0  0
  183.3150  177.4560  140.3800 C   0  0  0  0  0  2  0  0  0  0  0  0
  183.0260  178.7720  141.0930 C   0  0  1  0  0  3  0  0  0  0  0  0
  183.4940  177.6830  138.8720 C   0  0  1  0  0  3  0  0  0  0  0  0
  181.7120  179.3980  140.6080 C   0  0  0  0  0  2  0  0  0  0  0  0
  183.2160  176.5000  138.1850 O   0  0  0  0  0  0  0  0  0  0  0  0
  182.6330  175.6620  139.1370 C   0  0  0  0  0  1  0  0  0  0  0  0
  180.4740  181.2410  139.4170 O   0  0  0  0  0  1  0  0  0  0  0  0
  180.5150  180.1450  138.5540 C   0  0  0  0  0  2  0  0  0  0  0  0
  1  2  1  0  0  0  0
  3  9  1  6  0  0  0
  3  6  1  0  0  0  0
  4 16  1  0  0  0  0
  6  1  1  0  0  0  0
  6  4  2  0  0  0  0
  7  5  1  6  0  0  0
  7  3  1  0  0  0  0
  7  8  1  0  0  0  0
  8 10  1  0  0  0  0
 10  2  1  0  0  0  0
 10 19  1  6  0  0  0
 11 13  1  0  0  0  0
 11 17  2  0  0  0  0
 12 13  1  0  0  0  0
 13 15  1  1  0  0  0
 14 11  1  0  0  0  0
 16 14  2  0  0  0  0
 16 12  1  0  0  0  0
 19 18  1  0  0  0  0
 20 21  2  0  0  0  0
 21 19  2  0  0  0  0
 22 31  1  6  0  0  0
 22 27  1  0  0  0  0
 23 26  1  0  0  0  0
 23 22  1  0  0  0  0
 24 25  1  0  0  0  0
 25 20  1  1  0  0  0
 26 28  1  6  0  0  0
 26 24  1  0  0  0  0
 27 25  1  0  0  0  0
 28 29  1  0  0  0  0
 31 30  1  0  0  0  0
M  END
>  <MODEL>
2

>  <REMARK>
 VINA RESULT:      -9.1      2.914      8.837
  Name = 
  5 active torsions:
  status: ('A' for Active; 'I' for Inactive)
    1  A    between atoms: C_3  and  C_20
    2  A    between atoms: C_5  and  C_31
    3  A    between atoms: O_7  and  C_25
    4  A    between atoms: C_8  and  C_24
    5  A    between atoms: C_18  and  N_19
                            x       y       z     vdW  Elec       q    Type
                         _______ _______ _______ _____ _____    ______ ____

>  <TORSDO>
F 5

$$$$
=
 OpenBabel11062414593D

 31 33  0  0  1  0  0  0  0  0999 V2000
  187.6040  176.5800  143.3490 C   0  0  0  0  0  2  0  0  0  0  0  0
  186.1950  177.1600  143.5640 C   0  0  0  0  0  2  0  0  0  0  0  0
  188.5760  178.2550  141.6000 C   0  0  2  0  0  3  0  0  0  0  0  0
  189.5430  178.0410  143.7930 N   0  0  0  0  0  0  0  0  0  0  0  0
  187.1950  178.7510  139.6950 O   0  0  0  0  0  1  0  0  0  0  0  0
  188.6430  177.6080  142.9560 C   0  0  0  0  0  0  0  0  0  0  0  0
  187.1630  178.2400  140.9930 C   0  0  2  0  0  3  0  0  0  0  0  0
  186.1330  179.0290  141.8150 C   0  0  0  0  0  2  0  0  0  0  0  0
  189.4750  177.6170  140.7410 O   0  0  0  0  0  1  0  0  0  0  0  0
  186.1080  178.6670  143.3050 C   0  0  1  0  0  3  0  0  0  0  0  0
  190.6020  176.8910  147.0020 C   0  0  0  0  0  0  0  0  0  0  0  0
  188.5930  177.7090  146.1520 C   0  0  0  0  0  2  0  0  0  0  0  0
  189.2170  177.1830  147.4420 C   0  0  2  0  0  3  0  0  0  0  0  0
  190.8270  177.2020  145.6420 N   0  0  0  0  0  0  0  0  0  0  0  0
  189.2240  178.2830  148.4860 C   0  0  0  0  0  1  0  0  0  0  0  0
  189.7220  177.6680  145.1680 C   0  0  0  0  0  0  0  0  0  0  0  0
  191.4910  176.3910  147.7400 O   0  0  0  0  0  0  0  0  0  0  0  0
  185.0690  180.3060  144.8380 F   0  0  0  0  0  0  0  0  0  0  0  0
  184.9260  179.2570  143.9890 C   0  0  0  0  0  0  0  0  0  0  0  0
  182.5660  178.4910  143.1990 C   0  0  0  0  0  3  0  0  0  0  0  0
  183.7360  178.8800  143.6170 C   0  0  0  0  0  0  0  0  0  0  0  0
  182.1150  179.5180  139.5630 C   0  0  1  0  0  3  0  0  0  0  0  0
  181.6850  178.1490  139.0330 C   0  0  0  0  0  2  0  0  0  0  0  0
  180.9150  177.8590  141.4680 C   0  0  0  0  0  2  0  0  0  0  0  0
  182.3730  178.2030  141.7520 C   0  0  1  0  0  3  0  0  0  0  0  0
  180.7330  177.4310  140.0040 C   0  0  1  0  0  3  0  0  0  0  0  0
  182.8430  179.3960  140.9100 C   0  0  0  0  0  2  0  0  0  0  0  0
  179.4090  177.6430  139.6160 O   0  0  0  0  0  0  0  0  0  0  0  0
  178.9900  176.4200  139.0910 C   0  0  0  0  0  1  0  0  0  0  0  0
  184.3110  180.3070  139.0680 O   0  0  0  0  0  1  0  0  0  0  0  0
  183.0140  180.2160  138.5630 C   0  0  0  0  0  2  0  0  0  0  0  0
  1  2  1  0  0  0  0
  3  9  1  6  0  0  0
  3  6  1  0  0  0  0
  4 16  1  0  0  0  0
  6  1  1  0  0  0  0
  6  4  2  0  0  0  0
  7  5  1  6  0  0  0
  7  3  1  0  0  0  0
  7  8  1  0  0  0  0
  8 10  1  0  0  0  0
 10  2  1  0  0  0  0
 10 19  1  6  0  0  0
 11 13  1  0  0  0  0
 11 17  2  0  0  0  0
 12 13  1  0  0  0  0
 13 15  1  1  0  0  0
 14 11  1  0  0  0  0
 16 14  2  0  0  0  0
 16 12  1  0  0  0  0
 19 18  1  0  0  0  0
 20 21  2  0  0  0  0
 21 19  2  0  0  0  0
 22 31  1  6  0  0  0
 22 27  1  0  0  0  0
 23 22  1  0  0  0  0
 23 26  1  0  0  0  0
 24 25  1  0  0  0  0
 25 20  1  1  0  0  0
 26 28  1  6  0  0  0
 26 24  1  0  0  0  0
 27 25  1  0  0  0  0
 29 28  1  0  0  0  0
 31 30  1  0  0  0  0
M  END
>  <MODEL>
3

>  <REMARK>
 VINA RESULT:      -8.5      2.744      8.754
  Name = 
  5 active torsions:
  status: ('A' for Active; 'I' for Inactive)
    1  A    between atoms: C_3  and  C_20
    2  A    between atoms: C_5  and  C_31
    3  A    between atoms: O_7  and  C_25
    4  A    between atoms: C_8  and  C_24
    5  A    between atoms: C_18  and  N_19
                            x       y       z     vdW  Elec       q    Type
                         _______ _______ _______ _____ _____    ______ ____

>  <TORSDO>
F 5

$$$$
=
 OpenBabel11062414593D

 31 33  0  0  1  0  0  0  0  0999 V2000
  182.9610  179.7840  138.7300 C   0  0  0  0  0  2  0  0  0  0  0  0
  182.8500  179.5690  140.2500 C   0  0  0  0  0  2  0  0  0  0  0  0
  182.1020  177.4890  137.8330 C   0  0  2  0  0  3  0  0  0  0  0  0
  180.9170  179.5320  137.3680 N   0  0  0  0  0  0  0  0  0  0  0  0
  183.0550  175.5150  138.8230 O   0  0  0  0  0  1  0  0  0  0  0  0
  181.9650  178.9850  137.9180 C   0  0  0  0  0  0  0  0  0  0  0  0
  182.8680  176.8840  139.0220 C   0  0  2  0  0  3  0  0  0  0  0  0
  182.1740  177.1020  140.3750 C   0  0  0  0  0  2  0  0  0  0  0  0
  182.7330  177.1520  136.6330 O   0  0  0  0  0  1  0  0  0  0  0  0
  181.7720  178.5570  140.6470 C   0  0  1  0  0  3  0  0  0  0  0  0
  179.5820  182.7660  138.0730 C   0  0  0  0  0  0  0  0  0  0  0  0
  180.7450  181.8450  136.2750 C   0  0  0  0  0  2  0  0  0  0  0  0
  180.1100  183.1530  136.7430 C   0  0  2  0  0  3  0  0  0  0  0  0
  179.8560  181.4200  138.4060 N   0  0  0  0  0  0  0  0  0  0  0  0
  181.1880  184.2110  136.8980 C   0  0  0  0  0  1  0  0  0  0  0  0
  180.5110  180.9080  137.4200 C   0  0  0  0  0  0  0  0  0  0  0  0
  178.9310  183.5340  138.8280 O   0  0  0  0  0  0  0  0  0  0  0  0
  180.0700  178.5410  142.4410 F   0  0  0  0  0  0  0  0  0  0  0  0
  181.3560  178.7500  142.0620 C   0  0  0  0  0  0  0  0  0  0  0  0
  183.2310  179.0970  143.8350 C   0  0  0  0  0  3  0  0  0  0  0  0
  182.2770  178.9360  142.9640 C   0  0  0  0  0  0  0  0  0  0  0  0
  186.8000  178.1980  144.8000 C   0  0  1  0  0  3  0  0  0  0  0  0
  187.1620  177.4560  143.5120 C   0  0  0  0  0  2  0  0  0  0  0  0
  185.3440  178.9980  142.5510 C   0  0  0  0  0  2  0  0  0  0  0  0
  184.5090  178.3570  143.6550 C   0  0  1  0  0  3  0  0  0  0  0  0
  186.6010  178.1630  142.2670 C   0  0  1  0  0  3  0  0  0  0  0  0
  185.2780  178.3010  144.9810 C   0  0  0  0  0  2  0  0  0  0  0  0
  187.5830  178.9760  141.6990 O   0  0  0  0  0  0  0  0  0  0  0  0
  188.3390  178.1170  140.9000 C   0  0  0  0  0  1  0  0  0  0  0  0
  188.7400  177.1800  145.7450 O   0  0  0  0  0  1  0  0  0  0  0  0
  187.4060  177.5010  146.0020 C   0  0  0  0  0  2  0  0  0  0  0  0
  1  2  1  0  0  0  0
  2 10  1  0  0  0  0
  3  9  1  6  0  0  0
  3  6  1  0  0  0  0
  3  7  1  0  0  0  0
  4 16  1  0  0  0  0
  4  6  2  0  0  0  0
  6  1  1  0  0  0  0
  7  5  1  6  0  0  0
  7  8  1  0  0  0  0
  8 10  1  0  0  0  0
 10 19  1  1  0  0  0
 11 14  1  0  0  0  0
 11 17  2  0  0  0  0
 12 13  1  0  0  0  0
 12 16  1  0  0  0  0
 13 15  1  1  0  0  0
 13 11  1  0  0  0  0
 16 14  2  0  0  0  0
 19 18  1  0  0  0  0
 19 21  2  0  0  0  0
 21 20  2  0  0  0  0
 22 27  1  0  0  0  0
 22 31  1  1  0  0  0
 23 22  1  0  0  0  0
 24 25  1  0  0  0  0
 25 20  1  1  0  0  0
 25 27  1  0  0  0  0
 26 28  1  1  0  0  0
 26 24  1  0  0  0  0
 26 23  1  0  0  0  0
 29 28  1  0  0  0  0
 30 31  1  0  0  0  0
M  END
>  <MODEL>
4

>  <REMARK>
 VINA RESULT:      -8.0      3.712      5.742
  Name = 
  5 active torsions:
  status: ('A' for Active; 'I' for Inactive)
    1  A    between atoms: C_3  and  C_20
    2  A    between atoms: C_5  and  C_31
    3  A    between atoms: O_7  and  C_25
    4  A    between atoms: C_8  and  C_24
    5  A    between atoms: C_18  and  N_19
                            x       y       z     vdW  Elec       q    Type
                         _______ _______ _______ _____ _____    ______ ____

>  <TORSDO>
F 5

$$$$
=
 OpenBabel11062414593D

 31 33  0  0  1  0  0  0  0  0999 V2000
  189.9560  174.9590  135.4370 C   0  0  0  0  0  2  0  0  0  0  0  0
  189.5980  176.4270  135.7270 C   0  0  0  0  0  2  0  0  0  0  0  0
  191.6370  174.4590  137.3690 C   0  0  2  0  0  3  0  0  0  0  0  0
  189.5410  173.2880  137.2060 N   0  0  0  0  0  0  0  0  0  0  0  0
  193.3960  176.0620  137.7140 O   0  0  0  0  0  1  0  0  0  0  0  0
  190.3420  174.1610  136.6630 C   0  0  0  0  0  0  0  0  0  0  0  0
  192.1420  175.8910  137.1260 C   0  0  2  0  0  3  0  0  0  0  0  0
  191.1900  176.9750  137.6550 C   0  0  0  0  0  2  0  0  0  0  0  0
  192.6030  173.5340  136.9660 O   0  0  0  0  0  1  0  0  0  0  0  0
  189.7350  176.8080  137.2030 C   0  0  1  0  0  3  0  0  0  0  0  0
  186.5560  171.8690  135.8590 C   0  0  0  0  0  0  0  0  0  0  0  0
  187.0490  173.8500  136.9820 C   0  0  0  0  0  2  0  0  0  0  0  0
  185.8820  173.0960  136.3470 C   0  0  2  0  0  3  0  0  0  0  0  0
  187.9370  171.8410  136.1550 N   0  0  0  0  0  0  0  0  0  0  0  0
  184.8670  172.7420  137.4180 C   0  0  0  0  0  1  0  0  0  0  0  0
  188.2140  172.9300  136.7880 C   0  0  0  0  0  0  0  0  0  0  0  0
  185.9790  170.9500  135.2210 O   0  0  0  0  0  0  0  0  0  0  0  0
  188.1570  178.6030  136.5660 F   0  0  0  0  0  0  0  0  0  0  0  0
  188.9260  178.0170  137.5180 C   0  0  0  0  0  0  0  0  0  0  0  0
  188.7150  178.7120  140.0180 C   0  0  0  0  0  3  0  0  0  0  0  0
  188.8160  178.3890  138.7610 C   0  0  0  0  0  0  0  0  0  0  0  0
  188.0310  177.3860  143.5180 C   0  0  1  0  0  3  0  0  0  0  0  0
  188.6980  176.0220  143.3370 C   0  0  0  0  0  2  0  0  0  0  0  0
  190.0450  177.3270  141.5800 C   0  0  0  0  0  2  0  0  0  0  0  0
  188.6520  177.6330  141.0410 C   0  0  1  0  0  3  0  0  0  0  0  0
  190.0060  176.1260  142.5350 C   0  0  1  0  0  3  0  0  0  0  0  0
  187.6880  178.0290  142.1670 C   0  0  0  0  0  2  0  0  0  0  0  0
  191.0940  176.1870  143.4070 O   0  0  0  0  0  0  0  0  0  0  0  0
  191.7870  177.3400  143.0340 C   0  0  0  0  0  1  0  0  0  0  0  0
  185.6910  177.8280  143.6770 O   0  0  0  0  0  1  0  0  0  0  0  0
  186.7710  177.2540  144.3500 C   0  0  0  0  0  2  0  0  0  0  0  0
  1  2  1  0  0  0  0
  1  6  1  0  0  0  0
  2 10  1  0  0  0  0
  3  9  1  6  0  0  0
  6  4  2  0  0  0  0
  6  3  1  0  0  0  0
  7  3  1  0  0  0  0
  7  8  1  0  0  0  0
  7  5  1  1  0  0  0
 10 19  1  6  0  0  0
 10  8  1  0  0  0  0
 11 14  1  0  0  0  0
 11 13  1  0  0  0  0
 13 12  1  0  0  0  0
 13 15  1  1  0  0  0
 14 16  2  0  0  0  0
 16 12  1  0  0  0  0
 16  4  1  0  0  0  0
 17 11  2  0  0  0  0
 18 19  1  0  0  0  0
 19 21  2  0  0  0  0
 21 20  2  0  0  0  0
 22 31  1  1  0  0  0
 23 22  1  0  0  0  0
 24 26  1  0  0  0  0
 25 20  1  6  0  0  0
 25 24  1  0  0  0  0
 25 27  1  0  0  0  0
 26 23  1  0  0  0  0
 26 28  1  1  0  0  0
 27 22  1  0  0  0  0
 29 28  1  0  0  0  0
 30 31  1  0  0  0  0
M  END
>  <MODEL>
5

>  <REMARK>
 VINA RESULT:      -7.7      6.197      8.333
  Name = 
  5 active torsions:
  status: ('A' for Active; 'I' for Inactive)
    1  A    between atoms: C_3  and  C_20
    2  A    between atoms: C_5  and  C_31
    3  A    between atoms: O_7  and  C_25
    4  A    between atoms: C_8  and  C_24
    5  A    between atoms: C_18  and  N_19
                            x       y       z     vdW  Elec       q    Type
                         _______ _______ _______ _____ _____    ______ ____

>  <TORSDO>
F 5

$$$$
=
 OpenBabel11062414593D

 31 33  0  0  1  0  0  0  0  0999 V2000
  185.8860  176.9640  135.7520 C   0  0  0  0  0  2  0  0  0  0  0  0
  187.2620  177.6230  135.9490 C   0  0  0  0  0  2  0  0  0  0  0  0
  186.3070  174.6010  136.7780 C   0  0  2  0  0  3  0  0  0  0  0  0
  184.7060  176.1160  137.7480 N   0  0  0  0  0  0  0  0  0  0  0  0
  188.2880  173.4460  136.0560 O   0  0  0  0  0  1  0  0  0  0  0  0
  185.5540  175.9040  136.7800 C   0  0  0  0  0  0  0  0  0  0  0  0
  187.6950  174.7070  136.1240 C   0  0  2  0  0  3  0  0  0  0  0  0
  188.6460  175.6680  136.8540 C   0  0  0  0  0  2  0  0  0  0  0  0
  185.5420  173.6300  136.1290 O   0  0  0  0  0  1  0  0  0  0  0  0
  188.0490  177.0520  137.1320 C   0  0  1  0  0  3  0  0  0  0  0  0
  183.4740  179.3370  138.6640 C   0  0  0  0  0  0  0  0  0  0  0  0
  182.4720  177.3590  137.9470 C   0  0  0  0  0  2  0  0  0  0  0  0
  182.1290  178.7850  138.3740 C   0  0  2  0  0  3  0  0  0  0  0  0
  184.5140  178.4090  138.4370 N   0  0  0  0  0  0  0  0  0  0  0  0
  181.5020  179.5250  137.2080 C   0  0  0  0  0  1  0  0  0  0  0  0
  183.9670  177.3150  138.0270 C   0  0  0  0  0  0  0  0  0  0  0  0
  183.6840  180.5010  139.0950 O   0  0  0  0  0  0  0  0  0  0  0  0
  189.3520  179.1400  136.8840 F   0  0  0  0  0  0  0  0  0  0  0  0
  189.0900  178.0120  137.5910 C   0  0  0  0  0  0  0  0  0  0  0  0
  190.0850  177.6660  139.9720 C   0  0  0  0  0  3  0  0  0  0  0  0
  189.6090  177.8510  138.7740 C   0  0  0  0  0  0  0  0  0  0  0  0
  187.3560  178.0980  142.5870 C   0  0  1  0  0  3  0  0  0  0  0  0
  187.5560  176.7550  143.2910 C   0  0  0  0  0  2  0  0  0  0  0  0
  189.9340  177.0410  142.3610 C   0  0  0  0  0  2  0  0  0  0  0  0
  189.1810  177.1670  141.0420 C   0  0  1  0  0  3  0  0  0  0  0  0
  189.0450  176.4000  143.4360 C   0  0  1  0  0  3  0  0  0  0  0  0
  187.9620  178.0890  141.1760 C   0  0  0  0  0  2  0  0  0  0  0  0
  189.5000  176.7710  144.7020 O   0  0  0  0  0  0  0  0  0  0  0  0
  190.6330  177.5500  144.4600 C   0  0  0  0  0  1  0  0  0  0  0  0
  185.6860  179.5030  141.6220 O   0  0  0  0  0  1  0  0  0  0  0  0
  185.8810  178.4380  142.5020 C   0  0  0  0  0  2  0  0  0  0  0  0
  1  2  1  0  0  0  0
  1  6  1  0  0  0  0
  2 10  1  0  0  0  0
  3  9  1  6  0  0  0
  3  6  1  0  0  0  0
  4 16  1  0  0  0  0
  6  4  2  0  0  0  0
  7  5  1  1  0  0  0
  7  3  1  0  0  0  0
  7  8  1  0  0  0  0
  8 10  1  0  0  0  0
 10 19  1  6  0  0  0
 11 17  2  0  0  0  0
 12 16  1  0  0  0  0
 12 13  1  0  0  0  0
 13 15  1  6  0  0  0
 13 11  1  0  0  0  0
 14 11  1  0  0  0  0
 16 14  2  0  0  0  0
 18 19  1  0  0  0  0
 19 21  2  0  0  0  0
 21 20  2  0  0  0  0
 22 31  1  6  0  0  0
 22 23  1  0  0  0  0
 23 26  1  0  0  0  0
 24 26  1  0  0  0  0
 25 20  1  6  0  0  0
 25 27  1  0  0  0  0
 25 24  1  0  0  0  0
 26 28  1  1  0  0  0
 27 22  1  0  0  0  0
 29 28  1  0  0  0  0
 30 31  1  0  0  0  0
M  END
>  <MODEL>
6

>  <REMARK>
 VINA RESULT:      -7.6      4.633      6.672
  Name = 
  5 active torsions:
  status: ('A' for Active; 'I' for Inactive)
    1  A    between atoms: C_3  and  C_20
    2  A    between atoms: C_5  and  C_31
    3  A    between atoms: O_7  and  C_25
    4  A    between atoms: C_8  and  C_24
    5  A    between atoms: C_18  and  N_19
                            x       y       z     vdW  Elec       q    Type
                         _______ _______ _______ _____ _____    ______ ____

>  <TORSDO>
F 5

$$$$
=
 OpenBabel11062414593D

 31 33  0  0  1  0  0  0  0  0999 V2000
  182.3250  178.2010  138.7460 C   0  0  0  0  0  2  0  0  0  0  0  0
  182.3040  178.8880  140.1220 C   0  0  0  0  0  2  0  0  0  0  0  0
  184.7960  177.3700  138.6340 C   0  0  2  0  0  3  0  0  0  0  0  0
  182.9570  175.8170  138.6450 N   0  0  0  0  0  0  0  0  0  0  0  0
  186.5020  178.9730  139.1850 O   0  0  0  0  0  1  0  0  0  0  0  0
  183.3210  177.0680  138.6340 C   0  0  0  0  0  0  0  0  0  0  0  0
  185.1390  178.7040  139.3190 C   0  0  2  0  0  3  0  0  0  0  0  0
  184.7660  178.7430  140.8090 C   0  0  0  0  0  2  0  0  0  0  0  0
  185.2660  177.3700  137.3200 O   0  0  0  0  0  1  0  0  0  0  0  0
  183.3250  178.3130  141.1070 C   0  0  1  0  0  3  0  0  0  0  0  0
  179.7500  174.2890  138.2950 C   0  0  0  0  0  0  0  0  0  0  0  0
  180.7480  175.6130  139.9320 C   0  0  0  0  0  2  0  0  0  0  0  0
  179.4390  174.8950  139.6120 C   0  0  2  0  0  3  0  0  0  0  0  0
  181.0640  174.5650  137.8560 N   0  0  0  0  0  0  0  0  0  0  0  0
  179.1930  173.8090  140.6410 C   0  0  0  0  0  1  0  0  0  0  0  0
  181.6270  175.2870  138.7640 C   0  0  0  0  0  0  0  0  0  0  0  0
  178.9330  173.6180  137.6130 O   0  0  0  0  0  0  0  0  0  0  0  0
  181.6440  178.5950  142.9000 F   0  0  0  0  0  0  0  0  0  0  0  0
  182.9440  178.6250  142.5110 C   0  0  0  0  0  0  0  0  0  0  0  0
  184.8570  178.8240  144.2660 C   0  0  0  0  0  3  0  0  0  0  0  0
  183.8860  178.7400  143.4040 C   0  0  0  0  0  0  0  0  0  0  0  0
  188.3740  177.6650  145.1420 C   0  0  1  0  0  3  0  0  0  0  0  0
  188.5590  176.7130  143.9590 C   0  0  0  0  0  2  0  0  0  0  0  0
  186.8460  178.3030  142.8890 C   0  0  0  0  0  2  0  0  0  0  0  0
  186.0330  177.9240  144.1230 C   0  0  1  0  0  3  0  0  0  0  0  0
  187.9840  177.2980  142.6590 C   0  0  1  0  0  3  0  0  0  0  0  0
  186.8900  177.9670  145.3950 C   0  0  0  0  0  2  0  0  0  0  0  0
  189.0010  177.9040  141.9200 O   0  0  0  0  0  0  0  0  0  0  0  0
  189.1270  177.1190  140.7730 C   0  0  0  0  0  1  0  0  0  0  0  0
  188.0820  177.1460  147.4530 O   0  0  0  0  0  1  0  0  0  0  0  0
  188.9920  177.0790  146.3970 C   0  0  0  0  0  2  0  0  0  0  0  0
  1  2  1  0  0  0  0
  2 10  1  0  0  0  0
  3  9  1  6  0  0  0
  3  6  1  0  0  0  0
  3  7  1  0  0  0  0
  4 16  1  0  0  0  0
  6  4  2  0  0  0  0
  6  1  1  0  0  0  0
  7  5  1  1  0  0  0
  7  8  1  0  0  0  0
  8 10  1  0  0  0  0
 10 19  1  1  0  0  0
 11 13  1  0  0  0  0
 13 12  1  0  0  0  0
 13 15  1  1  0  0  0
 14 11  1  0  0  0  0
 14 16  2  0  0  0  0
 16 12  1  0  0  0  0
 17 11  2  0  0  0  0
 19 18  1  0  0  0  0
 19 21  2  0  0  0  0
 21 20  2  0  0  0  0
 22 27  1  0  0  0  0
 22 31  1  1  0  0  0
 23 22  1  0  0  0  0
 24 25  1  0  0  0  0
 25 20  1  1  0  0  0
 25 27  1  0  0  0  0
 26 28  1  1  0  0  0
 26 24  1  0  0  0  0
 26 23  1  0  0  0  0
 29 28  1  0  0  0  0
 31 30  1  0  0  0  0
M  END
>  <MODEL>
7

>  <REMARK>
 VINA RESULT:      -7.6      3.514      4.623
  Name = 
  5 active torsions:
  status: ('A' for Active; 'I' for Inactive)
    1  A    between atoms: C_3  and  C_20
    2  A    between atoms: C_5  and  C_31
    3  A    between atoms: O_7  and  C_25
    4  A    between atoms: C_8  and  C_24
    5  A    between atoms: C_18  and  N_19
                            x       y       z     vdW  Elec       q    Type
                         _______ _______ _______ _____ _____    ______ ____

>  <TORSDO>
F 5

$$$$
=
 OpenBabel11062414593D

 31 33  0  0  1  0  0  0  0  0999 V2000
  186.4500  176.4650  136.1830 C   0  0  0  0  0  2  0  0  0  0  0  0
  185.7030  177.6540  136.8110 C   0  0  0  0  0  2  0  0  0  0  0  0
  188.4820  176.2330  137.8040 C   0  0  2  0  0  3  0  0  0  0  0  0
  186.8540  174.4740  137.5860 N   0  0  0  0  0  0  0  0  0  0  0  0
  189.6860  178.2490  138.3230 O   0  0  0  0  0  1  0  0  0  0  0  0
  187.2500  175.6440  137.1710 C   0  0  0  0  0  0  0  0  0  0  0  0
  188.4720  177.7710  137.8280 C   0  0  2  0  0  3  0  0  0  0  0  0
  187.3250  178.3650  138.6590 C   0  0  0  0  0  2  0  0  0  0  0  0
  189.6120  175.7700  137.1280 O   0  0  0  0  0  1  0  0  0  0  0  0
  185.9420  177.8000  138.3160 C   0  0  1  0  0  3  0  0  0  0  0  0
  183.5580  173.2210  137.0310 C   0  0  0  0  0  0  0  0  0  0  0  0
  185.6990  172.4080  136.5980 C   0  0  0  0  0  2  0  0  0  0  0  0
  184.2260  172.0340  136.4450 C   0  0  2  0  0  3  0  0  0  0  0  0
  184.4690  174.2070  137.4720 N   0  0  0  0  0  0  0  0  0  0  0  0
  183.8840  171.9180  134.9720 C   0  0  0  0  0  1  0  0  0  0  0  0
  185.6570  173.7690  137.2230 C   0  0  0  0  0  0  0  0  0  0  0  0
  182.3120  173.3440  137.1570 O   0  0  0  0  0  0  0  0  0  0  0  0
  183.6750  178.7890  138.3140 F   0  0  0  0  0  0  0  0  0  0  0  0
  184.8570  178.5940  138.9520 C   0  0  0  0  0  0  0  0  0  0  0  0
  185.1420  179.2370  141.4600 C   0  0  0  0  0  3  0  0  0  0  0  0
  184.9840  178.9360  140.2030 C   0  0  0  0  0  0  0  0  0  0  0  0
  186.5990  178.1430  144.7990 C   0  0  1  0  0  3  0  0  0  0  0  0
  187.3260  176.8970  144.2890 C   0  0  0  0  0  2  0  0  0  0  0  0
  187.3160  178.2420  142.0980 C   0  0  0  0  0  2  0  0  0  0  0  0
  185.8130  178.2610  142.3590 C   0  0  1  0  0  3  0  0  0  0  0  0
  187.9970  177.1430  142.9270 C   0  0  1  0  0  3  0  0  0  0  0  0
  185.5020  178.5930  143.8240 C   0  0  0  0  0  2  0  0  0  0  0  0
  189.3420  177.4630  143.1120 O   0  0  0  0  0  0  0  0  0  0  0  0
  190.0070  176.2360  143.1010 C   0  0  0  0  0  1  0  0  0  0  0  0
  185.2930  179.0070  146.5990 O   0  0  0  0  0  1  0  0  0  0  0  0
  185.9890  177.8790  146.1620 C   0  0  0  0  0  2  0  0  0  0  0  0
  1  2  1  0  0  0  0
  1  6  1  0  0  0  0
  2 10  1  0  0  0  0
  3  9  1  6  0  0  0
  3  7  1  0  0  0  0
  6  4  2  0  0  0  0
  6  3  1  0  0  0  0
  7  5  1  1  0  0  0
  7  8  1  0  0  0  0
 10  8  1  0  0  0  0
 10 19  1  6  0  0  0
 11 17  2  0  0  0  0
 11 14  1  0  0  0  0
 12 16  1  0  0  0  0
 13 15  1  6  0  0  0
 13 12  1  0  0  0  0
 13 11  1  0  0  0  0
 16 14  2  0  0  0  0
 16  4  1  0  0  0  0
 18 19  1  0  0  0  0
 19 21  2  0  0  0  0
 21 20  2  0  0  0  0
 22 31  1  1  0  0  0
 23 22  1  0  0  0  0
 24 25  1  0  0  0  0
 24 26  1  0  0  0  0
 25 20  1  6  0  0  0
 25 27  1  0  0  0  0
 26 28  1  1  0  0  0
 26 23  1  0  0  0  0
 27 22  1  0  0  0  0
 29 28  1  0  0  0  0
 31 30  1  0  0  0  0
M  END
>  <MODEL>
8

>  <REMARK>
 VINA RESULT:      -7.6      4.881      6.905
  Name = 
  5 active torsions:
  status: ('A' for Active; 'I' for Inactive)
    1  A    between atoms: C_3  and  C_20
    2  A    between atoms: C_5  and  C_31
    3  A    between atoms: O_7  and  C_25
    4  A    between atoms: C_8  and  C_24
    5  A    between atoms: C_18  and  N_19
                            x       y       z     vdW  Elec       q    Type
                         _______ _______ _______ _____ _____    ______ ____

>  <TORSDO>
F 5

$$$$
=
 OpenBabel11062414593D

 31 33  0  0  1  0  0  0  0  0999 V2000
  187.9260  176.4820  143.1110 C   0  0  0  0  0  2  0  0  0  0  0  0
  186.5080  177.0730  143.1980 C   0  0  0  0  0  2  0  0  0  0  0  0
  189.0610  178.1410  141.4460 C   0  0  2  0  0  3  0  0  0  0  0  0
  189.8300  177.9320  143.7170 N   0  0  0  0  0  0  0  0  0  0  0  0
  187.8570  178.6370  139.4240 O   0  0  0  0  0  1  0  0  0  0  0  0
  189.0040  177.5000  142.8060 C   0  0  0  0  0  0  0  0  0  0  0  0
  187.7070  178.1320  140.7170 C   0  0  2  0  0  3  0  0  0  0  0  0
  186.6140  178.9320  141.4410 C   0  0  0  0  0  2  0  0  0  0  0  0
  190.0270  177.4930  140.6730 O   0  0  0  0  0  1  0  0  0  0  0  0
  186.4560  178.5780  142.9250 C   0  0  1  0  0  3  0  0  0  0  0  0
  190.5870  176.7750  147.0080 C   0  0  0  0  0  0  0  0  0  0  0  0
  188.6800  177.6500  145.9920 C   0  0  0  0  0  2  0  0  0  0  0  0
  189.1800  177.1150  147.3320 C   0  0  2  0  0  3  0  0  0  0  0  0
  190.9310  177.0670  145.6690 N   0  0  0  0  0  0  0  0  0  0  0  0
  189.1380  178.2240  148.3670 C   0  0  0  0  0  1  0  0  0  0  0  0
  189.8840  177.5650  145.1040 C   0  0  0  0  0  0  0  0  0  0  0  0
  191.3950  176.2540  147.8190 O   0  0  0  0  0  0  0  0  0  0  0  0
  185.3000  180.1590  144.4360 F   0  0  0  0  0  0  0  0  0  0  0  0
  185.2230  179.1810  143.4990 C   0  0  0  0  0  0  0  0  0  0  0  0
  182.9520  178.5950  142.3660 C   0  0  0  0  0  3  0  0  0  0  0  0
  184.0750  178.8930  142.9550 C   0  0  0  0  0  0  0  0  0  0  0  0
  183.4000  176.5620  139.1820 C   0  0  1  0  0  3  0  0  0  0  0  0
  183.3530  177.7350  138.2010 C   0  0  0  0  0  2  0  0  0  0  0  0
  184.1920  179.0150  140.2660 C   0  0  0  0  0  2  0  0  0  0  0  0
  182.9330  178.4200  140.8890 C   0  0  1  0  0  3  0  0  0  0  0  0
  184.1190  178.9580  138.7330 C   0  0  1  0  0  3  0  0  0  0  0  0
  182.7790  176.9350  140.5350 C   0  0  0  0  0  2  0  0  0  0  0  0
  185.4090  178.9790  138.2020 O   0  0  0  0  0  0  0  0  0  0  0  0
  185.3370  178.1860  137.0560 C   0  0  0  0  0  1  0  0  0  0  0  0
  183.3960  174.8390  137.5310 O   0  0  0  0  0  1  0  0  0  0  0  0
  182.6770  175.3600  138.6070 C   0  0  0  0  0  2  0  0  0  0  0  0
  1  2  1  0  0  0  0
  3  9  1  6  0  0  0
  3  6  1  0  0  0  0
  4 16  1  0  0  0  0
  6  1  1  0  0  0  0
  6  4  2  0  0  0  0
  7  5  1  6  0  0  0
  7  8  1  0  0  0  0
  7  3  1  0  0  0  0
  8 10  1  0  0  0  0
 10  2  1  0  0  0  0
 10 19  1  6  0  0  0
 11 13  1  0  0  0  0
 11 17  2  0  0  0  0
 12 13  1  0  0  0  0
 13 15  1  1  0  0  0
 14 11  1  0  0  0  0
 16 14  2  0  0  0  0
 16 12  1  0  0  0  0
 19 18  1  0  0  0  0
 20 21  2  0  0  0  0
 21 19  2  0  0  0  0
 22 31  1  6  0  0  0
 22 27  1  0  0  0  0
 23 26  1  0  0  0  0
 23 22  1  0  0  0  0
 24 25  1  0  0  0  0
 25 20  1  1  0  0  0
 26 28  1  6  0  0  0
 26 24  1  0  0  0  0
 27 25  1  0  0  0  0
 29 28  1  0  0  0  0
 30 31  1  0  0  0  0
M  END
>  <MODEL>
9

>  <REMARK>
 VINA RESULT:      -7.5      3.075      8.247
  Name = 
  5 active torsions:
  status: ('A' for Active; 'I' for Inactive)
    1  A    between atoms: C_3  and  C_20
    2  A    between atoms: C_5  and  C_31
    3  A    between atoms: O_7  and  C_25
    4  A    between atoms: C_8  and  C_24
    5  A    between atoms: C_18  and  N_19
                            x       y       z     vdW  Elec       q    Type
                         _______ _______ _______ _____ _____    ______ ____

>  <TORSDO>
F 5

$$$$
