=
 OpenBabel11062415073D

 55 62  0  0  1  0  0  0  0  0999 V2000
  184.9880  178.3810  141.4430 C   0  0  2  0  0  3  0  0  0  0  0  0
  181.4610  177.3960  140.4740 C   0  0  0  0  0  0  0  0  0  0  0  0
  183.6070  176.7920  137.7030 C   0  0  2  0  0  3  0  0  0  0  0  0
  179.7200  175.8580  139.7550 C   0  0  0  0  0  3  0  0  0  0  0  0
  183.1800  178.1330  138.1630 C   0  0  0  0  0  0  0  0  0  0  0  0
  181.2870  175.8090  135.3270 N   0  0  0  0  0  2  0  0  0  0  0  0
  178.9310  176.9310  139.3420 C   0  0  0  0  0  3  0  0  0  0  0  0
  179.3850  178.2400  139.5190 C   0  0  0  0  0  3  0  0  0  0  0  0
  182.1750  178.7480  137.4710 C   0  0  0  0  0  0  0  0  0  0  0  0
  181.4670  177.9900  136.3930 C   0  0  0  0  0  2  0  0  0  0  0  0
  179.9230  180.7590  140.7240 N   0  0  0  0  0  1  0  0  0  0  0  0
  183.1580  174.9980  136.3510 C   0  0  1  0  0  3  0  0  0  0  0  0
  181.6100  180.1070  137.8190 C   0  0  0  0  0  2  0  0  0  0  0  0
  180.6370  178.4920  140.1060 C   0  0  0  0  0  0  0  0  0  0  0  0
  183.7840  178.1910  140.5680 C   0  0  0  0  0  0  0  0  0  0  0  0
  181.9290  174.7120  135.6040 C   0  0  0  0  0  2  0  0  0  0  0  0
  182.7510  177.5710  141.0740 N   0  0  0  0  0  0  0  0  0  0  0  0
  183.7890  178.7310  139.2710 O   0  0  0  0  0  0  0  0  0  0  0  0
  180.9750  176.0920  140.3210 C   0  0  0  0  0  3  0  0  0  0  0  0
  181.8750  180.5950  139.2480 C   0  0  0  0  0  2  0  0  0  0  0  0
  183.3820  176.4460  136.2880 C   0  0  1  0  0  3  0  0  0  0  0  0
  183.6420  175.7000  138.4560 C   0  0  0  0  0  3  0  0  0  0  0  0
  182.0370  176.8970  135.8610 C   0  0  1  0  0  3  0  0  0  0  0  0
  183.3440  174.5500  137.5880 C   0  0  0  0  0  3  0  0  0  0  0  0
  181.0560  179.9220  140.3590 C   0  0  1  0  0  3  0  0  0  0  0  0
  185.6650  180.3360  142.6660 O   0  0  0  0  0  1  0  0  0  0  0  0
  184.7150  179.3090  142.6370 C   0  0  2  0  0  3  0  0  0  0  0  0
  184.6330  178.5970  143.9670 C   0  0  0  0  0  0  0  0  0  0  0  0
  185.4870  177.7770  144.2790 O   0  0  0  0  0  0  0  0  0  0  0  0
  183.4780  178.8290  144.8920 C   0  0  0  0  0  1  0  0  0  0  0  0
  186.2130  178.8280  140.6500 C   0  0  0  0  0  2  0  0  0  0  0  0
  187.3990  177.9290  140.9500 C   0  0  2  0  0  3  0  0  0  0  0  0
  187.9530  178.2910  142.1840 O   0  0  0  0  0  1  0  0  0  0  0  0
  188.9300  176.0110  138.2600 C   0  0  0  0  0  3  0  0  0  0  0  0
  188.6720  177.0130  139.0500 C   0  0  0  0  0  0  0  0  0  0  0  0
  188.4100  178.0170  139.8420 C   0  0  0  0  0  3  0  0  0  0  0  0
  186.6090  175.6710  136.7570 O   0  0  0  0  0  1  0  0  0  0  0  0
  194.0160  173.9640  137.4980 C   0  0  0  0  0  0  0  0  0  0  0  0
  194.2350  177.3100  137.8590 O   0  0  0  0  0  0  0  0  0  0  0  0
  191.4970  173.5760  136.7260 C   0  0  0  0  0  3  0  0  0  0  0  0
  192.6790  174.3670  137.0610 C   0  0  0  0  0  0  0  0  0  0  0  0
  188.0320  174.0900  135.6000 C   0  0  0  0  0  2  0  0  0  0  0  0
  190.3440  175.7440  136.1940 C   0  0  1  0  0  0  0  0  0  0  0  0
  188.9920  176.2180  136.7740 C   0  0  1  0  0  3  0  0  0  0  0  0
  193.8960  176.1170  137.6410 C   0  0  0  0  0  0  0  0  0  0  0  0
  189.2070  173.4980  136.1550 O   0  0  0  0  0  0  0  0  0  0  0  0
  187.8050  175.5490  136.0440 C   0  0  2  0  0  3  0  0  0  0  0  0
  194.7470  174.9880  137.8340 N   0  0  0  0  0  0  0  0  0  0  0  0
  192.6100  175.6690  137.1630 C   0  0  0  0  0  0  0  0  0  0  0  0
  191.4430  176.3820  136.8880 O   0  0  0  0  0  0  0  0  0  0  0  0
  190.3800  174.2220  136.3590 C   0  0  0  0  0  0  0  0  0  0  0  0
  190.4270  176.0210  134.8070 O   0  0  0  0  0  0  0  0  0  0  0  0
  190.2570  177.4000  134.5950 C   0  0  0  0  0  1  0  0  0  0  0  0
  195.8250  172.3200  137.7640 C   0  0  0  0  0  1  0  0  0  0  0  0
  194.4590  172.6430  137.5480 O   0  0  0  0  0  0  0  0  0  0  0  0
  1 31  1  6  0  0  0
  1 27  1  0  0  0  0
  2 17  1  0  0  0  0
  3  5  1  0  0  0  0
  3 22  1  1  0  0  0
  4 19  2  0  0  0  0
  5 18  1  0  0  0  0
  6 16  1  0  0  0  0
  6 23  1  0  0  0  0
  7  8  2  0  0  0  0
  7  4  1  0  0  0  0
  8 14  1  0  0  0  0
  9 13  1  0  0  0  0
  9  5  2  0  0  0  0
 10  9  1  0  0  0  0
 12 16  1  1  0  0  0
 12 24  1  0  0  0  0
 13 20  1  0  0  0  0
 14 25  1  0  0  0  0
 14  2  2  0  0  0  0
 15 17  2  0  0  0  0
 15  1  1  0  0  0  0
 18 15  1  0  0  0  0
 19  2  1  0  0  0  0
 20 25  1  0  0  0  0
 21 12  1  0  0  0  0
 21  3  1  0  0  0  0
 23 21  1  0  0  0  0
 23 10  1  0  0  0  0
 24 22  2  0  0  0  0
 25 11  1  0  0  0  0
 27 26  1  0  0  0  0
 27 28  1  0  0  0  0
 28 29  2  0  0  0  0
 28 30  1  0  0  0  0
 31 32  1  0  0  0  0
 32 33  1  0  0  0  0
 34 35  2  0  0  0  0
 35 36  2  0  0  0  0
 36 32  1  0  0  0  0
 38 55  1  0  0  0  0
 38 48  2  0  0  0  0
 40 41  1  0  0  0  0
 41 49  2  0  0  0  0
 41 38  1  0  0  0  0
 42 47  1  0  0  0  0
 42 46  1  0  0  0  0
 43 51  1  0  0  0  0
 43 44  1  0  0  0  0
 43 50  1  0  0  0  0
 44 34  1  0  0  0  0
 45 48  1  0  0  0  0
 45 39  2  0  0  0  0
 46 51  1  0  0  0  0
 47 37  1  0  0  0  0
 47 44  1  0  0  0  0
 49 45  1  0  0  0  0
 50 49  1  0  0  0  0
 51 40  2  0  0  0  0
 52 43  1  0  0  0  0
 53 52  1  0  0  0  0
 55 54  1  0  0  0  0
M  END
>  <MODEL>
1

>  <REMARK>
 VINA RESULT:      -6.1      0.000      0.000
  Name = 
  9 active torsions:
  status: ('A' for Active; 'I' for Inactive)
    1  A    between atoms: O_1  and  C_27
    2  A    between atoms: C_2  and  C_6
    3  A    between atoms: C_2  and  C_34
    4  A    between atoms: C_2  and  C_40
    5  A    between atoms: C_4  and  C_6
    6  A    between atoms: C_4  and  C_52
    7  A    between atoms: O_10  and  C_11
    8  A    between atoms: C_23  and  C_40
    9  A    between atoms: C_30  and  C_42
                            x       y       z     vdW  Elec       q    Type
                         _______ _______ _______ _____ _____    ______ ____

>  <TORSDO>
F 9

$$$$
=
 OpenBabel11062415073D

 55 62  0  0  1  0  0  0  0  0999 V2000
  182.6460  177.7710  140.2890 C   0  0  2  0  0  3  0  0  0  0  0  0
  183.2910  174.9200  137.8800 C   0  0  0  0  0  0  0  0  0  0  0  0
  185.7340  177.4440  137.3260 C   0  0  2  0  0  3  0  0  0  0  0  0
  184.5930  173.1190  136.8930 C   0  0  0  0  0  3  0  0  0  0  0  0
  184.3100  177.5470  136.9330 C   0  0  0  0  0  0  0  0  0  0  0  0
  187.3920  176.1100  134.5940 N   0  0  0  0  0  2  0  0  0  0  0  0
  183.7990  173.1620  135.7470 C   0  0  0  0  0  3  0  0  0  0  0  0
  182.7310  174.0590  135.6720 C   0  0  0  0  0  3  0  0  0  0  0  0
  184.0000  177.3180  135.6220 C   0  0  0  0  0  0  0  0  0  0  0  0
  185.0720  176.8400  134.6940 C   0  0  0  0  0  2  0  0  0  0  0  0
  180.1290  175.1720  135.9610 N   0  0  0  0  0  1  0  0  0  0  0  0
  187.8470  176.7980  136.7220 C   0  0  1  0  0  3  0  0  0  0  0  0
  182.5970  177.3650  135.0590 C   0  0  0  0  0  2  0  0  0  0  0  0
  182.4470  174.9280  136.7400 C   0  0  0  0  0  0  0  0  0  0  0  0
  183.0490  177.0840  139.0180 C   0  0  0  0  0  0  0  0  0  0  0  0
  188.2520  175.9950  135.5630 C   0  0  0  0  0  2  0  0  0  0  0  0
  183.0690  175.7780  139.0070 N   0  0  0  0  0  0  0  0  0  0  0  0
  183.3320  177.8610  137.8810 O   0  0  0  0  0  0  0  0  0  0  0  0
  184.3360  173.9910  137.9520 C   0  0  0  0  0  3  0  0  0  0  0  0
  181.4620  177.2280  136.0810 C   0  0  0  0  0  2  0  0  0  0  0  0
  186.7540  177.6730  136.2860 C   0  0  1  0  0  3  0  0  0  0  0  0
  186.2080  176.6610  138.2870 C   0  0  0  0  0  3  0  0  0  0  0  0
  186.3630  176.9940  135.0300 C   0  0  1  0  0  3  0  0  0  0  0  0
  187.5610  176.2390  137.8930 C   0  0  0  0  0  3  0  0  0  0  0  0
  181.2310  175.8220  136.6550 C   0  0  1  0  0  3  0  0  0  0  0  0
  181.9820  180.0400  139.8590 O   0  0  0  0  0  1  0  0  0  0  0  0
  181.4830  178.7550  140.0910 C   0  0  2  0  0  3  0  0  0  0  0  0
  180.4730  178.7510  141.2150 C   0  0  0  0  0  0  0  0  0  0  0  0
  179.9680  177.6990  141.5840 O   0  0  0  0  0  0  0  0  0  0  0  0
  180.0240  180.0320  141.8470 C   0  0  0  0  0  1  0  0  0  0  0  0
  183.8310  178.4320  140.9890 C   0  0  0  0  0  2  0  0  0  0  0  0
  184.0260  177.8480  142.3760 C   0  0  2  0  0  3  0  0  0  0  0  0
  182.8690  178.0610  143.1350 O   0  0  0  0  0  1  0  0  0  0  0  0
  187.6280  177.4570  142.7410 C   0  0  0  0  0  3  0  0  0  0  0  0
  186.4340  177.9550  142.8870 C   0  0  0  0  0  0  0  0  0  0  0  0
  185.2360  178.4540  143.0290 C   0  0  0  0  0  3  0  0  0  0  0  0
  188.4060  177.7200  140.0790 O   0  0  0  0  0  1  0  0  0  0  0  0
  190.6400  176.3830  147.2590 C   0  0  0  0  0  0  0  0  0  0  0  0
  188.7970  179.1510  147.8160 O   0  0  0  0  0  0  0  0  0  0  0  0
  190.7780  176.2390  144.6040 C   0  0  0  0  0  3  0  0  0  0  0  0
  190.4440  176.8530  145.8870 C   0  0  0  0  0  0  0  0  0  0  0  0
  190.5190  176.9910  141.0110 C   0  0  0  0  0  2  0  0  0  0  0  0
  189.8670  178.3120  143.5130 C   0  0  1  0  0  0  0  0  0  0  0  0
  188.7840  178.3550  142.4100 C   0  0  1  0  0  3  0  0  0  0  0  0
  189.4570  178.1900  147.3430 C   0  0  0  0  0  0  0  0  0  0  0  0
  190.6620  176.2870  142.2460 O   0  0  0  0  0  0  0  0  0  0  0  0
  189.3880  178.0380  141.0230 C   0  0  2  0  0  3  0  0  0  0  0  0
  190.0700  177.1680  148.1280 N   0  0  0  0  0  0  0  0  0  0  0  0
  189.7170  177.9380  145.9460 C   0  0  0  0  0  0  0  0  0  0  0  0
  189.2840  178.6130  144.8040 O   0  0  0  0  0  0  0  0  0  0  0  0
  190.4670  176.9040  143.4800 C   0  0  0  0  0  0  0  0  0  0  0  0
  190.9140  179.2260  143.2350 O   0  0  0  0  0  0  0  0  0  0  0  0
  191.3280  179.8400  144.4290 C   0  0  0  0  0  1  0  0  0  0  0  0
  192.7020  175.2940  148.0390 C   0  0  0  0  0  1  0  0  0  0  0  0
  191.3530  175.2340  147.6000 O   0  0  0  0  0  0  0  0  0  0  0  0
  1 31  1  6  0  0  0
  2 19  1  0  0  0  0
  2 17  1  0  0  0  0
  3 22  1  6  0  0  0
  4 19  2  0  0  0  0
  5  3  1  0  0  0  0
  5 18  1  0  0  0  0
  6 23  1  0  0  0  0
  6 16  1  0  0  0  0
  7  4  1  0  0  0  0
  8  7  2  0  0  0  0
  8 14  1  0  0  0  0
  9  5  2  0  0  0  0
 10 23  1  0  0  0  0
 10  9  1  0  0  0  0
 11 25  1  0  0  0  0
 12 16  1  6  0  0  0
 12 24  1  0  0  0  0
 13  9  1  0  0  0  0
 13 20  1  0  0  0  0
 14  2  2  0  0  0  0
 15  1  1  0  0  0  0
 17 15  2  0  0  0  0
 18 15  1  0  0  0  0
 20 25  1  0  0  0  0
 21 12  1  0  0  0  0
 21  3  1  0  0  0  0
 23 21  1  0  0  0  0
 24 22  2  0  0  0  0
 25 14  1  0  0  0  0
 26 27  1  0  0  0  0
 27  1  1  0  0  0  0
 27 28  1  0  0  0  0
 28 29  2  0  0  0  0
 28 30  1  0  0  0  0
 31 32  1  0  0  0  0
 32 36  1  0  0  0  0
 32 33  1  0  0  0  0
 34 35  2  0  0  0  0
 35 36  2  0  0  0  0
 37 47  1  0  0  0  0
 38 55  1  0  0  0  0
 38 48  2  0  0  0  0
 40 41  1  0  0  0  0
 41 49  2  0  0  0  0
 41 38  1  0  0  0  0
 42 47  1  0  0  0  0
 42 46  1  0  0  0  0
 43 50  1  0  0  0  0
 44 34  1  0  0  0  0
 44 43  1  0  0  0  0
 45 39  2  0  0  0  0
 45 48  1  0  0  0  0
 46 51  1  0  0  0  0
 47 44  1  0  0  0  0
 49 45  1  0  0  0  0
 50 49  1  0  0  0  0
 51 43  1  0  0  0  0
 51 40  2  0  0  0  0
 52 43  1  0  0  0  0
 52 53  1  0  0  0  0
 55 54  1  0  0  0  0
M  END
>  <MODEL>
2

>  <REMARK>
 VINA RESULT:      -5.9      3.594      6.493
  Name = 
  9 active torsions:
  status: ('A' for Active; 'I' for Inactive)
    1  A    between atoms: O_1  and  C_27
    2  A    between atoms: C_2  and  C_6
    3  A    between atoms: C_2  and  C_34
    4  A    between atoms: C_2  and  C_40
    5  A    between atoms: C_4  and  C_6
    6  A    between atoms: C_4  and  C_52
    7  A    between atoms: O_10  and  C_11
    8  A    between atoms: C_23  and  C_40
    9  A    between atoms: C_30  and  C_42
                            x       y       z     vdW  Elec       q    Type
                         _______ _______ _______ _____ _____    ______ ____

>  <TORSDO>
F 9

$$$$
=
 OpenBabel11062415073D

 55 62  0  0  1  0  0  0  0  0999 V2000
  188.4280  177.9460  140.0640 C   0  0  2  0  0  3  0  0  0  0  0  0
  188.0030  175.2840  137.4030 C   0  0  0  0  0  0  0  0  0  0  0  0
  191.3680  176.4340  137.3260 C   0  0  2  0  0  3  0  0  0  0  0  0
  188.4640  173.1560  136.3190 C   0  0  0  0  0  3  0  0  0  0  0  0
  190.2010  177.2050  136.8400 C   0  0  0  0  0  0  0  0  0  0  0  0
  192.5610  174.6720  134.5940 N   0  0  0  0  0  2  0  0  0  0  0  0
  187.9170  173.6340  135.1290 C   0  0  0  0  0  3  0  0  0  0  0  0
  187.3840  174.9240  135.0750 C   0  0  0  0  0  3  0  0  0  0  0  0
  189.9800  177.2310  135.4920 C   0  0  0  0  0  0  0  0  0  0  0  0
  190.8240  176.3770  134.6000 C   0  0  0  0  0  2  0  0  0  0  0  0
  185.5480  177.0850  135.2900 N   0  0  0  0  0  1  0  0  0  0  0  0
  193.0190  174.9310  136.8150 C   0  0  1  0  0  3  0  0  0  0  0  0
  188.8260  177.9550  134.8330 C   0  0  0  0  0  2  0  0  0  0  0  0
  187.3960  175.7530  136.2100 C   0  0  0  0  0  0  0  0  0  0  0  0
  188.6280  177.2360  138.7570 C   0  0  0  0  0  0  0  0  0  0  0  0
  193.1540  174.1110  135.6060 C   0  0  0  0  0  2  0  0  0  0  0  0
  188.0590  176.0710  138.6000 N   0  0  0  0  0  0  0  0  0  0  0  0
  189.3630  177.8700  137.7400 O   0  0  0  0  0  0  0  0  0  0  0  0
  188.5020  173.9760  137.4490 C   0  0  0  0  0  3  0  0  0  0  0  0
  187.6380  178.2870  135.7440 C   0  0  0  0  0  2  0  0  0  0  0  0
  192.4980  176.2380  136.4000 C   0  0  1  0  0  3  0  0  0  0  0  0
  191.3200  175.4590  138.2250 C   0  0  0  0  0  3  0  0  0  0  0  0
  191.9960  175.8980  135.0480 C   0  0  1  0  0  3  0  0  0  0  0  0
  192.3750  174.4900  137.8900 C   0  0  0  0  0  3  0  0  0  0  0  0
  186.7330  177.1100  136.1350 C   0  0  1  0  0  3  0  0  0  0  0  0
  190.1970  176.4580  140.7220 O   0  0  0  0  0  1  0  0  0  0  0  0
  189.5330  177.6350  141.0850 C   0  0  2  0  0  3  0  0  0  0  0  0
  189.0530  177.5770  142.5160 C   0  0  0  0  0  0  0  0  0  0  0  0
  189.0500  178.5880  143.2050 O   0  0  0  0  0  0  0  0  0  0  0  0
  188.6400  176.2760  143.1350 C   0  0  0  0  0  1  0  0  0  0  0  0
  187.0380  177.7030  140.6460 C   0  0  0  0  0  2  0  0  0  0  0  0
  186.2130  178.9760  140.6050 C   0  0  2  0  0  3  0  0  0  0  0  0
  185.9840  179.4220  141.9120 O   0  0  0  0  0  1  0  0  0  0  0  0
  182.6860  178.2190  141.1000 C   0  0  0  0  0  3  0  0  0  0  0  0
  183.8030  178.4760  140.4840 C   0  0  0  0  0  0  0  0  0  0  0  0
  184.9250  178.7360  139.8690 C   0  0  0  0  0  3  0  0  0  0  0  0
  181.4540  179.8610  142.9830 O   0  0  0  0  0  1  0  0  0  0  0  0
  180.5600  174.2490  137.8810 C   0  0  0  0  0  0  0  0  0  0  0  0
  182.2680  176.4180  135.9450 O   0  0  0  0  0  0  0  0  0  0  0  0
  179.9880  175.6650  140.0630 C   0  0  0  0  0  3  0  0  0  0  0  0
  180.4880  175.4560  138.7060 C   0  0  0  0  0  0  0  0  0  0  0  0
  179.5850  178.4030  142.4870 C   0  0  0  0  0  2  0  0  0  0  0  0
  180.5530  178.0960  139.7670 C   0  0  1  0  0  0  0  0  0  0  0  0
  181.4290  178.9450  140.7170 C   0  0  1  0  0  3  0  0  0  0  0  0
  181.6090  175.8250  136.8370 C   0  0  0  0  0  0  0  0  0  0  0  0
  179.7020  177.0990  141.9170 O   0  0  0  0  0  0  0  0  0  0  0  0
  180.6250  179.4080  141.9530 C   0  0  2  0  0  3  0  0  0  0  0  0
  181.2100  174.4560  136.7720 N   0  0  0  0  0  0  0  0  0  0  0  0
  181.1360  176.4000  138.0750 C   0  0  0  0  0  0  0  0  0  0  0  0
  181.3210  177.6730  138.6150 O   0  0  0  0  0  0  0  0  0  0  0  0
  180.0570  176.8990  140.5840 C   0  0  0  0  0  0  0  0  0  0  0  0
  179.4120  178.8210  139.3430 O   0  0  0  0  0  0  0  0  0  0  0  0
  179.7520  179.6250  138.2420 C   0  0  0  0  0  1  0  0  0  0  0  0
  180.1520  171.8680  137.4240 C   0  0  0  0  0  1  0  0  0  0  0  0
  179.9980  173.0230  138.2350 O   0  0  0  0  0  0  0  0  0  0  0  0
  1 31  1  1  0  0  0
  1 27  1  0  0  0  0
  2 19  1  0  0  0  0
  2 17  1  0  0  0  0
  3 22  1  6  0  0  0
  4 19  2  0  0  0  0
  5  3  1  0  0  0  0
  5 18  1  0  0  0  0
  6 23  1  0  0  0  0
  6 16  1  0  0  0  0
  7  4  1  0  0  0  0
  8  7  2  0  0  0  0
  8 14  1  0  0  0  0
  9  5  2  0  0  0  0
 10 23  1  0  0  0  0
 10  9  1  0  0  0  0
 11 25  1  0  0  0  0
 12 16  1  6  0  0  0
 12 24  1  0  0  0  0
 13  9  1  0  0  0  0
 13 20  1  0  0  0  0
 14  2  2  0  0  0  0
 15  1  1  0  0  0  0
 17 15  2  0  0  0  0
 18 15  1  0  0  0  0
 20 25  1  0  0  0  0
 21 12  1  0  0  0  0
 21  3  1  0  0  0  0
 23 21  1  0  0  0  0
 24 22  2  0  0  0  0
 25 14  1  0  0  0  0
 26 27  1  0  0  0  0
 27 28  1  0  0  0  0
 28 30  1  0  0  0  0
 28 29  2  0  0  0  0
 32 31  1  0  0  0  0
 32 33  1  0  0  0  0
 35 34  2  0  0  0  0
 36 35  2  0  0  0  0
 36 32  1  0  0  0  0
 38 55  1  0  0  0  0
 38 41  1  0  0  0  0
 39 45  2  0  0  0  0
 40 51  2  0  0  0  0
 41 40  1  0  0  0  0
 43 51  1  0  0  0  0
 43 44  1  0  0  0  0
 44 34  1  0  0  0  0
 44 47  1  0  0  0  0
 45 49  1  0  0  0  0
 46 42  1  0  0  0  0
 47 42  1  0  0  0  0
 47 37  1  0  0  0  0
 48 45  1  0  0  0  0
 48 38  2  0  0  0  0
 49 50  1  0  0  0  0
 49 41  2  0  0  0  0
 50 43  1  0  0  0  0
 51 46  1  0  0  0  0
 52 43  1  0  0  0  0
 53 52  1  0  0  0  0
 54 55  1  0  0  0  0
M  END
>  <MODEL>
3

>  <REMARK>
 VINA RESULT:      -5.8      2.660      9.316
  Name = 
  9 active torsions:
  status: ('A' for Active; 'I' for Inactive)
    1  A    between atoms: O_1  and  C_27
    2  A    between atoms: C_2  and  C_6
    3  A    between atoms: C_2  and  C_34
    4  A    between atoms: C_2  and  C_40
    5  A    between atoms: C_4  and  C_6
    6  A    between atoms: C_4  and  C_52
    7  A    between atoms: O_10  and  C_11
    8  A    between atoms: C_23  and  C_40
    9  A    between atoms: C_30  and  C_42
                            x       y       z     vdW  Elec       q    Type
                         _______ _______ _______ _____ _____    ______ ____

>  <TORSDO>
F 9

$$$$
=
 OpenBabel11062415073D

 55 62  0  0  1  0  0  0  0  0999 V2000
  184.1920  178.6460  141.8410 C   0  0  2  0  0  3  0  0  0  0  0  0
  182.5880  177.7000  138.5420 C   0  0  0  0  0  0  0  0  0  0  0  0
  181.2870  180.8460  139.5730 C   0  0  2  0  0  3  0  0  0  0  0  0
  182.0510  177.9910  136.1880 C   0  0  0  0  0  3  0  0  0  0  0  0
  180.9430  179.5460  140.1920 C   0  0  0  0  0  0  0  0  0  0  0  0
  178.9310  181.3830  137.0930 N   0  0  0  0  0  2  0  0  0  0  0  0
  180.9700  177.1200  136.3190 C   0  0  0  0  0  3  0  0  0  0  0  0
  180.7090  176.5120  137.5480 C   0  0  0  0  0  3  0  0  0  0  0  0
  179.7520  178.9750  139.8400 C   0  0  0  0  0  0  0  0  0  0  0  0
  178.9370  179.6060  138.7560 C   0  0  0  0  0  2  0  0  0  0  0  0
  180.8090  174.6660  139.7100 N   0  0  0  0  0  1  0  0  0  0  0  0
  180.7820  182.3950  137.9620 C   0  0  1  0  0  3  0  0  0  0  0  0
  179.2580  177.6450  140.3660 C   0  0  0  0  0  2  0  0  0  0  0  0
  181.5230  176.7710  138.6650 C   0  0  0  0  0  0  0  0  0  0  0  0
  183.1280  178.5370  140.7880 C   0  0  0  0  0  0  0  0  0  0  0  0
  179.8580  182.2570  136.8320 C   0  0  0  0  0  2  0  0  0  0  0  0
  183.4590  178.0210  139.6350 N   0  0  0  0  0  0  0  0  0  0  0  0
  181.8170  178.9360  141.0970 O   0  0  0  0  0  0  0  0  0  0  0  0
  182.8560  178.2740  137.2930 C   0  0  0  0  0  3  0  0  0  0  0  0
  180.3280  176.7220  140.9590 C   0  0  0  0  0  2  0  0  0  0  0  0
  180.1810  181.7010  139.1060 C   0  0  1  0  0  3  0  0  0  0  0  0
  182.3980  181.0990  138.8930 C   0  0  0  0  0  3  0  0  0  0  0  0
  179.1650  180.8820  138.4060 C   0  0  1  0  0  3  0  0  0  0  0  0
  182.0700  182.0860  137.8520 C   0  0  0  0  0  3  0  0  0  0  0  0
  181.2590  176.0280  139.9540 C   0  0  1  0  0  3  0  0  0  0  0  0
  184.8370  180.2860  143.4740 O   0  0  0  0  0  1  0  0  0  0  0  0
  183.7600  179.5090  143.0360 C   0  0  2  0  0  3  0  0  0  0  0  0
  183.1470  178.7260  144.1740 C   0  0  0  0  0  0  0  0  0  0  0  0
  182.0200  178.2620  144.0640 O   0  0  0  0  0  0  0  0  0  0  0  0
  183.8750  178.5640  145.4730 C   0  0  0  0  0  1  0  0  0  0  0  0
  185.5280  179.1070  141.2660 C   0  0  0  0  0  2  0  0  0  0  0  0
  186.5920  178.0440  141.4720 C   0  0  2  0  0  3  0  0  0  0  0  0
  186.9420  177.9950  142.8260 O   0  0  0  0  0  1  0  0  0  0  0  0
  188.6900  176.6100  138.8630 C   0  0  0  0  0  3  0  0  0  0  0  0
  188.2400  177.4680  139.7320 C   0  0  0  0  0  0  0  0  0  0  0  0
  187.7850  178.3290  140.6020 C   0  0  0  0  0  3  0  0  0  0  0  0
  189.3840  179.2720  138.4190 O   0  0  0  0  0  1  0  0  0  0  0  0
  185.0120  173.3920  136.2630 C   0  0  0  0  0  0  0  0  0  0  0  0
  187.9860  171.8050  136.3310 O   0  0  0  0  0  0  0  0  0  0  0  0
  185.6570  175.9580  136.5700 C   0  0  0  0  0  3  0  0  0  0  0  0
  185.9200  174.5350  136.3690 C   0  0  0  0  0  0  0  0  0  0  0  0
  187.5210  179.1150  136.8790 C   0  0  0  0  0  2  0  0  0  0  0  0
  188.1400  176.3140  136.4230 C   0  0  1  0  0  0  0  0  0  0  0  0
  189.0140  177.0510  137.4650 C   0  0  1  0  0  3  0  0  0  0  0  0
  187.0310  172.6250  136.3280 C   0  0  0  0  0  0  0  0  0  0  0  0
  186.4840  178.1350  136.9560 O   0  0  0  0  0  0  0  0  0  0  0  0
  188.9070  178.5840  137.2990 C   0  0  2  0  0  3  0  0  0  0  0  0
  185.6550  172.2610  136.2280 N   0  0  0  0  0  0  0  0  0  0  0  0
  187.1380  174.0620  136.4210 C   0  0  0  0  0  0  0  0  0  0  0  0
  188.2550  174.8810  136.5930 O   0  0  0  0  0  0  0  0  0  0  0  0
  186.7030  176.7960  136.6410 C   0  0  0  0  0  0  0  0  0  0  0  0
  188.5110  176.6730  135.1030 O   0  0  0  0  0  0  0  0  0  0  0  0
  189.8690  176.3710  134.9020 C   0  0  0  0  0  1  0  0  0  0  0  0
  182.7730  172.5730  136.8630 C   0  0  0  0  0  1  0  0  0  0  0  0
  183.6230  173.4990  136.2030 O   0  0  0  0  0  0  0  0  0  0  0  0
  1 31  1  6  0  0  0
  1 27  1  0  0  0  0
  2 14  1  0  0  0  0
  2 17  1  0  0  0  0
  3 22  1  6  0  0  0
  3  5  1  0  0  0  0
  4  7  2  0  0  0  0
  4 19  1  0  0  0  0
  5 18  1  0  0  0  0
  6 23  1  0  0  0  0
  7  8  1  0  0  0  0
  8 14  2  0  0  0  0
  9  5  2  0  0  0  0
  9 13  1  0  0  0  0
 10  9  1  0  0  0  0
 11 25  1  0  0  0  0
 12 16  1  6  0  0  0
 12 21  1  0  0  0  0
 13 20  1  0  0  0  0
 14 25  1  0  0  0  0
 15 18  1  0  0  0  0
 15  1  1  0  0  0  0
 16  6  1  0  0  0  0
 17 15  2  0  0  0  0
 19  2  2  0  0  0  0
 21  3  1  0  0  0  0
 23 10  1  0  0  0  0
 23 21  1  0  0  0  0
 24 12  1  0  0  0  0
 24 22  2  0  0  0  0
 25 20  1  0  0  0  0
 27 26  1  0  0  0  0
 27 28  1  0  0  0  0
 28 30  1  0  0  0  0
 29 28  2  0  0  0  0
 31 32  1  0  0  0  0
 32 33  1  0  0  0  0
 34 35  2  0  0  0  0
 35 36  2  0  0  0  0
 36 32  1  0  0  0  0
 38 41  1  0  0  0  0
 40 51  2  0  0  0  0
 41 49  2  0  0  0  0
 41 40  1  0  0  0  0
 42 46  1  0  0  0  0
 42 47  1  0  0  0  0
 43 50  1  0  0  0  0
 43 51  1  0  0  0  0
 43 44  1  0  0  0  0
 44 34  1  0  0  0  0
 45 39  2  0  0  0  0
 45 49  1  0  0  0  0
 47 44  1  0  0  0  0
 47 37  1  0  0  0  0
 48 38  2  0  0  0  0
 48 45  1  0  0  0  0
 49 50  1  0  0  0  0
 51 46  1  0  0  0  0
 52 43  1  0  0  0  0
 53 52  1  0  0  0  0
 55 38  1  0  0  0  0
 55 54  1  0  0  0  0
M  END
>  <MODEL>
4

>  <REMARK>
 VINA RESULT:      -5.6      2.900      5.135
  Name = 
  9 active torsions:
  status: ('A' for Active; 'I' for Inactive)
    1  A    between atoms: O_1  and  C_27
    2  A    between atoms: C_2  and  C_6
    3  A    between atoms: C_2  and  C_34
    4  A    between atoms: C_2  and  C_40
    5  A    between atoms: C_4  and  C_6
    6  A    between atoms: C_4  and  C_52
    7  A    between atoms: O_10  and  C_11
    8  A    between atoms: C_23  and  C_40
    9  A    between atoms: C_30  and  C_42
                            x       y       z     vdW  Elec       q    Type
                         _______ _______ _______ _____ _____    ______ ____

>  <TORSDO>
F 9

$$$$
=
 OpenBabel11062415073D

 55 62  0  0  1  0  0  0  0  0999 V2000
  185.6370  175.1720  135.9170 C   0  0  2  0  0  3  0  0  0  0  0  0
  182.2130  176.7610  135.5980 C   0  0  0  0  0  0  0  0  0  0  0  0
  183.2790  177.0390  138.9800 C   0  0  2  0  0  3  0  0  0  0  0  0
  180.6100  178.5860  135.7120 C   0  0  0  0  0  3  0  0  0  0  0  0
  182.8330  175.7830  138.3360 C   0  0  0  0  0  0  0  0  0  0  0  0
  180.4530  178.4450  140.4050 N   0  0  0  0  0  2  0  0  0  0  0  0
  179.5590  177.6700  135.7640 C   0  0  0  0  0  3  0  0  0  0  0  0
  179.8240  176.3000  135.7030 C   0  0  0  0  0  3  0  0  0  0  0  0
  181.5590  175.3610  138.5920 C   0  0  0  0  0  0  0  0  0  0  0  0
  180.6440  176.2470  139.3770 C   0  0  0  0  0  2  0  0  0  0  0  0
  180.3380  173.7050  134.6590 N   0  0  0  0  0  1  0  0  0  0  0  0
  182.6740  178.9070  140.1600 C   0  0  1  0  0  3  0  0  0  0  0  0
  180.9420  174.1110  138.0030 C   0  0  0  0  0  2  0  0  0  0  0  0
  181.1440  175.8290  135.5950 C   0  0  0  0  0  0  0  0  0  0  0  0
  184.2470  175.5800  136.3090 C   0  0  0  0  0  0  0  0  0  0  0  0
  181.3230  179.4110  140.4270 C   0  0  0  0  0  2  0  0  0  0  0  0
  183.5860  176.3580  135.4950 N   0  0  0  0  0  0  0  0  0  0  0  0
  183.6940  175.0700  137.4960 O   0  0  0  0  0  0  0  0  0  0  0  0
  181.9270  178.1310  135.6250 C   0  0  0  0  0  3  0  0  0  0  0  0
  181.6220  173.5600  136.7440 C   0  0  0  0  0  2  0  0  0  0  0  0
  182.6170  177.4430  140.2330 C   0  0  1  0  0  3  0  0  0  0  0  0
  183.7640  178.0960  138.3400 C   0  0  0  0  0  3  0  0  0  0  0  0
  181.1550  177.2360  140.1270 C   0  0  1  0  0  3  0  0  0  0  0  0
  183.3670  179.2960  139.0940 C   0  0  0  0  0  3  0  0  0  0  0  0
  181.3830  174.3440  135.4450 C   0  0  1  0  0  3  0  0  0  0  0  0
  184.5200  173.4370  134.6860 O   0  0  0  0  0  1  0  0  0  0  0  0
  185.7040  173.7400  135.3670 C   0  0  2  0  0  3  0  0  0  0  0  0
  186.0240  172.6920  136.4080 C   0  0  0  0  0  0  0  0  0  0  0  0
  185.1590  172.3170  137.1870 O   0  0  0  0  0  0  0  0  0  0  0  0
  187.4130  172.1490  136.5470 C   0  0  0  0  0  1  0  0  0  0  0  0
  186.6420  175.3910  137.0450 C   0  0  0  0  0  2  0  0  0  0  0  0
  187.4190  176.6760  136.8270 C   0  0  2  0  0  3  0  0  0  0  0  0
  188.6710  176.3730  136.2790 O   0  0  0  0  0  1  0  0  0  0  0  0
  189.3210  176.8090  139.9290 C   0  0  0  0  0  3  0  0  0  0  0  0
  188.4350  177.1190  139.0280 C   0  0  0  0  0  0  0  0  0  0  0  0
  187.5490  177.4300  138.1210 C   0  0  0  0  0  3  0  0  0  0  0  0
  192.0890  176.6710  139.6470 O   0  0  0  0  0  1  0  0  0  0  0  0
  186.2220  177.5720  144.4510 C   0  0  0  0  0  0  0  0  0  0  0  0
  185.3040  179.8230  142.1140 O   0  0  0  0  0  0  0  0  0  0  0  0
  188.6930  176.8880  143.7340 C   0  0  0  0  0  3  0  0  0  0  0  0
  187.4550  177.6610  143.6690 C   0  0  0  0  0  0  0  0  0  0  0  0
  191.9680  176.7360  142.0650 C   0  0  0  0  0  2  0  0  0  0  0  0
  189.5680  178.3620  141.8960 C   0  0  1  0  0  0  0  0  0  0  0  0
  190.1680  177.8790  140.5550 C   0  0  1  0  0  3  0  0  0  0  0  0
  185.8860  178.9840  142.8500 C   0  0  0  0  0  0  0  0  0  0  0  0
  190.8150  176.3830  142.8290 O   0  0  0  0  0  0  0  0  0  0  0  0
  191.6370  177.4320  140.7290 C   0  0  2  0  0  3  0  0  0  0  0  0
  185.2920  178.3540  143.9840 N   0  0  0  0  0  0  0  0  0  0  0  0
  187.2400  178.5060  142.6950 C   0  0  0  0  0  0  0  0  0  0  0  0
  188.1940  178.7780  141.7130 O   0  0  0  0  0  0  0  0  0  0  0  0
  189.6760  177.1850  142.8700 C   0  0  0  0  0  0  0  0  0  0  0  0
  190.3260  179.4300  142.4370 O   0  0  0  0  0  0  0  0  0  0  0  0
  190.5640  179.1890  143.8010 C   0  0  0  0  0  1  0  0  0  0  0  0
  186.5620  177.1140  146.8430 C   0  0  0  0  0  1  0  0  0  0  0  0
  186.0580  176.7510  145.5660 O   0  0  0  0  0  0  0  0  0  0  0  0
  1 15  1  0  0  0  0
  1 31  1  1  0  0  0
  2 19  1  0  0  0  0
  3 22  1  6  0  0  0
  3 21  1  0  0  0  0
  4  7  1  0  0  0  0
  5  9  2  0  0  0  0
  5  3  1  0  0  0  0
  6 16  1  0  0  0  0
  8  7  2  0  0  0  0
  9 10  1  0  0  0  0
 10 23  1  0  0  0  0
 11 25  1  0  0  0  0
 12 24  1  6  0  0  0
 12 21  1  0  0  0  0
 12 16  1  0  0  0  0
 13  9  1  0  0  0  0
 14  2  2  0  0  0  0
 14  8  1  0  0  0  0
 15 18  1  0  0  0  0
 17  2  1  0  0  0  0
 17 15  2  0  0  0  0
 18  5  1  0  0  0  0
 19  4  2  0  0  0  0
 20 13  1  0  0  0  0
 22 24  2  0  0  0  0
 23 21  1  0  0  0  0
 23  6  1  0  0  0  0
 25 14  1  0  0  0  0
 25 20  1  0  0  0  0
 26 27  1  0  0  0  0
 27  1  1  0  0  0  0
 27 28  1  0  0  0  0
 28 30  1  0  0  0  0
 28 29  2  0  0  0  0
 32 31  1  0  0  0  0
 32 36  1  0  0  0  0
 33 32  1  0  0  0  0
 34 44  1  0  0  0  0
 35 34  2  0  0  0  0
 36 35  2  0  0  0  0
 37 47  1  0  0  0  0
 38 55  1  0  0  0  0
 39 45  2  0  0  0  0
 41 40  1  0  0  0  0
 41 38  1  0  0  0  0
 42 46  1  0  0  0  0
 43 52  1  0  0  0  0
 43 51  1  0  0  0  0
 44 47  1  0  0  0  0
 44 43  1  0  0  0  0
 45 48  1  0  0  0  0
 46 51  1  0  0  0  0
 47 42  1  0  0  0  0
 48 38  2  0  0  0  0
 49 45  1  0  0  0  0
 49 41  2  0  0  0  0
 50 43  1  0  0  0  0
 50 49  1  0  0  0  0
 51 40  2  0  0  0  0
 52 53  1  0  0  0  0
 55 54  1  0  0  0  0
M  END
>  <MODEL>
5

>  <REMARK>
 VINA RESULT:      -5.3      2.998      7.160
  Name = 
  9 active torsions:
  status: ('A' for Active; 'I' for Inactive)
    1  A    between atoms: O_1  and  C_27
    2  A    between atoms: C_2  and  C_6
    3  A    between atoms: C_2  and  C_34
    4  A    between atoms: C_2  and  C_40
    5  A    between atoms: C_4  and  C_6
    6  A    between atoms: C_4  and  C_52
    7  A    between atoms: O_10  and  C_11
    8  A    between atoms: C_23  and  C_40
    9  A    between atoms: C_30  and  C_42
                            x       y       z     vdW  Elec       q    Type
                         _______ _______ _______ _____ _____    ______ ____

>  <TORSDO>
F 9

$$$$
=
 OpenBabel11062415073D

 55 62  0  0  1  0  0  0  0  0999 V2000
  182.4360  178.0200  139.9410 C   0  0  2  0  0  3  0  0  0  0  0  0
  181.0990  175.4920  137.4570 C   0  0  0  0  0  0  0  0  0  0  0  0
  184.6530  175.4460  137.3170 C   0  0  2  0  0  3  0  0  0  0  0  0
  180.8040  173.2690  136.5150 C   0  0  0  0  0  3  0  0  0  0  0  0
  183.8010  176.5300  136.7780 C   0  0  0  0  0  0  0  0  0  0  0  0
  185.1400  173.2200  134.7100 N   0  0  0  0  0  2  0  0  0  0  0  0
  180.4260  173.8280  135.2950 C   0  0  0  0  0  3  0  0  0  0  0  0
  180.3530  175.2160  135.1550 C   0  0  0  0  0  3  0  0  0  0  0  0
  183.5770  176.5450  135.4310 C   0  0  0  0  0  0  0  0  0  0  0  0
  184.0710  175.4040  134.5990 C   0  0  0  0  0  2  0  0  0  0  0  0
  179.3470  177.8750  135.2230 N   0  0  0  0  0  1  0  0  0  0  0  0
  185.6990  173.4490  136.9100 C   0  0  1  0  0  3  0  0  0  0  0  0
  182.7180  177.5700  134.7220 C   0  0  0  0  0  2  0  0  0  0  0  0
  180.6620  176.0630  136.2340 C   0  0  0  0  0  0  0  0  0  0  0  0
  182.3640  177.2040  138.6840 C   0  0  0  0  0  0  0  0  0  0  0  0
  185.5310  172.5570  135.7580 C   0  0  0  0  0  2  0  0  0  0  0  0
  181.4360  176.2890  138.6010 N   0  0  0  0  0  0  0  0  0  0  0  0
  183.2500  177.4920  137.6310 O   0  0  0  0  0  0  0  0  0  0  0  0
  181.1340  174.0990  137.5890 C   0  0  0  0  0  3  0  0  0  0  0  0
  181.7260  178.3360  135.6050 C   0  0  0  0  0  2  0  0  0  0  0  0
  185.6350  174.8270  136.4100 C   0  0  1  0  0  3  0  0  0  0  0  0
  184.2990  174.6010  138.2780 C   0  0  0  0  0  3  0  0  0  0  0  0
  185.0240  174.5910  135.0820 C   0  0  1  0  0  3  0  0  0  0  0  0
  184.9640  173.3160  138.0100 C   0  0  0  0  0  3  0  0  0  0  0  0
  180.4880  177.5550  136.0690 C   0  0  1  0  0  3  0  0  0  0  0  0
  180.3890  179.1250  139.3390 O   0  0  0  0  0  1  0  0  0  0  0  0
  181.6780  179.3520  139.8320 C   0  0  2  0  0  3  0  0  0  0  0  0
  182.3980  180.4070  139.0250 C   0  0  0  0  0  0  0  0  0  0  0  0
  183.6200  180.4070  138.9650 O   0  0  0  0  0  0  0  0  0  0  0  0
  181.6380  181.5040  138.3450 C   0  0  0  0  0  1  0  0  0  0  0  0
  183.8730  178.2260  140.4140 C   0  0  0  0  0  2  0  0  0  0  0  0
  184.0400  177.7400  141.8420 C   0  0  2  0  0  3  0  0  0  0  0  0
  182.8410  177.9300  142.5390 O   0  0  0  0  0  1  0  0  0  0  0  0
  187.5700  177.4200  142.6730 C   0  0  0  0  0  3  0  0  0  0  0  0
  186.3790  177.9370  142.5900 C   0  0  0  0  0  0  0  0  0  0  0  0
  185.1840  178.4550  142.5040 C   0  0  0  0  0  3  0  0  0  0  0  0
  188.3720  177.5350  140.0070 O   0  0  0  0  0  1  0  0  0  0  0  0
  190.5030  176.3620  147.2470 C   0  0  0  0  0  0  0  0  0  0  0  0
  188.8130  179.2470  147.6840 O   0  0  0  0  0  0  0  0  0  0  0  0
  190.6430  176.1070  144.5990 C   0  0  0  0  0  3  0  0  0  0  0  0
  190.3390  176.7870  145.8560 C   0  0  0  0  0  0  0  0  0  0  0  0
  190.4380  176.7280  140.9790 C   0  0  0  0  0  2  0  0  0  0  0  0
  189.8500  178.1810  143.4230 C   0  0  1  0  0  0  0  0  0  0  0  0
  188.7760  178.2390  142.3130 C   0  0  1  0  0  3  0  0  0  0  0  0
  189.4200  178.2330  147.2530 C   0  0  0  0  0  0  0  0  0  0  0  0
  190.5380  176.0670  142.2410 O   0  0  0  0  0  0  0  0  0  0  0  0
  189.3660  177.8350  140.9430 C   0  0  2  0  0  3  0  0  0  0  0  0
  189.9740  177.2110  148.0800 N   0  0  0  0  0  0  0  0  0  0  0  0
  189.6710  177.9120  145.8680 C   0  0  0  0  0  0  0  0  0  0  0  0
  189.2800  178.5640  144.6980 O   0  0  0  0  0  0  0  0  0  0  0  0
  190.3730  176.7420  143.4490 C   0  0  0  0  0  0  0  0  0  0  0  0
  190.9460  179.0240  143.1150 O   0  0  0  0  0  0  0  0  0  0  0  0
  191.0740  180.0080  144.1110 C   0  0  0  0  0  1  0  0  0  0  0  0
  192.5310  175.1750  147.9710 C   0  0  0  0  0  1  0  0  0  0  0  0
  191.1510  175.1910  147.6370 O   0  0  0  0  0  0  0  0  0  0  0  0
  1 31  1  6  0  0  0
  2 19  1  0  0  0  0
  2 17  1  0  0  0  0
  3 22  1  6  0  0  0
  4 19  2  0  0  0  0
  5  3  1  0  0  0  0
  5 18  1  0  0  0  0
  6 23  1  0  0  0  0
  6 16  1  0  0  0  0
  7  4  1  0  0  0  0
  8  7  2  0  0  0  0
  8 14  1  0  0  0  0
  9  5  2  0  0  0  0
 10 23  1  0  0  0  0
 10  9  1  0  0  0  0
 11 25  1  0  0  0  0
 12 16  1  6  0  0  0
 12 24  1  0  0  0  0
 13  9  1  0  0  0  0
 13 20  1  0  0  0  0
 14  2  2  0  0  0  0
 15  1  1  0  0  0  0
 17 15  2  0  0  0  0
 18 15  1  0  0  0  0
 20 25  1  0  0  0  0
 21 12  1  0  0  0  0
 21  3  1  0  0  0  0
 23 21  1  0  0  0  0
 24 22  2  0  0  0  0
 25 14  1  0  0  0  0
 26 27  1  0  0  0  0
 27  1  1  0  0  0  0
 28 27  1  0  0  0  0
 29 28  2  0  0  0  0
 30 28  1  0  0  0  0
 31 32  1  0  0  0  0
 32 36  1  0  0  0  0
 32 33  1  0  0  0  0
 35 34  2  0  0  0  0
 36 35  2  0  0  0  0
 37 47  1  0  0  0  0
 38 55  1  0  0  0  0
 38 48  2  0  0  0  0
 40 41  1  0  0  0  0
 41 49  2  0  0  0  0
 41 38  1  0  0  0  0
 42 46  1  0  0  0  0
 43 51  1  0  0  0  0
 43 50  1  0  0  0  0
 44 34  1  0  0  0  0
 44 43  1  0  0  0  0
 45 39  2  0  0  0  0
 45 48  1  0  0  0  0
 46 51  1  0  0  0  0
 47 42  1  0  0  0  0
 47 44  1  0  0  0  0
 49 45  1  0  0  0  0
 50 49  1  0  0  0  0
 51 40  2  0  0  0  0
 52 43  1  0  0  0  0
 52 53  1  0  0  0  0
 55 54  1  0  0  0  0
M  END
>  <MODEL>
6

>  <REMARK>
 VINA RESULT:      -5.3      3.703      6.271
  Name = 
  9 active torsions:
  status: ('A' for Active; 'I' for Inactive)
    1  A    between atoms: O_1  and  C_27
    2  A    between atoms: C_2  and  C_6
    3  A    between atoms: C_2  and  C_34
    4  A    between atoms: C_2  and  C_40
    5  A    between atoms: C_4  and  C_6
    6  A    between atoms: C_4  and  C_52
    7  A    between atoms: O_10  and  C_11
    8  A    between atoms: C_23  and  C_40
    9  A    between atoms: C_30  and  C_42
                            x       y       z     vdW  Elec       q    Type
                         _______ _______ _______ _____ _____    ______ ____

>  <TORSDO>
F 9

$$$$
=
 OpenBabel11062415073D

 55 62  0  0  1  0  0  0  0  0999 V2000
  184.7550  178.5520  140.6200 C   0  0  2  0  0  3  0  0  0  0  0  0
  181.5270  176.6710  139.9920 C   0  0  0  0  0  0  0  0  0  0  0  0
  182.0050  179.0100  137.3560 C   0  0  2  0  0  3  0  0  0  0  0  0
  180.0270  175.2210  138.7420 C   0  0  0  0  0  3  0  0  0  0  0  0
  181.6110  179.3650  138.7380 C   0  0  0  0  0  0  0  0  0  0  0  0
  179.0540  178.5720  135.5970 N   0  0  0  0  0  2  0  0  0  0  0  0
  178.9360  175.7280  139.4480 C   0  0  0  0  0  3  0  0  0  0  0  0
  179.1340  176.6830  140.4480 C   0  0  0  0  0  3  0  0  0  0  0  0
  180.2910  179.6340  138.9680 C   0  0  0  0  0  0  0  0  0  0  0  0
  179.3030  179.4180  137.8660 C   0  0  0  0  0  2  0  0  0  0  0  0
  179.6820  177.8450  142.9850 N   0  0  0  0  0  1  0  0  0  0  0  0
  181.3060  178.4350  135.2520 C   0  0  1  0  0  3  0  0  0  0  0  0
  179.7200  179.9950  140.3220 C   0  0  0  0  0  2  0  0  0  0  0  0
  180.4260  177.1470  140.7500 C   0  0  0  0  0  0  0  0  0  0  0  0
  183.3420  178.3170  140.1720 C   0  0  0  0  0  0  0  0  0  0  0  0
  179.9580  178.0530  134.8180 C   0  0  0  0  0  2  0  0  0  0  0  0
  182.8730  177.1000  140.2370 N   0  0  0  0  0  0  0  0  0  0  0  0
  182.5650  179.4130  139.7590 O   0  0  0  0  0  0  0  0  0  0  0  0
  181.3130  175.6890  139.0170 C   0  0  0  0  0  3  0  0  0  0  0  0
  180.5770  179.6090  141.5330 C   0  0  0  0  0  2  0  0  0  0  0  0
  181.1590  179.4980  136.2520 C   0  0  1  0  0  3  0  0  0  0  0  0
  182.6490  177.9040  137.0040 C   0  0  0  0  0  3  0  0  0  0  0  0
  179.7280  179.3330  136.5950 C   0  0  1  0  0  3  0  0  0  0  0  0
  182.1920  177.5310  135.6560 C   0  0  0  0  0  3  0  0  0  0  0  0
  180.6080  178.1170  141.8950 C   0  0  1  0  0  3  0  0  0  0  0  0
  185.9500  180.1270  141.9840 O   0  0  0  0  0  1  0  0  0  0  0  0
  184.8380  179.2790  141.9700 C   0  0  2  0  0  3  0  0  0  0  0  0
  184.8330  178.3590  143.1690 C   0  0  0  0  0  0  0  0  0  0  0  0
  185.5680  177.3810  143.1970 O   0  0  0  0  0  0  0  0  0  0  0  0
  183.8850  178.5870  144.3060 C   0  0  0  0  0  1  0  0  0  0  0  0
  185.5910  179.2490  139.5510 C   0  0  0  0  0  2  0  0  0  0  0  0
  186.0980  178.2470  138.5310 C   0  0  2  0  0  3  0  0  0  0  0  0
  185.1350  177.2470  138.3460 O   0  0  0  0  0  1  0  0  0  0  0  0
  188.5830  178.4080  141.1870 C   0  0  0  0  0  3  0  0  0  0  0  0
  188.0010  178.0410  140.0830 C   0  0  0  0  0  0  0  0  0  0  0  0
  187.4130  177.6720  138.9770 C   0  0  0  0  0  3  0  0  0  0  0  0
  188.6820  179.0010  143.9070 O   0  0  0  0  0  1  0  0  0  0  0  0
  192.4840  176.3780  137.8250 C   0  0  0  0  0  0  0  0  0  0  0  0
  189.7070  174.4870  137.5330 O   0  0  0  0  0  0  0  0  0  0  0  0
  192.2100  177.5380  140.2060 C   0  0  0  0  0  3  0  0  0  0  0  0
  191.8610  176.6160  139.1270 C   0  0  0  0  0  0  0  0  0  0  0  0
  191.0210  178.4740  143.5590 C   0  0  0  0  0  2  0  0  0  0  0  0
  190.2790  176.5730  141.4930 C   0  0  1  0  0  0  0  0  0  0  0  0
  189.1250  177.3770  142.1340 C   0  0  1  0  0  3  0  0  0  0  0  0
  190.6400  175.2510  137.8900 C   0  0  0  0  0  0  0  0  0  0  0  0
  191.6800  178.5060  142.2930 O   0  0  0  0  0  0  0  0  0  0  0  0
  189.5570  177.9960  143.4830 C   0  0  2  0  0  3  0  0  0  0  0  0
  191.7780  175.5670  137.0900 N   0  0  0  0  0  0  0  0  0  0  0  0
  190.7410  175.9430  139.1540 C   0  0  0  0  0  0  0  0  0  0  0  0
  189.8570  176.0000  140.2320 O   0  0  0  0  0  0  0  0  0  0  0  0
  191.4420  177.5530  141.3060 C   0  0  0  0  0  0  0  0  0  0  0  0
  190.7270  175.5460  142.3610 O   0  0  0  0  0  0  0  0  0  0  0  0
  189.6290  175.0090  143.0550 C   0  0  0  0  0  1  0  0  0  0  0  0
  194.3960  176.4670  136.2820 C   0  0  0  0  0  1  0  0  0  0  0  0
  193.6900  176.9460  137.4160 O   0  0  0  0  0  0  0  0  0  0  0  0
  1 31  1  6  0  0  0
  1 27  1  0  0  0  0
  2 17  1  0  0  0  0
  2 14  1  0  0  0  0
  3 22  1  1  0  0  0
  3  5  1  0  0  0  0
  4 19  1  0  0  0  0
  4  7  2  0  0  0  0
  5  9  2  0  0  0  0
  5 18  1  0  0  0  0
  6 23  1  0  0  0  0
  7  8  1  0  0  0  0
  8 14  2  0  0  0  0
  9 13  1  0  0  0  0
 10  9  1  0  0  0  0
 12 16  1  1  0  0  0
 12 24  1  0  0  0  0
 12 21  1  0  0  0  0
 13 20  1  0  0  0  0
 14 25  1  0  0  0  0
 15 17  2  0  0  0  0
 15  1  1  0  0  0  0
 16  6  1  0  0  0  0
 18 15  1  0  0  0  0
 19  2  2  0  0  0  0
 20 25  1  0  0  0  0
 21 23  1  0  0  0  0
 21  3  1  0  0  0  0
 23 10  1  0  0  0  0
 24 22  2  0  0  0  0
 25 11  1  0  0  0  0
 27 26  1  0  0  0  0
 27 28  1  0  0  0  0
 28 29  2  0  0  0  0
 28 30  1  0  0  0  0
 32 36  1  0  0  0  0
 32 31  1  0  0  0  0
 33 32  1  0  0  0  0
 34 44  1  0  0  0  0
 35 34  2  0  0  0  0
 36 35  2  0  0  0  0
 38 41  1  0  0  0  0
 39 45  2  0  0  0  0
 40 51  2  0  0  0  0
 41 49  2  0  0  0  0
 41 40  1  0  0  0  0
 43 44  1  0  0  0  0
 43 52  1  0  0  0  0
 44 47  1  0  0  0  0
 45 49  1  0  0  0  0
 46 42  1  0  0  0  0
 47 42  1  0  0  0  0
 47 37  1  0  0  0  0
 48 38  2  0  0  0  0
 48 45  1  0  0  0  0
 49 50  1  0  0  0  0
 50 43  1  0  0  0  0
 51 43  1  0  0  0  0
 51 46  1  0  0  0  0
 52 53  1  0  0  0  0
 54 55  1  0  0  0  0
 55 38  1  0  0  0  0
M  END
>  <MODEL>
7

>  <REMARK>
 VINA RESULT:      -5.0      2.127      4.065
  Name = 
  9 active torsions:
  status: ('A' for Active; 'I' for Inactive)
    1  A    between atoms: O_1  and  C_27
    2  A    between atoms: C_2  and  C_6
    3  A    between atoms: C_2  and  C_34
    4  A    between atoms: C_2  and  C_40
    5  A    between atoms: C_4  and  C_6
    6  A    between atoms: C_4  and  C_52
    7  A    between atoms: O_10  and  C_11
    8  A    between atoms: C_23  and  C_40
    9  A    between atoms: C_30  and  C_42
                            x       y       z     vdW  Elec       q    Type
                         _______ _______ _______ _____ _____    ______ ____

>  <TORSDO>
F 9

$$$$
=
 OpenBabel11062415073D

 55 62  0  0  1  0  0  0  0  0999 V2000
  184.1690  178.8100  140.8490 C   0  0  2  0  0  3  0  0  0  0  0  0
  181.3300  176.5050  139.8620 C   0  0  0  0  0  0  0  0  0  0  0  0
  181.7000  178.9880  137.3420 C   0  0  2  0  0  3  0  0  0  0  0  0
  180.1870  174.9000  138.4360 C   0  0  0  0  0  3  0  0  0  0  0  0
  181.1290  179.2280  138.6870 C   0  0  0  0  0  0  0  0  0  0  0  0
  179.0240  178.1920  135.2920 N   0  0  0  0  0  2  0  0  0  0  0  0
  178.9710  175.2150  139.0440 C   0  0  0  0  0  3  0  0  0  0  0  0
  178.9310  176.1500  140.0800 C   0  0  0  0  0  3  0  0  0  0  0  0
  179.7690  179.2930  138.7930 C   0  0  0  0  0  0  0  0  0  0  0  0
  178.9310  178.9770  137.5950 C   0  0  0  0  0  2  0  0  0  0  0  0
  179.0600  177.2820  142.6860 N   0  0  0  0  0  1  0  0  0  0  0  0
  181.2940  178.3980  135.1660 C   0  0  1  0  0  3  0  0  0  0  0  0
  179.0260  179.5140  140.0920 C   0  0  0  0  0  2  0  0  0  0  0  0
  180.1050  176.7860  140.5190 C   0  0  0  0  0  0  0  0  0  0  0  0
  182.8550  178.3900  140.2590 C   0  0  0  0  0  0  0  0  0  0  0  0
  180.0640  177.8400  134.5940 C   0  0  0  0  0  2  0  0  0  0  0  0
  182.5690  177.1160  140.2480 N   0  0  0  0  0  0  0  0  0  0  0  0
  181.9660  179.3760  139.7980 O   0  0  0  0  0  0  0  0  0  0  0  0
  181.3580  175.5400  138.8470 C   0  0  0  0  0  3  0  0  0  0  0  0
  179.8140  179.2110  141.3720 C   0  0  0  0  0  2  0  0  0  0  0  0
  180.8980  179.3890  136.1720 C   0  0  1  0  0  3  0  0  0  0  0  0
  182.5310  178.0020  137.0290 C   0  0  0  0  0  3  0  0  0  0  0  0
  179.4810  179.0040  136.3700 C   0  0  1  0  0  3  0  0  0  0  0  0
  182.2620  177.6180  135.6340 C   0  0  0  0  0  3  0  0  0  0  0  0
  180.0330  177.7270  141.7000 C   0  0  1  0  0  3  0  0  0  0  0  0
  184.4740  180.3930  139.0660 O   0  0  0  0  0  1  0  0  0  0  0  0
  185.1280  179.4010  139.8040 C   0  0  2  0  0  3  0  0  0  0  0  0
  185.7650  178.3720  138.8990 C   0  0  0  0  0  0  0  0  0  0  0  0
  186.8690  177.9170  139.1680 O   0  0  0  0  0  0  0  0  0  0  0  0
  185.0930  177.9450  137.6310 C   0  0  0  0  0  1  0  0  0  0  0  0
  184.8280  177.6900  141.6490 C   0  0  0  0  0  2  0  0  0  0  0  0
  184.8050  178.0090  143.1320 C   0  0  2  0  0  3  0  0  0  0  0  0
  184.0260  179.1520  143.3480 O   0  0  0  0  0  1  0  0  0  0  0  0
  188.2960  177.3490  142.3360 C   0  0  0  0  0  3  0  0  0  0  0  0
  187.2530  177.7680  142.9920 C   0  0  0  0  0  0  0  0  0  0  0  0
  186.2050  178.1900  143.6470 C   0  0  0  0  0  3  0  0  0  0  0  0
  189.4530  177.5410  139.8090 O   0  0  0  0  0  1  0  0  0  0  0  0
  190.6250  176.4470  147.2760 C   0  0  0  0  0  0  0  0  0  0  0  0
  188.7000  179.2090  147.4710 O   0  0  0  0  0  0  0  0  0  0  0  0
  191.1500  176.2250  144.6740 C   0  0  0  0  0  3  0  0  0  0  0  0
  190.6280  176.8730  145.8760 C   0  0  0  0  0  0  0  0  0  0  0  0
  191.4130  176.8650  141.0610 C   0  0  0  0  0  2  0  0  0  0  0  0
  190.3920  178.2530  143.3980 C   0  0  1  0  0  0  0  0  0  0  0  0
  189.4820  178.2500  142.1480 C   0  0  1  0  0  3  0  0  0  0  0  0
  189.4280  178.2410  147.1300 C   0  0  0  0  0  0  0  0  0  0  0  0
  191.3790  176.2010  142.3250 O   0  0  0  0  0  0  0  0  0  0  0  0
  190.2830  177.8990  140.8750 C   0  0  2  0  0  3  0  0  0  0  0  0
  189.9290  177.2510  148.0270 N   0  0  0  0  0  0  0  0  0  0  0  0
  189.8920  177.9500  145.7930 C   0  0  0  0  0  0  0  0  0  0  0  0
  189.6250  178.5860  144.5800 O   0  0  0  0  0  0  0  0  0  0  0  0
  191.0020  176.8520  143.4970 C   0  0  0  0  0  0  0  0  0  0  0  0
  191.4610  179.1700  143.2460 O   0  0  0  0  0  0  0  0  0  0  0  0
  191.6400  179.8820  144.4450 C   0  0  0  0  0  1  0  0  0  0  0  0
  192.6870  175.1420  147.5770 C   0  0  0  0  0  1  0  0  0  0  0  0
  191.2890  175.3180  147.7530 O   0  0  0  0  0  0  0  0  0  0  0  0
  1 31  1  6  0  0  0
  2 17  1  0  0  0  0
  2 14  1  0  0  0  0
  3 22  1  6  0  0  0
  3  5  1  0  0  0  0
  4 19  1  0  0  0  0
  4  7  2  0  0  0  0
  5  9  2  0  0  0  0
  5 18  1  0  0  0  0
  6 23  1  0  0  0  0
  7  8  1  0  0  0  0
  8 14  2  0  0  0  0
  9 13  1  0  0  0  0
 10  9  1  0  0  0  0
 12 16  1  1  0  0  0
 12 24  1  0  0  0  0
 12 21  1  0  0  0  0
 13 20  1  0  0  0  0
 14 25  1  0  0  0  0
 15  1  1  0  0  0  0
 16  6  1  0  0  0  0
 17 15  2  0  0  0  0
 18 15  1  0  0  0  0
 19  2  2  0  0  0  0
 20 25  1  0  0  0  0
 21 23  1  0  0  0  0
 21  3  1  0  0  0  0
 23 10  1  0  0  0  0
 24 22  2  0  0  0  0
 25 11  1  0  0  0  0
 26 27  1  0  0  0  0
 27  1  1  0  0  0  0
 28 29  2  0  0  0  0
 28 27  1  0  0  0  0
 30 28  1  0  0  0  0
 31 32  1  0  0  0  0
 32 33  1  0  0  0  0
 32 36  1  0  0  0  0
 34 35  2  0  0  0  0
 35 36  2  0  0  0  0
 37 47  1  0  0  0  0
 38 55  1  0  0  0  0
 38 48  2  0  0  0  0
 40 41  1  0  0  0  0
 41 38  1  0  0  0  0
 42 46  1  0  0  0  0
 43 51  1  0  0  0  0
 43 50  1  0  0  0  0
 44 34  1  0  0  0  0
 44 43  1  0  0  0  0
 45 39  2  0  0  0  0
 45 48  1  0  0  0  0
 46 51  1  0  0  0  0
 47 42  1  0  0  0  0
 47 44  1  0  0  0  0
 49 41  2  0  0  0  0
 49 45  1  0  0  0  0
 50 49  1  0  0  0  0
 51 40  2  0  0  0  0
 52 43  1  0  0  0  0
 52 53  1  0  0  0  0
 54 55  1  0  0  0  0
M  END
>  <MODEL>
8

>  <REMARK>
 VINA RESULT:      -5.0      3.699      5.945
  Name = 
  9 active torsions:
  status: ('A' for Active; 'I' for Inactive)
    1  A    between atoms: O_1  and  C_27
    2  A    between atoms: C_2  and  C_6
    3  A    between atoms: C_2  and  C_34
    4  A    between atoms: C_2  and  C_40
    5  A    between atoms: C_4  and  C_6
    6  A    between atoms: C_4  and  C_52
    7  A    between atoms: O_10  and  C_11
    8  A    between atoms: C_23  and  C_40
    9  A    between atoms: C_30  and  C_42
                            x       y       z     vdW  Elec       q    Type
                         _______ _______ _______ _____ _____    ______ ____

>  <TORSDO>
F 9

$$$$
=
 OpenBabel11062415073D

 55 62  0  0  1  0  0  0  0  0999 V2000
  185.5340  177.1110  136.3310 C   0  0  2  0  0  3  0  0  0  0  0  0
  181.7980  177.4350  135.7960 C   0  0  0  0  0  0  0  0  0  0  0  0
  182.4850  177.8510  139.2610 C   0  0  2  0  0  3  0  0  0  0  0  0
  179.6540  178.5830  135.8480 C   0  0  0  0  0  3  0  0  0  0  0  0
  182.5470  176.5610  138.5360 C   0  0  0  0  0  0  0  0  0  0  0  0
  179.2620  178.1010  140.5040 N   0  0  0  0  0  2  0  0  0  0  0  0
  178.9880  177.3590  135.7810 C   0  0  0  0  0  3  0  0  0  0  0  0
  179.7180  176.1720  135.6900 C   0  0  0  0  0  3  0  0  0  0  0  0
  181.4870  175.7100  138.6730 C   0  0  0  0  0  0  0  0  0  0  0  0
  180.2730  176.1740  139.4140 C   0  0  0  0  0  2  0  0  0  0  0  0
  181.1700  173.9860  134.5950 N   0  0  0  0  0  1  0  0  0  0  0  0
  181.1930  179.3170  140.4570 C   0  0  1  0  0  3  0  0  0  0  0  0
  181.3830  174.3640  137.9890 C   0  0  0  0  0  2  0  0  0  0  0  0
  181.1230  176.1930  135.6710 C   0  0  0  0  0  0  0  0  0  0  0  0
  184.0670  176.9880  136.6240 C   0  0  0  0  0  0  0  0  0  0  0  0
  179.7370  179.3050  140.6330 C   0  0  0  0  0  2  0  0  0  0  0  0
  183.2280  177.5390  135.7880 N   0  0  0  0  0  0  0  0  0  0  0  0
  183.6530  176.2440  137.7420 O   0  0  0  0  0  0  0  0  0  0  0  0
  181.0500  178.6180  135.8510 C   0  0  0  0  0  3  0  0  0  0  0  0
  182.2900  174.1620  136.7700 C   0  0  0  0  0  2  0  0  0  0  0  0
  181.6460  177.9220  140.4710 C   0  0  1  0  0  3  0  0  0  0  0  0
  182.6090  179.0480  138.7020 C   0  0  0  0  0  3  0  0  0  0  0  0
  180.3580  177.2290  140.2390 C   0  0  1  0  0  3  0  0  0  0  0  0
  181.7720  179.9870  139.4660 C   0  0  0  0  0  3  0  0  0  0  0  0
  181.8750  174.8950  135.4860 C   0  0  1  0  0  3  0  0  0  0  0  0
  185.3490  175.0860  135.0500 O   0  0  0  0  0  1  0  0  0  0  0  0
  185.9540  176.3470  135.0660 C   0  0  2  0  0  3  0  0  0  0  0  0
  187.4490  176.2440  134.8750 C   0  0  0  0  0  0  0  0  0  0  0  0
  188.0120  175.1640  135.0020 O   0  0  0  0  0  0  0  0  0  0  0  0
  188.2730  177.4630  134.5970 C   0  0  0  0  0  1  0  0  0  0  0  0
  186.3960  176.7300  137.5320 C   0  0  0  0  0  2  0  0  0  0  0  0
  186.9430  177.9720  138.2100 C   0  0  2  0  0  3  0  0  0  0  0  0
  187.0600  179.0010  137.2690 O   0  0  0  0  0  1  0  0  0  0  0  0
  188.8000  178.3620  141.3190 C   0  0  0  0  0  3  0  0  0  0  0  0
  188.5330  178.0160  140.0930 C   0  0  0  0  0  0  0  0  0  0  0  0
  188.2620  177.6680  138.8640 C   0  0  0  0  0  3  0  0  0  0  0  0
  188.9510  179.0070  144.0250 O   0  0  0  0  0  1  0  0  0  0  0  0
  192.6840  176.4360  137.8780 C   0  0  0  0  0  0  0  0  0  0  0  0
  189.9820  174.4260  137.6990 O   0  0  0  0  0  0  0  0  0  0  0  0
  192.4310  177.6260  140.2470 C   0  0  0  0  0  3  0  0  0  0  0  0
  192.0900  176.6720  139.1940 C   0  0  0  0  0  0  0  0  0  0  0  0
  191.2990  178.5720  143.6170 C   0  0  0  0  0  2  0  0  0  0  0  0
  190.5800  176.6050  141.6050 C   0  0  1  0  0  0  0  0  0  0  0  0
  189.4110  177.3710  142.2660 C   0  0  1  0  0  3  0  0  0  0  0  0
  190.8920  175.2350  138.0170 C   0  0  0  0  0  0  0  0  0  0  0  0
  191.9200  178.6090  142.3320 O   0  0  0  0  0  0  0  0  0  0  0  0
  189.8550  178.0320  143.5920 C   0  0  2  0  0  3  0  0  0  0  0  0
  191.9930  175.5840  137.1780 N   0  0  0  0  0  0  0  0  0  0  0  0
  191.0000  175.9530  139.2650 C   0  0  0  0  0  0  0  0  0  0  0  0
  190.1460  175.9920  140.3680 O   0  0  0  0  0  0  0  0  0  0  0  0
  191.6940  177.6290  141.3680 C   0  0  0  0  0  0  0  0  0  0  0  0
  191.0950  175.6130  142.4770 O   0  0  0  0  0  0  0  0  0  0  0  0
  190.0340  174.9990  143.1650 C   0  0  0  0  0  1  0  0  0  0  0  0
  194.3750  176.7930  136.1290 C   0  0  0  0  0  1  0  0  0  0  0  0
  193.8530  177.0470  137.4250 O   0  0  0  0  0  0  0  0  0  0  0  0
  1 15  1  0  0  0  0
  1 31  1  1  0  0  0
  2 19  1  0  0  0  0
  3 22  1  6  0  0  0
  3 21  1  0  0  0  0
  4 19  2  0  0  0  0
  5  9  2  0  0  0  0
  5  3  1  0  0  0  0
  6 16  1  0  0  0  0
  7  4  1  0  0  0  0
  8  7  2  0  0  0  0
  9 10  1  0  0  0  0
 10 23  1  0  0  0  0
 11 25  1  0  0  0  0
 12 24  1  6  0  0  0
 12 21  1  0  0  0  0
 12 16  1  0  0  0  0
 13  9  1  0  0  0  0
 14  8  1  0  0  0  0
 14  2  2  0  0  0  0
 15 18  1  0  0  0  0
 17  2  1  0  0  0  0
 17 15  2  0  0  0  0
 18  5  1  0  0  0  0
 20 13  1  0  0  0  0
 22 24  2  0  0  0  0
 23 21  1  0  0  0  0
 23  6  1  0  0  0  0
 25 14  1  0  0  0  0
 25 20  1  0  0  0  0
 26 27  1  0  0  0  0
 27  1  1  0  0  0  0
 28 29  2  0  0  0  0
 28 27  1  0  0  0  0
 30 28  1  0  0  0  0
 31 32  1  0  0  0  0
 32 36  1  0  0  0  0
 33 32  1  0  0  0  0
 34 44  1  0  0  0  0
 35 34  2  0  0  0  0
 36 35  2  0  0  0  0
 38 41  1  0  0  0  0
 39 45  2  0  0  0  0
 40 51  2  0  0  0  0
 41 49  2  0  0  0  0
 41 40  1  0  0  0  0
 43 44  1  0  0  0  0
 43 52  1  0  0  0  0
 44 47  1  0  0  0  0
 45 49  1  0  0  0  0
 46 42  1  0  0  0  0
 47 42  1  0  0  0  0
 47 37  1  0  0  0  0
 48 38  2  0  0  0  0
 48 45  1  0  0  0  0
 49 50  1  0  0  0  0
 50 43  1  0  0  0  0
 51 43  1  0  0  0  0
 51 46  1  0  0  0  0
 52 53  1  0  0  0  0
 54 55  1  0  0  0  0
 55 38  1  0  0  0  0
M  END
>  <MODEL>
9

>  <REMARK>
 VINA RESULT:      -4.8      2.333      5.913
  Name = 
  9 active torsions:
  status: ('A' for Active; 'I' for Inactive)
    1  A    between atoms: O_1  and  C_27
    2  A    between atoms: C_2  and  C_6
    3  A    between atoms: C_2  and  C_34
    4  A    between atoms: C_2  and  C_40
    5  A    between atoms: C_4  and  C_6
    6  A    between atoms: C_4  and  C_52
    7  A    between atoms: O_10  and  C_11
    8  A    between atoms: C_23  and  C_40
    9  A    between atoms: C_30  and  C_42
                            x       y       z     vdW  Elec       q    Type
                         _______ _______ _______ _____ _____    ______ ____

>  <TORSDO>
F 9

$$$$
