=
 OpenBabel11062413333D

 28 29  0  0  1  0  0  0  0  0999 V2000
  187.5270  177.1800  144.1520 C   0  0  0  0  0  0  0  0  0  0  0  0
  187.9630  177.7440  146.4820 C   0  0  0  0  0  0  0  0  0  0  0  0
  188.3890  177.2180  145.2520 C   0  0  0  0  0  3  0  0  0  0  0  0
  186.2320  177.6920  144.2640 C   0  0  0  0  0  3  0  0  0  0  0  0
  185.7950  178.2270  145.4790 C   0  0  0  0  0  0  0  0  0  0  0  0
  186.6590  178.2560  146.5800 C   0  0  0  0  0  3  0  0  0  0  0  0
  188.8550  177.8060  147.6140 N   0  0  0  0  0  0  0  0  0  0  0  0
  188.3120  178.0670  148.9390 C   0  0  0  0  0  1  0  0  0  0  0  0
  190.2520  177.6590  147.5060 N   0  0  0  0  0  2  0  0  0  0  0  0
  190.9220  176.3980  147.5030 C   0  0  0  0  0  3  0  0  0  0  0  0
  191.8770  176.1580  146.6190 C   0  0  0  0  0  2  0  0  0  0  0  0
  184.4120  178.7770  145.5900 C   0  0  0  0  0  2  0  0  0  0  0  0
  184.0230  179.5890  144.3560 C   0  0  0  0  0  2  0  0  0  0  0  0
  181.9270  180.0520  143.3210 O   0  0  0  0  0  1  0  0  0  0  0  0
  182.1450  178.0820  144.4000 F   0  0  0  0  0  0  0  0  0  0  0  0
  182.8110  179.0130  143.6100 C   0  0  2  0  0  0  0  0  0  0  0  0
  183.2190  178.4360  142.3870 O   0  0  0  0  0  0  0  0  0  0  0  0
  182.1980  178.6060  141.4360 C   0  0  0  0  0  1  0  0  0  0  0  0
  188.0070  176.6360  142.8510 C   0  0  0  0  0  2  0  0  0  0  0  0
  189.3410  177.7080  141.0000 C   0  0  0  0  0  0  0  0  0  0  0  0
  189.6910  178.2310  138.6470 O   0  0  0  0  0  1  0  0  0  0  0  0
  190.5460  177.2790  141.2430 N   0  0  0  0  0  0  0  0  0  0  0  0
  187.1680  178.3710  141.1920 C   0  0  0  0  0  3  0  0  0  0  0  0
  188.2650  177.7190  141.9120 N   0  0  0  0  0  0  0  0  0  0  0  0
  187.5990  178.6240  139.7980 N   0  0  0  0  0  0  0  0  0  0  0  0
  188.9550  178.2710  139.7810 N   0  0  0  0  0  0  0  0  0  0  0  0
  191.5630  177.8300  143.3240 N   0  0  0  0  0  1  0  0  0  0  0  0
  190.9900  176.7580  142.5280 C   0  0  0  0  0  2  0  0  0  0  0  0
  1  4  2  0  0  0  0
  1  3  1  0  0  0  0
  2  6  1  0  0  0  0
  2  7  1  0  0  0  0
  3  2  2  0  0  0  0
  4  5  1  0  0  0  0
  5 12  1  0  0  0  0
  5  6  2  0  0  0  0
  7  8  1  0  0  0  0
  9  7  1  0  0  0  0
 10  9  1  0  0  0  0
 11 10  2  0  0  0  0
 13 12  1  0  0  0  0
 16 14  1  6  0  0  0
 16 13  1  0  0  0  0
 16 15  1  0  0  0  0
 17 16  1  0  0  0  0
 18 17  1  0  0  0  0
 19  1  1  0  0  0  0
 20 22  2  0  0  0  0
 20 24  1  0  0  0  0
 21 26  1  0  0  0  0
 22 28  1  0  0  0  0
 23 24  1  0  0  0  0
 24 19  1  0  0  0  0
 25 23  2  0  0  0  0
 26 25  1  0  0  0  0
 26 20  1  0  0  0  0
 28 27  1  0  0  0  0
M  END
>  <MODEL>
1

>  <REMARK>
 VINA RESULT:      -7.9      0.000      0.000
  Name = 
  10 active torsions:
  status: ('A' for Active; 'I' for Inactive)
    1  A    between atoms: C_4  and  C_25
    2  A    between atoms: C_4  and  C_26
    3  A    between atoms: C_5  and  C_19
    4  A    between atoms: C_7  and  N_8
    5  A    between atoms: N_8  and  N_23
    6  A    between atoms: O_9  and  C_20
    7  A    between atoms: N_10  and  C_11
    8  A    between atoms: N_13  and  C_19
    9  A    between atoms: C_14  and  N_23
   10  A    between atoms: C_20  and  C_26
                            x       y       z     vdW  Elec       q    Type
                         _______ _______ _______ _____ _____    ______ ____

>  <TORSDO>
F 10

$$$$
=
 OpenBabel11062413333D

 28 29  0  0  1  0  0  0  0  0999 V2000
  188.1570  177.0770  143.3850 C   0  0  0  0  0  0  0  0  0  0  0  0
  189.8500  177.4530  141.6740 C   0  0  0  0  0  0  0  0  0  0  0  0
  188.5170  177.2100  142.0410 C   0  0  0  0  0  3  0  0  0  0  0  0
  189.1260  177.2120  144.3820 C   0  0  0  0  0  3  0  0  0  0  0  0
  190.4560  177.4630  144.0350 C   0  0  0  0  0  0  0  0  0  0  0  0
  190.8130  177.5880  142.6870 C   0  0  0  0  0  3  0  0  0  0  0  0
  190.2240  177.6130  140.2900 N   0  0  0  0  0  0  0  0  0  0  0  0
  191.5520  177.2050  139.8560 C   0  0  0  0  0  1  0  0  0  0  0  0
  189.3750  178.1830  139.3200 N   0  0  0  0  0  2  0  0  0  0  0  0
  189.5860  178.0710  137.9130 C   0  0  0  0  0  3  0  0  0  0  0  0
  188.9610  178.8900  137.0830 C   0  0  0  0  0  2  0  0  0  0  0  0
  191.4850  177.6120  145.1060 C   0  0  0  0  0  2  0  0  0  0  0  0
  191.7720  176.2840  145.8050 C   0  0  0  0  0  2  0  0  0  0  0  0
  191.9360  177.2700  147.9680 O   0  0  0  0  0  1  0  0  0  0  0  0
  191.6170  175.0390  147.8600 F   0  0  0  0  0  0  0  0  0  0  0  0
  191.2930  176.2530  147.2640 C   0  0  2  0  0  0  0  0  0  0  0  0
  189.9020  176.4910  147.3270 O   0  0  0  0  0  0  0  0  0  0  0  0
  189.6730  177.6800  148.0390 C   0  0  0  0  0  1  0  0  0  0  0  0
  186.7330  176.8380  143.7510 C   0  0  0  0  0  2  0  0  0  0  0  0
  184.9040  178.5250  144.1560 C   0  0  0  0  0  0  0  0  0  0  0  0
  182.9930  179.3390  145.4270 O   0  0  0  0  0  1  0  0  0  0  0  0
  184.3630  178.6350  142.9770 N   0  0  0  0  0  0  0  0  0  0  0  0
  186.3550  178.1770  145.8810 C   0  0  0  0  0  3  0  0  0  0  0  0
  186.1840  178.0010  144.4360 N   0  0  0  0  0  0  0  0  0  0  0  0
  185.0920  178.7040  146.4480 N   0  0  0  0  0  0  0  0  0  0  0  0
  184.2900  178.9680  145.3300 N   0  0  0  0  0  0  0  0  0  0  0  0
  185.5700  179.4260  141.0840 N   0  0  0  0  0  1  0  0  0  0  0  0
  185.0150  178.2500  141.7330 C   0  0  0  0  0  2  0  0  0  0  0  0
  1 19  1  0  0  0  0
  1  4  1  0  0  0  0
  2  3  1  0  0  0  0
  2  6  2  0  0  0  0
  3  1  2  0  0  0  0
  5  4  2  0  0  0  0
  5 12  1  0  0  0  0
  6  5  1  0  0  0  0
  7  2  1  0  0  0  0
  8  7  1  0  0  0  0
  9  7  1  0  0  0  0
 10  9  1  0  0  0  0
 11 10  2  0  0  0  0
 12 13  1  0  0  0  0
 13 16  1  0  0  0  0
 16 17  1  0  0  0  0
 16 15  1  1  0  0  0
 16 14  1  0  0  0  0
 17 18  1  0  0  0  0
 19 24  1  0  0  0  0
 20 24  1  0  0  0  0
 20 26  1  0  0  0  0
 22 20  2  0  0  0  0
 23 25  2  0  0  0  0
 24 23  1  0  0  0  0
 26 21  1  0  0  0  0
 26 25  1  0  0  0  0
 27 28  1  0  0  0  0
 28 22  1  0  0  0  0
M  END
>  <MODEL>
2

>  <REMARK>
 VINA RESULT:      -7.6      3.871      7.424
  Name = 
  10 active torsions:
  status: ('A' for Active; 'I' for Inactive)
    1  A    between atoms: C_4  and  C_25
    2  A    between atoms: C_4  and  C_26
    3  A    between atoms: C_5  and  C_19
    4  A    between atoms: C_7  and  N_8
    5  A    between atoms: N_8  and  N_23
    6  A    between atoms: O_9  and  C_20
    7  A    between atoms: N_10  and  C_11
    8  A    between atoms: N_13  and  C_19
    9  A    between atoms: C_14  and  N_23
   10  A    between atoms: C_20  and  C_26
                            x       y       z     vdW  Elec       q    Type
                         _______ _______ _______ _____ _____    ______ ____

>  <TORSDO>
F 10

$$$$
=
 OpenBabel11062413333D

 28 29  0  0  1  0  0  0  0  0999 V2000
  187.9110  177.0360  143.3040 C   0  0  0  0  0  0  0  0  0  0  0  0
  185.8360  178.2580  142.9360 C   0  0  0  0  0  0  0  0  0  0  0  0
  186.9720  177.6010  142.4370 C   0  0  0  0  0  3  0  0  0  0  0  0
  187.7110  177.1010  144.6850 C   0  0  0  0  0  3  0  0  0  0  0  0
  186.5820  177.7430  145.1990 C   0  0  0  0  0  0  0  0  0  0  0  0
  185.6470  178.3140  144.3270 C   0  0  0  0  0  3  0  0  0  0  0  0
  184.8510  178.8230  142.0450 N   0  0  0  0  0  0  0  0  0  0  0  0
  183.4420  178.7540  142.4000 C   0  0  0  0  0  1  0  0  0  0  0  0
  185.1790  179.4220  140.8120 N   0  0  0  0  0  2  0  0  0  0  0  0
  184.6040  179.0370  139.5640 C   0  0  0  0  0  3  0  0  0  0  0  0
  183.7240  179.8240  138.9680 C   0  0  0  0  0  2  0  0  0  0  0  0
  186.3710  177.8050  146.6750 C   0  0  0  0  0  2  0  0  0  0  0  0
  187.4330  178.6590  147.3650 C   0  0  0  0  0  2  0  0  0  0  0  0
  188.0590  176.4920  148.1360 O   0  0  0  0  0  1  0  0  0  0  0  0
  188.2040  178.2030  149.6000 F   0  0  0  0  0  0  0  0  0  0  0  0
  188.3720  177.8450  148.2670 C   0  0  2  0  0  0  0  0  0  0  0  0
  189.7140  178.0220  147.8620 O   0  0  0  0  0  0  0  0  0  0  0  0
  190.2160  176.7980  147.3910 C   0  0  0  0  0  1  0  0  0  0  0  0
  189.0990  176.3270  142.7520 C   0  0  0  0  0  2  0  0  0  0  0  0
  191.1230  177.4040  141.7030 C   0  0  0  0  0  0  0  0  0  0  0  0
  192.9120  177.4300  140.0510 O   0  0  0  0  0  1  0  0  0  0  0  0
  191.8660  177.6660  142.7390 N   0  0  0  0  0  0  0  0  0  0  0  0
  189.3620  176.9950  140.3120 C   0  0  0  0  0  3  0  0  0  0  0  0
  189.7380  177.1350  141.7220 N   0  0  0  0  0  0  0  0  0  0  0  0
  190.5880  177.0670  139.4840 N   0  0  0  0  0  0  0  0  0  0  0  0
  191.6040  177.4000  140.3910 N   0  0  0  0  0  0  0  0  0  0  0  0
  190.8330  179.0760  144.3550 N   0  0  0  0  0  1  0  0  0  0  0  0
  191.3720  177.7490  144.1060 C   0  0  0  0  0  2  0  0  0  0  0  0
  1  4  1  0  0  0  0
  2  6  2  0  0  0  0
  3  2  1  0  0  0  0
  3  1  2  0  0  0  0
  4  5  2  0  0  0  0
  5 12  1  0  0  0  0
  6  5  1  0  0  0  0
  7  8  1  0  0  0  0
  7  2  1  0  0  0  0
  9  7  1  0  0  0  0
 10  9  1  0  0  0  0
 11 10  2  0  0  0  0
 12 13  1  0  0  0  0
 13 16  1  0  0  0  0
 16 14  1  6  0  0  0
 16 15  1  0  0  0  0
 17 16  1  0  0  0  0
 18 17  1  0  0  0  0
 19  1  1  0  0  0  0
 20 24  1  0  0  0  0
 20 22  2  0  0  0  0
 21 26  1  0  0  0  0
 22 28  1  0  0  0  0
 23 24  1  0  0  0  0
 24 19  1  0  0  0  0
 25 23  2  0  0  0  0
 25 26  1  0  0  0  0
 26 20  1  0  0  0  0
 28 27  1  0  0  0  0
M  END
>  <MODEL>
3

>  <REMARK>
 VINA RESULT:      -7.5      3.169      5.756
  Name = 
  10 active torsions:
  status: ('A' for Active; 'I' for Inactive)
    1  A    between atoms: C_4  and  C_25
    2  A    between atoms: C_4  and  C_26
    3  A    between atoms: C_5  and  C_19
    4  A    between atoms: C_7  and  N_8
    5  A    between atoms: N_8  and  N_23
    6  A    between atoms: O_9  and  C_20
    7  A    between atoms: N_10  and  C_11
    8  A    between atoms: N_13  and  C_19
    9  A    between atoms: C_14  and  N_23
   10  A    between atoms: C_20  and  C_26
                            x       y       z     vdW  Elec       q    Type
                         _______ _______ _______ _____ _____    ______ ____

>  <TORSDO>
F 10

$$$$
=
 OpenBabel11062413333D

 28 29  0  0  1  0  0  0  0  0999 V2000
  187.8800  177.0500  143.4470 C   0  0  0  0  0  0  0  0  0  0  0  0
  186.7030  177.9320  145.3890 C   0  0  0  0  0  0  0  0  0  0  0  0
  187.7910  177.2440  144.8280 C   0  0  0  0  0  3  0  0  0  0  0  0
  186.8910  177.5650  142.6060 C   0  0  0  0  0  3  0  0  0  0  0  0
  185.8060  178.2600  143.1470 C   0  0  0  0  0  0  0  0  0  0  0  0
  185.7170  178.4460  144.5310 C   0  0  0  0  0  3  0  0  0  0  0  0
  186.6170  178.1550  146.8120 N   0  0  0  0  0  0  0  0  0  0  0  0
  185.7770  179.2300  147.3190 C   0  0  0  0  0  1  0  0  0  0  0  0
  187.3380  177.3990  147.7580 N   0  0  0  0  0  2  0  0  0  0  0  0
  188.4470  177.9050  148.5010 C   0  0  0  0  0  3  0  0  0  0  0  0
  189.6670  177.8430  147.9930 C   0  0  0  0  0  2  0  0  0  0  0  0
  184.7550  178.8130  142.2420 C   0  0  0  0  0  2  0  0  0  0  0  0
  185.2870  179.0430  140.8290 C   0  0  0  0  0  2  0  0  0  0  0  0
  184.3100  180.3560  139.0970 O   0  0  0  0  0  1  0  0  0  0  0  0
  182.9230  179.1180  140.3760 F   0  0  0  0  0  0  0  0  0  0  0  0
  184.1760  179.1440  139.7730 C   0  0  2  0  0  0  0  0  0  0  0  0
  184.3030  178.1010  138.8280 O   0  0  0  0  0  0  0  0  0  0  0  0
  185.5620  178.1920  138.2120 C   0  0  0  0  0  1  0  0  0  0  0  0
  189.0530  176.3330  142.8720 C   0  0  0  0  0  2  0  0  0  0  0  0
  191.1560  177.3820  141.9600 C   0  0  0  0  0  0  0  0  0  0  0  0
  192.9820  177.4510  140.3500 O   0  0  0  0  0  1  0  0  0  0  0  0
  191.8890  177.5080  143.0280 N   0  0  0  0  0  0  0  0  0  0  0  0
  189.4090  177.1970  140.5060 C   0  0  0  0  0  3  0  0  0  0  0  0
  189.7590  177.1910  141.9300 N   0  0  0  0  0  0  0  0  0  0  0  0
  190.6560  177.2720  139.7110 N   0  0  0  0  0  0  0  0  0  0  0  0
  191.6660  177.4650  140.6620 N   0  0  0  0  0  0  0  0  0  0  0  0
  191.7870  176.2850  145.0680 N   0  0  0  0  0  1  0  0  0  0  0  0
  191.3680  177.4990  144.3880 C   0  0  0  0  0  2  0  0  0  0  0  0
  1  3  1  0  0  0  0
  2  7  1  0  0  0  0
  3  2  2  0  0  0  0
  4  5  1  0  0  0  0
  4  1  2  0  0  0  0
  5  6  2  0  0  0  0
  6  2  1  0  0  0  0
  7  8  1  0  0  0  0
  7  9  1  0  0  0  0
  9 10  1  0  0  0  0
 11 10  2  0  0  0  0
 12  5  1  0  0  0  0
 13 12  1  0  0  0  0
 16 14  1  6  0  0  0
 16 15  1  0  0  0  0
 16 13  1  0  0  0  0
 17 16  1  0  0  0  0
 18 17  1  0  0  0  0
 19  1  1  0  0  0  0
 20 22  2  0  0  0  0
 21 26  1  0  0  0  0
 22 28  1  0  0  0  0
 23 24  1  0  0  0  0
 24 20  1  0  0  0  0
 24 19  1  0  0  0  0
 25 23  2  0  0  0  0
 25 26  1  0  0  0  0
 26 20  1  0  0  0  0
 28 27  1  0  0  0  0
M  END
>  <MODEL>
4

>  <REMARK>
 VINA RESULT:      -7.5      2.257      2.958
  Name = 
  10 active torsions:
  status: ('A' for Active; 'I' for Inactive)
    1  A    between atoms: C_4  and  C_25
    2  A    between atoms: C_4  and  C_26
    3  A    between atoms: C_5  and  C_19
    4  A    between atoms: C_7  and  N_8
    5  A    between atoms: N_8  and  N_23
    6  A    between atoms: O_9  and  C_20
    7  A    between atoms: N_10  and  C_11
    8  A    between atoms: N_13  and  C_19
    9  A    between atoms: C_14  and  N_23
   10  A    between atoms: C_20  and  C_26
                            x       y       z     vdW  Elec       q    Type
                         _______ _______ _______ _____ _____    ______ ____

>  <TORSDO>
F 10

$$$$
=
 OpenBabel11062413333D

 28 29  0  0  1  0  0  0  0  0999 V2000
  186.6930  178.6170  141.9360 C   0  0  0  0  0  0  0  0  0  0  0  0
  188.5290  177.8820  140.5140 C   0  0  0  0  0  0  0  0  0  0  0  0
  187.3530  178.6240  140.7040 C   0  0  0  0  0  3  0  0  0  0  0  0
  187.2190  177.8860  143.0030 C   0  0  0  0  0  3  0  0  0  0  0  0
  188.3940  177.1490  142.8340 C   0  0  0  0  0  0  0  0  0  0  0  0
  189.0470  177.1520  141.5960 C   0  0  0  0  0  3  0  0  0  0  0  0
  189.2270  177.9020  139.2500 N   0  0  0  0  0  0  0  0  0  0  0  0
  190.1090  176.7980  138.9030 C   0  0  0  0  0  1  0  0  0  0  0  0
  189.1280  178.9640  138.3300 N   0  0  0  0  0  2  0  0  0  0  0  0
  188.6040  178.8260  137.0090 C   0  0  0  0  0  3  0  0  0  0  0  0
  187.3350  178.4960  136.8310 C   0  0  0  0  0  2  0  0  0  0  0  0
  188.9530  176.3730  143.9800 C   0  0  0  0  0  2  0  0  0  0  0  0
  189.7110  177.2710  144.9570 C   0  0  0  0  0  2  0  0  0  0  0  0
  191.7830  178.1020  144.1230 O   0  0  0  0  0  1  0  0  0  0  0  0
  191.5530  175.8640  144.3030 F   0  0  0  0  0  0  0  0  0  0  0  0
  191.2340  177.0800  144.8970 C   0  0  2  0  0  0  0  0  0  0  0  0
  191.7890  177.1700  146.1930 O   0  0  0  0  0  0  0  0  0  0  0  0
  192.0640  175.8750  146.6640 C   0  0  0  0  0  1  0  0  0  0  0  0
  185.4570  179.4280  142.1200 C   0  0  0  0  0  2  0  0  0  0  0  0
  183.1730  178.7370  142.9350 C   0  0  0  0  0  0  0  0  0  0  0  0
  180.7450  178.7410  142.7390 O   0  0  0  0  0  1  0  0  0  0  0  0
  183.2250  179.0430  144.1990 N   0  0  0  0  0  0  0  0  0  0  0  0
  183.7000  178.1510  140.7950 C   0  0  0  0  0  3  0  0  0  0  0  0
  184.2790  178.5720  142.0750 N   0  0  0  0  0  0  0  0  0  0  0  0
  182.2240  178.1980  140.9030 N   0  0  0  0  0  0  0  0  0  0  0  0
  181.9800  178.4810  142.2530 N   0  0  0  0  0  0  0  0  0  0  0  0
  184.3080  178.7200  146.2950 N   0  0  0  0  0  1  0  0  0  0  0  0
  184.4590  179.2410  144.9470 C   0  0  0  0  0  2  0  0  0  0  0  0
  1 19  1  0  0  0  0
  1  4  1  0  0  0  0
  2  3  1  0  0  0  0
  2  6  2  0  0  0  0
  3  1  2  0  0  0  0
  5  4  2  0  0  0  0
  5 12  1  0  0  0  0
  6  5  1  0  0  0  0
  7  2  1  0  0  0  0
  8  7  1  0  0  0  0
  9  7  1  0  0  0  0
 10  9  1  0  0  0  0
 11 10  2  0  0  0  0
 12 13  1  0  0  0  0
 15 16  1  0  0  0  0
 16 14  1  6  0  0  0
 16 13  1  0  0  0  0
 16 17  1  0  0  0  0
 17 18  1  0  0  0  0
 20 22  2  0  0  0  0
 22 28  1  0  0  0  0
 23 25  2  0  0  0  0
 23 24  1  0  0  0  0
 24 19  1  0  0  0  0
 24 20  1  0  0  0  0
 25 26  1  0  0  0  0
 26 21  1  0  0  0  0
 26 20  1  0  0  0  0
 28 27  1  0  0  0  0
M  END
>  <MODEL>
5

>  <REMARK>
 VINA RESULT:      -7.4      3.789      7.639
  Name = 
  10 active torsions:
  status: ('A' for Active; 'I' for Inactive)
    1  A    between atoms: C_4  and  C_25
    2  A    between atoms: C_4  and  C_26
    3  A    between atoms: C_5  and  C_19
    4  A    between atoms: C_7  and  N_8
    5  A    between atoms: N_8  and  N_23
    6  A    between atoms: O_9  and  C_20
    7  A    between atoms: N_10  and  C_11
    8  A    between atoms: N_13  and  C_19
    9  A    between atoms: C_14  and  N_23
   10  A    between atoms: C_20  and  C_26
                            x       y       z     vdW  Elec       q    Type
                         _______ _______ _______ _____ _____    ______ ____

>  <TORSDO>
F 10

$$$$
=
 OpenBabel11062413333D

 28 29  0  0  1  0  0  0  0  0999 V2000
  188.7170  178.0090  142.1750 C   0  0  0  0  0  0  0  0  0  0  0  0
  189.9320  176.9710  144.0140 C   0  0  0  0  0  0  0  0  0  0  0  0
  189.9130  177.5530  142.7370 C   0  0  0  0  0  3  0  0  0  0  0  0
  187.5270  177.9100  142.8990 C   0  0  0  0  0  3  0  0  0  0  0  0
  187.5290  177.3420  144.1750 C   0  0  0  0  0  0  0  0  0  0  0  0
  188.7280  176.8800  144.7310 C   0  0  0  0  0  3  0  0  0  0  0  0
  191.1670  176.5190  144.6080 N   0  0  0  0  0  0  0  0  0  0  0  0
  191.9340  175.4690  143.9540 C   0  0  0  0  0  1  0  0  0  0  0  0
  191.6680  177.0200  145.8260 N   0  0  0  0  0  2  0  0  0  0  0  0
  191.4680  176.3860  147.0890 C   0  0  0  0  0  3  0  0  0  0  0  0
  192.4180  175.6230  147.6050 C   0  0  0  0  0  2  0  0  0  0  0  0
  186.2540  177.2440  144.9450 C   0  0  0  0  0  2  0  0  0  0  0  0
  185.7430  178.6190  145.3730 C   0  0  0  0  0  2  0  0  0  0  0  0
  184.4090  178.2530  143.4320 O   0  0  0  0  0  1  0  0  0  0  0  0
  184.9180  180.3870  143.9620 F   0  0  0  0  0  0  0  0  0  0  0  0
  184.6000  179.1410  144.4910 C   0  0  2  0  0  0  0  0  0  0  0  0
  183.3980  179.1990  145.2320 O   0  0  0  0  0  0  0  0  0  0  0  0
  182.3300  178.8180  144.4040 C   0  0  0  0  0  1  0  0  0  0  0  0
  188.7230  178.6400  140.8260 C   0  0  0  0  0  2  0  0  0  0  0  0
  187.7090  177.7560  138.6940 C   0  0  0  0  0  0  0  0  0  0  0  0
  187.7890  177.3750  136.2900 O   0  0  0  0  0  1  0  0  0  0  0  0
  186.5080  178.2550  138.7310 N   0  0  0  0  0  0  0  0  0  0  0  0
  189.7620  176.9340  139.2510 C   0  0  0  0  0  3  0  0  0  0  0  0
  188.5870  177.6250  139.7910 N   0  0  0  0  0  0  0  0  0  0  0  0
  189.5930  176.7810  137.7880 N   0  0  0  0  0  0  0  0  0  0  0  0
  188.2890  177.2280  137.5380 N   0  0  0  0  0  0  0  0  0  0  0  0
  184.8280  179.7090  139.5880 N   0  0  0  0  0  1  0  0  0  0  0  0
  185.8560  178.7430  139.9380 C   0  0  0  0  0  2  0  0  0  0  0  0
  1  3  2  0  0  0  0
  1  4  1  0  0  0  0
  2  7  1  0  0  0  0
  2  6  2  0  0  0  0
  3  2  1  0  0  0  0
  4  5  2  0  0  0  0
  5  6  1  0  0  0  0
  5 12  1  0  0  0  0
  7  9  1  0  0  0  0
  8  7  1  0  0  0  0
  9 10  1  0  0  0  0
 10 11  2  0  0  0  0
 12 13  1  0  0  0  0
 15 16  1  0  0  0  0
 16 14  1  6  0  0  0
 16 17  1  0  0  0  0
 16 13  1  0  0  0  0
 18 17  1  0  0  0  0
 19  1  1  0  0  0  0
 20 22  2  0  0  0  0
 20 24  1  0  0  0  0
 21 26  1  0  0  0  0
 22 28  1  0  0  0  0
 23 24  1  0  0  0  0
 24 19  1  0  0  0  0
 25 23  2  0  0  0  0
 26 25  1  0  0  0  0
 26 20  1  0  0  0  0
 27 28  1  0  0  0  0
M  END
>  <MODEL>
6

>  <REMARK>
 VINA RESULT:      -7.4      1.986      3.548
  Name = 
  10 active torsions:
  status: ('A' for Active; 'I' for Inactive)
    1  A    between atoms: C_4  and  C_25
    2  A    between atoms: C_4  and  C_26
    3  A    between atoms: C_5  and  C_19
    4  A    between atoms: C_7  and  N_8
    5  A    between atoms: N_8  and  N_23
    6  A    between atoms: O_9  and  C_20
    7  A    between atoms: N_10  and  C_11
    8  A    between atoms: N_13  and  C_19
    9  A    between atoms: C_14  and  N_23
   10  A    between atoms: C_20  and  C_26
                            x       y       z     vdW  Elec       q    Type
                         _______ _______ _______ _____ _____    ______ ____

>  <TORSDO>
F 10

$$$$
=
 OpenBabel11062413333D

 28 29  0  0  1  0  0  0  0  0999 V2000
  187.8550  177.3560  144.2030 C   0  0  0  0  0  0  0  0  0  0  0  0
  189.6620  177.5390  145.8270 C   0  0  0  0  0  0  0  0  0  0  0  0
  188.2980  177.3920  145.5280 C   0  0  0  0  0  3  0  0  0  0  0  0
  188.7780  177.4430  143.1580 C   0  0  0  0  0  3  0  0  0  0  0  0
  190.1400  177.5810  143.4370 C   0  0  0  0  0  0  0  0  0  0  0  0
  190.5790  177.6240  144.7650 C   0  0  0  0  0  3  0  0  0  0  0  0
  190.1280  177.5550  147.1920 N   0  0  0  0  0  0  0  0  0  0  0  0
  189.2060  177.9140  148.2590 C   0  0  0  0  0  1  0  0  0  0  0  0
  191.4590  177.2700  147.5570 N   0  0  0  0  0  2  0  0  0  0  0  0
  191.9730  175.9490  147.7240 C   0  0  0  0  0  3  0  0  0  0  0  0
  192.3910  175.2640  146.6720 C   0  0  0  0  0  2  0  0  0  0  0  0
  191.1210  177.6680  142.3150 C   0  0  0  0  0  2  0  0  0  0  0  0
  190.8620  176.6030  141.2520 C   0  0  0  0  0  2  0  0  0  0  0  0
  190.7560  176.0880  138.9270 O   0  0  0  0  0  1  0  0  0  0  0  0
  192.2810  177.6150  139.5890 F   0  0  0  0  0  0  0  0  0  0  0  0
  190.9960  177.1350  139.8170 C   0  0  2  0  0  0  0  0  0  0  0  0
  190.0320  178.1400  139.5770 O   0  0  0  0  0  0  0  0  0  0  0  0
  188.7710  177.5380  139.4240 C   0  0  0  0  0  1  0  0  0  0  0  0
  186.4060  177.1790  143.9090 C   0  0  0  0  0  2  0  0  0  0  0  0
  184.5850  178.9040  143.6520 C   0  0  0  0  0  0  0  0  0  0  0  0
  182.3410  179.7270  144.1200 O   0  0  0  0  0  1  0  0  0  0  0  0
  184.5440  179.0730  142.3610 N   0  0  0  0  0  0  0  0  0  0  0  0
  185.2490  178.4510  145.7850 C   0  0  0  0  0  3  0  0  0  0  0  0
  185.6490  178.3320  144.3800 N   0  0  0  0  0  0  0  0  0  0  0  0
  183.8720  178.9930  145.8430 N   0  0  0  0  0  0  0  0  0  0  0  0
  183.5690  179.3210  144.5150 N   0  0  0  0  0  0  0  0  0  0  0  0
  185.4060  179.3450  140.1590 N   0  0  0  0  0  1  0  0  0  0  0  0
  185.6220  178.7150  141.4500 C   0  0  0  0  0  2  0  0  0  0  0  0
  1  3  1  0  0  0  0
  2  7  1  0  0  0  0
  3  2  2  0  0  0  0
  4  5  1  0  0  0  0
  4  1  2  0  0  0  0
  5  6  2  0  0  0  0
  6  2  1  0  0  0  0
  7  9  1  0  0  0  0
  7  8  1  0  0  0  0
  9 10  1  0  0  0  0
 11 10  2  0  0  0  0
 12  5  1  0  0  0  0
 13 12  1  0  0  0  0
 15 16  1  0  0  0  0
 16 14  1  6  0  0  0
 16 13  1  0  0  0  0
 17 16  1  0  0  0  0
 18 17  1  0  0  0  0
 19  1  1  0  0  0  0
 19 24  1  0  0  0  0
 20 24  1  0  0  0  0
 20 26  1  0  0  0  0
 21 26  1  0  0  0  0
 22 20  2  0  0  0  0
 23 25  2  0  0  0  0
 24 23  1  0  0  0  0
 26 25  1  0  0  0  0
 27 28  1  0  0  0  0
 28 22  1  0  0  0  0
M  END
>  <MODEL>
7

>  <REMARK>
 VINA RESULT:      -7.2      3.049      5.968
  Name = 
  10 active torsions:
  status: ('A' for Active; 'I' for Inactive)
    1  A    between atoms: C_4  and  C_25
    2  A    between atoms: C_4  and  C_26
    3  A    between atoms: C_5  and  C_19
    4  A    between atoms: C_7  and  N_8
    5  A    between atoms: N_8  and  N_23
    6  A    between atoms: O_9  and  C_20
    7  A    between atoms: N_10  and  C_11
    8  A    between atoms: N_13  and  C_19
    9  A    between atoms: C_14  and  N_23
   10  A    between atoms: C_20  and  C_26
                            x       y       z     vdW  Elec       q    Type
                         _______ _______ _______ _____ _____    ______ ____

>  <TORSDO>
F 10

$$$$
=
 OpenBabel11062413333D

 28 29  0  0  1  0  0  0  0  0999 V2000
  188.2550  177.1740  142.9040 C   0  0  0  0  0  0  0  0  0  0  0  0
  188.5690  178.0210  140.6420 C   0  0  0  0  0  0  0  0  0  0  0  0
  189.0270  177.2830  141.7440 C   0  0  0  0  0  3  0  0  0  0  0  0
  186.9990  177.7830  142.9640 C   0  0  0  0  0  3  0  0  0  0  0  0
  186.5240  178.5140  141.8730 C   0  0  0  0  0  0  0  0  0  0  0  0
  187.3040  178.6280  140.7160 C   0  0  0  0  0  3  0  0  0  0  0  0
  189.3520  178.1200  139.4340 N   0  0  0  0  0  0  0  0  0  0  0  0
  190.5380  177.2920  139.2800 C   0  0  0  0  0  1  0  0  0  0  0  0
  189.0480  179.0140  138.3870 N   0  0  0  0  0  2  0  0  0  0  0  0
  188.5080  178.6100  137.1280 C   0  0  0  0  0  3  0  0  0  0  0  0
  187.5520  177.6970  137.0800 C   0  0  0  0  0  2  0  0  0  0  0  0
  185.1790  179.1590  141.9420 C   0  0  0  0  0  2  0  0  0  0  0  0
  184.1520  178.2570  142.6250 C   0  0  0  0  0  2  0  0  0  0  0  0
  183.8610  180.1900  143.9880 O   0  0  0  0  0  1  0  0  0  0  0  0
  184.3830  178.2530  145.0220 F   0  0  0  0  0  0  0  0  0  0  0  0
  183.6620  178.8100  143.9710 C   0  0  2  0  0  0  0  0  0  0  0  0
  182.2790  178.5670  144.1250 O   0  0  0  0  0  0  0  0  0  0  0  0
  181.5680  179.3810  143.2260 C   0  0  0  0  0  1  0  0  0  0  0  0
  188.7530  176.3690  144.0540 C   0  0  0  0  0  2  0  0  0  0  0  0
  189.8440  177.1950  146.1720 C   0  0  0  0  0  0  0  0  0  0  0  0
  191.5290  177.0060  147.9200 O   0  0  0  0  0  1  0  0  0  0  0  0
  188.8230  177.3650  146.9620 N   0  0  0  0  0  0  0  0  0  0  0  0
  191.1990  177.0010  144.3490 C   0  0  0  0  0  3  0  0  0  0  0  0
  189.7970  177.0950  144.7660 N   0  0  0  0  0  0  0  0  0  0  0  0
  192.0500  176.9250  145.5580 N   0  0  0  0  0  0  0  0  0  0  0  0
  191.1640  177.1330  146.6230 N   0  0  0  0  0  0  0  0  0  0  0  0
  186.7340  178.4310  147.3740 N   0  0  0  0  0  1  0  0  0  0  0  0
  187.4460  177.5070  146.5070 C   0  0  0  0  0  2  0  0  0  0  0  0
  1  4  1  0  0  0  0
  1 19  1  0  0  0  0
  2  6  2  0  0  0  0
  2  3  1  0  0  0  0
  3  1  2  0  0  0  0
  5 12  1  0  0  0  0
  5  4  2  0  0  0  0
  6  5  1  0  0  0  0
  7  2  1  0  0  0  0
  8  7  1  0  0  0  0
  9  7  1  0  0  0  0
 10  9  1  0  0  0  0
 11 10  2  0  0  0  0
 12 13  1  0  0  0  0
 13 16  1  0  0  0  0
 16 14  1  1  0  0  0
 16 17  1  0  0  0  0
 16 15  1  0  0  0  0
 18 17  1  0  0  0  0
 19 24  1  0  0  0  0
 20 26  1  0  0  0  0
 20 22  2  0  0  0  0
 23 24  1  0  0  0  0
 23 25  2  0  0  0  0
 24 20  1  0  0  0  0
 25 26  1  0  0  0  0
 26 21  1  0  0  0  0
 28 22  1  0  0  0  0
 28 27  1  0  0  0  0
M  END
>  <MODEL>
8

>  <REMARK>
 VINA RESULT:      -7.2      2.600      5.957
  Name = 
  10 active torsions:
  status: ('A' for Active; 'I' for Inactive)
    1  A    between atoms: C_4  and  C_25
    2  A    between atoms: C_4  and  C_26
    3  A    between atoms: C_5  and  C_19
    4  A    between atoms: C_7  and  N_8
    5  A    between atoms: N_8  and  N_23
    6  A    between atoms: O_9  and  C_20
    7  A    between atoms: N_10  and  C_11
    8  A    between atoms: N_13  and  C_19
    9  A    between atoms: C_14  and  N_23
   10  A    between atoms: C_20  and  C_26
                            x       y       z     vdW  Elec       q    Type
                         _______ _______ _______ _____ _____    ______ ____

>  <TORSDO>
F 10

$$$$
=
 OpenBabel11062413333D

 28 29  0  0  1  0  0  0  0  0999 V2000
  187.2030  177.2270  143.6970 C   0  0  0  0  0  0  0  0  0  0  0  0
  186.4390  178.2330  145.7790 C   0  0  0  0  0  0  0  0  0  0  0  0
  187.3900  177.4980  145.0550 C   0  0  0  0  0  3  0  0  0  0  0  0
  186.0690  177.7110  143.0400 C   0  0  0  0  0  3  0  0  0  0  0  0
  185.1160  178.4520  143.7430 C   0  0  0  0  0  0  0  0  0  0  0  0
  185.3040  178.7150  145.1050 C   0  0  0  0  0  3  0  0  0  0  0  0
  186.6360  178.5360  147.1760 N   0  0  0  0  0  0  0  0  0  0  0  0
  186.0640  179.7520  147.7340 C   0  0  0  0  0  1  0  0  0  0  0  0
  187.3940  177.7230  148.0430 N   0  0  0  0  0  2  0  0  0  0  0  0
  188.7260  178.0260  148.4560 C   0  0  0  0  0  3  0  0  0  0  0  0
  189.7560  177.5140  147.8010 C   0  0  0  0  0  2  0  0  0  0  0  0
  183.9100  178.9700  143.0340 C   0  0  0  0  0  2  0  0  0  0  0  0
  182.6860  179.0060  143.9480 C   0  0  0  0  0  2  0  0  0  0  0  0
  180.4320  178.2310  143.9600 O   0  0  0  0  0  1  0  0  0  0  0  0
  181.5210  178.2410  141.9830 F   0  0  0  0  0  0  0  0  0  0  0  0
  181.3570  178.9270  143.1820 C   0  0  2  0  0  0  0  0  0  0  0  0
  180.8460  180.2250  142.9550 O   0  0  0  0  0  0  0  0  0  0  0  0
  179.8100  180.1500  142.0090 C   0  0  0  0  0  1  0  0  0  0  0  0
  188.2350  176.4610  142.9440 C   0  0  0  0  0  2  0  0  0  0  0  0
  190.3740  177.1630  141.8080 C   0  0  0  0  0  0  0  0  0  0  0  0
  191.8250  177.2480  139.8540 O   0  0  0  0  0  1  0  0  0  0  0  0
  191.2800  176.7670  142.6550 N   0  0  0  0  0  0  0  0  0  0  0  0
  188.4370  177.8820  140.8430 C   0  0  0  0  0  3  0  0  0  0  0  0
  189.0050  177.3540  142.0880 N   0  0  0  0  0  0  0  0  0  0  0  0
  189.4880  177.8730  139.8000 N   0  0  0  0  0  0  0  0  0  0  0  0
  190.6550  177.5030  140.4830 N   0  0  0  0  0  0  0  0  0  0  0  0
  191.6790  177.4720  144.8940 N   0  0  0  0  0  1  0  0  0  0  0  0
  191.0240  176.4790  144.0590 C   0  0  0  0  0  2  0  0  0  0  0  0
  1  3  1  0  0  0  0
  2  7  1  0  0  0  0
  3  2  2  0  0  0  0
  4  1  2  0  0  0  0
  4  5  1  0  0  0  0
  5  6  2  0  0  0  0
  6  2  1  0  0  0  0
  7  8  1  0  0  0  0
  7  9  1  0  0  0  0
  9 10  1  0  0  0  0
 11 10  2  0  0  0  0
 12  5  1  0  0  0  0
 12 13  1  0  0  0  0
 16 15  1  6  0  0  0
 16 13  1  0  0  0  0
 16 14  1  0  0  0  0
 17 16  1  0  0  0  0
 18 17  1  0  0  0  0
 19  1  1  0  0  0  0
 20 24  1  0  0  0  0
 20 22  2  0  0  0  0
 21 26  1  0  0  0  0
 22 28  1  0  0  0  0
 23 24  1  0  0  0  0
 24 19  1  0  0  0  0
 25 26  1  0  0  0  0
 25 23  2  0  0  0  0
 26 20  1  0  0  0  0
 28 27  1  0  0  0  0
M  END
>  <MODEL>
9

>  <REMARK>
 VINA RESULT:      -7.2      1.584      2.089
  Name = 
  10 active torsions:
  status: ('A' for Active; 'I' for Inactive)
    1  A    between atoms: C_4  and  C_25
    2  A    between atoms: C_4  and  C_26
    3  A    between atoms: C_5  and  C_19
    4  A    between atoms: C_7  and  N_8
    5  A    between atoms: N_8  and  N_23
    6  A    between atoms: O_9  and  C_20
    7  A    between atoms: N_10  and  C_11
    8  A    between atoms: N_13  and  C_19
    9  A    between atoms: C_14  and  N_23
   10  A    between atoms: C_20  and  C_26
                            x       y       z     vdW  Elec       q    Type
                         _______ _______ _______ _____ _____    ______ ____

>  <TORSDO>
F 10

$$$$
