=
 OpenBabel11062414573D

 51 58  0  0  1  0  0  0  0  0999 V2000
  193.0010  176.6980  138.1720 C   0  0  0  0  0  2  0  0  0  0  0  0
  190.9990  175.0280  137.0620 O   0  0  0  0  0  0  0  0  0  0  0  0
  190.7180  175.6360  138.3250 C   0  0  1  0  0  3  0  0  0  0  0  0
  192.2160  175.1620  136.3880 C   0  0  0  0  0  0  0  0  0  0  0  0
  191.5280  176.9230  138.5220 C   0  0  1  0  0  3  0  0  0  0  0  0
  193.1510  176.2820  136.7160 C   0  0  0  0  0  2  0  0  0  0  0  0
  192.4790  174.3920  135.4280 O   0  0  0  0  0  0  0  0  0  0  0  0
  191.0380  176.6500  142.7090 C   0  0  1  0  0  3  0  0  0  0  0  0
  190.1690  176.1680  141.6850 O   0  0  0  0  0  0  0  0  0  0  0  0
  192.5400  177.1940  140.7990 C   0  0  0  0  0  2  0  0  0  0  0  0
  189.9980  177.0920  140.6180 C   0  0  2  0  0  3  0  0  0  0  0  0
  191.3240  177.4960  139.9340 C   0  0  2  0  0  3  0  0  0  0  0  0
  192.2040  177.5310  142.2360 C   0  0  0  0  0  2  0  0  0  0  0  0
  190.2940  177.2420  143.8710 C   0  0  0  0  0  0  0  0  0  0  0  0
  189.1240  176.5820  144.3680 N   0  0  0  0  0  2  0  0  0  0  0  0
  190.6840  178.3240  144.3810 O   0  0  0  0  0  0  0  0  0  0  0  0
  189.3600  177.5070  147.4590 N   0  0  0  0  0  2  0  0  0  0  0  0
  188.2080  177.1320  145.3220 C   0  0  2  0  0  3  0  0  0  0  0  0
  187.6120  178.4660  148.4560 C   0  0  0  0  0  3  0  0  0  0  0  0
  188.8930  178.2490  148.5590 N   0  0  0  0  0  0  0  0  0  0  0  0
  187.0770  177.7610  144.9980 C   0  0  0  0  0  3  0  0  0  0  0  0
  188.3330  177.1550  146.7640 C   0  0  2  0  0  3  0  0  0  0  0  0
  186.4450  178.2610  146.2450 C   0  0  0  0  0  3  0  0  0  0  0  0
  187.1730  177.7920  147.2480 C   0  0  2  0  0  3  0  0  0  0  0  0
  188.0660  178.5370  140.0140 C   0  0  0  0  0  2  0  0  0  0  0  0
  187.7560  177.8780  141.3430 C   0  0  0  0  0  2  0  0  0  0  0  0
  189.1760  178.3110  141.0250 C   0  0  0  0  0  3  0  0  0  0  0  0
  189.2200  175.9550  138.4060 C   0  0  0  0  0  2  0  0  0  0  0  0
  187.1360  175.0680  134.7420 C   0  0  0  0  0  2  0  0  0  0  0  0
  188.7900  173.3400  137.4830 O   0  0  0  0  0  0  0  0  0  0  0  0
  188.4320  175.6660  137.1220 C   0  0  2  0  0  3  0  0  0  0  0  0
  188.3400  174.2070  136.7520 C   0  0  0  0  0  0  0  0  0  0  0  0
  188.2080  176.1650  134.6050 C   0  0  2  0  0  3  0  0  0  0  0  0
  188.9090  176.5160  135.9280 C   0  0  1  0  0  3  0  0  0  0  0  0
  187.8930  177.4920  135.3160 C   0  0  2  0  0  3  0  0  0  0  0  0
  187.6870  173.8290  135.4470 C   0  0  1  0  0  3  0  0  0  0  0  0
  184.4530  176.2900  136.4940 C   0  0  0  0  0  2  0  0  0  0  0  0
  185.3310  176.9080  135.4070 C   0  0  0  0  0  2  0  0  0  0  0  0
  185.2430  178.0610  137.9650 N   0  0  0  0  0  0  0  0  0  0  0  0
  186.4550  178.1500  137.2000 C   0  0  0  0  0  3  0  0  0  0  0  0
  186.5420  177.5960  135.9850 C   0  0  0  0  0  0  0  0  0  0  0  0
  183.0990  177.1530  138.4440 N   0  0  0  0  0  2  0  0  0  0  0  0
  184.2800  177.2480  137.6430 C   0  0  0  0  0  0  0  0  0  0  0  0
  183.8050  177.5130  140.9660 O   0  0  0  0  0  0  0  0  0  0  0  0
  182.8080  177.9850  139.9440 S   0  0  0  0  0  0  0  0  0  0  0  0
  182.9880  179.4590  139.7180 O   0  0  0  0  0  0  0  0  0  0  0  0
  181.1720  177.6930  140.5890 C   0  0  0  0  0  2  0  0  0  0  0  0
  180.4930  176.7040  139.7730 N   0  0  0  0  0  1  0  0  0  0  0  0
  186.6250  172.9120  135.6650 O   0  0  0  0  0  0  0  0  0  0  0  0
  185.8880  172.9620  136.8140 C   0  0  0  0  0  0  0  0  0  0  0  0
  185.2330  173.0050  137.8240 C   0  0  0  0  0  3  0  0  0  0  0  0
  2  3  1  0  0  0  0
  3 28  1  6  0  0  0
  3  5  1  0  0  0  0
  4  6  1  0  0  0  0
  4  2  1  0  0  0  0
  5  1  1  1  0  0  0
  5 12  1  0  0  0  0
  6  1  1  0  0  0  0
  7  4  2  0  0  0  0
  8 14  1  1  0  0  0
  9  8  1  0  0  0  0
 10 13  1  0  0  0  0
 11 27  1  1  0  0  0
 11  9  1  0  0  0  0
 12 11  1  0  0  0  0
 12 10  1  1  0  0  0
 13  8  1  0  0  0  0
 14 15  1  0  0  0  0
 14 16  2  0  0  0  0
 17 20  1  0  0  0  0
 18 15  1  6  0  0  0
 18 22  1  0  0  0  0
 19 20  2  0  0  0  0
 21 18  1  0  0  0  0
 21 23  2  0  0  0  0
 22 24  1  0  0  0  0
 22 17  1  6  0  0  0
 24 23  1  6  0  0  0
 24 19  1  0  0  0  0
 25 27  1  0  0  0  0
 25 26  1  0  0  0  0
 27 26  1  0  0  0  0
 29 36  1  0  0  0  0
 31 28  1  1  0  0  0
 32 31  1  0  0  0  0
 32 30  2  0  0  0  0
 33 29  1  1  0  0  0
 33 35  1  0  0  0  0
 33 34  1  0  0  0  0
 34 31  1  0  0  0  0
 35 34  1  0  0  0  0
 35 41  1  0  0  0  0
 36 49  1  0  0  0  0
 36 32  1  0  0  0  0
 37 43  1  0  0  0  0
 38 41  1  0  0  0  0
 38 37  1  0  0  0  0
 40 39  1  0  0  0  0
 41 40  2  0  0  0  0
 42 45  1  0  0  0  0
 43 39  2  0  0  0  0
 43 42  1  0  0  0  0
 45 47  1  0  0  0  0
 45 44  2  0  0  0  0
 46 45  2  0  0  0  0
 48 47  1  0  0  0  0
 49 50  1  0  0  0  0
 50 51  3  0  0  0  0
M  END
>  <MODEL>
1

>  <REMARK>
 VINA RESULT:      -8.3      0.000      0.000
  Name = 
  11 active torsions:
  status: ('A' for Active; 'I' for Inactive)
    1  A    between atoms: C_3  and  C_4
    2  A    between atoms: C_7  and  O_51
    3  A    between atoms: C_9  and  N_20
    4  A    between atoms: C_14  and  C_47
    5  A    between atoms: C_16  and  S_19
    6  A    between atoms: S_19  and  N_44
    7  A    between atoms: C_24  and  C_47
    8  A    between atoms: C_32  and  C_43
    9  A    between atoms: C_33  and  C_38
   10  A    between atoms: C_35  and  C_36
   11  A    between atoms: C_42  and  O_51
                            x       y       z     vdW  Elec       q    Type
                         _______ _______ _______ _____ _____    ______ ____

>  <TORSDO>
F 11

$$$$
=
 OpenBabel11062414573D

 51 58  0  0  1  0  0  0  0  0999 V2000
  193.1880  176.7860  139.1190 C   0  0  0  0  0  2  0  0  0  0  0  0
  191.4560  175.1050  137.6360 O   0  0  0  0  0  0  0  0  0  0  0  0
  190.9380  175.6790  138.8380 C   0  0  1  0  0  3  0  0  0  0  0  0
  192.7710  175.2760  137.1950 C   0  0  0  0  0  0  0  0  0  0  0  0
  191.6710  176.9770  139.2020 C   0  0  1  0  0  3  0  0  0  0  0  0
  193.6060  176.4060  137.7070 C   0  0  0  0  0  2  0  0  0  0  0  0
  193.2190  174.5330  136.2850 O   0  0  0  0  0  0  0  0  0  0  0  0
  190.2590  176.5980  143.1650 C   0  0  1  0  0  3  0  0  0  0  0  0
  189.6040  176.2230  141.9550 O   0  0  0  0  0  0  0  0  0  0  0  0
  192.1770  177.0870  141.6550 C   0  0  0  0  0  2  0  0  0  0  0  0
  189.7350  177.1940  140.9250 C   0  0  2  0  0  3  0  0  0  0  0  0
  191.2040  177.5140  140.5650 C   0  0  2  0  0  3  0  0  0  0  0  0
  191.5590  177.3990  143.0010 C   0  0  0  0  0  2  0  0  0  0  0  0
  189.3230  177.2070  144.1680 C   0  0  0  0  0  0  0  0  0  0  0  0
  187.9240  176.9010  144.1030 N   0  0  0  0  0  2  0  0  0  0  0  0
  189.7640  178.0000  145.0400 O   0  0  0  0  0  0  0  0  0  0  0  0
  185.0250  178.1350  143.3710 N   0  0  0  0  0  2  0  0  0  0  0  0
  186.8980  177.5620  144.8530 C   0  0  2  0  0  3  0  0  0  0  0  0
  183.7310  178.9410  144.9970 C   0  0  0  0  0  3  0  0  0  0  0  0
  183.7390  178.5620  143.7500 N   0  0  0  0  0  0  0  0  0  0  0  0
  186.7630  177.4730  146.1770 C   0  0  0  0  0  3  0  0  0  0  0  0
  185.8240  178.3910  144.3500 C   0  0  2  0  0  3  0  0  0  0  0  0
  185.5440  178.2200  146.5750 C   0  0  0  0  0  3  0  0  0  0  0  0
  185.0940  178.8150  145.4790 C   0  0  2  0  0  3  0  0  0  0  0  0
  188.3280  178.9780  139.9140 C   0  0  0  0  0  2  0  0  0  0  0  0
  187.4670  178.2070  140.8960 C   0  0  0  0  0  2  0  0  0  0  0  0
  188.9320  178.4590  141.2070 C   0  0  0  0  0  3  0  0  0  0  0  0
  189.4440  175.9690  138.6540 C   0  0  0  0  0  2  0  0  0  0  0  0
  188.1130  175.3100  134.6100 C   0  0  0  0  0  2  0  0  0  0  0  0
  189.1120  173.4110  137.5480 O   0  0  0  0  0  0  0  0  0  0  0  0
  188.9220  175.7630  137.2270 C   0  0  2  0  0  3  0  0  0  0  0  0
  188.8520  174.3240  136.7810 C   0  0  0  0  0  0  0  0  0  0  0  0
  189.2310  176.3610  134.7400 C   0  0  2  0  0  3  0  0  0  0  0  0
  189.6620  176.6320  136.1920 C   0  0  1  0  0  3  0  0  0  0  0  0
  188.8280  177.6750  135.4320 C   0  0  2  0  0  3  0  0  0  0  0  0
  188.4630  174.0230  135.3560 C   0  0  1  0  0  3  0  0  0  0  0  0
  185.0960  176.8170  135.4490 C   0  0  0  0  0  2  0  0  0  0  0  0
  186.2740  177.5630  134.8220 C   0  0  0  0  0  2  0  0  0  0  0  0
  185.6920  177.8950  137.5480 N   0  0  0  0  0  0  0  0  0  0  0  0
  187.0550  177.9880  137.1080 C   0  0  0  0  0  3  0  0  0  0  0  0
  187.3740  177.8170  135.8200 C   0  0  0  0  0  0  0  0  0  0  0  0
  183.4100  177.2880  137.2700 N   0  0  0  0  0  2  0  0  0  0  0  0
  184.7540  177.4030  136.7930 C   0  0  0  0  0  0  0  0  0  0  0  0
  181.4450  178.1860  138.7940 O   0  0  0  0  0  0  0  0  0  0  0  0
  182.8560  177.6720  138.8730 S   0  0  0  0  0  0  0  0  0  0  0  0
  182.8830  176.4200  139.7030 O   0  0  0  0  0  0  0  0  0  0  0  0
  183.8550  178.9160  139.6700 C   0  0  0  0  0  2  0  0  0  0  0  0
  183.6740  180.1910  139.0000 N   0  0  0  0  0  1  0  0  0  0  0  0
  187.3460  173.1480  135.3150 O   0  0  0  0  0  0  0  0  0  0  0  0
  186.3590  173.2360  136.2560 C   0  0  0  0  0  0  0  0  0  0  0  0
  185.4930  173.3110  137.0900 C   0  0  0  0  0  3  0  0  0  0  0  0
  2  3  1  0  0  0  0
  3 28  1  6  0  0  0
  3  5  1  0  0  0  0
  4  2  1  0  0  0  0
  4  6  1  0  0  0  0
  5  1  1  1  0  0  0
  5 12  1  0  0  0  0
  6  1  1  0  0  0  0
  7  4  2  0  0  0  0
  8 14  1  1  0  0  0
  9  8  1  0  0  0  0
 10 13  1  0  0  0  0
 11 27  1  1  0  0  0
 11  9  1  0  0  0  0
 12 11  1  0  0  0  0
 12 10  1  1  0  0  0
 13  8  1  0  0  0  0
 14 16  2  0  0  0  0
 15 14  1  0  0  0  0
 17 20  1  0  0  0  0
 18 15  1  6  0  0  0
 18 21  1  0  0  0  0
 20 19  2  0  0  0  0
 21 23  2  0  0  0  0
 22 17  1  6  0  0  0
 22 18  1  0  0  0  0
 22 24  1  0  0  0  0
 24 19  1  6  0  0  0
 24 23  1  0  0  0  0
 25 26  1  0  0  0  0
 25 27  1  0  0  0  0
 26 27  1  0  0  0  0
 29 36  1  0  0  0  0
 31 28  1  1  0  0  0
 32 31  1  0  0  0  0
 32 30  2  0  0  0  0
 33 29  1  1  0  0  0
 33 35  1  0  0  0  0
 33 34  1  0  0  0  0
 34 31  1  0  0  0  0
 35 41  1  0  0  0  0
 35 34  1  0  0  0  0
 36 32  1  0  0  0  0
 37 43  1  0  0  0  0
 38 37  1  0  0  0  0
 38 41  1  0  0  0  0
 40 39  1  0  0  0  0
 41 40  2  0  0  0  0
 42 45  1  0  0  0  0
 43 42  1  0  0  0  0
 43 39  2  0  0  0  0
 44 45  2  0  0  0  0
 45 47  1  0  0  0  0
 45 46  2  0  0  0  0
 48 47  1  0  0  0  0
 49 36  1  0  0  0  0
 49 50  1  0  0  0  0
 50 51  3  0  0  0  0
M  END
>  <MODEL>
2

>  <REMARK>
 VINA RESULT:      -8.2      1.510      2.087
  Name = 
  11 active torsions:
  status: ('A' for Active; 'I' for Inactive)
    1  A    between atoms: C_3  and  C_4
    2  A    between atoms: C_7  and  O_51
    3  A    between atoms: C_9  and  N_20
    4  A    between atoms: C_14  and  C_47
    5  A    between atoms: C_16  and  S_19
    6  A    between atoms: S_19  and  N_44
    7  A    between atoms: C_24  and  C_47
    8  A    between atoms: C_32  and  C_43
    9  A    between atoms: C_33  and  C_38
   10  A    between atoms: C_35  and  C_36
   11  A    between atoms: C_42  and  O_51
                            x       y       z     vdW  Elec       q    Type
                         _______ _______ _______ _____ _____    ______ ____

>  <TORSDO>
F 11

$$$$
=
 OpenBabel11062414573D

 51 58  0  0  1  0  0  0  0  0999 V2000
  182.1870  179.4050  143.9730 C   0  0  0  0  0  2  0  0  0  0  0  0
  180.9910  178.9990  141.4370 O   0  0  0  0  0  0  0  0  0  0  0  0
  182.4170  179.0920  141.4800 C   0  0  1  0  0  3  0  0  0  0  0  0
  180.1670  179.1580  142.5540 C   0  0  0  0  0  0  0  0  0  0  0  0
  182.9640  178.6990  142.8580 C   0  0  1  0  0  3  0  0  0  0  0  0
  180.7180  179.0120  143.9360 C   0  0  0  0  0  2  0  0  0  0  0  0
  178.9310  179.3260  142.3910 O   0  0  0  0  0  0  0  0  0  0  0  0
  187.0120  177.7330  142.1310 C   0  0  1  0  0  3  0  0  0  0  0  0
  186.0620  177.0190  142.9210 O   0  0  0  0  0  0  0  0  0  0  0  0
  185.0510  179.1500  141.5430 C   0  0  0  0  0  2  0  0  0  0  0  0
  185.2660  177.8680  143.7380 C   0  0  2  0  0  3  0  0  0  0  0  0
  184.4820  178.9330  142.9380 C   0  0  2  0  0  3  0  0  0  0  0  0
  186.5620  179.1130  141.6280 C   0  0  0  0  0  2  0  0  0  0  0  0
  188.3800  177.7560  142.7480 C   0  0  0  0  0  0  0  0  0  0  0  0
  188.8610  176.5970  143.4400 N   0  0  0  0  0  2  0  0  0  0  0  0
  189.0830  178.7970  142.6800 O   0  0  0  0  0  0  0  0  0  0  0  0
  189.4960  177.1410  146.5650 N   0  0  0  0  0  2  0  0  0  0  0  0
  190.0450  176.5470  144.2450 C   0  0  2  0  0  3  0  0  0  0  0  0
  191.5470  176.7610  147.3520 C   0  0  0  0  0  3  0  0  0  0  0  0
  190.3090  176.9760  147.7010 N   0  0  0  0  0  0  0  0  0  0  0  0
  191.1430  175.8630  143.9220 C   0  0  0  0  0  3  0  0  0  0  0  0
  190.2690  177.1670  145.5340 C   0  0  2  0  0  3  0  0  0  0  0  0
  192.1160  175.9830  145.0360 C   0  0  0  0  0  3  0  0  0  0  0  0
  191.5890  176.8350  145.9040 C   0  0  2  0  0  3  0  0  0  0  0  0
  185.1540  178.6620  146.0920 C   0  0  0  0  0  2  0  0  0  0  0  0
  186.1300  177.5040  146.0380 C   0  0  0  0  0  2  0  0  0  0  0  0
  186.0580  178.4880  144.8850 C   0  0  0  0  0  3  0  0  0  0  0  0
  183.0130  178.1700  140.4090 C   0  0  0  0  0  2  0  0  0  0  0  0
  180.4060  177.6700  137.0160 C   0  0  0  0  0  2  0  0  0  0  0  0
  182.2860  180.2830  138.7110 O   0  0  0  0  0  0  0  0  0  0  0  0
  182.1220  177.9540  139.1800 C   0  0  2  0  0  3  0  0  0  0  0  0
  181.7940  179.2080  138.4090 C   0  0  0  0  0  0  0  0  0  0  0  0
  179.8860  177.0150  138.3100 C   0  0  2  0  0  3  0  0  0  0  0  0
  180.8480  177.1490  139.5030 C   0  0  1  0  0  3  0  0  0  0  0  0
  180.6830  175.7930  138.8000 C   0  0  2  0  0  3  0  0  0  0  0  0
  180.8310  179.1190  137.2540 C   0  0  1  0  0  3  0  0  0  0  0  0
  182.8730  175.6780  135.6590 C   0  0  0  0  0  2  0  0  0  0  0  0
  181.6400  175.1970  136.4250 C   0  0  0  0  0  2  0  0  0  0  0  0
  184.1850  174.9940  137.5910 N   0  0  0  0  0  0  0  0  0  0  0  0
  183.0440  175.2060  138.4360 C   0  0  0  0  0  3  0  0  0  0  0  0
  181.8170  175.3270  137.9160 C   0  0  0  0  0  0  0  0  0  0  0  0
  185.2930  174.9760  135.4890 N   0  0  0  0  0  2  0  0  0  0  0  0
  184.1310  175.1580  136.3030 C   0  0  0  0  0  0  0  0  0  0  0  0
  186.8710  173.3270  136.8230 O   0  0  0  0  0  0  0  0  0  0  0  0
  186.8970  174.6210  136.0580 S   0  0  0  0  0  0  0  0  0  0  0  0
  187.8070  174.4780  134.8710 O   0  0  0  0  0  0  0  0  0  0  0  0
  187.5440  175.8870  137.1340 C   0  0  0  0  0  2  0  0  0  0  0  0
  187.7450  177.1120  136.3820 N   0  0  0  0  0  1  0  0  0  0  0  0
  181.4230  179.6250  136.0670 O   0  0  0  0  0  0  0  0  0  0  0  0
  180.7880  180.5800  135.3250 C   0  0  0  0  0  0  0  0  0  0  0  0
  180.2250  181.4240  134.6750 C   0  0  0  0  0  3  0  0  0  0  0  0
  2  3  1  0  0  0  0
  2  4  1  0  0  0  0
  3 28  1  6  0  0  0
  3  5  1  0  0  0  0
  4  6  1  0  0  0  0
  5 12  1  0  0  0  0
  5  1  1  1  0  0  0
  6  1  1  0  0  0  0
  7  4  2  0  0  0  0
  8 14  1  1  0  0  0
  8  9  1  0  0  0  0
  9 11  1  0  0  0  0
 10 13  1  0  0  0  0
 11 27  1  1  0  0  0
 12 10  1  6  0  0  0
 12 11  1  0  0  0  0
 13  8  1  0  0  0  0
 14 15  1  0  0  0  0
 16 14  2  0  0  0  0
 17 20  1  0  0  0  0
 18 15  1  1  0  0  0
 18 22  1  0  0  0  0
 19 20  2  0  0  0  0
 21 18  1  0  0  0  0
 21 23  2  0  0  0  0
 22 24  1  0  0  0  0
 22 17  1  1  0  0  0
 24 23  1  6  0  0  0
 24 19  1  0  0  0  0
 26 25  1  0  0  0  0
 27 26  1  0  0  0  0
 27 25  1  0  0  0  0
 29 36  1  0  0  0  0
 31 34  1  0  0  0  0
 31 28  1  1  0  0  0
 32 30  2  0  0  0  0
 32 31  1  0  0  0  0
 33 29  1  6  0  0  0
 33 35  1  0  0  0  0
 33 34  1  0  0  0  0
 35 34  1  0  0  0  0
 36 32  1  0  0  0  0
 37 43  1  0  0  0  0
 37 38  1  0  0  0  0
 38 41  1  0  0  0  0
 39 40  1  0  0  0  0
 41 40  2  0  0  0  0
 41 35  1  0  0  0  0
 42 45  1  0  0  0  0
 42 43  1  0  0  0  0
 43 39  2  0  0  0  0
 45 44  2  0  0  0  0
 45 47  1  0  0  0  0
 46 45  2  0  0  0  0
 48 47  1  0  0  0  0
 49 36  1  0  0  0  0
 50 49  1  0  0  0  0
 51 50  3  0  0  0  0
M  END
>  <MODEL>
3

>  <REMARK>
 VINA RESULT:      -7.7      2.922      7.504
  Name = 
  11 active torsions:
  status: ('A' for Active; 'I' for Inactive)
    1  A    between atoms: C_3  and  C_4
    2  A    between atoms: C_7  and  O_51
    3  A    between atoms: C_9  and  N_20
    4  A    between atoms: C_14  and  C_47
    5  A    between atoms: C_16  and  S_19
    6  A    between atoms: S_19  and  N_44
    7  A    between atoms: C_24  and  C_47
    8  A    between atoms: C_32  and  C_43
    9  A    between atoms: C_33  and  C_38
   10  A    between atoms: C_35  and  C_36
   11  A    between atoms: C_42  and  O_51
                            x       y       z     vdW  Elec       q    Type
                         _______ _______ _______ _____ _____    ______ ____

>  <TORSDO>
F 11

$$$$
=
 OpenBabel11062414573D

 51 58  0  0  1  0  0  0  0  0999 V2000
  191.3170  176.6130  137.0900 C   0  0  0  0  0  2  0  0  0  0  0  0
  189.0970  174.9680  136.4640 O   0  0  0  0  0  0  0  0  0  0  0  0
  189.0860  175.6250  137.7330 C   0  0  1  0  0  3  0  0  0  0  0  0
  190.1580  175.0450  135.5570 C   0  0  0  0  0  0  0  0  0  0  0  0
  189.9480  176.8940  137.7170 C   0  0  1  0  0  3  0  0  0  0  0  0
  191.1640  176.1470  135.6510 C   0  0  0  0  0  2  0  0  0  0  0  0
  190.2070  174.2370  134.5940 O   0  0  0  0  0  0  0  0  0  0  0  0
  190.1890  176.7700  141.9330 C   0  0  1  0  0  3  0  0  0  0  0  0
  189.1190  176.3350  141.0970 O   0  0  0  0  0  0  0  0  0  0  0  0
  191.3660  177.1380  139.7700 C   0  0  0  0  0  2  0  0  0  0  0  0
  188.8320  177.2430  140.0400 C   0  0  2  0  0  3  0  0  0  0  0  0
  190.0430  177.5170  139.1190 C   0  0  2  0  0  3  0  0  0  0  0  0
  191.3170  177.5390  141.2290 C   0  0  0  0  0  2  0  0  0  0  0  0
  189.7110  177.4510  143.1820 C   0  0  0  0  0  0  0  0  0  0  0  0
  188.8120  176.7630  144.0600 N   0  0  0  0  0  2  0  0  0  0  0  0
  190.0790  178.6270  143.4370 O   0  0  0  0  0  0  0  0  0  0  0  0
  185.8190  177.9100  144.5010 N   0  0  0  0  0  2  0  0  0  0  0  0
  188.1190  177.3580  145.1640 C   0  0  2  0  0  3  0  0  0  0  0  0
  185.1960  178.6080  146.5240 C   0  0  0  0  0  3  0  0  0  0  0  0
  184.7540  178.2740  145.3450 N   0  0  0  0  0  0  0  0  0  0  0  0
  188.4830  177.2170  146.4390 C   0  0  0  0  0  3  0  0  0  0  0  0
  186.9160  178.1620  145.1290 C   0  0  2  0  0  3  0  0  0  0  0  0
  187.4790  177.9020  147.2910 C   0  0  0  0  0  3  0  0  0  0  0  0
  186.6430  178.5170  146.4660 C   0  0  2  0  0  3  0  0  0  0  0  0
  186.7770  178.6420  139.9930 C   0  0  0  0  0  2  0  0  0  0  0  0
  187.0070  178.2020  141.4250 C   0  0  0  0  0  2  0  0  0  0  0  0
  188.1910  178.5350  140.5350 C   0  0  0  0  0  3  0  0  0  0  0  0
  187.6420  175.9900  138.0980 C   0  0  0  0  0  2  0  0  0  0  0  0
  184.7800  174.4850  135.2520 C   0  0  0  0  0  2  0  0  0  0  0  0
  186.9060  173.2860  137.9490 O   0  0  0  0  0  0  0  0  0  0  0  0
  186.5840  175.4900  137.1070 C   0  0  2  0  0  3  0  0  0  0  0  0
  186.3490  174.0000  137.1320 C   0  0  0  0  0  0  0  0  0  0  0  0
  185.8460  175.4140  134.6400 C   0  0  2  0  0  3  0  0  0  0  0  0
  186.8310  175.9920  135.6710 C   0  0  1  0  0  3  0  0  0  0  0  0
  185.7510  176.8930  135.0520 C   0  0  2  0  0  3  0  0  0  0  0  0
  185.4150  173.3960  136.1160 C   0  0  1  0  0  3  0  0  0  0  0  0
  182.4060  176.4190  136.8560 C   0  0  0  0  0  2  0  0  0  0  0  0
  183.1820  176.8240  135.6020 C   0  0  0  0  0  2  0  0  0  0  0  0
  183.7600  178.0390  138.0660 N   0  0  0  0  0  0  0  0  0  0  0  0
  184.8140  177.8690  137.1060 C   0  0  0  0  0  3  0  0  0  0  0  0
  184.5820  177.2770  135.9290 C   0  0  0  0  0  0  0  0  0  0  0  0
  181.6010  177.5820  138.9490 N   0  0  0  0  0  2  0  0  0  0  0  0
  182.6210  177.4220  137.9580 C   0  0  0  0  0  0  0  0  0  0  0  0
  183.1440  178.3720  140.9450 O   0  0  0  0  0  0  0  0  0  0  0  0
  181.7390  178.4930  140.4230 S   0  0  0  0  0  0  0  0  0  0  0  0
  181.4430  179.9360  140.1250 O   0  0  0  0  0  0  0  0  0  0  0  0
  180.6250  177.9240  141.6940 C   0  0  0  0  0  2  0  0  0  0  0  0
  179.2560  178.2070  141.3060 N   0  0  0  0  0  1  0  0  0  0  0  0
  184.3840  172.6600  136.7580 O   0  0  0  0  0  0  0  0  0  0  0  0
  183.1720  172.4870  136.1530 C   0  0  0  0  0  0  0  0  0  0  0  0
  182.1030  172.3400  135.6170 C   0  0  0  0  0  3  0  0  0  0  0  0
  2  3  1  0  0  0  0
  3 28  1  6  0  0  0
  4  6  1  0  0  0  0
  4  2  1  0  0  0  0
  5  1  1  1  0  0  0
  5  3  1  0  0  0  0
  5 12  1  0  0  0  0
  6  1  1  0  0  0  0
  7  4  2  0  0  0  0
  8 14  1  1  0  0  0
  9  8  1  0  0  0  0
 10 13  1  0  0  0  0
 11 27  1  1  0  0  0
 11  9  1  0  0  0  0
 12 10  1  1  0  0  0
 12 11  1  0  0  0  0
 13  8  1  0  0  0  0
 14 16  2  0  0  0  0
 14 15  1  0  0  0  0
 17 20  1  0  0  0  0
 18 15  1  1  0  0  0
 18 21  1  0  0  0  0
 20 19  2  0  0  0  0
 21 23  2  0  0  0  0
 22 17  1  1  0  0  0
 22 18  1  0  0  0  0
 22 24  1  0  0  0  0
 24 19  1  1  0  0  0
 24 23  1  0  0  0  0
 25 27  1  0  0  0  0
 25 26  1  0  0  0  0
 27 26  1  0  0  0  0
 29 36  1  0  0  0  0
 31 32  1  0  0  0  0
 31 28  1  1  0  0  0
 32 30  2  0  0  0  0
 33 35  1  0  0  0  0
 33 29  1  1  0  0  0
 33 34  1  0  0  0  0
 34 31  1  0  0  0  0
 35 34  1  0  0  0  0
 35 41  1  0  0  0  0
 36 49  1  0  0  0  0
 36 32  1  0  0  0  0
 37 43  1  0  0  0  0
 38 41  1  0  0  0  0
 38 37  1  0  0  0  0
 40 39  1  0  0  0  0
 41 40  2  0  0  0  0
 42 45  1  0  0  0  0
 43 39  2  0  0  0  0
 43 42  1  0  0  0  0
 45 44  2  0  0  0  0
 45 47  1  0  0  0  0
 46 45  2  0  0  0  0
 48 47  1  0  0  0  0
 50 49  1  0  0  0  0
 51 50  3  0  0  0  0
M  END
>  <MODEL>
4

>  <REMARK>
 VINA RESULT:      -6.9      1.718      2.112
  Name = 
  11 active torsions:
  status: ('A' for Active; 'I' for Inactive)
    1  A    between atoms: C_3  and  C_4
    2  A    between atoms: C_7  and  O_51
    3  A    between atoms: C_9  and  N_20
    4  A    between atoms: C_14  and  C_47
    5  A    between atoms: C_16  and  S_19
    6  A    between atoms: S_19  and  N_44
    7  A    between atoms: C_24  and  C_47
    8  A    between atoms: C_32  and  C_43
    9  A    between atoms: C_33  and  C_38
   10  A    between atoms: C_35  and  C_36
   11  A    between atoms: C_42  and  O_51
                            x       y       z     vdW  Elec       q    Type
                         _______ _______ _______ _____ _____    ______ ____

>  <TORSDO>
F 11

$$$$
=
 OpenBabel11062414573D

 51 58  0  0  1  0  0  0  0  0999 V2000
  182.8440  177.4620  134.5940 C   0  0  0  0  0  2  0  0  0  0  0  0
  181.4580  176.5370  136.8850 O   0  0  0  0  0  0  0  0  0  0  0  0
  182.8160  176.1170  136.7290 C   0  0  1  0  0  3  0  0  0  0  0  0
  180.7710  177.3150  135.9500 C   0  0  0  0  0  0  0  0  0  0  0  0
  183.6130  177.1060  135.8680 C   0  0  1  0  0  3  0  0  0  0  0  0
  181.5150  178.1210  134.9330 C   0  0  0  0  0  2  0  0  0  0  0  0
  179.5200  177.4160  136.0300 O   0  0  0  0  0  0  0  0  0  0  0  0
  187.1240  174.9450  136.7910 C   0  0  1  0  0  3  0  0  0  0  0  0
  186.5880  176.0850  137.4590 O   0  0  0  0  0  0  0  0  0  0  0  0
  185.0110  175.0620  135.4780 C   0  0  0  0  0  2  0  0  0  0  0  0
  186.1190  177.0870  136.5650 C   0  0  2  0  0  3  0  0  0  0  0  0
  185.0310  176.5800  135.5900 C   0  0  2  0  0  3  0  0  0  0  0  0
  186.4400  174.5610  135.4700 C   0  0  0  0  0  2  0  0  0  0  0  0
  188.6200  174.9840  136.6820 C   0  0  0  0  0  0  0  0  0  0  0  0
  189.4080  175.1690  137.8640 N   0  0  0  0  0  2  0  0  0  0  0  0
  189.1710  174.8840  135.5550 O   0  0  0  0  0  0  0  0  0  0  0  0
  192.0010  173.7150  136.5870 N   0  0  0  0  0  2  0  0  0  0  0  0
  190.8170  175.4320  137.8850 C   0  0  2  0  0  3  0  0  0  0  0  0
  194.0100  174.6560  136.8100 C   0  0  0  0  0  3  0  0  0  0  0  0
  193.3410  173.7440  136.1610 N   0  0  0  0  0  0  0  0  0  0  0  0
  191.3520  176.6230  138.1540 C   0  0  0  0  0  3  0  0  0  0  0  0
  191.8970  174.5130  137.5950 C   0  0  2  0  0  3  0  0  0  0  0  0
  192.8240  176.5220  137.9960 C   0  0  0  0  0  3  0  0  0  0  0  0
  193.0900  175.2440  137.7660 C   0  0  2  0  0  3  0  0  0  0  0  0
  187.1860  179.2850  136.1080 C   0  0  0  0  0  2  0  0  0  0  0  0
  188.1940  178.4240  136.8420 C   0  0  0  0  0  2  0  0  0  0  0  0
  187.2530  177.7940  135.8310 C   0  0  0  0  0  3  0  0  0  0  0  0
  183.4680  175.9990  138.1120 C   0  0  0  0  0  2  0  0  0  0  0  0
  182.4960  179.3030  140.6990 C   0  0  0  0  0  2  0  0  0  0  0  0
  181.0350  176.1950  139.4990 O   0  0  0  0  0  0  0  0  0  0  0  0
  183.1670  177.1620  139.0640 C   0  0  2  0  0  3  0  0  0  0  0  0
  181.7940  177.1320  139.6860 C   0  0  0  0  0  0  0  0  0  0  0  0
  183.0670  179.7220  139.3310 C   0  0  2  0  0  3  0  0  0  0  0  0
  183.4640  178.5370  138.4350 C   0  0  1  0  0  3  0  0  0  0  0  0
  184.5530  179.3910  139.1030 C   0  0  2  0  0  3  0  0  0  0  0  0
  181.3600  178.2910  140.5450 C   0  0  1  0  0  3  0  0  0  0  0  0
  187.5750  178.5900  141.3150 C   0  0  0  0  0  2  0  0  0  0  0  0
  186.6980  178.2530  140.1090 C   0  0  0  0  0  2  0  0  0  0  0  0
  185.5450  178.5150  142.6550 N   0  0  0  0  0  0  0  0  0  0  0  0
  184.7730  178.8720  141.4970 C   0  0  0  0  0  3  0  0  0  0  0  0
  185.2950  178.7790  140.2690 C   0  0  0  0  0  0  0  0  0  0  0  0
  187.5800  178.0140  143.7740 N   0  0  0  0  0  2  0  0  0  0  0  0
  186.8310  178.3320  142.5980 C   0  0  0  0  0  0  0  0  0  0  0  0
  186.0430  176.7260  145.4970 O   0  0  0  0  0  0  0  0  0  0  0  0
  186.9540  177.9180  145.3940 S   0  0  0  0  0  0  0  0  0  0  0  0
  188.1050  177.7470  146.3440 O   0  0  0  0  0  0  0  0  0  0  0  0
  186.0270  179.3670  145.8620 C   0  0  0  0  0  2  0  0  0  0  0  0
  184.6550  178.9960  146.1570 N   0  0  0  0  0  1  0  0  0  0  0  0
  180.9680  177.8420  141.8340 O   0  0  0  0  0  0  0  0  0  0  0  0
  181.4410  178.4560  142.9590 C   0  0  0  0  0  0  0  0  0  0  0  0
  181.8540  179.0020  143.9500 C   0  0  0  0  0  3  0  0  0  0  0  0
  1  6  1  0  0  0  0
  3  2  1  0  0  0  0
  3 28  1  1  0  0  0
  4  7  2  0  0  0  0
  4  2  1  0  0  0  0
  5  1  1  6  0  0  0
  5  3  1  0  0  0  0
  6  4  1  0  0  0  0
  8 14  1  6  0  0  0
  8  9  1  0  0  0  0
 11 27  1  6  0  0  0
 11  9  1  0  0  0  0
 12 10  1  1  0  0  0
 12  5  1  0  0  0  0
 12 11  1  0  0  0  0
 13 10  1  0  0  0  0
 13  8  1  0  0  0  0
 14 15  1  0  0  0  0
 16 14  2  0  0  0  0
 18 15  1  6  0  0  0
 18 21  1  0  0  0  0
 20 17  1  0  0  0  0
 20 19  2  0  0  0  0
 22 17  1  6  0  0  0
 22 24  1  0  0  0  0
 22 18  1  0  0  0  0
 23 21  2  0  0  0  0
 24 19  1  6  0  0  0
 24 23  1  0  0  0  0
 25 26  1  0  0  0  0
 27 25  1  0  0  0  0
 27 26  1  0  0  0  0
 30 32  2  0  0  0  0
 31 28  1  6  0  0  0
 31 32  1  0  0  0  0
 32 36  1  0  0  0  0
 33 29  1  1  0  0  0
 34 31  1  0  0  0  0
 34 35  1  0  0  0  0
 34 33  1  0  0  0  0
 35 33  1  0  0  0  0
 35 41  1  0  0  0  0
 36 29  1  0  0  0  0
 36 49  1  0  0  0  0
 37 43  1  0  0  0  0
 38 41  1  0  0  0  0
 38 37  1  0  0  0  0
 40 39  1  0  0  0  0
 41 40  2  0  0  0  0
 42 45  1  0  0  0  0
 43 39  2  0  0  0  0
 43 42  1  0  0  0  0
 45 44  2  0  0  0  0
 45 47  1  0  0  0  0
 45 46  2  0  0  0  0
 47 48  1  0  0  0  0
 49 50  1  0  0  0  0
 50 51  3  0  0  0  0
M  END
>  <MODEL>
5

>  <REMARK>
 VINA RESULT:      -6.8      3.246      8.461
  Name = 
  11 active torsions:
  status: ('A' for Active; 'I' for Inactive)
    1  A    between atoms: C_3  and  C_4
    2  A    between atoms: C_7  and  O_51
    3  A    between atoms: C_9  and  N_20
    4  A    between atoms: C_14  and  C_47
    5  A    between atoms: C_16  and  S_19
    6  A    between atoms: S_19  and  N_44
    7  A    between atoms: C_24  and  C_47
    8  A    between atoms: C_32  and  C_43
    9  A    between atoms: C_33  and  C_38
   10  A    between atoms: C_35  and  C_36
   11  A    between atoms: C_42  and  O_51
                            x       y       z     vdW  Elec       q    Type
                         _______ _______ _______ _____ _____    ______ ____

>  <TORSDO>
F 11

$$$$
=
 OpenBabel11062414573D

 51 58  0  0  1  0  0  0  0  0999 V2000
  182.9570  177.1390  134.5940 C   0  0  0  0  0  2  0  0  0  0  0  0
  181.7990  176.6010  137.1230 O   0  0  0  0  0  0  0  0  0  0  0  0
  183.0050  175.9070  136.7950 C   0  0  1  0  0  3  0  0  0  0  0  0
  181.1380  177.4690  136.2490 C   0  0  0  0  0  0  0  0  0  0  0  0
  183.8340  176.6790  135.7610 C   0  0  1  0  0  3  0  0  0  0  0  0
  181.8560  178.0680  135.0820 C   0  0  0  0  0  2  0  0  0  0  0  0
  179.9600  177.8270  136.5070 O   0  0  0  0  0  0  0  0  0  0  0  0
  187.1050  174.0740  136.3610 C   0  0  1  0  0  3  0  0  0  0  0  0
  186.9100  175.3830  136.8930 O   0  0  0  0  0  0  0  0  0  0  0  0
  184.7900  174.3770  135.4960 C   0  0  0  0  0  2  0  0  0  0  0  0
  186.4020  176.3050  135.9370 C   0  0  2  0  0  3  0  0  0  0  0  0
  185.0580  175.8650  135.3120 C   0  0  2  0  0  3  0  0  0  0  0  0
  186.0900  173.6260  135.2990 C   0  0  0  0  0  2  0  0  0  0  0  0
  188.5270  173.8200  135.9510 C   0  0  0  0  0  0  0  0  0  0  0  0
  189.5920  174.1960  136.8320 N   0  0  0  0  0  2  0  0  0  0  0  0
  188.7750  173.3050  134.8300 O   0  0  0  0  0  0  0  0  0  0  0  0
  192.0290  176.2680  137.3160 N   0  0  0  0  0  2  0  0  0  0  0  0
  190.9830  174.2050  136.4890 C   0  0  2  0  0  3  0  0  0  0  0  0
  194.0920  175.7050  136.6870 C   0  0  0  0  0  3  0  0  0  0  0  0
  193.4040  176.5490  137.4030 N   0  0  0  0  0  0  0  0  0  0  0  0
  191.6890  173.1120  136.1950 C   0  0  0  0  0  3  0  0  0  0  0  0
  191.8770  175.3420  136.4320 C   0  0  2  0  0  3  0  0  0  0  0  0
  193.1020  173.5100  135.9800 C   0  0  0  0  0  3  0  0  0  0  0  0
  193.1310  174.8340  136.0350 C   0  0  2  0  0  3  0  0  0  0  0  0
  187.4600  178.1770  134.6890 C   0  0  0  0  0  2  0  0  0  0  0  0
  188.5400  177.4920  135.5020 C   0  0  0  0  0  2  0  0  0  0  0  0
  187.4310  176.6700  134.8720 C   0  0  0  0  0  3  0  0  0  0  0  0
  183.8320  175.7070  138.0710 C   0  0  0  0  0  2  0  0  0  0  0  0
  184.0510  179.2600  140.4970 C   0  0  0  0  0  2  0  0  0  0  0  0
  181.9380  176.3330  140.0450 O   0  0  0  0  0  0  0  0  0  0  0  0
  183.9610  176.9550  138.9540 C   0  0  2  0  0  3  0  0  0  0  0  0
  182.8280  177.1600  139.9280 C   0  0  0  0  0  0  0  0  0  0  0  0
  184.2580  179.5130  138.9920 C   0  0  2  0  0  3  0  0  0  0  0  0
  184.2340  178.2340  138.1390 C   0  0  1  0  0  3  0  0  0  0  0  0
  185.5640  178.9570  138.3990 C   0  0  2  0  0  3  0  0  0  0  0  0
  182.8030  178.4170  140.7580 C   0  0  1  0  0  3  0  0  0  0  0  0
  188.8890  177.4780  139.5950 C   0  0  0  0  0  2  0  0  0  0  0  0
  187.5370  177.2940  138.9050 C   0  0  0  0  0  2  0  0  0  0  0  0
  187.6570  178.3570  141.5010 N   0  0  0  0  0  0  0  0  0  0  0  0
  186.6050  178.7800  140.6210 C   0  0  0  0  0  3  0  0  0  0  0  0
  186.5250  178.3110  139.3700 C   0  0  0  0  0  0  0  0  0  0  0  0
  189.7540  177.3370  141.9640 N   0  0  0  0  0  2  0  0  0  0  0  0
  188.7030  177.7140  141.0700 C   0  0  0  0  0  0  0  0  0  0  0  0
  190.3330  179.1500  143.7990 O   0  0  0  0  0  0  0  0  0  0  0  0
  189.8530  177.7320  143.6540 S   0  0  0  0  0  0  0  0  0  0  0  0
  188.4830  177.6080  144.2580 O   0  0  0  0  0  0  0  0  0  0  0  0
  190.9760  176.6730  144.5460 C   0  0  0  0  0  2  0  0  0  0  0  0
  191.6340  175.7680  143.6220 N   0  0  0  0  0  1  0  0  0  0  0  0
  182.7400  178.1030  142.1410 O   0  0  0  0  0  0  0  0  0  0  0  0
  183.7850  178.4010  142.9700 C   0  0  0  0  0  0  0  0  0  0  0  0
  184.7050  178.6690  143.6990 C   0  0  0  0  0  3  0  0  0  0  0  0
  1  6  1  0  0  0  0
  3  2  1  0  0  0  0
  3 28  1  1  0  0  0
  4  7  2  0  0  0  0
  4  2  1  0  0  0  0
  5  1  1  6  0  0  0
  5  3  1  0  0  0  0
  6  4  1  0  0  0  0
  8 14  1  6  0  0  0
  8  9  1  0  0  0  0
 11 27  1  6  0  0  0
 11  9  1  0  0  0  0
 12 10  1  1  0  0  0
 12  5  1  0  0  0  0
 12 11  1  0  0  0  0
 13 10  1  0  0  0  0
 13  8  1  0  0  0  0
 14 15  1  0  0  0  0
 16 14  2  0  0  0  0
 17 20  1  0  0  0  0
 18 15  1  1  0  0  0
 19 20  2  0  0  0  0
 21 18  1  0  0  0  0
 22 18  1  0  0  0  0
 22 17  1  1  0  0  0
 23 21  2  0  0  0  0
 24 23  1  1  0  0  0
 24 22  1  0  0  0  0
 24 19  1  0  0  0  0
 25 27  1  0  0  0  0
 25 26  1  0  0  0  0
 27 26  1  0  0  0  0
 29 36  1  0  0  0  0
 31 28  1  6  0  0  0
 31 32  1  0  0  0  0
 32 30  2  0  0  0  0
 32 36  1  0  0  0  0
 33 29  1  1  0  0  0
 34 35  1  0  0  0  0
 34 31  1  0  0  0  0
 34 33  1  0  0  0  0
 35 33  1  0  0  0  0
 35 41  1  0  0  0  0
 36 49  1  0  0  0  0
 37 43  1  0  0  0  0
 38 41  1  0  0  0  0
 38 37  1  0  0  0  0
 40 39  1  0  0  0  0
 41 40  2  0  0  0  0
 42 45  1  0  0  0  0
 43 39  2  0  0  0  0
 43 42  1  0  0  0  0
 45 44  2  0  0  0  0
 45 46  2  0  0  0  0
 45 47  1  0  0  0  0
 48 47  1  0  0  0  0
 49 50  1  0  0  0  0
 50 51  3  0  0  0  0
M  END
>  <MODEL>
6

>  <REMARK>
 VINA RESULT:      -6.8      3.078      8.705
  Name = 
  11 active torsions:
  status: ('A' for Active; 'I' for Inactive)
    1  A    between atoms: C_3  and  C_4
    2  A    between atoms: C_7  and  O_51
    3  A    between atoms: C_9  and  N_20
    4  A    between atoms: C_14  and  C_47
    5  A    between atoms: C_16  and  S_19
    6  A    between atoms: S_19  and  N_44
    7  A    between atoms: C_24  and  C_47
    8  A    between atoms: C_32  and  C_43
    9  A    between atoms: C_33  and  C_38
   10  A    between atoms: C_35  and  C_36
   11  A    between atoms: C_42  and  O_51
                            x       y       z     vdW  Elec       q    Type
                         _______ _______ _______ _____ _____    ______ ____

>  <TORSDO>
F 11

$$$$
=
 OpenBabel11062414573D

 51 58  0  0  1  0  0  0  0  0999 V2000
  186.4710  178.3220  144.1810 C   0  0  0  0  0  2  0  0  0  0  0  0
  184.3670  179.3730  142.6000 O   0  0  0  0  0  0  0  0  0  0  0  0
  185.4430  178.7300  141.9130 C   0  0  1  0  0  3  0  0  0  0  0  0
  184.3310  179.5630  143.9850 C   0  0  0  0  0  0  0  0  0  0  0  0
  186.1560  177.7120  142.8130 C   0  0  1  0  0  3  0  0  0  0  0  0
  185.1920  178.7420  144.8900 C   0  0  0  0  0  2  0  0  0  0  0  0
  183.4920  180.3610  144.4770 O   0  0  0  0  0  0  0  0  0  0  0  0
  190.2890  177.4360  141.9850 C   0  0  1  0  0  3  0  0  0  0  0  0
  189.4060  178.5250  141.7190 O   0  0  0  0  0  0  0  0  0  0  0  0
  188.3070  176.4660  143.1380 C   0  0  0  0  0  2  0  0  0  0  0  0
  188.1520  178.1110  141.1940 C   0  0  2  0  0  3  0  0  0  0  0  0
  187.3940  177.1270  142.1140 C   0  0  2  0  0  3  0  0  0  0  0  0
  189.6240  176.1380  142.4670 C   0  0  0  0  0  2  0  0  0  0  0  0
  191.2790  177.2070  140.8790 C   0  0  0  0  0  0  0  0  0  0  0  0
  190.8700  176.4970  139.7040 N   0  0  0  0  0  2  0  0  0  0  0  0
  192.4630  177.6140  141.0010 O   0  0  0  0  0  0  0  0  0  0  0  0
  190.6730  174.2050  137.4300 N   0  0  0  0  0  2  0  0  0  0  0  0
  191.7490  176.0300  138.6730 C   0  0  2  0  0  3  0  0  0  0  0  0
  192.3190  173.9900  135.9410 C   0  0  0  0  0  3  0  0  0  0  0  0
  191.0890  173.6480  136.2060 N   0  0  0  0  0  0  0  0  0  0  0  0
  192.7590  176.7410  138.1720 C   0  0  0  0  0  3  0  0  0  0  0  0
  191.7000  174.7660  137.9700 C   0  0  2  0  0  3  0  0  0  0  0  0
  193.3800  175.9610  137.0720 C   0  0  0  0  0  3  0  0  0  0  0  0
  192.7830  174.7780  137.0670 C   0  0  2  0  0  3  0  0  0  0  0  0
  187.3260  178.3690  138.8630 C   0  0  0  0  0  2  0  0  0  0  0  0
  188.8100  178.6760  138.8660 C   0  0  0  0  0  2  0  0  0  0  0  0
  188.2600  177.5850  139.7660 C   0  0  0  0  0  3  0  0  0  0  0  0
  184.8920  178.0190  140.6710 C   0  0  0  0  0  2  0  0  0  0  0  0
  180.9410  179.3570  139.5970 C   0  0  0  0  0  2  0  0  0  0  0  0
  184.4200  180.2940  139.0950 O   0  0  0  0  0  0  0  0  0  0  0  0
  183.4760  178.4450  140.2630 C   0  0  2  0  0  3  0  0  0  0  0  0
  183.4070  179.7180  139.4570 C   0  0  0  0  0  0  0  0  0  0  0  0
  181.1050  179.0170  141.0900 C   0  0  2  0  0  3  0  0  0  0  0  0
  182.5020  178.4870  141.4560 C   0  0  1  0  0  3  0  0  0  0  0  0
  181.3040  177.5250  141.4120 C   0  0  2  0  0  3  0  0  0  0  0  0
  182.0540  180.2820  139.1070 C   0  0  1  0  0  3  0  0  0  0  0  0
  180.2650  176.2920  137.9380 C   0  0  0  0  0  2  0  0  0  0  0  0
  179.9660  176.4310  139.4310 C   0  0  0  0  0  2  0  0  0  0  0  0
  182.3600  175.2360  138.5830 N   0  0  0  0  0  0  0  0  0  0  0  0
  182.3430  175.9660  139.8190 C   0  0  0  0  0  3  0  0  0  0  0  0
  181.2270  176.5660  140.2470 C   0  0  0  0  0  0  0  0  0  0  0  0
  181.4580  174.6160  136.4730 N   0  0  0  0  0  2  0  0  0  0  0  0
  181.3980  175.3260  137.7130 C   0  0  0  0  0  0  0  0  0  0  0  0
  182.4010  172.9880  134.6160 O   0  0  0  0  0  0  0  0  0  0  0  0
  182.7880  173.6470  135.9110 S   0  0  0  0  0  0  0  0  0  0  0  0
  183.9700  174.5440  135.6770 O   0  0  0  0  0  0  0  0  0  0  0  0
  183.2500  172.3700  137.0660 C   0  0  0  0  0  2  0  0  0  0  0  0
  184.5810  172.6330  137.5800 N   0  0  0  0  0  1  0  0  0  0  0  0
  181.9280  180.4510  137.7030 O   0  0  0  0  0  0  0  0  0  0  0  0
  181.0360  181.3470  137.1870 C   0  0  0  0  0  0  0  0  0  0  0  0
  180.2500  182.1410  136.7360 C   0  0  0  0  0  3  0  0  0  0  0  0
  1  6  1  0  0  0  0
  2  4  1  0  0  0  0
  3 28  1  6  0  0  0
  3  2  1  0  0  0  0
  3  5  1  0  0  0  0
  4  7  2  0  0  0  0
  4  6  1  0  0  0  0
  5  1  1  1  0  0  0
  8 14  1  6  0  0  0
  8 13  1  0  0  0  0
  9  8  1  0  0  0  0
 11 27  1  6  0  0  0
 11  9  1  0  0  0  0
 11 12  1  0  0  0  0
 12  5  1  0  0  0  0
 12 10  1  1  0  0  0
 13 10  1  0  0  0  0
 14 16  2  0  0  0  0
 15 14  1  0  0  0  0
 18 15  1  6  0  0  0
 19 20  2  0  0  0  0
 20 17  1  0  0  0  0
 21 18  1  0  0  0  0
 22 17  1  6  0  0  0
 22 18  1  0  0  0  0
 23 21  2  0  0  0  0
 24 19  1  6  0  0  0
 24 23  1  0  0  0  0
 24 22  1  0  0  0  0
 25 26  1  0  0  0  0
 25 27  1  0  0  0  0
 26 27  1  0  0  0  0
 30 32  2  0  0  0  0
 31 28  1  1  0  0  0
 31 34  1  0  0  0  0
 32 31  1  0  0  0  0
 33 29  1  6  0  0  0
 33 35  1  0  0  0  0
 33 34  1  0  0  0  0
 35 34  1  0  0  0  0
 36 32  1  0  0  0  0
 36 29  1  0  0  0  0
 37 38  1  0  0  0  0
 38 41  1  0  0  0  0
 39 40  1  0  0  0  0
 40 41  2  0  0  0  0
 41 35  1  0  0  0  0
 42 43  1  0  0  0  0
 43 37  1  0  0  0  0
 43 39  2  0  0  0  0
 44 45  2  0  0  0  0
 45 42  1  0  0  0  0
 45 47  1  0  0  0  0
 46 45  2  0  0  0  0
 47 48  1  0  0  0  0
 49 36  1  0  0  0  0
 50 49  1  0  0  0  0
 51 50  3  0  0  0  0
M  END
>  <MODEL>
7

>  <REMARK>
 VINA RESULT:      -6.7      3.507      7.918
  Name = 
  11 active torsions:
  status: ('A' for Active; 'I' for Inactive)
    1  A    between atoms: C_3  and  C_4
    2  A    between atoms: C_7  and  O_51
    3  A    between atoms: C_9  and  N_20
    4  A    between atoms: C_14  and  C_47
    5  A    between atoms: C_16  and  S_19
    6  A    between atoms: S_19  and  N_44
    7  A    between atoms: C_24  and  C_47
    8  A    between atoms: C_32  and  C_43
    9  A    between atoms: C_33  and  C_38
   10  A    between atoms: C_35  and  C_36
   11  A    between atoms: C_42  and  O_51
                            x       y       z     vdW  Elec       q    Type
                         _______ _______ _______ _____ _____    ______ ____

>  <TORSDO>
F 11

$$$$
=
 OpenBabel11062414573D

 51 58  0  0  1  0  0  0  0  0999 V2000
  185.2760  179.1480  145.4650 C   0  0  0  0  0  2  0  0  0  0  0  0
  187.2130  177.2390  146.2610 O   0  0  0  0  0  0  0  0  0  0  0  0
  186.5800  177.0390  144.9950 C   0  0  1  0  0  3  0  0  0  0  0  0
  186.8860  178.2750  147.1400 C   0  0  0  0  0  0  0  0  0  0  0  0
  186.0600  178.3590  144.4120 C   0  0  1  0  0  3  0  0  0  0  0  0
  186.1640  179.4900  146.6510 C   0  0  0  0  0  2  0  0  0  0  0  0
  187.2920  178.2280  148.3300 O   0  0  0  0  0  0  0  0  0  0  0  0
  184.6360  179.3780  140.5680 C   0  0  1  0  0  3  0  0  0  0  0  0
  184.3660  180.0260  141.8090 O   0  0  0  0  0  0  0  0  0  0  0  0
  186.2090  178.0140  141.9340 C   0  0  0  0  0  2  0  0  0  0  0  0
  184.1070  179.1150  142.8700 C   0  0  2  0  0  3  0  0  0  0  0  0
  185.2610  178.1180  143.1210 C   0  0  2  0  0  3  0  0  0  0  0  0
  185.3900  178.0430  140.6600 C   0  0  0  0  0  2  0  0  0  0  0  0
  183.4290  179.3040  139.6770 C   0  0  0  0  0  0  0  0  0  0  0  0
  183.0040  180.4750  138.9690 N   0  0  0  0  0  2  0  0  0  0  0  0
  182.7850  178.2280  139.5780 O   0  0  0  0  0  0  0  0  0  0  0  0
  181.2500  182.9830  137.9230 N   0  0  0  0  0  2  0  0  0  0  0  0
  181.7670  180.6060  138.2570 C   0  0  2  0  0  3  0  0  0  0  0  0
  179.4250  182.6140  136.6980 C   0  0  0  0  0  3  0  0  0  0  0  0
  180.2730  183.5300  137.0710 N   0  0  0  0  0  0  0  0  0  0  0  0
  181.2300  179.6430  137.5070 C   0  0  0  0  0  3  0  0  0  0  0  0
  180.9070  181.7670  138.1760 C   0  0  2  0  0  3  0  0  0  0  0  0
  180.0030  180.1780  136.8660 C   0  0  0  0  0  3  0  0  0  0  0  0
  179.8130  181.3890  137.3720 C   0  0  2  0  0  3  0  0  0  0  0  0
  181.9330  178.6140  143.9690 C   0  0  0  0  0  2  0  0  0  0  0  0
  181.6470  179.4300  142.7240 C   0  0  0  0  0  2  0  0  0  0  0  0
  182.7660  178.4050  142.7170 C   0  0  0  0  0  3  0  0  0  0  0  0
  187.5860  176.4100  144.0240 C   0  0  0  0  0  2  0  0  0  0  0  0
  191.4970  178.1950  144.3020 C   0  0  0  0  0  2  0  0  0  0  0  0
  189.3230  175.9660  146.1840 O   0  0  0  0  0  0  0  0  0  0  0  0
  188.9930  177.0200  144.0740 C   0  0  2  0  0  3  0  0  0  0  0  0
  189.7690  176.7160  145.3310 C   0  0  0  0  0  0  0  0  0  0  0  0
  190.3800  179.1840  143.9200 C   0  0  2  0  0  3  0  0  0  0  0  0
  188.9970  178.5300  143.7680 C   0  0  1  0  0  3  0  0  0  0  0  0
  189.7700  178.9870  142.5210 C   0  0  2  0  0  3  0  0  0  0  0  0
  191.1150  177.3640  145.5270 C   0  0  1  0  0  3  0  0  0  0  0  0
  189.9470  176.4330  139.6730 C   0  0  0  0  0  2  0  0  0  0  0  0
  189.5640  176.7770  141.1120 C   0  0  0  0  0  2  0  0  0  0  0  0
  192.1920  177.1980  140.2200 N   0  0  0  0  0  0  0  0  0  0  0  0
  191.6460  178.0700  141.2210 C   0  0  0  0  0  3  0  0  0  0  0  0
  190.3910  177.9130  141.6580 C   0  0  0  0  0  0  0  0  0  0  0  0
  192.0110  175.5660  138.5010 N   0  0  0  0  0  2  0  0  0  0  0  0
  191.4450  176.3970  139.5190 C   0  0  0  0  0  0  0  0  0  0  0  0
  193.9290  176.7580  137.1270 O   0  0  0  0  0  0  0  0  0  0  0  0
  193.6740  175.5570  137.9940 S   0  0  0  0  0  0  0  0  0  0  0  0
  194.5490  175.6300  139.2130 O   0  0  0  0  0  0  0  0  0  0  0  0
  194.1030  174.0990  137.0600 C   0  0  0  0  0  2  0  0  0  0  0  0
  194.8280  174.4810  135.8620 N   0  0  0  0  0  1  0  0  0  0  0  0
  192.1170  176.3830  145.7480 O   0  0  0  0  0  0  0  0  0  0  0  0
  192.4320  175.9840  147.0160 C   0  0  0  0  0  0  0  0  0  0  0  0
  192.7040  175.6290  148.1350 C   0  0  0  0  0  3  0  0  0  0  0  0
  1  6  1  0  0  0  0
  2  4  1  0  0  0  0
  3 28  1  6  0  0  0
  3  2  1  0  0  0  0
  4  7  2  0  0  0  0
  5  3  1  0  0  0  0
  5  1  1  1  0  0  0
  6  4  1  0  0  0  0
  8 14  1  1  0  0  0
  8 13  1  0  0  0  0
  8  9  1  0  0  0  0
  9 11  1  0  0  0  0
 11 27  1  6  0  0  0
 11 12  1  0  0  0  0
 12 10  1  6  0  0  0
 12  5  1  0  0  0  0
 13 10  1  0  0  0  0
 15 14  1  0  0  0  0
 16 14  2  0  0  0  0
 18 15  1  6  0  0  0
 19 20  2  0  0  0  0
 20 17  1  0  0  0  0
 21 18  1  0  0  0  0
 22 17  1  6  0  0  0
 22 18  1  0  0  0  0
 23 24  1  0  0  0  0
 23 21  2  0  0  0  0
 24 19  1  6  0  0  0
 24 22  1  0  0  0  0
 26 25  1  0  0  0  0
 27 26  1  0  0  0  0
 27 25  1  0  0  0  0
 29 36  1  0  0  0  0
 31 28  1  1  0  0  0
 31 32  1  0  0  0  0
 32 36  1  0  0  0  0
 32 30  2  0  0  0  0
 33 29  1  6  0  0  0
 34 33  1  0  0  0  0
 34 31  1  0  0  0  0
 35 34  1  0  0  0  0
 35 33  1  0  0  0  0
 36 49  1  0  0  0  0
 37 38  1  0  0  0  0
 38 41  1  0  0  0  0
 39 40  1  0  0  0  0
 40 41  2  0  0  0  0
 41 35  1  0  0  0  0
 42 43  1  0  0  0  0
 43 37  1  0  0  0  0
 43 39  2  0  0  0  0
 44 45  2  0  0  0  0
 45 42  1  0  0  0  0
 45 46  2  0  0  0  0
 47 45  1  0  0  0  0
 48 47  1  0  0  0  0
 49 50  1  0  0  0  0
 50 51  3  0  0  0  0
M  END
>  <MODEL>
8

>  <REMARK>
 VINA RESULT:      -6.5      4.141     10.092
  Name = 
  11 active torsions:
  status: ('A' for Active; 'I' for Inactive)
    1  A    between atoms: C_3  and  C_4
    2  A    between atoms: C_7  and  O_51
    3  A    between atoms: C_9  and  N_20
    4  A    between atoms: C_14  and  C_47
    5  A    between atoms: C_16  and  S_19
    6  A    between atoms: S_19  and  N_44
    7  A    between atoms: C_24  and  C_47
    8  A    between atoms: C_32  and  C_43
    9  A    between atoms: C_33  and  C_38
   10  A    between atoms: C_35  and  C_36
   11  A    between atoms: C_42  and  O_51
                            x       y       z     vdW  Elec       q    Type
                         _______ _______ _______ _____ _____    ______ ____

>  <TORSDO>
F 11

$$$$
=
 OpenBabel11062414573D

 51 58  0  0  1  0  0  0  0  0999 V2000
  181.6930  180.1050  138.6540 C   0  0  0  0  0  2  0  0  0  0  0  0
  181.5130  178.9930  136.0540 O   0  0  0  0  0  0  0  0  0  0  0  0
  182.5020  178.4480  136.9310 C   0  0  1  0  0  3  0  0  0  0  0  0
  180.6870  180.0710  136.3860 C   0  0  0  0  0  0  0  0  0  0  0  0
  182.1230  178.6570  138.4030 C   0  0  1  0  0  3  0  0  0  0  0  0
  180.4740  180.4570  137.8140 C   0  0  0  0  0  2  0  0  0  0  0  0
  180.0400  180.6550  135.4790 O   0  0  0  0  0  0  0  0  0  0  0  0
  185.0940  179.2090  141.3550 C   0  0  1  0  0  3  0  0  0  0  0  0
  185.0400  179.7640  140.0420 O   0  0  0  0  0  0  0  0  0  0  0  0
  182.8260  178.3510  140.7900 C   0  0  0  0  0  2  0  0  0  0  0  0
  184.6350  178.8240  139.0550 C   0  0  2  0  0  3  0  0  0  0  0  0
  183.2520  178.1930  139.3370 C   0  0  2  0  0  3  0  0  0  0  0  0
  184.0370  178.1400  141.6730 C   0  0  0  0  0  2  0  0  0  0  0  0
  186.4800  178.7940  141.7540 C   0  0  0  0  0  0  0  0  0  0  0  0
  186.6590  177.6260  142.5660 N   0  0  0  0  0  2  0  0  0  0  0  0
  187.4700  179.4840  141.3990 O   0  0  0  0  0  0  0  0  0  0  0  0
  188.0290  178.2090  145.4380 N   0  0  0  0  0  2  0  0  0  0  0  0
  187.8890  177.2340  143.1880 C   0  0  2  0  0  3  0  0  0  0  0  0
  189.9430  177.1970  145.9690 C   0  0  0  0  0  3  0  0  0  0  0  0
  188.9420  177.8750  146.4550 N   0  0  0  0  0  0  0  0  0  0  0  0
  188.6090  176.1730  142.8200 C   0  0  0  0  0  3  0  0  0  0  0  0
  188.5520  177.8550  144.3150 C   0  0  2  0  0  3  0  0  0  0  0  0
  189.7610  176.0440  143.7480 C   0  0  0  0  0  3  0  0  0  0  0  0
  189.7280  177.1090  144.5360 C   0  0  2  0  0  3  0  0  0  0  0  0
  186.0070  177.7220  137.2990 C   0  0  0  0  0  2  0  0  0  0  0  0
  186.9510  178.4330  138.2480 C   0  0  0  0  0  2  0  0  0  0  0  0
  185.6980  177.7650  138.7840 C   0  0  0  0  0  3  0  0  0  0  0  0
  182.6520  176.9490  136.6480 C   0  0  0  0  0  2  0  0  0  0  0  0
  179.0180  174.6380  136.7590 C   0  0  0  0  0  2  0  0  0  0  0  0
  182.5940  174.1660  136.2850 O   0  0  0  0  0  0  0  0  0  0  0  0
  181.3500  176.1440  136.7410 C   0  0  2  0  0  3  0  0  0  0  0  0
  181.4980  174.6680  136.4710 C   0  0  0  0  0  0  0  0  0  0  0  0
  178.9310  175.9050  135.8880 C   0  0  2  0  0  3  0  0  0  0  0  0
  180.2140  176.7540  135.8980 C   0  0  1  0  0  3  0  0  0  0  0  0
  178.9670  177.2400  136.6530 C   0  0  2  0  0  3  0  0  0  0  0  0
  180.2590  173.8110  136.4240 C   0  0  1  0  0  3  0  0  0  0  0  0
  180.1870  176.0550  140.0850 C   0  0  0  0  0  2  0  0  0  0  0  0
  179.2920  175.8520  138.8620 C   0  0  0  0  0  2  0  0  0  0  0  0
  179.1860  178.2630  140.2950 N   0  0  0  0  0  0  0  0  0  0  0  0
  178.9330  178.2790  138.8820 C   0  0  0  0  0  3  0  0  0  0  0  0
  178.9930  177.1530  138.1620 C   0  0  0  0  0  0  0  0  0  0  0  0
  179.9960  177.2640  142.2940 N   0  0  0  0  0  2  0  0  0  0  0  0
  179.7200  177.2380  140.8910 C   0  0  0  0  0  0  0  0  0  0  0  0
  178.9360  178.1860  144.5340 O   0  0  0  0  0  0  0  0  0  0  0  0
  179.7670  178.6200  143.3580 S   0  0  0  0  0  0  0  0  0  0  0  0
  181.1120  179.0820  143.8440 O   0  0  0  0  0  0  0  0  0  0  0  0
  178.9370  179.9860  142.5680 C   0  0  0  0  0  2  0  0  0  0  0  0
  179.7570  181.1790  142.6640 N   0  0  0  0  0  1  0  0  0  0  0  0
  180.3580  172.7350  137.3450 O   0  0  0  0  0  0  0  0  0  0  0  0
  179.9020  171.4910  137.0120 C   0  0  0  0  0  0  0  0  0  0  0  0
  179.4950  170.3960  136.7180 C   0  0  0  0  0  3  0  0  0  0  0  0
  2  4  1  0  0  0  0
  2  3  1  0  0  0  0
  3 28  1  1  0  0  0
  3  5  1  0  0  0  0
  4  6  1  0  0  0  0
  5  1  1  6  0  0  0
  5 12  1  0  0  0  0
  6  1  1  0  0  0  0
  7  4  2  0  0  0  0
  8 13  1  0  0  0  0
  8 14  1  6  0  0  0
  9  8  1  0  0  0  0
 10 13  1  0  0  0  0
 11 27  1  1  0  0  0
 11 12  1  0  0  0  0
 11  9  1  0  0  0  0
 12 10  1  1  0  0  0
 14 15  1  0  0  0  0
 16 14  2  0  0  0  0
 17 20  1  0  0  0  0
 18 15  1  1  0  0  0
 18 22  1  0  0  0  0
 19 20  2  0  0  0  0
 21 18  1  0  0  0  0
 21 23  2  0  0  0  0
 22 24  1  0  0  0  0
 22 17  1  1  0  0  0
 24 23  1  1  0  0  0
 24 19  1  0  0  0  0
 25 26  1  0  0  0  0
 25 27  1  0  0  0  0
 26 27  1  0  0  0  0
 30 32  2  0  0  0  0
 31 28  1  6  0  0  0
 32 31  1  0  0  0  0
 33 34  1  0  0  0  0
 33 35  1  0  0  0  0
 33 29  1  1  0  0  0
 34 35  1  0  0  0  0
 34 31  1  0  0  0  0
 35 41  1  0  0  0  0
 36 32  1  0  0  0  0
 36 29  1  0  0  0  0
 36 49  1  0  0  0  0
 37 43  1  0  0  0  0
 38 37  1  0  0  0  0
 39 43  2  0  0  0  0
 40 39  1  0  0  0  0
 41 38  1  0  0  0  0
 41 40  2  0  0  0  0
 42 45  1  0  0  0  0
 43 42  1  0  0  0  0
 45 46  2  0  0  0  0
 45 44  2  0  0  0  0
 47 48  1  0  0  0  0
 47 45  1  0  0  0  0
 50 49  1  0  0  0  0
 51 50  3  0  0  0  0
M  END
>  <MODEL>
9

>  <REMARK>
 VINA RESULT:      -6.5      3.903      7.096
  Name = 
  11 active torsions:
  status: ('A' for Active; 'I' for Inactive)
    1  A    between atoms: C_3  and  C_4
    2  A    between atoms: C_7  and  O_51
    3  A    between atoms: C_9  and  N_20
    4  A    between atoms: C_14  and  C_47
    5  A    between atoms: C_16  and  S_19
    6  A    between atoms: S_19  and  N_44
    7  A    between atoms: C_24  and  C_47
    8  A    between atoms: C_32  and  C_43
    9  A    between atoms: C_33  and  C_38
   10  A    between atoms: C_35  and  C_36
   11  A    between atoms: C_42  and  O_51
                            x       y       z     vdW  Elec       q    Type
                         _______ _______ _______ _____ _____    ______ ____

>  <TORSDO>
F 11

$$$$
