=
 OpenBabel11062417183D

 26 28  0  0  1  0  0  0  0  0999 V2000
  189.0240  177.6470  141.7460 C   0  0  0  0  0  0  0  0  0  0  0  0
  191.0010  176.7500  142.3590 C   0  0  0  0  0  3  0  0  0  0  0  0
  190.7770  176.2390  141.1940 N   0  0  0  0  0  0  0  0  0  0  0  0
  189.9150  177.6410  142.7280 C   0  0  0  0  0  0  0  0  0  0  0  0
  189.5130  176.7370  140.6630 C   0  0  2  0  0  3  0  0  0  0  0  0
  189.7640  177.4990  139.4500 N   0  0  0  0  0  1  0  0  0  0  0  0
  187.6350  179.3920  140.9650 O   0  0  0  0  0  0  0  0  0  0  0  0
  187.7470  178.3850  141.7140 C   0  0  0  0  0  0  0  0  0  0  0  0
  186.6410  177.9630  142.5230 N   0  0  0  0  0  2  0  0  0  0  0  0
  185.3430  178.6270  142.5700 C   0  0  1  0  0  0  0  0  0  0  0  0
  185.4190  179.8200  141.8420 O   0  0  0  0  0  1  0  0  0  0  0  0
  181.2780  178.9320  143.4620 N   0  0  0  0  0  1  0  0  0  0  0  0
  184.3830  177.7560  141.9900 O   0  0  0  0  0  0  0  0  0  0  0  0
  185.0000  178.9410  144.0400 C   0  0  0  0  0  2  0  0  0  0  0  0
  183.0830  178.3340  141.9330 C   0  0  2  0  0  3  0  0  0  0  0  0
  183.5250  178.7290  144.3580 C   0  0  0  0  0  2  0  0  0  0  0  0
  182.9320  179.0940  140.7710 O   0  0  0  0  0  1  0  0  0  0  0  0
  182.6820  179.1480  143.1690 C   0  0  2  0  0  3  0  0  0  0  0  0
  189.7910  178.3810  143.9520 N   0  0  0  0  0  2  0  0  0  0  0  0
  188.5750  176.9050  147.7400 C   0  0  0  0  0  3  0  0  0  0  0  0
  190.3130  177.3370  146.1070 C   0  0  0  0  0  0  0  0  0  0  0  0
  187.6250  177.4490  146.8740 C   0  0  0  0  0  3  0  0  0  0  0  0
  191.6870  177.2700  145.7350 N   0  0  0  0  0  1  0  0  0  0  0  0
  188.0170  177.9380  145.6240 C   0  0  0  0  0  3  0  0  0  0  0  0
  189.3630  177.8870  145.2290 C   0  0  0  0  0  0  0  0  0  0  0  0
  189.9170  176.8490  147.3560 C   0  0  0  0  0  3  0  0  0  0  0  0
  1  4  2  0  0  0  0
  2  4  1  0  0  0  0
  3  2  2  0  0  0  0
  4 19  1  0  0  0  0
  5  6  1  6  0  0  0
  5  3  1  0  0  0  0
  5  1  1  0  0  0  0
  7  8  2  0  0  0  0
  8  1  1  0  0  0  0
  8  9  1  0  0  0  0
  9 10  1  0  0  0  0
 10 11  1  6  0  0  0
 10 14  1  0  0  0  0
 13 10  1  0  0  0  0
 14 16  1  0  0  0  0
 15 17  1  6  0  0  0
 15 13  1  0  0  0  0
 15 18  1  0  0  0  0
 18 12  1  1  0  0  0
 18 16  1  0  0  0  0
 19 25  1  0  0  0  0
 21 26  2  0  0  0  0
 22 20  2  0  0  0  0
 23 21  1  0  0  0  0
 24 22  1  0  0  0  0
 25 24  2  0  0  0  0
 25 21  1  0  0  0  0
 26 20  1  0  0  0  0
M  END
>  <MODEL>
1

>  <REMARK>
 VINA RESULT:      -8.5      0.000      0.000
  Name = 
  4 active torsions:
  status: ('A' for Active; 'I' for Inactive)
    1  A    between atoms: C_2  and  N_24
    2  A    between atoms: C_4  and  C_5
    3  A    between atoms: N_15  and  C_17
    4  A    between atoms: N_15  and  C_23
                            x       y       z     vdW  Elec       q    Type
                         _______ _______ _______ _____ _____    ______ ____

>  <TORSDO>
F 4

$$$$
=
 OpenBabel11062417183D

 26 28  0  0  1  0  0  0  0  0999 V2000
  186.7230  178.4970  141.8710 C   0  0  0  0  0  0  0  0  0  0  0  0
  185.6410  178.1950  143.8260 C   0  0  0  0  0  3  0  0  0  0  0  0
  184.9920  179.1570  143.2580 N   0  0  0  0  0  0  0  0  0  0  0  0
  186.7330  177.7610  142.9730 C   0  0  0  0  0  0  0  0  0  0  0  0
  185.5860  179.4660  141.9630 C   0  0  2  0  0  3  0  0  0  0  0  0
  184.6190  179.1980  140.9100 N   0  0  0  0  0  1  0  0  0  0  0  0
  188.9130  178.4850  140.9830 O   0  0  0  0  0  0  0  0  0  0  0  0
  187.6770  178.4210  140.7480 C   0  0  0  0  0  0  0  0  0  0  0  0
  187.2070  178.2730  139.4010 N   0  0  0  0  0  2  0  0  0  0  0  0
  188.0650  178.1960  138.2240 C   0  0  1  0  0  0  0  0  0  0  0  0
  189.0620  179.1740  138.3270 O   0  0  0  0  0  1  0  0  0  0  0  0
  189.4780  176.5200  134.6720 N   0  0  0  0  0  1  0  0  0  0  0  0
  188.6470  176.9000  138.1880 O   0  0  0  0  0  0  0  0  0  0  0  0
  187.2100  178.4620  136.9690 C   0  0  0  0  0  2  0  0  0  0  0  0
  189.5540  176.7380  137.1020 C   0  0  2  0  0  3  0  0  0  0  0  0
  187.6010  177.5760  135.7920 C   0  0  0  0  0  2  0  0  0  0  0  0
  190.8300  177.1800  137.4560 O   0  0  0  0  0  1  0  0  0  0  0  0
  189.1040  177.3760  135.7830 C   0  0  2  0  0  3  0  0  0  0  0  0
  187.6890  176.7300  143.2620 N   0  0  0  0  0  2  0  0  0  0  0  0
  191.1270  176.9860  145.7350 C   0  0  0  0  0  3  0  0  0  0  0  0
  190.0870  176.3800  143.6320 C   0  0  0  0  0  0  0  0  0  0  0  0
  189.8950  177.4290  146.2180 C   0  0  0  0  0  3  0  0  0  0  0  0
  190.2050  175.8420  142.3180 N   0  0  0  0  0  1  0  0  0  0  0  0
  188.7570  177.3480  145.4100 C   0  0  0  0  0  3  0  0  0  0  0  0
  188.8420  176.8230  144.1110 C   0  0  0  0  0  0  0  0  0  0  0  0
  191.2220  176.4620  144.4430 C   0  0  0  0  0  3  0  0  0  0  0  0
  1  5  1  0  0  0  0
  1  4  2  0  0  0  0
  3  2  2  0  0  0  0
  4 19  1  0  0  0  0
  4  2  1  0  0  0  0
  5  6  1  6  0  0  0
  5  3  1  0  0  0  0
  8  7  2  0  0  0  0
  8  1  1  0  0  0  0
  9  8  1  0  0  0  0
 10 11  1  1  0  0  0
 10  9  1  0  0  0  0
 13 10  1  0  0  0  0
 14 10  1  0  0  0  0
 15 17  1  1  0  0  0
 15 13  1  0  0  0  0
 16 14  1  0  0  0  0
 18 12  1  6  0  0  0
 18 16  1  0  0  0  0
 18 15  1  0  0  0  0
 19 25  1  0  0  0  0
 20 22  1  0  0  0  0
 21 25  2  0  0  0  0
 21 26  1  0  0  0  0
 23 21  1  0  0  0  0
 24 22  2  0  0  0  0
 25 24  1  0  0  0  0
 26 20  2  0  0  0  0
M  END
>  <MODEL>
2

>  <REMARK>
 VINA RESULT:      -8.5      2.897      5.725
  Name = 
  4 active torsions:
  status: ('A' for Active; 'I' for Inactive)
    1  A    between atoms: C_2  and  N_24
    2  A    between atoms: C_4  and  C_5
    3  A    between atoms: N_15  and  C_17
    4  A    between atoms: N_15  and  C_23
                            x       y       z     vdW  Elec       q    Type
                         _______ _______ _______ _____ _____    ______ ____

>  <TORSDO>
F 4

$$$$
=
 OpenBabel11062417183D

 26 28  0  0  1  0  0  0  0  0999 V2000
  189.8220  177.0900  143.8610 C   0  0  0  0  0  0  0  0  0  0  0  0
  188.9510  177.4790  145.9040 C   0  0  0  0  0  3  0  0  0  0  0  0
  190.2270  177.5520  146.0920 N   0  0  0  0  0  0  0  0  0  0  0  0
  188.6700  177.1920  144.5090 C   0  0  0  0  0  0  0  0  0  0  0  0
  190.9330  177.3190  144.8360 C   0  0  2  0  0  3  0  0  0  0  0  0
  191.6760  178.5140  144.4700 N   0  0  0  0  0  1  0  0  0  0  0  0
  190.4500  175.6370  142.1050 O   0  0  0  0  0  0  0  0  0  0  0  0
  190.0070  176.7710  142.4320 C   0  0  0  0  0  0  0  0  0  0  0  0
  189.6860  177.7370  141.4220 N   0  0  0  0  0  2  0  0  0  0  0  0
  189.8410  177.5240  139.9870 C   0  0  1  0  0  0  0  0  0  0  0  0
  191.2040  177.4040  139.6920 O   0  0  0  0  0  1  0  0  0  0  0  0
  188.5000  176.7950  136.1020 N   0  0  0  0  0  1  0  0  0  0  0  0
  189.1550  176.3270  139.6450 O   0  0  0  0  0  0  0  0  0  0  0  0
  189.2560  178.7390  139.2400 C   0  0  0  0  0  2  0  0  0  0  0  0
  189.2930  175.9930  138.2670 C   0  0  2  0  0  3  0  0  0  0  0  0
  188.5090  178.3450  137.9710 C   0  0  0  0  0  2  0  0  0  0  0  0
  190.4590  175.2550  138.0520 O   0  0  0  0  0  1  0  0  0  0  0  0
  189.2180  177.1830  137.3020 C   0  0  2  0  0  3  0  0  0  0  0  0
  187.3750  177.0180  143.9130 N   0  0  0  0  0  2  0  0  0  0  0  0
  183.9420  179.4620  144.4140 C   0  0  0  0  0  3  0  0  0  0  0  0
  185.6730  178.5280  142.9990 C   0  0  0  0  0  0  0  0  0  0  0  0
  184.4720  178.7830  145.5130 C   0  0  0  0  0  3  0  0  0  0  0  0
  186.2710  178.4110  141.7110 N   0  0  0  0  0  1  0  0  0  0  0  0
  185.6030  177.9750  145.3560 C   0  0  0  0  0  3  0  0  0  0  0  0
  186.2140  177.8400  144.1000 C   0  0  0  0  0  0  0  0  0  0  0  0
  184.5430  179.3340  143.1590 C   0  0  0  0  0  3  0  0  0  0  0  0
  1  4  2  0  0  0  0
  1  5  1  0  0  0  0
  2  3  2  0  0  0  0
  4  2  1  0  0  0  0
  5  6  1  6  0  0  0
  5  3  1  0  0  0  0
  7  8  2  0  0  0  0
  8  1  1  0  0  0  0
  9  8  1  0  0  0  0
 10 11  1  6  0  0  0
 10  9  1  0  0  0  0
 13 10  1  0  0  0  0
 14 10  1  0  0  0  0
 15 17  1  1  0  0  0
 15 13  1  0  0  0  0
 16 14  1  0  0  0  0
 18 12  1  6  0  0  0
 18 16  1  0  0  0  0
 18 15  1  0  0  0  0
 19 25  1  0  0  0  0
 19  4  1  0  0  0  0
 20 22  1  0  0  0  0
 21 26  1  0  0  0  0
 21 25  2  0  0  0  0
 23 21  1  0  0  0  0
 24 22  2  0  0  0  0
 25 24  1  0  0  0  0
 26 20  2  0  0  0  0
M  END
>  <MODEL>
3

>  <REMARK>
 VINA RESULT:      -8.2      2.776      5.859
  Name = 
  4 active torsions:
  status: ('A' for Active; 'I' for Inactive)
    1  A    between atoms: C_2  and  N_24
    2  A    between atoms: C_4  and  C_5
    3  A    between atoms: N_15  and  C_17
    4  A    between atoms: N_15  and  C_23
                            x       y       z     vdW  Elec       q    Type
                         _______ _______ _______ _____ _____    ______ ____

>  <TORSDO>
F 4

$$$$
=
 OpenBabel11062417183D

 26 28  0  0  1  0  0  0  0  0999 V2000
  189.7570  177.5320  143.1600 C   0  0  0  0  0  0  0  0  0  0  0  0
  189.7020  177.1010  145.3730 C   0  0  0  0  0  3  0  0  0  0  0  0
  190.9410  177.3850  145.1430 N   0  0  0  0  0  0  0  0  0  0  0  0
  188.9360  177.1880  144.1420 C   0  0  0  0  0  0  0  0  0  0  0  0
  191.1310  177.6930  143.7290 C   0  0  2  0  0  3  0  0  0  0  0  0
  191.5700  179.0720  143.5880 N   0  0  0  0  0  1  0  0  0  0  0  0
  188.6560  178.6490  141.3910 O   0  0  0  0  0  0  0  0  0  0  0  0
  189.4110  177.7000  141.7350 C   0  0  0  0  0  0  0  0  0  0  0  0
  189.9270  176.7980  140.7480 N   0  0  0  0  0  2  0  0  0  0  0  0
  189.6390  176.8720  139.3200 C   0  0  1  0  0  0  0  0  0  0  0  0
  190.3570  175.8670  138.6610 O   0  0  0  0  0  1  0  0  0  0  0  0
  187.6390  178.2590  135.9290 N   0  0  0  0  0  1  0  0  0  0  0  0
  188.2430  176.6780  139.1430 O   0  0  0  0  0  0  0  0  0  0  0  0
  190.0840  178.2520  138.7960 C   0  0  0  0  0  2  0  0  0  0  0  0
  187.8600  176.6730  137.7710 C   0  0  2  0  0  3  0  0  0  0  0  0
  189.1180  178.8300  137.7680 C   0  0  0  0  0  2  0  0  0  0  0  0
  187.9950  175.3950  137.2260 O   0  0  0  0  0  1  0  0  0  0  0  0
  188.5720  177.7140  136.8990 C   0  0  2  0  0  3  0  0  0  0  0  0
  187.5330  176.9280  143.9850 N   0  0  0  0  0  2  0  0  0  0  0  0
  184.2940  178.9950  145.7850 C   0  0  0  0  0  3  0  0  0  0  0  0
  185.4840  178.2620  143.8060 C   0  0  0  0  0  0  0  0  0  0  0  0
  185.2420  178.3640  146.5910 C   0  0  0  0  0  3  0  0  0  0  0  0
  185.5890  178.2210  142.3860 N   0  0  0  0  0  1  0  0  0  0  0  0
  186.3120  177.6800  146.0060 C   0  0  0  0  0  3  0  0  0  0  0  0
  186.4440  177.6230  144.6100 C   0  0  0  0  0  0  0  0  0  0  0  0
  184.4150  178.9440  144.3940 C   0  0  0  0  0  3  0  0  0  0  0  0
  1  5  1  0  0  0  0
  1  4  2  0  0  0  0
  3  2  2  0  0  0  0
  4  2  1  0  0  0  0
  5  6  1  1  0  0  0
  5  3  1  0  0  0  0
  7  8  2  0  0  0  0
  8  1  1  0  0  0  0
  9  8  1  0  0  0  0
 10 11  1  6  0  0  0
 10  9  1  0  0  0  0
 13 10  1  0  0  0  0
 14 10  1  0  0  0  0
 15 17  1  6  0  0  0
 15 13  1  0  0  0  0
 16 14  1  0  0  0  0
 18 12  1  6  0  0  0
 18 16  1  0  0  0  0
 18 15  1  0  0  0  0
 19  4  1  0  0  0  0
 19 25  1  0  0  0  0
 20 22  1  0  0  0  0
 21 26  1  0  0  0  0
 21 25  2  0  0  0  0
 23 21  1  0  0  0  0
 24 22  2  0  0  0  0
 25 24  1  0  0  0  0
 26 20  2  0  0  0  0
M  END
>  <MODEL>
4

>  <REMARK>
 VINA RESULT:      -8.2      2.532      5.434
  Name = 
  4 active torsions:
  status: ('A' for Active; 'I' for Inactive)
    1  A    between atoms: C_2  and  N_24
    2  A    between atoms: C_4  and  C_5
    3  A    between atoms: N_15  and  C_17
    4  A    between atoms: N_15  and  C_23
                            x       y       z     vdW  Elec       q    Type
                         _______ _______ _______ _____ _____    ______ ____

>  <TORSDO>
F 4

$$$$
=
 OpenBabel11062417183D

 26 28  0  0  1  0  0  0  0  0999 V2000
  189.6130  177.5350  142.9230 C   0  0  0  0  0  0  0  0  0  0  0  0
  189.7510  176.7950  145.0490 C   0  0  0  0  0  3  0  0  0  0  0  0
  190.9690  177.1010  144.7470 N   0  0  0  0  0  0  0  0  0  0  0  0
  188.8780  177.0610  143.9190 C   0  0  0  0  0  0  0  0  0  0  0  0
  191.0360  177.6050  143.3790 C   0  0  2  0  0  3  0  0  0  0  0  0
  191.4860  178.9880  143.3940 N   0  0  0  0  0  1  0  0  0  0  0  0
  188.5510  179.0070  141.4080 O   0  0  0  0  0  0  0  0  0  0  0  0
  189.1420  177.9060  141.5750 C   0  0  0  0  0  0  0  0  0  0  0  0
  189.3550  177.0280  140.4610 N   0  0  0  0  0  2  0  0  0  0  0  0
  188.9220  177.2970  139.0940 C   0  0  1  0  0  0  0  0  0  0  0  0
  187.6130  177.7930  139.1240 O   0  0  0  0  0  1  0  0  0  0  0  0
  189.4300  177.6860  134.9700 N   0  0  0  0  0  1  0  0  0  0  0  0
  189.8020  178.2630  138.5370 O   0  0  0  0  0  0  0  0  0  0  0  0
  188.9560  175.9800  138.2950 C   0  0  0  0  0  2  0  0  0  0  0  0
  189.4320  178.6430  137.2150 C   0  0  2  0  0  3  0  0  0  0  0  0
  189.4530  176.1710  136.8660 C   0  0  0  0  0  2  0  0  0  0  0  0
  188.4940  179.6770  137.2440 O   0  0  0  0  0  1  0  0  0  0  0  0
  188.9460  177.4930  136.3240 C   0  0  2  0  0  3  0  0  0  0  0  0
  187.4620  176.8340  143.8580 N   0  0  0  0  0  2  0  0  0  0  0  0
  184.4010  179.0010  145.8420 C   0  0  0  0  0  3  0  0  0  0  0  0
  185.4650  178.2550  143.7980 C   0  0  0  0  0  0  0  0  0  0  0  0
  185.3590  178.3160  146.5930 C   0  0  0  0  0  3  0  0  0  0  0  0
  185.5020  178.2360  142.3730 N   0  0  0  0  0  1  0  0  0  0  0  0
  186.3700  177.6000  145.9460 C   0  0  0  0  0  3  0  0  0  0  0  0
  186.4340  177.5620  144.5440 C   0  0  0  0  0  0  0  0  0  0  0  0
  184.4540  178.9700  144.4470 C   0  0  0  0  0  3  0  0  0  0  0  0
  1  5  1  0  0  0  0
  1  4  2  0  0  0  0
  3  2  2  0  0  0  0
  4  2  1  0  0  0  0
  5  6  1  1  0  0  0
  5  3  1  0  0  0  0
  7  8  2  0  0  0  0
  8  1  1  0  0  0  0
  9  8  1  0  0  0  0
 10 11  1  1  0  0  0
 10  9  1  0  0  0  0
 13 10  1  0  0  0  0
 14 10  1  0  0  0  0
 15 17  1  1  0  0  0
 15 13  1  0  0  0  0
 16 14  1  0  0  0  0
 18 12  1  6  0  0  0
 18 16  1  0  0  0  0
 18 15  1  0  0  0  0
 19  4  1  0  0  0  0
 19 25  1  0  0  0  0
 20 22  1  0  0  0  0
 21 26  1  0  0  0  0
 21 25  2  0  0  0  0
 23 21  1  0  0  0  0
 24 22  2  0  0  0  0
 25 24  1  0  0  0  0
 26 20  2  0  0  0  0
M  END
>  <MODEL>
5

>  <REMARK>
 VINA RESULT:      -8.1      2.382      5.627
  Name = 
  4 active torsions:
  status: ('A' for Active; 'I' for Inactive)
    1  A    between atoms: C_2  and  N_24
    2  A    between atoms: C_4  and  C_5
    3  A    between atoms: N_15  and  C_17
    4  A    between atoms: N_15  and  C_23
                            x       y       z     vdW  Elec       q    Type
                         _______ _______ _______ _____ _____    ______ ____

>  <TORSDO>
F 4

$$$$
=
 OpenBabel11062417183D

 26 28  0  0  1  0  0  0  0  0999 V2000
  186.5510  178.4530  142.0680 C   0  0  0  0  0  0  0  0  0  0  0  0
  184.8780  178.3530  143.5770 C   0  0  0  0  0  3  0  0  0  0  0  0
  184.4290  179.1550  142.6690 N   0  0  0  0  0  0  0  0  0  0  0  0
  186.2100  177.8960  143.2220 C   0  0  0  0  0  0  0  0  0  0  0  0
  185.4190  179.3170  141.6090 C   0  0  2  0  0  3  0  0  0  0  0  0
  184.8790  178.8060  140.3600 N   0  0  0  0  0  1  0  0  0  0  0  0
  188.8780  178.8030  141.8420 O   0  0  0  0  0  0  0  0  0  0  0  0
  187.8330  178.2950  141.3540 C   0  0  0  0  0  0  0  0  0  0  0  0
  187.8950  177.5700  140.1190 N   0  0  0  0  0  2  0  0  0  0  0  0
  189.1070  177.3640  139.3340 C   0  0  1  0  0  0  0  0  0  0  0  0
  189.6400  178.6120  138.9910 O   0  0  0  0  0  1  0  0  0  0  0  0
  192.1810  175.1070  137.6380 N   0  0  0  0  0  1  0  0  0  0  0  0
  190.0290  176.6370  140.1330 O   0  0  0  0  0  0  0  0  0  0  0  0
  188.7420  176.5890  138.0530 C   0  0  0  0  0  2  0  0  0  0  0  0
  191.2770  176.4310  139.4790 C   0  0  2  0  0  3  0  0  0  0  0  0
  189.7960  175.5550  137.6710 C   0  0  0  0  0  2  0  0  0  0  0  0
  192.1280  177.5200  139.6840 O   0  0  0  0  0  1  0  0  0  0  0  0
  191.1770  176.0950  137.9860 C   0  0  2  0  0  3  0  0  0  0  0  0
  187.0450  177.0120  143.9840 N   0  0  0  0  0  2  0  0  0  0  0  0
  189.0290  177.8230  147.6460 C   0  0  0  0  0  3  0  0  0  0  0  0
  189.0930  177.1250  145.3270 C   0  0  0  0  0  0  0  0  0  0  0  0
  187.6450  177.9910  147.5590 C   0  0  0  0  0  3  0  0  0  0  0  0
  189.8480  176.6840  144.2020 N   0  0  0  0  0  1  0  0  0  0  0  0
  186.9850  177.7260  146.3550 C   0  0  0  0  0  3  0  0  0  0  0  0
  187.7010  177.2910  145.2290 C   0  0  0  0  0  0  0  0  0  0  0  0
  189.7510  177.3910  146.5310 C   0  0  0  0  0  3  0  0  0  0  0  0
  1  4  2  0  0  0  0
  3  2  2  0  0  0  0
  4  2  1  0  0  0  0
  4 19  1  0  0  0  0
  5  6  1  6  0  0  0
  5  1  1  0  0  0  0
  5  3  1  0  0  0  0
  8  7  2  0  0  0  0
  8  1  1  0  0  0  0
  9  8  1  0  0  0  0
 10 11  1  6  0  0  0
 10  9  1  0  0  0  0
 10 13  1  0  0  0  0
 14 10  1  0  0  0  0
 15 17  1  6  0  0  0
 15 13  1  0  0  0  0
 16 18  1  0  0  0  0
 16 14  1  0  0  0  0
 18 12  1  1  0  0  0
 18 15  1  0  0  0  0
 19 25  1  0  0  0  0
 21 26  1  0  0  0  0
 22 20  1  0  0  0  0
 23 21  1  0  0  0  0
 24 22  2  0  0  0  0
 25 21  2  0  0  0  0
 25 24  1  0  0  0  0
 26 20  2  0  0  0  0
M  END
>  <MODEL>
6

>  <REMARK>
 VINA RESULT:      -8.1      2.408      5.818
  Name = 
  4 active torsions:
  status: ('A' for Active; 'I' for Inactive)
    1  A    between atoms: C_2  and  N_24
    2  A    between atoms: C_4  and  C_5
    3  A    between atoms: N_15  and  C_17
    4  A    between atoms: N_15  and  C_23
                            x       y       z     vdW  Elec       q    Type
                         _______ _______ _______ _____ _____    ______ ____

>  <TORSDO>
F 4

$$$$
=
 OpenBabel11062417183D

 26 28  0  0  1  0  0  0  0  0999 V2000
  184.9590  178.8150  143.5690 C   0  0  0  0  0  0  0  0  0  0  0  0
  185.2020  178.2170  145.7300 C   0  0  0  0  0  3  0  0  0  0  0  0
  184.1770  179.0030  145.7380 N   0  0  0  0  0  0  0  0  0  0  0  0
  185.7110  178.0800  144.3770 C   0  0  0  0  0  0  0  0  0  0  0  0
  183.8950  179.4750  144.3870 C   0  0  2  0  0  3  0  0  0  0  0  0
  182.5840  179.0020  143.9730 N   0  0  0  0  0  1  0  0  0  0  0  0
  186.0560  179.7530  141.6970 O   0  0  0  0  0  0  0  0  0  0  0  0
  185.1390  178.9970  142.1150 C   0  0  0  0  0  0  0  0  0  0  0  0
  184.2840  178.3190  141.1850 N   0  0  0  0  0  2  0  0  0  0  0  0
  184.3740  178.4380  139.7340 C   0  0  1  0  0  0  0  0  0  0  0  0
  184.4680  179.7930  139.3960 O   0  0  0  0  0  1  0  0  0  0  0  0
  184.7680  177.0000  135.8350 N   0  0  0  0  0  1  0  0  0  0  0  0
  185.5360  177.7410  139.3070 O   0  0  0  0  0  0  0  0  0  0  0  0
  183.0990  177.8380  139.1080 C   0  0  0  0  0  2  0  0  0  0  0  0
  185.7520  177.8440  137.9030 C   0  0  2  0  0  3  0  0  0  0  0  0
  183.3830  177.0590  137.8280 C   0  0  0  0  0  2  0  0  0  0  0  0
  186.4690  179.0030  137.5970 O   0  0  0  0  0  1  0  0  0  0  0  0
  184.4840  177.7480  137.0460 C   0  0  2  0  0  3  0  0  0  0  0  0
  186.8470  177.3070  143.9620 N   0  0  0  0  0  2  0  0  0  0  0  0
  190.9020  177.8410  145.0930 C   0  0  0  0  0  3  0  0  0  0  0  0
  189.1750  177.8240  143.3930 C   0  0  0  0  0  0  0  0  0  0  0  0
  189.9540  177.5030  146.0610 C   0  0  0  0  0  3  0  0  0  0  0  0
  188.7980  177.9920  142.0300 N   0  0  0  0  0  1  0  0  0  0  0  0
  188.6160  177.3260  145.6960 C   0  0  0  0  0  3  0  0  0  0  0  0
  188.2140  177.4840  144.3610 C   0  0  0  0  0  0  0  0  0  0  0  0
  190.5120  178.0010  143.7610 C   0  0  0  0  0  3  0  0  0  0  0  0
  1  4  2  0  0  0  0
  1  5  1  0  0  0  0
  2  3  2  0  0  0  0
  4  2  1  0  0  0  0
  5  6  1  6  0  0  0
  5  3  1  0  0  0  0
  7  8  2  0  0  0  0
  8  1  1  0  0  0  0
  9  8  1  0  0  0  0
 10 11  1  6  0  0  0
 10  9  1  0  0  0  0
 13 10  1  0  0  0  0
 14 10  1  0  0  0  0
 15 17  1  1  0  0  0
 15 13  1  0  0  0  0
 16 14  1  0  0  0  0
 18 12  1  6  0  0  0
 18 16  1  0  0  0  0
 18 15  1  0  0  0  0
 19 25  1  0  0  0  0
 19  4  1  0  0  0  0
 20 22  1  0  0  0  0
 21 26  1  0  0  0  0
 21 25  2  0  0  0  0
 23 21  1  0  0  0  0
 24 22  2  0  0  0  0
 25 24  1  0  0  0  0
 26 20  2  0  0  0  0
M  END
>  <MODEL>
7

>  <REMARK>
 VINA RESULT:      -8.1      2.679      4.985
  Name = 
  4 active torsions:
  status: ('A' for Active; 'I' for Inactive)
    1  A    between atoms: C_2  and  N_24
    2  A    between atoms: C_4  and  C_5
    3  A    between atoms: N_15  and  C_17
    4  A    between atoms: N_15  and  C_23
                            x       y       z     vdW  Elec       q    Type
                         _______ _______ _______ _____ _____    ______ ____

>  <TORSDO>
F 4

$$$$
=
 OpenBabel11062417183D

 26 28  0  0  1  0  0  0  0  0999 V2000
  190.0980  177.2530  139.1910 C   0  0  0  0  0  0  0  0  0  0  0  0
  189.2960  177.7210  137.1360 C   0  0  0  0  0  3  0  0  0  0  0  0
  190.3330  176.9870  136.9040 N   0  0  0  0  0  0  0  0  0  0  0  0
  189.1250  177.9020  138.5670 C   0  0  0  0  0  0  0  0  0  0  0  0
  190.9650  176.6000  138.1610 C   0  0  2  0  0  3  0  0  0  0  0  0
  190.9060  175.1540  138.3070 N   0  0  0  0  0  1  0  0  0  0  0  0
  191.4670  177.5020  141.1020 O   0  0  0  0  0  0  0  0  0  0  0  0
  190.3320  177.1970  140.6470 C   0  0  0  0  0  0  0  0  0  0  0  0
  189.2810  176.8030  141.5390 N   0  0  0  0  0  2  0  0  0  0  0  0
  189.4110  176.7080  142.9890 C   0  0  1  0  0  0  0  0  0  0  0  0
  190.2810  175.6560  143.2960 O   0  0  0  0  0  1  0  0  0  0  0  0
  188.8530  177.9630  146.9300 N   0  0  0  0  0  1  0  0  0  0  0  0
  189.9390  177.9390  143.4640 O   0  0  0  0  0  0  0  0  0  0  0  0
  188.0220  176.4230  143.5940 C   0  0  0  0  0  2  0  0  0  0  0  0
  190.1620  177.9320  144.8700 C   0  0  2  0  0  3  0  0  0  0  0  0
  187.7840  177.1740  144.8990 C   0  0  0  0  0  2  0  0  0  0  0  0
  191.4210  177.4050  145.1680 O   0  0  0  0  0  1  0  0  0  0  0  0
  189.0730  177.2350  145.6940 C   0  0  2  0  0  3  0  0  0  0  0  0
  188.1000  178.6670  139.2180 N   0  0  0  0  0  2  0  0  0  0  0  0
  183.9040  178.0480  139.0880 C   0  0  0  0  0  3  0  0  0  0  0  0
  185.9080  178.6400  140.3150 C   0  0  0  0  0  0  0  0  0  0  0  0
  184.6660  177.8600  137.9330 C   0  0  0  0  0  3  0  0  0  0  0  0
  186.5220  179.0370  141.5380 N   0  0  0  0  0  1  0  0  0  0  0  0
  186.0490  178.0630  137.9670 C   0  0  0  0  0  3  0  0  0  0  0  0
  186.6830  178.4540  139.1570 C   0  0  0  0  0  0  0  0  0  0  0  0
  184.5250  178.4370  140.2770 C   0  0  0  0  0  3  0  0  0  0  0  0
  1  8  1  0  0  0  0
  2  4  1  0  0  0  0
  3  2  2  0  0  0  0
  3  5  1  0  0  0  0
  4  1  2  0  0  0  0
  4 19  1  0  0  0  0
  5  6  1  1  0  0  0
  5  1  1  0  0  0  0
  8  7  2  0  0  0  0
  8  9  1  0  0  0  0
  9 10  1  0  0  0  0
 10 11  1  1  0  0  0
 10 13  1  0  0  0  0
 10 14  1  0  0  0  0
 13 15  1  0  0  0  0
 14 16  1  0  0  0  0
 15 17  1  6  0  0  0
 15 18  1  0  0  0  0
 16 18  1  0  0  0  0
 18 12  1  1  0  0  0
 20 26  1  0  0  0  0
 21 23  1  0  0  0  0
 22 24  1  0  0  0  0
 22 20  2  0  0  0  0
 24 25  2  0  0  0  0
 25 19  1  0  0  0  0
 25 21  1  0  0  0  0
 26 21  2  0  0  0  0
M  END
>  <MODEL>
8

>  <REMARK>
 VINA RESULT:      -8.0      3.222      6.324
  Name = 
  4 active torsions:
  status: ('A' for Active; 'I' for Inactive)
    1  A    between atoms: C_2  and  N_24
    2  A    between atoms: C_4  and  C_5
    3  A    between atoms: N_15  and  C_17
    4  A    between atoms: N_15  and  C_23
                            x       y       z     vdW  Elec       q    Type
                         _______ _______ _______ _____ _____    ______ ____

>  <TORSDO>
F 4

$$$$
=
 OpenBabel11062417183D

 26 28  0  0  1  0  0  0  0  0999 V2000
  185.7550  178.2500  144.7120 C   0  0  0  0  0  0  0  0  0  0  0  0
  183.8020  179.3240  144.3700 C   0  0  0  0  0  3  0  0  0  0  0  0
  183.7750  179.0230  145.6260 N   0  0  0  0  0  0  0  0  0  0  0  0
  185.0380  178.8500  143.7730 C   0  0  0  0  0  0  0  0  0  0  0  0
  184.9940  178.3150  145.9990 C   0  0  2  0  0  3  0  0  0  0  0  0
  185.7330  179.1020  146.9740 N   0  0  0  0  0  1  0  0  0  0  0  0
  187.1050  176.3760  144.2090 O   0  0  0  0  0  0  0  0  0  0  0  0
  187.0640  177.5910  144.5400 C   0  0  0  0  0  0  0  0  0  0  0  0
  188.2810  178.3220  144.7430 N   0  0  0  0  0  2  0  0  0  0  0  0
  189.6210  177.7630  144.6060 C   0  0  1  0  0  0  0  0  0  0  0  0
  190.5550  178.8030  144.6810 O   0  0  0  0  0  1  0  0  0  0  0  0
  192.4310  174.6880  144.3440 N   0  0  0  0  0  1  0  0  0  0  0  0
  189.8230  176.8420  145.6690 O   0  0  0  0  0  0  0  0  0  0  0  0
  189.7310  177.0690  143.2340 C   0  0  0  0  0  2  0  0  0  0  0  0
  191.1310  176.2780  145.6630 C   0  0  2  0  0  3  0  0  0  0  0  0
  190.5310  175.7730  143.2920 C   0  0  0  0  0  2  0  0  0  0  0  0
  192.0250  177.0990  146.3520 O   0  0  0  0  0  1  0  0  0  0  0  0
  191.6770  175.9260  144.2740 C   0  0  2  0  0  3  0  0  0  0  0  0
  185.4290  178.9770  142.3980 N   0  0  0  0  0  2  0  0  0  0  0  0
  183.0990  178.2150  138.9350 C   0  0  0  0  0  3  0  0  0  0  0  0
  185.2540  178.5480  139.9910 C   0  0  0  0  0  0  0  0  0  0  0  0
  182.4670  178.3840  140.1680 C   0  0  0  0  0  3  0  0  0  0  0  0
  186.6720  178.6280  139.8790 N   0  0  0  0  0  1  0  0  0  0  0  0
  183.2280  178.6350  141.3140 C   0  0  0  0  0  3  0  0  0  0  0  0
  184.6270  178.7200  141.2370 C   0  0  0  0  0  0  0  0  0  0  0  0
  184.4900  178.2970  138.8470 C   0  0  0  0  0  3  0  0  0  0  0  0
  1  5  1  0  0  0  0
  2  3  2  0  0  0  0
  3  5  1  0  0  0  0
  4  2  1  0  0  0  0
  4  1  2  0  0  0  0
  5  6  1  1  0  0  0
  7  8  2  0  0  0  0
  8  1  1  0  0  0  0
  8  9  1  0  0  0  0
 10 11  1  1  0  0  0
 10  9  1  0  0  0  0
 10 13  1  0  0  0  0
 14 16  1  0  0  0  0
 14 10  1  0  0  0  0
 15 13  1  0  0  0  0
 15 17  1  6  0  0  0
 16 18  1  0  0  0  0
 18 12  1  1  0  0  0
 18 15  1  0  0  0  0
 19  4  1  0  0  0  0
 20 22  1  0  0  0  0
 21 25  2  0  0  0  0
 22 24  2  0  0  0  0
 23 21  1  0  0  0  0
 25 24  1  0  0  0  0
 25 19  1  0  0  0  0
 26 20  2  0  0  0  0
 26 21  1  0  0  0  0
M  END
>  <MODEL>
9

>  <REMARK>
 VINA RESULT:      -7.9      2.978      7.564
  Name = 
  4 active torsions:
  status: ('A' for Active; 'I' for Inactive)
    1  A    between atoms: C_2  and  N_24
    2  A    between atoms: C_4  and  C_5
    3  A    between atoms: N_15  and  C_17
    4  A    between atoms: N_15  and  C_23
                            x       y       z     vdW  Elec       q    Type
                         _______ _______ _______ _____ _____    ______ ____

>  <TORSDO>
F 4

$$$$
